=
 OpenBabel11072410413D

 50 52  0  0  1  0  0  0  0  0999 V2000
  158.5390  209.8640  155.2030 C   0  0  0  0  0  3  0  0  0  0  0  0
  158.4420  211.0250  152.9220 C   0  0  1  0  0  3  0  0  0  0  0  0
  160.7980  207.4020  153.6980 N   0  0  0  0  0  2  0  0  0  0  0  0
  159.9270  209.2780  155.1280 C   0  0  1  0  0  3  0  0  0  0  0  0
  159.9500  210.9180  152.7450 C   0  0  0  0  0  2  0  0  0  0  0  0
  160.3580  209.5220  152.7290 N   0  0  0  0  0  0  0  0  0  0  0  0
  160.3380  208.7560  153.7810 C   0  0  0  0  0  0  0  0  0  0  0  0
  161.0290  206.6820  152.4820 C   0  0  0  0  0  0  0  0  0  0  0  0
  157.9290  210.6310  154.2840 C   0  0  0  0  0  3  0  0  0  0  0  0
  160.6160  207.1250  151.3790 O   0  0  0  0  0  0  0  0  0  0  0  0
  159.1490  212.6340  150.1560 C   0  0  0  0  0  2  0  0  0  0  0  0
  157.9840  212.4070  152.5840 C   0  0  0  0  0  0  0  0  0  0  0  0
  157.9370  213.8440  148.2910 C   0  0  2  0  0  3  0  0  0  0  0  0
  158.9540  213.9290  149.4290 C   0  0  1  0  0  3  0  0  0  0  0  0
  156.7070  214.4520  150.2450 C   0  0  0  0  0  2  0  0  0  0  0  0
  158.3590  212.9980  151.3440 N   0  0  0  0  0  0  0  0  0  0  0  0
  158.1700  214.2840  150.6540 C   0  0  1  0  0  3  0  0  0  0  0  0
  157.2800  213.0580  153.4000 O   0  0  0  0  0  0  0  0  0  0  0  0
  156.5560  213.7590  148.9090 C   0  0  0  0  0  2  0  0  0  0  0  0
  158.2620  212.8130  147.1940 C   0  0  1  0  0  3  0  0  0  0  0  0
  157.1780  212.3060  146.4430 O   0  0  0  0  0  0  0  0  0  0  0  0
  156.3980  213.3270  146.1510 O   0  0  0  0  0  1  0  0  0  0  0  0
  159.5650  213.0450  146.4110 C   0  0  0  0  0  2  0  0  0  0  0  0
  159.3970  212.9830  144.9300 C   0  0  0  0  0  2  0  0  0  0  0  0
  159.7930  211.9880  144.2790 O   0  0  0  0  0  0  0  0  0  0  0  0
  159.8450  211.8650  144.2280 O   0  0  0  0  0 15  0  0  0  0  0  0
  160.6260  212.0510  146.8510 C   0  0  0  0  0  2  0  0  0  0  0  0
  162.0350  213.4580  148.1980 O   0  0  0  0  0  0  0  0  0  0  0  0
  162.7630  212.2580  148.1230 C   0  0  0  0  0  0  0  0  0  0  0  0
  164.1380  212.4930  148.1520 O   0  0  0  0  0  1  0  0  0  0  0  0
  162.2550  211.2900  148.9930 O   0  0  0  0  0  1  0  0  0  0  0  0
  161.9710  212.7520  146.9720 C   0  0  1  0  0  3  0  0  0  0  0  0
  162.2430  209.4460  156.4720 O   0  0  0  0  0  0  0  0  0  0  0  0
  160.4640  211.2900  157.2270 C   0  0  0  0  0  1  0  0  0  0  0  0
  161.7660  211.2460  154.8880 O   0  0  0  0  0  0  0  0  0  0  0  0
  161.1610  210.3210  155.9060 S   0  0  0  0  0  0  0  0  0  0  0  0
  161.7250  205.3660  152.5350 C   0  0  0  0  0  2  0  0  0  0  0  0
  162.5750  205.2170  151.3600 N   0  0  0  0  0  2  0  0  0  0  0  0
  161.0590  203.5210  148.4930 C   0  0  0  0  0  0  0  0  0  0  0  0
  161.3290  204.3920  149.5550 O   0  0  0  0  0  0  0  0  0  0  0  0
  162.1450  204.0180  150.6610 C   0  0  2  0  0  3  0  0  0  0  0  0
  161.3820  203.1200  151.6250 C   0  0  0  0  0  2  0  0  0  0  0  0
  160.4880  202.3700  148.6920 N   0  0  0  0  0  0  0  0  0  0  0  0
  161.1130  201.7650  150.9970 C   0  0  0  0  0  2  0  0  0  0  0  0
  159.9960  201.8870  149.9770 C   0  0  0  0  0  2  0  0  0  0  0  0
  161.3340  203.1200  146.1900 O   0  0  0  0  0  0  0  0  0  0  0  0
  161.3910  203.9660  147.1200 C   0  0  0  0  0  0  0  0  0  0  0  0
  161.7930  205.2740  146.8030 O   0  0  0  0  0  0  0  0  0  0  0  0
  160.8420  205.9770  144.8250 O   0  0  0  0  0  1  0  0  0  0  0  0
  162.0490  205.7390  145.4840 C   0  0  0  0  0  2  0  0  0  0  0  0
  2 12  1  1  0  0  0
  2  9  1  0  0  0  0
  3  7  1  0  0  0  0
  4  1  1  0  0  0  0
  4 36  1  6  0  0  0
  5  2  1  0  0  0  0
  6  5  1  0  0  0  0
  6  7  2  0  0  0  0
  7  4  1  0  0  0  0
  8 37  1  0  0  0  0
  8  3  1  0  0  0  0
  9  1  2  0  0  0  0
 10  8  2  0  0  0  0
 11 16  1  0  0  0  0
 12 18  2  0  0  0  0
 13 20  1  1  0  0  0
 13 19  1  0  0  0  0
 13 14  1  0  0  0  0
 14 11  1  1  0  0  0
 14 17  1  0  0  0  0
 16 12  1  0  0  0  0
 17 15  1  6  0  0  0
 17 16  1  0  0  0  0
 19 15  1  0  0  0  0
 20 23  1  6  0  0  0
 21 20  1  0  0  0  0
 22 21  1  0  0  0  0
 23 27  1  0  0  0  0
 25 24  2  0  0  0  0
 29 30  1  0  0  0  0
 29 28  1  0  0  0  0
 29 31  1  0  0  0  0
 32 27  1  1  0  0  0
 32 29  1  0  0  0  0
 32 28  1  0  0  0  0
 35 36  2  0  0  0  0
 36 33  2  0  0  0  0
 36 34  1  0  0  0  0
 38 37  1  0  0  0  0
 39 43  2  0  0  0  0
 39 40  1  0  0  0  0
 40 41  1  0  0  0  0
 41 38  1  1  0  0  0
 41 42  1  0  0  0  0
 43 45  1  0  0  0  0
 44 42  1  0  0  0  0
 45 44  1  0  0  0  0
 46 47  2  0  0  0  0
 47 39  1  0  0  0  0
 48 47  1  0  0  0  0
 49 50  1  0  0  0  0
 50 48  1  0  0  0  0
M  END
>  <MODEL>
1

>  <REMARK>
 VINA RESULT:      -6.1      0.000      0.000
  Name = 
  14 active torsions:
  status: ('A' for Active; 'I' for Inactive)
    1  A    between atoms: O_2  and  C_38
    2  A    between atoms: O_2  and  C_40
    3  A    between atoms: C_6  and  C_38
    4  A    between atoms: O_7  and  C_12
    5  A    between atoms: C_10  and  C_21
    6  A    between atoms: C_11  and  C_39
    7  A    between atoms: C_11  and  C_43
    8  A    between atoms: C_12  and  C_14
    9  A    between atoms: C_12  and  C_43
   10  A    between atoms: C_13  and  N_35
   11  A    between atoms: C_19  and  C_43
   12  A    between atoms: C_33  and  S_47
   13  A    between atoms: N_35  and  C_50
   14  A    between atoms: C_46  and  C_50
                            x       y       z     vdW  Elec       q    Type
                         _______ _______ _______ _____ _____    ______ ____

>  <TORSDO>
F 14

$$$$
=
 OpenBabel11072410413D

 50 52  0  0  1  0  0  0  0  0999 V2000
  158.8270  209.9920  155.2430 C   0  0  0  0  0  3  0  0  0  0  0  0
  158.6490  210.9890  152.8910 C   0  0  1  0  0  3  0  0  0  0  0  0
  160.9460  207.3640  153.8170 N   0  0  0  0  0  2  0  0  0  0  0  0
  160.1940  209.3610  155.1460 C   0  0  1  0  0  3  0  0  0  0  0  0
  160.1430  210.8260  152.6510 C   0  0  0  0  0  2  0  0  0  0  0  0
  160.5140  209.4210  152.7190 N   0  0  0  0  0  0  0  0  0  0  0  0
  160.5250  208.7330  153.8230 C   0  0  0  0  0  0  0  0  0  0  0  0
  161.0990  206.5520  152.6470 C   0  0  0  0  0  0  0  0  0  0  0  0
  158.1930  210.7090  154.3000 C   0  0  0  0  0  3  0  0  0  0  0  0
  160.6440  206.9270  151.5350 O   0  0  0  0  0  0  0  0  0  0  0  0
  159.9930  212.7620  150.4850 C   0  0  0  0  0  2  0  0  0  0  0  0
  158.2100  212.3570  152.4750 C   0  0  0  0  0  0  0  0  0  0  0  0
  159.2740  213.9840  148.3870 C   0  0  2  0  0  3  0  0  0  0  0  0
  159.9220  214.0760  149.7680 C   0  0  1  0  0  3  0  0  0  0  0  0
  157.5060  214.4290  149.9270 C   0  0  0  0  0  2  0  0  0  0  0  0
  158.8780  213.0240  151.4090 N   0  0  0  0  0  0  0  0  0  0  0  0
  158.8030  214.3280  150.7300 C   0  0  1  0  0  3  0  0  0  0  0  0
  157.2620  212.9280  153.0760 O   0  0  0  0  0  0  0  0  0  0  0  0
  157.7850  213.7910  148.5850 C   0  0  0  0  0  2  0  0  0  0  0  0
  159.9640  213.0250  147.3990 C   0  0  1  0  0  3  0  0  0  0  0  0
  159.9490  213.3850  146.0330 O   0  0  0  0  0  0  0  0  0  0  0  0
  159.2780  212.4480  145.3930 O   0  0  0  0  0  1  0  0  0  0  0  0
  161.2550  212.3520  147.8970 C   0  0  0  0  0  2  0  0  0  0  0  0
  162.4970  212.8940  147.2720 C   0  0  0  0  0  2  0  0  0  0  0  0
  163.1320  213.8290  147.8150 O   0  0  0  0  0  0  0  0  0  0  0  0
  163.1870  213.9340  147.8950 O   0  0  0  0  0 15  0  0  0  0  0  0
  161.1810  210.8500  147.6790 C   0  0  0  0  0  2  0  0  0  0  0  0
  162.1110  209.9670  149.7120 O   0  0  0  0  0  0  0  0  0  0  0  0
  162.0390  208.8380  148.8790 C   0  0  0  0  0  0  0  0  0  0  0  0
  163.0690  207.9360  149.1510 O   0  0  0  0  0  1  0  0  0  0  0  0
  160.7390  208.3310  148.8080 O   0  0  0  0  0  1  0  0  0  0  0  0
  162.3760  210.1750  148.3360 C   0  0  1  0  0  3  0  0  0  0  0  0
  162.5570  210.5650  154.7390 O   0  0  0  0  0  0  0  0  0  0  0  0
  162.2290  209.7400  157.2580 C   0  0  0  0  0  1  0  0  0  0  0  0
  160.9340  211.7790  156.1050 O   0  0  0  0  0  0  0  0  0  0  0  0
  161.4910  210.4210  155.7870 S   0  0  0  0  0  0  0  0  0  0  0  0
  161.7620  205.2240  152.7630 C   0  0  0  0  0  2  0  0  0  0  0  0
  162.7240  205.0640  151.6800 N   0  0  0  0  0  2  0  0  0  0  0  0
  161.1290  203.9990  148.5630 C   0  0  0  0  0  0  0  0  0  0  0  0
  161.4500  204.6570  149.7560 O   0  0  0  0  0  0  0  0  0  0  0  0
  162.2100  204.0370  150.7890 C   0  0  2  0  0  3  0  0  0  0  0  0
  161.3580  203.0600  151.5860 C   0  0  0  0  0  2  0  0  0  0  0  0
  160.4620  202.8840  148.5640 N   0  0  0  0  0  0  0  0  0  0  0  0
  160.9900  201.8550  150.7410 C   0  0  0  0  0  2  0  0  0  0  0  0
  159.9070  202.2380  149.7490 C   0  0  0  0  0  2  0  0  0  0  0  0
  162.6990  204.4600  146.8710 O   0  0  0  0  0  0  0  0  0  0  0  0
  161.5240  204.6350  147.2850 C   0  0  0  0  0  0  0  0  0  0  0  0
  160.6670  205.4450  146.5220 O   0  0  0  0  0  0  0  0  0  0  0  0
  160.6840  204.9890  144.2640 O   0  0  0  0  0  1  0  0  0  0  0  0
  160.9760  205.9510  145.2300 C   0  0  0  0  0  2  0  0  0  0  0  0
  2 12  1  1  0  0  0
  2  9  1  0  0  0  0
  3  7  1  0  0  0  0
  4  1  1  0  0  0  0
  4 36  1  6  0  0  0
  5  6  1  0  0  0  0
  5  2  1  0  0  0  0
  6  7  2  0  0  0  0
  7  4  1  0  0  0  0
  8 37  1  0  0  0  0
  8  3  1  0  0  0  0
  9  1  2  0  0  0  0
 10  8  2  0  0  0  0
 11 16  1  0  0  0  0
 12 18  2  0  0  0  0
 13 20  1  1  0  0  0
 13 19  1  0  0  0  0
 13 14  1  0  0  0  0
 14 11  1  1  0  0  0
 14 17  1  0  0  0  0
 16 12  1  0  0  0  0
 17 15  1  6  0  0  0
 17 16  1  0  0  0  0
 19 15  1  0  0  0  0
 20 23  1  1  0  0  0
 21 20  1  0  0  0  0
 22 21  1  0  0  0  0
 24 25  2  0  0  0  0
 27 23  1  0  0  0  0
 29 30  1  0  0  0  0
 29 28  1  0  0  0  0
 31 29  1  0  0  0  0
 32 27  1  6  0  0  0
 32 29  1  0  0  0  0
 32 28  1  0  0  0  0
 33 36  2  0  0  0  0
 36 35  2  0  0  0  0
 36 34  1  0  0  0  0
 38 37  1  0  0  0  0
 39 43  2  0  0  0  0
 39 40  1  0  0  0  0
 40 41  1  0  0  0  0
 41 42  1  0  0  0  0
 41 38  1  1  0  0  0
 43 45  1  0  0  0  0
 44 42  1  0  0  0  0
 45 44  1  0  0  0  0
 46 47  2  0  0  0  0
 47 39  1  0  0  0  0
 48 47  1  0  0  0  0
 49 50  1  0  0  0  0
 50 48  1  0  0  0  0
M  END
>  <MODEL>
2

>  <REMARK>
 VINA RESULT:      -5.9      1.236      2.002
  Name = 
  14 active torsions:
  status: ('A' for Active; 'I' for Inactive)
    1  A    between atoms: O_2  and  C_38
    2  A    between atoms: O_2  and  C_40
    3  A    between atoms: C_6  and  C_38
    4  A    between atoms: O_7  and  C_12
    5  A    between atoms: C_10  and  C_21
    6  A    between atoms: C_11  and  C_39
    7  A    between atoms: C_11  and  C_43
    8  A    between atoms: C_12  and  C_14
    9  A    between atoms: C_12  and  C_43
   10  A    between atoms: C_13  and  N_35
   11  A    between atoms: C_19  and  C_43
   12  A    between atoms: C_33  and  S_47
   13  A    between atoms: N_35  and  C_50
   14  A    between atoms: C_46  and  C_50
                            x       y       z     vdW  Elec       q    Type
                         _______ _______ _______ _____ _____    ______ ____

>  <TORSDO>
F 14

$$$$
=
 OpenBabel11072410413D

 50 52  0  0  1  0  0  0  0  0999 V2000
  162.9410  206.9810  152.5930 C   0  0  0  0  0  3  0  0  0  0  0  0
  161.5790  205.4310  151.0760 C   0  0  1  0  0  3  0  0  0  0  0  0
  162.1850  209.7020  150.2580 N   0  0  0  0  0  2  0  0  0  0  0  0
  162.2240  208.2820  152.3330 C   0  0  1  0  0  3  0  0  0  0  0  0
  160.4600  206.4550  150.9460 C   0  0  0  0  0  2  0  0  0  0  0  0
  160.9610  207.6720  150.3250 N   0  0  0  0  0  0  0  0  0  0  0  0
  161.7710  208.5000  150.9170 C   0  0  0  0  0  0  0  0  0  0  0  0
  162.0240  209.9750  148.8620 C   0  0  0  0  0  0  0  0  0  0  0  0
  162.6430  205.7720  152.0880 C   0  0  0  0  0  3  0  0  0  0  0  0
  161.7070  209.0620  148.0560 O   0  0  0  0  0  0  0  0  0  0  0  0
  160.3880  203.3440  148.8470 C   0  0  0  0  0  2  0  0  0  0  0  0
  161.0060  204.0820  151.3730 C   0  0  0  0  0  0  0  0  0  0  0  0
  160.7000  200.9350  148.1330 C   0  0  2  0  0  3  0  0  0  0  0  0
  159.7470  202.0010  148.6720 C   0  0  1  0  0  3  0  0  0  0  0  0
  160.8620  200.8390  150.5130 C   0  0  0  0  0  2  0  0  0  0  0  0
  160.5200  203.2660  150.3110 N   0  0  0  0  0  0  0  0  0  0  0  0
  159.8750  201.9520  150.1620 C   0  0  1  0  0  3  0  0  0  0  0  0
  160.9360  203.6710  152.5610 O   0  0  0  0  0  0  0  0  0  0  0  0
  161.6470  200.5520  149.2520 C   0  0  0  0  0  2  0  0  0  0  0  0
  161.3430  201.2540  146.7700 C   0  0  1  0  0  3  0  0  0  0  0  0
  161.7860  200.1610  145.9940 O   0  0  0  0  0  0  0  0  0  0  0  0
  160.7530  199.3590  145.8290 O   0  0  0  0  0  1  0  0  0  0  0  0
  160.7220  202.4220  145.9850 C   0  0  0  0  0  2  0  0  0  0  0  0
  159.8700  201.9910  144.8380 C   0  0  0  0  0  2  0  0  0  0  0  0
  159.1700  202.8200  144.2120 O   0  0  0  0  0  0  0  0  0  0  0  0
  159.1000  202.9320  144.1560 O   0  0  0  0  0 15  0  0  0  0  0  0
  161.8100  203.3630  145.4950 C   0  0  0  0  0  2  0  0  0  0  0  0
  162.6450  205.6000  145.7680 O   0  0  0  0  0  0  0  0  0  0  0  0
  161.2510  205.7800  145.7580 C   0  0  0  0  0  0  0  0  0  0  0  0
  160.8690  206.8560  146.5610 O   0  0  0  0  0  1  0  0  0  0  0  0
  160.7330  205.7270  144.4610 O   0  0  0  0  0  1  0  0  0  0  0  0
  161.8700  204.5910  146.3900 C   0  0  1  0  0  3  0  0  0  0  0  0
  161.5240  209.5910  154.5680 O   0  0  0  0  0  0  0  0  0  0  0  0
  160.4390  207.1560  154.4040 C   0  0  0  0  0  1  0  0  0  0  0  0
  159.7690  209.2660  152.8980 O   0  0  0  0  0  0  0  0  0  0  0  0
  160.9620  208.6330  153.5570 S   0  0  0  0  0  0  0  0  0  0  0  0
  162.2870  211.3490  148.3530 C   0  0  0  0  0  2  0  0  0  0  0  0
  161.0460  212.1150  148.3530 N   0  0  0  0  0  2  0  0  0  0  0  0
  159.8690  213.4280  145.1460 C   0  0  0  0  0  0  0  0  0  0  0  0
  160.2970  212.5930  146.1850 O   0  0  0  0  0  0  0  0  0  0  0  0
  161.1180  213.0600  147.2510 C   0  0  2  0  0  3  0  0  0  0  0  0
  162.5660  213.2050  146.8060 C   0  0  0  0  0  2  0  0  0  0  0  0
  160.7210  214.0560  144.3900 N   0  0  0  0  0  0  0  0  0  0  0  0
  162.7110  214.3440  145.8150 C   0  0  0  0  0  2  0  0  0  0  0  0
  162.1710  213.9170  144.4620 C   0  0  0  0  0  2  0  0  0  0  0  0
  158.0390  214.0870  143.8210 O   0  0  0  0  0  0  0  0  0  0  0  0
  158.4150  213.5400  144.8900 C   0  0  0  0  0  0  0  0  0  0  0  0
  157.4320  213.0930  145.7880 O   0  0  0  0  0  0  0  0  0  0  0  0
  157.0330  213.0210  148.0560 O   0  0  0  0  0  1  0  0  0  0  0  0
  156.9810  213.8270  146.9180 C   0  0  0  0  0  2  0  0  0  0  0  0
  2 12  1  1  0  0  0
  2  9  1  0  0  0  0
  3  7  1  0  0  0  0
  4  1  1  0  0  0  0
  4 36  1  1  0  0  0
  5  2  1  0  0  0  0
  6  7  2  0  0  0  0
  6  5  1  0  0  0  0
  7  4  1  0  0  0  0
  8  3  1  0  0  0  0
  9  1  2  0  0  0  0
 10  8  2  0  0  0  0
 11 16  1  0  0  0  0
 12 18  2  0  0  0  0
 13 20  1  6  0  0  0
 13 14  1  0  0  0  0
 13 19  1  0  0  0  0
 14 11  1  6  0  0  0
 14 17  1  0  0  0  0
 16 12  1  0  0  0  0
 17 16  1  0  0  0  0
 17 15  1  6  0  0  0
 19 15  1  0  0  0  0
 20 23  1  6  0  0  0
 21 20  1  0  0  0  0
 22 21  1  0  0  0  0
 25 24  2  0  0  0  0
 27 23  1  0  0  0  0
 28 32  1  0  0  0  0
 29 28  1  0  0  0  0
 29 32  1  0  0  0  0
 29 30  1  0  0  0  0
 31 29  1  0  0  0  0
 32 27  1  6  0  0  0
 35 36  2  0  0  0  0
 36 34  1  0  0  0  0
 36 33  2  0  0  0  0
 37  8  1  0  0  0  0
 38 37  1  0  0  0  0
 39 40  1  0  0  0  0
 40 41  1  0  0  0  0
 41 38  1  1  0  0  0
 42 41  1  0  0  0  0
 43 45  1  0  0  0  0
 43 39  2  0  0  0  0
 44 42  1  0  0  0  0
 45 44  1  0  0  0  0
 46 47  2  0  0  0  0
 47 39  1  0  0  0  0
 47 48  1  0  0  0  0
 48 50  1  0  0  0  0
 50 49  1  0  0  0  0
M  END
>  <MODEL>
3

>  <REMARK>
 VINA RESULT:      -5.5      2.689      9.350
  Name = 
  14 active torsions:
  status: ('A' for Active; 'I' for Inactive)
    1  A    between atoms: O_2  and  C_38
    2  A    between atoms: O_2  and  C_40
    3  A    between atoms: C_6  and  C_38
    4  A    between atoms: O_7  and  C_12
    5  A    between atoms: C_10  and  C_21
    6  A    between atoms: C_11  and  C_39
    7  A    between atoms: C_11  and  C_43
    8  A    between atoms: C_12  and  C_14
    9  A    between atoms: C_12  and  C_43
   10  A    between atoms: C_13  and  N_35
   11  A    between atoms: C_19  and  C_43
   12  A    between atoms: C_33  and  S_47
   13  A    between atoms: N_35  and  C_50
   14  A    between atoms: C_46  and  C_50
                            x       y       z     vdW  Elec       q    Type
                         _______ _______ _______ _____ _____    ______ ____

>  <TORSDO>
F 14

$$$$
=
 OpenBabel11072410413D

 50 52  0  0  1  0  0  0  0  0999 V2000
  162.9490  206.9530  152.9100 C   0  0  0  0  0  3  0  0  0  0  0  0
  161.5680  205.5300  151.2890 C   0  0  1  0  0  3  0  0  0  0  0  0
  162.2000  209.8460  150.7890 N   0  0  0  0  0  2  0  0  0  0  0  0
  162.2400  208.2750  152.7510 C   0  0  1  0  0  3  0  0  0  0  0  0
  160.4560  206.5690  151.2420 C   0  0  0  0  0  2  0  0  0  0  0  0
  160.9620  207.8250  150.7110 N   0  0  0  0  0  0  0  0  0  0  0  0
  161.7810  208.6010  151.3590 C   0  0  0  0  0  0  0  0  0  0  0  0
  162.0340  210.2240  149.4170 C   0  0  0  0  0  0  0  0  0  0  0  0
  162.6400  205.7880  152.3170 C   0  0  0  0  0  3  0  0  0  0  0  0
  161.7060  209.3750  148.5480 O   0  0  0  0  0  0  0  0  0  0  0  0
  160.4020  203.6000  148.9110 C   0  0  0  0  0  2  0  0  0  0  0  0
  160.9870  204.1670  151.4880 C   0  0  0  0  0  0  0  0  0  0  0  0
  160.7170  201.2430  148.0430 C   0  0  2  0  0  3  0  0  0  0  0  0
  159.7600  202.2750  148.6380 C   0  0  1  0  0  3  0  0  0  0  0  0
  160.8460  200.9880  150.4130 C   0  0  0  0  0  2  0  0  0  0  0  0
  160.5140  203.4250  150.3680 N   0  0  0  0  0  0  0  0  0  0  0  0
  159.8670  202.1260  150.1230 C   0  0  1  0  0  3  0  0  0  0  0  0
  160.9000  203.6780  152.6450 O   0  0  0  0  0  0  0  0  0  0  0  0
  161.6470  200.7830  149.1460 C   0  0  0  0  0  2  0  0  0  0  0  0
  161.3800  201.6490  146.7130 C   0  0  1  0  0  3  0  0  0  0  0  0
  161.9480  200.6180  145.9340 O   0  0  0  0  0  0  0  0  0  0  0  0
  161.7310  199.4850  146.5710 O   0  0  0  0  0  1  0  0  0  0  0  0
  160.6860  202.7750  145.9260 C   0  0  0  0  0  2  0  0  0  0  0  0
  159.8400  202.2880  144.7980 C   0  0  0  0  0  2  0  0  0  0  0  0
  159.0420  201.3340  144.9590 O   0  0  0  0  0  0  0  0  0  0  0  0
  158.9590  201.2260  145.0020 O   0  0  0  0  0 15  0  0  0  0  0  0
  161.7160  203.7650  145.4090 C   0  0  0  0  0  2  0  0  0  0  0  0
  162.6980  205.8800  145.9930 O   0  0  0  0  0  0  0  0  0  0  0  0
  161.4020  205.9720  146.5300 C   0  0  0  0  0  0  0  0  0  0  0  0
  161.3840  206.7530  147.6870 O   0  0  0  0  0  1  0  0  0  0  0  0
  160.4530  206.2570  145.5440 O   0  0  0  0  0  1  0  0  0  0  0  0
  162.1490  204.6920  146.5350 C   0  0  1  0  0  3  0  0  0  0  0  0
  159.7770  209.1520  153.3560 O   0  0  0  0  0  0  0  0  0  0  0  0
  161.5600  209.6410  155.2850 C   0  0  0  0  0  1  0  0  0  0  0  0
  160.5960  207.2320  154.6280 O   0  0  0  0  0  0  0  0  0  0  0  0
  160.9860  208.5420  154.0060 S   0  0  0  0  0  0  0  0  0  0  0  0
  162.3040  211.6300  149.0110 C   0  0  0  0  0  2  0  0  0  0  0  0
  162.3590  211.7160  147.5570 N   0  0  0  0  0  2  0  0  0  0  0  0
  160.1940  213.2450  145.0330 C   0  0  0  0  0  0  0  0  0  0  0  0
  161.2490  212.9540  145.9050 O   0  0  0  0  0  0  0  0  0  0  0  0
  161.0670  212.1980  147.0990 C   0  0  2  0  0  3  0  0  0  0  0  0
  160.4300  213.0440  148.1920 C   0  0  0  0  0  2  0  0  0  0  0  0
  159.1420  213.8930  145.4380 N   0  0  0  0  0  0  0  0  0  0  0  0
  158.9920  213.3780  147.8440 C   0  0  0  0  0  2  0  0  0  0  0  0
  158.9610  214.4530  146.7730 C   0  0  0  0  0  2  0  0  0  0  0  0
  159.7320  211.8030  143.2320 O   0  0  0  0  0  0  0  0  0  0  0  0
  160.3270  212.8440  143.6140 C   0  0  0  0  0  0  0  0  0  0  0  0
  161.1030  213.5450  142.6770 O   0  0  0  0  0  0  0  0  0  0  0  0
  163.3650  213.2760  143.0240 O   0  0  0  0  0  1  0  0  0  0  0  0
  162.3210  213.0670  142.1220 C   0  0  0  0  0  2  0  0  0  0  0  0
  2 12  1  1  0  0  0
  2  9  1  0  0  0  0
  3  7  1  0  0  0  0
  4  1  1  0  0  0  0
  4 36  1  1  0  0  0
  5  2  1  0  0  0  0
  6  5  1  0  0  0  0
  6  7  2  0  0  0  0
  7  4  1  0  0  0  0
  8  3  1  0  0  0  0
  9  1  2  0  0  0  0
 10  8  2  0  0  0  0
 11 16  1  0  0  0  0
 12 18  2  0  0  0  0
 13 20  1  6  0  0  0
 13 14  1  0  0  0  0
 13 19  1  0  0  0  0
 14 11  1  1  0  0  0
 14 17  1  0  0  0  0
 16 12  1  0  0  0  0
 17 16  1  0  0  0  0
 17 15  1  6  0  0  0
 19 15  1  0  0  0  0
 20 23  1  6  0  0  0
 21 22  1  0  0  0  0
 21 20  1  0  0  0  0
 24 25  2  0  0  0  0
 27 23  1  0  0  0  0
 28 29  1  0  0  0  0
 28 32  1  0  0  0  0
 29 32  1  0  0  0  0
 29 30  1  0  0  0  0
 31 29  1  0  0  0  0
 32 27  1  6  0  0  0
 33 36  2  0  0  0  0
 36 35  2  0  0  0  0
 36 34  1  0  0  0  0
 37  8  1  0  0  0  0
 38 37  1  0  0  0  0
 39 43  2  0  0  0  0
 39 40  1  0  0  0  0
 40 41  1  0  0  0  0
 41 38  1  1  0  0  0
 41 42  1  0  0  0  0
 43 45  1  0  0  0  0
 44 42  1  0  0  0  0
 45 44  1  0  0  0  0
 46 47  2  0  0  0  0
 47 39  1  0  0  0  0
 48 47  1  0  0  0  0
 50 48  1  0  0  0  0
 50 49  1  0  0  0  0
M  END
>  <MODEL>
4

>  <REMARK>
 VINA RESULT:      -4.1      2.625      9.084
  Name = 
  14 active torsions:
  status: ('A' for Active; 'I' for Inactive)
    1  A    between atoms: O_2  and  C_38
    2  A    between atoms: O_2  and  C_40
    3  A    between atoms: C_6  and  C_38
    4  A    between atoms: O_7  and  C_12
    5  A    between atoms: C_10  and  C_21
    6  A    between atoms: C_11  and  C_39
    7  A    between atoms: C_11  and  C_43
    8  A    between atoms: C_12  and  C_14
    9  A    between atoms: C_12  and  C_43
   10  A    between atoms: C_13  and  N_35
   11  A    between atoms: C_19  and  C_43
   12  A    between atoms: C_33  and  S_47
   13  A    between atoms: N_35  and  C_50
   14  A    between atoms: C_46  and  C_50
                            x       y       z     vdW  Elec       q    Type
                         _______ _______ _______ _____ _____    ______ ____

>  <TORSDO>
F 14

$$$$
=
 OpenBabel11072410413D

 50 52  0  0  1  0  0  0  0  0999 V2000
  162.7400  210.0270  151.8800 C   0  0  0  0  0  3  0  0  0  0  0  0
  160.4030  210.3140  152.8880 C   0  0  1  0  0  3  0  0  0  0  0  0
  162.0450  206.4370  151.6440 N   0  0  0  0  0  2  0  0  0  0  0  0
  162.4890  208.8260  151.0010 C   0  0  1  0  0  3  0  0  0  0  0  0
  159.7810  209.4070  151.8360 C   0  0  0  0  0  2  0  0  0  0  0  0
  160.3490  208.0710  151.9220 N   0  0  0  0  0  0  0  0  0  0  0  0
  161.5700  207.7860  151.5740 C   0  0  0  0  0  0  0  0  0  0  0  0
  161.3950  205.3670  152.3410 C   0  0  0  0  0  0  0  0  0  0  0  0
  161.8470  210.6740  152.6480 C   0  0  0  0  0  3  0  0  0  0  0  0
  160.4580  205.5980  153.1490 O   0  0  0  0  0  0  0  0  0  0  0  0
  160.5570  212.9360  150.9280 C   0  0  0  0  0  2  0  0  0  0  0  0
  159.5870  211.5570  153.0410 C   0  0  0  0  0  0  0  0  0  0  0  0
  158.9990  214.3800  149.5510 C   0  0  2  0  0  3  0  0  0  0  0  0
  160.0020  214.3080  150.7020 C   0  0  1  0  0  3  0  0  0  0  0  0
  157.7300  213.9040  151.5160 C   0  0  0  0  0  2  0  0  0  0  0  0
  159.7470  212.6300  152.1180 N   0  0  0  0  0  0  0  0  0  0  0  0
  159.2010  213.9840  151.9240 C   0  0  1  0  0  3  0  0  0  0  0  0
  158.7690  211.6660  153.9930 O   0  0  0  0  0  0  0  0  0  0  0  0
  157.7140  213.7260  150.0140 C   0  0  0  0  0  2  0  0  0  0  0  0
  159.5390  213.9350  148.1790 C   0  0  1  0  0  3  0  0  0  0  0  0
  160.5970  212.9990  148.1740 O   0  0  0  0  0  0  0  0  0  0  0  0
  161.6310  213.5860  147.6060 O   0  0  0  0  0  1  0  0  0  0  0  0
  158.4950  213.7680  147.0610 C   0  0  0  0  0  2  0  0  0  0  0  0
  158.0580  212.3570  146.8520 C   0  0  0  0  0  2  0  0  0  0  0  0
  156.9100  212.0980  146.4180 O   0  0  0  0  0  0  0  0  0  0  0  0
  156.7770  212.0940  146.3680 O   0  0  0  0  0 15  0  0  0  0  0  0
  159.0240  214.3420  145.7580 C   0  0  0  0  0  2  0  0  0  0  0  0
  159.3510  213.7600  143.4500 O   0  0  0  0  0  0  0  0  0  0  0  0
  160.5520  213.3500  144.0540 C   0  0  0  0  0  0  0  0  0  0  0  0
  161.0910  212.2340  143.4130 O   0  0  0  0  0  1  0  0  0  0  0  0
  161.4040  214.4310  144.2940 O   0  0  0  0  0  1  0  0  0  0  0  0
  159.2530  213.2210  144.7560 C   0  0  1  0  0  3  0  0  0  0  0  0
  160.9280  208.4650  148.8490 O   0  0  0  0  0  0  0  0  0  0  0  0
  163.4760  208.9570  148.2170 C   0  0  0  0  0  1  0  0  0  0  0  0
  161.7520  210.7340  149.2330 O   0  0  0  0  0  0  0  0  0  0  0  0
  162.1060  209.2760  149.3080 S   0  0  0  0  0  0  0  0  0  0  0  0
  161.8700  203.9710  152.1410 C   0  0  0  0  0  2  0  0  0  0  0  0
  160.7890  203.1610  151.5950 N   0  0  0  0  0  2  0  0  0  0  0  0
  161.2130  203.7790  148.0130 C   0  0  0  0  0  0  0  0  0  0  0  0
  160.7060  203.6940  149.3150 O   0  0  0  0  0  0  0  0  0  0  0  0
  161.1860  202.7440  150.2610 C   0  0  2  0  0  3  0  0  0  0  0  0
  160.6240  201.3580  149.9790 C   0  0  0  0  0  2  0  0  0  0  0  0
  161.1750  202.7610  147.2060 N   0  0  0  0  0  0  0  0  0  0  0  0
  161.2010  200.7960  148.6930 C   0  0  0  0  0  2  0  0  0  0  0  0
  160.5510  201.4760  147.5020 C   0  0  0  0  0  2  0  0  0  0  0  0
  162.0530  205.9390  148.4230 O   0  0  0  0  0  0  0  0  0  0  0  0
  161.7500  205.0810  147.5540 C   0  0  0  0  0  0  0  0  0  0  0  0
  161.9140  205.4200  146.2020 O   0  0  0  0  0  0  0  0  0  0  0  0
  160.8310  204.6730  144.3100 O   0  0  0  0  0  1  0  0  0  0  0  0
  160.8440  205.6600  145.2970 C   0  0  0  0  0  2  0  0  0  0  0  0
  1  9  2  0  0  0  0
  2 12  1  6  0  0  0
  3  8  1  0  0  0  0
  4 36  1  6  0  0  0
  4  7  1  0  0  0  0
  4  1  1  0  0  0  0
  5  6  1  0  0  0  0
  5  2  1  0  0  0  0
  7  3  1  0  0  0  0
  7  6  2  0  0  0  0
  8 10  2  0  0  0  0
  9  2  1  0  0  0  0
 11 16  1  0  0  0  0
 12 18  2  0  0  0  0
 13 20  1  6  0  0  0
 13 19  1  0  0  0  0
 13 14  1  0  0  0  0
 14 11  1  6  0  0  0
 14 17  1  0  0  0  0
 16 12  1  0  0  0  0
 17 15  1  6  0  0  0
 17 16  1  0  0  0  0
 19 15  1  0  0  0  0
 20 23  1  6  0  0  0
 21 20  1  0  0  0  0
 22 21  1  0  0  0  0
 25 24  2  0  0  0  0
 27 23  1  0  0  0  0
 28 29  1  0  0  0  0
 28 32  1  0  0  0  0
 29 31  1  0  0  0  0
 29 32  1  0  0  0  0
 30 29  1  0  0  0  0
 32 27  1  1  0  0  0
 33 36  2  0  0  0  0
 34 36  1  0  0  0  0
 35 36  2  0  0  0  0
 37  8  1  0  0  0  0
 38 37  1  0  0  0  0
 39 40  1  0  0  0  0
 40 41  1  0  0  0  0
 41 38  1  1  0  0  0
 42 41  1  0  0  0  0
 43 45  1  0  0  0  0
 43 39  2  0  0  0  0
 44 42  1  0  0  0  0
 45 44  1  0  0  0  0
 47 39  1  0  0  0  0
 47 46  2  0  0  0  0
 48 47  1  0  0  0  0
 49 50  1  0  0  0  0
 50 48  1  0  0  0  0
M  END
>  <MODEL>
5

>  <REMARK>
 VINA RESULT:      -4.0      2.115      3.579
  Name = 
  14 active torsions:
  status: ('A' for Active; 'I' for Inactive)
    1  A    between atoms: O_2  and  C_38
    2  A    between atoms: O_2  and  C_40
    3  A    between atoms: C_6  and  C_38
    4  A    between atoms: O_7  and  C_12
    5  A    between atoms: C_10  and  C_21
    6  A    between atoms: C_11  and  C_39
    7  A    between atoms: C_11  and  C_43
    8  A    between atoms: C_12  and  C_14
    9  A    between atoms: C_12  and  C_43
   10  A    between atoms: C_13  and  N_35
   11  A    between atoms: C_19  and  C_43
   12  A    between atoms: C_33  and  S_47
   13  A    between atoms: N_35  and  C_50
   14  A    between atoms: C_46  and  C_50
                            x       y       z     vdW  Elec       q    Type
                         _______ _______ _______ _____ _____    ______ ____

>  <TORSDO>
F 14

$$$$
=
 OpenBabel11072410413D

 50 52  0  0  1  0  0  0  0  0999 V2000
  161.1920  213.9570  148.4270 C   0  0  0  0  0  3  0  0  0  0  0  0
  161.8760  211.4900  148.3500 C   0  0  1  0  0  3  0  0  0  0  0  0
  160.7320  213.8000  144.7950 N   0  0  0  0  0  2  0  0  0  0  0  0
  160.2440  213.9920  147.2540 C   0  0  1  0  0  3  0  0  0  0  0  0
  160.7160  211.1430  147.4270 C   0  0  0  0  0  2  0  0  0  0  0  0
  160.8320  211.8730  146.1750 N   0  0  0  0  0  0  0  0  0  0  0  0
  160.6460  213.1570  146.0720 C   0  0  0  0  0  0  0  0  0  0  0  0
  161.2930  213.2160  143.6130 C   0  0  0  0  0  0  0  0  0  0  0  0
  161.8520  212.8900  148.9090 C   0  0  0  0  0  3  0  0  0  0  0  0
  161.9720  212.1580  143.6740 O   0  0  0  0  0  0  0  0  0  0  0  0
  160.8920  208.3690  148.1850 C   0  0  0  0  0  2  0  0  0  0  0  0
  161.9590  210.4980  149.4640 C   0  0  0  0  0  0  0  0  0  0  0  0
  161.8190  206.0530  148.6170 C   0  0  2  0  0  3  0  0  0  0  0  0
  160.7640  207.1000  148.9720 C   0  0  1  0  0  3  0  0  0  0  0  0
  162.7450  207.3640  150.3840 C   0  0  0  0  0  2  0  0  0  0  0  0
  161.4970  209.1650  149.2650 N   0  0  0  0  0  0  0  0  0  0  0  0
  161.3630  207.9340  150.0610 C   0  0  1  0  0  3  0  0  0  0  0  0
  162.4220  210.8400  150.5840 O   0  0  0  0  0  0  0  0  0  0  0  0
  163.1400  206.5090  149.2010 C   0  0  0  0  0  2  0  0  0  0  0  0
  161.8370  205.6100  147.1420 C   0  0  1  0  0  3  0  0  0  0  0  0
  162.7610  206.2500  146.2870 O   0  0  0  0  0  0  0  0  0  0  0  0
  163.4570  205.3040  145.6900 O   0  0  0  0  0  1  0  0  0  0  0  0
  161.6160  204.1100  146.8820 C   0  0  0  0  0  2  0  0  0  0  0  0
  160.4590  203.8190  145.9860 C   0  0  0  0  0  2  0  0  0  0  0  0
  160.5450  203.9970  144.7480 O   0  0  0  0  0  0  0  0  0  0  0  0
  160.5790  204.0240  144.6110 O   0  0  0  0  0 15  0  0  0  0  0  0
  161.4520  203.3670  148.1960 C   0  0  0  0  0  2  0  0  0  0  0  0
  160.9470  201.0250  148.3770 O   0  0  0  0  0  0  0  0  0  0  0  0
  160.0960  201.6070  149.3310 C   0  0  0  0  0  0  0  0  0  0  0  0
  158.9060  200.8890  149.4610 O   0  0  0  0  0  1  0  0  0  0  0  0
  160.7830  201.9360  150.5030 O   0  0  0  0  0  1  0  0  0  0  0  0
  160.3930  202.2850  148.0470 C   0  0  1  0  0  3  0  0  0  0  0  0
  158.2520  212.3100  147.8860 O   0  0  0  0  0  0  0  0  0  0  0  0
  157.4140  214.4530  146.5300 C   0  0  0  0  0  1  0  0  0  0  0  0
  158.2860  214.4530  149.0610 O   0  0  0  0  0  0  0  0  0  0  0  0
  158.5320  213.7790  147.7410 S   0  0  0  0  0  0  0  0  0  0  0  0
  161.1110  213.9020  142.3040 C   0  0  0  0  0  2  0  0  0  0  0  0
  162.3460  213.8190  141.5340 N   0  0  0  0  0  2  0  0  0  0  0  0
  160.1310  212.0820  139.1950 C   0  0  0  0  0  0  0  0  0  0  0  0
  160.9240  212.4280  140.2950 O   0  0  0  0  0  0  0  0  0  0  0  0
  161.9970  213.3610  140.2000 C   0  0  2  0  0  3  0  0  0  0  0  0
  163.2180  212.7260  139.5510 C   0  0  0  0  0  2  0  0  0  0  0  0
  160.6530  211.5710  138.1190 N   0  0  0  0  0  0  0  0  0  0  0  0
  162.9590  212.4410  138.0830 C   0  0  0  0  0  2  0  0  0  0  0  0
  162.0590  211.2240  137.9510 C   0  0  0  0  0  2  0  0  0  0  0  0
  158.2080  212.8070  140.3420 O   0  0  0  0  0  0  0  0  0  0  0  0
  158.6650  212.2630  139.3040 C   0  0  0  0  0  0  0  0  0  0  0  0
  157.7540  211.8370  138.3240 O   0  0  0  0  0  0  0  0  0  0  0  0
  157.7720  209.6570  139.0710 O   0  0  0  0  0  1  0  0  0  0  0  0
  157.0330  210.6130  138.3740 C   0  0  0  0  0  2  0  0  0  0  0  0
  1  9  2  0  0  0  0
  2  9  1  0  0  0  0
  2 12  1  1  0  0  0
  3  7  1  0  0  0  0
  4 36  1  1  0  0  0
  4  1  1  0  0  0  0
  5  2  1  0  0  0  0
  6  5  1  0  0  0  0
  7  6  2  0  0  0  0
  7  4  1  0  0  0  0
  8 10  2  0  0  0  0
  8  3  1  0  0  0  0
 11 16  1  0  0  0  0
 12 18  2  0  0  0  0
 13 20  1  6  0  0  0
 13 14  1  0  0  0  0
 13 19  1  0  0  0  0
 14 11  1  6  0  0  0
 14 17  1  0  0  0  0
 16 12  1  0  0  0  0
 16 17  1  0  0  0  0
 17 15  1  6  0  0  0
 19 15  1  0  0  0  0
 20 23  1  1  0  0  0
 21 20  1  0  0  0  0
 22 21  1  0  0  0  0
 23 27  1  0  0  0  0
 25 24  2  0  0  0  0
 28 29  1  0  0  0  0
 29 30  1  0  0  0  0
 29 31  1  0  0  0  0
 32 27  1  1  0  0  0
 32 28  1  0  0  0  0
 32 29  1  0  0  0  0
 34 36  1  0  0  0  0
 36 33  2  0  0  0  0
 36 35  2  0  0  0  0
 37  8  1  0  0  0  0
 38 37  1  0  0  0  0
 39 47  1  0  0  0  0
 39 40  1  0  0  0  0
 41 40  1  0  0  0  0
 41 38  1  1  0  0  0
 42 41  1  0  0  0  0
 43 39  2  0  0  0  0
 44 42  1  0  0  0  0
 45 44  1  0  0  0  0
 45 43  1  0  0  0  0
 47 46  2  0  0  0  0
 48 50  1  0  0  0  0
 48 47  1  0  0  0  0
 50 49  1  0  0  0  0
M  END
>  <MODEL>
6

>  <REMARK>
 VINA RESULT:      -3.8      4.641     10.219
  Name = 
  14 active torsions:
  status: ('A' for Active; 'I' for Inactive)
    1  A    between atoms: O_2  and  C_38
    2  A    between atoms: O_2  and  C_40
    3  A    between atoms: C_6  and  C_38
    4  A    between atoms: O_7  and  C_12
    5  A    between atoms: C_10  and  C_21
    6  A    between atoms: C_11  and  C_39
    7  A    between atoms: C_11  and  C_43
    8  A    between atoms: C_12  and  C_14
    9  A    between atoms: C_12  and  C_43
   10  A    between atoms: C_13  and  N_35
   11  A    between atoms: C_19  and  C_43
   12  A    between atoms: C_33  and  S_47
   13  A    between atoms: N_35  and  C_50
   14  A    between atoms: C_46  and  C_50
                            x       y       z     vdW  Elec       q    Type
                         _______ _______ _______ _____ _____    ______ ____

>  <TORSDO>
F 14

$$$$
=
 OpenBabel11072410413D

 50 52  0  0  1  0  0  0  0  0999 V2000
  160.9860  214.0030  148.3570 C   0  0  0  0  0  3  0  0  0  0  0  0
  161.9710  211.6380  148.3750 C   0  0  1  0  0  3  0  0  0  0  0  0
  160.7160  213.7110  144.7140 N   0  0  0  0  0  2  0  0  0  0  0  0
  160.0960  213.8950  147.1440 C   0  0  1  0  0  3  0  0  0  0  0  0
  160.9060  211.1300  147.4140 C   0  0  0  0  0  2  0  0  0  0  0  0
  160.9880  211.8420  146.1480 N   0  0  0  0  0  0  0  0  0  0  0  0
  160.6500  213.0900  146.0030 C   0  0  0  0  0  0  0  0  0  0  0  0
  161.3970  213.1770  143.5730 C   0  0  0  0  0  0  0  0  0  0  0  0
  161.7490  213.0360  148.8940 C   0  0  0  0  0  3  0  0  0  0  0  0
  162.1970  212.2120  143.6910 O   0  0  0  0  0  0  0  0  0  0  0  0
  160.7740  208.5900  148.4790 C   0  0  0  0  0  2  0  0  0  0  0  0
  162.1250  210.6880  149.5180 C   0  0  0  0  0  0  0  0  0  0  0  0
  161.5940  206.2330  148.9090 C   0  0  2  0  0  3  0  0  0  0  0  0
  160.6610  207.3660  149.3350 C   0  0  1  0  0  3  0  0  0  0  0  0
  162.8110  207.5460  150.4880 C   0  0  0  0  0  2  0  0  0  0  0  0
  161.5560  209.3840  149.4400 N   0  0  0  0  0  0  0  0  0  0  0  0
  161.4410  208.1980  150.3040 C   0  0  1  0  0  3  0  0  0  0  0  0
  162.7410  211.0410  150.5580 O   0  0  0  0  0  0  0  0  0  0  0  0
  163.0030  206.6180  149.3090 C   0  0  0  0  0  2  0  0  0  0  0  0
  161.4040  205.7320  147.4650 C   0  0  1  0  0  3  0  0  0  0  0  0
  161.5250  206.6840  146.4300 O   0  0  0  0  0  0  0  0  0  0  0  0
  160.4320  206.6030  145.6980 O   0  0  0  0  0  1  0  0  0  0  0  0
  161.9640  204.3330  147.1540 C   0  0  0  0  0  2  0  0  0  0  0  0
  162.5530  204.2110  145.7890 C   0  0  0  0  0  2  0  0  0  0  0  0
  163.7770  204.4040  145.5980 O   0  0  0  0  0  0  0  0  0  0  0  0
  163.9180  204.4300  145.6010 O   0  0  0  0  0 15  0  0  0  0  0  0
  160.8870  203.2800  147.3480 C   0  0  0  0  0  2  0  0  0  0  0  0
  159.7580  201.9620  149.0100 O   0  0  0  0  0  0  0  0  0  0  0  0
  161.0490  201.4070  148.9870 C   0  0  0  0  0  0  0  0  0  0  0  0
  161.4190  200.9220  150.2420 O   0  0  0  0  0  1  0  0  0  0  0  0
  161.2260  200.5590  147.8900 O   0  0  0  0  0  1  0  0  0  0  0  0
  160.8330  202.8620  148.8090 C   0  0  1  0  0  3  0  0  0  0  0  0
  157.4840  214.4450  146.8680 O   0  0  0  0  0  0  0  0  0  0  0  0
  158.1150  213.5870  149.3170 C   0  0  0  0  0  1  0  0  0  0  0  0
  158.0850  212.0870  147.1000 O   0  0  0  0  0  0  0  0  0  0  0  0
  158.4020  213.4810  147.5630 S   0  0  0  0  0  0  0  0  0  0  0  0
  161.1920  213.8060  142.2400 C   0  0  0  0  0  2  0  0  0  0  0  0
  162.4690  213.9050  141.5450 N   0  0  0  0  0  2  0  0  0  0  0  0
  161.9810  211.0960  139.2510 C   0  0  0  0  0  0  0  0  0  0  0  0
  162.4410  211.9410  140.2670 O   0  0  0  0  0  0  0  0  0  0  0  0
  162.2840  213.3560  140.2130 C   0  0  2  0  0  3  0  0  0  0  0  0
  163.2970  213.9840  139.2650 C   0  0  0  0  0  2  0  0  0  0  0  0
  162.3930  211.2260  138.0250 N   0  0  0  0  0  0  0  0  0  0  0  0
  162.9910  213.6080  137.8280 C   0  0  0  0  0  2  0  0  0  0  0  0
  163.4090  212.1710  137.5750 C   0  0  0  0  0  2  0  0  0  0  0  0
  160.0580  210.2890  140.3420 O   0  0  0  0  0  0  0  0  0  0  0  0
  161.0460  210.0070  139.6170 C   0  0  0  0  0  0  0  0  0  0  0  0
  161.2170  208.6700  139.2210 O   0  0  0  0  0  0  0  0  0  0  0  0
  161.9930  206.5010  139.2730 O   0  0  0  0  0  1  0  0  0  0  0  0
  162.2080  207.7960  139.7450 C   0  0  0  0  0  2  0  0  0  0  0  0
  1  9  2  0  0  0  0
  2  9  1  0  0  0  0
  2 12  1  1  0  0  0
  3  7  1  0  0  0  0
  4 36  1  1  0  0  0
  4  1  1  0  0  0  0
  5  2  1  0  0  0  0
  6  5  1  0  0  0  0
  7  6  2  0  0  0  0
  7  4  1  0  0  0  0
  8 10  2  0  0  0  0
  8  3  1  0  0  0  0
 11 16  1  0  0  0  0
 12 18  2  0  0  0  0
 13 20  1  6  0  0  0
 13 19  1  0  0  0  0
 13 14  1  0  0  0  0
 14 11  1  6  0  0  0
 14 17  1  0  0  0  0
 16 12  1  0  0  0  0
 16 17  1  0  0  0  0
 17 15  1  6  0  0  0
 19 15  1  0  0  0  0
 20 23  1  6  0  0  0
 21 20  1  0  0  0  0
 22 21  1  0  0  0  0
 23 27  1  0  0  0  0
 25 24  2  0  0  0  0
 29 28  1  0  0  0  0
 29 30  1  0  0  0  0
 31 29  1  0  0  0  0
 32 27  1  6  0  0  0
 32 29  1  0  0  0  0
 32 28  1  0  0  0  0
 33 36  2  0  0  0  0
 35 36  2  0  0  0  0
 36 34  1  0  0  0  0
 37  8  1  0  0  0  0
 38 37  1  0  0  0  0
 39 47  1  0  0  0  0
 39 40  1  0  0  0  0
 41 40  1  0  0  0  0
 41 38  1  1  0  0  0
 42 41  1  0  0  0  0
 43 39  2  0  0  0  0
 44 42  1  0  0  0  0
 45 44  1  0  0  0  0
 45 43  1  0  0  0  0
 47 46  2  0  0  0  0
 48 47  1  0  0  0  0
 48 50  1  0  0  0  0
 49 50  1  0  0  0  0
M  END
>  <MODEL>
7

>  <REMARK>
 VINA RESULT:      -3.8      4.688      9.969
  Name = 
  14 active torsions:
  status: ('A' for Active; 'I' for Inactive)
    1  A    between atoms: O_2  and  C_38
    2  A    between atoms: O_2  and  C_40
    3  A    between atoms: C_6  and  C_38
    4  A    between atoms: O_7  and  C_12
    5  A    between atoms: C_10  and  C_21
    6  A    between atoms: C_11  and  C_39
    7  A    between atoms: C_11  and  C_43
    8  A    between atoms: C_12  and  C_14
    9  A    between atoms: C_12  and  C_43
   10  A    between atoms: C_13  and  N_35
   11  A    between atoms: C_19  and  C_43
   12  A    between atoms: C_33  and  S_47
   13  A    between atoms: N_35  and  C_50
   14  A    between atoms: C_46  and  C_50
                            x       y       z     vdW  Elec       q    Type
                         _______ _______ _______ _____ _____    ______ ____

>  <TORSDO>
F 14

$$$$
=
 OpenBabel11072410413D

 50 52  0  0  1  0  0  0  0  0999 V2000
  159.2230  210.3110  153.5020 C   0  0  0  0  0  3  0  0  0  0  0  0
  160.1880  211.0400  151.2440 C   0  0  1  0  0  3  0  0  0  0  0  0
  160.7890  207.0430  152.9580 N   0  0  0  0  0  2  0  0  0  0  0  0
  160.2750  209.3110  153.9140 C   0  0  1  0  0  3  0  0  0  0  0  0
  161.5450  210.4320  151.5690 C   0  0  0  0  0  2  0  0  0  0  0  0
  161.4190  208.9970  151.7710 N   0  0  0  0  0  0  0  0  0  0  0  0
  160.8340  208.4660  152.8050 C   0  0  0  0  0  0  0  0  0  0  0  0
  161.0810  206.0920  151.9280 C   0  0  0  0  0  0  0  0  0  0  0  0
  159.2090  211.0660  152.3900 C   0  0  0  0  0  3  0  0  0  0  0  0
  161.1790  206.4510  150.7260 O   0  0  0  0  0  0  0  0  0  0  0  0
  161.4680  211.7620  148.3150 C   0  0  0  0  0  2  0  0  0  0  0  0
  160.3640  212.4190  150.6930 C   0  0  0  0  0  0  0  0  0  0  0  0
  160.8600  213.0830  146.2430 C   0  0  2  0  0  3  0  0  0  0  0  0
  161.8360  212.8920  147.4030 C   0  0  1  0  0  3  0  0  0  0  0  0
  160.0490  214.4410  148.0300 C   0  0  0  0  0  2  0  0  0  0  0  0
  160.9340  212.6000  149.4010 N   0  0  0  0  0  0  0  0  0  0  0  0
  161.3050  213.7260  148.5270 C   0  0  1  0  0  3  0  0  0  0  0  0
  160.0240  213.4220  151.3740 O   0  0  0  0  0  0  0  0  0  0  0  0
  159.5900  213.6910  146.8000 C   0  0  0  0  0  2  0  0  0  0  0  0
  160.6890  211.8620  145.3190 C   0  0  1  0  0  3  0  0  0  0  0  0
  159.4000  211.2920  145.2350 O   0  0  0  0  0  0  0  0  0  0  0  0
  158.5800  212.2440  144.8370 O   0  0  0  0  0  1  0  0  0  0  0  0
  161.4950  211.8850  144.0090 C   0  0  0  0  0  2  0  0  0  0  0  0
  162.6610  212.8150  144.0350 C   0  0  0  0  0  2  0  0  0  0  0  0
  162.7470  213.7620  143.2180 O   0  0  0  0  0  0  0  0  0  0  0  0
  162.7340  213.8620  143.1170 O   0  0  0  0  0 15  0  0  0  0  0  0
  160.5870  212.2290  142.8400 C   0  0  0  0  0  2  0  0  0  0  0  0
  160.0400  211.1760  140.7510 O   0  0  0  0  0  0  0  0  0  0  0  0
  160.7250  212.3360  140.3520 C   0  0  0  0  0  0  0  0  0  0  0  0
  161.4330  212.1290  139.1660 O   0  0  0  0  0  1  0  0  0  0  0  0
  159.9100  213.4690  140.4270 O   0  0  0  0  0  1  0  0  0  0  0  0
  161.1200  211.5880  141.5680 C   0  0  1  0  0  3  0  0  0  0  0  0
  162.8370  210.0310  154.2490 O   0  0  0  0  0  0  0  0  0  0  0  0
  161.7210  209.0860  156.4840 C   0  0  0  0  0  1  0  0  0  0  0  0
  161.1570  211.4370  155.3330 O   0  0  0  0  0  0  0  0  0  0  0  0
  161.5270  210.0240  154.9820 S   0  0  0  0  0  0  0  0  0  0  0  0
  161.2210  204.6530  152.2830 C   0  0  0  0  0  2  0  0  0  0  0  0
  162.3840  204.0940  151.6050 N   0  0  0  0  0  2  0  0  0  0  0  0
  160.9810  203.0220  148.3990 C   0  0  0  0  0  0  0  0  0  0  0  0
  161.2360  203.6900  149.6020 O   0  0  0  0  0  0  0  0  0  0  0  0
  161.9060  203.0670  150.6950 C   0  0  2  0  0  3  0  0  0  0  0  0
  160.9740  202.1250  151.4440 C   0  0  0  0  0  2  0  0  0  0  0  0
  160.2860  201.9240  148.3700 N   0  0  0  0  0  0  0  0  0  0  0  0
  160.6340  200.9170  150.5920 C   0  0  0  0  0  2  0  0  0  0  0  0
  159.6330  201.3110  149.5210 C   0  0  0  0  0  2  0  0  0  0  0  0
  161.5240  202.9060  146.1120 O   0  0  0  0  0  0  0  0  0  0  0  0
  161.4810  203.6260  147.1430 C   0  0  0  0  0  0  0  0  0  0  0  0
  161.9330  204.9520  147.0440 O   0  0  0  0  0  0  0  0  0  0  0  0
  160.6020  206.1230  145.5730 O   0  0  0  0  0  1  0  0  0  0  0  0
  161.0870  206.0820  146.8810 C   0  0  0  0  0  2  0  0  0  0  0  0
  1  4  1  0  0  0  0
  2 12  1  1  0  0  0
  2  5  1  0  0  0  0
  2  9  1  0  0  0  0
  4 36  1  6  0  0  0
  5  6  1  0  0  0  0
  6  7  2  0  0  0  0
  7  3  1  0  0  0  0
  7  4  1  0  0  0  0
  8 37  1  0  0  0  0
  8  3  1  0  0  0  0
  9  1  2  0  0  0  0
 10  8  2  0  0  0  0
 11 16  1  0  0  0  0
 12 18  2  0  0  0  0
 13 20  1  1  0  0  0
 13 19  1  0  0  0  0
 13 14  1  0  0  0  0
 14 11  1  1  0  0  0
 14 17  1  0  0  0  0
 16 12  1  0  0  0  0
 17 15  1  6  0  0  0
 17 16  1  0  0  0  0
 19 15  1  0  0  0  0
 20 23  1  6  0  0  0
 21 20  1  0  0  0  0
 22 21  1  0  0  0  0
 25 24  2  0  0  0  0
 27 23  1  0  0  0  0
 28 32  1  0  0  0  0
 29 31  1  0  0  0  0
 29 28  1  0  0  0  0
 29 32  1  0  0  0  0
 30 29  1  0  0  0  0
 32 27  1  1  0  0  0
 33 36  2  0  0  0  0
 36 35  2  0  0  0  0
 36 34  1  0  0  0  0
 38 37  1  0  0  0  0
 39 40  1  0  0  0  0
 40 41  1  0  0  0  0
 41 42  1  0  0  0  0
 41 38  1  1  0  0  0
 43 39  2  0  0  0  0
 43 45  1  0  0  0  0
 44 42  1  0  0  0  0
 45 44  1  0  0  0  0
 46 47  2  0  0  0  0
 47 39  1  0  0  0  0
 48 47  1  0  0  0  0
 49 50  1  0  0  0  0
 50 48  1  0  0  0  0
M  END
>  <MODEL>
8

>  <REMARK>
 VINA RESULT:      -3.4      2.109      3.427
  Name = 
  14 active torsions:
  status: ('A' for Active; 'I' for Inactive)
    1  A    between atoms: O_2  and  C_38
    2  A    between atoms: O_2  and  C_40
    3  A    between atoms: C_6  and  C_38
    4  A    between atoms: O_7  and  C_12
    5  A    between atoms: C_10  and  C_21
    6  A    between atoms: C_11  and  C_39
    7  A    between atoms: C_11  and  C_43
    8  A    between atoms: C_12  and  C_14
    9  A    between atoms: C_12  and  C_43
   10  A    between atoms: C_13  and  N_35
   11  A    between atoms: C_19  and  C_43
   12  A    between atoms: C_33  and  S_47
   13  A    between atoms: N_35  and  C_50
   14  A    between atoms: C_46  and  C_50
                            x       y       z     vdW  Elec       q    Type
                         _______ _______ _______ _____ _____    ______ ____

>  <TORSDO>
F 14

$$$$
=
 OpenBabel11072410413D

 50 52  0  0  1  0  0  0  0  0999 V2000
  162.9850  206.5210  152.7000 C   0  0  0  0  0  3  0  0  0  0  0  0
  161.6770  204.9840  151.1220 C   0  0  1  0  0  3  0  0  0  0  0  0
  162.1930  209.2890  150.4330 N   0  0  0  0  0  2  0  0  0  0  0  0
  162.2410  207.8120  152.4670 C   0  0  1  0  0  3  0  0  0  0  0  0
  160.5370  205.9860  151.0070 C   0  0  0  0  0  2  0  0  0  0  0  0
  161.0160  207.2300  150.4270 N   0  0  0  0  0  0  0  0  0  0  0  0
  161.8000  208.0600  151.0530 C   0  0  0  0  0  0  0  0  0  0  0  0
  162.0430  209.5980  149.0430 C   0  0  0  0  0  0  0  0  0  0  0  0
  162.7210  205.3200  152.1570 C   0  0  0  0  0  3  0  0  0  0  0  0
  161.7570  208.7010  148.2080 O   0  0  0  0  0  0  0  0  0  0  0  0
  160.3540  203.0230  148.8540 C   0  0  0  0  0  2  0  0  0  0  0  0
  161.1330  203.6150  151.3740 C   0  0  0  0  0  0  0  0  0  0  0  0
  160.6320  200.6650  147.9770 C   0  0  2  0  0  3  0  0  0  0  0  0
  159.7110  201.6880  148.6400 C   0  0  1  0  0  3  0  0  0  0  0  0
  160.9510  200.4270  150.3310 C   0  0  0  0  0  2  0  0  0  0  0  0
  160.5830  202.8590  150.2990 N   0  0  0  0  0  0  0  0  0  0  0  0
  159.9370  201.5500  150.1130 C   0  0  1  0  0  3  0  0  0  0  0  0
  161.1430  203.1330  152.5370 O   0  0  0  0  0  0  0  0  0  0  0  0
  161.6520  200.2240  149.0060 C   0  0  0  0  0  2  0  0  0  0  0  0
  161.1820  201.0710  146.5970 C   0  0  1  0  0  3  0  0  0  0  0  0
  161.1650  200.0900  145.5810 O   0  0  0  0  0  0  0  0  0  0  0  0
  161.6960  198.9960  146.0890 O   0  0  0  0  0  1  0  0  0  0  0  0
  160.8780  202.5080  146.1420 C   0  0  0  0  0  2  0  0  0  0  0  0
  160.3080  202.5960  144.7660 C   0  0  0  0  0  2  0  0  0  0  0  0
  159.2520  203.2350  144.5480 O   0  0  0  0  0  0  0  0  0  0  0  0
  159.1320  203.3130  144.5470 O   0  0  0  0  0 15  0  0  0  0  0  0
  162.1280  203.3660  146.2390 C   0  0  0  0  0  2  0  0  0  0  0  0
  160.7920  205.3470  146.4970 O   0  0  0  0  0  0  0  0  0  0  0  0
  162.0950  205.8070  146.7520 C   0  0  0  0  0  0  0  0  0  0  0  0
  162.2560  207.1340  146.3480 O   0  0  0  0  0  1  0  0  0  0  0  0
  162.5190  205.4690  148.0400 O   0  0  0  0  0  1  0  0  0  0  0  0
  161.8310  204.7680  145.7290 C   0  0  1  0  0  3  0  0  0  0  0  0
  161.4030  209.1970  154.6070 O   0  0  0  0  0  0  0  0  0  0  0  0
  160.6310  206.6410  154.6530 C   0  0  0  0  0  1  0  0  0  0  0  0
  159.6870  208.5240  153.0020 O   0  0  0  0  0  0  0  0  0  0  0  0
  160.9560  208.0990  153.6850 S   0  0  0  0  0  0  0  0  0  0  0  0
  162.2800  210.9920  148.5760 C   0  0  0  0  0  2  0  0  0  0  0  0
  162.0680  211.9190  149.6800 N   0  0  0  0  0  2  0  0  0  0  0  0
  158.9250  213.7910  149.5650 C   0  0  0  0  0  0  0  0  0  0  0  0
  159.8900  212.7770  149.5720 O   0  0  0  0  0  0  0  0  0  0  0  0
  161.2420  213.0070  149.1840 C   0  0  2  0  0  3  0  0  0  0  0  0
  161.3720  213.0870  147.6700 C   0  0  0  0  0  2  0  0  0  0  0  0
  158.6400  214.4460  148.4790 N   0  0  0  0  0  0  0  0  0  0  0  0
  160.7070  214.3430  147.1390 C   0  0  0  0  0  2  0  0  0  0  0  0
  159.1980  214.1700  147.1600 C   0  0  0  0  0  2  0  0  0  0  0  0
  156.9800  214.3990  150.7430 O   0  0  0  0  0  0  0  0  0  0  0  0
  158.1920  214.0680  150.8210 C   0  0  0  0  0  0  0  0  0  0  0  0
  158.7810  214.0090  152.0950 O   0  0  0  0  0  0  0  0  0  0  0  0
  158.7800  211.8400  152.8730 O   0  0  0  0  0  1  0  0  0  0  0  0
  158.3560  213.1430  153.1380 C   0  0  0  0  0  2  0  0  0  0  0  0
  2 12  1  1  0  0  0
  2  9  1  0  0  0  0
  3  7  1  0  0  0  0
  4  1  1  0  0  0  0
  4 36  1  1  0  0  0
  5  2  1  0  0  0  0
  6  5  1  0  0  0  0
  6  7  2  0  0  0  0
  7  4  1  0  0  0  0
  8  3  1  0  0  0  0
  9  1  2  0  0  0  0
 10  8  2  0  0  0  0
 11 16  1  0  0  0  0
 12 18  2  0  0  0  0
 13 20  1  6  0  0  0
 13 14  1  0  0  0  0
 13 19  1  0  0  0  0
 14 11  1  6  0  0  0
 14 17  1  0  0  0  0
 16 12  1  0  0  0  0
 17 16  1  0  0  0  0
 17 15  1  6  0  0  0
 19 15  1  0  0  0  0
 20 23  1  6  0  0  0
 21 22  1  0  0  0  0
 21 20  1  0  0  0  0
 23 27  1  0  0  0  0
 25 24  2  0  0  0  0
 28 29  1  0  0  0  0
 29 31  1  0  0  0  0
 30 29  1  0  0  0  0
 32 27  1  1  0  0  0
 32 28  1  0  0  0  0
 32 29  1  0  0  0  0
 35 36  2  0  0  0  0
 36 33  2  0  0  0  0
 36 34  1  0  0  0  0
 37  8  1  0  0  0  0
 37 38  1  0  0  0  0
 39 40  1  0  0  0  0
 39 47  1  0  0  0  0
 41 40  1  0  0  0  0
 41 38  1  6  0  0  0
 42 41  1  0  0  0  0
 43 39  2  0  0  0  0
 44 45  1  0  0  0  0
 44 42  1  0  0  0  0
 45 43  1  0  0  0  0
 46 47  2  0  0  0  0
 47 48  1  0  0  0  0
 48 50  1  0  0  0  0
 49 50  1  0  0  0  0
M  END
>  <MODEL>
9

>  <REMARK>
 VINA RESULT:      -3.2      2.569      9.473
  Name = 
  14 active torsions:
  status: ('A' for Active; 'I' for Inactive)
    1  A    between atoms: O_2  and  C_38
    2  A    between atoms: O_2  and  C_40
    3  A    between atoms: C_6  and  C_38
    4  A    between atoms: O_7  and  C_12
    5  A    between atoms: C_10  and  C_21
    6  A    between atoms: C_11  and  C_39
    7  A    between atoms: C_11  and  C_43
    8  A    between atoms: C_12  and  C_14
    9  A    between atoms: C_12  and  C_43
   10  A    between atoms: C_13  and  N_35
   11  A    between atoms: C_19  and  C_43
   12  A    between atoms: C_33  and  S_47
   13  A    between atoms: N_35  and  C_50
   14  A    between atoms: C_46  and  C_50
                            x       y       z     vdW  Elec       q    Type
                         _______ _______ _______ _____ _____    ______ ____

>  <TORSDO>
F 14

$$$$
