=
 OpenBabel11072414013D

 29 31  0  0  1  0  0  0  0  0999 V2000
  160.8470  207.6410  152.9740 C   0  0  0  0  0  0  0  0  0  0  0  0
  160.9240  209.3850  151.3600 O   0  0  0  0  0  1  0  0  0  0  0  0
  160.5580  207.1570  154.3540 C   0  0  0  0  0  2  0  0  0  0  0  0
  161.7080  208.9420  155.5530 N   0  0  0  0  0  0  0  0  0  0  0  0
  160.4630  210.0030  153.6910 C   0  0  0  0  0  0  0  0  0  0  0  0
  160.7610  208.9580  152.6750 C   0  0  0  0  0  0  0  0  0  0  0  0
  160.9490  210.0010  154.9470 C   0  0  0  0  0  3  0  0  0  0  0  0
  161.5800  207.6760  155.3040 C   0  0  0  0  0  3  0  0  0  0  0  0
  161.1720  206.5830  151.9930 C   0  0  0  0  0  3  0  0  0  0  0  0
  161.0980  205.2760  152.2220 C   0  0  0  0  0  3  0  0  0  0  0  0
  160.7380  204.6610  149.8620 C   0  0  0  0  0  2  0  0  0  0  0  0
  160.7590  201.9200  150.4450 C   0  0  0  0  0  2  0  0  0  0  0  0
  161.5240  202.3110  149.1830 C   0  0  0  0  0  2  0  0  0  0  0  0
  161.0860  202.8650  151.6080 C   0  0  0  0  0  2  0  0  0  0  0  0
  161.4490  204.2920  151.1610 C   0  0  0  0  0  3  0  0  0  0  0  0
  161.1460  203.7230  148.7160 C   0  0  0  0  0  2  0  0  0  0  0  0
  159.7250  211.2210  153.2180 C   0  0  1  0  0  3  0  0  0  0  0  0
  159.5060  212.1470  154.3190 N   0  0  0  0  0  1  0  0  0  0  0  0
  158.6100  213.0250  151.3110 O   0  0  0  0  0  0  0  0  0  0  0  0
  160.4640  211.8800  152.1480 N   0  0  0  0  0  2  0  0  0  0  0  0
  159.8460  212.7810  151.2290 C   0  0  0  0  0  0  0  0  0  0  0  0
  160.6250  213.3870  150.2420 O   0  0  0  0  0  0  0  0  0  0  0  0
  160.6680  212.9070  148.9020 C   0  0  1  0  0  3  0  0  0  0  0  0
  160.7450  214.0920  147.9520 C   0  0  0  0  0  2  0  0  0  0  0  0
  162.1320  214.2670  147.5080 N   0  0  0  0  0  0  0  0  0  0  0  0
  162.0970  214.4490  146.0680 C   0  0  0  0  0  1  0  0  0  0  0  0
  162.2500  211.1450  149.1110 O   0  0  0  0  0  0  0  0  0  0  0  0
  161.9510  212.2340  148.6480 C   0  0  0  0  0  0  0  0  0  0  0  0
  162.8340  213.0130  147.7640 C   0  0  0  0  0  2  0  0  0  0  0  0
  1  3  1  0  0  0  0
  2  6  1  0  0  0  0
  3  8  1  0  0  0  0
  5  7  2  0  0  0  0
  6  1  2  0  0  0  0
  6  5  1  0  0  0  0
  7  4  1  0  0  0  0
  8  4  2  0  0  0  0
  9 10  2  0  0  0  0
  9  1  1  0  0  0  0
 11 15  1  0  0  0  0
 12 14  1  0  0  0  0
 13 12  1  0  0  0  0
 15 14  1  0  0  0  0
 15 10  1  0  0  0  0
 16 13  1  0  0  0  0
 16 11  1  0  0  0  0
 17  5  1  0  0  0  0
 17 18  1  1  0  0  0
 20 17  1  0  0  0  0
 21 19  2  0  0  0  0
 21 20  1  0  0  0  0
 22 21  1  0  0  0  0
 23 22  1  1  0  0  0
 24 23  1  0  0  0  0
 25 29  1  0  0  0  0
 25 24  1  0  0  0  0
 26 25  1  0  0  0  0
 28 23  1  0  0  0  0
 28 27  2  0  0  0  0
 29 28  1  0  0  0  0
M  END
>  <MODEL>
1

>  <REMARK>
 VINA RESULT:      -7.9      0.000      0.000
  Name = 
  6 active torsions:
  status: ('A' for Active; 'I' for Inactive)
    1  A    between atoms: C_2  and  C_6
    2  A    between atoms: N_4  and  C_10
    3  A    between atoms: C_5  and  O_25
    4  A    between atoms: C_7  and  O_25
    5  A    between atoms: C_10  and  C_21
    6  A    between atoms: C_15  and  C_27
                            x       y       z     vdW  Elec       q    Type
                         _______ _______ _______ _____ _____    ______ ____

>  <TORSDO>
F 6

$$$$
=
 OpenBabel11072414013D

 29 31  0  0  1  0  0  0  0  0999 V2000
  161.3660  208.1160  152.6400 C   0  0  0  0  0  0  0  0  0  0  0  0
  160.3590  207.7260  154.7590 O   0  0  0  0  0  1  0  0  0  0  0  0
  162.1520  208.9770  151.7120 C   0  0  0  0  0  2  0  0  0  0  0  0
  160.9330  211.0520  152.1120 N   0  0  0  0  0  0  0  0  0  0  0  0
  161.2620  209.9660  154.3160 C   0  0  0  0  0  0  0  0  0  0  0  0
  160.9950  208.5760  153.8570 C   0  0  0  0  0  0  0  0  0  0  0  0
  161.1670  211.0550  153.5300 C   0  0  0  0  0  3  0  0  0  0  0  0
  161.3330  210.1430  151.2780 C   0  0  0  0  0  3  0  0  0  0  0  0
  161.0870  206.7500  152.1450 C   0  0  0  0  0  3  0  0  0  0  0  0
  160.8920  206.4220  150.8720 C   0  0  0  0  0  3  0  0  0  0  0  0
  161.4320  204.0650  151.3570 C   0  0  0  0  0  2  0  0  0  0  0  0
  161.3420  203.3580  148.6470 C   0  0  0  0  0  2  0  0  0  0  0  0
  160.6820  202.3570  149.5910 C   0  0  0  0  0  2  0  0  0  0  0  0
  160.9320  204.7970  148.9880 C   0  0  0  0  0  2  0  0  0  0  0  0
  160.6180  205.0120  150.4790 C   0  0  0  0  0  3  0  0  0  0  0  0
  161.1080  202.5970  151.0460 C   0  0  0  0  0  2  0  0  0  0  0  0
  161.4700  210.1700  155.7880 C   0  0  1  0  0  3  0  0  0  0  0  0
  162.8870  210.2890  156.0950 N   0  0  0  0  0  1  0  0  0  0  0  0
  158.6670  210.3190  156.2930 O   0  0  0  0  0  0  0  0  0  0  0  0
  160.7570  211.3570  156.2420 N   0  0  0  0  0  2  0  0  0  0  0  0
  159.3500  211.3630  156.4840 C   0  0  0  0  0  0  0  0  0  0  0  0
  158.7420  212.5360  156.9350 O   0  0  0  0  0  0  0  0  0  0  0  0
  158.1080  213.4550  156.0530 C   0  0  1  0  0  3  0  0  0  0  0  0
  158.7670  213.3680  154.6860 C   0  0  0  0  0  2  0  0  0  0  0  0
  157.9300  212.5550  153.7950 N   0  0  0  0  0  0  0  0  0  0  0  0
  157.8210  213.2770  152.5400 C   0  0  0  0  0  1  0  0  0  0  0  0
  155.8200  213.0500  156.5580 O   0  0  0  0  0  0  0  0  0  0  0  0
  156.7390  213.0060  155.7560 C   0  0  0  0  0  0  0  0  0  0  0  0
  156.5930  212.5070  154.3780 C   0  0  0  0  0  2  0  0  0  0  0  0
  1  6  2  0  0  0  0
  3  1  1  0  0  0  0
  4  7  1  0  0  0  0
  5 17  1  0  0  0  0
  6  5  1  0  0  0  0
  6  2  1  0  0  0  0
  7  5  2  0  0  0  0
  8  3  1  0  0  0  0
  8  4  2  0  0  0  0
  9  1  1  0  0  0  0
 10  9  2  0  0  0  0
 12 14  1  0  0  0  0
 12 13  1  0  0  0  0
 13 16  1  0  0  0  0
 14 15  1  0  0  0  0
 15 10  1  0  0  0  0
 15 11  1  0  0  0  0
 16 11  1  0  0  0  0
 17 18  1  6  0  0  0
 17 20  1  0  0  0  0
 19 21  2  0  0  0  0
 20 21  1  0  0  0  0
 21 22  1  0  0  0  0
 23 22  1  1  0  0  0
 24 23  1  0  0  0  0
 25 29  1  0  0  0  0
 25 24  1  0  0  0  0
 26 25  1  0  0  0  0
 28 23  1  0  0  0  0
 28 27  2  0  0  0  0
 29 28  1  0  0  0  0
M  END
>  <MODEL>
2

>  <REMARK>
 VINA RESULT:      -7.7      3.358      5.096
  Name = 
  6 active torsions:
  status: ('A' for Active; 'I' for Inactive)
    1  A    between atoms: C_2  and  C_6
    2  A    between atoms: N_4  and  C_10
    3  A    between atoms: C_5  and  O_25
    4  A    between atoms: C_7  and  O_25
    5  A    between atoms: C_10  and  C_21
    6  A    between atoms: C_15  and  C_27
                            x       y       z     vdW  Elec       q    Type
                         _______ _______ _______ _____ _____    ______ ____

>  <TORSDO>
F 6

$$$$
=
 OpenBabel11072414013D

 29 31  0  0  1  0  0  0  0  0999 V2000
  161.2510  206.8680  151.0280 C   0  0  0  0  0  0  0  0  0  0  0  0
  162.1170  209.0830  151.0470 O   0  0  0  0  0  1  0  0  0  0  0  0
  160.4970  205.7610  151.6800 C   0  0  0  0  0  2  0  0  0  0  0  0
  161.5900  205.8850  153.8570 N   0  0  0  0  0  0  0  0  0  0  0  0
  161.1500  208.2150  153.1300 C   0  0  0  0  0  0  0  0  0  0  0  0
  161.5110  208.0130  151.7010 C   0  0  0  0  0  0  0  0  0  0  0  0
  161.2530  207.2650  154.0790 C   0  0  0  0  0  3  0  0  0  0  0  0
  161.2920  205.1910  152.8030 C   0  0  0  0  0  3  0  0  0  0  0  0
  161.6250  206.6280  149.6170 C   0  0  0  0  0  3  0  0  0  0  0  0
  160.8930  205.9570  148.7340 C   0  0  0  0  0  3  0  0  0  0  0  0
  160.2440  206.1330  146.3610 C   0  0  0  0  0  2  0  0  0  0  0  0
  161.7020  203.8430  145.6650 C   0  0  0  0  0  2  0  0  0  0  0  0
  161.8240  205.0020  144.6800 C   0  0  0  0  0  2  0  0  0  0  0  0
  161.8470  204.3270  147.1140 C   0  0  0  0  0  2  0  0  0  0  0  0
  161.3640  205.7720  147.3330 C   0  0  0  0  0  3  0  0  0  0  0  0
  160.7190  206.0430  144.9040 C   0  0  0  0  0  2  0  0  0  0  0  0
  160.8270  209.6150  153.5600 C   0  0  1  0  0  3  0  0  0  0  0  0
  162.0460  210.3620  153.8310 N   0  0  0  0  0  1  0  0  0  0  0  0
  158.9830  211.7390  154.0350 O   0  0  0  0  0  0  0  0  0  0  0  0
  160.0400  210.2930  152.5370 N   0  0  0  0  0  2  0  0  0  0  0  0
  159.1380  211.3570  152.8410 C   0  0  0  0  0  0  0  0  0  0  0  0
  158.4320  211.9680  151.8030 O   0  0  0  0  0  0  0  0  0  0  0  0
  158.6800  213.3100  151.3980 C   0  0  1  0  0  3  0  0  0  0  0  0
  159.9890  213.3630  150.6280 C   0  0  0  0  0  2  0  0  0  0  0  0
  159.7040  213.4060  149.1890 N   0  0  0  0  0  0  0  0  0  0  0  0
  160.5350  214.4530  148.6220 C   0  0  0  0  0  1  0  0  0  0  0  0
  156.5300  213.9350  150.5960 O   0  0  0  0  0  0  0  0  0  0  0  0
  157.7090  213.7120  150.3690 C   0  0  0  0  0  0  0  0  0  0  0  0
  158.3160  213.8290  149.0320 C   0  0  0  0  0  2  0  0  0  0  0  0
  1  3  1  0  0  0  0
  1  6  2  0  0  0  0
  2  6  1  0  0  0  0
  3  8  1  0  0  0  0
  4  7  1  0  0  0  0
  5 17  1  0  0  0  0
  5  7  2  0  0  0  0
  6  5  1  0  0  0  0
  8  4  2  0  0  0  0
  9  1  1  0  0  0  0
 10  9  2  0  0  0  0
 11 15  1  0  0  0  0
 12 14  1  0  0  0  0
 13 16  1  0  0  0  0
 13 12  1  0  0  0  0
 14 15  1  0  0  0  0
 15 10  1  0  0  0  0
 16 11  1  0  0  0  0
 17 18  1  6  0  0  0
 20 21  1  0  0  0  0
 20 17  1  0  0  0  0
 21 19  2  0  0  0  0
 22 21  1  0  0  0  0
 23 22  1  6  0  0  0
 24 23  1  0  0  0  0
 25 24  1  0  0  0  0
 26 25  1  0  0  0  0
 28 27  2  0  0  0  0
 28 23  1  0  0  0  0
 29 25  1  0  0  0  0
 29 28  1  0  0  0  0
M  END
>  <MODEL>
3

>  <REMARK>
 VINA RESULT:      -7.6      2.251      3.565
  Name = 
  6 active torsions:
  status: ('A' for Active; 'I' for Inactive)
    1  A    between atoms: C_2  and  C_6
    2  A    between atoms: N_4  and  C_10
    3  A    between atoms: C_5  and  O_25
    4  A    between atoms: C_7  and  O_25
    5  A    between atoms: C_10  and  C_21
    6  A    between atoms: C_15  and  C_27
                            x       y       z     vdW  Elec       q    Type
                         _______ _______ _______ _____ _____    ______ ____

>  <TORSDO>
F 6

$$$$
=
 OpenBabel11072414013D

 29 31  0  0  1  0  0  0  0  0999 V2000
  160.1640  209.9280  154.6630 C   0  0  0  0  0  0  0  0  0  0  0  0
  159.5330  210.7610  152.5260 O   0  0  0  0  0  1  0  0  0  0  0  0
  160.9900  209.0280  155.5160 C   0  0  0  0  0  2  0  0  0  0  0  0
  160.6510  206.9860  154.2270 N   0  0  0  0  0  0  0  0  0  0  0  0
  161.0320  208.8180  152.6000 C   0  0  0  0  0  0  0  0  0  0  0  0
  160.2240  209.8430  153.3140 C   0  0  0  0  0  0  0  0  0  0  0  0
  161.1540  207.5370  152.9980 C   0  0  0  0  0  3  0  0  0  0  0  0
  160.5440  207.6170  155.3550 C   0  0  0  0  0  3  0  0  0  0  0  0
  159.3460  210.9160  155.3990 C   0  0  0  0  0  3  0  0  0  0  0  0
  158.0220  210.8780  155.5200 C   0  0  0  0  0  3  0  0  0  0  0  0
  156.0590  212.3690  155.5070 C   0  0  0  0  0  2  0  0  0  0  0  0
  157.4800  214.4530  156.7270 C   0  0  0  0  0  2  0  0  0  0  0  0
  156.0650  214.2460  157.2610 C   0  0  0  0  0  2  0  0  0  0  0  0
  158.2210  213.1170  156.5840 C   0  0  0  0  0  2  0  0  0  0  0  0
  157.2930  211.9260  156.2870 C   0  0  0  0  0  3  0  0  0  0  0  0
  155.2290  213.3850  156.3050 C   0  0  0  0  0  2  0  0  0  0  0  0
  161.5880  209.2000  151.2600 C   0  0  1  0  0  3  0  0  0  0  0  0
  162.8330  209.9380  151.4130 N   0  0  0  0  0  1  0  0  0  0  0  0
  161.8430  209.1750  148.4190 O   0  0  0  0  0  0  0  0  0  0  0  0
  161.8060  208.0120  150.4430 N   0  0  0  0  0  2  0  0  0  0  0  0
  161.9330  208.0700  149.0220 C   0  0  0  0  0  0  0  0  0  0  0  0
  162.1590  206.8900  148.3110 O   0  0  0  0  0  0  0  0  0  0  0  0
  161.1010  206.0260  147.9100 C   0  0  1  0  0  3  0  0  0  0  0  0
  161.3790  205.5150  146.5050 C   0  0  0  0  0  2  0  0  0  0  0  0
  161.9230  204.1540  146.5840 N   0  0  0  0  0  0  0  0  0  0  0  0
  161.2060  203.3540  145.6070 C   0  0  0  0  0  1  0  0  0  0  0  0
  160.8310  204.7140  149.8740 O   0  0  0  0  0  0  0  0  0  0  0  0
  161.1400  204.7830  148.6950 C   0  0  0  0  0  0  0  0  0  0  0  0
  161.5840  203.6250  147.9010 C   0  0  0  0  0  2  0  0  0  0  0  0
  1  9  1  0  0  0  0
  1  3  1  0  0  0  0
  2  6  1  0  0  0  0
  4  8  2  0  0  0  0
  5  7  2  0  0  0  0
  5  6  1  0  0  0  0
  6  1  2  0  0  0  0
  7  4  1  0  0  0  0
  8  3  1  0  0  0  0
  9 10  2  0  0  0  0
 10 15  1  0  0  0  0
 11 15  1  0  0  0  0
 11 16  1  0  0  0  0
 12 13  1  0  0  0  0
 14 12  1  0  0  0  0
 15 14  1  0  0  0  0
 16 13  1  0  0  0  0
 17 18  1  1  0  0  0
 17  5  1  0  0  0  0
 19 21  2  0  0  0  0
 20 17  1  0  0  0  0
 21 20  1  0  0  0  0
 22 21  1  0  0  0  0
 23 22  1  1  0  0  0
 23 28  1  0  0  0  0
 24 25  1  0  0  0  0
 24 23  1  0  0  0  0
 25 29  1  0  0  0  0
 26 25  1  0  0  0  0
 28 27  2  0  0  0  0
 29 28  1  0  0  0  0
M  END
>  <MODEL>
4

>  <REMARK>
 VINA RESULT:      -7.6      3.665      7.923
  Name = 
  6 active torsions:
  status: ('A' for Active; 'I' for Inactive)
    1  A    between atoms: C_2  and  C_6
    2  A    between atoms: N_4  and  C_10
    3  A    between atoms: C_5  and  O_25
    4  A    between atoms: C_7  and  O_25
    5  A    between atoms: C_10  and  C_21
    6  A    between atoms: C_15  and  C_27
                            x       y       z     vdW  Elec       q    Type
                         _______ _______ _______ _____ _____    ______ ____

>  <TORSDO>
F 6

$$$$
=
 OpenBabel11072414013D

 29 31  0  0  1  0  0  0  0  0999 V2000
  161.2510  207.2870  151.2800 C   0  0  0  0  0  0  0  0  0  0  0  0
  161.7410  209.5010  150.5660 O   0  0  0  0  0  1  0  0  0  0  0  0
  160.6520  206.3390  152.2610 C   0  0  0  0  0  2  0  0  0  0  0  0
  161.5810  207.3540  154.2750 N   0  0  0  0  0  0  0  0  0  0  0  0
  160.8090  209.2050  152.8180 C   0  0  0  0  0  0  0  0  0  0  0  0
  161.2810  208.6150  151.5370 C   0  0  0  0  0  0  0  0  0  0  0  0
  161.0110  208.6500  154.0280 C   0  0  0  0  0  3  0  0  0  0  0  0
  161.4630  206.3130  153.5100 C   0  0  0  0  0  3  0  0  0  0  0  0
  161.7410  206.6690  150.0290 C   0  0  0  0  0  3  0  0  0  0  0  0
  160.9880  206.3720  148.9740 C   0  0  0  0  0  3  0  0  0  0  0  0
  160.8170  206.2030  146.5200 C   0  0  0  0  0  2  0  0  0  0  0  0
  161.5110  203.4880  146.5360 C   0  0  0  0  0  2  0  0  0  0  0  0
  162.1690  204.3100  145.4300 C   0  0  0  0  0  2  0  0  0  0  0  0
  161.5810  204.2150  147.8850 C   0  0  0  0  0  2  0  0  0  0  0  0
  161.5840  205.7490  147.7600 C   0  0  0  0  0  3  0  0  0  0  0  0
  161.4580  205.6550  145.2370 C   0  0  0  0  0  2  0  0  0  0  0  0
  160.2370  210.5910  152.7600 C   0  0  1  0  0  3  0  0  0  0  0  0
  160.4930  211.3040  154.0030 N   0  0  0  0  0  1  0  0  0  0  0  0
  159.0690  212.8900  151.5420 O   0  0  0  0  0  0  0  0  0  0  0  0
  160.8000  211.3270  151.6350 N   0  0  0  0  0  2  0  0  0  0  0  0
  160.1670  212.4780  151.0750 C   0  0  0  0  0  0  0  0  0  0  0  0
  160.7780  213.1390  150.0080 O   0  0  0  0  0  0  0  0  0  0  0  0
  160.7610  212.6250  148.6810 C   0  0  1  0  0  3  0  0  0  0  0  0
  160.0680  213.6240  147.7680 C   0  0  0  0  0  2  0  0  0  0  0  0
  161.0800  214.3890  147.0310 N   0  0  0  0  0  0  0  0  0  0  0  0
  160.6640  214.4120  145.6390 C   0  0  0  0  0  1  0  0  0  0  0  0
  162.9930  211.8290  148.4860 O   0  0  0  0  0  0  0  0  0  0  0  0
  162.1250  212.6090  148.1300 C   0  0  0  0  0  0  0  0  0  0  0  0
  162.3280  213.6330  147.0910 C   0  0  0  0  0  2  0  0  0  0  0  0
  1  6  2  0  0  0  0
  1  3  1  0  0  0  0
  2  6  1  0  0  0  0
  3  8  1  0  0  0  0
  5  7  2  0  0  0  0
  6  5  1  0  0  0  0
  7  4  1  0  0  0  0
  8  4  2  0  0  0  0
  9  1  1  0  0  0  0
 10  9  2  0  0  0  0
 11 15  1  0  0  0  0
 12 14  1  0  0  0  0
 13 12  1  0  0  0  0
 15 14  1  0  0  0  0
 15 10  1  0  0  0  0
 16 13  1  0  0  0  0
 16 11  1  0  0  0  0
 17  5  1  0  0  0  0
 17 18  1  1  0  0  0
 20 17  1  0  0  0  0
 21 19  2  0  0  0  0
 21 20  1  0  0  0  0
 22 21  1  0  0  0  0
 23 22  1  1  0  0  0
 24 23  1  0  0  0  0
 25 29  1  0  0  0  0
 25 24  1  0  0  0  0
 26 25  1  0  0  0  0
 28 27  2  0  0  0  0
 28 23  1  0  0  0  0
 29 28  1  0  0  0  0
M  END
>  <MODEL>
5

>  <REMARK>
 VINA RESULT:      -7.1      1.689      2.258
  Name = 
  6 active torsions:
  status: ('A' for Active; 'I' for Inactive)
    1  A    between atoms: C_2  and  C_6
    2  A    between atoms: N_4  and  C_10
    3  A    between atoms: C_5  and  O_25
    4  A    between atoms: C_7  and  O_25
    5  A    between atoms: C_10  and  C_21
    6  A    between atoms: C_15  and  C_27
                            x       y       z     vdW  Elec       q    Type
                         _______ _______ _______ _____ _____    ______ ____

>  <TORSDO>
F 6

$$$$
=
 OpenBabel11072414013D

 29 31  0  0  1  0  0  0  0  0999 V2000
  161.2770  206.7570  150.7200 C   0  0  0  0  0  0  0  0  0  0  0  0
  162.3320  208.8880  150.6520 O   0  0  0  0  0  1  0  0  0  0  0  0
  160.4570  205.7340  151.4280 C   0  0  0  0  0  2  0  0  0  0  0  0
  161.6430  205.8090  153.5580 N   0  0  0  0  0  0  0  0  0  0  0  0
  161.3770  208.1520  152.7910 C   0  0  0  0  0  0  0  0  0  0  0  0
  161.6620  207.8890  151.3540 C   0  0  0  0  0  0  0  0  0  0  0  0
  161.4360  207.2170  153.7590 C   0  0  0  0  0  3  0  0  0  0  0  0
  161.2440  205.1210  152.5330 C   0  0  0  0  0  3  0  0  0  0  0  0
  161.5720  206.4550  149.3030 C   0  0  0  0  0  3  0  0  0  0  0  0
  161.2320  205.3360  148.6710 C   0  0  0  0  0  3  0  0  0  0  0  0
  160.6180  205.9240  146.3570 C   0  0  0  0  0  2  0  0  0  0  0  0
  161.2150  203.3540  145.4140 C   0  0  0  0  0  2  0  0  0  0  0  0
  161.6890  204.4920  144.5140 C   0  0  0  0  0  2  0  0  0  0  0  0
  161.5500  203.6340  146.8850 C   0  0  0  0  0  2  0  0  0  0  0  0
  161.5790  205.1310  147.2370 C   0  0  0  0  0  3  0  0  0  0  0  0
  160.9980  205.8140  144.8740 C   0  0  0  0  0  2  0  0  0  0  0  0
  161.1950  209.5840  153.1980 C   0  0  1  0  0  3  0  0  0  0  0  0
  160.9420  210.4210  152.0350 N   0  0  0  0  0  1  0  0  0  0  0  0
  161.4100  210.6460  155.8370 O   0  0  0  0  0  0  0  0  0  0  0  0
  160.0980  209.7060  154.1510 N   0  0  0  0  0  2  0  0  0  0  0  0
  160.2720  210.2550  155.4570 C   0  0  0  0  0  0  0  0  0  0  0  0
  159.1680  210.3540  156.3060 O   0  0  0  0  0  0  0  0  0  0  0  0
  158.3460  211.5160  156.3570 C   0  0  1  0  0  3  0  0  0  0  0  0
  159.1510  212.7160  155.8880 C   0  0  0  0  0  2  0  0  0  0  0  0
  158.8010  213.0200  154.4950 N   0  0  0  0  0  0  0  0  0  0  0  0
  158.5800  214.4530  154.4160 C   0  0  0  0  0  1  0  0  0  0  0  0
  156.3390  210.6820  155.3920 O   0  0  0  0  0  0  0  0  0  0  0  0
  157.2970  211.4360  155.3290 C   0  0  0  0  0  0  0  0  0  0  0  0
  157.5210  212.3750  154.2170 C   0  0  0  0  0  2  0  0  0  0  0  0
  1  6  2  0  0  0  0
  1  3  1  0  0  0  0
  2  6  1  0  0  0  0
  3  8  1  0  0  0  0
  4  7  1  0  0  0  0
  5 17  1  0  0  0  0
  5  7  2  0  0  0  0
  6  5  1  0  0  0  0
  8  4  2  0  0  0  0
  9  1  1  0  0  0  0
 10  9  2  0  0  0  0
 11 15  1  0  0  0  0
 12 14  1  0  0  0  0
 13 16  1  0  0  0  0
 13 12  1  0  0  0  0
 14 15  1  0  0  0  0
 15 10  1  0  0  0  0
 16 11  1  0  0  0  0
 17 18  1  6  0  0  0
 17 20  1  0  0  0  0
 20 21  1  0  0  0  0
 21 19  2  0  0  0  0
 21 22  1  0  0  0  0
 23 22  1  6  0  0  0
 24 23  1  0  0  0  0
 25 24  1  0  0  0  0
 26 25  1  0  0  0  0
 28 27  2  0  0  0  0
 28 23  1  0  0  0  0
 29 25  1  0  0  0  0
 29 28  1  0  0  0  0
M  END
>  <MODEL>
6

>  <REMARK>
 VINA RESULT:      -7.0      3.638      5.344
  Name = 
  6 active torsions:
  status: ('A' for Active; 'I' for Inactive)
    1  A    between atoms: C_2  and  C_6
    2  A    between atoms: N_4  and  C_10
    3  A    between atoms: C_5  and  O_25
    4  A    between atoms: C_7  and  O_25
    5  A    between atoms: C_10  and  C_21
    6  A    between atoms: C_15  and  C_27
                            x       y       z     vdW  Elec       q    Type
                         _______ _______ _______ _____ _____    ______ ____

>  <TORSDO>
F 6

$$$$
=
 OpenBabel11072414013D

 29 31  0  0  1  0  0  0  0  0999 V2000
  161.9480  209.3230  150.4200 C   0  0  0  0  0  0  0  0  0  0  0  0
  161.2690  207.3310  149.3130 O   0  0  0  0  0  1  0  0  0  0  0  0
  162.4080  210.0390  151.6430 C   0  0  0  0  0  2  0  0  0  0  0  0
  160.7550  209.1140  153.1800 N   0  0  0  0  0  0  0  0  0  0  0  0
  161.5440  207.2480  151.7510 C   0  0  0  0  0  0  0  0  0  0  0  0
  161.5890  208.0200  150.4800 C   0  0  0  0  0  0  0  0  0  0  0  0
  161.1100  207.7450  152.9260 C   0  0  0  0  0  3  0  0  0  0  0  0
  161.2890  210.1550  152.6200 C   0  0  0  0  0  3  0  0  0  0  0  0
  161.9720  210.1240  149.1760 C   0  0  0  0  0  3  0  0  0  0  0  0
  161.9640  211.4520  149.1210 C   0  0  0  0  0  3  0  0  0  0  0  0
  162.5720  213.5610  147.9970 C   0  0  0  0  0  2  0  0  0  0  0  0
  160.3530  213.4340  146.2900 C   0  0  0  0  0  2  0  0  0  0  0  0
  161.6530  213.8690  145.6180 C   0  0  0  0  0  2  0  0  0  0  0  0
  160.5790  212.2220  147.2030 C   0  0  0  0  0  2  0  0  0  0  0  0
  161.9910  212.1620  147.8110 C   0  0  0  0  0  3  0  0  0  0  0  0
  162.7020  214.2940  146.6540 C   0  0  0  0  0  2  0  0  0  0  0  0
  161.8290  205.7770  151.6660 C   0  0  1  0  0  3  0  0  0  0  0  0
  161.2060  205.0690  152.7750 N   0  0  0  0  0  1  0  0  0  0  0  0
  161.3850  203.0160  151.1050 O   0  0  0  0  0  0  0  0  0  0  0  0
  161.3520  205.2400  150.3970 N   0  0  0  0  0  2  0  0  0  0  0  0
  161.1430  203.8440  150.1840 C   0  0  0  0  0  0  0  0  0  0  0  0
  160.6680  203.4080  148.9450 O   0  0  0  0  0  0  0  0  0  0  0  0
  161.5090  202.7820  147.9830 C   0  0  1  0  0  3  0  0  0  0  0  0
  160.8280  201.5240  147.4690 C   0  0  0  0  0  2  0  0  0  0  0  0
  160.2170  201.8020  146.1640 N   0  0  0  0  0  0  0  0  0  0  0  0
  160.5820  200.7070  145.2830 C   0  0  0  0  0  1  0  0  0  0  0  0
  162.1840  204.6630  146.6930 O   0  0  0  0  0  0  0  0  0  0  0  0
  161.5800  203.6040  146.7650 C   0  0  0  0  0  0  0  0  0  0  0  0
  160.8500  203.0060  145.6340 C   0  0  0  0  0  2  0  0  0  0  0  0
  1  6  2  0  0  0  0
  1  3  1  0  0  0  0
  2  6  1  0  0  0  0
  3  8  1  0  0  0  0
  5  7  2  0  0  0  0
  6  5  1  0  0  0  0
  7  4  1  0  0  0  0
  8  4  2  0  0  0  0
  9  1  1  0  0  0  0
 10  9  2  0  0  0  0
 12 14  1  0  0  0  0
 13 12  1  0  0  0  0
 13 16  1  0  0  0  0
 14 15  1  0  0  0  0
 15 11  1  0  0  0  0
 15 10  1  0  0  0  0
 16 11  1  0  0  0  0
 17  5  1  0  0  0  0
 17 18  1  1  0  0  0
 20 17  1  0  0  0  0
 21 20  1  0  0  0  0
 21 19  2  0  0  0  0
 22 21  1  0  0  0  0
 23 22  1  1  0  0  0
 24 23  1  0  0  0  0
 25 24  1  0  0  0  0
 26 25  1  0  0  0  0
 27 28  2  0  0  0  0
 28 23  1  0  0  0  0
 29 25  1  0  0  0  0
 29 28  1  0  0  0  0
M  END
>  <MODEL>
7

>  <REMARK>
 VINA RESULT:      -6.7      3.796      8.547
  Name = 
  6 active torsions:
  status: ('A' for Active; 'I' for Inactive)
    1  A    between atoms: C_2  and  C_6
    2  A    between atoms: N_4  and  C_10
    3  A    between atoms: C_5  and  O_25
    4  A    between atoms: C_7  and  O_25
    5  A    between atoms: C_10  and  C_21
    6  A    between atoms: C_15  and  C_27
                            x       y       z     vdW  Elec       q    Type
                         _______ _______ _______ _____ _____    ______ ____

>  <TORSDO>
F 6

$$$$
=
 OpenBabel11072414013D

 29 31  0  0  1  0  0  0  0  0999 V2000
  161.3520  207.3900  151.3150 C   0  0  0  0  0  0  0  0  0  0  0  0
  162.0340  209.5820  150.6970 O   0  0  0  0  0  1  0  0  0  0  0  0
  160.6570  206.4580  152.2470 C   0  0  0  0  0  2  0  0  0  0  0  0
  161.6200  207.3180  154.3160 N   0  0  0  0  0  0  0  0  0  0  0  0
  161.0320  209.2790  152.9170 C   0  0  0  0  0  0  0  0  0  0  0  0
  161.4830  208.7000  151.6230 C   0  0  0  0  0  0  0  0  0  0  0  0
  161.1620  208.6640  154.1090 C   0  0  0  0  0  3  0  0  0  0  0  0
  161.4360  206.3200  153.5090 C   0  0  0  0  0  3  0  0  0  0  0  0
  161.8190  206.7810  150.0500 C   0  0  0  0  0  3  0  0  0  0  0  0
  161.0290  206.2950  149.0970 C   0  0  0  0  0  3  0  0  0  0  0  0
  160.8310  206.2030  146.6400 C   0  0  0  0  0  2  0  0  0  0  0  0
  161.4880  203.4800  146.5660 C   0  0  0  0  0  2  0  0  0  0  0  0
  162.1450  204.3260  145.4790 C   0  0  0  0  0  2  0  0  0  0  0  0
  161.5820  204.1650  147.9360 C   0  0  0  0  0  2  0  0  0  0  0  0
  161.6040  205.7020  147.8570 C   0  0  0  0  0  3  0  0  0  0  0  0
  161.4500  205.6860  145.3340 C   0  0  0  0  0  2  0  0  0  0  0  0
  160.5750  210.7080  152.9030 C   0  0  1  0  0  3  0  0  0  0  0  0
  159.2180  210.8070  152.3860 N   0  0  0  0  0  1  0  0  0  0  0  0
  159.3180  213.1300  153.7330 O   0  0  0  0  0  0  0  0  0  0  0  0
  160.6440  211.2780  154.2430 N   0  0  0  0  0  2  0  0  0  0  0  0
  159.9840  212.4930  154.5960 C   0  0  0  0  0  0  0  0  0  0  0  0
  160.0830  212.9650  155.9070 O   0  0  0  0  0  0  0  0  0  0  0  0
  159.1020  212.6780  156.8980 C   0  0  1  0  0  3  0  0  0  0  0  0
  157.9570  213.6690  156.7670 C   0  0  0  0  0  2  0  0  0  0  0  0
  156.8440  213.0320  156.0550 N   0  0  0  0  0  0  0  0  0  0  0  0
  155.6350  213.3290  156.8040 C   0  0  0  0  0  1  0  0  0  0  0  0
  158.9650  210.3110  156.7140 O   0  0  0  0  0  0  0  0  0  0  0  0
  158.4340  211.4040  156.5910 C   0  0  0  0  0  0  0  0  0  0  0  0
  157.0480  211.5880  156.1300 C   0  0  0  0  0  2  0  0  0  0  0  0
  1  6  2  0  0  0  0
  1  3  1  0  0  0  0
  2  6  1  0  0  0  0
  3  8  1  0  0  0  0
  5  7  2  0  0  0  0
  6  5  1  0  0  0  0
  7  4  1  0  0  0  0
  8  4  2  0  0  0  0
  9  1  1  0  0  0  0
 10  9  2  0  0  0  0
 11 15  1  0  0  0  0
 12 14  1  0  0  0  0
 13 12  1  0  0  0  0
 15 14  1  0  0  0  0
 15 10  1  0  0  0  0
 16 13  1  0  0  0  0
 16 11  1  0  0  0  0
 17 18  1  1  0  0  0
 17  5  1  0  0  0  0
 17 20  1  0  0  0  0
 19 21  2  0  0  0  0
 20 21  1  0  0  0  0
 21 22  1  0  0  0  0
 23 22  1  6  0  0  0
 24 23  1  0  0  0  0
 25 29  1  0  0  0  0
 25 24  1  0  0  0  0
 25 26  1  0  0  0  0
 28 27  2  0  0  0  0
 28 23  1  0  0  0  0
 29 28  1  0  0  0  0
M  END
>  <MODEL>
8

>  <REMARK>
 VINA RESULT:      -6.7      3.320      5.440
  Name = 
  6 active torsions:
  status: ('A' for Active; 'I' for Inactive)
    1  A    between atoms: C_2  and  C_6
    2  A    between atoms: N_4  and  C_10
    3  A    between atoms: C_5  and  O_25
    4  A    between atoms: C_7  and  O_25
    5  A    between atoms: C_10  and  C_21
    6  A    between atoms: C_15  and  C_27
                            x       y       z     vdW  Elec       q    Type
                         _______ _______ _______ _____ _____    ______ ____

>  <TORSDO>
F 6

$$$$
=
 OpenBabel11072414013D

 29 31  0  0  1  0  0  0  0  0999 V2000
  160.9350  204.6360  150.2080 C   0  0  0  0  0  0  0  0  0  0  0  0
  162.1940  206.1720  148.8990 O   0  0  0  0  0  1  0  0  0  0  0  0
  160.1820  204.2950  151.4470 C   0  0  0  0  0  2  0  0  0  0  0  0
  161.8240  205.1340  153.0440 N   0  0  0  0  0  0  0  0  0  0  0  0
  161.6730  206.8000  151.2150 C   0  0  0  0  0  0  0  0  0  0  0  0
  161.5880  205.8170  150.1020 C   0  0  0  0  0  0  0  0  0  0  0  0
  161.8390  206.4680  152.5090 C   0  0  0  0  0  3  0  0  0  0  0  0
  161.1220  204.1420  152.5920 C   0  0  0  0  0  3  0  0  0  0  0  0
  160.8600  203.6260  149.1290 C   0  0  0  0  0  3  0  0  0  0  0  0
  160.3880  202.3910  149.2680 C   0  0  0  0  0  3  0  0  0  0  0  0
  161.6180  200.5900  148.1170 C   0  0  0  0  0  2  0  0  0  0  0  0
  160.8330  201.5030  145.5870 C   0  0  0  0  0  2  0  0  0  0  0  0
  160.7820  199.9880  145.7640 C   0  0  0  0  0  2  0  0  0  0  0  0
  160.2150  202.2250  146.7920 C   0  0  0  0  0  2  0  0  0  0  0  0
  160.3570  201.4500  148.1140 C   0  0  0  0  0  3  0  0  0  0  0  0
  161.5830  199.5430  146.9950 C   0  0  0  0  0  2  0  0  0  0  0  0
  161.7610  208.2500  150.8380 C   0  0  1  0  0  3  0  0  0  0  0  0
  161.4830  208.4300  149.4210 N   0  0  0  0  0  1  0  0  0  0  0  0
  162.4930  210.3280  152.6490 O   0  0  0  0  0  0  0  0  0  0  0  0
  160.8310  209.0400  151.6360 N   0  0  0  0  0  2  0  0  0  0  0  0
  161.2630  210.0740  152.5200 C   0  0  0  0  0  0  0  0  0  0  0  0
  160.3100  210.7990  153.2380 O   0  0  0  0  0  0  0  0  0  0  0  0
  159.9530  210.4740  154.5770 C   0  0  1  0  0  3  0  0  0  0  0  0
  160.5680  209.1330  154.9450 C   0  0  0  0  0  2  0  0  0  0  0  0
  161.7760  209.3580  155.7460 N   0  0  0  0  0  0  0  0  0  0  0  0
  161.7040  208.4580  156.8840 C   0  0  0  0  0  1  0  0  0  0  0  0
  160.3340  212.5580  155.6550 O   0  0  0  0  0  0  0  0  0  0  0  0
  160.6310  211.3830  155.5130 C   0  0  0  0  0  0  0  0  0  0  0  0
  161.7040  210.7180  156.2720 C   0  0  0  0  0  2  0  0  0  0  0  0
  1  3  1  0  0  0  0
  2  6  1  0  0  0  0
  3  8  1  0  0  0  0
  5  7  2  0  0  0  0
  6  1  2  0  0  0  0
  6  5  1  0  0  0  0
  7  4  1  0  0  0  0
  8  4  2  0  0  0  0
  9 10  2  0  0  0  0
  9  1  1  0  0  0  0
 12 13  1  0  0  0  0
 12 14  1  0  0  0  0
 13 16  1  0  0  0  0
 14 15  1  0  0  0  0
 15 11  1  0  0  0  0
 15 10  1  0  0  0  0
 16 11  1  0  0  0  0
 17 18  1  6  0  0  0
 17  5  1  0  0  0  0
 17 20  1  0  0  0  0
 20 21  1  0  0  0  0
 21 19  2  0  0  0  0
 21 22  1  0  0  0  0
 23 22  1  6  0  0  0
 23 24  1  0  0  0  0
 23 28  1  0  0  0  0
 24 25  1  0  0  0  0
 25 29  1  0  0  0  0
 25 26  1  0  0  0  0
 28 27  2  0  0  0  0
 28 29  1  0  0  0  0
M  END
>  <MODEL>
9

>  <REMARK>
 VINA RESULT:      -6.5      3.309      5.755
  Name = 
  6 active torsions:
  status: ('A' for Active; 'I' for Inactive)
    1  A    between atoms: C_2  and  C_6
    2  A    between atoms: N_4  and  C_10
    3  A    between atoms: C_5  and  O_25
    4  A    between atoms: C_7  and  O_25
    5  A    between atoms: C_10  and  C_21
    6  A    between atoms: C_15  and  C_27
                            x       y       z     vdW  Elec       q    Type
                         _______ _______ _______ _____ _____    ______ ____

>  <TORSDO>
F 6

$$$$
