=
 OpenBabel11072412323D

 56 60  0  0  1  0  0  0  0  0999 V2000
  162.1940  202.4860  148.8370 O   0  0  0  0  0  0  0  0  0  0  0  0
  161.2170  206.6920  147.5740 C   0  0  1  0  0  3  0  0  0  0  0  0
  160.2050  204.1160  146.9520 O   0  0  0  0  0  1  0  0  0  0  0  0
  161.7340  203.6110  148.7290 C   0  0  0  0  0  0  0  0  0  0  0  0
  161.3490  204.3470  149.9920 C   0  0  2  0  0  3  0  0  0  0  0  0
  160.1020  203.7740  150.6620 C   0  0  0  0  0  2  0  0  0  0  0  0
  161.4410  205.7030  152.5140 C   0  0  1  0  0  3  0  0  0  0  0  0
  160.2910  204.8790  152.8690 N   0  0  0  0  0  2  0  0  0  0  0  0
  161.4180  205.8880  149.9690 C   0  0  1  0  0  3  0  0  0  0  0  0
  162.1500  205.5510  147.1610 C   0  0  0  0  0  2  0  0  0  0  0  0
  160.5030  206.4700  148.9060 C   0  0  0  0  0  2  0  0  0  0  0  0
  161.0700  206.5520  151.3020 C   0  0  0  0  0  2  0  0  0  0  0  0
  161.5470  204.1610  147.3430 C   0  0  2  0  0  3  0  0  0  0  0  0
  160.3710  203.6060  152.1580 C   0  0  0  0  0  2  0  0  0  0  0  0
  162.1160  208.2610  147.5600 S   0  0  2  0  0  0  0  0  0  0  0  0
  163.4990  207.9130  148.0960 O   0  0  0  0  0  0  0  0  0  0  0  0
  161.3680  209.2410  148.8890 C   0  0  0  0  0  2  0  0  0  0  0  0
  162.4670  211.2320  149.6010 O   0  0  0  0  0  0  0  0  0  0  0  0
  161.7140  210.6850  148.7510 C   0  0  0  0  0  0  0  0  0  0  0  0
  161.1610  211.4220  147.7050 O   0  0  0  0  0  0  0  0  0  0  0  0
  161.8480  212.4920  147.0770 C   0  0  0  0  0  2  0  0  0  0  0  0
  160.8220  213.5200  146.6170 C   0  0  1  0  0  3  0  0  0  0  0  0
  161.4500  214.4520  145.7860 O   0  0  0  0  0  0  0  0  0  0  0  0
  162.7940  214.0740  145.7630 C   0  0  0  0  0  1  0  0  0  0  0  0
  159.5690  212.9490  145.9100 C   0  0  1  0  0  3  0  0  0  0  0  0
  158.1920  213.4270  146.4490 C   0  0  0  0  0  0  0  0  0  0  0  0
  157.2000  212.2770  146.5430 C   0  0  0  0  0  1  0  0  0  0  0  0
  158.3500  214.0360  147.8330 C   0  0  0  0  0  1  0  0  0  0  0  0
  157.6710  214.4150  145.6140 O   0  0  0  0  0  1  0  0  0  0  0  0
  159.6780  213.2110  144.4040 C   0  0  0  0  0  2  0  0  0  0  0  0
  159.7750  211.9190  143.6060 C   0  0  0  0  0  2  0  0  0  0  0  0
  160.3330  212.1900  142.2180 C   0  0  0  0  0  2  0  0  0  0  0  0
  162.4860  211.7750  140.8330 C   0  0  1  0  0  3  0  0  0  0  0  0
  162.4460  213.1900  141.3780 C   0  0  0  0  0  2  0  0  0  0  0  0
  161.8570  212.0650  142.2030 C   0  0  1  0  0  3  0  0  0  0  0  0
  162.1350  210.8450  138.5680 C   0  0  0  0  0  2  0  0  0  0  0  0
  161.4940  211.6410  139.6850 C   0  0  0  0  0  3  0  0  0  0  0  0
  162.0540  212.3490  138.4700 C   0  0  0  0  0  2  0  0  0  0  0  0
  161.8220  206.5950  153.6880 C   0  0  0  0  0  2  0  0  0  0  0  0
  160.7750  207.6890  153.8890 C   0  0  2  0  0  3  0  0  0  0  0  0
  160.1470  209.8680  152.7900 N   0  0  0  0  0  2  0  0  0  0  0  0
  162.3830  209.2430  153.0270 O   0  0  0  0  0  0  0  0  0  0  0  0
  161.1680  208.9630  153.2090 C   0  0  0  0  0  0  0  0  0  0  0  0
  160.4570  211.1460  152.1680 C   0  0  0  0  0  2  0  0  0  0  0  0
  159.8510  212.2790  152.9780 C   0  0  0  0  0  2  0  0  0  0  0  0
  158.3530  212.3440  152.7470 C   0  0  0  0  0  1  0  0  0  0  0  0
  160.1440  206.6640  155.9990 O   0  0  0  0  0  1  0  0  0  0  0  0
  160.4350  207.8760  155.3700 C   0  0  1  0  0  3  0  0  0  0  0  0
  161.5400  208.6150  156.1050 C   0  0  0  0  0  2  0  0  0  0  0  0
  159.6220  211.7670  156.3400 C   0  0  2  0  0  3  0  0  0  0  0  0
  160.9490  209.7990  156.8530 C   0  0  1  0  0  3  0  0  0  0  0  0
  161.8700  210.9950  156.8130 C   0  0  0  0  0  2  0  0  0  0  0  0
  159.6670  210.2550  156.1960 C   0  0  0  0  0  2  0  0  0  0  0  0
  160.9540  212.1930  156.9380 C   0  0  0  0  0  2  0  0  0  0  0  0
  157.3480  211.4010  156.9780 O   0  0  0  0  0  1  0  0  0  0  0  0
  158.4810  212.1650  157.2600 C   0  0  0  0  0  2  0  0  0  0  0  0
  2 15  1  1  0  0  0
  2 11  1  0  0  0  0
  4  1  2  0  0  0  0
  4  5  1  0  0  0  0
  5  6  1  6  0  0  0
  6 14  1  0  0  0  0
  7  8  1  0  0  0  0
  7 39  1  1  0  0  0
  9 11  1  6  0  0  0
  9  5  1  0  0  0  0
  9 12  1  0  0  0  0
 10 13  1  0  0  0  0
 10  2  1  0  0  0  0
 12  7  1  0  0  0  0
 13  3  1  1  0  0  0
 13  4  1  0  0  0  0
 14  8  1  0  0  0  0
 15 16  2  1  0  0  0
 15 17  1  0  0  0  0
 19 17  1  0  0  0  0
 19 18  2  0  0  0  0
 20 19  1  0  0  0  0
 21 20  1  0  0  0  0
 22 21  1  6  0  0  0
 23 22  1  0  0  0  0
 24 23  1  0  0  0  0
 25 30  1  6  0  0  0
 25 26  1  0  0  0  0
 25 22  1  0  0  0  0
 26 27  1  0  0  0  0
 26 28  1  0  0  0  0
 29 26  1  0  0  0  0
 31 30  1  0  0  0  0
 32 31  1  0  0  0  0
 33 37  1  6  0  0  0
 33 34  1  0  0  0  0
 33 35  1  0  0  0  0
 34 35  1  0  0  0  0
 35 32  1  6  0  0  0
 36 37  1  0  0  0  0
 38 36  1  0  0  0  0
 38 37  1  0  0  0  0
 40 39  1  1  0  0  0
 40 48  1  0  0  0  0
 41 43  1  0  0  0  0
 42 43  2  0  0  0  0
 43 40  1  0  0  0  0
 44 41  1  0  0  0  0
 44 45  1  0  0  0  0
 46 45  1  0  0  0  0
 48 47  1  1  0  0  0
 48 49  1  0  0  0  0
 50 54  1  0  0  0  0
 50 56  1  1  0  0  0
 51 49  1  6  0  0  0
 52 51  1  0  0  0  0
 52 54  1  0  0  0  0
 53 50  1  0  0  0  0
 53 51  1  0  0  0  0
 55 56  1  0  0  0  0
M  END
>  <MODEL>
1

>  <REMARK>
 VINA RESULT:      -3.8      0.000      0.000
  Name = 
  23 active torsions:
  status: ('A' for Active; 'I' for Inactive)
    1  A    between atoms: C_1  and  C_15
    2  A    between atoms: C_2  and  C_47
    3  A    between atoms: S_7  and  C_17
    4  A    between atoms: S_7  and  C_51
    5  A    between atoms: C_8  and  C_27
    6  A    between atoms: C_10  and  C_38
    7  A    between atoms: C_10  and  C_40
    8  A    between atoms: C_10  and  C_50
    9  A    between atoms: C_11  and  C_26
   10  A    between atoms: C_12  and  C_22
   11  A    between atoms: C_12  and  C_37
   12  A    between atoms: C_15  and  C_29
   13  A    between atoms: C_15  and  C_31
   14  A    between atoms: C_18  and  C_31
   15  A    between atoms: C_18  and  O_34
   16  A    between atoms: O_23  and  C_31
   17  A    between atoms: C_24  and  C_54
   18  A    between atoms: N_25  and  C_54
   19  A    between atoms: C_26  and  C_50
   20  A    between atoms: C_28  and  O_34
   21  A    between atoms: C_28  and  C_51
   22  A    between atoms: C_29  and  C_37
   23  A    between atoms: C_36  and  C_38
                            x       y       z     vdW  Elec       q    Type
                         _______ _______ _______ _____ _____    ______ ____

>  <TORSDO>
F 23

$$$$
=
 OpenBabel11072412323D

 56 60  0  0  1  0  0  0  0  0999 V2000
  157.2920  211.7480  155.9250 O   0  0  0  0  0  0  0  0  0  0  0  0
  159.2720  214.0670  152.6170 C   0  0  1  0  0  3  0  0  0  0  0  0
  159.1890  214.2660  155.4460 O   0  0  0  0  0  1  0  0  0  0  0  0
  158.0580  212.1830  155.0810 C   0  0  0  0  0  0  0  0  0  0  0  0
  158.9600  211.2020  154.3670 C   0  0  2  0  0  3  0  0  0  0  0  0
  160.0680  210.6490  155.2590 C   0  0  0  0  0  2  0  0  0  0  0  0
  159.9360  209.0690  152.7230 C   0  0  1  0  0  3  0  0  0  0  0  0
  160.7980  208.7450  153.8540 N   0  0  0  0  0  2  0  0  0  0  0  0
  159.4020  211.5560  152.9310 C   0  0  1  0  0  3  0  0  0  0  0  0
  157.9420  214.0470  153.3750 C   0  0  0  0  0  2  0  0  0  0  0  0
  160.1720  212.8640  152.8930 C   0  0  0  0  0  2  0  0  0  0  0  0
  160.2630  210.4850  152.2590 C   0  0  0  0  0  2  0  0  0  0  0  0
  158.0760  213.6670  154.8480 C   0  0  2  0  0  3  0  0  0  0  0  0
  160.1290  209.1300  155.0950 C   0  0  0  0  0  2  0  0  0  0  0  0
  158.9700  214.2730  150.8460 S   0  0  2  0  0  0  0  0  0  0  0  0
  157.6330  213.5830  150.6040 O   0  0  0  0  0  0  0  0  0  0  0  0
  160.1730  213.1870  150.0360 C   0  0  0  0  0  2  0  0  0  0  0  0
  162.0490  214.4360  149.2610 O   0  0  0  0  0  0  0  0  0  0  0  0
  160.9340  213.9180  148.9820 C   0  0  0  0  0  0  0  0  0  0  0  0
  160.3780  214.0540  147.7110 O   0  0  0  0  0  0  0  0  0  0  0  0
  161.1670  214.1170  146.5350 C   0  0  0  0  0  2  0  0  0  0  0  0
  161.0770  212.7740  145.8200 C   0  0  1  0  0  3  0  0  0  0  0  0
  160.7030  211.7910  146.7410 O   0  0  0  0  0  0  0  0  0  0  0  0
  161.7550  211.7300  147.6570 C   0  0  0  0  0  1  0  0  0  0  0  0
  160.1330  212.7290  144.5930 C   0  0  1  0  0  3  0  0  0  0  0  0
  158.6360  213.0420  144.8600 C   0  0  0  0  0  0  0  0  0  0  0  0
  158.0320  212.0690  145.8630 C   0  0  0  0  0  1  0  0  0  0  0  0
  158.4810  214.4510  145.4090 C   0  0  0  0  0  1  0  0  0  0  0  0
  157.9150  212.9770  143.6680 O   0  0  0  0  0  1  0  0  0  0  0  0
  160.6890  213.6470  143.4990 C   0  0  0  0  0  2  0  0  0  0  0  0
  161.6770  212.9250  142.5960 C   0  0  0  0  0  2  0  0  0  0  0  0
  160.9670  211.8740  141.7590 C   0  0  0  0  0  2  0  0  0  0  0  0
  161.1490  211.2000  139.2620 C   0  0  1  0  0  3  0  0  0  0  0  0
  161.9350  212.4650  139.5490 C   0  0  0  0  0  2  0  0  0  0  0  0
  161.8540  211.3900  140.6110 C   0  0  1  0  0  3  0  0  0  0  0  0
  158.9130  210.3760  138.5970 C   0  0  0  0  0  2  0  0  0  0  0  0
  159.6590  211.5130  139.2640 C   0  0  0  0  0  3  0  0  0  0  0  0
  159.1850  211.6490  137.8320 C   0  0  0  0  0  2  0  0  0  0  0  0
  160.1700  208.0760  151.5920 C   0  0  0  0  0  2  0  0  0  0  0  0
  161.6610  207.7900  151.4320 C   0  0  2  0  0  3  0  0  0  0  0  0
  162.0950  207.1950  149.0210 N   0  0  0  0  0  2  0  0  0  0  0  0
  162.5930  209.3230  149.8420 O   0  0  0  0  0  0  0  0  0  0  0  0
  162.1530  208.1630  150.0680 C   0  0  0  0  0  0  0  0  0  0  0  0
  162.5090  207.5040  147.6610 C   0  0  0  0  0  2  0  0  0  0  0  0
  162.2840  206.3000  146.7640 C   0  0  0  0  0  2  0  0  0  0  0  0
  160.8010  206.1090  146.5040 C   0  0  0  0  0  1  0  0  0  0  0  0
  162.4490  206.2560  153.1430 O   0  0  0  0  0  1  0  0  0  0  0  0
  162.0030  206.3500  151.8230 C   0  0  1  0  0  3  0  0  0  0  0  0
  160.8320  205.4140  151.5790 C   0  0  0  0  0  2  0  0  0  0  0  0
  160.5660  202.3550  149.5210 C   0  0  2  0  0  3  0  0  0  0  0  0
  161.3420  204.0920  151.0290 C   0  0  1  0  0  3  0  0  0  0  0  0
  160.8610  202.9250  151.8570 C   0  0  0  0  0  2  0  0  0  0  0  0
  160.8000  203.8520  149.6400 C   0  0  0  0  0  2  0  0  0  0  0  0
  160.8240  201.7580  150.8950 C   0  0  0  0  0  2  0  0  0  0  0  0
  161.3580  202.3900  147.2660 O   0  0  0  0  0  1  0  0  0  0  0  0
  161.5230  201.7620  148.5010 C   0  0  0  0  0  2  0  0  0  0  0  0
  2 15  1  6  0  0  0
  2 11  1  0  0  0  0
  2 10  1  0  0  0  0
  4  1  2  0  0  0  0
  5  4  1  0  0  0  0
  5  6  1  1  0  0  0
  7 39  1  6  0  0  0
  7  8  1  0  0  0  0
  8 14  1  0  0  0  0
  9 12  1  1  0  0  0
  9  5  1  0  0  0  0
 10 13  1  0  0  0  0
 11  9  1  0  0  0  0
 12  7  1  0  0  0  0
 13  4  1  0  0  0  0
 13  3  1  6  0  0  0
 14  6  1  0  0  0  0
 15 16  2  1  0  0  0
 17 15  1  0  0  0  0
 19 18  2  0  0  0  0
 19 17  1  0  0  0  0
 20 19  1  0  0  0  0
 21 20  1  0  0  0  0
 22 21  1  1  0  0  0
 22 23  1  0  0  0  0
 23 24  1  0  0  0  0
 25 30  1  6  0  0  0
 25 26  1  0  0  0  0
 25 22  1  0  0  0  0
 26 28  1  0  0  0  0
 26 27  1  0  0  0  0
 29 26  1  0  0  0  0
 31 30  1  0  0  0  0
 32 31  1  0  0  0  0
 33 37  1  1  0  0  0
 33 34  1  0  0  0  0
 33 35  1  0  0  0  0
 34 35  1  0  0  0  0
 35 32  1  1  0  0  0
 36 37  1  0  0  0  0
 38 36  1  0  0  0  0
 38 37  1  0  0  0  0
 40 39  1  6  0  0  0
 40 48  1  0  0  0  0
 41 43  1  0  0  0  0
 42 43  2  0  0  0  0
 43 40  1  0  0  0  0
 44 41  1  0  0  0  0
 45 44  1  0  0  0  0
 46 45  1  0  0  0  0
 48 47  1  1  0  0  0
 49 48  1  0  0  0  0
 50 56  1  6  0  0  0
 50 53  1  0  0  0  0
 50 54  1  0  0  0  0
 51 49  1  1  0  0  0
 51 52  1  0  0  0  0
 53 51  1  0  0  0  0
 54 52  1  0  0  0  0
 55 56  1  0  0  0  0
M  END
>  <MODEL>
2

>  <REMARK>
 VINA RESULT:      -3.0      2.195      6.894
  Name = 
  23 active torsions:
  status: ('A' for Active; 'I' for Inactive)
    1  A    between atoms: C_1  and  C_15
    2  A    between atoms: C_2  and  C_47
    3  A    between atoms: S_7  and  C_17
    4  A    between atoms: S_7  and  C_51
    5  A    between atoms: C_8  and  C_27
    6  A    between atoms: C_10  and  C_38
    7  A    between atoms: C_10  and  C_40
    8  A    between atoms: C_10  and  C_50
    9  A    between atoms: C_11  and  C_26
   10  A    between atoms: C_12  and  C_22
   11  A    between atoms: C_12  and  C_37
   12  A    between atoms: C_15  and  C_29
   13  A    between atoms: C_15  and  C_31
   14  A    between atoms: C_18  and  C_31
   15  A    between atoms: C_18  and  O_34
   16  A    between atoms: O_23  and  C_31
   17  A    between atoms: C_24  and  C_54
   18  A    between atoms: N_25  and  C_54
   19  A    between atoms: C_26  and  C_50
   20  A    between atoms: C_28  and  O_34
   21  A    between atoms: C_28  and  C_51
   22  A    between atoms: C_29  and  C_37
   23  A    between atoms: C_36  and  C_38
                            x       y       z     vdW  Elec       q    Type
                         _______ _______ _______ _____ _____    ______ ____

>  <TORSDO>
F 23

$$$$
