=
 OpenBabel11072412093D

 50 54  0  0  1  0  0  0  0  0999 V2000
  159.7450  209.1670  155.9190 C   0  0  0  0  0  1  0  0  0  0  0  0
  160.9740  209.2490  155.0240 C   0  0  2  0  0  0  0  0  0  0  0  0
  162.1320  208.8240  155.7950 N   0  0  0  0  0  1  0  0  0  0  0  0
  161.9070  210.7630  153.3700 O   0  0  0  0  0  1  0  0  0  0  0  0
  161.1940  210.7070  154.5740 C   0  0  1  0  0  3  0  0  0  0  0  0
  159.2510  211.6320  153.2620 C   0  0  0  0  0  0  0  0  0  0  0  0
  157.7760  213.6630  156.7450 C   0  0  0  0  0  1  0  0  0  0  0  0
  158.2730  212.9640  155.5270 C   0  0  0  0  0  0  0  0  0  0  0  0
  159.4460  212.2100  155.6070 C   0  0  0  0  0  3  0  0  0  0  0  0
  156.4000  213.7910  154.2330 O   0  0  0  0  0  1  0  0  0  0  0  0
  159.9410  211.5390  154.4810 C   0  0  0  0  0  0  0  0  0  0  0  0
  158.0650  212.3800  153.1780 C   0  0  0  0  0  0  0  0  0  0  0  0
  157.5760  213.0480  154.3120 C   0  0  0  0  0  0  0  0  0  0  0  0
  159.7250  210.9860  152.1660 F   0  0  0  0  0  0  0  0  0  0  0  0
  157.1750  212.4750  151.6170 S   0  0  0  0  0  0  0  0  0  0  0  0
  158.5040  213.3620  150.8020 C   0  0  0  0  0  0  0  0  0  0  0  0
  160.7630  214.1560  149.3190 C   0  0  0  0  0  2  0  0  0  0  0  0
  160.7890  214.4470  150.8070 C   0  0  0  0  0  2  0  0  0  0  0  0
  158.3560  213.7210  149.5690 N   0  0  0  0  0  0  0  0  0  0  0  0
  159.8150  213.5280  151.5350 C   0  0  0  0  0  2  0  0  0  0  0  0
  159.3550  214.4530  148.8160 C   0  0  2  0  0  3  0  0  0  0  0  0
  159.2290  214.1200  147.3380 C   0  0  0  0  0  2  0  0  0  0  0  0
  160.0470  212.8890  146.9840 C   0  0  0  0  0  2  0  0  0  0  0  0
  161.1670  213.0720  144.6310 O   0  0  0  0  0  0  0  0  0  0  0  0
  159.8880  212.5090  145.2310 S   0  0  2  0  0  0  0  0  0  0  0  0
  158.7090  213.7890  143.2760 O   0  0  0  0  0  1  0  0  0  0  0  0
  158.6250  213.6560  144.6590 C   0  0  0  0  0  2  0  0  0  0  0  0
  160.7950  208.3290  153.8090 C   0  0  0  0  0  2  0  0  0  0  0  0
  160.4760  206.8880  154.2010 C   0  0  0  0  0  2  0  0  0  0  0  0
  161.2740  205.9060  153.3570 C   0  0  2  0  0  3  0  0  0  0  0  0
  160.8760  204.7950  150.2250 C   0  0  0  0  0  2  0  0  0  0  0  0
  162.2140  206.6810  152.4250 C   0  0  0  0  0  2  0  0  0  0  0  0
  161.5660  207.0850  151.1060 C   0  0  0  0  0  2  0  0  0  0  0  0
  161.0390  204.1050  151.5720 C   0  0  0  0  0  2  0  0  0  0  0  0
  161.8180  205.9990  150.0570 C   0  0  2  0  0  3  0  0  0  0  0  0
  160.3340  204.9190  152.6460 C   0  0  0  0  0  2  0  0  0  0  0  0
  159.9000  205.7950  147.4210 C   0  0  0  0  0  2  0  0  0  0  0  0
  160.3650  206.9420  148.2500 C   0  0  0  0  0  2  0  0  0  0  0  0
  162.2560  205.5910  147.7160 O   0  0  0  0  0  0  0  0  0  0  0  0
  161.1900  205.2520  146.8600 C   0  0  1  0  0  3  0  0  0  0  0  0
  161.7880  206.5700  148.6210 C   0  0  2  0  0  0  0  0  0  0  0  0
  161.1140  203.8050  146.6940 N   0  0  0  0  0  0  0  0  0  0  0  0
  160.6490  203.2810  145.4420 C   0  0  0  0  0  3  0  0  0  0  0  0
  160.8000  201.5850  147.7030 C   0  0  1  0  0  3  0  0  0  0  0  0
  161.5530  202.9100  147.7740 C   0  0  0  0  0  2  0  0  0  0  0  0
  160.9690  200.9850  146.3090 C   0  0  0  0  0  2  0  0  0  0  0  0
  160.5470  201.9640  145.2480 C   0  0  0  0  0  3  0  0  0  0  0  0
  161.3100  200.7070  148.6570 O   0  0  0  0  0  1  0  0  0  0  0  0
  162.6370  207.7670  148.5050 C   0  0  0  0  0  0  0  0  0  0  0  0
  163.3060  208.7080  148.4120 N   0  0  0  0  0  0  0  0  0  0  0  0
  2  3  1  0  0  0  0
  2  1  1  1  0  0  0
  5  4  1  6  0  0  0
  5  2  1  0  0  0  0
  6 11  1  0  0  0  0
  8  9  1  0  0  0  0
  8  7  1  0  0  0  0
 10 13  1  0  0  0  0
 11  5  1  0  0  0  0
 11  9  2  0  0  0  0
 12  6  2  0  0  0  0
 12 13  1  0  0  0  0
 13  8  2  0  0  0  0
 14  6  1  0  0  0  0
 15 12  1  0  0  0  0
 16 20  1  0  0  0  0
 16 15  1  0  0  0  0
 17 18  1  0  0  0  0
 18 20  1  0  0  0  0
 19 16  2  0  0  0  0
 21 22  1  6  0  0  0
 21 17  1  0  0  0  0
 21 19  1  0  0  0  0
 23 22  1  0  0  0  0
 25 24  2  6  0  0  0
 25 23  1  0  0  0  0
 26 27  1  0  0  0  0
 27 25  1  0  0  0  0
 28 29  1  0  0  0  0
 28  2  1  0  0  0  0
 30 29  1  6  0  0  0
 31 34  1  0  0  0  0
 32 30  1  0  0  0  0
 33 32  1  0  0  0  0
 34 36  1  0  0  0  0
 35 31  1  6  0  0  0
 35 33  1  0  0  0  0
 36 30  1  0  0  0  0
 37 38  1  0  0  0  0
 38 41  1  0  0  0  0
 39 41  1  0  0  0  0
 40 42  1  1  0  0  0
 40 37  1  0  0  0  0
 40 39  1  0  0  0  0
 41 49  1  6  0  0  0
 41 35  1  0  0  0  0
 42 45  1  0  0  0  0
 43 42  1  0  0  0  0
 44 45  1  0  0  0  0
 44 48  1  1  0  0  0
 46 44  1  0  0  0  0
 47 43  2  0  0  0  0
 47 46  1  0  0  0  0
 50 49  3  0  0  0  0
M  END
>  <MODEL>
1

>  <REMARK>
 VINA RESULT:      -5.1      0.000      0.000
  Name = 
  14 active torsions:
  status: ('A' for Active; 'I' for Inactive)
    1  A    between atoms: C_2  and  S_11
    2  A    between atoms: N_6  and  C_21
    3  A    between atoms: S_11  and  C_36
    4  A    between atoms: C_14  and  C_28
    5  A    between atoms: C_14  and  C_34
    6  A    between atoms: C_15  and  C_24
    7  A    between atoms: C_15  and  C_28
    8  A    between atoms: C_16  and  C_22
    9  A    between atoms: C_16  and  C_50
   10  A    between atoms: C_22  and  S_23
   11  A    between atoms: S_23  and  C_42
   12  A    between atoms: C_33  and  C_34
   13  A    between atoms: C_38  and  C_47
   14  A    between atoms: C_43  and  C_47
                            x       y       z     vdW  Elec       q    Type
                         _______ _______ _______ _____ _____    ______ ____

>  <TORSDO>
F 14

$$$$
=
 OpenBabel11072412093D

 50 54  0  0  1  0  0  0  0  0999 V2000
  163.0950  207.6590  149.7240 C   0  0  0  0  0  1  0  0  0  0  0  0
  161.6500  208.1320  149.8090 C   0  0  2  0  0  0  0  0  0  0  0  0
  161.2230  208.5440  148.4800 N   0  0  0  0  0  1  0  0  0  0  0  0
  162.5040  209.2690  151.7780 O   0  0  0  0  0  1  0  0  0  0  0  0
  161.5540  209.3480  150.7520 C   0  0  1  0  0  3  0  0  0  0  0  0
  160.9200  211.7820  150.5910 C   0  0  0  0  0  0  0  0  0  0  0  0
  163.3540  212.2540  147.0850 C   0  0  0  0  0  1  0  0  0  0  0  0
  162.5060  212.1080  148.3010 C   0  0  0  0  0  0  0  0  0  0  0  0
  162.4170  210.8610  148.9230 C   0  0  0  0  0  3  0  0  0  0  0  0
  161.9010  214.4520  148.2160 O   0  0  0  0  0  1  0  0  0  0  0  0
  161.6300  210.6890  150.0690 C   0  0  0  0  0  0  0  0  0  0  0  0
  161.0130  213.0420  149.9760 C   0  0  0  0  0  0  0  0  0  0  0  0
  161.8060  213.2050  148.8280 C   0  0  0  0  0  0  0  0  0  0  0  0
  160.1530  211.6230  151.7000 F   0  0  0  0  0  0  0  0  0  0  0  0
  160.1180  214.4420  150.6640 S   0  0  0  0  0  0  0  0  0  0  0  0
  158.6340  214.0790  149.7260 C   0  0  0  0  0  0  0  0  0  0  0  0
  156.3370  214.1440  148.0970 C   0  0  0  0  0  2  0  0  0  0  0  0
  156.1290  213.7670  149.5520 C   0  0  0  0  0  2  0  0  0  0  0  0
  158.7400  213.7820  148.4720 N   0  0  0  0  0  0  0  0  0  0  0  0
  157.2930  214.2790  150.3930 C   0  0  0  0  0  2  0  0  0  0  0  0
  157.6120  213.4580  147.6210 C   0  0  2  0  0  3  0  0  0  0  0  0
  157.9270  213.8410  146.1840 C   0  0  0  0  0  2  0  0  0  0  0  0
  157.9890  212.6100  145.2930 C   0  0  0  0  0  2  0  0  0  0  0  0
  160.4610  213.4510  145.3840 O   0  0  0  0  0  0  0  0  0  0  0  0
  159.6720  212.3360  144.7130 S   0  0  2  0  0  0  0  0  0  0  0  0
  159.6560  214.2390  142.9160 O   0  0  0  0  0  1  0  0  0  0  0  0
  159.6180  212.8490  142.9900 C   0  0  0  0  0  2  0  0  0  0  0  0
  160.7560  206.9880  150.3070 C   0  0  0  0  0  2  0  0  0  0  0  0
  161.0190  206.6250  151.7660 C   0  0  0  0  0  2  0  0  0  0  0  0
  161.5960  205.2220  151.8810 C   0  0  2  0  0  3  0  0  0  0  0  0
  160.2680  202.1970  151.3480 C   0  0  0  0  0  2  0  0  0  0  0  0
  162.0140  204.7270  150.4920 C   0  0  0  0  0  2  0  0  0  0  0  0
  160.8840  204.0560  149.7190 C   0  0  0  0  0  2  0  0  0  0  0  0
  161.0030  202.8290  152.5220 C   0  0  0  0  0  2  0  0  0  0  0  0
  160.8990  202.5500  149.9910 C   0  0  2  0  0  3  0  0  0  0  0  0
  160.6200  204.2970  152.6260 C   0  0  0  0  0  2  0  0  0  0  0  0
  161.8920  201.1890  147.1930 C   0  0  0  0  0  2  0  0  0  0  0  0
  161.2180  200.6420  148.4030 C   0  0  0  0  0  2  0  0  0  0  0  0
  160.0570  202.6120  147.7280 O   0  0  0  0  0  0  0  0  0  0  0  0
  160.8770  202.1740  146.6700 C   0  0  1  0  0  3  0  0  0  0  0  0
  160.2730  201.7500  148.8270 C   0  0  2  0  0  0  0  0  0  0  0  0
  161.5360  203.3110  146.0380 N   0  0  0  0  0  0  0  0  0  0  0  0
  162.8330  203.7030  146.5110 C   0  0  0  0  0  3  0  0  0  0  0  0
  161.3530  205.4600  144.8570 C   0  0  1  0  0  3  0  0  0  0  0  0
  160.9010  204.0030  144.9080 C   0  0  0  0  0  2  0  0  0  0  0  0
  162.8780  205.5110  144.8210 C   0  0  0  0  0  2  0  0  0  0  0  0
  163.4690  204.7470  145.9750 C   0  0  0  0  0  3  0  0  0  0  0  0
  160.8360  206.0690  143.7150 O   0  0  0  0  0  1  0  0  0  0  0  0
  158.9860  201.1520  149.2210 C   0  0  0  0  0  0  0  0  0  0  0  0
  157.9740  200.6820  149.5300 N   0  0  0  0  0  0  0  0  0  0  0  0
  2  1  1  6  0  0  0
  2 28  1  0  0  0  0
  2  5  1  0  0  0  0
  3  2  1  0  0  0  0
  5  4  1  1  0  0  0
  6 14  1  0  0  0  0
  7  8  1  0  0  0  0
  8 13  2  0  0  0  0
  8  9  1  0  0  0  0
  9 11  2  0  0  0  0
 10 13  1  0  0  0  0
 11  6  1  0  0  0  0
 11  5  1  0  0  0  0
 12  6  2  0  0  0  0
 12 15  1  0  0  0  0
 13 12  1  0  0  0  0
 16 20  1  0  0  0  0
 16 15  1  0  0  0  0
 17 18  1  0  0  0  0
 18 20  1  0  0  0  0
 19 16  2  0  0  0  0
 21 22  1  6  0  0  0
 21 17  1  0  0  0  0
 21 19  1  0  0  0  0
 23 22  1  0  0  0  0
 25 23  1  0  0  0  0
 25 24  2  1  0  0  0
 26 27  1  0  0  0  0
 27 25  1  0  0  0  0
 28 29  1  0  0  0  0
 30 29  1  6  0  0  0
 30 36  1  0  0  0  0
 31 34  1  0  0  0  0
 32 30  1  0  0  0  0
 33 32  1  0  0  0  0
 34 36  1  0  0  0  0
 35 33  1  6  0  0  0
 35 31  1  0  0  0  0
 37 38  1  0  0  0  0
 38 41  1  0  0  0  0
 39 41  1  0  0  0  0
 40 42  1  1  0  0  0
 40 37  1  0  0  0  0
 40 39  1  0  0  0  0
 41 49  1  1  0  0  0
 41 35  1  0  0  0  0
 42 43  1  0  0  0  0
 44 48  1  6  0  0  0
 44 45  1  0  0  0  0
 45 42  1  0  0  0  0
 46 44  1  0  0  0  0
 46 47  1  0  0  0  0
 47 43  2  0  0  0  0
 49 50  3  0  0  0  0
M  END
>  <MODEL>
2

>  <REMARK>
 VINA RESULT:      -4.8      3.020      4.774
  Name = 
  14 active torsions:
  status: ('A' for Active; 'I' for Inactive)
    1  A    between atoms: C_2  and  S_11
    2  A    between atoms: N_6  and  C_21
    3  A    between atoms: S_11  and  C_36
    4  A    between atoms: C_14  and  C_28
    5  A    between atoms: C_14  and  C_34
    6  A    between atoms: C_15  and  C_24
    7  A    between atoms: C_15  and  C_28
    8  A    between atoms: C_16  and  C_22
    9  A    between atoms: C_16  and  C_50
   10  A    between atoms: C_22  and  S_23
   11  A    between atoms: S_23  and  C_42
   12  A    between atoms: C_33  and  C_34
   13  A    between atoms: C_38  and  C_47
   14  A    between atoms: C_43  and  C_47
                            x       y       z     vdW  Elec       q    Type
                         _______ _______ _______ _____ _____    ______ ____

>  <TORSDO>
F 14

$$$$
=
 OpenBabel11072412093D

 50 54  0  0  1  0  0  0  0  0999 V2000
  160.4660  206.1820  145.1790 C   0  0  0  0  0  1  0  0  0  0  0  0
  161.4170  205.1620  144.5670 C   0  0  2  0  0  0  0  0  0  0  0  0
  160.6250  204.0790  144.0030 N   0  0  0  0  0  1  0  0  0  0  0  0
  163.6250  205.1060  145.5740 O   0  0  0  0  0  1  0  0  0  0  0  0
  162.3310  204.5790  145.6630 C   0  0  1  0  0  3  0  0  0  0  0  0
  161.7620  205.9780  147.6810 C   0  0  0  0  0  0  0  0  0  0  0  0
  160.3400  202.5090  149.7720 C   0  0  0  0  0  1  0  0  0  0  0  0
  160.8290  203.7230  149.0610 C   0  0  0  0  0  0  0  0  0  0  0  0
  161.3370  203.5940  147.7660 C   0  0  0  0  0  3  0  0  0  0  0  0
  160.2600  205.1180  150.9570 O   0  0  0  0  0  1  0  0  0  0  0  0
  161.8040  204.7150  147.0680 C   0  0  0  0  0  0  0  0  0  0  0  0
  161.2430  206.1160  148.9780 C   0  0  0  0  0  0  0  0  0  0  0  0
  160.7760  204.9860  149.6700 C   0  0  0  0  0  0  0  0  0  0  0  0
  162.2150  207.0700  147.0120 F   0  0  0  0  0  0  0  0  0  0  0  0
  161.1740  207.7410  149.7480 S   0  0  0  0  0  0  0  0  0  0  0  0
  161.4440  207.0810  151.3930 C   0  0  0  0  0  0  0  0  0  0  0  0
  162.2230  206.5890  154.0540 C   0  0  0  0  0  2  0  0  0  0  0  0
  162.6730  205.5780  153.0160 C   0  0  0  0  0  2  0  0  0  0  0  0
  160.6730  207.4630  152.3580 N   0  0  0  0  0  0  0  0  0  0  0  0
  162.6590  206.2150  151.6310 C   0  0  0  0  0  2  0  0  0  0  0  0
  160.7890  206.9850  153.7220 C   0  0  2  0  0  3  0  0  0  0  0  0
  160.2870  208.0510  154.6820 C   0  0  0  0  0  2  0  0  0  0  0  0
  161.4150  208.5680  155.5610 C   0  0  0  0  0  2  0  0  0  0  0  0
  159.6740  210.4740  155.9630 O   0  0  0  0  0  0  0  0  0  0  0  0
  160.7920  209.7880  156.7320 S   0  0  2  0  0  0  0  0  0  0  0  0
  163.3220  210.4200  156.9640 O   0  0  0  0  0  1  0  0  0  0  0  0
  162.0880  211.0360  156.7750 C   0  0  0  0  0  2  0  0  0  0  0  0
  162.2490  205.8240  143.4620 C   0  0  0  0  0  2  0  0  0  0  0  0
  161.5220  205.8700  142.1200 C   0  0  0  0  0  2  0  0  0  0  0  0
  162.4230  206.4340  141.0330 C   0  0  2  0  0  3  0  0  0  0  0  0
  161.7870  207.5340  137.9360 C   0  0  0  0  0  2  0  0  0  0  0  0
  162.3450  207.9650  141.0490 C   0  0  0  0  0  2  0  0  0  0  0  0
  161.2020  208.5260  140.2090 C   0  0  0  0  0  2  0  0  0  0  0  0
  162.7560  206.5080  138.5090 C   0  0  0  0  0  2  0  0  0  0  0  0
  161.7000  208.8100  138.7900 C   0  0  2  0  0  3  0  0  0  0  0  0
  162.0980  205.7880  139.6760 C   0  0  0  0  0  2  0  0  0  0  0  0
  162.1910  211.8360  137.6630 C   0  0  0  0  0  2  0  0  0  0  0  0
  161.7050  210.5820  137.0230 C   0  0  0  0  0  2  0  0  0  0  0  0
  160.5060  210.8930  139.0600 O   0  0  0  0  0  0  0  0  0  0  0  0
  161.1330  212.1030  138.7040 C   0  0  1  0  0  3  0  0  0  0  0  0
  160.8720  209.9190  138.1030 C   0  0  2  0  0  0  0  0  0  0  0  0
  161.7140  212.7370  139.8820 N   0  0  0  0  0  0  0  0  0  0  0  0
  162.7090  213.7540  139.6940 C   0  0  0  0  0  3  0  0  0  0  0  0
  162.3610  212.5870  142.2490 C   0  0  1  0  0  3  0  0  0  0  0  0
  161.2490  212.3720  141.2270 C   0  0  0  0  0  2  0  0  0  0  0  0
  162.8640  214.0250  142.1490 C   0  0  0  0  0  2  0  0  0  0  0  0
  163.2810  214.3520  140.7410 C   0  0  0  0  0  3  0  0  0  0  0  0
  161.8700  212.3500  143.5310 O   0  0  0  0  0  1  0  0  0  0  0  0
  159.6490  209.3720  137.4920 C   0  0  0  0  0  0  0  0  0  0  0  0
  158.6870  208.9430  137.0110 N   0  0  0  0  0  0  0  0  0  0  0  0
  2  1  1  1  0  0  0
  2  5  1  0  0  0  0
  3  2  1  0  0  0  0
  5  4  1  1  0  0  0
  5 11  1  0  0  0  0
  6 12  1  0  0  0  0
  8 13  1  0  0  0  0
  8  7  1  0  0  0  0
  9  8  2  0  0  0  0
 11  6  2  0  0  0  0
 11  9  1  0  0  0  0
 12 13  2  0  0  0  0
 12 15  1  0  0  0  0
 13 10  1  0  0  0  0
 14  6  1  0  0  0  0
 15 16  1  0  0  0  0
 16 20  1  0  0  0  0
 16 19  2  0  0  0  0
 18 17  1  0  0  0  0
 19 21  1  0  0  0  0
 20 18  1  0  0  0  0
 21 17  1  0  0  0  0
 21 22  1  1  0  0  0
 22 23  1  0  0  0  0
 23 25  1  0  0  0  0
 25 24  2  6  0  0  0
 25 27  1  0  0  0  0
 27 26  1  0  0  0  0
 28  2  1  0  0  0  0
 29 28  1  0  0  0  0
 30 32  1  0  0  0  0
 30 29  1  1  0  0  0
 31 34  1  0  0  0  0
 33 32  1  0  0  0  0
 34 36  1  0  0  0  0
 35 31  1  6  0  0  0
 35 33  1  0  0  0  0
 36 30  1  0  0  0  0
 38 37  1  0  0  0  0
 38 41  1  0  0  0  0
 40 37  1  6  0  0  0
 40 39  1  0  0  0  0
 40 42  1  0  0  0  0
 41 49  1  6  0  0  0
 41 35  1  0  0  0  0
 41 39  1  0  0  0  0
 42 45  1  0  0  0  0
 43 42  1  0  0  0  0
 43 47  2  0  0  0  0
 44 48  1  1  0  0  0
 45 44  1  0  0  0  0
 46 44  1  0  0  0  0
 47 46  1  0  0  0  0
 50 49  3  0  0  0  0
M  END
>  <MODEL>
3

>  <REMARK>
 VINA RESULT:      -3.9      5.223     11.123
  Name = 
  14 active torsions:
  status: ('A' for Active; 'I' for Inactive)
    1  A    between atoms: C_2  and  S_11
    2  A    between atoms: N_6  and  C_21
    3  A    between atoms: S_11  and  C_36
    4  A    between atoms: C_14  and  C_28
    5  A    between atoms: C_14  and  C_34
    6  A    between atoms: C_15  and  C_24
    7  A    between atoms: C_15  and  C_28
    8  A    between atoms: C_16  and  C_22
    9  A    between atoms: C_16  and  C_50
   10  A    between atoms: C_22  and  S_23
   11  A    between atoms: S_23  and  C_42
   12  A    between atoms: C_33  and  C_34
   13  A    between atoms: C_38  and  C_47
   14  A    between atoms: C_43  and  C_47
                            x       y       z     vdW  Elec       q    Type
                         _______ _______ _______ _____ _____    ______ ____

>  <TORSDO>
F 14

$$$$
=
 OpenBabel11072412093D

 50 54  0  0  1  0  0  0  0  0999 V2000
  162.6440  208.3910  148.0200 C   0  0  0  0  0  1  0  0  0  0  0  0
  162.0930  208.2720  149.4340 C   0  0  2  0  0  0  0  0  0  0  0  0
  163.1630  207.8100  150.3060 N   0  0  0  0  0  1  0  0  0  0  0  0
  160.8650  206.5460  148.2470 O   0  0  0  0  0  1  0  0  0  0  0  0
  160.9550  207.2320  149.4650 C   0  0  1  0  0  3  0  0  0  0  0  0
  161.5670  204.9810  150.4190 C   0  0  0  0  0  0  0  0  0  0  0  0
  160.1070  206.1460  154.2850 C   0  0  0  0  0  1  0  0  0  0  0  0
  160.6190  205.7260  152.9510 C   0  0  0  0  0  0  0  0  0  0  0  0
  160.5440  206.6200  151.8800 C   0  0  0  0  0  3  0  0  0  0  0  0
  161.2660  203.5630  153.8290 O   0  0  0  0  0  1  0  0  0  0  0  0
  161.0160  206.2580  150.6130 C   0  0  0  0  0  0  0  0  0  0  0  0
  161.6550  204.0810  151.4930 C   0  0  0  0  0  0  0  0  0  0  0  0
  161.1800  204.4530  152.7610 C   0  0  0  0  0  0  0  0  0  0  0  0
  162.0260  204.6210  149.1930 F   0  0  0  0  0  0  0  0  0  0  0  0
  162.3820  202.4540  151.2410 S   0  0  0  0  0  0  0  0  0  0  0  0
  161.1400  201.9780  150.0400 C   0  0  0  0  0  0  0  0  0  0  0  0
  159.1350  201.8770  148.0640 C   0  0  0  0  0  2  0  0  0  0  0  0
  158.7810  201.3010  149.4220 C   0  0  0  0  0  2  0  0  0  0  0  0
  161.4810  201.8540  148.7990 N   0  0  0  0  0  0  0  0  0  0  0  0
  159.7010  201.8840  150.4890 C   0  0  0  0  0  2  0  0  0  0  0  0
  160.5660  201.4610  147.7450 C   0  0  2  0  0  3  0  0  0  0  0  0
  161.0200  202.0580  146.4230 C   0  0  0  0  0  2  0  0  0  0  0  0
  161.2050  203.5620  146.5390 C   0  0  0  0  0  2  0  0  0  0  0  0
  163.2420  205.1120  146.0120 O   0  0  0  0  0  0  0  0  0  0  0  0
  162.3240  204.1600  145.2600 S   0  0  2  0  0  0  0  0  0  0  0  0
  160.2490  205.7450  145.0610 O   0  0  0  0  0  1  0  0  0  0  0  0
  161.2980  205.2670  144.2790 C   0  0  0  0  0  2  0  0  0  0  0  0
  161.5900  209.6400  149.9140 C   0  0  0  0  0  2  0  0  0  0  0  0
  162.0820  209.9920  151.3160 C   0  0  0  0  0  2  0  0  0  0  0  0
  161.0350  209.6440  152.3620 C   0  0  2  0  0  3  0  0  0  0  0  0
  160.1660  211.1080  155.2440 C   0  0  0  0  0  2  0  0  0  0  0  0
  159.7820  210.4980  152.1350 C   0  0  0  0  0  2  0  0  0  0  0  0
  159.8350  211.8540  152.8310 C   0  0  0  0  0  2  0  0  0  0  0  0
  160.5740  209.6900  154.8670 C   0  0  0  0  0  2  0  0  0  0  0  0
  159.2080  211.7420  154.2220 C   0  0  2  0  0  3  0  0  0  0  0  0
  161.6320  209.7430  153.7760 C   0  0  0  0  0  2  0  0  0  0  0  0
  156.3410  213.3060  154.2050 C   0  0  0  0  0  2  0  0  0  0  0  0
  157.2620  212.8910  155.2990 C   0  0  0  0  0  2  0  0  0  0  0  0
  158.5470  213.9840  153.6140 O   0  0  0  0  0  0  0  0  0  0  0  0
  157.1840  214.2760  153.4170 C   0  0  1  0  0  3  0  0  0  0  0  0
  158.6450  213.0960  154.7090 C   0  0  2  0  0  0  0  0  0  0  0  0
  156.8540  214.2160  151.9980 N   0  0  0  0  0  0  0  0  0  0  0  0
  155.4750  214.2970  151.6090 C   0  0  0  0  0  3  0  0  0  0  0  0
  157.4080  213.4130  149.7400 C   0  0  1  0  0  3  0  0  0  0  0  0
  157.9200  214.1230  150.9910 C   0  0  0  0  0  2  0  0  0  0  0  0
  156.1550  214.1250  149.2360 C   0  0  0  0  0  2  0  0  0  0  0  0
  155.1210  214.2300  150.3230 C   0  0  0  0  0  3  0  0  0  0  0  0
  158.3910  213.4380  148.7540 O   0  0  0  0  0  1  0  0  0  0  0  0
  159.5140  213.6990  155.7330 C   0  0  0  0  0  0  0  0  0  0  0  0
  160.1970  214.1730  156.5380 N   0  0  0  0  0  0  0  0  0  0  0  0
  2  1  1  6  0  0  0
  2  5  1  0  0  0  0
  2 28  1  0  0  0  0
  2  3  1  0  0  0  0
  5  4  1  6  0  0  0
  5 11  1  0  0  0  0
  6 11  2  0  0  0  0
  6 12  1  0  0  0  0
  8  7  1  0  0  0  0
  9  8  2  0  0  0  0
 11  9  1  0  0  0  0
 12 13  2  0  0  0  0
 13  8  1  0  0  0  0
 13 10  1  0  0  0  0
 14  6  1  0  0  0  0
 15 12  1  0  0  0  0
 16 20  1  0  0  0  0
 16 15  1  0  0  0  0
 17 18  1  0  0  0  0
 18 20  1  0  0  0  0
 19 16  2  0  0  0  0
 21 22  1  6  0  0  0
 21 17  1  0  0  0  0
 21 19  1  0  0  0  0
 22 23  1  0  0  0  0
 25 24  2  1  0  0  0
 25 23  1  0  0  0  0
 27 26  1  0  0  0  0
 27 25  1  0  0  0  0
 28 29  1  0  0  0  0
 30 29  1  6  0  0  0
 30 36  1  0  0  0  0
 32 30  1  0  0  0  0
 32 33  1  0  0  0  0
 34 31  1  0  0  0  0
 35 33  1  6  0  0  0
 35 41  1  0  0  0  0
 35 31  1  0  0  0  0
 36 34  1  0  0  0  0
 37 38  1  0  0  0  0
 39 41  1  0  0  0  0
 40 42  1  6  0  0  0
 40 39  1  0  0  0  0
 40 37  1  0  0  0  0
 41 38  1  0  0  0  0
 41 49  1  1  0  0  0
 43 42  1  0  0  0  0
 44 48  1  6  0  0  0
 44 45  1  0  0  0  0
 45 42  1  0  0  0  0
 46 44  1  0  0  0  0
 46 47  1  0  0  0  0
 47 43  2  0  0  0  0
 49 50  3  0  0  0  0
M  END
>  <MODEL>
4

>  <REMARK>
 VINA RESULT:      -3.8      3.333      9.725
  Name = 
  14 active torsions:
  status: ('A' for Active; 'I' for Inactive)
    1  A    between atoms: C_2  and  S_11
    2  A    between atoms: N_6  and  C_21
    3  A    between atoms: S_11  and  C_36
    4  A    between atoms: C_14  and  C_28
    5  A    between atoms: C_14  and  C_34
    6  A    between atoms: C_15  and  C_24
    7  A    between atoms: C_15  and  C_28
    8  A    between atoms: C_16  and  C_22
    9  A    between atoms: C_16  and  C_50
   10  A    between atoms: C_22  and  S_23
   11  A    between atoms: S_23  and  C_42
   12  A    between atoms: C_33  and  C_34
   13  A    between atoms: C_38  and  C_47
   14  A    between atoms: C_43  and  C_47
                            x       y       z     vdW  Elec       q    Type
                         _______ _______ _______ _____ _____    ______ ____

>  <TORSDO>
F 14

$$$$
=
 OpenBabel11072412093D

 50 54  0  0  1  0  0  0  0  0999 V2000
  163.2050  212.0120  147.7220 C   0  0  0  0  0  1  0  0  0  0  0  0
  161.8970  211.9450  148.4990 C   0  0  2  0  0  0  0  0  0  0  0  0
  160.8720  211.3930  147.6250 N   0  0  0  0  0  1  0  0  0  0  0  0
  161.7010  214.2890  147.8960 O   0  0  0  0  0  1  0  0  0  0  0  0
  161.4670  213.3640  148.9210 C   0  0  1  0  0  3  0  0  0  0  0  0
  159.7980  213.8350  150.7500 C   0  0  0  0  0  0  0  0  0  0  0  0
  156.5360  213.1110  148.0550 C   0  0  0  0  0  1  0  0  0  0  0  0
  157.6560  213.3670  149.0030 C   0  0  0  0  0  0  0  0  0  0  0  0
  158.9710  213.2420  148.5510 C   0  0  0  0  0  3  0  0  0  0  0  0
  156.0930  213.8720  150.7830 O   0  0  0  0  0  1  0  0  0  0  0  0
  160.0480  213.4760  149.4160 C   0  0  0  0  0  0  0  0  0  0  0  0
  158.4770  213.9720  151.2080 C   0  0  0  0  0  0  0  0  0  0  0  0
  157.4040  213.7360  150.3330 C   0  0  0  0  0  0  0  0  0  0  0  0
  160.8360  214.0620  151.5950 F   0  0  0  0  0  0  0  0  0  0  0  0
  158.1660  214.4530  152.9140 S   0  0  0  0  0  0  0  0  0  0  0  0
  158.4690  212.8000  153.5380 C   0  0  0  0  0  0  0  0  0  0  0  0
  159.5680  210.4050  154.5310 C   0  0  0  0  0  2  0  0  0  0  0  0
  158.8650  210.3250  153.1900 C   0  0  0  0  0  2  0  0  0  0  0  0
  158.5190  212.6100  154.8160 N   0  0  0  0  0  0  0  0  0  0  0  0
  158.8070  211.7080  152.5500 C   0  0  0  0  0  2  0  0  0  0  0  0
  158.7430  211.3170  155.4320 C   0  0  2  0  0  3  0  0  0  0  0  0
  159.4210  211.5020  156.7800 C   0  0  0  0  0  2  0  0  0  0  0  0
  160.8370  212.0290  156.6100 C   0  0  0  0  0  2  0  0  0  0  0  0
  163.0900  210.7830  156.1690 O   0  0  0  0  0  0  0  0  0  0  0  0
  162.0310  210.8480  157.2600 S   0  0  2  0  0  0  0  0  0  0  0  0
  162.0690  208.3150  156.5980 O   0  0  0  0  0  1  0  0  0  0  0  0
  161.1890  209.2640  157.1110 C   0  0  0  0  0  2  0  0  0  0  0  0
  162.0670  211.0420  149.7280 C   0  0  0  0  0  2  0  0  0  0  0  0
  161.8230  209.5670  149.4170 C   0  0  0  0  0  2  0  0  0  0  0  0
  162.3330  208.6830  150.5440 C   0  0  2  0  0  3  0  0  0  0  0  0
  160.8700  206.2690  152.3430 C   0  0  0  0  0  2  0  0  0  0  0  0
  162.7390  207.3170  149.9770 C   0  0  0  0  0  2  0  0  0  0  0  0
  161.5850  206.3240  149.8970 C   0  0  0  0  0  2  0  0  0  0  0  0
  161.6250  207.5400  152.7070 C   0  0  0  0  0  2  0  0  0  0  0  0
  161.5280  205.4990  151.1850 C   0  0  2  0  0  3  0  0  0  0  0  0
  161.3090  208.6250  151.6890 C   0  0  0  0  0  2  0  0  0  0  0  0
  162.2800  202.6970  149.6850 C   0  0  0  0  0  2  0  0  0  0  0  0
  161.9210  203.0290  151.0910 C   0  0  0  0  0  2  0  0  0  0  0  0
  160.3310  204.0690  149.6500 O   0  0  0  0  0  0  0  0  0  0  0  0
  161.0330  203.0840  148.9290 C   0  0  1  0  0  3  0  0  0  0  0  0
  160.8740  204.1180  150.9540 C   0  0  2  0  0  0  0  0  0  0  0  0
  161.3660  203.5740  147.5960 N   0  0  0  0  0  0  0  0  0  0  0  0
  162.4070  204.5530  147.4650 C   0  0  0  0  0  3  0  0  0  0  0  0
  160.6490  204.0760  145.2980 C   0  0  1  0  0  3  0  0  0  0  0  0
  160.6800  203.0350  146.4140 C   0  0  0  0  0  2  0  0  0  0  0  0
  162.0730  204.5480  145.0130 C   0  0  0  0  0  2  0  0  0  0  0  0
  162.7370  205.0440  146.2680 C   0  0  0  0  0  3  0  0  0  0  0  0
  160.1020  203.5110  144.1480 O   0  0  0  0  0  1  0  0  0  0  0  0
  159.7970  203.8670  151.9260 C   0  0  0  0  0  0  0  0  0  0  0  0
  158.9490  203.6690  152.6900 N   0  0  0  0  0  0  0  0  0  0  0  0
  2  1  1  6  0  0  0
  2  5  1  0  0  0  0
  2 28  1  0  0  0  0
  3  2  1  0  0  0  0
  5  4  1  6  0  0  0
  5 11  1  0  0  0  0
  6 12  1  0  0  0  0
  6 14  1  0  0  0  0
  7  8  1  0  0  0  0
  8 13  1  0  0  0  0
  9  8  2  0  0  0  0
  9 11  1  0  0  0  0
 11  6  2  0  0  0  0
 12 15  1  0  0  0  0
 13 10  1  0  0  0  0
 13 12  2  0  0  0  0
 15 16  1  0  0  0  0
 16 19  2  0  0  0  0
 17 21  1  0  0  0  0
 18 17  1  0  0  0  0
 19 21  1  0  0  0  0
 20 18  1  0  0  0  0
 20 16  1  0  0  0  0
 21 22  1  1  0  0  0
 23 22  1  0  0  0  0
 23 25  1  0  0  0  0
 25 24  2  6  0  0  0
 26 27  1  0  0  0  0
 27 25  1  0  0  0  0
 29 28  1  0  0  0  0
 30 29  1  6  0  0  0
 30 36  1  0  0  0  0
 31 34  1  0  0  0  0
 32 30  1  0  0  0  0
 33 32  1  0  0  0  0
 35 33  1  6  0  0  0
 35 31  1  0  0  0  0
 36 34  1  0  0  0  0
 37 38  1  0  0  0  0
 39 41  1  0  0  0  0
 40 42  1  6  0  0  0
 40 39  1  0  0  0  0
 40 37  1  0  0  0  0
 41 38  1  0  0  0  0
 41 35  1  0  0  0  0
 41 49  1  1  0  0  0
 43 42  1  0  0  0  0
 44 48  1  6  0  0  0
 44 45  1  0  0  0  0
 45 42  1  0  0  0  0
 46 44  1  0  0  0  0
 46 47  1  0  0  0  0
 47 43  2  0  0  0  0
 49 50  3  0  0  0  0
M  END
>  <MODEL>
5

>  <REMARK>
 VINA RESULT:      -3.5      2.617      6.306
  Name = 
  14 active torsions:
  status: ('A' for Active; 'I' for Inactive)
    1  A    between atoms: C_2  and  S_11
    2  A    between atoms: N_6  and  C_21
    3  A    between atoms: S_11  and  C_36
    4  A    between atoms: C_14  and  C_28
    5  A    between atoms: C_14  and  C_34
    6  A    between atoms: C_15  and  C_24
    7  A    between atoms: C_15  and  C_28
    8  A    between atoms: C_16  and  C_22
    9  A    between atoms: C_16  and  C_50
   10  A    between atoms: C_22  and  S_23
   11  A    between atoms: S_23  and  C_42
   12  A    between atoms: C_33  and  C_34
   13  A    between atoms: C_38  and  C_47
   14  A    between atoms: C_43  and  C_47
                            x       y       z     vdW  Elec       q    Type
                         _______ _______ _______ _____ _____    ______ ____

>  <TORSDO>
F 14

$$$$
=
 OpenBabel11072412093D

 50 54  0  0  1  0  0  0  0  0999 V2000
  162.3660  208.7310  147.9550 C   0  0  0  0  0  1  0  0  0  0  0  0
  162.0620  207.7380  149.0690 C   0  0  2  0  0  0  0  0  0  0  0  0
  163.1830  206.8170  149.1800 N   0  0  0  0  0  1  0  0  0  0  0  0
  160.4270  207.1280  147.3810 O   0  0  0  0  0  1  0  0  0  0  0  0
  160.7980  206.9300  148.7160 C   0  0  1  0  0  3  0  0  0  0  0  0
  161.4010  204.5690  148.0700 C   0  0  0  0  0  0  0  0  0  0  0  0
  160.0930  203.1150  151.8920 C   0  0  0  0  0  1  0  0  0  0  0  0
  160.5520  203.6030  150.5620 C   0  0  0  0  0  0  0  0  0  0  0  0
  160.4560  204.9650  150.2660 C   0  0  0  0  0  3  0  0  0  0  0  0
  161.1890  201.3590  149.9080 O   0  0  0  0  0  1  0  0  0  0  0  0
  160.8800  205.4570  149.0250 C   0  0  0  0  0  0  0  0  0  0  0  0
  161.5090  203.2010  148.3650 C   0  0  0  0  0  0  0  0  0  0  0  0
  161.0830  202.7160  149.6120 C   0  0  0  0  0  0  0  0  0  0  0  0
  161.8110  205.0390  146.8640 F   0  0  0  0  0  0  0  0  0  0  0  0
  162.1970  202.0730  147.1430 S   0  0  0  0  0  0  0  0  0  0  0  0
  161.2080  202.7560  145.8130 C   0  0  0  0  0  0  0  0  0  0  0  0
  159.5660  204.3230  144.1440 C   0  0  0  0  0  2  0  0  0  0  0  0
  159.0420  202.9500  144.5190 C   0  0  0  0  0  2  0  0  0  0  0  0
  161.7560  203.5840  144.9840 N   0  0  0  0  0  0  0  0  0  0  0  0
  159.7270  202.4610  145.7910 C   0  0  0  0  0  2  0  0  0  0  0  0
  161.0590  204.1870  143.8640 C   0  0  2  0  0  3  0  0  0  0  0  0
  161.6740  205.5390  143.5450 C   0  0  0  0  0  2  0  0  0  0  0  0
  161.2070  206.0440  142.1890 C   0  0  0  0  0  2  0  0  0  0  0  0
  161.7980  208.1450  140.7530 O   0  0  0  0  0  0  0  0  0  0  0  0
  162.5250  206.9590  141.3690 S   0  0  2  0  0  0  0  0  0  0  0  0
  162.0470  206.2190  138.9030 O   0  0  0  0  0  1  0  0  0  0  0  0
  162.9290  205.9380  139.9430 C   0  0  0  0  0  2  0  0  0  0  0  0
  161.8750  208.4860  150.3960 C   0  0  0  0  0  2  0  0  0  0  0  0
  162.2020  207.6230  151.6120 C   0  0  0  0  0  2  0  0  0  0  0  0
  161.0290  207.5800  152.5780 C   0  0  2  0  0  3  0  0  0  0  0  0
  160.7800  208.2770  155.8430 C   0  0  0  0  0  2  0  0  0  0  0  0
  160.4560  208.9920  152.7490 C   0  0  0  0  0  2  0  0  0  0  0  0
  161.1510  209.8040  153.8370 C   0  0  0  0  0  2  0  0  0  0  0  0
  160.4060  207.0690  154.9950 C   0  0  0  0  0  2  0  0  0  0  0  0
  160.4200  209.6110  155.1670 C   0  0  2  0  0  3  0  0  0  0  0  0
  161.4360  206.8890  153.8900 C   0  0  0  0  0  2  0  0  0  0  0  0
  158.5460  211.6750  156.8680 C   0  0  0  0  0  2  0  0  0  0  0  0
  159.6320  210.7350  157.2600 C   0  0  0  0  0  2  0  0  0  0  0  0
  160.3900  212.0150  155.3970 O   0  0  0  0  0  0  0  0  0  0  0  0
  159.2630  212.6440  155.9620 C   0  0  1  0  0  3  0  0  0  0  0  0
  160.6190  210.8180  156.1110 C   0  0  2  0  0  0  0  0  0  0  0  0
  158.3740  213.1260  154.9120 N   0  0  0  0  0  0  0  0  0  0  0  0
  156.9560  213.0250  155.1120 C   0  0  0  0  0  3  0  0  0  0  0  0
  157.9730  213.5480  152.5220 C   0  0  1  0  0  3  0  0  0  0  0  0
  158.9250  213.7470  153.6990 C   0  0  0  0  0  2  0  0  0  0  0  0
  156.5910  214.0750  152.9010 C   0  0  0  0  0  2  0  0  0  0  0  0
  156.1020  213.4380  154.1720 C   0  0  0  0  0  3  0  0  0  0  0  0
  158.4520  214.2420  151.4130 O   0  0  0  0  0  1  0  0  0  0  0  0
  161.9850  210.8480  156.6600 C   0  0  0  0  0  0  0  0  0  0  0  0
  163.0600  210.8700  157.0910 N   0  0  0  0  0  0  0  0  0  0  0  0
  2  1  1  6  0  0  0
  2  3  1  0  0  0  0
  2 28  1  0  0  0  0
  5  4  1  6  0  0  0
  5 11  1  0  0  0  0
  5  2  1  0  0  0  0
  6 12  2  0  0  0  0
  6 11  1  0  0  0  0
  8  7  1  0  0  0  0
  9  8  1  0  0  0  0
 11  9  2  0  0  0  0
 12 13  1  0  0  0  0
 13 10  1  0  0  0  0
 13  8  2  0  0  0  0
 14  6  1  0  0  0  0
 15 12  1  0  0  0  0
 16 15  1  0  0  0  0
 17 18  1  0  0  0  0
 18 20  1  0  0  0  0
 19 16  2  0  0  0  0
 20 16  1  0  0  0  0
 21 22  1  1  0  0  0
 21 17  1  0  0  0  0
 21 19  1  0  0  0  0
 23 22  1  0  0  0  0
 25 24  2  6  0  0  0
 25 23  1  0  0  0  0
 26 27  1  0  0  0  0
 27 25  1  0  0  0  0
 28 29  1  0  0  0  0
 30 29  1  6  0  0  0
 30 32  1  0  0  0  0
 30 36  1  0  0  0  0
 32 33  1  0  0  0  0
 34 31  1  0  0  0  0
 35 33  1  6  0  0  0
 35 31  1  0  0  0  0
 35 41  1  0  0  0  0
 36 34  1  0  0  0  0
 37 38  1  0  0  0  0
 39 40  1  0  0  0  0
 39 41  1  0  0  0  0
 40 42  1  6  0  0  0
 40 37  1  0  0  0  0
 41 49  1  1  0  0  0
 41 38  1  0  0  0  0
 42 43  1  0  0  0  0
 44 48  1  6  0  0  0
 44 46  1  0  0  0  0
 44 45  1  0  0  0  0
 45 42  1  0  0  0  0
 46 47  1  0  0  0  0
 47 43  2  0  0  0  0
 49 50  3  0  0  0  0
M  END
>  <MODEL>
6

>  <REMARK>
 VINA RESULT:      -3.2      3.576      9.961
  Name = 
  14 active torsions:
  status: ('A' for Active; 'I' for Inactive)
    1  A    between atoms: C_2  and  S_11
    2  A    between atoms: N_6  and  C_21
    3  A    between atoms: S_11  and  C_36
    4  A    between atoms: C_14  and  C_28
    5  A    between atoms: C_14  and  C_34
    6  A    between atoms: C_15  and  C_24
    7  A    between atoms: C_15  and  C_28
    8  A    between atoms: C_16  and  C_22
    9  A    between atoms: C_16  and  C_50
   10  A    between atoms: C_22  and  S_23
   11  A    between atoms: S_23  and  C_42
   12  A    between atoms: C_33  and  C_34
   13  A    between atoms: C_38  and  C_47
   14  A    between atoms: C_43  and  C_47
                            x       y       z     vdW  Elec       q    Type
                         _______ _______ _______ _____ _____    ______ ____

>  <TORSDO>
F 14

$$$$
=
 OpenBabel11072412093D

 50 54  0  0  1  0  0  0  0  0999 V2000
  163.3390  212.0320  147.4770 C   0  0  0  0  0  1  0  0  0  0  0  0
  162.0230  211.9160  148.2340 C   0  0  2  0  0  0  0  0  0  0  0  0
  161.0330  211.3280  147.3440 N   0  0  0  0  0  1  0  0  0  0  0  0
  161.8280  214.2680  147.6630 O   0  0  0  0  0  1  0  0  0  0  0  0
  161.5350  213.3180  148.6490 C   0  0  1  0  0  3  0  0  0  0  0  0
  159.7200  213.8040  150.3300 C   0  0  0  0  0  0  0  0  0  0  0  0
  156.6920  212.8260  147.4480 C   0  0  0  0  0  1  0  0  0  0  0  0
  157.7300  213.1700  148.4600 C   0  0  0  0  0  0  0  0  0  0  0  0
  159.0790  213.0790  148.1090 C   0  0  0  0  0  3  0  0  0  0  0  0
  156.0240  213.6910  150.0980 O   0  0  0  0  0  1  0  0  0  0  0  0
  160.0800  213.3950  149.0360 C   0  0  0  0  0  0  0  0  0  0  0  0
  158.3660  213.9070  150.6860 C   0  0  0  0  0  0  0  0  0  0  0  0
  157.3680  213.5890  149.7490 C   0  0  0  0  0  0  0  0  0  0  0  0
  160.6850  214.1100  151.2350 F   0  0  0  0  0  0  0  0  0  0  0  0
  157.9130  214.4520  152.3400 S   0  0  0  0  0  0  0  0  0  0  0  0
  158.3170  212.8690  153.0770 C   0  0  0  0  0  0  0  0  0  0  0  0
  159.2070  210.7530  154.7100 C   0  0  0  0  0  2  0  0  0  0  0  0
  159.8080  210.8390  153.3200 C   0  0  0  0  0  2  0  0  0  0  0  0
  157.5050  212.3530  153.9420 N   0  0  0  0  0  0  0  0  0  0  0  0
  159.6660  212.2570  152.7790 C   0  0  0  0  0  2  0  0  0  0  0  0
  157.7220  211.0740  154.5900 C   0  0  2  0  0  3  0  0  0  0  0  0
  157.0570  211.0740  155.9580 C   0  0  0  0  0  2  0  0  0  0  0  0
  155.6310  211.5920  155.8700 C   0  0  0  0  0  2  0  0  0  0  0  0
  154.7810  214.0550  156.0670 O   0  0  0  0  0  0  0  0  0  0  0  0
  155.4040  213.0010  156.9700 S   0  0  2  0  0  0  0  0  0  0  0  0
  157.4310  214.4530  156.1750 O   0  0  0  0  0  1  0  0  0  0  0  0
  157.0760  213.6140  157.2280 C   0  0  0  0  0  2  0  0  0  0  0  0
  162.2080  211.0200  149.4660 C   0  0  0  0  0  2  0  0  0  0  0  0
  161.8790  209.5560  149.1870 C   0  0  0  0  0  2  0  0  0  0  0  0
  162.3570  208.6650  150.3220 C   0  0  2  0  0  3  0  0  0  0  0  0
  160.8890  206.1570  151.9820 C   0  0  0  0  0  2  0  0  0  0  0  0
  162.8480  207.3290  149.7520 C   0  0  0  0  0  2  0  0  0  0  0  0
  161.7400  206.2950  149.5840 C   0  0  0  0  0  2  0  0  0  0  0  0
  161.5710  207.4470  152.4160 C   0  0  0  0  0  2  0  0  0  0  0  0
  161.6410  205.4390  150.8490 C   0  0  2  0  0  3  0  0  0  0  0  0
  161.2720  208.5430  151.4050 C   0  0  0  0  0  2  0  0  0  0  0  0
  162.4680  202.8020  149.1100 C   0  0  0  0  0  2  0  0  0  0  0  0
  162.1700  203.0110  150.5540 C   0  0  0  0  0  2  0  0  0  0  0  0
  160.4450  204.0490  149.2770 O   0  0  0  0  0  0  0  0  0  0  0  0
  161.1610  203.1630  148.4500 C   0  0  1  0  0  3  0  0  0  0  0  0
  161.0560  204.0410  150.5510 C   0  0  2  0  0  0  0  0  0  0  0  0
  161.3900  203.7650  147.1420 N   0  0  0  0  0  0  0  0  0  0  0  0
  162.4440  204.7280  147.0040 C   0  0  0  0  0  3  0  0  0  0  0  0
  160.4880  204.4900  144.9720 C   0  0  1  0  0  3  0  0  0  0  0  0
  160.5860  203.3510  145.9830 C   0  0  0  0  0  2  0  0  0  0  0  0
  161.8950  204.9540  144.6020 C   0  0  0  0  0  2  0  0  0  0  0  0
  162.6820  205.3190  145.8300 C   0  0  0  0  0  3  0  0  0  0  0  0
  159.8250  204.0450  143.8310 O   0  0  0  0  0  1  0  0  0  0  0  0
  160.0510  203.6560  151.5570 C   0  0  0  0  0  0  0  0  0  0  0  0
  159.2600  203.3540  152.3470 N   0  0  0  0  0  0  0  0  0  0  0  0
  2  1  1  6  0  0  0
  2  5  1  0  0  0  0
  2 28  1  0  0  0  0
  3  2  1  0  0  0  0
  5  4  1  6  0  0  0
  5 11  1  0  0  0  0
  6 12  1  0  0  0  0
  6 14  1  0  0  0  0
  7  8  1  0  0  0  0
  8 13  1  0  0  0  0
  9  8  2  0  0  0  0
  9 11  1  0  0  0  0
 11  6  2  0  0  0  0
 12 15  1  0  0  0  0
 13 10  1  0  0  0  0
 13 12  2  0  0  0  0
 15 16  1  0  0  0  0
 16 19  2  0  0  0  0
 18 17  1  0  0  0  0
 19 21  1  0  0  0  0
 20 16  1  0  0  0  0
 20 18  1  0  0  0  0
 21 17  1  0  0  0  0
 21 22  1  1  0  0  0
 23 22  1  0  0  0  0
 23 25  1  0  0  0  0
 25 24  2  6  0  0  0
 25 27  1  0  0  0  0
 26 27  1  0  0  0  0
 29 28  1  0  0  0  0
 30 29  1  6  0  0  0
 30 36  1  0  0  0  0
 31 34  1  0  0  0  0
 32 30  1  0  0  0  0
 33 32  1  0  0  0  0
 35 33  1  6  0  0  0
 35 31  1  0  0  0  0
 36 34  1  0  0  0  0
 37 38  1  0  0  0  0
 39 41  1  0  0  0  0
 40 42  1  6  0  0  0
 40 37  1  0  0  0  0
 40 39  1  0  0  0  0
 41 38  1  0  0  0  0
 41 35  1  0  0  0  0
 41 49  1  1  0  0  0
 43 42  1  0  0  0  0
 44 48  1  6  0  0  0
 44 45  1  0  0  0  0
 45 42  1  0  0  0  0
 46 44  1  0  0  0  0
 46 47  1  0  0  0  0
 47 43  2  0  0  0  0
 49 50  3  0  0  0  0
M  END
>  <MODEL>
7

>  <REMARK>
 VINA RESULT:      -3.2      2.630      6.316
  Name = 
  14 active torsions:
  status: ('A' for Active; 'I' for Inactive)
    1  A    between atoms: C_2  and  S_11
    2  A    between atoms: N_6  and  C_21
    3  A    between atoms: S_11  and  C_36
    4  A    between atoms: C_14  and  C_28
    5  A    between atoms: C_14  and  C_34
    6  A    between atoms: C_15  and  C_24
    7  A    between atoms: C_15  and  C_28
    8  A    between atoms: C_16  and  C_22
    9  A    between atoms: C_16  and  C_50
   10  A    between atoms: C_22  and  S_23
   11  A    between atoms: S_23  and  C_42
   12  A    between atoms: C_33  and  C_34
   13  A    between atoms: C_38  and  C_47
   14  A    between atoms: C_43  and  C_47
                            x       y       z     vdW  Elec       q    Type
                         _______ _______ _______ _____ _____    ______ ____

>  <TORSDO>
F 14

$$$$
=
 OpenBabel11072412093D

 50 54  0  0  1  0  0  0  0  0999 V2000
  161.9510  204.8040  150.9190 C   0  0  0  0  0  1  0  0  0  0  0  0
  162.0700  206.0730  151.7520 C   0  0  2  0  0  0  0  0  0  0  0  0
  162.9510  205.8020  152.8780 N   0  0  0  0  0  1  0  0  0  0  0  0
  159.8590  205.3480  152.4480 O   0  0  0  0  0  1  0  0  0  0  0  0
  160.6840  206.4700  152.3000 C   0  0  1  0  0  3  0  0  0  0  0  0
  161.0600  208.6320  153.5390 C   0  0  0  0  0  0  0  0  0  0  0  0
  160.0210  206.7610  157.2610 C   0  0  0  0  0  1  0  0  0  0  0  0
  160.3830  207.4260  155.9780 C   0  0  0  0  0  0  0  0  0  0  0  0
  160.3780  206.6780  154.7990 C   0  0  0  0  0  3  0  0  0  0  0  0
  160.7140  209.5380  157.1160 O   0  0  0  0  0  1  0  0  0  0  0  0
  160.7130  207.2720  153.5750 C   0  0  0  0  0  0  0  0  0  0  0  0
  161.0570  209.3920  154.7200 C   0  0  0  0  0  0  0  0  0  0  0  0
  160.7190  208.7880  155.9420 C   0  0  0  0  0  0  0  0  0  0  0  0
  161.3870  209.2150  152.3580 F   0  0  0  0  0  0  0  0  0  0  0  0
  161.4820  211.1400  154.6620 S   0  0  0  0  0  0  0  0  0  0  0  0
  159.8990  211.6020  153.9600 C   0  0  0  0  0  0  0  0  0  0  0  0
  157.5480  212.9090  153.1250 C   0  0  0  0  0  2  0  0  0  0  0  0
  157.3730  211.7150  154.0430 C   0  0  0  0  0  2  0  0  0  0  0  0
  159.8680  212.1630  152.7950 N   0  0  0  0  0  0  0  0  0  0  0  0
  158.6620  211.4590  154.8150 C   0  0  0  0  0  2  0  0  0  0  0  0
  158.6460  212.5650  152.1250 C   0  0  2  0  0  3  0  0  0  0  0  0
  158.9300  213.7430  151.2070 C   0  0  0  0  0  2  0  0  0  0  0  0
  160.0680  213.4270  150.2500 C   0  0  0  0  0  2  0  0  0  0  0  0
  158.1630  213.1860  148.4770 O   0  0  0  0  0  0  0  0  0  0  0  0
  159.5720  213.7560  148.5500 S   0  0  2  0  0  0  0  0  0  0  0  0
  161.8940  212.8860  147.7110 O   0  0  0  0  0  1  0  0  0  0  0  0
  160.5410  212.5840  147.5880 C   0  0  0  0  0  2  0  0  0  0  0  0
  162.6580  207.2040  150.8970 C   0  0  0  0  0  2  0  0  0  0  0  0
  161.8450  207.4730  149.6320 C   0  0  0  0  0  2  0  0  0  0  0  0
  162.7210  207.3750  148.3930 C   0  0  2  0  0  3  0  0  0  0  0  0
  163.1330  204.9540  146.1190 C   0  0  0  0  0  2  0  0  0  0  0  0
  161.8850  207.7050  147.1500 C   0  0  0  0  0  2  0  0  0  0  0  0
  161.1560  206.4980  146.5690 C   0  0  0  0  0  2  0  0  0  0  0  0
  164.0920  205.7430  146.9990 C   0  0  0  0  0  2  0  0  0  0  0  0
  162.0320  205.8340  145.5030 C   0  0  2  0  0  3  0  0  0  0  0  0
  163.4360  206.0150  148.3440 C   0  0  0  0  0  2  0  0  0  0  0  0
  159.3620  203.9540  145.4760 C   0  0  0  0  0  2  0  0  0  0  0  0
  159.7120  205.2260  144.7860 C   0  0  0  0  0  2  0  0  0  0  0  0
  161.5200  203.6980  144.4980 O   0  0  0  0  0  0  0  0  0  0  0  0
  160.3790  202.9890  144.9190 C   0  0  1  0  0  3  0  0  0  0  0  0
  161.1860  205.0710  144.4600 C   0  0  2  0  0  0  0  0  0  0  0  0
  160.7440  201.9890  145.9170 N   0  0  0  0  0  0  0  0  0  0  0  0
  160.8400  200.6170  145.5100 C   0  0  0  0  0  3  0  0  0  0  0  0
  160.7360  201.2590  148.2650 C   0  0  1  0  0  3  0  0  0  0  0  0
  161.0520  202.3940  147.2950 C   0  0  0  0  0  2  0  0  0  0  0  0
  161.4760  199.9990  147.8210 C   0  0  0  0  0  2  0  0  0  0  0  0
  161.1550  199.6630  146.3900 C   0  0  0  0  0  3  0  0  0  0  0  0
  161.1440  201.6140  149.5480 O   0  0  0  0  0  1  0  0  0  0  0  0
  161.4280  205.5800  143.1000 C   0  0  0  0  0  0  0  0  0  0  0  0
  161.6170  205.9800  142.0300 N   0  0  0  0  0  0  0  0  0  0  0  0
  2  1  1  6  0  0  0
  2  5  1  0  0  0  0
  2  3  1  0  0  0  0
  5  4  1  1  0  0  0
  5 11  1  0  0  0  0
  6 11  2  0  0  0  0
  6 12  1  0  0  0  0
  8  7  1  0  0  0  0
  9  8  2  0  0  0  0
 11  9  1  0  0  0  0
 12 13  2  0  0  0  0
 13  8  1  0  0  0  0
 13 10  1  0  0  0  0
 14  6  1  0  0  0  0
 15 12  1  0  0  0  0
 16 15  1  0  0  0  0
 16 20  1  0  0  0  0
 17 18  1  0  0  0  0
 18 20  1  0  0  0  0
 19 16  2  0  0  0  0
 21 22  1  1  0  0  0
 21 19  1  0  0  0  0
 21 17  1  0  0  0  0
 23 22  1  0  0  0  0
 25 24  2  1  0  0  0
 25 23  1  0  0  0  0
 27 26  1  0  0  0  0
 27 25  1  0  0  0  0
 28  2  1  0  0  0  0
 29 28  1  0  0  0  0
 30 29  1  1  0  0  0
 31 34  1  0  0  0  0
 32 30  1  0  0  0  0
 33 32  1  0  0  0  0
 34 36  1  0  0  0  0
 35 31  1  1  0  0  0
 35 33  1  0  0  0  0
 36 30  1  0  0  0  0
 38 37  1  0  0  0  0
 39 40  1  0  0  0  0
 40 37  1  1  0  0  0
 40 42  1  0  0  0  0
 41 49  1  6  0  0  0
 41 39  1  0  0  0  0
 41 38  1  0  0  0  0
 41 35  1  0  0  0  0
 42 45  1  0  0  0  0
 43 42  1  0  0  0  0
 43 47  2  0  0  0  0
 44 48  1  1  0  0  0
 45 44  1  0  0  0  0
 46 44  1  0  0  0  0
 47 46  1  0  0  0  0
 50 49  3  0  0  0  0
M  END
>  <MODEL>
8

>  <REMARK>
 VINA RESULT:      -2.7      2.410      4.589
  Name = 
  14 active torsions:
  status: ('A' for Active; 'I' for Inactive)
    1  A    between atoms: C_2  and  S_11
    2  A    between atoms: N_6  and  C_21
    3  A    between atoms: S_11  and  C_36
    4  A    between atoms: C_14  and  C_28
    5  A    between atoms: C_14  and  C_34
    6  A    between atoms: C_15  and  C_24
    7  A    between atoms: C_15  and  C_28
    8  A    between atoms: C_16  and  C_22
    9  A    between atoms: C_16  and  C_50
   10  A    between atoms: C_22  and  S_23
   11  A    between atoms: S_23  and  C_42
   12  A    between atoms: C_33  and  C_34
   13  A    between atoms: C_38  and  C_47
   14  A    between atoms: C_43  and  C_47
                            x       y       z     vdW  Elec       q    Type
                         _______ _______ _______ _____ _____    ______ ____

>  <TORSDO>
F 14

$$$$
=
 OpenBabel11072412093D

 50 54  0  0  1  0  0  0  0  0999 V2000
  162.9940  207.9400  150.9650 C   0  0  0  0  0  1  0  0  0  0  0  0
  161.5630  208.0310  150.4510 C   0  0  2  0  0  0  0  0  0  0  0  0
  161.6050  208.2880  149.0190 N   0  0  0  0  0  1  0  0  0  0  0  0
  161.1380  209.2570  152.5040 O   0  0  0  0  0  1  0  0  0  0  0  0
  160.8360  209.2040  151.1370 C   0  0  1  0  0  3  0  0  0  0  0  0
  160.5680  211.7100  151.1180 C   0  0  0  0  0  0  0  0  0  0  0  0
  162.7620  211.9850  147.4380 C   0  0  0  0  0  1  0  0  0  0  0  0
  162.0000  211.9080  148.7150 C   0  0  0  0  0  0  0  0  0  0  0  0
  161.7720  210.6590  149.2970 C   0  0  0  0  0  3  0  0  0  0  0  0
  161.7520  214.3170  148.7660 O   0  0  0  0  0  1  0  0  0  0  0  0
  161.0600  210.5500  150.4980 C   0  0  0  0  0  0  0  0  0  0  0  0
  160.8010  212.9700  150.5430 C   0  0  0  0  0  0  0  0  0  0  0  0
  161.5180  213.0690  149.3390 C   0  0  0  0  0  0  0  0  0  0  0  0
  159.8750  211.6130  152.2810 F   0  0  0  0  0  0  0  0  0  0  0  0
  160.1850  214.4530  151.3540 S   0  0  0  0  0  0  0  0  0  0  0  0
  158.5350  214.2520  150.6840 C   0  0  0  0  0  0  0  0  0  0  0  0
  156.0070  213.3250  149.8560 C   0  0  0  0  0  2  0  0  0  0  0  0
  156.9500  213.7950  148.7650 C   0  0  0  0  0  2  0  0  0  0  0  0
  157.5160  214.4160  151.4630 N   0  0  0  0  0  0  0  0  0  0  0  0
  158.3890  213.7500  149.2660 C   0  0  0  0  0  2  0  0  0  0  0  0
  156.1380  214.2930  151.0270 C   0  0  2  0  0  3  0  0  0  0  0  0
  155.2690  213.8500  152.1930 C   0  0  0  0  0  2  0  0  0  0  0  0
  155.9050  214.2290  153.5210 C   0  0  0  0  0  2  0  0  0  0  0  0
  154.9200  213.2730  155.7440 O   0  0  0  0  0  0  0  0  0  0  0  0
  155.8830  212.8280  154.6530 S   0  0  2  0  0  0  0  0  0  0  0  0
  158.2480  211.7990  155.1000 O   0  0  0  0  0  1  0  0  0  0  0  0
  157.4880  212.9080  155.4620 C   0  0  0  0  0  2  0  0  0  0  0  0
  160.8300  206.7090  150.7170 C   0  0  0  0  0  2  0  0  0  0  0  0
  161.1270  206.1360  152.1010 C   0  0  0  0  0  2  0  0  0  0  0  0
  161.7250  204.7420  151.9950 C   0  0  2  0  0  3  0  0  0  0  0  0
  160.3840  201.7770  151.2120 C   0  0  0  0  0  2  0  0  0  0  0  0
  162.0260  204.4260  150.5250 C   0  0  0  0  0  2  0  0  0  0  0  0
  160.8390  203.8310  149.7750 C   0  0  0  0  0  2  0  0  0  0  0  0
  161.2120  202.2780  152.3870 C   0  0  0  0  0  2  0  0  0  0  0  0
  160.8920  202.3040  149.8590 C   0  0  2  0  0  3  0  0  0  0  0  0
  160.8250  203.7150  152.7020 C   0  0  0  0  0  2  0  0  0  0  0  0
  161.6700  201.2330  146.8740 C   0  0  0  0  0  2  0  0  0  0  0  0
  161.0680  200.5700  148.0630 C   0  0  0  0  0  2  0  0  0  0  0  0
  159.9010  202.6130  147.6780 O   0  0  0  0  0  0  0  0  0  0  0  0
  160.6400  202.2790  146.5270 C   0  0  1  0  0  3  0  0  0  0  0  0
  160.1740  201.6380  148.6640 C   0  0  2  0  0  0  0  0  0  0  0  0
  161.2760  203.4690  145.9720 N   0  0  0  0  0  0  0  0  0  0  0  0
  162.2030  204.1970  146.7910 C   0  0  0  0  0  3  0  0  0  0  0  0
  161.1750  205.3870  144.4370 C   0  0  1  0  0  3  0  0  0  0  0  0
  161.0050  203.8780  144.5870 C   0  0  0  0  0  2  0  0  0  0  0  0
  162.5640  205.7870  144.9290 C   0  0  0  0  0  2  0  0  0  0  0  0
  162.7980  205.3010  146.3330 C   0  0  0  0  0  3  0  0  0  0  0  0
  161.0320  205.7420  143.0980 O   0  0  0  0  0  1  0  0  0  0  0  0
  158.9060  201.0160  149.0810 C   0  0  0  0  0  0  0  0  0  0  0  0
  157.9080  200.5270  149.4080 N   0  0  0  0  0  0  0  0  0  0  0  0
  2 28  1  0  0  0  0
  2  1  1  1  0  0  0
  2  5  1  0  0  0  0
  3  2  1  0  0  0  0
  5  4  1  1  0  0  0
  6 14  1  0  0  0  0
  7  8  1  0  0  0  0
  8  9  2  0  0  0  0
  8 13  1  0  0  0  0
  9 11  1  0  0  0  0
 10 13  1  0  0  0  0
 11  6  2  0  0  0  0
 11  5  1  0  0  0  0
 12  6  1  0  0  0  0
 12 15  1  0  0  0  0
 13 12  2  0  0  0  0
 16 15  1  0  0  0  0
 16 19  2  0  0  0  0
 17 21  1  0  0  0  0
 18 20  1  0  0  0  0
 18 17  1  0  0  0  0
 20 16  1  0  0  0  0
 21 19  1  0  0  0  0
 21 22  1  1  0  0  0
 22 23  1  0  0  0  0
 23 25  1  0  0  0  0
 25 27  1  0  0  0  0
 25 24  2  1  0  0  0
 26 27  1  0  0  0  0
 28 29  1  0  0  0  0
 30 29  1  6  0  0  0
 30 36  1  0  0  0  0
 31 34  1  0  0  0  0
 32 30  1  0  0  0  0
 33 32  1  0  0  0  0
 34 36  1  0  0  0  0
 35 33  1  1  0  0  0
 35 31  1  0  0  0  0
 37 38  1  0  0  0  0
 38 41  1  0  0  0  0
 39 41  1  0  0  0  0
 40 42  1  1  0  0  0
 40 37  1  0  0  0  0
 40 39  1  0  0  0  0
 41 49  1  1  0  0  0
 41 35  1  0  0  0  0
 42 43  1  0  0  0  0
 44 48  1  6  0  0  0
 44 45  1  0  0  0  0
 44 46  1  0  0  0  0
 45 42  1  0  0  0  0
 46 47  1  0  0  0  0
 47 43  2  0  0  0  0
 49 50  3  0  0  0  0
M  END
>  <MODEL>
9

>  <REMARK>
 VINA RESULT:      -2.7      2.729      5.815
  Name = 
  14 active torsions:
  status: ('A' for Active; 'I' for Inactive)
    1  A    between atoms: C_2  and  S_11
    2  A    between atoms: N_6  and  C_21
    3  A    between atoms: S_11  and  C_36
    4  A    between atoms: C_14  and  C_28
    5  A    between atoms: C_14  and  C_34
    6  A    between atoms: C_15  and  C_24
    7  A    between atoms: C_15  and  C_28
    8  A    between atoms: C_16  and  C_22
    9  A    between atoms: C_16  and  C_50
   10  A    between atoms: C_22  and  S_23
   11  A    between atoms: S_23  and  C_42
   12  A    between atoms: C_33  and  C_34
   13  A    between atoms: C_38  and  C_47
   14  A    between atoms: C_43  and  C_47
                            x       y       z     vdW  Elec       q    Type
                         _______ _______ _______ _____ _____    ______ ____

>  <TORSDO>
F 14

$$$$
