=
 OpenBabel11072412273D

 33 38  0  0  1  0  0  0  0  0999 V2000
  160.7320  207.5510  153.4740 N   0  0  0  0  0  0  0  0  0  0  0  0
  161.2940  208.1190  152.3370 C   0  0  1  0  0  3  0  0  0  0  0  0
  161.7500  205.9400  151.5480 C   0  0  0  0  0  0  0  0  0  0  0  0
  161.1930  205.4080  152.7120 C   0  0  1  0  0  0  0  0  0  0  0  0
  161.8280  207.2950  151.3040 C   0  0  0  0  0  3  0  0  0  0  0  0
  162.0050  204.5890  151.1340 C   0  0  2  0  0  0  0  0  0  0  0  0
  160.6680  206.2010  153.7060 C   0  0  0  0  0  3  0  0  0  0  0  0
  161.4390  204.0260  152.3070 N   0  0  0  0  0  2  0  0  0  0  0  0
  158.4980  212.8370  153.1940 C   0  0  2  0  0  3  0  0  0  0  0  0
  160.6160  211.7060  152.9820 N   0  0  0  0  0  0  0  0  0  0  0  0
  159.7790  209.9450  154.1650 N   0  0  0  0  0  2  0  0  0  0  0  0
  159.7200  212.3090  153.9590 C   0  0  2  0  0  3  0  0  0  0  0  0
  156.9080  211.5430  154.5630 C   0  0  0  0  0  2  0  0  0  0  0  0
  159.4020  211.1300  154.9080 C   0  0  1  0  0  3  0  0  0  0  0  0
  160.5970  210.4210  153.1050 C   0  0  0  0  0  0  0  0  0  0  0  0
  157.9930  211.0330  155.5050 C   0  0  1  0  0  3  0  0  0  0  0  0
  158.8630  214.4280  152.4900 Cl  0  0  0  0  0  0  0  0  0  0  0  0
  161.2970  209.5500  152.1960 N   0  0  0  0  0  0  0  0  0  0  0  0
  157.9410  211.7790  156.8260 C   0  0  0  0  0  1  0  0  0  0  0  0
  157.2550  212.9330  154.0580 C   0  0  0  0  0  2  0  0  0  0  0  0
  161.9420  210.1310  151.0230 C   0  0  0  0  0  1  0  0  0  0  0  0
  161.7610  204.2560  147.5280 C   0  0  1  0  0  0  0  0  0  0  0  0
  160.5470  205.4410  149.2690 C   0  0  0  0  0  2  0  0  0  0  0  0
  161.2010  205.6140  147.9130 C   0  0  0  0  0  2  0  0  0  0  0  0
  161.1690  204.2100  149.9060 C   0  0  1  0  0  3  0  0  0  0  0  0
  163.0590  204.4500  146.7590 C   0  0  0  0  0  1  0  0  0  0  0  0
  162.0610  203.5740  148.8520 C   0  0  0  0  0  2  0  0  0  0  0  0
  160.7290  203.4380  146.7130 C   0  0  2  0  0  3  0  0  0  0  0  0
  160.5600  202.0270  147.2590 C   0  0  0  0  0  1  0  0  0  0  0  0
  161.0720  203.3470  145.2280 C   0  0  0  0  0  2  0  0  0  0  0  0
  160.1950  204.1340  144.4790 O   0  0  0  0  0  0  0  0  0  0  0  0
  160.4930  206.3700  144.7910 O   0  0  0  0  0  1  0  0  0  0  0  0
  160.9540  205.2430  144.1100 C   0  0  0  0  0  2  0  0  0  0  0  0
  1  7  2  0  0  0  0
  2 18  1  6  0  0  0
  2  1  1  0  0  0  0
  3  4  1  0  0  0  0
  4  7  1  1  0  0  0
  5  3  2  0  0  0  0
  5  2  1  0  0  0  0
  6  3  1  6  0  0  0
  6  8  1  0  0  0  0
  6  4  1  0  0  0  0
  8  4  1  0  0  0  0
  9 17  1  1  0  0  0
  9 12  1  0  0  0  0
  9 20  1  0  0  0  0
 10 15  2  0  0  0  0
 12 10  1  6  0  0  0
 12 14  1  0  0  0  0
 13 16  1  0  0  0  0
 14 11  1  6  0  0  0
 14 16  1  0  0  0  0
 15 11  1  0  0  0  0
 16 19  1  1  0  0  0
 18 15  1  0  0  0  0
 20 13  1  0  0  0  0
 21 18  1  0  0  0  0
 22 26  1  6  0  0  0
 22 24  1  0  0  0  0
 22 27  1  0  0  0  0
 23 25  1  0  0  0  0
 24 23  1  0  0  0  0
 25 27  1  6  0  0  0
 25  6  1  0  0  0  0
 28 29  1  1  0  0  0
 28 22  1  0  0  0  0
 30 28  1  0  0  0  0
 31 30  1  0  0  0  0
 33 31  1  0  0  0  0
 33 32  1  0  0  0  0
M  END
>  <MODEL>
1

>  <REMARK>
 VINA RESULT:      -7.7      0.000      0.000
  Name = 
  6 active torsions:
  status: ('A' for Active; 'I' for Inactive)
    1  A    between atoms: C_1  and  C_4
    2  A    between atoms: C_4  and  C_25
    3  A    between atoms: C_6  and  N_28
    4  A    between atoms: C_7  and  C_27
    5  A    between atoms: C_16  and  O_18
    6  A    between atoms: O_18  and  C_25
                            x       y       z     vdW  Elec       q    Type
                         _______ _______ _______ _____ _____    ______ ____

>  <TORSDO>
F 6

$$$$
=
 OpenBabel11072412273D

 33 38  0  0  1  0  0  0  0  0999 V2000
  161.7610  207.6440  149.8680 N   0  0  0  0  0  0  0  0  0  0  0  0
  161.5150  206.6120  150.7650 C   0  0  1  0  0  3  0  0  0  0  0  0
  161.4540  208.2150  152.4980 C   0  0  0  0  0  0  0  0  0  0  0  0
  161.7210  209.2220  151.5680 C   0  0  1  0  0  0  0  0  0  0  0  0
  161.3380  206.8860  152.1520 C   0  0  0  0  0  3  0  0  0  0  0  0
  161.4400  209.2410  153.5040 C   0  0  2  0  0  0  0  0  0  0  0  0
  161.8800  208.9620  150.2270 C   0  0  0  0  0  3  0  0  0  0  0  0
  161.7060  210.2810  152.5750 N   0  0  0  0  0  2  0  0  0  0  0  0
  160.4970  203.3920  146.3590 C   0  0  2  0  0  3  0  0  0  0  0  0
  161.6090  203.6980  148.4760 N   0  0  0  0  0  0  0  0  0  0  0  0
  162.0540  205.8640  147.9160 N   0  0  0  0  0  2  0  0  0  0  0  0
  161.8460  203.6670  147.0390 C   0  0  2  0  0  3  0  0  0  0  0  0
  160.6340  205.4160  144.9590 C   0  0  0  0  0  2  0  0  0  0  0  0
  162.4140  205.0760  146.7540 C   0  0  1  0  0  3  0  0  0  0  0  0
  161.6990  204.9110  148.9090 C   0  0  0  0  0  0  0  0  0  0  0  0
  162.0420  205.7610  145.4340 C   0  0  1  0  0  3  0  0  0  0  0  0
  160.1520  201.6480  146.3780 Cl  0  0  0  0  0  0  0  0  0  0  0  0
  161.3990  205.2660  150.2720 N   0  0  0  0  0  0  0  0  0  0  0  0
  163.0620  205.4100  144.3660 C   0  0  0  0  0  1  0  0  0  0  0  0
  160.4370  203.9100  144.9350 C   0  0  0  0  0  2  0  0  0  0  0  0
  160.8510  204.2460  151.1590 C   0  0  0  0  0  1  0  0  0  0  0  0
  159.1940  211.1360  155.6340 C   0  0  1  0  0  0  0  0  0  0  0  0
  159.9830  208.8410  155.5160 C   0  0  0  0  0  2  0  0  0  0  0  0
  159.7850  210.0080  156.4610 C   0  0  0  0  0  2  0  0  0  0  0  0
  160.0430  209.4150  154.1100 C   0  0  1  0  0  3  0  0  0  0  0  0
  159.7340  212.4650  156.1440 C   0  0  0  0  0  1  0  0  0  0  0  0
  159.7120  210.8940  154.2270 C   0  0  0  0  0  2  0  0  0  0  0  0
  157.6470  211.0980  155.6630 C   0  0  2  0  0  3  0  0  0  0  0  0
  157.0410  211.5390  154.3370 C   0  0  0  0  0  1  0  0  0  0  0  0
  157.0450  211.9490  156.7790 C   0  0  0  0  0  2  0  0  0  0  0  0
  155.6810  211.6830  156.9080 O   0  0  0  0  0  0  0  0  0  0  0  0
  155.0770  213.7400  156.1400 O   0  0  0  0  0  1  0  0  0  0  0  0
  155.1220  212.9110  157.2610 C   0  0  0  0  0  2  0  0  0  0  0  0
  1  7  2  0  0  0  0
  1  2  1  0  0  0  0
  2 18  1  6  0  0  0
  2  5  1  0  0  0  0
  4  7  1  1  0  0  0
  4  3  1  0  0  0  0
  4  8  1  0  0  0  0
  4  6  1  0  0  0  0
  5  3  2  0  0  0  0
  6  3  1  1  0  0  0
  6 25  1  0  0  0  0
  8  6  1  0  0  0  0
  9 17  1  6  0  0  0
  9 12  1  0  0  0  0
 10 15  2  0  0  0  0
 11 15  1  0  0  0  0
 12 10  1  1  0  0  0
 13 16  1  0  0  0  0
 14 12  1  0  0  0  0
 14 11  1  1  0  0  0
 15 18  1  0  0  0  0
 16 19  1  6  0  0  0
 16 14  1  0  0  0  0
 18 21  1  0  0  0  0
 20 13  1  0  0  0  0
 20  9  1  0  0  0  0
 22 28  1  0  0  0  0
 22 26  1  1  0  0  0
 22 24  1  0  0  0  0
 23 24  1  0  0  0  0
 25 27  1  1  0  0  0
 25 23  1  0  0  0  0
 27 22  1  0  0  0  0
 28 29  1  6  0  0  0
 28 30  1  0  0  0  0
 30 31  1  0  0  0  0
 31 33  1  0  0  0  0
 32 33  1  0  0  0  0
M  END
>  <MODEL>
2

>  <REMARK>
 VINA RESULT:      -6.5      4.656     10.223
  Name = 
  6 active torsions:
  status: ('A' for Active; 'I' for Inactive)
    1  A    between atoms: C_1  and  C_4
    2  A    between atoms: C_4  and  C_25
    3  A    between atoms: C_6  and  N_28
    4  A    between atoms: C_7  and  C_27
    5  A    between atoms: C_16  and  O_18
    6  A    between atoms: O_18  and  C_25
                            x       y       z     vdW  Elec       q    Type
                         _______ _______ _______ _____ _____    ______ ____

>  <TORSDO>
F 6

$$$$
=
 OpenBabel11072412273D

 33 38  0  0  1  0  0  0  0  0999 V2000
  162.3790  207.5480  150.2330 N   0  0  0  0  0  0  0  0  0  0  0  0
  161.3650  206.6550  150.5550 C   0  0  1  0  0  3  0  0  0  0  0  0
  160.9930  206.3370  148.2450 C   0  0  0  0  0  0  0  0  0  0  0  0
  162.0070  207.2540  147.9610 C   0  0  1  0  0  0  0  0  0  0  0  0
  160.6270  205.9960  149.5300 C   0  0  0  0  0  3  0  0  0  0  0  0
  160.8140  206.1990  146.8260 C   0  0  2  0  0  0  0  0  0  0  0  0
  162.7280  207.8830  148.9490 C   0  0  0  0  0  3  0  0  0  0  0  0
  161.8440  207.1240  146.5150 N   0  0  0  0  0  2  0  0  0  0  0  0
  161.6820  208.4970  155.7820 C   0  0  2  0  0  3  0  0  0  0  0  0
  160.5520  207.1430  154.1380 N   0  0  0  0  0  0  0  0  0  0  0  0
  160.8540  208.7910  152.5910 N   0  0  0  0  0  2  0  0  0  0  0  0
  160.4360  208.3840  154.8920 C   0  0  2  0  0  3  0  0  0  0  0  0
  162.2990  210.7040  154.8730 C   0  0  0  0  0  2  0  0  0  0  0  0
  160.3610  209.4560  153.7810 C   0  0  1  0  0  3  0  0  0  0  0  0
  160.8100  207.4050  152.9010 C   0  0  0  0  0  0  0  0  0  0  0  0
  161.0360  210.8110  154.0260 C   0  0  1  0  0  3  0  0  0  0  0  0
  161.4620  207.5350  157.2600 Cl  0  0  0  0  0  0  0  0  0  0  0  0
  161.0940  206.3720  151.9390 N   0  0  0  0  0  0  0  0  0  0  0  0
  160.0480  211.7690  154.6650 C   0  0  0  0  0  1  0  0  0  0  0  0
  162.0170  209.9300  156.1490 C   0  0  0  0  0  2  0  0  0  0  0  0
  161.2220  204.9940  152.4030 C   0  0  0  0  0  1  0  0  0  0  0  0
  160.9980  202.6340  147.4870 C   0  0  1  0  0  0  0  0  0  0  0  0
  162.5630  204.3910  146.8770 C   0  0  0  0  0  2  0  0  0  0  0  0
  162.3390  203.2480  147.8460 C   0  0  0  0  0  2  0  0  0  0  0  0
  161.1980  204.7940  146.3460 C   0  0  1  0  0  3  0  0  0  0  0  0
  160.3070  202.1640  148.7590 C   0  0  0  0  0  1  0  0  0  0  0  0
  160.2020  203.7770  146.8790 C   0  0  0  0  0  2  0  0  0  0  0  0
  161.1670  201.4820  146.4670 C   0  0  2  0  0  3  0  0  0  0  0  0
  160.1240  201.5440  145.3590 C   0  0  0  0  0  1  0  0  0  0  0  0
  161.1130  200.0980  147.1090 C   0  0  0  0  0  2  0  0  0  0  0  0
  161.9550  199.2170  146.4300 O   0  0  0  0  0  0  0  0  0  0  0  0
  161.8480  197.9580  144.5350 O   0  0  0  0  0  1  0  0  0  0  0  0
  161.1050  198.5140  145.5770 C   0  0  0  0  0  2  0  0  0  0  0  0
  1  2  1  0  0  0  0
  2 18  1  1  0  0  0
  3  5  2  0  0  0  0
  4  3  1  0  0  0  0
  4  7  1  1  0  0  0
  5  2  1  0  0  0  0
  6  8  1  6  0  0  0
  6  4  1  0  0  0  0
  6  3  1  0  0  0  0
  7  1  2  0  0  0  0
  8  4  1  0  0  0  0
  9 20  1  0  0  0  0
  9 17  1  1  0  0  0
 11 15  1  0  0  0  0
 12 10  1  6  0  0  0
 12  9  1  0  0  0  0
 13 20  1  0  0  0  0
 14 11  1  6  0  0  0
 14 16  1  0  0  0  0
 14 12  1  0  0  0  0
 15 10  2  0  0  0  0
 16 19  1  1  0  0  0
 16 13  1  0  0  0  0
 18 21  1  0  0  0  0
 18 15  1  0  0  0  0
 22 24  1  0  0  0  0
 22 26  1  1  0  0  0
 23 24  1  0  0  0  0
 25  6  1  0  0  0  0
 25 23  1  1  0  0  0
 25 27  1  0  0  0  0
 27 22  1  0  0  0  0
 28 29  1  6  0  0  0
 28 30  1  0  0  0  0
 28 22  1  0  0  0  0
 31 30  1  0  0  0  0
 32 33  1  0  0  0  0
 33 31  1  0  0  0  0
M  END
>  <MODEL>
3

>  <REMARK>
 VINA RESULT:      -5.7      2.940      4.561
  Name = 
  6 active torsions:
  status: ('A' for Active; 'I' for Inactive)
    1  A    between atoms: C_1  and  C_4
    2  A    between atoms: C_4  and  C_25
    3  A    between atoms: C_6  and  N_28
    4  A    between atoms: C_7  and  C_27
    5  A    between atoms: C_16  and  O_18
    6  A    between atoms: O_18  and  C_25
                            x       y       z     vdW  Elec       q    Type
                         _______ _______ _______ _____ _____    ______ ____

>  <TORSDO>
F 6

$$$$
=
 OpenBabel11072412273D

 33 38  0  0  1  0  0  0  0  0999 V2000
  161.4740  214.1820  144.9370 N   0  0  0  0  0  0  0  0  0  0  0  0
  160.2280  213.5720  145.0010 C   0  0  1  0  0  3  0  0  0  0  0  0
  160.5980  213.1920  147.3020 C   0  0  0  0  0  0  0  0  0  0  0  0
  161.8520  213.7960  147.1930 C   0  0  1  0  0  0  0  0  0  0  0  0
  159.7370  213.0530  146.2340 C   0  0  0  0  0  3  0  0  0  0  0  0
  160.8930  212.9850  148.6930 C   0  0  2  0  0  0  0  0  0  0  0  0
  162.3230  214.3070  146.0070 C   0  0  0  0  0  3  0  0  0  0  0  0
  162.1690  213.5990  148.6060 N   0  0  0  0  0  2  0  0  0  0  0  0
  160.1760  212.9050  139.4900 C   0  0  2  0  0  3  0  0  0  0  0  0
  159.0500  212.6570  141.6080 N   0  0  0  0  0  0  0  0  0  0  0  0
  161.0190  212.0190  142.5650 N   0  0  0  0  0  2  0  0  0  0  0  0
  159.7400  211.9040  140.5690 C   0  0  2  0  0  3  0  0  0  0  0  0
  162.5450  212.2420  139.6370 C   0  0  0  0  0  2  0  0  0  0  0  0
  160.9170  211.2590  141.3360 C   0  0  1  0  0  3  0  0  0  0  0  0
  159.7890  212.7240  142.6630 C   0  0  0  0  0  0  0  0  0  0  0  0
  162.2630  211.1090  140.6170 C   0  0  1  0  0  3  0  0  0  0  0  0
  158.8180  213.2470  138.3940 Cl  0  0  0  0  0  0  0  0  0  0  0  0
  159.4170  213.5070  143.8140 N   0  0  0  0  0  0  0  0  0  0  0  0
  162.3220  209.7680  139.9080 C   0  0  0  0  0  1  0  0  0  0  0  0
  161.3720  212.4280  138.6900 C   0  0  0  0  0  2  0  0  0  0  0  0
  158.2320  214.3540  143.7350 C   0  0  0  0  0  1  0  0  0  0  0  0
  158.5960  213.1100  151.5000 C   0  0  1  0  0  0  0  0  0  0  0  0
  158.5200  213.6910  149.1410 C   0  0  0  0  0  2  0  0  0  0  0  0
  157.7780  212.9450  150.2320 C   0  0  0  0  0  2  0  0  0  0  0  0
  159.9660  213.8110  149.5920 C   0  0  1  0  0  3  0  0  0  0  0  0
  158.4970  211.8370  152.3280 C   0  0  0  0  0  1  0  0  0  0  0  0
  160.0250  213.2820  151.0160 C   0  0  0  0  0  2  0  0  0  0  0  0
  158.1370  214.3520  152.3030 C   0  0  2  0  0  3  0  0  0  0  0  0
  158.7510  214.3910  153.6960 C   0  0  0  0  0  1  0  0  0  0  0  0
  156.6190  214.4530  152.4380 C   0  0  0  0  0  2  0  0  0  0  0  0
  156.2020  213.8960  153.6470 O   0  0  0  0  0  0  0  0  0  0  0  0
  154.3240  214.4380  152.4780 O   0  0  0  0  0  1  0  0  0  0  0  0
  154.8620  214.2650  153.7540 C   0  0  0  0  0  2  0  0  0  0  0  0
  1  2  1  0  0  0  0
  1  7  2  0  0  0  0
  2 18  1  1  0  0  0
  2  5  1  0  0  0  0
  4  7  1  6  0  0  0
  4  3  1  0  0  0  0
  4  8  1  0  0  0  0
  4  6  1  0  0  0  0
  5  3  2  0  0  0  0
  6  3  1  1  0  0  0
  6 25  1  0  0  0  0
  8  6  1  0  0  0  0
  9 17  1  6  0  0  0
  9 12  1  0  0  0  0
 10 15  2  0  0  0  0
 11 15  1  0  0  0  0
 12 14  1  0  0  0  0
 12 10  1  1  0  0  0
 13 16  1  0  0  0  0
 14 11  1  1  0  0  0
 15 18  1  0  0  0  0
 16 19  1  6  0  0  0
 16 14  1  0  0  0  0
 20  9  1  0  0  0  0
 20 13  1  0  0  0  0
 21 18  1  0  0  0  0
 22 28  1  0  0  0  0
 22 26  1  1  0  0  0
 23 24  1  0  0  0  0
 24 22  1  0  0  0  0
 25 23  1  6  0  0  0
 25 27  1  0  0  0  0
 27 22  1  0  0  0  0
 28 30  1  0  0  0  0
 28 29  1  1  0  0  0
 30 31  1  0  0  0  0
 31 33  1  0  0  0  0
 32 33  1  0  0  0  0
M  END
>  <MODEL>
4

>  <REMARK>
 VINA RESULT:      -5.5      7.574     12.055
  Name = 
  6 active torsions:
  status: ('A' for Active; 'I' for Inactive)
    1  A    between atoms: C_1  and  C_4
    2  A    between atoms: C_4  and  C_25
    3  A    between atoms: C_6  and  N_28
    4  A    between atoms: C_7  and  C_27
    5  A    between atoms: C_16  and  O_18
    6  A    between atoms: O_18  and  C_25
                            x       y       z     vdW  Elec       q    Type
                         _______ _______ _______ _____ _____    ______ ____

>  <TORSDO>
F 6

$$$$
=
 OpenBabel11072412273D

 33 38  0  0  1  0  0  0  0  0999 V2000
  161.9900  209.2990  151.5920 N   0  0  0  0  0  0  0  0  0  0  0  0
  161.0970  208.6190  152.4090 C   0  0  1  0  0  3  0  0  0  0  0  0
  160.8620  207.0020  150.7040 C   0  0  0  0  0  0  0  0  0  0  0  0
  161.7500  207.7240  149.9060 C   0  0  1  0  0  0  0  0  0  0  0  0
  160.4970  207.4020  151.9720 C   0  0  0  0  0  3  0  0  0  0  0  0
  160.7590  206.0620  149.6230 C   0  0  2  0  0  0  0  0  0  0  0  0
  162.3390  208.8920  150.3290 C   0  0  0  0  0  3  0  0  0  0  0  0
  161.6630  206.7780  148.7960 N   0  0  0  0  0  2  0  0  0  0  0  0
  159.5240  213.0360  155.3800 C   0  0  2  0  0  3  0  0  0  0  0  0
  159.6000  210.6390  155.1330 N   0  0  0  0  0  0  0  0  0  0  0  0
  159.1830  210.8690  152.9020 N   0  0  0  0  0  2  0  0  0  0  0  0
  158.7040  211.7840  155.0400 C   0  0  2  0  0  3  0  0  0  0  0  0
  158.9590  214.1530  153.2570 C   0  0  0  0  0  2  0  0  0  0  0  0
  158.2270  211.7290  153.5700 C   0  0  1  0  0  3  0  0  0  0  0  0
  159.8620  210.1910  153.9510 C   0  0  0  0  0  0  0  0  0  0  0  0
  157.9960  213.0500  152.8270 C   0  0  1  0  0  3  0  0  0  0  0  0
  159.6420  213.2240  157.1440 Cl  0  0  0  0  0  0  0  0  0  0  0  0
  160.8140  209.1350  153.7220 N   0  0  0  0  0  0  0  0  0  0  0  0
  156.5590  213.5000  153.0120 C   0  0  0  0  0  1  0  0  0  0  0  0
  158.9530  214.3010  154.7680 C   0  0  0  0  0  2  0  0  0  0  0  0
  161.6040  208.6450  154.8460 C   0  0  0  0  0  1  0  0  0  0  0  0
  160.2970  202.4870  150.0510 C   0  0  1  0  0  0  0  0  0  0  0  0
  161.0190  204.3450  151.4430 C   0  0  0  0  0  2  0  0  0  0  0  0
  160.0840  203.1530  151.3990 C   0  0  0  0  0  2  0  0  0  0  0  0
  161.3510  204.7000  150.0040 C   0  0  1  0  0  3  0  0  0  0  0  0
  158.9720  201.9300  149.5540 C   0  0  0  0  0  1  0  0  0  0  0  0
  160.7430  203.6130  149.1330 C   0  0  0  0  0  2  0  0  0  0  0  0
  161.3840  201.3890  150.1380 C   0  0  2  0  0  3  0  0  0  0  0  0
  162.4190  201.6930  151.2130 C   0  0  0  0  0  1  0  0  0  0  0  0
  162.1110  201.1570  148.8150 C   0  0  0  0  0  2  0  0  0  0  0  0
  161.6150  200.0150  148.1840 O   0  0  0  0  0  0  0  0  0  0  0  0
  161.3220  199.3470  146.0270 O   0  0  0  0  0  1  0  0  0  0  0  0
  161.3070  200.4410  146.8920 C   0  0  0  0  0  2  0  0  0  0  0  0
  1  2  1  0  0  0  0
  2 18  1  1  0  0  0
  3  5  2  0  0  0  0
  4  7  1  6  0  0  0
  4  3  1  0  0  0  0
  5  2  1  0  0  0  0
  6  8  1  6  0  0  0
  6  4  1  0  0  0  0
  6 25  1  0  0  0  0
  6  3  1  0  0  0  0
  7  1  2  0  0  0  0
  8  4  1  0  0  0  0
  9 17  1  1  0  0  0
 11 15  1  0  0  0  0
 12 10  1  6  0  0  0
 12  9  1  0  0  0  0
 13 20  1  0  0  0  0
 14 11  1  6  0  0  0
 14 12  1  0  0  0  0
 15 10  2  0  0  0  0
 16 19  1  1  0  0  0
 16 13  1  0  0  0  0
 16 14  1  0  0  0  0
 18 15  1  0  0  0  0
 18 21  1  0  0  0  0
 20  9  1  0  0  0  0
 22 26  1  6  0  0  0
 22 28  1  0  0  0  0
 22 24  1  0  0  0  0
 24 23  1  0  0  0  0
 25 27  1  6  0  0  0
 25 23  1  0  0  0  0
 27 22  1  0  0  0  0
 28 29  1  1  0  0  0
 30 28  1  0  0  0  0
 31 30  1  0  0  0  0
 32 33  1  0  0  0  0
 33 31  1  0  0  0  0
M  END
>  <MODEL>
5

>  <REMARK>
 VINA RESULT:      -5.3      2.635      3.605
  Name = 
  6 active torsions:
  status: ('A' for Active; 'I' for Inactive)
    1  A    between atoms: C_1  and  C_4
    2  A    between atoms: C_4  and  C_25
    3  A    between atoms: C_6  and  N_28
    4  A    between atoms: C_7  and  C_27
    5  A    between atoms: C_16  and  O_18
    6  A    between atoms: O_18  and  C_25
                            x       y       z     vdW  Elec       q    Type
                         _______ _______ _______ _____ _____    ______ ____

>  <TORSDO>
F 6

$$$$
=
 OpenBabel11072412273D

 33 38  0  0  1  0  0  0  0  0999 V2000
  160.6510  207.0480  155.2580 N   0  0  0  0  0  0  0  0  0  0  0  0
  161.2770  208.1940  154.7850 C   0  0  1  0  0  3  0  0  0  0  0  0
  161.8450  207.0030  152.8260 C   0  0  0  0  0  0  0  0  0  0  0  0
  161.2210  205.8670  153.3440 C   0  0  1  0  0  0  0  0  0  0  0  0
  161.9040  208.2020  153.5050 C   0  0  0  0  0  3  0  0  0  0  0  0
  162.1640  206.2180  151.6670 C   0  0  2  0  0  0  0  0  0  0  0  0
  160.6070  205.8600  154.5740 C   0  0  0  0  0  3  0  0  0  0  0  0
  161.5320  205.0520  152.1720 N   0  0  0  0  0  2  0  0  0  0  0  0
  158.8900  213.1380  155.6120 C   0  0  2  0  0  3  0  0  0  0  0  0
  160.0340  211.2220  156.5260 N   0  0  0  0  0  0  0  0  0  0  0  0
  158.8170  209.8600  155.1610 N   0  0  0  0  0  2  0  0  0  0  0  0
  158.7260  211.8560  156.4420 C   0  0  2  0  0  3  0  0  0  0  0  0
  157.1580  212.4740  153.9890 C   0  0  0  0  0  2  0  0  0  0  0  0
  157.8620  210.7740  155.7550 C   0  0  1  0  0  3  0  0  0  0  0  0
  160.0540  210.1600  155.7920 C   0  0  0  0  0  0  0  0  0  0  0  0
  156.7760  211.2210  154.7700 C   0  0  1  0  0  3  0  0  0  0  0  0
  159.5040  214.4520  156.6400 Cl  0  0  0  0  0  0  0  0  0  0  0  0
  161.2520  209.3890  155.5860 N   0  0  0  0  0  0  0  0  0  0  0  0
  155.4680  211.4360  155.5090 C   0  0  0  0  0  1  0  0  0  0  0  0
  157.6040  213.5740  154.9370 C   0  0  0  0  0  2  0  0  0  0  0  0
  162.5140  209.8950  156.1170 C   0  0  0  0  0  1  0  0  0  0  0  0
  161.9240  206.3730  148.0490 C   0  0  1  0  0  0  0  0  0  0  0  0
  162.0910  207.9760  149.8680 C   0  0  0  0  0  2  0  0  0  0  0  0
  162.6770  207.6030  148.5220 C   0  0  0  0  0  2  0  0  0  0  0  0
  161.4270  206.7260  150.4230 C   0  0  1  0  0  3  0  0  0  0  0  0
  162.8780  205.4660  147.2850 C   0  0  0  0  0  1  0  0  0  0  0  0
  161.4850  205.6770  149.3250 C   0  0  0  0  0  2  0  0  0  0  0  0
  160.6980  206.7670  147.1900 C   0  0  2  0  0  3  0  0  0  0  0  0
  159.4340  206.0410  147.6330 C   0  0  0  0  0  1  0  0  0  0  0  0
  160.9030  206.5180  145.6980 C   0  0  0  0  0  2  0  0  0  0  0  0
  159.9640  205.6000  145.2260 O   0  0  0  0  0  0  0  0  0  0  0  0
  160.5710  203.4240  144.9390 O   0  0  0  0  0  1  0  0  0  0  0  0
  160.7060  204.7200  144.4390 C   0  0  0  0  0  2  0  0  0  0  0  0
  2  1  1  0  0  0  0
  2 18  1  6  0  0  0
  3  4  1  0  0  0  0
  3  5  2  0  0  0  0
  4  7  1  1  0  0  0
  5  2  1  0  0  0  0
  6  8  1  6  0  0  0
  6  3  1  0  0  0  0
  6  4  1  0  0  0  0
  7  1  2  0  0  0  0
  8  4  1  0  0  0  0
  9 12  1  0  0  0  0
  9 17  1  1  0  0  0
 11 15  1  0  0  0  0
 12 10  1  6  0  0  0
 13 16  1  0  0  0  0
 13 20  1  0  0  0  0
 14 11  1  6  0  0  0
 14 12  1  0  0  0  0
 15 10  2  0  0  0  0
 16 19  1  1  0  0  0
 16 14  1  0  0  0  0
 18 15  1  0  0  0  0
 18 21  1  0  0  0  0
 20  9  1  0  0  0  0
 22 26  1  6  0  0  0
 22 24  1  0  0  0  0
 22 27  1  0  0  0  0
 23 25  1  0  0  0  0
 24 23  1  0  0  0  0
 25 27  1  6  0  0  0
 25  6  1  0  0  0  0
 28 29  1  1  0  0  0
 28 22  1  0  0  0  0
 30 28  1  0  0  0  0
 31 30  1  0  0  0  0
 33 32  1  0  0  0  0
 33 31  1  0  0  0  0
M  END
>  <MODEL>
6

>  <REMARK>
 VINA RESULT:      -5.2      1.891      2.554
  Name = 
  6 active torsions:
  status: ('A' for Active; 'I' for Inactive)
    1  A    between atoms: C_1  and  C_4
    2  A    between atoms: C_4  and  C_25
    3  A    between atoms: C_6  and  N_28
    4  A    between atoms: C_7  and  C_27
    5  A    between atoms: C_16  and  O_18
    6  A    between atoms: O_18  and  C_25
                            x       y       z     vdW  Elec       q    Type
                         _______ _______ _______ _____ _____    ______ ____

>  <TORSDO>
F 6

$$$$
=
 OpenBabel11072412273D

 33 38  0  0  1  0  0  0  0  0999 V2000
  161.8410  208.5910  148.0960 N   0  0  0  0  0  0  0  0  0  0  0  0
  161.6540  207.4370  148.8470 C   0  0  1  0  0  3  0  0  0  0  0  0
  161.9330  208.7350  150.8000 C   0  0  0  0  0  0  0  0  0  0  0  0
  162.1330  209.8690  150.0100 C   0  0  1  0  0  0  0  0  0  0  0  0
  161.6870  207.4860  150.2710 C   0  0  0  0  0  3  0  0  0  0  0  0
  162.1210  209.5820  151.9450 C   0  0  2  0  0  0  0  0  0  0  0  0
  162.0920  209.8270  148.6370 C   0  0  0  0  0  3  0  0  0  0  0  0
  162.3230  210.7480  151.1620 N   0  0  0  0  0  2  0  0  0  0  0  0
  161.6630  201.8980  149.2140 C   0  0  2  0  0  3  0  0  0  0  0  0
  160.7200  203.8990  148.2550 N   0  0  0  0  0  0  0  0  0  0  0  0
  160.8730  204.9280  150.2840 N   0  0  0  0  0  2  0  0  0  0  0  0
  160.4550  202.8450  149.2250 C   0  0  2  0  0  3  0  0  0  0  0  0
  162.0550  202.1470  151.6340 C   0  0  0  0  0  2  0  0  0  0  0  0
  160.2870  203.6290  150.5470 C   0  0  1  0  0  3  0  0  0  0  0  0
  160.9740  205.0050  148.8690 C   0  0  0  0  0  0  0  0  0  0  0  0
  160.8050  202.9950  151.8430 C   0  0  1  0  0  3  0  0  0  0  0  0
  161.5200  200.7460  147.8670 Cl  0  0  0  0  0  0  0  0  0  0  0  0
  161.3870  206.1960  148.1710 N   0  0  0  0  0  0  0  0  0  0  0  0
  159.7070  202.1700  152.4870 C   0  0  0  0  0  1  0  0  0  0  0  0
  161.8330  201.1420  150.5170 C   0  0  0  0  0  2  0  0  0  0  0  0
  161.6550  206.1140  146.7390 C   0  0  0  0  0  1  0  0  0  0  0  0
  160.4910  210.6130  155.0200 C   0  0  1  0  0  0  0  0  0  0  0  0
  160.6920  208.5540  153.7430 C   0  0  0  0  0  2  0  0  0  0  0  0
  160.8210  209.1350  155.1360 C   0  0  0  0  0  2  0  0  0  0  0  0
  160.8330  209.7110  152.7670 C   0  0  1  0  0  3  0  0  0  0  0  0
  161.3580  211.3970  155.9950 C   0  0  0  0  0  1  0  0  0  0  0  0
  160.8770  210.9820  153.5980 C   0  0  0  0  0  2  0  0  0  0  0  0
  158.9840  210.8680  155.2620 C   0  0  2  0  0  3  0  0  0  0  0  0
  158.2830  211.3790  154.0100 C   0  0  0  0  0  1  0  0  0  0  0  0
  158.7150  211.8460  156.4030 C   0  0  0  0  0  2  0  0  0  0  0  0
  157.5930  211.4450  157.1300 O   0  0  0  0  0  0  0  0  0  0  0  0
  155.5440  212.0860  156.3720 O   0  0  0  0  0  1  0  0  0  0  0  0
  156.7060  212.5140  157.0150 C   0  0  0  0  0  2  0  0  0  0  0  0
  1  7  2  0  0  0  0
  1  2  1  0  0  0  0
  2 18  1  1  0  0  0
  2  5  1  0  0  0  0
  4  7  1  6  0  0  0
  4  3  1  0  0  0  0
  4  8  1  0  0  0  0
  4  6  1  0  0  0  0
  5  3  2  0  0  0  0
  6  3  1  1  0  0  0
  6 25  1  0  0  0  0
  8  6  1  0  0  0  0
  9 17  1  6  0  0  0
  9 12  1  0  0  0  0
  9 20  1  0  0  0  0
 10 15  2  0  0  0  0
 12 10  1  6  0  0  0
 12 14  1  0  0  0  0
 13 16  1  0  0  0  0
 14 11  1  6  0  0  0
 14 16  1  0  0  0  0
 15 11  1  0  0  0  0
 16 19  1  6  0  0  0
 18 15  1  0  0  0  0
 20 13  1  0  0  0  0
 21 18  1  0  0  0  0
 22 24  1  0  0  0  0
 22 28  1  0  0  0  0
 22 26  1  1  0  0  0
 23 24  1  0  0  0  0
 25 27  1  1  0  0  0
 25 23  1  0  0  0  0
 27 22  1  0  0  0  0
 28 29  1  6  0  0  0
 28 30  1  0  0  0  0
 30 31  1  0  0  0  0
 32 33  1  0  0  0  0
 33 31  1  0  0  0  0
M  END
>  <MODEL>
7

>  <REMARK>
 VINA RESULT:      -5.2      4.783      9.603
  Name = 
  6 active torsions:
  status: ('A' for Active; 'I' for Inactive)
    1  A    between atoms: C_1  and  C_4
    2  A    between atoms: C_4  and  C_25
    3  A    between atoms: C_6  and  N_28
    4  A    between atoms: C_7  and  C_27
    5  A    between atoms: C_16  and  O_18
    6  A    between atoms: O_18  and  C_25
                            x       y       z     vdW  Elec       q    Type
                         _______ _______ _______ _____ _____    ______ ____

>  <TORSDO>
F 6

$$$$
=
 OpenBabel11072412273D

 33 38  0  0  1  0  0  0  0  0999 V2000
  162.8290  207.6980  150.4650 N   0  0  0  0  0  0  0  0  0  0  0  0
  161.5760  207.3130  150.9240 C   0  0  1  0  0  3  0  0  0  0  0  0
  160.9030  207.0430  148.6760 C   0  0  0  0  0  0  0  0  0  0  0  0
  162.1690  207.4520  148.2540 C   0  0  1  0  0  0  0  0  0  0  0  0
  160.5470  206.9520  150.0060 C   0  0  0  0  0  3  0  0  0  0  0  0
  160.5580  206.9080  147.2880 C   0  0  2  0  0  0  0  0  0  0  0  0
  163.1670  207.7890  149.1380 C   0  0  0  0  0  3  0  0  0  0  0  0
  161.8400  207.3170  146.8370 N   0  0  0  0  0  2  0  0  0  0  0  0
  160.7250  210.1830  155.5990 C   0  0  2  0  0  3  0  0  0  0  0  0
  160.3660  208.1700  154.3210 N   0  0  0  0  0  0  0  0  0  0  0  0
  160.0930  209.4280  152.4390 N   0  0  0  0  0  2  0  0  0  0  0  0
  159.7020  209.3820  154.7800 C   0  0  2  0  0  3  0  0  0  0  0  0
  160.4650  212.2010  154.2080 C   0  0  0  0  0  2  0  0  0  0  0  0
  159.2850  210.0670  153.4580 C   0  0  1  0  0  3  0  0  0  0  0  0
  160.5890  208.2460  153.0530 C   0  0  0  0  0  0  0  0  0  0  0  0
  159.3340  211.5970  153.3810 C   0  0  1  0  0  3  0  0  0  0  0  0
  160.8020  209.5520  157.2590 Cl  0  0  0  0  0  0  0  0  0  0  0  0
  161.3380  207.2430  152.3410 N   0  0  0  0  0  0  0  0  0  0  0  0
  157.9980  212.1770  153.8090 C   0  0  0  0  0  1  0  0  0  0  0  0
  160.4240  211.6690  155.6300 C   0  0  0  0  0  2  0  0  0  0  0  0
  161.9760  206.1720  153.1000 C   0  0  0  0  0  1  0  0  0  0  0  0
  161.7630  203.8400  145.7690 C   0  0  1  0  0  0  0  0  0  0  0  0
  159.8620  205.3230  145.4630 C   0  0  0  0  0  2  0  0  0  0  0  0
  160.9700  204.6010  144.7230 C   0  0  0  0  0  2  0  0  0  0  0  0
  160.3040  205.4440  146.9120 C   0  0  1  0  0  3  0  0  0  0  0  0
  163.2330  203.8330  145.3750 C   0  0  0  0  0  1  0  0  0  0  0  0
  161.5910  204.6470  147.0450 C   0  0  0  0  0  2  0  0  0  0  0  0
  161.2120  202.4050  145.9510 C   0  0  2  0  0  3  0  0  0  0  0  0
  160.1160  202.0820  144.9450 C   0  0  0  0  0  1  0  0  0  0  0  0
  160.6760  202.1400  147.3560 C   0  0  0  0  0  2  0  0  0  0  0  0
  161.3240  201.0430  147.9240 O   0  0  0  0  0  0  0  0  0  0  0  0
  160.7110  202.3690  149.6700 O   0  0  0  0  0  1  0  0  0  0  0  0
  160.9190  201.0530  149.2570 C   0  0  0  0  0  2  0  0  0  0  0  0
  1  2  1  0  0  0  0
  2 18  1  1  0  0  0
  3  5  2  0  0  0  0
  4  3  1  0  0  0  0
  4  7  1  6  0  0  0
  5  2  1  0  0  0  0
  6  8  1  6  0  0  0
  6  4  1  0  0  0  0
  6  3  1  0  0  0  0
  7  1  2  0  0  0  0
  8  4  1  0  0  0  0
  9 20  1  0  0  0  0
  9 17  1  1  0  0  0
 11 15  1  0  0  0  0
 12 10  1  6  0  0  0
 12  9  1  0  0  0  0
 13 20  1  0  0  0  0
 14 11  1  6  0  0  0
 14 12  1  0  0  0  0
 15 10  2  0  0  0  0
 16 14  1  0  0  0  0
 16 19  1  1  0  0  0
 16 13  1  0  0  0  0
 18 15  1  0  0  0  0
 18 21  1  0  0  0  0
 22 26  1  6  0  0  0
 22 28  1  0  0  0  0
 22 27  1  0  0  0  0
 24 23  1  0  0  0  0
 24 22  1  0  0  0  0
 25 23  1  6  0  0  0
 25 27  1  0  0  0  0
 25  6  1  0  0  0  0
 28 29  1  6  0  0  0
 28 30  1  0  0  0  0
 30 31  1  0  0  0  0
 31 33  1  0  0  0  0
 33 32  1  0  0  0  0
M  END
>  <MODEL>
8

>  <REMARK>
 VINA RESULT:      -5.1      2.484      3.842
  Name = 
  6 active torsions:
  status: ('A' for Active; 'I' for Inactive)
    1  A    between atoms: C_1  and  C_4
    2  A    between atoms: C_4  and  C_25
    3  A    between atoms: C_6  and  N_28
    4  A    between atoms: C_7  and  C_27
    5  A    between atoms: C_16  and  O_18
    6  A    between atoms: O_18  and  C_25
                            x       y       z     vdW  Elec       q    Type
                         _______ _______ _______ _____ _____    ______ ____

>  <TORSDO>
F 6

$$$$
=
 OpenBabel11072412273D

 33 38  0  0  1  0  0  0  0  0999 V2000
  162.3910  206.4610  151.6620 N   0  0  0  0  0  0  0  0  0  0  0  0
  161.5190  207.3920  151.1120 C   0  0  1  0  0  3  0  0  0  0  0  0
  160.7310  207.8530  153.2900 C   0  0  0  0  0  0  0  0  0  0  0  0
  161.6080  206.8970  153.8030 C   0  0  1  0  0  0  0  0  0  0  0  0
  160.6430  208.1460  151.9450 C   0  0  0  0  0  3  0  0  0  0  0  0
  160.2920  208.0770  154.6390 C   0  0  2  0  0  0  0  0  0  0  0  0
  162.4630  206.1750  153.0020 C   0  0  0  0  0  3  0  0  0  0  0  0
  161.1800  207.1120  155.1830 N   0  0  0  0  0  2  0  0  0  0  0  0
  162.4680  205.1760  146.1110 C   0  0  2  0  0  3  0  0  0  0  0  0
  161.2810  206.7810  147.4630 N   0  0  0  0  0  0  0  0  0  0  0  0
  161.0620  205.2150  149.1070 N   0  0  0  0  0  2  0  0  0  0  0  0
  161.1170  205.5190  146.7530 C   0  0  2  0  0  3  0  0  0  0  0  0
  162.5860  202.9720  147.2080 C   0  0  0  0  0  2  0  0  0  0  0  0
  160.6920  204.5450  147.8760 C   0  0  1  0  0  3  0  0  0  0  0  0
  161.2780  206.5690  148.7360 C   0  0  0  0  0  0  0  0  0  0  0  0
  161.1920  203.0970  147.8140 C   0  0  1  0  0  3  0  0  0  0  0  0
  162.6550  206.0590  144.5790 Cl  0  0  0  0  0  0  0  0  0  0  0  0
  161.5380  207.6160  149.6910 N   0  0  0  0  0  0  0  0  0  0  0  0
  160.2010  202.2430  147.0450 C   0  0  0  0  0  1  0  0  0  0  0  0
  162.6480  203.6900  145.8710 C   0  0  0  0  0  2  0  0  0  0  0  0
  161.9470  208.9280  149.2010 C   0  0  0  0  0  1  0  0  0  0  0  0
  159.5490  211.6280  154.7480 C   0  0  1  0  0  0  0  0  0  0  0  0
  161.4250  210.2460  154.0540 C   0  0  0  0  0  2  0  0  0  0  0  0
  160.5310  211.3890  153.6150 C   0  0  0  0  0  2  0  0  0  0  0  0
  160.6690  209.4810  155.1270 C   0  0  1  0  0  3  0  0  0  0  0  0
  158.2050  212.0380  154.1650 C   0  0  0  0  0  1  0  0  0  0  0  0
  159.4090  210.2770  155.4270 C   0  0  0  0  0  2  0  0  0  0  0  0
  160.0900  212.6860  155.7400 C   0  0  2  0  0  3  0  0  0  0  0  0
  160.4750  212.0690  157.0780 C   0  0  0  0  0  1  0  0  0  0  0  0
  159.1090  213.8280  155.9950 C   0  0  0  0  0  2  0  0  0  0  0  0
  158.5150  213.6850  157.2500 O   0  0  0  0  0  0  0  0  0  0  0  0
  156.4120  212.8110  157.2370 O   0  0  0  0  0  1  0  0  0  0  0  0
  157.1680  213.9660  157.0290 C   0  0  0  0  0  2  0  0  0  0  0  0
  1  7  2  0  0  0  0
  2 18  1  1  0  0  0
  2  1  1  0  0  0  0
  2  5  1  0  0  0  0
  3  4  1  0  0  0  0
  4  7  1  6  0  0  0
  4  6  1  0  0  0  0
  4  8  1  0  0  0  0
  5  3  2  0  0  0  0
  6  3  1  6  0  0  0
  6 25  1  0  0  0  0
  6  8  1  0  0  0  0
  9 17  1  6  0  0  0
  9 12  1  0  0  0  0
 10 15  2  0  0  0  0
 12 10  1  1  0  0  0
 12 14  1  0  0  0  0
 13 16  1  0  0  0  0
 14 11  1  1  0  0  0
 15 11  1  0  0  0  0
 15 18  1  0  0  0  0
 16 19  1  6  0  0  0
 16 14  1  0  0  0  0
 20  9  1  0  0  0  0
 20 13  1  0  0  0  0
 21 18  1  0  0  0  0
 22 26  1  6  0  0  0
 22 27  1  0  0  0  0
 22 28  1  0  0  0  0
 24 23  1  0  0  0  0
 24 22  1  0  0  0  0
 25 23  1  6  0  0  0
 25 27  1  0  0  0  0
 28 30  1  0  0  0  0
 28 29  1  1  0  0  0
 30 31  1  0  0  0  0
 33 32  1  0  0  0  0
 33 31  1  0  0  0  0
M  END
>  <MODEL>
9

>  <REMARK>
 VINA RESULT:      -5.1      4.695      9.832
  Name = 
  6 active torsions:
  status: ('A' for Active; 'I' for Inactive)
    1  A    between atoms: C_1  and  C_4
    2  A    between atoms: C_4  and  C_25
    3  A    between atoms: C_6  and  N_28
    4  A    between atoms: C_7  and  C_27
    5  A    between atoms: C_16  and  O_18
    6  A    between atoms: O_18  and  C_25
                            x       y       z     vdW  Elec       q    Type
                         _______ _______ _______ _____ _____    ______ ____

>  <TORSDO>
F 6

$$$$
