=
 OpenBabel11072413303D

 36 37  0  0  1  0  0  0  0  0999 V2000
  161.8760  207.2870  151.7270 C   0  0  2  0  0  3  0  0  0  0  0  0
  161.1270  207.0800  148.3870 C   0  0  2  0  0  3  0  0  0  0  0  0
  162.8620  208.1160  149.5590 C   0  0  0  0  0  2  0  0  0  0  0  0
  161.5910  208.0310  150.3980 C   0  0  1  0  0  0  0  0  0  0  0  0
  162.6280  207.1450  148.4500 C   0  0  0  0  0  2  0  0  0  0  0  0
  160.6110  207.3130  149.6760 O   0  0  0  0  0  0  0  0  0  0  0  0
  161.0530  209.4370  150.7030 C   0  0  0  0  0  2  0  0  0  0  0  0
  162.0840  210.5110  150.5700 C   0  0  0  0  0  0  0  0  0  0  0  0
  162.9770  210.6400  151.4480 O   0  0  0  0  0  0  0  0  0  0  0  0
  162.0430  211.4060  149.4640 N   0  0  0  0  0  1  0  0  0  0  0  0
  160.6890  205.7170  147.8800 C   0  0  0  0  0  2  0  0  0  0  0  0
  160.3380  206.4040  145.5060 O   0  0  0  0  0  0  0  0  0  0  0  0
  161.8390  204.7530  146.0300 O   0  0  0  0  0  1  0  0  0  0  0  0
  160.9830  205.5860  146.4250 C   0  0  0  0  0  0  0  0  0  0  0  0
  162.3230  205.8220  151.5310 C   0  0  1  0  0  3  0  0  0  0  0  0
  163.3940  205.5120  152.3750 O   0  0  0  0  0  1  0  0  0  0  0  0
  161.0190  204.5510  153.1260 O   0  0  0  0  0  1  0  0  0  0  0  0
  161.1710  204.8440  151.7650 C   0  0  2  0  0  3  0  0  0  0  0  0
  161.3140  203.5720  150.9240 C   0  0  1  0  0  3  0  0  0  0  0  0
  161.3040  202.3150  151.7860 C   0  0  0  0  0  2  0  0  0  0  0  0
  162.5900  201.7800  151.8640 O   0  0  0  0  0  1  0  0  0  0  0  0
  160.2060  203.4950  149.8790 C   0  0  0  0  0  2  0  0  0  0  0  0
  159.4730  201.2140  149.1890 O   0  0  0  0  0  1  0  0  0  0  0  0
  161.2980  202.1940  148.2080 O   0  0  0  0  0  0  0  0  0  0  0  0
  160.3560  202.2750  149.0370 C   0  0  0  0  0  0  0  0  0  0  0  0
  160.7410  207.3320  152.5520 O   0  0  0  0  0  0  0  0  0  0  0  0
  160.3940  207.0260  154.9020 C   0  0  0  0  0  2  0  0  0  0  0  0
  161.1160  209.2620  153.9280 C   0  0  0  0  0  2  0  0  0  0  0  0
  160.3920  207.8320  156.1970 C   0  0  0  0  0  2  0  0  0  0  0  0
  159.8360  209.2480  155.9770 C   0  0  0  0  0  2  0  0  0  0  0  0
  159.8560  209.6570  154.5630 N   0  0  0  0  0  0  0  0  0  0  0  0
  161.2050  207.7350  153.8090 C   0  0  2  0  0  3  0  0  0  0  0  0
  159.6850  211.1100  154.4630 C   0  0  0  0  0  2  0  0  0  0  0  0
  158.4000  211.5180  153.7410 C   0  0  0  0  0  2  0  0  0  0  0  0
  159.7280  212.6140  152.3660 C   0  0  0  0  0  1  0  0  0  0  0  0
  158.6700  211.7070  152.3860 O   0  0  0  0  0  0  0  0  0  0  0  0
  1 26  1  1  0  0  0
  2 11  1  1  0  0  0
  2  5  1  0  0  0  0
  2  6  1  0  0  0  0
  3  4  1  0  0  0  0
  4  7  1  1  0  0  0
  4  1  1  0  0  0  0
  5  3  1  0  0  0  0
  6  4  1  0  0  0  0
  8  7  1  0  0  0  0
  8  9  2  0  0  0  0
 10  8  1  0  0  0  0
 12 14  2  0  0  0  0
 13 14  1  0  0  0  0
 14 11  1  0  0  0  0
 15  1  1  0  0  0  0
 15 18  1  0  0  0  0
 15 16  1  1  0  0  0
 18 17  1  1  0  0  0
 19 22  1  6  0  0  0
 19 18  1  0  0  0  0
 19 20  1  0  0  0  0
 20 21  1  0  0  0  0
 24 25  2  0  0  0  0
 25 23  1  0  0  0  0
 25 22  1  0  0  0  0
 27 29  1  0  0  0  0
 28 31  1  0  0  0  0
 30 29  1  0  0  0  0
 31 30  1  0  0  0  0
 32 26  1  6  0  0  0
 32 28  1  0  0  0  0
 32 27  1  0  0  0  0
 33 31  1  0  0  0  0
 34 33  1  0  0  0  0
 35 36  1  0  0  0  0
 36 34  1  0  0  0  0
M  END
>  <MODEL>
1

>  <REMARK>
 VINA RESULT:      -4.9      0.000      0.000
  Name = 
  16 active torsions:
  status: ('A' for Active; 'I' for Inactive)
    1  A    between atoms: C_1  and  C_12
    2  A    between atoms: C_1  and  C_30
    3  A    between atoms: C_2  and  C_11
    4  A    between atoms: C_5  and  C_10
    5  A    between atoms: C_6  and  C_26
    6  A    between atoms: C_6  and  N_31
    7  A    between atoms: C_10  and  C_36
    8  A    between atoms: C_11  and  C_21
    9  A    between atoms: C_12  and  C_24
   10  A    between atoms: O_18  and  C_26
   11  A    between atoms: C_20  and  C_34
   12  A    between atoms: C_21  and  C_30
   13  A    between atoms: O_23  and  C_30
   14  A    between atoms: O_23  and  C_32
   15  A    between atoms: C_24  and  C_33
   16  A    between atoms: C_24  and  C_34
                            x       y       z     vdW  Elec       q    Type
                         _______ _______ _______ _____ _____    ______ ____

>  <TORSDO>
F 16

$$$$
=
 OpenBabel11072413303D

 36 37  0  0  1  0  0  0  0  0999 V2000
  161.7330  206.7590  149.8540 C   0  0  2  0  0  3  0  0  0  0  0  0
  161.0320  206.6010  153.2080 C   0  0  2  0  0  3  0  0  0  0  0  0
  162.4760  205.3840  151.8330 C   0  0  0  0  0  2  0  0  0  0  0  0
  161.2690  205.9010  151.0590 C   0  0  1  0  0  0  0  0  0  0  0  0
  162.4740  206.1910  153.0880 C   0  0  0  0  0  2  0  0  0  0  0  0
  160.4840  206.7070  151.9150 O   0  0  0  0  0  0  0  0  0  0  0  0
  160.4120  204.7310  150.5530 C   0  0  0  0  0  2  0  0  0  0  0  0
  160.6260  203.4630  151.3160 C   0  0  0  0  0  0  0  0  0  0  0  0
  160.4000  203.4260  152.5530 O   0  0  0  0  0  0  0  0  0  0  0  0
  161.1090  202.3020  150.6490 N   0  0  0  0  0  1  0  0  0  0  0  0
  160.9300  207.9290  153.9370 C   0  0  0  0  0  2  0  0  0  0  0  0
  161.8540  208.0820  156.2500 O   0  0  0  0  0  1  0  0  0  0  0  0
  159.7670  207.2080  155.8870 O   0  0  0  0  0  0  0  0  0  0  0  0
  160.8170  207.7070  155.4060 C   0  0  0  0  0  0  0  0  0  0  0  0
  161.7060  208.2780  150.1330 C   0  0  1  0  0  3  0  0  0  0  0  0
  162.7190  208.6370  151.0270 O   0  0  0  0  0  1  0  0  0  0  0  0
  163.0620  208.8560  148.2110 O   0  0  0  0  0  1  0  0  0  0  0  0
  161.8340  209.0910  148.8430 C   0  0  2  0  0  3  0  0  0  0  0  0
  161.5930  210.5850  149.0760 C   0  0  1  0  0  3  0  0  0  0  0  0
  161.7170  210.9580  150.5490 C   0  0  0  0  0  2  0  0  0  0  0  0
  160.6810  211.8200  150.9110 O   0  0  0  0  0  1  0  0  0  0  0  0
  162.5620  211.4180  148.2450 C   0  0  0  0  0  2  0  0  0  0  0  0
  160.7980  212.4580  146.8210 O   0  0  0  0  0  0  0  0  0  0  0  0
  162.2970  213.7690  147.9540 O   0  0  0  0  0  1  0  0  0  0  0  0
  161.8790  212.6160  147.6780 C   0  0  0  0  0  0  0  0  0  0  0  0
  160.9460  206.4670  148.7290 O   0  0  0  0  0  0  0  0  0  0  0  0
  161.3420  206.4360  146.3670 C   0  0  0  0  0  2  0  0  0  0  0  0
  161.9880  204.4850  147.8660 C   0  0  0  0  0  2  0  0  0  0  0  0
  161.8620  205.4990  145.2820 C   0  0  0  0  0  2  0  0  0  0  0  0
  161.4490  204.0420  145.5530 C   0  0  0  0  0  2  0  0  0  0  0  0
  161.0620  203.8090  146.9540 N   0  0  0  0  0  0  0  0  0  0  0  0
  161.8390  206.0080  147.7540 C   0  0  2  0  0  3  0  0  0  0  0  0
  161.0540  202.3690  147.2340 C   0  0  0  0  0  2  0  0  0  0  0  0
  160.6890  201.5200  146.0160 C   0  0  0  0  0  2  0  0  0  0  0  0
  161.5250  200.1700  147.5450 C   0  0  0  0  0  1  0  0  0  0  0  0
  161.1550  200.2190  146.2020 O   0  0  0  0  0  0  0  0  0  0  0  0
  1 26  1  6  0  0  0
  1 15  1  0  0  0  0
  1  4  1  0  0  0  0
  2 11  1  6  0  0  0
  3  5  1  0  0  0  0
  4  7  1  6  0  0  0
  4  3  1  0  0  0  0
  4  6  1  0  0  0  0
  5  2  1  0  0  0  0
  6  2  1  0  0  0  0
  7  8  1  0  0  0  0
  8  9  2  0  0  0  0
 10  8  1  0  0  0  0
 11 14  1  0  0  0  0
 14 13  2  0  0  0  0
 14 12  1  0  0  0  0
 15 16  1  1  0  0  0
 18 17  1  1  0  0  0
 18 19  1  0  0  0  0
 18 15  1  0  0  0  0
 19 22  1  6  0  0  0
 19 20  1  0  0  0  0
 20 21  1  0  0  0  0
 23 25  2  0  0  0  0
 25 24  1  0  0  0  0
 25 22  1  0  0  0  0
 27 32  1  0  0  0  0
 29 30  1  0  0  0  0
 29 27  1  0  0  0  0
 30 31  1  0  0  0  0
 31 33  1  0  0  0  0
 31 28  1  0  0  0  0
 32 28  1  0  0  0  0
 32 26  1  1  0  0  0
 34 36  1  0  0  0  0
 34 33  1  0  0  0  0
 36 35  1  0  0  0  0
M  END
>  <MODEL>
2

>  <REMARK>
 VINA RESULT:      -4.9      2.971      8.546
  Name = 
  16 active torsions:
  status: ('A' for Active; 'I' for Inactive)
    1  A    between atoms: C_1  and  C_12
    2  A    between atoms: C_1  and  C_30
    3  A    between atoms: C_2  and  C_11
    4  A    between atoms: C_5  and  C_10
    5  A    between atoms: C_6  and  C_26
    6  A    between atoms: C_6  and  N_31
    7  A    between atoms: C_10  and  C_36
    8  A    between atoms: C_11  and  C_21
    9  A    between atoms: C_12  and  C_24
   10  A    between atoms: O_18  and  C_26
   11  A    between atoms: C_20  and  C_34
   12  A    between atoms: C_21  and  C_30
   13  A    between atoms: O_23  and  C_30
   14  A    between atoms: O_23  and  C_32
   15  A    between atoms: C_24  and  C_33
   16  A    between atoms: C_24  and  C_34
                            x       y       z     vdW  Elec       q    Type
                         _______ _______ _______ _____ _____    ______ ____

>  <TORSDO>
F 16

$$$$
=
 OpenBabel11072413303D

 36 37  0  0  1  0  0  0  0  0999 V2000
  162.1990  208.9420  150.4490 C   0  0  2  0  0  3  0  0  0  0  0  0
  161.8140  206.3060  148.2890 C   0  0  2  0  0  3  0  0  0  0  0  0
  160.5840  207.0300  150.1380 C   0  0  0  0  0  2  0  0  0  0  0  0
  162.0560  207.4100  150.2610 C   0  0  1  0  0  0  0  0  0  0  0  0
  160.4180  206.6890  148.6950 C   0  0  0  0  0  2  0  0  0  0  0  0
  162.7280  207.0330  149.0760 O   0  0  0  0  0  0  0  0  0  0  0  0
  162.7010  206.6860  151.4510 C   0  0  0  0  0  2  0  0  0  0  0  0
  161.9450  205.4730  151.8920 C   0  0  0  0  0  0  0  0  0  0  0  0
  161.8920  204.4590  151.1480 O   0  0  0  0  0  0  0  0  0  0  0  0
  161.2630  205.4720  153.1410 N   0  0  0  0  0  1  0  0  0  0  0  0
  162.0260  206.6070  146.8170 C   0  0  0  0  0  2  0  0  0  0  0  0
  161.2880  204.3610  146.0190 O   0  0  0  0  0  1  0  0  0  0  0  0
  160.2610  206.2620  145.2540 O   0  0  0  0  0  0  0  0  0  0  0  0
  161.1500  205.7420  145.9780 C   0  0  0  0  0  0  0  0  0  0  0  0
  162.0470  209.4000  151.9160 C   0  0  1  0  0  3  0  0  0  0  0  0
  163.0620  210.2950  152.2660 O   0  0  0  0  0  1  0  0  0  0  0  0
  160.7080  211.4170  151.9390 O   0  0  0  0  0  1  0  0  0  0  0  0
  160.6790  210.0360  152.1690 C   0  0  2  0  0  3  0  0  0  0  0  0
  160.1370  209.7050  153.5630 C   0  0  1  0  0  3  0  0  0  0  0  0
  160.9930  208.6630  154.2730 C   0  0  0  0  0  2  0  0  0  0  0  0
  161.5410  209.2070  155.4350 O   0  0  0  0  0  1  0  0  0  0  0  0
  160.0420  210.9670  154.4130 C   0  0  0  0  0  2  0  0  0  0  0  0
  158.2820  211.2130  156.1620 O   0  0  0  0  0  1  0  0  0  0  0  0
  157.7520  211.4310  153.9440 O   0  0  0  0  0  0  0  0  0  0  0  0
  158.6320  211.2270  154.8190 C   0  0  0  0  0  0  0  0  0  0  0  0
  161.2670  209.6120  149.6410 O   0  0  0  0  0  0  0  0  0  0  0  0
  162.8270  211.3550  149.1290 C   0  0  0  0  0  2  0  0  0  0  0  0
  161.0680  210.5910  147.4590 C   0  0  0  0  0  2  0  0  0  0  0  0
  163.1410  212.3540  148.0200 C   0  0  0  0  0  2  0  0  0  0  0  0
  161.8560  212.8720  147.3520 C   0  0  0  0  0  2  0  0  0  0  0  0
  160.6940  212.0020  147.5940 N   0  0  0  0  0  0  0  0  0  0  0  0
  162.0100  210.1720  148.5950 C   0  0  2  0  0  3  0  0  0  0  0  0
  159.6250  212.3240  146.6440 C   0  0  0  0  0  2  0  0  0  0  0  0
  160.1410  212.9310  145.3390 C   0  0  0  0  0  2  0  0  0  0  0  0
  160.8830  212.4300  143.3250 C   0  0  0  0  0  1  0  0  0  0  0  0
  159.9900  212.0050  144.3070 O   0  0  0  0  0  0  0  0  0  0  0  0
  1 26  1  6  0  0  0
  1 15  1  0  0  0  0
  2 11  1  6  0  0  0
  2  5  1  0  0  0  0
  2  6  1  0  0  0  0
  3  4  1  0  0  0  0
  4  1  1  0  0  0  0
  4  7  1  1  0  0  0
  5  3  1  0  0  0  0
  6  4  1  0  0  0  0
  7  8  1  0  0  0  0
  8 10  1  0  0  0  0
  9  8  2  0  0  0  0
 13 14  2  0  0  0  0
 14 12  1  0  0  0  0
 14 11  1  0  0  0  0
 15 18  1  0  0  0  0
 15 16  1  6  0  0  0
 18 17  1  1  0  0  0
 18 19  1  0  0  0  0
 19 20  1  1  0  0  0
 19 22  1  0  0  0  0
 20 21  1  0  0  0  0
 22 25  1  0  0  0  0
 24 25  2  0  0  0  0
 25 23  1  0  0  0  0
 28 31  1  0  0  0  0
 28 32  1  0  0  0  0
 29 27  1  0  0  0  0
 30 31  1  0  0  0  0
 30 29  1  0  0  0  0
 32 27  1  0  0  0  0
 32 26  1  1  0  0  0
 33 31  1  0  0  0  0
 34 33  1  0  0  0  0
 35 36  1  0  0  0  0
 36 34  1  0  0  0  0
M  END
>  <MODEL>
3

>  <REMARK>
 VINA RESULT:      -4.9      2.841      6.647
  Name = 
  16 active torsions:
  status: ('A' for Active; 'I' for Inactive)
    1  A    between atoms: C_1  and  C_12
    2  A    between atoms: C_1  and  C_30
    3  A    between atoms: C_2  and  C_11
    4  A    between atoms: C_5  and  C_10
    5  A    between atoms: C_6  and  C_26
    6  A    between atoms: C_6  and  N_31
    7  A    between atoms: C_10  and  C_36
    8  A    between atoms: C_11  and  C_21
    9  A    between atoms: C_12  and  C_24
   10  A    between atoms: O_18  and  C_26
   11  A    between atoms: C_20  and  C_34
   12  A    between atoms: C_21  and  C_30
   13  A    between atoms: O_23  and  C_30
   14  A    between atoms: O_23  and  C_32
   15  A    between atoms: C_24  and  C_33
   16  A    between atoms: C_24  and  C_34
                            x       y       z     vdW  Elec       q    Type
                         _______ _______ _______ _____ _____    ______ ____

>  <TORSDO>
F 16

$$$$
=
 OpenBabel11072413303D

 36 37  0  0  1  0  0  0  0  0999 V2000
  161.4240  207.9490  151.1690 C   0  0  2  0  0  3  0  0  0  0  0  0
  161.4840  207.5370  147.7640 C   0  0  2  0  0  3  0  0  0  0  0  0
  163.1560  207.9770  149.3360 C   0  0  0  0  0  2  0  0  0  0  0  0
  161.8070  208.5290  149.7840 C   0  0  1  0  0  0  0  0  0  0  0  0
  162.8100  207.0170  148.2470 C   0  0  0  0  0  2  0  0  0  0  0  0
  160.8200  208.1510  148.8440 O   0  0  0  0  0  0  0  0  0  0  0  0
  161.8530  210.0620  149.8660 C   0  0  0  0  0  2  0  0  0  0  0  0
  162.0670  210.7240  148.5430 C   0  0  0  0  0  0  0  0  0  0  0  0
  163.2320  210.8590  148.0860 O   0  0  0  0  0  0  0  0  0  0  0  0
  160.9560  211.2250  147.8080 N   0  0  0  0  0  1  0  0  0  0  0  0
  160.6510  206.3950  147.2110 C   0  0  0  0  0  2  0  0  0  0  0  0
  162.2690  205.4500  145.5630 O   0  0  0  0  0  1  0  0  0  0  0  0
  160.2930  206.3710  144.8560 O   0  0  0  0  0  0  0  0  0  0  0  0
  161.0590  206.0850  145.8120 C   0  0  0  0  0  0  0  0  0  0  0  0
  161.7750  208.8830  152.3470 C   0  0  1  0  0  3  0  0  0  0  0  0
  162.5950  209.9330  151.9220 O   0  0  0  0  0  1  0  0  0  0  0  0
  160.2530  210.7490  152.6000 O   0  0  0  0  0  1  0  0  0  0  0  0
  160.5190  209.4410  153.0190 C   0  0  2  0  0  3  0  0  0  0  0  0
  160.5870  209.3380  154.5460 C   0  0  1  0  0  3  0  0  0  0  0  0
  159.5430  210.2180  155.2220 C   0  0  0  0  0  2  0  0  0  0  0  0
  160.1710  211.2230  155.9590 O   0  0  0  0  0  1  0  0  0  0  0  0
  160.4160  207.8900  154.9920 C   0  0  0  0  0  2  0  0  0  0  0  0
  160.4270  206.7720  157.2210 O   0  0  0  0  0  1  0  0  0  0  0  0
  162.0120  208.3440  156.7030 O   0  0  0  0  0  0  0  0  0  0  0  0
  161.0060  207.6800  156.3450 C   0  0  0  0  0  0  0  0  0  0  0  0
  162.0400  206.7010  151.3500 O   0  0  0  0  0  0  0  0  0  0  0  0
  161.4430  204.8160  152.7020 C   0  0  0  0  0  2  0  0  0  0  0  0
  160.5980  205.0840  150.3180 C   0  0  0  0  0  2  0  0  0  0  0  0
  160.6760  203.5020  152.6010 C   0  0  0  0  0  2  0  0  0  0  0  0
  160.8510  202.8560  151.2160 C   0  0  0  0  0  2  0  0  0  0  0  0
  161.3100  203.8090  150.1930 N   0  0  0  0  0  0  0  0  0  0  0  0
  161.0000  205.8020  151.6130 C   0  0  2  0  0  3  0  0  0  0  0  0
  161.0920  203.2480  148.8560 C   0  0  0  0  0  2  0  0  0  0  0  0
  160.6120  201.7970  148.8820 C   0  0  0  0  0  2  0  0  0  0  0  0
  161.0030  202.1960  146.7510 C   0  0  0  0  0  1  0  0  0  0  0  0
  160.9720  201.1680  147.6910 O   0  0  0  0  0  0  0  0  0  0  0  0
  1 26  1  1  0  0  0
  1 15  1  0  0  0  0
  2 11  1  1  0  0  0
  2  5  1  0  0  0  0
  2  6  1  0  0  0  0
  3  4  1  0  0  0  0
  4  7  1  1  0  0  0
  4  1  1  0  0  0  0
  5  3  1  0  0  0  0
  6  4  1  0  0  0  0
  8  7  1  0  0  0  0
  9  8  2  0  0  0  0
 10  8  1  0  0  0  0
 12 14  1  0  0  0  0
 13 14  2  0  0  0  0
 14 11  1  0  0  0  0
 15 16  1  6  0  0  0
 15 18  1  0  0  0  0
 18 17  1  1  0  0  0
 18 19  1  0  0  0  0
 19 22  1  6  0  0  0
 19 20  1  0  0  0  0
 20 21  1  0  0  0  0
 22 25  1  0  0  0  0
 25 24  2  0  0  0  0
 25 23  1  0  0  0  0
 28 32  1  0  0  0  0
 29 27  1  0  0  0  0
 30 29  1  0  0  0  0
 31 28  1  0  0  0  0
 31 30  1  0  0  0  0
 32 26  1  6  0  0  0
 32 27  1  0  0  0  0
 33 34  1  0  0  0  0
 33 31  1  0  0  0  0
 35 36  1  0  0  0  0
 36 34  1  0  0  0  0
M  END
>  <MODEL>
4

>  <REMARK>
 VINA RESULT:      -4.6      2.181      6.250
  Name = 
  16 active torsions:
  status: ('A' for Active; 'I' for Inactive)
    1  A    between atoms: C_1  and  C_12
    2  A    between atoms: C_1  and  C_30
    3  A    between atoms: C_2  and  C_11
    4  A    between atoms: C_5  and  C_10
    5  A    between atoms: C_6  and  C_26
    6  A    between atoms: C_6  and  N_31
    7  A    between atoms: C_10  and  C_36
    8  A    between atoms: C_11  and  C_21
    9  A    between atoms: C_12  and  C_24
   10  A    between atoms: O_18  and  C_26
   11  A    between atoms: C_20  and  C_34
   12  A    between atoms: C_21  and  C_30
   13  A    between atoms: O_23  and  C_30
   14  A    between atoms: O_23  and  C_32
   15  A    between atoms: C_24  and  C_33
   16  A    between atoms: C_24  and  C_34
                            x       y       z     vdW  Elec       q    Type
                         _______ _______ _______ _____ _____    ______ ____

>  <TORSDO>
F 16

$$$$
=
 OpenBabel11072413303D

 36 37  0  0  1  0  0  0  0  0999 V2000
  161.5960  209.0120  150.3880 C   0  0  2  0  0  3  0  0  0  0  0  0
  161.6240  206.2820  148.3110 C   0  0  2  0  0  3  0  0  0  0  0  0
  160.4450  206.7710  150.2670 C   0  0  0  0  0  2  0  0  0  0  0  0
  161.7930  207.4820  150.2340 C   0  0  1  0  0  0  0  0  0  0  0  0
  160.2230  206.3500  148.8530 C   0  0  0  0  0  2  0  0  0  0  0  0
  162.4170  207.2270  148.9910 O   0  0  0  0  0  0  0  0  0  0  0  0
  162.7010  206.9670  151.3610 C   0  0  0  0  0  2  0  0  0  0  0  0
  162.1450  205.7790  152.0780 C   0  0  0  0  0  0  0  0  0  0  0  0
  162.1930  204.6410  151.5440 O   0  0  0  0  0  0  0  0  0  0  0  0
  161.5370  205.9380  153.3550 N   0  0  0  0  0  1  0  0  0  0  0  0
  161.6170  206.5720  146.8210 C   0  0  0  0  0  2  0  0  0  0  0  0
  160.8640  205.3460  144.7820 O   0  0  0  0  0  0  0  0  0  0  0  0
  161.8230  204.2160  146.5300 O   0  0  0  0  0  1  0  0  0  0  0  0
  161.4330  205.3110  146.0480 C   0  0  0  0  0  0  0  0  0  0  0  0
  162.2970  209.8370  149.2880 C   0  0  1  0  0  3  0  0  0  0  0  0
  162.7770  209.0050  148.2720 O   0  0  0  0  0  1  0  0  0  0  0  0
  161.0160  210.5940  147.3770 O   0  0  0  0  0  1  0  0  0  0  0  0
  161.3660  210.8990  148.6980 C   0  0  2  0  0  3  0  0  0  0  0  0
  161.9490  212.3100  148.8190 C   0  0  1  0  0  3  0  0  0  0  0  0
  163.2170  212.4740  147.9900 C   0  0  0  0  0  2  0  0  0  0  0  0
  162.9430  213.2170  146.8410 O   0  0  0  0  0  1  0  0  0  0  0  0
  160.9170  213.3510  148.4040 C   0  0  0  0  0  2  0  0  0  0  0  0
  160.6250  214.4530  150.6220 O   0  0  0  0  0  1  0  0  0  0  0  0
  158.8550  213.4190  149.5980 O   0  0  0  0  0  0  0  0  0  0  0  0
  160.0690  213.7470  149.5640 C   0  0  0  0  0  0  0  0  0  0  0  0
  162.0440  209.4250  151.6530 O   0  0  0  0  0  0  0  0  0  0  0  0
  160.5960  211.2460  152.2230 C   0  0  0  0  0  2  0  0  0  0  0  0
  161.0660  209.3420  153.8430 C   0  0  0  0  0  2  0  0  0  0  0  0
  159.7920  211.7720  153.4080 C   0  0  0  0  0  2  0  0  0  0  0  0
  160.5220  211.5190  154.7380 C   0  0  0  0  0  2  0  0  0  0  0  0
  161.5540  210.4750  154.6340 N   0  0  0  0  0  0  0  0  0  0  0  0
  160.8890  209.7470  152.3740 C   0  0  2  0  0  3  0  0  0  0  0  0
  161.9340  210.0170  155.9740 C   0  0  0  0  0  2  0  0  0  0  0  0
  160.8600  209.1600  156.6460 C   0  0  0  0  0  2  0  0  0  0  0  0
  160.3100  207.0830  157.1360 C   0  0  0  0  0  1  0  0  0  0  0  0
  161.4090  207.9310  157.0100 O   0  0  0  0  0  0  0  0  0  0  0  0
  1 26  1  1  0  0  0
  2 11  1  6  0  0  0
  2  5  1  0  0  0  0
  2  6  1  0  0  0  0
  4  3  1  0  0  0  0
  4  1  1  0  0  0  0
  4  7  1  1  0  0  0
  5  3  1  0  0  0  0
  6  4  1  0  0  0  0
  7  8  1  0  0  0  0
  8 10  1  0  0  0  0
  9  8  2  0  0  0  0
 12 14  2  0  0  0  0
 14 13  1  0  0  0  0
 14 11  1  0  0  0  0
 15 16  1  6  0  0  0
 15  1  1  0  0  0  0
 18 17  1  6  0  0  0
 18 19  1  0  0  0  0
 18 15  1  0  0  0  0
 19 20  1  6  0  0  0
 21 20  1  0  0  0  0
 22 19  1  0  0  0  0
 22 25  1  0  0  0  0
 25 24  2  0  0  0  0
 25 23  1  0  0  0  0
 27 32  1  0  0  0  0
 27 29  1  0  0  0  0
 28 31  1  0  0  0  0
 29 30  1  0  0  0  0
 31 30  1  0  0  0  0
 31 33  1  0  0  0  0
 32 26  1  6  0  0  0
 32 28  1  0  0  0  0
 33 34  1  0  0  0  0
 34 36  1  0  0  0  0
 36 35  1  0  0  0  0
M  END
>  <MODEL>
5

>  <REMARK>
 VINA RESULT:      -4.5      2.391      6.265
  Name = 
  16 active torsions:
  status: ('A' for Active; 'I' for Inactive)
    1  A    between atoms: C_1  and  C_12
    2  A    between atoms: C_1  and  C_30
    3  A    between atoms: C_2  and  C_11
    4  A    between atoms: C_5  and  C_10
    5  A    between atoms: C_6  and  C_26
    6  A    between atoms: C_6  and  N_31
    7  A    between atoms: C_10  and  C_36
    8  A    between atoms: C_11  and  C_21
    9  A    between atoms: C_12  and  C_24
   10  A    between atoms: O_18  and  C_26
   11  A    between atoms: C_20  and  C_34
   12  A    between atoms: C_21  and  C_30
   13  A    between atoms: O_23  and  C_30
   14  A    between atoms: O_23  and  C_32
   15  A    between atoms: C_24  and  C_33
   16  A    between atoms: C_24  and  C_34
                            x       y       z     vdW  Elec       q    Type
                         _______ _______ _______ _____ _____    ______ ____

>  <TORSDO>
F 16

$$$$
=
 OpenBabel11072413303D

 36 37  0  0  1  0  0  0  0  0999 V2000
  161.6790  209.0450  151.6480 C   0  0  2  0  0  3  0  0  0  0  0  0
  159.4470  210.6760  153.6780 C   0  0  2  0  0  3  0  0  0  0  0  0
  161.7270  210.2130  153.8830 C   0  0  0  0  0  2  0  0  0  0  0  0
  161.0140  209.1580  153.0440 C   0  0  1  0  0  0  0  0  0  0  0  0
  160.7670  211.3540  153.9210 C   0  0  0  0  0  2  0  0  0  0  0  0
  159.6640  209.5400  152.8750 O   0  0  0  0  0  0  0  0  0  0  0  0
  161.0600  207.7920  153.7440 C   0  0  0  0  0  2  0  0  0  0  0  0
  160.8760  207.8750  155.2250 C   0  0  0  0  0  0  0  0  0  0  0  0
  161.8730  208.0370  155.9760 O   0  0  0  0  0  0  0  0  0  0  0  0
  159.5770  207.7450  155.7910 N   0  0  0  0  0  1  0  0  0  0  0  0
  158.4910  211.6350  152.9920 C   0  0  0  0  0  2  0  0  0  0  0  0
  157.9320  213.6790  154.3100 O   0  0  0  0  0  0  0  0  0  0  0  0
  156.6950  211.7640  154.5510 O   0  0  0  0  0  1  0  0  0  0  0  0
  157.6610  212.3530  154.0010 C   0  0  0  0  0  0  0  0  0  0  0  0
  162.0730  210.4090  151.0410 C   0  0  1  0  0  3  0  0  0  0  0  0
  163.4490  210.6240  151.1550 O   0  0  0  0  0  1  0  0  0  0  0  0
  162.6700  210.1110  148.7130 O   0  0  0  0  0  1  0  0  0  0  0  0
  161.6450  210.5200  149.5760 C   0  0  2  0  0  3  0  0  0  0  0  0
  161.1350  211.9210  149.2280 C   0  0  1  0  0  3  0  0  0  0  0  0
  160.7100  212.6960  150.4690 C   0  0  0  0  0  2  0  0  0  0  0  0
  159.8040  213.6980  150.1180 O   0  0  0  0  0  1  0  0  0  0  0  0
  162.1990  212.7020  148.4650 C   0  0  0  0  0  2  0  0  0  0  0  0
  160.3900  213.1970  146.8220 O   0  0  0  0  0  1  0  0  0  0  0  0
  162.5740  213.0660  146.1390 O   0  0  0  0  0  0  0  0  0  0  0  0
  161.7410  213.0070  147.0800 C   0  0  0  0  0  0  0  0  0  0  0  0
  160.8270  208.3590  150.7680 O   0  0  0  0  0  0  0  0  0  0  0  0
  161.1150  207.1980  148.6940 C   0  0  0  0  0  2  0  0  0  0  0  0
  161.6540  206.1120  150.9300 C   0  0  0  0  0  2  0  0  0  0  0  0
  161.5040  205.8180  148.1710 C   0  0  0  0  0  2  0  0  0  0  0  0
  160.9780  204.7020  149.0890 C   0  0  0  0  0  2  0  0  0  0  0  0
  160.6340  205.1840  150.4370 N   0  0  0  0  0  0  0  0  0  0  0  0
  161.6330  207.4160  150.1210 C   0  0  2  0  0  3  0  0  0  0  0  0
  160.5130  204.0470  151.3550 C   0  0  0  0  0  2  0  0  0  0  0  0
  161.3160  202.8240  150.9110 C   0  0  0  0  0  2  0  0  0  0  0  0
  161.0680  201.0490  149.6280 C   0  0  0  0  0  1  0  0  0  0  0  0
  160.4440  201.7690  150.6460 O   0  0  0  0  0  0  0  0  0  0  0  0
  1 26  1  6  0  0  0
  1  4  1  0  0  0  0
  2 11  1  6  0  0  0
  2  5  1  0  0  0  0
  3  5  1  0  0  0  0
  4  7  1  1  0  0  0
  4  3  1  0  0  0  0
  6  4  1  0  0  0  0
  6  2  1  0  0  0  0
  7  8  1  0  0  0  0
  8 10  1  0  0  0  0
  8  9  2  0  0  0  0
 11 14  1  0  0  0  0
 14 12  2  0  0  0  0
 14 13  1  0  0  0  0
 15 16  1  6  0  0  0
 15  1  1  0  0  0  0
 18 17  1  6  0  0  0
 18 15  1  0  0  0  0
 19 22  1  1  0  0  0
 19 18  1  0  0  0  0
 19 20  1  0  0  0  0
 21 20  1  0  0  0  0
 23 25  1  0  0  0  0
 24 25  2  0  0  0  0
 25 22  1  0  0  0  0
 27 32  1  0  0  0  0
 29 27  1  0  0  0  0
 29 30  1  0  0  0  0
 30 31  1  0  0  0  0
 31 28  1  0  0  0  0
 31 33  1  0  0  0  0
 32 26  1  1  0  0  0
 32 28  1  0  0  0  0
 34 33  1  0  0  0  0
 35 36  1  0  0  0  0
 36 34  1  0  0  0  0
M  END
>  <MODEL>
6

>  <REMARK>
 VINA RESULT:      -4.3      2.518      8.089
  Name = 
  16 active torsions:
  status: ('A' for Active; 'I' for Inactive)
    1  A    between atoms: C_1  and  C_12
    2  A    between atoms: C_1  and  C_30
    3  A    between atoms: C_2  and  C_11
    4  A    between atoms: C_5  and  C_10
    5  A    between atoms: C_6  and  C_26
    6  A    between atoms: C_6  and  N_31
    7  A    between atoms: C_10  and  C_36
    8  A    between atoms: C_11  and  C_21
    9  A    between atoms: C_12  and  C_24
   10  A    between atoms: O_18  and  C_26
   11  A    between atoms: C_20  and  C_34
   12  A    between atoms: C_21  and  C_30
   13  A    between atoms: O_23  and  C_30
   14  A    between atoms: O_23  and  C_32
   15  A    between atoms: C_24  and  C_33
   16  A    between atoms: C_24  and  C_34
                            x       y       z     vdW  Elec       q    Type
                         _______ _______ _______ _____ _____    ______ ____

>  <TORSDO>
F 16

$$$$
=
 OpenBabel11072413303D

 36 37  0  0  1  0  0  0  0  0999 V2000
  161.9260  209.0770  149.6660 C   0  0  2  0  0  3  0  0  0  0  0  0
  161.9070  206.4370  151.8560 C   0  0  2  0  0  3  0  0  0  0  0  0
  160.5450  208.3220  151.6370 C   0  0  0  0  0  2  0  0  0  0  0  0
  161.9600  208.5930  151.1380 C   0  0  1  0  0  0  0  0  0  0  0  0
  160.4640  206.8340  151.7060 C   0  0  0  0  0  2  0  0  0  0  0  0
  162.7080  207.3950  151.2050 O   0  0  0  0  0  0  0  0  0  0  0  0
  162.6440  209.6560  152.0100 C   0  0  0  0  0  2  0  0  0  0  0  0
  161.7160  210.3240  152.9730 C   0  0  0  0  0  0  0  0  0  0  0  0
  161.7330  210.0040  154.1900 O   0  0  0  0  0  0  0  0  0  0  0  0
  160.7940  211.3050  152.5110 N   0  0  0  0  0  1  0  0  0  0  0  0
  162.1310  205.0620  151.2530 C   0  0  0  0  0  2  0  0  0  0  0  0
  160.8530  204.0250  153.1290 O   0  0  0  0  0  1  0  0  0  0  0  0
  160.4800  203.3690  150.9650 O   0  0  0  0  0  0  0  0  0  0  0  0
  161.1180  204.0980  151.7680 C   0  0  0  0  0  0  0  0  0  0  0  0
  162.5780  208.0870  148.6760 C   0  0  1  0  0  3  0  0  0  0  0  0
  163.4910  207.2570  149.3330 O   0  0  0  0  0  1  0  0  0  0  0  0
  160.3780  207.0770  148.7280 O   0  0  0  0  0  1  0  0  0  0  0  0
  161.5310  207.2410  147.9500 C   0  0  2  0  0  3  0  0  0  0  0  0
  162.0970  205.8970  147.4830 C   0  0  1  0  0  3  0  0  0  0  0  0
  161.2100  204.7300  147.9020 C   0  0  0  0  0  2  0  0  0  0  0  0
  161.9480  203.5460  147.9010 O   0  0  0  0  0  1  0  0  0  0  0  0
  162.2830  205.8920  145.9700 C   0  0  0  0  0  2  0  0  0  0  0  0
  160.9430  204.1600  144.7780 O   0  0  0  0  0  0  0  0  0  0  0  0
  160.0770  206.2500  145.1410 O   0  0  0  0  0  1  0  0  0  0  0  0
  161.0360  205.4490  145.2850 C   0  0  0  0  0  0  0  0  0  0  0  0
  162.5440  210.3330  149.5620 O   0  0  0  0  0  0  0  0  0  0  0  0
  163.0080  211.8660  147.7820 C   0  0  0  0  0  2  0  0  0  0  0  0
  160.7040  211.6980  148.8460 C   0  0  0  0  0  2  0  0  0  0  0  0
  162.3290  212.9790  146.9920 C   0  0  0  0  0  2  0  0  0  0  0  0
  161.3870  213.8060  147.8840 C   0  0  0  0  0  2  0  0  0  0  0  0
  161.0090  213.1040  149.1220 N   0  0  0  0  0  0  0  0  0  0  0  0
  161.9750  210.9400  148.4370 C   0  0  2  0  0  3  0  0  0  0  0  0
  159.8420  213.7550  149.7250 C   0  0  0  0  0  2  0  0  0  0  0  0
  158.8530  214.2980  148.6940 C   0  0  0  0  0  2  0  0  0  0  0  0
  157.4770  212.9600  147.6100 C   0  0  0  0  0  1  0  0  0  0  0  0
  157.6360  213.6300  148.8220 O   0  0  0  0  0  0  0  0  0  0  0  0
  1 26  1  1  0  0  0
  1  4  1  0  0  0  0
  2 11  1  6  0  0  0
  3  5  1  0  0  0  0
  4  6  1  0  0  0  0
  4  3  1  0  0  0  0
  4  7  1  1  0  0  0
  5  2  1  0  0  0  0
  6  2  1  0  0  0  0
  7  8  1  0  0  0  0
  8  9  2  0  0  0  0
 10  8  1  0  0  0  0
 11 14  1  0  0  0  0
 13 14  2  0  0  0  0
 14 12  1  0  0  0  0
 15 16  1  1  0  0  0
 15  1  1  0  0  0  0
 18 15  1  0  0  0  0
 18 17  1  1  0  0  0
 19 22  1  6  0  0  0
 19 20  1  0  0  0  0
 19 18  1  0  0  0  0
 21 20  1  0  0  0  0
 23 25  2  0  0  0  0
 24 25  1  0  0  0  0
 25 22  1  0  0  0  0
 27 32  1  0  0  0  0
 28 31  1  0  0  0  0
 29 27  1  0  0  0  0
 29 30  1  0  0  0  0
 30 31  1  0  0  0  0
 31 33  1  0  0  0  0
 32 28  1  0  0  0  0
 32 26  1  1  0  0  0
 34 36  1  0  0  0  0
 34 33  1  0  0  0  0
 35 36  1  0  0  0  0
M  END
>  <MODEL>
7

>  <REMARK>
 VINA RESULT:      -4.1      2.382      5.236
  Name = 
  16 active torsions:
  status: ('A' for Active; 'I' for Inactive)
    1  A    between atoms: C_1  and  C_12
    2  A    between atoms: C_1  and  C_30
    3  A    between atoms: C_2  and  C_11
    4  A    between atoms: C_5  and  C_10
    5  A    between atoms: C_6  and  C_26
    6  A    between atoms: C_6  and  N_31
    7  A    between atoms: C_10  and  C_36
    8  A    between atoms: C_11  and  C_21
    9  A    between atoms: C_12  and  C_24
   10  A    between atoms: O_18  and  C_26
   11  A    between atoms: C_20  and  C_34
   12  A    between atoms: C_21  and  C_30
   13  A    between atoms: O_23  and  C_30
   14  A    between atoms: O_23  and  C_32
   15  A    between atoms: C_24  and  C_33
   16  A    between atoms: C_24  and  C_34
                            x       y       z     vdW  Elec       q    Type
                         _______ _______ _______ _____ _____    ______ ____

>  <TORSDO>
F 16

$$$$
=
 OpenBabel11072413303D

 36 37  0  0  1  0  0  0  0  0999 V2000
  161.9090  205.9500  149.4500 C   0  0  2  0  0  3  0  0  0  0  0  0
  160.9840  206.2680  152.7380 C   0  0  2  0  0  3  0  0  0  0  0  0
  162.5120  204.8750  151.6510 C   0  0  0  0  0  2  0  0  0  0  0  0
  161.3620  205.2700  150.7320 C   0  0  1  0  0  0  0  0  0  0  0  0
  162.4290  205.8540  152.7740 C   0  0  0  0  0  2  0  0  0  0  0  0
  160.5240  206.1850  151.4100 O   0  0  0  0  0  0  0  0  0  0  0  0
  160.5360  204.0340  150.3420 C   0  0  0  0  0  2  0  0  0  0  0  0
  160.7110  202.8820  151.2780 C   0  0  0  0  0  0  0  0  0  0  0  0
  160.3260  202.9760  152.4730 O   0  0  0  0  0  0  0  0  0  0  0  0
  161.3370  201.6860  150.8280 N   0  0  0  0  0  1  0  0  0  0  0  0
  160.8380  207.6860  153.2610 C   0  0  0  0  0  2  0  0  0  0  0  0
  161.4960  208.6670  155.4590 O   0  0  0  0  0  1  0  0  0  0  0  0
  160.1370  206.8230  155.3680 O   0  0  0  0  0  0  0  0  0  0  0  0
  160.8090  207.6890  154.7510 C   0  0  0  0  0  0  0  0  0  0  0  0
  162.5570  207.3260  149.7120 C   0  0  1  0  0  3  0  0  0  0  0  0
  163.6160  207.5530  148.8280 O   0  0  0  0  0  1  0  0  0  0  0  0
  161.2050  208.7280  148.2720 O   0  0  0  0  0  1  0  0  0  0  0  0
  161.5360  208.4610  149.6060 C   0  0  2  0  0  3  0  0  0  0  0  0
  161.9970  209.7240  150.3400 C   0  0  1  0  0  3  0  0  0  0  0  0
  162.3970  210.8300  149.3710 C   0  0  0  0  0  2  0  0  0  0  0  0
  161.4540  211.8580  149.4060 O   0  0  0  0  0  1  0  0  0  0  0  0
  160.9070  210.2240  151.2800 C   0  0  0  0  0  2  0  0  0  0  0  0
  160.7330  211.4460  153.4470 O   0  0  0  0  0  1  0  0  0  0  0  0
  162.6790  210.3840  152.8650 O   0  0  0  0  0  0  0  0  0  0  0  0
  161.4910  210.6760  152.5750 C   0  0  0  0  0  0  0  0  0  0  0  0
  160.8810  206.0790  148.5030 O   0  0  0  0  0  0  0  0  0  0  0  0
  160.5250  206.3590  146.1520 C   0  0  0  0  0  2  0  0  0  0  0  0
  161.9520  204.4700  147.0800 C   0  0  0  0  0  2  0  0  0  0  0  0
  160.8470  205.6680  144.8300 C   0  0  0  0  0  2  0  0  0  0  0  0
  160.8140  204.1380  144.9760 C   0  0  0  0  0  2  0  0  0  0  0  0
  160.9300  203.6930  146.3740 N   0  0  0  0  0  0  0  0  0  0  0  0
  161.4970  205.9250  147.2560 C   0  0  2  0  0  3  0  0  0  0  0  0
  161.2750  202.2680  146.4150 C   0  0  0  0  0  2  0  0  0  0  0  0
  160.8210  201.5740  147.6990 C   0  0  0  0  0  2  0  0  0  0  0  0
  161.3470  199.8600  146.4180 C   0  0  0  0  0  1  0  0  0  0  0  0
  161.3550  200.2870  147.7440 O   0  0  0  0  0  0  0  0  0  0  0  0
  1 26  1  6  0  0  0
  1 15  1  0  0  0  0
  1  4  1  0  0  0  0
  2  5  1  0  0  0  0
  2 11  1  6  0  0  0
  3  5  1  0  0  0  0
  4  7  1  6  0  0  0
  4  6  1  0  0  0  0
  4  3  1  0  0  0  0
  6  2  1  0  0  0  0
  7  8  1  0  0  0  0
  8  9  2  0  0  0  0
 10  8  1  0  0  0  0
 11 14  1  0  0  0  0
 14 13  2  0  0  0  0
 14 12  1  0  0  0  0
 15 16  1  6  0  0  0
 18 17  1  6  0  0  0
 18 15  1  0  0  0  0
 18 19  1  0  0  0  0
 19 20  1  6  0  0  0
 19 22  1  0  0  0  0
 20 21  1  0  0  0  0
 22 25  1  0  0  0  0
 25 24  2  0  0  0  0
 25 23  1  0  0  0  0
 27 32  1  0  0  0  0
 28 32  1  0  0  0  0
 29 30  1  0  0  0  0
 29 27  1  0  0  0  0
 30 31  1  0  0  0  0
 31 33  1  0  0  0  0
 31 28  1  0  0  0  0
 32 26  1  1  0  0  0
 33 34  1  0  0  0  0
 34 36  1  0  0  0  0
 35 36  1  0  0  0  0
M  END
>  <MODEL>
8

>  <REMARK>
 VINA RESULT:      -4.1      2.730      8.391
  Name = 
  16 active torsions:
  status: ('A' for Active; 'I' for Inactive)
    1  A    between atoms: C_1  and  C_12
    2  A    between atoms: C_1  and  C_30
    3  A    between atoms: C_2  and  C_11
    4  A    between atoms: C_5  and  C_10
    5  A    between atoms: C_6  and  C_26
    6  A    between atoms: C_6  and  N_31
    7  A    between atoms: C_10  and  C_36
    8  A    between atoms: C_11  and  C_21
    9  A    between atoms: C_12  and  C_24
   10  A    between atoms: O_18  and  C_26
   11  A    between atoms: C_20  and  C_34
   12  A    between atoms: C_21  and  C_30
   13  A    between atoms: O_23  and  C_30
   14  A    between atoms: O_23  and  C_32
   15  A    between atoms: C_24  and  C_33
   16  A    between atoms: C_24  and  C_34
                            x       y       z     vdW  Elec       q    Type
                         _______ _______ _______ _____ _____    ______ ____

>  <TORSDO>
F 16

$$$$
=
 OpenBabel11072413303D

 36 37  0  0  1  0  0  0  0  0999 V2000
  161.5580  209.0650  150.1670 C   0  0  2  0  0  3  0  0  0  0  0  0
  160.4550  210.3100  153.1670 C   0  0  2  0  0  3  0  0  0  0  0  0
  162.3870  209.1510  152.5480 C   0  0  0  0  0  2  0  0  0  0  0  0
  161.2060  208.7920  151.6520 C   0  0  1  0  0  0  0  0  0  0  0  0
  161.9550  210.4070  153.2280 C   0  0  0  0  0  2  0  0  0  0  0  0
  160.0970  209.5910  152.0110 O   0  0  0  0  0  0  0  0  0  0  0  0
  160.8300  207.3130  151.8240 C   0  0  0  0  0  2  0  0  0  0  0  0
  161.2040  206.7550  153.1600 C   0  0  0  0  0  0  0  0  0  0  0  0
  162.1680  205.9510  153.2600 O   0  0  0  0  0  0  0  0  0  0  0  0
  160.4560  207.1110  154.3170 N   0  0  0  0  0  1  0  0  0  0  0  0
  159.8480  211.7010  153.1350 C   0  0  0  0  0  2  0  0  0  0  0  0
  160.0720  212.5600  155.4670 O   0  0  0  0  0  1  0  0  0  0  0  0
  158.0310  211.8940  154.6630 O   0  0  0  0  0  0  0  0  0  0  0  0
  159.2640  212.0440  154.4620 C   0  0  0  0  0  0  0  0  0  0  0  0
  162.2870  207.8910  149.4800 C   0  0  1  0  0  3  0  0  0  0  0  0
  162.7490  206.9700  150.4260 O   0  0  0  0  0  1  0  0  0  0  0  0
  160.1110  206.9530  148.9820 O   0  0  0  0  0  1  0  0  0  0  0  0
  161.3900  207.1870  148.4610 C   0  0  2  0  0  3  0  0  0  0  0  0
  162.0260  205.9030  147.9200 C   0  0  1  0  0  3  0  0  0  0  0  0
  161.1350  204.6870  148.1490 C   0  0  0  0  0  2  0  0  0  0  0  0
  161.5800  203.9730  149.2620 O   0  0  0  0  0  1  0  0  0  0  0  0
  162.3400  206.0460  146.4360 C   0  0  0  0  0  2  0  0  0  0  0  0
  160.0800  206.2020  145.3920 O   0  0  0  0  0  1  0  0  0  0  0  0
  161.3580  204.3200  145.1180 O   0  0  0  0  0  0  0  0  0  0  0  0
  161.2430  205.4740  145.6050 C   0  0  0  0  0  0  0  0  0  0  0  0
  162.3320  210.2320  150.0680 O   0  0  0  0  0  0  0  0  0  0  0  0
  163.1050  211.5990  148.2600 C   0  0  0  0  0  2  0  0  0  0  0  0
  160.7480  211.8070  149.1910 C   0  0  0  0  0  2  0  0  0  0  0  0
  162.6350  212.7590  147.3880 C   0  0  0  0  0  2  0  0  0  0  0  0
  161.7750  213.7500  148.1900 C   0  0  0  0  0  2  0  0  0  0  0  0
  161.2350  213.1680  149.4300 N   0  0  0  0  0  0  0  0  0  0  0  0
  161.9160  210.8600  148.8890 C   0  0  2  0  0  3  0  0  0  0  0  0
  160.1430  214.0040  149.9380 C   0  0  0  0  0  2  0  0  0  0  0  0
  158.9130  214.0070  149.0300 C   0  0  0  0  0  2  0  0  0  0  0  0
  156.8330  213.3250  149.2760 C   0  0  0  0  0  1  0  0  0  0  0  0
  157.7690  214.2140  149.7990 O   0  0  0  0  0  0  0  0  0  0  0  0
  1 26  1  1  0  0  0
  1  4  1  0  0  0  0
  2 11  1  6  0  0  0
  2  5  1  0  0  0  0
  3  5  1  0  0  0  0
  4  7  1  1  0  0  0
  4  6  1  0  0  0  0
  4  3  1  0  0  0  0
  6  2  1  0  0  0  0
  7  8  1  0  0  0  0
  8  9  2  0  0  0  0
  8 10  1  0  0  0  0
 11 14  1  0  0  0  0
 14 13  2  0  0  0  0
 14 12  1  0  0  0  0
 15  1  1  0  0  0  0
 15 16  1  1  0  0  0
 18 17  1  1  0  0  0
 18 15  1  0  0  0  0
 19 22  1  6  0  0  0
 19 20  1  0  0  0  0
 19 18  1  0  0  0  0
 20 21  1  0  0  0  0
 23 25  1  0  0  0  0
 24 25  2  0  0  0  0
 25 22  1  0  0  0  0
 27 32  1  0  0  0  0
 28 31  1  0  0  0  0
 29 30  1  0  0  0  0
 29 27  1  0  0  0  0
 30 31  1  0  0  0  0
 31 33  1  0  0  0  0
 32 28  1  0  0  0  0
 32 26  1  1  0  0  0
 34 36  1  0  0  0  0
 34 33  1  0  0  0  0
 35 36  1  0  0  0  0
M  END
>  <MODEL>
9

>  <REMARK>
 VINA RESULT:      -4.0      2.200      6.058
  Name = 
  16 active torsions:
  status: ('A' for Active; 'I' for Inactive)
    1  A    between atoms: C_1  and  C_12
    2  A    between atoms: C_1  and  C_30
    3  A    between atoms: C_2  and  C_11
    4  A    between atoms: C_5  and  C_10
    5  A    between atoms: C_6  and  C_26
    6  A    between atoms: C_6  and  N_31
    7  A    between atoms: C_10  and  C_36
    8  A    between atoms: C_11  and  C_21
    9  A    between atoms: C_12  and  C_24
   10  A    between atoms: O_18  and  C_26
   11  A    between atoms: C_20  and  C_34
   12  A    between atoms: C_21  and  C_30
   13  A    between atoms: O_23  and  C_30
   14  A    between atoms: O_23  and  C_32
   15  A    between atoms: C_24  and  C_33
   16  A    between atoms: C_24  and  C_34
                            x       y       z     vdW  Elec       q    Type
                         _______ _______ _______ _____ _____    ______ ____

>  <TORSDO>
F 16

$$$$
