=
 OpenBabel11072414173D

 34 36  0  0  1  0  0  0  0  0999 V2000
  161.2510  208.8140  151.0990 C   0  0  2  0  0  3  0  0  0  0  0  0
  160.9090  208.4170  154.9220 C   0  0  0  0  0  0  0  0  0  0  0  0
  161.3490  208.1560  152.4480 C   0  0  0  0  0  0  0  0  0  0  0  0
  160.0760  209.9880  153.4210 N   0  0  0  0  0  0  0  0  0  0  0  0
  159.7000  210.3380  154.6090 C   0  0  0  0  0  0  0  0  0  0  0  0
  160.1460  209.4140  155.7120 C   0  0  0  0  0  2  0  0  0  0  0  0
  161.6100  207.4990  155.4200 O   0  0  0  0  0  0  0  0  0  0  0  0
  160.8170  208.7790  153.5160 C   0  0  0  0  0  0  0  0  0  0  0  0
  161.9790  206.8700  152.5380 N   0  0  0  0  0  2  0  0  0  0  0  0
  161.7030  204.5630  151.8550 C   0  0  0  0  0  1  0  0  0  0  0  0
  161.2480  205.6440  152.8120 C   0  0  0  0  0  2  0  0  0  0  0  0
  158.9410  211.4920  154.8150 O   0  0  0  0  0  0  0  0  0  0  0  0
  157.6440  211.6610  154.2600 C   0  0  0  0  0  2  0  0  0  0  0  0
  156.6060  210.9950  155.1430 C   0  0  0  0  0  1  0  0  0  0  0  0
  162.5730  207.7810  149.2000 C   0  0  0  0  0  3  0  0  0  0  0  0
  161.6170  205.9980  147.8620 C   0  0  0  0  0  0  0  0  0  0  0  0
  160.4460  206.0590  148.6240 C   0  0  0  0  0  3  0  0  0  0  0  0
  160.3380  206.9780  149.6720 C   0  0  0  0  0  3  0  0  0  0  0  0
  162.6820  206.8630  148.1520 C   0  0  0  0  0  3  0  0  0  0  0  0
  161.3990  207.8400  149.9670 C   0  0  0  0  0  0  0  0  0  0  0  0
  161.7130  205.0070  146.7400 C   0  0  2  0  0  3  0  0  0  0  0  0
  161.1780  205.5760  145.5810 O   0  0  0  0  0  1  0  0  0  0  0  0
  161.0080  201.7980  148.7400 C   0  0  0  0  0  0  0  0  0  0  0  0
  160.8090  200.3040  145.5260 O   0  0  0  0  0  0  0  0  0  0  0  0
  161.1420  202.6490  145.9280 C   0  0  1  0  0  3  0  0  0  0  0  0
  161.6330  203.1080  148.3730 C   0  0  0  0  0  2  0  0  0  0  0  0
  161.0220  203.6740  147.0840 C   0  0  1  0  0  3  0  0  0  0  0  0
  160.8750  201.2310  146.3760 C   0  0  0  0  0  0  0  0  0  0  0  0
  160.8050  201.4560  150.1720 C   0  0  0  0  0  1  0  0  0  0  0  0
  160.1650  203.0040  144.8170 C   0  0  0  0  0  1  0  0  0  0  0  0
  160.7160  200.9030  147.8000 C   0  0  0  0  0  3  0  0  0  0  0  0
  163.0770  210.2150  151.7840 O   0  0  0  0  0  0  0  0  0  0  0  0
  161.9260  210.9300  149.9010 N   0  0  0  0  0  1  0  0  0  0  0  0
  162.1460  210.0080  150.9620 C   0  0  0  0  0  0  0  0  0  0  0  0
  1 34  1  1  0  0  0
  1  3  1  0  0  0  0
  2  7  2  0  0  0  0
  2  6  1  0  0  0  0
  3  9  1  0  0  0  0
  3  8  2  0  0  0  0
  4  8  1  0  0  0  0
  4  5  2  0  0  0  0
  5 12  1  0  0  0  0
  5  6  1  0  0  0  0
  8  2  1  0  0  0  0
  9 11  1  0  0  0  0
 10 11  1  0  0  0  0
 13 12  1  0  0  0  0
 13 14  1  0  0  0  0
 15 20  1  0  0  0  0
 16 19  1  0  0  0  0
 16 17  2  0  0  0  0
 17 18  1  0  0  0  0
 18 20  2  0  0  0  0
 19 15  2  0  0  0  0
 20  1  1  0  0  0  0
 21 22  1  6  0  0  0
 21 16  1  0  0  0  0
 23 29  1  0  0  0  0
 24 28  2  0  0  0  0
 25 30  1  6  0  0  0
 25 28  1  0  0  0  0
 25 27  1  0  0  0  0
 26 23  1  0  0  0  0
 27 21  1  6  0  0  0
 27 26  1  0  0  0  0
 28 31  1  0  0  0  0
 31 23  2  0  0  0  0
 33 34  1  0  0  0  0
 34 32  2  0  0  0  0
M  END
>  <MODEL>
1

>  <REMARK>
 VINA RESULT:      -8.0      0.000      0.000
  Name = 
  9 active torsions:
  status: ('A' for Active; 'I' for Inactive)
    1  A    between atoms: C_1  and  O_19
    2  A    between atoms: C_3  and  C_8
    3  A    between atoms: C_8  and  C_23
    4  A    between atoms: C_9  and  C_11
    5  A    between atoms: C_9  and  C_32
    6  A    between atoms: C_9  and  C_34
    7  A    between atoms: C_11  and  N_15
    8  A    between atoms: N_15  and  C_26
    9  A    between atoms: O_19  and  C_21
                            x       y       z     vdW  Elec       q    Type
                         _______ _______ _______ _____ _____    ______ ____

>  <TORSDO>
F 9

$$$$
=
 OpenBabel11072414173D

 34 36  0  0  1  0  0  0  0  0999 V2000
  161.0080  210.7720  154.7870 C   0  0  2  0  0  3  0  0  0  0  0  0
  157.2330  211.4860  155.1510 C   0  0  0  0  0  0  0  0  0  0  0  0
  159.6020  210.6220  155.3010 C   0  0  0  0  0  0  0  0  0  0  0  0
  158.8290  212.1940  153.6120 N   0  0  0  0  0  0  0  0  0  0  0  0
  157.7060  212.7630  153.3090 C   0  0  0  0  0  0  0  0  0  0  0  0
  156.5500  212.4000  154.2040 C   0  0  0  0  0  2  0  0  0  0  0  0
  156.7090  211.0180  156.1950 O   0  0  0  0  0  0  0  0  0  0  0  0
  158.6220  211.3530  154.7390 C   0  0  0  0  0  0  0  0  0  0  0  0
  159.3560  209.6760  156.3520 N   0  0  0  0  0  2  0  0  0  0  0  0
  160.1990  207.5400  157.1190 C   0  0  0  0  0  1  0  0  0  0  0  0
  159.2920  208.2410  156.1310 C   0  0  0  0  0  2  0  0  0  0  0  0
  157.6110  213.6410  152.2270 O   0  0  0  0  0  0  0  0  0  0  0  0
  158.2750  213.4060  150.9930 C   0  0  0  0  0  2  0  0  0  0  0  0
  157.2870  213.4810  149.8450 C   0  0  0  0  0  1  0  0  0  0  0  0
  160.6410  208.7230  153.3440 C   0  0  0  0  0  3  0  0  0  0  0  0
  161.7740  208.4980  151.2120 C   0  0  0  0  0  0  0  0  0  0  0  0
  162.3960  209.7340  151.4160 C   0  0  0  0  0  3  0  0  0  0  0  0
  162.1410  210.4630  152.5810 C   0  0  0  0  0  3  0  0  0  0  0  0
  160.8960  207.9920  152.1810 C   0  0  0  0  0  3  0  0  0  0  0  0
  161.2620  209.9640  153.5480 C   0  0  0  0  0  0  0  0  0  0  0  0
  162.0640  207.7290  149.9580 C   0  0  2  0  0  3  0  0  0  0  0  0
  161.7430  208.5190  148.8510 O   0  0  0  0  0  1  0  0  0  0  0  0
  161.1260  204.1720  151.0820 C   0  0  0  0  0  0  0  0  0  0  0  0
  161.1860  203.4750  147.6020 O   0  0  0  0  0  0  0  0  0  0  0  0
  161.5240  205.6480  148.5700 C   0  0  1  0  0  3  0  0  0  0  0  0
  161.8050  205.5060  151.0860 C   0  0  0  0  0  2  0  0  0  0  0  0
  161.3220  206.3790  149.9200 C   0  0  1  0  0  3  0  0  0  0  0  0
  161.1930  204.1760  148.6490 C   0  0  0  0  0  0  0  0  0  0  0  0
  160.7910  203.5150  152.3730 C   0  0  0  0  0  1  0  0  0  0  0  0
  160.6560  206.2890  147.4970 C   0  0  0  0  0  1  0  0  0  0  0  0
  160.9020  203.5320  149.9380 C   0  0  0  0  0  3  0  0  0  0  0  0
  162.6960  209.4820  155.9080 O   0  0  0  0  0  0  0  0  0  0  0  0
  162.2870  211.5820  156.8060 N   0  0  0  0  0  1  0  0  0  0  0  0
  162.0460  210.5600  155.8460 C   0  0  0  0  0  0  0  0  0  0  0  0
  1  3  1  1  0  0  0
  1 34  1  0  0  0  0
  2  7  2  0  0  0  0
  3  9  1  0  0  0  0
  4  8  1  0  0  0  0
  5  4  2  0  0  0  0
  5  6  1  0  0  0  0
  6  2  1  0  0  0  0
  8  2  1  0  0  0  0
  8  3  2  0  0  0  0
 11  9  1  0  0  0  0
 11 10  1  0  0  0  0
 12  5  1  0  0  0  0
 13 12  1  0  0  0  0
 14 13  1  0  0  0  0
 15 20  1  0  0  0  0
 16 17  2  0  0  0  0
 16 19  1  0  0  0  0
 17 18  1  0  0  0  0
 18 20  2  0  0  0  0
 19 15  2  0  0  0  0
 20  1  1  0  0  0  0
 21 22  1  6  0  0  0
 21 16  1  0  0  0  0
 23 26  1  0  0  0  0
 23 29  1  0  0  0  0
 24 28  2  0  0  0  0
 25 30  1  6  0  0  0
 25 28  1  0  0  0  0
 25 27  1  0  0  0  0
 27 21  1  6  0  0  0
 27 26  1  0  0  0  0
 28 31  1  0  0  0  0
 31 23  2  0  0  0  0
 34 32  2  0  0  0  0
 34 33  1  0  0  0  0
M  END
>  <MODEL>
2

>  <REMARK>
 VINA RESULT:      -7.1      2.413      4.467
  Name = 
  9 active torsions:
  status: ('A' for Active; 'I' for Inactive)
    1  A    between atoms: C_1  and  O_19
    2  A    between atoms: C_3  and  C_8
    3  A    between atoms: C_8  and  C_23
    4  A    between atoms: C_9  and  C_11
    5  A    between atoms: C_9  and  C_32
    6  A    between atoms: C_9  and  C_34
    7  A    between atoms: C_11  and  N_15
    8  A    between atoms: N_15  and  C_26
    9  A    between atoms: O_19  and  C_21
                            x       y       z     vdW  Elec       q    Type
                         _______ _______ _______ _____ _____    ______ ____

>  <TORSDO>
F 9

$$$$
=
 OpenBabel11072414173D

 34 36  0  0  1  0  0  0  0  0999 V2000
  161.2270  210.5640  154.1890 C   0  0  2  0  0  3  0  0  0  0  0  0
  158.0130  212.6510  153.7330 C   0  0  0  0  0  0  0  0  0  0  0  0
  159.8080  211.0090  154.4150 C   0  0  0  0  0  0  0  0  0  0  0  0
  159.9870  212.5130  152.5100 N   0  0  0  0  0  0  0  0  0  0  0  0
  159.2360  213.4060  151.9490 C   0  0  0  0  0  0  0  0  0  0  0  0
  157.9000  213.6150  152.6120 C   0  0  0  0  0  2  0  0  0  0  0  0
  157.1850  212.5530  154.6750 O   0  0  0  0  0  0  0  0  0  0  0  0
  159.2910  211.9650  153.6210 C   0  0  0  0  0  0  0  0  0  0  0  0
  159.0470  210.3700  155.4500 N   0  0  0  0  0  2  0  0  0  0  0  0
  159.4640  212.1930  156.9880 C   0  0  0  0  0  1  0  0  0  0  0  0
  159.1730  210.7140  156.8560 C   0  0  0  0  0  2  0  0  0  0  0  0
  159.6660  214.1040  150.8190 O   0  0  0  0  0  0  0  0  0  0  0  0
  159.6120  213.5470  149.5120 C   0  0  0  0  0  2  0  0  0  0  0  0
  161.0140  213.3660  148.9620 C   0  0  0  0  0  1  0  0  0  0  0  0
  160.6530  208.5440  152.7720 C   0  0  0  0  0  3  0  0  0  0  0  0
  161.7150  208.2080  150.6180 C   0  0  0  0  0  0  0  0  0  0  0  0
  162.4440  209.3880  150.7980 C   0  0  0  0  0  3  0  0  0  0  0  0
  162.2790  210.1440  151.9620 C   0  0  0  0  0  3  0  0  0  0  0  0
  160.8180  207.7870  151.6100 C   0  0  0  0  0  3  0  0  0  0  0  0
  161.3820  209.7290  152.9520 C   0  0  0  0  0  0  0  0  0  0  0  0
  161.9100  207.4090  149.3640 C   0  0  2  0  0  3  0  0  0  0  0  0
  161.4590  208.1530  148.2710 O   0  0  0  0  0  1  0  0  0  0  0  0
  161.0460  203.9490  150.8080 C   0  0  0  0  0  0  0  0  0  0  0  0
  161.2550  202.9150  147.4190 O   0  0  0  0  0  0  0  0  0  0  0  0
  161.4880  205.1830  148.1750 C   0  0  1  0  0  3  0  0  0  0  0  0
  161.6810  205.3000  150.7000 C   0  0  0  0  0  2  0  0  0  0  0  0
  161.2130  206.0370  149.4370 C   0  0  1  0  0  3  0  0  0  0  0  0
  161.2010  203.7150  148.3900 C   0  0  0  0  0  0  0  0  0  0  0  0
  160.6840  203.4120  152.1450 C   0  0  0  0  0  1  0  0  0  0  0  0
  160.6400  205.6830  147.0150 C   0  0  0  0  0  1  0  0  0  0  0  0
  160.8840  203.1920  149.7260 C   0  0  0  0  0  3  0  0  0  0  0  0
  161.6080  208.7340  155.6960 O   0  0  0  0  0  0  0  0  0  0  0  0
  162.6940  210.7120  156.2370 N   0  0  0  0  0  1  0  0  0  0  0  0
  161.8450  209.9350  155.4000 C   0  0  0  0  0  0  0  0  0  0  0  0
  1  3  1  1  0  0  0
  1 34  1  0  0  0  0
  2  7  2  0  0  0  0
  3  9  1  0  0  0  0
  4  8  1  0  0  0  0
  5  4  2  0  0  0  0
  5  6  1  0  0  0  0
  6  2  1  0  0  0  0
  8  2  1  0  0  0  0
  8  3  2  0  0  0  0
  9 11  1  0  0  0  0
 11 10  1  0  0  0  0
 12  5  1  0  0  0  0
 13 12  1  0  0  0  0
 14 13  1  0  0  0  0
 15 20  1  0  0  0  0
 16 17  2  0  0  0  0
 16 19  1  0  0  0  0
 17 18  1  0  0  0  0
 18 20  2  0  0  0  0
 19 15  2  0  0  0  0
 20  1  1  0  0  0  0
 21 22  1  6  0  0  0
 21 16  1  0  0  0  0
 23 29  1  0  0  0  0
 24 28  2  0  0  0  0
 25 30  1  6  0  0  0
 25 28  1  0  0  0  0
 25 27  1  0  0  0  0
 26 23  1  0  0  0  0
 27 21  1  6  0  0  0
 27 26  1  0  0  0  0
 28 31  1  0  0  0  0
 31 23  2  0  0  0  0
 34 32  2  0  0  0  0
 34 33  1  0  0  0  0
M  END
>  <MODEL>
3

>  <REMARK>
 VINA RESULT:      -7.1      2.298      4.686
  Name = 
  9 active torsions:
  status: ('A' for Active; 'I' for Inactive)
    1  A    between atoms: C_1  and  O_19
    2  A    between atoms: C_3  and  C_8
    3  A    between atoms: C_8  and  C_23
    4  A    between atoms: C_9  and  C_11
    5  A    between atoms: C_9  and  C_32
    6  A    between atoms: C_9  and  C_34
    7  A    between atoms: C_11  and  N_15
    8  A    between atoms: N_15  and  C_26
    9  A    between atoms: O_19  and  C_21
                            x       y       z     vdW  Elec       q    Type
                         _______ _______ _______ _____ _____    ______ ____

>  <TORSDO>
F 9

$$$$
=
 OpenBabel11072414173D

 34 36  0  0  1  0  0  0  0  0999 V2000
  160.9220  209.1820  151.7750 C   0  0  2  0  0  3  0  0  0  0  0  0
  159.3160  211.1020  154.7120 C   0  0  0  0  0  0  0  0  0  0  0  0
  160.5070  209.4740  153.1910 C   0  0  0  0  0  0  0  0  0  0  0  0
  159.1850  211.3590  152.4030 N   0  0  0  0  0  0  0  0  0  0  0  0
  158.4820  212.3010  152.9470 C   0  0  0  0  0  0  0  0  0  0  0  0
  158.4460  212.2740  154.4530 C   0  0  0  0  0  2  0  0  0  0  0  0
  159.7170  210.7500  155.8520 O   0  0  0  0  0  0  0  0  0  0  0  0
  159.7240  210.5410  153.4330 C   0  0  0  0  0  0  0  0  0  0  0  0
  160.9360  208.5790  154.2280 N   0  0  0  0  0  2  0  0  0  0  0  0
  160.7950  206.9840  156.0440 C   0  0  0  0  0  1  0  0  0  0  0  0
  160.0120  207.8520  155.0820 C   0  0  0  0  0  2  0  0  0  0  0  0
  157.8210  213.2510  152.1660 O   0  0  0  0  0  0  0  0  0  0  0  0
  158.1800  213.5120  150.8160 C   0  0  0  0  0  2  0  0  0  0  0  0
  156.9440  213.5180  149.9380 C   0  0  0  0  0  1  0  0  0  0  0  0
  161.4920  206.7840  152.3590 C   0  0  0  0  0  3  0  0  0  0  0  0
  160.9410  204.9810  150.8350 C   0  0  0  0  0  0  0  0  0  0  0  0
  160.3920  205.9070  149.9430 C   0  0  0  0  0  3  0  0  0  0  0  0
  160.3920  207.2690  150.2580 C   0  0  0  0  0  3  0  0  0  0  0  0
  161.4930  205.4230  152.0450 C   0  0  0  0  0  3  0  0  0  0  0  0
  160.9380  207.7140  151.4660 C   0  0  0  0  0  0  0  0  0  0  0  0
  160.9340  203.5240  150.4770 C   0  0  2  0  0  3  0  0  0  0  0  0
  161.6560  202.8130  151.4390 O   0  0  0  0  0  1  0  0  0  0  0  0
  161.8650  204.3640  146.8400 C   0  0  0  0  0  0  0  0  0  0  0  0
  160.5200  201.1500  146.1640 O   0  0  0  0  0  0  0  0  0  0  0  0
  160.7510  202.1040  148.3560 C   0  0  1  0  0  3  0  0  0  0  0  0
  161.3610  204.5620  148.2350 C   0  0  0  0  0  2  0  0  0  0  0  0
  161.4840  203.2730  149.0600 C   0  0  1  0  0  3  0  0  0  0  0  0
  160.9480  202.1100  146.8580 C   0  0  0  0  0  0  0  0  0  0  0  0
  162.5690  205.4760  146.1490 C   0  0  0  0  0  1  0  0  0  0  0  0
  161.2430  200.7750  148.9100 C   0  0  0  0  0  1  0  0  0  0  0  0
  161.6110  203.2350  146.1840 C   0  0  0  0  0  3  0  0  0  0  0  0
  163.0980  210.0920  152.2260 O   0  0  0  0  0  0  0  0  0  0  0  0
  162.3600  210.3150  150.0380 N   0  0  0  0  0  1  0  0  0  0  0  0
  162.1900  209.8770  151.3810 C   0  0  0  0  0  0  0  0  0  0  0  0
  1 34  1  1  0  0  0
  1  3  1  0  0  0  0
  2  7  2  0  0  0  0
  3  8  2  0  0  0  0
  3  9  1  0  0  0  0
  4  5  2  0  0  0  0
  4  8  1  0  0  0  0
  5  6  1  0  0  0  0
  6  2  1  0  0  0  0
  8  2  1  0  0  0  0
  9 11  1  0  0  0  0
 11 10  1  0  0  0  0
 12  5  1  0  0  0  0
 13 12  1  0  0  0  0
 14 13  1  0  0  0  0
 16 19  2  0  0  0  0
 17 18  2  0  0  0  0
 17 16  1  0  0  0  0
 18 20  1  0  0  0  0
 19 15  1  0  0  0  0
 20  1  1  0  0  0  0
 20 15  2  0  0  0  0
 21 16  1  0  0  0  0
 21 22  1  1  0  0  0
 23 26  1  0  0  0  0
 24 28  2  0  0  0  0
 25 30  1  1  0  0  0
 25 27  1  0  0  0  0
 26 27  1  0  0  0  0
 27 21  1  1  0  0  0
 28 25  1  0  0  0  0
 29 23  1  0  0  0  0
 31 23  2  0  0  0  0
 31 28  1  0  0  0  0
 33 34  1  0  0  0  0
 34 32  2  0  0  0  0
M  END
>  <MODEL>
4

>  <REMARK>
 VINA RESULT:      -6.8      1.948      3.248
  Name = 
  9 active torsions:
  status: ('A' for Active; 'I' for Inactive)
    1  A    between atoms: C_1  and  O_19
    2  A    between atoms: C_3  and  C_8
    3  A    between atoms: C_8  and  C_23
    4  A    between atoms: C_9  and  C_11
    5  A    between atoms: C_9  and  C_32
    6  A    between atoms: C_9  and  C_34
    7  A    between atoms: C_11  and  N_15
    8  A    between atoms: N_15  and  C_26
    9  A    between atoms: O_19  and  C_21
                            x       y       z     vdW  Elec       q    Type
                         _______ _______ _______ _____ _____    ______ ____

>  <TORSDO>
F 9

$$$$
=
 OpenBabel11072414173D

 34 36  0  0  1  0  0  0  0  0999 V2000
  161.3080  209.7800  153.9240 C   0  0  2  0  0  3  0  0  0  0  0  0
  158.7440  212.4570  152.8530 C   0  0  0  0  0  0  0  0  0  0  0  0
  160.0340  210.5800  153.9450 C   0  0  0  0  0  0  0  0  0  0  0  0
  160.6850  211.6480  151.8570 N   0  0  0  0  0  0  0  0  0  0  0  0
  160.2120  212.5840  151.0980 C   0  0  0  0  0  0  0  0  0  0  0  0
  158.9360  213.2140  151.5920 C   0  0  0  0  0  2  0  0  0  0  0  0
  157.8680  212.7210  153.7170 O   0  0  0  0  0  0  0  0  0  0  0  0
  159.8150  211.4800  152.9690 C   0  0  0  0  0  0  0  0  0  0  0  0
  159.0840  210.3260  154.9900 N   0  0  0  0  0  2  0  0  0  0  0  0
  157.7780  211.4760  156.6740 C   0  0  0  0  0  1  0  0  0  0  0  0
  159.1500  210.9600  156.2950 C   0  0  0  0  0  2  0  0  0  0  0  0
  160.8620  212.9560  149.9200 O   0  0  0  0  0  0  0  0  0  0  0  0
  161.5660  212.0230  149.1110 C   0  0  0  0  0  2  0  0  0  0  0  0
  161.1580  212.1780  147.6580 C   0  0  0  0  0  1  0  0  0  0  0  0
  161.0150  207.2850  154.2530 C   0  0  0  0  0  3  0  0  0  0  0  0
  160.7440  205.8140  152.3440 C   0  0  0  0  0  0  0  0  0  0  0  0
  160.8430  206.9150  151.4870 C   0  0  0  0  0  3  0  0  0  0  0  0
  161.0270  208.1980  152.0110 C   0  0  0  0  0  3  0  0  0  0  0  0
  160.8320  206.0020  153.7310 C   0  0  0  0  0  3  0  0  0  0  0  0
  161.1110  208.3900  153.3940 C   0  0  0  0  0  0  0  0  0  0  0  0
  160.5500  204.4460  151.7620 C   0  0  2  0  0  3  0  0  0  0  0  0
  161.0070  203.4910  152.6750 O   0  0  0  0  0  1  0  0  0  0  0  0
  161.5360  205.4000  148.1680 C   0  0  0  0  0  0  0  0  0  0  0  0
  160.9730  201.9560  147.5160 O   0  0  0  0  0  0  0  0  0  0  0  0
  160.8340  202.9800  149.6850 C   0  0  1  0  0  3  0  0  0  0  0  0
  160.9020  205.5090  149.5200 C   0  0  0  0  0  2  0  0  0  0  0  0
  161.2420  204.2940  150.3940 C   0  0  1  0  0  3  0  0  0  0  0  0
  161.1320  202.9990  148.2030 C   0  0  0  0  0  0  0  0  0  0  0  0
  162.0290  206.6250  147.4870 C   0  0  0  0  0  1  0  0  0  0  0  0
  161.5620  201.8010  150.3150 C   0  0  0  0  0  1  0  0  0  0  0  0
  161.5810  204.2300  147.5360 C   0  0  0  0  0  3  0  0  0  0  0  0
  161.8230  208.9340  156.1130 O   0  0  0  0  0  0  0  0  0  0  0  0
  162.9770  210.8480  155.4870 N   0  0  0  0  0  1  0  0  0  0  0  0
  162.0400  209.8080  155.2320 C   0  0  0  0  0  0  0  0  0  0  0  0
  1  3  1  1  0  0  0
  1 34  1  0  0  0  0
  2  8  1  0  0  0  0
  2  7  2  0  0  0  0
  3  9  1  0  0  0  0
  4  8  1  0  0  0  0
  5  6  1  0  0  0  0
  5  4  2  0  0  0  0
  6  2  1  0  0  0  0
  8  3  2  0  0  0  0
  9 11  1  0  0  0  0
 11 10  1  0  0  0  0
 12  5  1  0  0  0  0
 13 12  1  0  0  0  0
 14 13  1  0  0  0  0
 16 19  2  0  0  0  0
 17 18  2  0  0  0  0
 17 16  1  0  0  0  0
 18 20  1  0  0  0  0
 19 15  1  0  0  0  0
 20  1  1  0  0  0  0
 20 15  2  0  0  0  0
 21 16  1  0  0  0  0
 21 22  1  1  0  0  0
 23 26  1  0  0  0  0
 24 28  2  0  0  0  0
 25 30  1  1  0  0  0
 25 27  1  0  0  0  0
 26 27  1  0  0  0  0
 27 21  1  1  0  0  0
 28 25  1  0  0  0  0
 29 23  1  0  0  0  0
 31 23  2  0  0  0  0
 31 28  1  0  0  0  0
 34 33  1  0  0  0  0
 34 32  2  0  0  0  0
M  END
>  <MODEL>
5

>  <REMARK>
 VINA RESULT:      -6.5      2.164      5.055
  Name = 
  9 active torsions:
  status: ('A' for Active; 'I' for Inactive)
    1  A    between atoms: C_1  and  O_19
    2  A    between atoms: C_3  and  C_8
    3  A    between atoms: C_8  and  C_23
    4  A    between atoms: C_9  and  C_11
    5  A    between atoms: C_9  and  C_32
    6  A    between atoms: C_9  and  C_34
    7  A    between atoms: C_11  and  N_15
    8  A    between atoms: N_15  and  C_26
    9  A    between atoms: O_19  and  C_21
                            x       y       z     vdW  Elec       q    Type
                         _______ _______ _______ _____ _____    ______ ____

>  <TORSDO>
F 9

$$$$
=
 OpenBabel11072414173D

 34 36  0  0  1  0  0  0  0  0999 V2000
  161.2030  210.9470  154.2220 C   0  0  2  0  0  3  0  0  0  0  0  0
  158.5110  213.3310  152.8220 C   0  0  0  0  0  0  0  0  0  0  0  0
  159.9100  211.7140  154.1670 C   0  0  0  0  0  0  0  0  0  0  0  0
  160.4180  212.3840  151.8830 N   0  0  0  0  0  0  0  0  0  0  0  0
  159.8780  213.1530  150.9920 C   0  0  0  0  0  0  0  0  0  0  0  0
  158.6130  213.8410  151.4330 C   0  0  0  0  0  2  0  0  0  0  0  0
  157.6750  213.7360  153.6710 O   0  0  0  0  0  0  0  0  0  0  0  0
  159.6140  212.4110  153.0550 C   0  0  0  0  0  0  0  0  0  0  0  0
  159.0240  211.6430  155.2940 N   0  0  0  0  0  2  0  0  0  0  0  0
  156.7650  211.4150  156.1370 C   0  0  0  0  0  1  0  0  0  0  0  0
  157.8760  210.7540  155.3480 C   0  0  0  0  0  2  0  0  0  0  0  0
  160.4530  213.3080  149.7290 O   0  0  0  0  0  0  0  0  0  0  0  0
  159.7740  213.9430  148.6540 C   0  0  0  0  0  2  0  0  0  0  0  0
  160.7480  214.2650  147.5370 C   0  0  0  0  0  1  0  0  0  0  0  0
  160.7150  208.5200  154.7630 C   0  0  0  0  0  3  0  0  0  0  0  0
  160.7530  206.8370  153.0170 C   0  0  0  0  0  0  0  0  0  0  0  0
  161.0820  207.8220  152.0800 C   0  0  0  0  0  3  0  0  0  0  0  0
  161.2270  209.1530  152.4830 C   0  0  0  0  0  3  0  0  0  0  0  0
  160.5710  207.1900  154.3620 C   0  0  0  0  0  3  0  0  0  0  0  0
  161.0420  209.5090  153.8220 C   0  0  0  0  0  0  0  0  0  0  0  0
  160.6070  205.4150  152.5660 C   0  0  2  0  0  3  0  0  0  0  0  0
  161.2000  204.5720  153.5090 O   0  0  0  0  0  1  0  0  0  0  0  0
  161.2130  206.1020  148.8300 C   0  0  0  0  0  0  0  0  0  0  0  0
  160.8830  202.5800  148.5290 O   0  0  0  0  0  0  0  0  0  0  0  0
  160.8380  203.7870  150.6050 C   0  0  1  0  0  3  0  0  0  0  0  0
  160.6840  206.2880  150.2180 C   0  0  0  0  0  2  0  0  0  0  0  0
  161.1940  205.1890  151.1600 C   0  0  1  0  0  3  0  0  0  0  0  0
  161.0110  203.6920  149.1070 C   0  0  0  0  0  0  0  0  0  0  0  0
  161.5460  207.2920  148.0040 C   0  0  0  0  0  1  0  0  0  0  0  0
  161.7090  202.7300  151.2670 C   0  0  0  0  0  1  0  0  0  0  0  0
  161.3020  204.8850  148.2990 C   0  0  0  0  0  3  0  0  0  0  0  0
  161.3430  211.5800  156.5340 O   0  0  0  0  0  0  0  0  0  0  0  0
  163.3050  210.7600  155.6060 N   0  0  0  0  0  1  0  0  0  0  0  0
  161.9290  211.1140  155.5210 C   0  0  0  0  0  0  0  0  0  0  0  0
  1  3  1  1  0  0  0
  1 34  1  0  0  0  0
  2  8  1  0  0  0  0
  2  7  2  0  0  0  0
  3  9  1  0  0  0  0
  4  8  1  0  0  0  0
  5  6  1  0  0  0  0
  5  4  2  0  0  0  0
  6  2  1  0  0  0  0
  8  3  2  0  0  0  0
  9 11  1  0  0  0  0
 11 10  1  0  0  0  0
 12  5  1  0  0  0  0
 13 12  1  0  0  0  0
 14 13  1  0  0  0  0
 16 19  2  0  0  0  0
 17 18  2  0  0  0  0
 17 16  1  0  0  0  0
 18 20  1  0  0  0  0
 19 15  1  0  0  0  0
 20  1  1  0  0  0  0
 20 15  2  0  0  0  0
 21 16  1  0  0  0  0
 21 22  1  1  0  0  0
 23 26  1  0  0  0  0
 24 28  2  0  0  0  0
 25 27  1  0  0  0  0
 25 30  1  1  0  0  0
 26 27  1  0  0  0  0
 27 21  1  1  0  0  0
 28 25  1  0  0  0  0
 29 23  1  0  0  0  0
 31 23  2  0  0  0  0
 31 28  1  0  0  0  0
 34 33  1  0  0  0  0
 34 32  2  0  0  0  0
M  END
>  <MODEL>
6

>  <REMARK>
 VINA RESULT:      -6.5      2.586      5.630
  Name = 
  9 active torsions:
  status: ('A' for Active; 'I' for Inactive)
    1  A    between atoms: C_1  and  O_19
    2  A    between atoms: C_3  and  C_8
    3  A    between atoms: C_8  and  C_23
    4  A    between atoms: C_9  and  C_11
    5  A    between atoms: C_9  and  C_32
    6  A    between atoms: C_9  and  C_34
    7  A    between atoms: C_11  and  N_15
    8  A    between atoms: N_15  and  C_26
    9  A    between atoms: O_19  and  C_21
                            x       y       z     vdW  Elec       q    Type
                         _______ _______ _______ _____ _____    ______ ____

>  <TORSDO>
F 9

$$$$
=
 OpenBabel11072414173D

 34 36  0  0  1  0  0  0  0  0999 V2000
  161.6260  205.7810  150.2020 C   0  0  2  0  0  3  0  0  0  0  0  0
  160.6540  202.5610  148.3100 C   0  0  0  0  0  0  0  0  0  0  0  0
  161.0800  204.3950  149.9950 C   0  0  0  0  0  0  0  0  0  0  0  0
  161.9360  204.4110  147.7170 N   0  0  0  0  0  0  0  0  0  0  0  0
  161.8840  203.6200  146.6930 C   0  0  0  0  0  0  0  0  0  0  0  0
  161.0980  202.3540  146.9100 C   0  0  0  0  0  2  0  0  0  0  0  0
  159.8320  201.8250  148.9140 O   0  0  0  0  0  0  0  0  0  0  0  0
  161.2150  203.8160  148.7880 C   0  0  0  0  0  0  0  0  0  0  0  0
  160.4660  203.7280  151.1070 N   0  0  0  0  0  2  0  0  0  0  0  0
  162.4500  202.4360  151.6170 C   0  0  0  0  0  1  0  0  0  0  0  0
  160.9360  202.4560  151.6300 C   0  0  0  0  0  2  0  0  0  0  0  0
  162.5210  203.9490  145.4940 O   0  0  0  0  0  0  0  0  0  0  0  0
  162.4240  205.2400  144.9080 C   0  0  0  0  0  2  0  0  0  0  0  0
  160.9720  205.6730  144.8330 C   0  0  0  0  0  1  0  0  0  0  0  0
  160.9610  207.5960  151.8410 C   0  0  0  0  0  3  0  0  0  0  0  0
  161.0190  207.1790  154.2290 C   0  0  0  0  0  0  0  0  0  0  0  0
  161.4660  205.8760  153.9870 C   0  0  0  0  0  3  0  0  0  0  0  0
  161.6610  205.4340  152.6760 C   0  0  0  0  0  3  0  0  0  0  0  0
  160.7670  208.0400  153.1510 C   0  0  0  0  0  3  0  0  0  0  0  0
  161.4080  206.2880  151.5980 C   0  0  0  0  0  0  0  0  0  0  0  0
  160.8200  207.6360  155.6430 C   0  0  2  0  0  3  0  0  0  0  0  0
  159.5040  207.3670  156.0310 O   0  0  0  0  0  1  0  0  0  0  0  0
  162.6950  210.6890  157.0450 C   0  0  0  0  0  0  0  0  0  0  0  0
  159.4480  212.1120  157.2230 O   0  0  0  0  0  0  0  0  0  0  0  0
  159.9460  209.9470  156.3090 C   0  0  1  0  0  3  0  0  0  0  0  0
  162.3310  209.2550  156.8170 C   0  0  0  0  0  2  0  0  0  0  0  0
  161.1670  209.1260  155.8250 C   0  0  1  0  0  3  0  0  0  0  0  0
  160.3370  211.2800  156.9040 C   0  0  0  0  0  0  0  0  0  0  0  0
  164.1180  211.0610  157.2580 C   0  0  0  0  0  1  0  0  0  0  0  0
  158.9910  210.1900  155.1480 C   0  0  0  0  0  1  0  0  0  0  0  0
  161.7470  211.6180  157.1450 C   0  0  0  0  0  3  0  0  0  0  0  0
  160.0530  206.6260  148.5950 O   0  0  0  0  0  0  0  0  0  0  0  0
  162.0380  207.8150  148.7650 N   0  0  0  0  0  1  0  0  0  0  0  0
  161.1760  206.7510  149.1520 C   0  0  0  0  0  0  0  0  0  0  0  0
  1 34  1  6  0  0  0
  1 20  1  0  0  0  0
  2  8  1  0  0  0  0
  2  7  2  0  0  0  0
  3  1  1  0  0  0  0
  3  9  1  0  0  0  0
  4  8  1  0  0  0  0
  5  6  1  0  0  0  0
  5  4  2  0  0  0  0
  6  2  1  0  0  0  0
  8  3  2  0  0  0  0
  9 11  1  0  0  0  0
 10 11  1  0  0  0  0
 12  5  1  0  0  0  0
 13 12  1  0  0  0  0
 14 13  1  0  0  0  0
 15 19  1  0  0  0  0
 16 21  1  0  0  0  0
 17 16  1  0  0  0  0
 18 17  2  0  0  0  0
 19 16  2  0  0  0  0
 20 15  2  0  0  0  0
 20 18  1  0  0  0  0
 21 22  1  6  0  0  0
 23 31  2  0  0  0  0
 23 29  1  0  0  0  0
 25 30  1  6  0  0  0
 25 28  1  0  0  0  0
 26 23  1  0  0  0  0
 27 21  1  1  0  0  0
 27 25  1  0  0  0  0
 27 26  1  0  0  0  0
 28 31  1  0  0  0  0
 28 24  2  0  0  0  0
 32 34  2  0  0  0  0
 33 34  1  0  0  0  0
M  END
>  <MODEL>
7

>  <REMARK>
 VINA RESULT:      -6.2      2.348      9.330
  Name = 
  9 active torsions:
  status: ('A' for Active; 'I' for Inactive)
    1  A    between atoms: C_1  and  O_19
    2  A    between atoms: C_3  and  C_8
    3  A    between atoms: C_8  and  C_23
    4  A    between atoms: C_9  and  C_11
    5  A    between atoms: C_9  and  C_32
    6  A    between atoms: C_9  and  C_34
    7  A    between atoms: C_11  and  N_15
    8  A    between atoms: N_15  and  C_26
    9  A    between atoms: O_19  and  C_21
                            x       y       z     vdW  Elec       q    Type
                         _______ _______ _______ _____ _____    ______ ____

>  <TORSDO>
F 9

$$$$
=
 OpenBabel11072414173D

 34 36  0  0  1  0  0  0  0  0999 V2000
  161.0290  206.8830  151.7360 C   0  0  2  0  0  3  0  0  0  0  0  0
  161.9980  206.3690  148.0360 C   0  0  0  0  0  0  0  0  0  0  0  0
  161.5080  207.2420  150.3560 C   0  0  0  0  0  0  0  0  0  0  0  0
  160.9000  205.0170  149.5790 N   0  0  0  0  0  0  0  0  0  0  0  0
  161.0120  204.3480  148.4760 C   0  0  0  0  0  0  0  0  0  0  0  0
  161.6930  205.0880  147.3540 C   0  0  0  0  0  2  0  0  0  0  0  0
  162.7050  207.2870  147.5460 O   0  0  0  0  0  0  0  0  0  0  0  0
  161.4670  206.3060  149.3890 C   0  0  0  0  0  0  0  0  0  0  0  0
  161.9600  208.5820  150.1160 N   0  0  0  0  0  2  0  0  0  0  0  0
  162.0720  210.7740  149.0930 C   0  0  0  0  0  1  0  0  0  0  0  0
  161.5830  209.3490  148.9410 C   0  0  0  0  0  2  0  0  0  0  0  0
  160.5260  203.0440  148.3700 O   0  0  0  0  0  0  0  0  0  0  0  0
  160.3040  202.2180  149.5060 C   0  0  0  0  0  2  0  0  0  0  0  0
  161.1660  200.9730  149.4240 C   0  0  0  0  0  1  0  0  0  0  0  0
  160.4560  209.3260  152.0830 C   0  0  0  0  0  3  0  0  0  0  0  0
  160.4980  210.2970  154.3050 C   0  0  0  0  0  0  0  0  0  0  0  0
  160.8820  209.0610  154.8340 C   0  0  0  0  0  3  0  0  0  0  0  0
  161.0530  207.9590  153.9910 C   0  0  0  0  0  3  0  0  0  0  0  0
  160.2860  210.4280  152.9250 C   0  0  0  0  0  3  0  0  0  0  0  0
  160.8390  208.0850  152.6150 C   0  0  0  0  0  0  0  0  0  0  0  0
  160.3240  211.4680  155.2260 C   0  0  2  0  0  3  0  0  0  0  0  0
  160.8180  211.1340  156.4900 O   0  0  0  0  0  1  0  0  0  0  0  0
  156.4980  211.1770  154.9480 C   0  0  0  0  0  0  0  0  0  0  0  0
  156.7500  214.4020  153.4860 O   0  0  0  0  0  0  0  0  0  0  0  0
  158.5970  213.1610  154.3930 C   0  0  1  0  0  3  0  0  0  0  0  0
  157.9370  210.7680  154.9100 C   0  0  0  0  0  2  0  0  0  0  0  0
  158.8570  211.9340  155.3000 C   0  0  1  0  0  3  0  0  0  0  0  0
  157.1280  213.3720  154.1040 C   0  0  0  0  0  0  0  0  0  0  0  0
  155.4680  210.1990  155.3860 C   0  0  0  0  0  1  0  0  0  0  0  0
  159.1520  214.4180  155.0470 C   0  0  0  0  0  1  0  0  0  0  0  0
  156.1250  212.3760  154.5080 C   0  0  0  0  0  3  0  0  0  0  0  0
  163.1120  205.8600  152.3580 O   0  0  0  0  0  0  0  0  0  0  0  0
  161.2040  204.7150  153.0170 N   0  0  0  0  0  1  0  0  0  0  0  0
  161.8530  205.8110  152.3830 C   0  0  0  0  0  0  0  0  0  0  0  0
  1  3  1  6  0  0  0
  1 34  1  0  0  0  0
  1 20  1  0  0  0  0
  2  8  1  0  0  0  0
  5  4  2  0  0  0  0
  6  2  1  0  0  0  0
  6  5  1  0  0  0  0
  7  2  2  0  0  0  0
  8  4  1  0  0  0  0
  8  3  2  0  0  0  0
  9  3  1  0  0  0  0
 11 10  1  0  0  0  0
 11  9  1  0  0  0  0
 12  5  1  0  0  0  0
 12 13  1  0  0  0  0
 14 13  1  0  0  0  0
 15 20  2  0  0  0  0
 15 19  1  0  0  0  0
 16 17  1  0  0  0  0
 16 21  1  0  0  0  0
 18 17  2  0  0  0  0
 19 16  2  0  0  0  0
 20 18  1  0  0  0  0
 21 22  1  1  0  0  0
 23 29  1  0  0  0  0
 24 28  2  0  0  0  0
 25 30  1  1  0  0  0
 25 27  1  0  0  0  0
 26 23  1  0  0  0  0
 26 27  1  0  0  0  0
 27 21  1  6  0  0  0
 28 25  1  0  0  0  0
 28 31  1  0  0  0  0
 31 23  2  0  0  0  0
 32 34  2  0  0  0  0
 34 33  1  0  0  0  0
M  END
>  <MODEL>
8

>  <REMARK>
 VINA RESULT:      -6.0      2.130      9.441
  Name = 
  9 active torsions:
  status: ('A' for Active; 'I' for Inactive)
    1  A    between atoms: C_1  and  O_19
    2  A    between atoms: C_3  and  C_8
    3  A    between atoms: C_8  and  C_23
    4  A    between atoms: C_9  and  C_11
    5  A    between atoms: C_9  and  C_32
    6  A    between atoms: C_9  and  C_34
    7  A    between atoms: C_11  and  N_15
    8  A    between atoms: N_15  and  C_26
    9  A    between atoms: O_19  and  C_21
                            x       y       z     vdW  Elec       q    Type
                         _______ _______ _______ _____ _____    ______ ____

>  <TORSDO>
F 9

$$$$
=
 OpenBabel11072414173D

 34 36  0  0  1  0  0  0  0  0999 V2000
  161.0110  210.6780  153.7140 C   0  0  2  0  0  3  0  0  0  0  0  0
  158.0100  212.9040  152.7480 C   0  0  0  0  0  0  0  0  0  0  0  0
  159.6180  211.2440  153.7690 C   0  0  0  0  0  0  0  0  0  0  0  0
  160.0510  212.4760  151.7150 N   0  0  0  0  0  0  0  0  0  0  0  0
  159.4140  213.3400  150.9910 C   0  0  0  0  0  0  0  0  0  0  0  0
  158.0540  213.7220  151.5120 C   0  0  0  0  0  2  0  0  0  0  0  0
  157.1120  212.9840  153.6250 O   0  0  0  0  0  0  0  0  0  0  0  0
  159.2360  212.1240  152.8250 C   0  0  0  0  0  0  0  0  0  0  0  0
  158.7380  210.7960  154.8090 N   0  0  0  0  0  2  0  0  0  0  0  0
  157.3010  211.7380  156.5150 C   0  0  0  0  0  1  0  0  0  0  0  0
  158.7220  211.3750  156.1420 C   0  0  0  0  0  2  0  0  0  0  0  0
  159.9770  213.8570  149.8220 O   0  0  0  0  0  0  0  0  0  0  0  0
  160.1210  213.0840  148.6380 C   0  0  0  0  0  2  0  0  0  0  0  0
  161.5740  212.6990  148.4380 C   0  0  0  0  0  1  0  0  0  0  0  0
  160.4550  208.5300  152.4920 C   0  0  0  0  0  3  0  0  0  0  0  0
  161.6010  207.9510  150.4340 C   0  0  0  0  0  0  0  0  0  0  0  0
  162.3470  209.1310  150.5230 C   0  0  0  0  0  3  0  0  0  0  0  0
  162.1490  210.0080  151.5930 C   0  0  0  0  0  3  0  0  0  0  0  0
  160.6540  207.6520  151.4240 C   0  0  0  0  0  3  0  0  0  0  0  0
  161.2020  209.7150  152.5790 C   0  0  0  0  0  0  0  0  0  0  0  0
  161.8320  207.0210  149.2810 C   0  0  2  0  0  3  0  0  0  0  0  0
  160.8620  207.2550  148.3030 O   0  0  0  0  0  1  0  0  0  0  0  0
  160.8010  203.3150  149.2700 C   0  0  0  0  0  0  0  0  0  0  0  0
  160.9270  203.6720  152.7990 O   0  0  0  0  0  0  0  0  0  0  0  0
  161.5190  205.3890  151.2270 C   0  0  1  0  0  3  0  0  0  0  0  0
  160.8410  204.7560  148.8670 C   0  0  0  0  0  2  0  0  0  0  0  0
  161.8450  205.5450  149.7210 C   0  0  1  0  0  3  0  0  0  0  0  0
  161.1000  203.9840  151.5910 C   0  0  0  0  0  0  0  0  0  0  0  0
  160.5940  202.2690  148.2350 C   0  0  0  0  0  1  0  0  0  0  0  0
  162.7330  205.7700  152.0620 C   0  0  0  0  0  1  0  0  0  0  0  0
  160.8600  202.9710  150.5540 C   0  0  0  0  0  3  0  0  0  0  0  0
  162.1320  210.8450  155.8320 O   0  0  0  0  0  0  0  0  0  0  0  0
  161.1810  208.7800  155.3680 N   0  0  0  0  0  1  0  0  0  0  0  0
  161.4740  210.1310  155.0300 C   0  0  0  0  0  0  0  0  0  0  0  0
  1  3  1  1  0  0  0
  1 34  1  0  0  0  0
  2  8  1  0  0  0  0
  2  7  2  0  0  0  0
  3  9  1  0  0  0  0
  4  8  1  0  0  0  0
  5  6  1  0  0  0  0
  5  4  2  0  0  0  0
  6  2  1  0  0  0  0
  8  3  2  0  0  0  0
  9 11  1  0  0  0  0
 11 10  1  0  0  0  0
 12  5  1  0  0  0  0
 13 12  1  0  0  0  0
 14 13  1  0  0  0  0
 15 20  1  0  0  0  0
 16 17  2  0  0  0  0
 16 19  1  0  0  0  0
 17 18  1  0  0  0  0
 18 20  2  0  0  0  0
 19 15  2  0  0  0  0
 20  1  1  0  0  0  0
 21 22  1  6  0  0  0
 21 16  1  0  0  0  0
 23 31  2  0  0  0  0
 25 28  1  0  0  0  0
 25 30  1  1  0  0  0
 26 23  1  0  0  0  0
 26 27  1  0  0  0  0
 27 21  1  6  0  0  0
 27 25  1  0  0  0  0
 28 24  2  0  0  0  0
 29 23  1  0  0  0  0
 31 28  1  0  0  0  0
 34 33  1  0  0  0  0
 34 32  2  0  0  0  0
M  END
>  <MODEL>
9

>  <REMARK>
 VINA RESULT:      -5.6      2.449      5.219
  Name = 
  9 active torsions:
  status: ('A' for Active; 'I' for Inactive)
    1  A    between atoms: C_1  and  O_19
    2  A    between atoms: C_3  and  C_8
    3  A    between atoms: C_8  and  C_23
    4  A    between atoms: C_9  and  C_11
    5  A    between atoms: C_9  and  C_32
    6  A    between atoms: C_9  and  C_34
    7  A    between atoms: C_11  and  N_15
    8  A    between atoms: N_15  and  C_26
    9  A    between atoms: O_19  and  C_21
                            x       y       z     vdW  Elec       q    Type
                         _______ _______ _______ _____ _____    ______ ____

>  <TORSDO>
F 9

$$$$
