=
 OpenBabel11072410143D

 37 42  0  0  1  0  0  0  0  0999 V2000
  162.1310  210.9570  150.2060 C   0  0  0  0  0  3  0  0  0  0  0  0
  162.0320  209.2160  148.3600 S   0  0  0  0  0  0  0  0  0  0  0  0
  161.3780  207.1750  151.7810 C   0  0  0  0  0  0  0  0  0  0  0  0
  160.8570  202.7660  150.2940 N   0  0  0  0  0  0  0  0  0  0  0  0
  161.1320  205.8910  152.2970 C   0  0  0  0  0  3  0  0  0  0  0  0
  160.6320  202.8320  152.6570 O   0  0  0  0  0  0  0  0  0  0  0  0
  161.7060  209.5090  152.1770 C   0  0  0  0  0  3  0  0  0  0  0  0
  161.7850  208.6610  149.9270 C   0  0  0  0  0  0  0  0  0  0  0  0
  161.4640  206.2710  149.4900 C   0  0  0  0  0  3  0  0  0  0  0  0
  161.5430  207.3640  150.3740 C   0  0  0  0  0  0  0  0  0  0  0  0
  161.4650  208.2440  152.6290 N   0  0  0  0  0  0  0  0  0  0  0  0
  161.0580  204.8370  151.3870 C   0  0  0  0  0  0  0  0  0  0  0  0
  161.8690  209.7250  150.8100 C   0  0  0  0  0  0  0  0  0  0  0  0
  161.2180  205.0130  150.0380 C   0  0  0  0  0  0  0  0  0  0  0  0
  162.2320  210.8300  148.8230 C   0  0  0  0  0  0  0  0  0  0  0  0
  161.0840  203.6920  149.4070 C   0  0  0  0  0  0  0  0  0  0  0  0
  160.8290  203.4220  151.5620 C   0  0  0  0  0  0  0  0  0  0  0  0
  161.3750  204.4770  147.0390 N   0  0  0  0  0  2  0  0  0  0  0  0
  161.1890  203.4080  147.9680 C   0  0  0  0  0  0  0  0  0  0  0  0
  161.1170  202.2180  147.5590 O   0  0  0  0  0  0  0  0  0  0  0  0
  162.9220  203.8120  144.9960 O   0  0  0  0  0  0  0  0  0  0  0  0
  161.1240  205.7280  144.4840 C   0  0  0  0  0  1  0  0  0  0  0  0
  160.5560  203.1450  144.9020 O   0  0  0  0  0  0  0  0  0  0  0  0
  161.5150  204.2180  145.3340 S   0  0  0  0  0  0  0  0  0  0  0  0
  162.5900  211.9370  147.8970 C   0  0  0  0  0  2  0  0  0  0  0  0
  160.9590  214.4530  145.9900 C   0  0  0  0  0  1  0  0  0  0  0  0
  160.7030  212.9690  146.1710 C   0  0  2  0  0  0  0  0  0  0  0  0
  158.7180  212.4890  147.7240 O   0  0  0  0  0  0  0  0  0  0  0  0
  159.8610  212.6120  147.2110 C   0  0  0  0  0  0  0  0  0  0  0  0
  161.3840  212.4420  147.2630 N   0  0  0  0  0  0  0  0  0  0  0  0
  160.7400  212.0410  144.9630 C   0  0  0  0  0  2  0  0  0  0  0  0
  160.8370  212.8130  143.6540 C   0  0  1  0  0  3  0  0  0  0  0  0
  162.1470  212.4740  142.9650 C   0  0  0  0  0  2  0  0  0  0  0  0
  161.7950  211.6120  141.7710 C   0  0  0  0  0  2  0  0  0  0  0  0
  159.7240  212.3910  142.7070 C   0  0  2  0  0  3  0  0  0  0  0  0
  160.3850  212.0030  141.4020 C   0  0  0  0  0  2  0  0  0  0  0  0
  158.8510  213.4560  142.4940 O   0  0  0  0  0  1  0  0  0  0  0  0
  1 13  1  0  0  0  0
  2 15  1  0  0  0  0
  2  8  1  0  0  0  0
  3  5  1  0  0  0  0
  3 11  1  0  0  0  0
  4 17  1  0  0  0  0
  7 11  2  0  0  0  0
  8 10  1  0  0  0  0
  8 13  2  0  0  0  0
  9 14  2  0  0  0  0
  9 10  1  0  0  0  0
 10  3  2  0  0  0  0
 12 17  1  0  0  0  0
 12  5  2  0  0  0  0
 13  7  1  0  0  0  0
 14 12  1  0  0  0  0
 15  1  2  0  0  0  0
 16 14  1  0  0  0  0
 16  4  2  0  0  0  0
 17  6  2  0  0  0  0
 18 19  1  0  0  0  0
 19 16  1  0  0  0  0
 20 19  2  0  0  0  0
 21 24  2  0  0  0  0
 22 24  1  0  0  0  0
 23 24  2  0  0  0  0
 24 18  1  0  0  0  0
 25 15  1  0  0  0  0
 27 26  1  6  0  0  0
 27 29  1  0  0  0  0
 27 30  1  0  0  0  0
 29 30  1  0  0  0  0
 29 28  2  0  0  0  0
 30 25  1  0  0  0  0
 31 27  1  0  0  0  0
 32 31  1  1  0  0  0
 33 32  1  0  0  0  0
 34 33  1  0  0  0  0
 35 37  1  6  0  0  0
 35 32  1  0  0  0  0
 36 34  1  0  0  0  0
 36 35  1  0  0  0  0
M  END
>  <MODEL>
1

>  <REMARK>
 VINA RESULT:      -9.1      0.000      0.000
  Name = 
  6 active torsions:
  status: ('A' for Active; 'I' for Inactive)
    1  A    between atoms: C_2  and  C_25
    2  A    between atoms: C_8  and  C_32
    3  A    between atoms: C_8  and  N_34
    4  A    between atoms: N_11  and  S_35
    5  A    between atoms: C_21  and  C_36
    6  A    between atoms: C_24  and  C_25
                            x       y       z     vdW  Elec       q    Type
                         _______ _______ _______ _____ _____    ______ ____

>  <TORSDO>
F 6

$$$$
=
 OpenBabel11072410143D

 37 42  0  0  1  0  0  0  0  0999 V2000
  162.2380  211.1090  150.2810 C   0  0  0  0  0  3  0  0  0  0  0  0
  162.1920  209.3500  148.4490 S   0  0  0  0  0  0  0  0  0  0  0  0
  161.3690  207.3540  151.8590 C   0  0  0  0  0  0  0  0  0  0  0  0
  160.8500  202.9370  150.3940 N   0  0  0  0  0  0  0  0  0  0  0  0
  161.0850  206.0780  152.3760 C   0  0  0  0  0  3  0  0  0  0  0  0
  160.5280  203.0300  152.7450 O   0  0  0  0  0  0  0  0  0  0  0  0
  161.7120  209.6870  152.2460 C   0  0  0  0  0  3  0  0  0  0  0  0
  161.8730  208.8150  150.0090 C   0  0  0  0  0  0  0  0  0  0  0  0
  161.5370  206.4250  149.5820 C   0  0  0  0  0  3  0  0  0  0  0  0
  161.5950  207.5260  150.4580 C   0  0  0  0  0  0  0  0  0  0  0  0
  161.4350  208.4300  152.6990 N   0  0  0  0  0  0  0  0  0  0  0  0
  161.0340  205.0160  151.4750 C   0  0  0  0  0  0  0  0  0  0  0  0
  161.9350  209.8870  150.8850 C   0  0  0  0  0  0  0  0  0  0  0  0
  161.2520  205.1760  150.1310 C   0  0  0  0  0  0  0  0  0  0  0  0
  162.3950  210.9670  148.9040 C   0  0  0  0  0  0  0  0  0  0  0  0
  161.1260  203.8510  149.5080 C   0  0  0  0  0  0  0  0  0  0  0  0
  160.7780  203.6060  151.6530 C   0  0  0  0  0  0  0  0  0  0  0  0
  161.3320  204.6140  147.1230 N   0  0  0  0  0  2  0  0  0  0  0  0
  161.2870  203.5510  148.0770 C   0  0  0  0  0  0  0  0  0  0  0  0
  161.3860  202.3530  147.6980 O   0  0  0  0  0  0  0  0  0  0  0  0
  162.9900  204.2210  145.0960 O   0  0  0  0  0  0  0  0  0  0  0  0
  160.8340  205.7060  144.5330 C   0  0  0  0  0  1  0  0  0  0  0  0
  160.8130  203.0760  145.0310 O   0  0  0  0  0  0  0  0  0  0  0  0
  161.5280  204.3370  145.4270 S   0  0  0  0  0  0  0  0  0  0  0  0
  162.8050  212.0590  147.9830 C   0  0  0  0  0  2  0  0  0  0  0  0
  159.3530  211.9170  147.1530 C   0  0  0  0  0  1  0  0  0  0  0  0
  160.2790  213.0620  147.5160 C   0  0  2  0  0  0  0  0  0  0  0  0
  160.9810  214.4520  145.4790 O   0  0  0  0  0  0  0  0  0  0  0  0
  160.9430  213.6730  146.4660 C   0  0  0  0  0  0  0  0  0  0  0  0
  161.6210  212.7030  147.4420 N   0  0  0  0  0  0  0  0  0  0  0  0
  159.9770  213.9210  148.7370 C   0  0  0  0  0  2  0  0  0  0  0  0
  158.9110  213.2940  149.6270 C   0  0  1  0  0  3  0  0  0  0  0  0
  159.4710  213.1060  151.0260 C   0  0  0  0  0  2  0  0  0  0  0  0
  158.7890  214.1330  151.9040 C   0  0  0  0  0  2  0  0  0  0  0  0
  157.7160  214.2260  149.7560 C   0  0  2  0  0  3  0  0  0  0  0  0
  157.4620  214.4070  151.2370 C   0  0  0  0  0  2  0  0  0  0  0  0
  156.5980  213.6510  149.1540 O   0  0  0  0  0  1  0  0  0  0  0  0
  1 13  1  0  0  0  0
  2 15  1  0  0  0  0
  2  8  1  0  0  0  0
  3  5  1  0  0  0  0
  3 11  1  0  0  0  0
  4 17  1  0  0  0  0
  7 11  2  0  0  0  0
  8 10  1  0  0  0  0
  8 13  2  0  0  0  0
  9 14  2  0  0  0  0
  9 10  1  0  0  0  0
 10  3  2  0  0  0  0
 12 17  1  0  0  0  0
 12  5  2  0  0  0  0
 13  7  1  0  0  0  0
 14 12  1  0  0  0  0
 15  1  2  0  0  0  0
 16 14  1  0  0  0  0
 16  4  2  0  0  0  0
 17  6  2  0  0  0  0
 18 19  1  0  0  0  0
 19 16  1  0  0  0  0
 20 19  2  0  0  0  0
 21 24  2  0  0  0  0
 22 24  1  0  0  0  0
 23 24  2  0  0  0  0
 24 18  1  0  0  0  0
 25 15  1  0  0  0  0
 27 26  1  6  0  0  0
 27 31  1  0  0  0  0
 28 29  2  0  0  0  0
 29 30  1  0  0  0  0
 29 27  1  0  0  0  0
 30 27  1  0  0  0  0
 30 25  1  0  0  0  0
 32 31  1  6  0  0  0
 32 35  1  0  0  0  0
 32 33  1  0  0  0  0
 33 34  1  0  0  0  0
 35 37  1  6  0  0  0
 35 36  1  0  0  0  0
 36 34  1  0  0  0  0
M  END
>  <MODEL>
2

>  <REMARK>
 VINA RESULT:      -8.8      1.857      3.665
  Name = 
  6 active torsions:
  status: ('A' for Active; 'I' for Inactive)
    1  A    between atoms: C_2  and  C_25
    2  A    between atoms: C_8  and  C_32
    3  A    between atoms: C_8  and  N_34
    4  A    between atoms: N_11  and  S_35
    5  A    between atoms: C_21  and  C_36
    6  A    between atoms: C_24  and  C_25
                            x       y       z     vdW  Elec       q    Type
                         _______ _______ _______ _____ _____    ______ ____

>  <TORSDO>
F 6

$$$$
=
 OpenBabel11072410143D

 37 42  0  0  1  0  0  0  0  0999 V2000
  161.5480  206.6160  153.8590 C   0  0  0  0  0  3  0  0  0  0  0  0
  161.5700  208.0140  151.7380 S   0  0  0  0  0  0  0  0  0  0  0  0
  159.7610  210.3220  154.5120 C   0  0  0  0  0  0  0  0  0  0  0  0
  158.7440  214.2240  152.1330 N   0  0  0  0  0  0  0  0  0  0  0  0
  159.1550  211.5740  154.7130 C   0  0  0  0  0  3  0  0  0  0  0  0
  157.9940  214.4510  154.3750 O   0  0  0  0  0  0  0  0  0  0  0  0
  160.4180  208.2020  155.3990 C   0  0  0  0  0  3  0  0  0  0  0  0
  160.8760  208.7230  153.0950 C   0  0  0  0  0  0  0  0  0  0  0  0
  160.2050  210.8830  152.1540 C   0  0  0  0  0  3  0  0  0  0  0  0
  160.2880  209.9780  153.2280 C   0  0  0  0  0  0  0  0  0  0  0  0
  159.8420  209.4310  155.5450 N   0  0  0  0  0  0  0  0  0  0  0  0
  159.0960  212.4420  153.6240 C   0  0  0  0  0  0  0  0  0  0  0  0
  160.9420  207.8380  154.1590 C   0  0  0  0  0  0  0  0  0  0  0  0
  159.5970  212.1150  152.3910 C   0  0  0  0  0  0  0  0  0  0  0  0
  161.9690  206.5750  152.5320 C   0  0  0  0  0  0  0  0  0  0  0  0
  159.3500  213.2600  151.5030 C   0  0  0  0  0  0  0  0  0  0  0  0
  158.5540  213.7730  153.4740 C   0  0  0  0  0  0  0  0  0  0  0  0
  160.9960  212.8770  149.6440 N   0  0  0  0  0  2  0  0  0  0  0  0
  159.7190  213.3450  150.0820 C   0  0  0  0  0  0  0  0  0  0  0  0
  158.9030  213.8310  149.2530 O   0  0  0  0  0  0  0  0  0  0  0  0
  160.6830  211.9660  147.1770 O   0  0  0  0  0  0  0  0  0  0  0  0
  163.2100  212.4940  147.8830 C   0  0  0  0  0  1  0  0  0  0  0  0
  161.3100  214.3300  147.4520 O   0  0  0  0  0  0  0  0  0  0  0  0
  161.4940  212.9380  147.9880 S   0  0  0  0  0  0  0  0  0  0  0  0
  162.5720  205.3860  151.8740 C   0  0  0  0  0  2  0  0  0  0  0  0
  159.8400  205.8590  149.6520 C   0  0  0  0  0  1  0  0  0  0  0  0
  160.9780  204.8570  149.6870 C   0  0  2  0  0  0  0  0  0  0  0  0
  160.2370  202.5490  150.5240 O   0  0  0  0  0  0  0  0  0  0  0  0
  160.7480  203.6910  150.3980 C   0  0  0  0  0  0  0  0  0  0  0  0
  161.6290  204.8360  150.9160 N   0  0  0  0  0  0  0  0  0  0  0  0
  161.9490  204.7720  148.5170 C   0  0  0  0  0  2  0  0  0  0  0  0
  161.2250  204.7050  147.1780 C   0  0  1  0  0  3  0  0  0  0  0  0
  161.3700  206.0360  146.4610 C   0  0  0  0  0  2  0  0  0  0  0  0
  162.3250  205.8040  145.3100 C   0  0  0  0  0  2  0  0  0  0  0  0
  161.8650  203.6560  146.2820 C   0  0  2  0  0  3  0  0  0  0  0  0
  162.1900  204.3390  144.9720 C   0  0  0  0  0  2  0  0  0  0  0  0
  160.9690  202.6110  146.0590 O   0  0  0  0  0  1  0  0  0  0  0  0
  1 13  1  0  0  0  0
  2 15  1  0  0  0  0
  2  8  1  0  0  0  0
  3  5  1  0  0  0  0
  3 11  1  0  0  0  0
  4 17  1  0  0  0  0
  7 11  2  0  0  0  0
  8 10  1  0  0  0  0
  8 13  2  0  0  0  0
  9 14  2  0  0  0  0
  9 10  1  0  0  0  0
 10  3  2  0  0  0  0
 12  5  2  0  0  0  0
 13  7  1  0  0  0  0
 14 12  1  0  0  0  0
 15  1  2  0  0  0  0
 16  4  2  0  0  0  0
 16 14  1  0  0  0  0
 17 12  1  0  0  0  0
 17  6  2  0  0  0  0
 18 19  1  0  0  0  0
 19 16  1  0  0  0  0
 20 19  2  0  0  0  0
 21 24  2  0  0  0  0
 22 24  1  0  0  0  0
 23 24  2  0  0  0  0
 24 18  1  0  0  0  0
 25 15  1  0  0  0  0
 27 26  1  6  0  0  0
 27 29  1  0  0  0  0
 27 30  1  0  0  0  0
 29 28  2  0  0  0  0
 29 30  1  0  0  0  0
 30 25  1  0  0  0  0
 31 27  1  0  0  0  0
 32 31  1  1  0  0  0
 33 32  1  0  0  0  0
 34 33  1  0  0  0  0
 35 37  1  6  0  0  0
 35 32  1  0  0  0  0
 36 34  1  0  0  0  0
 36 35  1  0  0  0  0
M  END
>  <MODEL>
3

>  <REMARK>
 VINA RESULT:      -8.4      3.409      8.362
  Name = 
  6 active torsions:
  status: ('A' for Active; 'I' for Inactive)
    1  A    between atoms: C_2  and  C_25
    2  A    between atoms: C_8  and  C_32
    3  A    between atoms: C_8  and  N_34
    4  A    between atoms: N_11  and  S_35
    5  A    between atoms: C_21  and  C_36
    6  A    between atoms: C_24  and  C_25
                            x       y       z     vdW  Elec       q    Type
                         _______ _______ _______ _____ _____    ______ ____

>  <TORSDO>
F 6

$$$$
=
 OpenBabel11072410143D

 37 42  0  0  1  0  0  0  0  0999 V2000
  160.5870  210.5290  154.5050 C   0  0  0  0  0  3  0  0  0  0  0  0
  160.4880  210.1090  152.0020 S   0  0  0  0  0  0  0  0  0  0  0  0
  161.1120  206.4830  153.6620 C   0  0  0  0  0  0  0  0  0  0  0  0
  161.3160  203.6450  149.9440 N   0  0  0  0  0  0  0  0  0  0  0  0
  161.2940  205.1230  153.3590 C   0  0  0  0  0  3  0  0  0  0  0  0
  161.6170  202.3710  151.9250 O   0  0  0  0  0  0  0  0  0  0  0  0
  160.9640  208.2100  155.3070 C   0  0  0  0  0  3  0  0  0  0  0  0
  160.7340  208.7630  152.9770 C   0  0  0  0  0  0  0  0  0  0  0  0
  160.8910  207.0170  151.2660 C   0  0  0  0  0  3  0  0  0  0  0  0
  160.9090  207.4310  152.6110 C   0  0  0  0  0  0  0  0  0  0  0  0
  161.1330  206.9000  154.9630 N   0  0  0  0  0  0  0  0  0  0  0  0
  161.2670  204.7550  152.0150 C   0  0  0  0  0  0  0  0  0  0  0  0
  160.7630  209.1580  154.3050 C   0  0  0  0  0  0  0  0  0  0  0  0
  161.0760  205.6600  151.0040 C   0  0  0  0  0  0  0  0  0  0  0  0
  160.4040  211.1950  153.2960 C   0  0  0  0  0  0  0  0  0  0  0  0
  161.1160  204.9150  149.7380 C   0  0  0  0  0  0  0  0  0  0  0  0
  161.4200  203.4770  151.3580 C   0  0  0  0  0  0  0  0  0  0  0  0
  161.3620  204.7400  147.2440 N   0  0  0  0  0  2  0  0  0  0  0  0
  160.9600  205.4890  148.3930 C   0  0  0  0  0  0  0  0  0  0  0  0
  160.4700  206.6420  148.2590 O   0  0  0  0  0  0  0  0  0  0  0  0
  160.1300  206.4010  145.5900 O   0  0  0  0  0  0  0  0  0  0  0  0
  160.7480  204.0110  144.5530 C   0  0  0  0  0  1  0  0  0  0  0  0
  162.5090  205.9290  145.1750 O   0  0  0  0  0  0  0  0  0  0  0  0
  161.2010  205.3470  145.6320 S   0  0  0  0  0  0  0  0  0  0  0  0
  160.2760  212.6700  153.1550 C   0  0  0  0  0  2  0  0  0  0  0  0
  157.1050  214.2280  153.5330 C   0  0  0  0  0  1  0  0  0  0  0  0
  157.8700  213.2300  154.3810 C   0  0  2  0  0  0  0  0  0  0  0  0
  158.9380  214.3030  156.4510 O   0  0  0  0  0  0  0  0  0  0  0  0
  158.7190  213.7600  155.3380 C   0  0  0  0  0  0  0  0  0  0  0  0
  159.2110  213.1450  154.0210 N   0  0  0  0  0  0  0  0  0  0  0  0
  157.2640  211.8640  154.6750 C   0  0  0  0  0  2  0  0  0  0  0  0
  155.7920  211.9640  155.0570 C   0  0  1  0  0  3  0  0  0  0  0  0
  155.1710  210.5780  155.0300 C   0  0  0  0  0  2  0  0  0  0  0  0
  154.9310  210.1850  156.4720 C   0  0  0  0  0  2  0  0  0  0  0  0
  155.6490  212.4780  156.4810 C   0  0  2  0  0  3  0  0  0  0  0  0
  154.7710  211.4880  157.2170 C   0  0  0  0  0  2  0  0  0  0  0  0
  155.0410  213.7320  156.4750 O   0  0  0  0  0  1  0  0  0  0  0  0
  2  8  1  0  0  0  0
  2 15  1  0  0  0  0
  3 11  1  0  0  0  0
  4 17  1  0  0  0  0
  5  3  1  0  0  0  0
  8 13  2  0  0  0  0
  9 10  1  0  0  0  0
 10  8  1  0  0  0  0
 10  3  2  0  0  0  0
 11  7  2  0  0  0  0
 12  5  2  0  0  0  0
 13  1  1  0  0  0  0
 13  7  1  0  0  0  0
 14  9  2  0  0  0  0
 14 12  1  0  0  0  0
 15  1  2  0  0  0  0
 16  4  2  0  0  0  0
 16 14  1  0  0  0  0
 17  6  2  0  0  0  0
 17 12  1  0  0  0  0
 18 19  1  0  0  0  0
 19 16  1  0  0  0  0
 20 19  2  0  0  0  0
 21 24  2  0  0  0  0
 22 24  1  0  0  0  0
 23 24  2  0  0  0  0
 24 18  1  0  0  0  0
 25 15  1  0  0  0  0
 25 30  1  0  0  0  0
 27 26  1  6  0  0  0
 27 31  1  0  0  0  0
 27 29  1  0  0  0  0
 29 28  2  0  0  0  0
 30 27  1  0  0  0  0
 30 29  1  0  0  0  0
 32 31  1  1  0  0  0
 32 35  1  0  0  0  0
 33 32  1  0  0  0  0
 33 34  1  0  0  0  0
 34 36  1  0  0  0  0
 35 37  1  6  0  0  0
 35 36  1  0  0  0  0
M  END
>  <MODEL>
4

>  <REMARK>
 VINA RESULT:      -8.3      4.857      7.327
  Name = 
  6 active torsions:
  status: ('A' for Active; 'I' for Inactive)
    1  A    between atoms: C_2  and  C_25
    2  A    between atoms: C_8  and  C_32
    3  A    between atoms: C_8  and  N_34
    4  A    between atoms: N_11  and  S_35
    5  A    between atoms: C_21  and  C_36
    6  A    between atoms: C_24  and  C_25
                            x       y       z     vdW  Elec       q    Type
                         _______ _______ _______ _____ _____    ______ ____

>  <TORSDO>
F 6

$$$$
=
 OpenBabel11072410143D

 37 42  0  0  1  0  0  0  0  0999 V2000
  161.3840  208.5500  152.7920 C   0  0  0  0  0  3  0  0  0  0  0  0
  161.3970  208.0140  150.3100 S   0  0  0  0  0  0  0  0  0  0  0  0
  161.0400  204.4470  152.1640 C   0  0  0  0  0  0  0  0  0  0  0  0
  160.8950  201.4160  148.5980 N   0  0  0  0  0  0  0  0  0  0  0  0
  160.9320  203.0640  151.9350 C   0  0  0  0  0  3  0  0  0  0  0  0
  160.7350  200.2280  150.6480 O   0  0  0  0  0  0  0  0  0  0  0  0
  161.1560  206.2590  153.7180 C   0  0  0  0  0  3  0  0  0  0  0  0
  161.2490  206.7080  151.3570 C   0  0  0  0  0  0  0  0  0  0  0  0
  161.1430  204.8710  149.7390 C   0  0  0  0  0  3  0  0  0  0  0  0
  161.1450  205.3510  151.0620 C   0  0  0  0  0  0  0  0  0  0  0  0
  161.0490  204.9260  153.4440 N   0  0  0  0  0  0  0  0  0  0  0  0
  160.9320  202.6310  150.6100 C   0  0  0  0  0  0  0  0  0  0  0  0
  161.2580  207.1650  152.6650 C   0  0  0  0  0  0  0  0  0  0  0  0
  161.0350  203.4940  149.5500 C   0  0  0  0  0  0  0  0  0  0  0  0
  161.4560  209.1670  151.5450 C   0  0  0  0  0  0  0  0  0  0  0  0
  161.0080  202.6840  148.3240 C   0  0  0  0  0  0  0  0  0  0  0  0
  160.8430  201.3150  150.0210 C   0  0  0  0  0  0  0  0  0  0  0  0
  160.9560  204.5960  146.6950 N   0  0  0  0  0  2  0  0  0  0  0  0
  161.0980  203.1970  146.9480 C   0  0  0  0  0  0  0  0  0  0  0  0
  161.3010  202.3970  145.9960 O   0  0  0  0  0  0  0  0  0  0  0  0
  160.4080  204.3450  144.1170 O   0  0  0  0  0  0  0  0  0  0  0  0
  162.7690  205.4760  144.6730 C   0  0  0  0  0  1  0  0  0  0  0  0
  160.3790  206.6110  145.0770 O   0  0  0  0  0  0  0  0  0  0  0  0
  161.0590  205.2710  145.1060 S   0  0  0  0  0  0  0  0  0  0  0  0
  161.6800  210.6220  151.3340 C   0  0  0  0  0  2  0  0  0  0  0  0
  158.5830  210.6730  153.0750 C   0  0  0  0  0  1  0  0  0  0  0  0
  159.7960  211.5840  153.1030 C   0  0  2  0  0  0  0  0  0  0  0  0
  159.4160  213.7770  151.8280 O   0  0  0  0  0  0  0  0  0  0  0  0
  159.7940  212.6370  152.2040 C   0  0  0  0  0  0  0  0  0  0  0  0
  160.6430  211.3720  152.0200 N   0  0  0  0  0  0  0  0  0  0  0  0
  160.5610  211.7870  154.4040 C   0  0  0  0  0  2  0  0  0  0  0  0
  161.1360  210.4810  154.9370 C   0  0  1  0  0  3  0  0  0  0  0  0
  162.5910  210.6910  155.3200 C   0  0  0  0  0  2  0  0  0  0  0  0
  162.6460  210.6710  156.8320 C   0  0  0  0  0  2  0  0  0  0  0  0
  160.4090  210.0610  156.2050 C   0  0  2  0  0  3  0  0  0  0  0  0
  161.4680  209.8310  157.2610 C   0  0  0  0  0  2  0  0  0  0  0  0
  159.7040  208.8800  155.9790 O   0  0  0  0  0  1  0  0  0  0  0  0
  2  8  1  0  0  0  0
  2 15  1  0  0  0  0
  3 11  1  0  0  0  0
  4 17  1  0  0  0  0
  5  3  1  0  0  0  0
  8 13  2  0  0  0  0
  9 10  1  0  0  0  0
 10  8  1  0  0  0  0
 10  3  2  0  0  0  0
 11  7  2  0  0  0  0
 12  5  2  0  0  0  0
 13  1  1  0  0  0  0
 13  7  1  0  0  0  0
 14  9  2  0  0  0  0
 14 12  1  0  0  0  0
 15  1  2  0  0  0  0
 16  4  2  0  0  0  0
 16 14  1  0  0  0  0
 17 12  1  0  0  0  0
 17  6  2  0  0  0  0
 18 19  1  0  0  0  0
 19 16  1  0  0  0  0
 20 19  2  0  0  0  0
 21 24  2  0  0  0  0
 22 24  1  0  0  0  0
 23 24  2  0  0  0  0
 24 18  1  0  0  0  0
 25 15  1  0  0  0  0
 25 30  1  0  0  0  0
 27 26  1  1  0  0  0
 27 31  1  0  0  0  0
 28 29  2  0  0  0  0
 29 27  1  0  0  0  0
 30 29  1  0  0  0  0
 30 27  1  0  0  0  0
 32 31  1  1  0  0  0
 32 33  1  0  0  0  0
 32 35  1  0  0  0  0
 33 34  1  0  0  0  0
 34 36  1  0  0  0  0
 35 37  1  6  0  0  0
 35 36  1  0  0  0  0
M  END
>  <MODEL>
5

>  <REMARK>
 VINA RESULT:      -8.0      4.034      6.603
  Name = 
  6 active torsions:
  status: ('A' for Active; 'I' for Inactive)
    1  A    between atoms: C_2  and  C_25
    2  A    between atoms: C_8  and  C_32
    3  A    between atoms: C_8  and  N_34
    4  A    between atoms: N_11  and  S_35
    5  A    between atoms: C_21  and  C_36
    6  A    between atoms: C_24  and  C_25
                            x       y       z     vdW  Elec       q    Type
                         _______ _______ _______ _____ _____    ______ ____

>  <TORSDO>
F 6

$$$$
=
 OpenBabel11072410143D

 37 42  0  0  1  0  0  0  0  0999 V2000
  161.1970  208.4190  152.9560 C   0  0  0  0  0  3  0  0  0  0  0  0
  161.1530  207.9530  150.4600 S   0  0  0  0  0  0  0  0  0  0  0  0
  161.1840  204.3200  152.2170 C   0  0  0  0  0  0  0  0  0  0  0  0
  161.1530  201.3860  148.5680 N   0  0  0  0  0  0  0  0  0  0  0  0
  161.1870  202.9400  151.9500 C   0  0  0  0  0  3  0  0  0  0  0  0
  161.1820  200.1330  150.5860 O   0  0  0  0  0  0  0  0  0  0  0  0
  161.2080  206.0920  153.8200 C   0  0  0  0  0  3  0  0  0  0  0  0
  161.1630  206.6120  151.4710 C   0  0  0  0  0  0  0  0  0  0  0  0
  161.1490  204.8170  149.8040 C   0  0  0  0  0  3  0  0  0  0  0  0
  161.1640  205.2590  151.1400 C   0  0  0  0  0  0  0  0  0  0  0  0
  161.2050  204.7630  153.5100 N   0  0  0  0  0  0  0  0  0  0  0  0
  161.1690  202.5440  150.6130 C   0  0  0  0  0  0  0  0  0  0  0  0
  161.1860  207.0320  152.7920 C   0  0  0  0  0  0  0  0  0  0  0  0
  161.1520  203.4410  149.5770 C   0  0  0  0  0  0  0  0  0  0  0  0
  161.1640  209.0730  151.7270 C   0  0  0  0  0  0  0  0  0  0  0  0
  161.1440  202.6660  148.3290 C   0  0  0  0  0  0  0  0  0  0  0  0
  161.1690  201.2420  149.9890 C   0  0  0  0  0  0  0  0  0  0  0  0
  161.0280  204.6330  146.7710 N   0  0  0  0  0  2  0  0  0  0  0  0
  161.1310  203.2210  146.9670 C   0  0  0  0  0  0  0  0  0  0  0  0
  161.2140  202.4470  145.9760 O   0  0  0  0  0  0  0  0  0  0  0  0
  160.5030  204.3700  144.1890 O   0  0  0  0  0  0  0  0  0  0  0  0
  162.6720  205.8280  144.7670 C   0  0  0  0  0  1  0  0  0  0  0  0
  160.1410  206.5800  145.2100 O   0  0  0  0  0  0  0  0  0  0  0  0
  161.0160  205.3570  145.2000 S   0  0  0  0  0  0  0  0  0  0  0  0
  161.2510  210.5470  151.5520 C   0  0  0  0  0  2  0  0  0  0  0  0
  159.7060  213.3580  153.0800 C   0  0  0  0  0  1  0  0  0  0  0  0
  159.7640  211.8880  153.4480 C   0  0  2  0  0  0  0  0  0  0  0  0
  161.3980  211.4110  155.3670 O   0  0  0  0  0  0  0  0  0  0  0  0
  160.8210  211.4960  154.2510 C   0  0  0  0  0  0  0  0  0  0  0  0
  160.7520  211.2040  152.7470 N   0  0  0  0  0  0  0  0  0  0  0  0
  158.4750  211.0840  153.5610 C   0  0  0  0  0  2  0  0  0  0  0  0
  157.3810  211.8600  154.2840 C   0  0  1  0  0  3  0  0  0  0  0  0
  156.0760  211.0860  154.1990 C   0  0  0  0  0  2  0  0  0  0  0  0
  155.8110  210.5360  155.5840 C   0  0  0  0  0  2  0  0  0  0  0  0
  157.7140  211.9920  155.7620 C   0  0  2  0  0  3  0  0  0  0  0  0
  156.5120  211.4830  156.5280 C   0  0  0  0  0  2  0  0  0  0  0  0
  157.9430  213.3300  156.0800 O   0  0  0  0  0  1  0  0  0  0  0  0
  2  8  1  0  0  0  0
  2 15  1  0  0  0  0
  3 11  1  0  0  0  0
  4 17  1  0  0  0  0
  5  3  1  0  0  0  0
  8 13  2  0  0  0  0
  9 10  1  0  0  0  0
 10  8  1  0  0  0  0
 10  3  2  0  0  0  0
 11  7  2  0  0  0  0
 12  5  2  0  0  0  0
 13  1  1  0  0  0  0
 13  7  1  0  0  0  0
 14  9  2  0  0  0  0
 14 12  1  0  0  0  0
 15  1  2  0  0  0  0
 16  4  2  0  0  0  0
 16 14  1  0  0  0  0
 17  6  2  0  0  0  0
 17 12  1  0  0  0  0
 18 19  1  0  0  0  0
 19 16  1  0  0  0  0
 20 19  2  0  0  0  0
 21 24  2  0  0  0  0
 22 24  1  0  0  0  0
 24 23  2  0  0  0  0
 24 18  1  0  0  0  0
 25 15  1  0  0  0  0
 25 30  1  0  0  0  0
 27 26  1  6  0  0  0
 27 31  1  0  0  0  0
 27 29  1  0  0  0  0
 29 28  2  0  0  0  0
 30 27  1  0  0  0  0
 30 29  1  0  0  0  0
 32 31  1  6  0  0  0
 32 35  1  0  0  0  0
 33 32  1  0  0  0  0
 33 34  1  0  0  0  0
 34 36  1  0  0  0  0
 35 37  1  1  0  0  0
 35 36  1  0  0  0  0
M  END
>  <MODEL>
6

>  <REMARK>
 VINA RESULT:      -7.8      4.109      6.668
  Name = 
  6 active torsions:
  status: ('A' for Active; 'I' for Inactive)
    1  A    between atoms: C_2  and  C_25
    2  A    between atoms: C_8  and  C_32
    3  A    between atoms: C_8  and  N_34
    4  A    between atoms: N_11  and  S_35
    5  A    between atoms: C_21  and  C_36
    6  A    between atoms: C_24  and  C_25
                            x       y       z     vdW  Elec       q    Type
                         _______ _______ _______ _____ _____    ______ ____

>  <TORSDO>
F 6

$$$$
=
 OpenBabel11072410143D

 37 42  0  0  1  0  0  0  0  0999 V2000
  160.6760  209.8120  154.5010 C   0  0  0  0  0  3  0  0  0  0  0  0
  160.5670  209.5160  151.9800 S   0  0  0  0  0  0  0  0  0  0  0  0
  161.1270  205.8030  153.4610 C   0  0  0  0  0  0  0  0  0  0  0  0
  161.2760  203.1450  149.6090 N   0  0  0  0  0  0  0  0  0  0  0  0
  161.2850  204.4560  153.0930 C   0  0  0  0  0  3  0  0  0  0  0  0
  161.5560  201.7710  151.5260 O   0  0  0  0  0  0  0  0  0  0  0  0
  161.0130  207.4510  155.1890 C   0  0  0  0  0  3  0  0  0  0  0  0
  160.7900  208.1200  152.8890 C   0  0  0  0  0  0  0  0  0  0  0  0
  160.9140  206.4560  151.0940 C   0  0  0  0  0  3  0  0  0  0  0  0
  160.9400  206.8040  152.4580 C   0  0  0  0  0  0  0  0  0  0  0  0
  161.1580  206.1560  154.7810 N   0  0  0  0  0  0  0  0  0  0  0  0
  161.2500  204.1540  151.7320 C   0  0  0  0  0  0  0  0  0  0  0  0
  160.8270  208.4490  154.2340 C   0  0  0  0  0  0  0  0  0  0  0  0
  161.0730  205.1100  150.7670 C   0  0  0  0  0  0  0  0  0  0  0  0
  160.5030  210.5390  153.3250 C   0  0  0  0  0  0  0  0  0  0  0  0
  161.0990  204.4280  149.4660 C   0  0  0  0  0  0  0  0  0  0  0  0
  161.3790  202.9080  151.0130 C   0  0  0  0  0  0  0  0  0  0  0  0
  161.5800  204.4970  147.0010 N   0  0  0  0  0  2  0  0  0  0  0  0
  160.9520  205.0690  148.1510 C   0  0  0  0  0  0  0  0  0  0  0  0
  160.2700  206.1230  148.0420 O   0  0  0  0  0  0  0  0  0  0  0  0
  162.7930  205.6580  144.9550 O   0  0  0  0  0  0  0  0  0  0  0  0
  160.3370  206.5780  145.4930 C   0  0  0  0  0  1  0  0  0  0  0  0
  160.8950  204.1700  144.4640 O   0  0  0  0  0  0  0  0  0  0  0  0
  161.4440  205.1900  145.4220 S   0  0  0  0  0  0  0  0  0  0  0  0
  160.4020  212.0210  153.2570 C   0  0  0  0  0  2  0  0  0  0  0  0
  159.4970  214.1240  155.9740 C   0  0  0  0  0  1  0  0  0  0  0  0
  158.6990  213.4900  154.8520 C   0  0  2  0  0  0  0  0  0  0  0  0
  157.3390  211.4580  155.6280 O   0  0  0  0  0  0  0  0  0  0  0  0
  158.1820  212.2300  155.1000 C   0  0  0  0  0  0  0  0  0  0  0  0
  159.4020  212.4800  154.2050 N   0  0  0  0  0  0  0  0  0  0  0  0
  157.9290  214.3730  153.8780 C   0  0  0  0  0  2  0  0  0  0  0  0
  157.0710  213.5540  152.9210 C   0  0  1  0  0  3  0  0  0  0  0  0
  155.6280  213.5750  153.3960 C   0  0  0  0  0  2  0  0  0  0  0  0
  154.8680  214.4510  152.4240 C   0  0  0  0  0  2  0  0  0  0  0  0
  157.0830  214.1770  151.5340 C   0  0  2  0  0  3  0  0  0  0  0  0
  155.6370  214.3660  151.1280 C   0  0  0  0  0  2  0  0  0  0  0  0
  157.7170  213.3220  150.6340 O   0  0  0  0  0  1  0  0  0  0  0  0
  2  8  1  0  0  0  0
  2 15  1  0  0  0  0
  3 11  1  0  0  0  0
  4 17  1  0  0  0  0
  5  3  1  0  0  0  0
  8 13  2  0  0  0  0
  9 10  1  0  0  0  0
 10  8  1  0  0  0  0
 10  3  2  0  0  0  0
 11  7  2  0  0  0  0
 12  5  2  0  0  0  0
 13  1  1  0  0  0  0
 13  7  1  0  0  0  0
 14  9  2  0  0  0  0
 14 12  1  0  0  0  0
 15  1  2  0  0  0  0
 16  4  2  0  0  0  0
 16 14  1  0  0  0  0
 17  6  2  0  0  0  0
 17 12  1  0  0  0  0
 18 19  1  0  0  0  0
 19 16  1  0  0  0  0
 20 19  2  0  0  0  0
 21 24  2  0  0  0  0
 23 24  2  0  0  0  0
 24 22  1  0  0  0  0
 24 18  1  0  0  0  0
 25 15  1  0  0  0  0
 25 30  1  0  0  0  0
 27 29  1  0  0  0  0
 27 26  1  1  0  0  0
 29 28  2  0  0  0  0
 30 27  1  0  0  0  0
 30 29  1  0  0  0  0
 31 27  1  0  0  0  0
 32 33  1  0  0  0  0
 32 31  1  1  0  0  0
 34 33  1  0  0  0  0
 35 37  1  6  0  0  0
 35 32  1  0  0  0  0
 36 35  1  0  0  0  0
 36 34  1  0  0  0  0
M  END
>  <MODEL>
7

>  <REMARK>
 VINA RESULT:      -7.6      4.165      6.038
  Name = 
  6 active torsions:
  status: ('A' for Active; 'I' for Inactive)
    1  A    between atoms: C_2  and  C_25
    2  A    between atoms: C_8  and  C_32
    3  A    between atoms: C_8  and  N_34
    4  A    between atoms: N_11  and  S_35
    5  A    between atoms: C_21  and  C_36
    6  A    between atoms: C_24  and  C_25
                            x       y       z     vdW  Elec       q    Type
                         _______ _______ _______ _____ _____    ______ ____

>  <TORSDO>
F 6

$$$$
=
 OpenBabel11072410143D

 37 42  0  0  1  0  0  0  0  0999 V2000
  161.2690  204.4450  151.5000 C   0  0  0  0  0  3  0  0  0  0  0  0
  160.9990  206.4680  149.9880 S   0  0  0  0  0  0  0  0  0  0  0  0
  160.9080  207.9330  153.7480 C   0  0  0  0  0  0  0  0  0  0  0  0
  160.3180  212.5280  153.0730 N   0  0  0  0  0  0  0  0  0  0  0  0
  160.7770  209.1180  154.4910 C   0  0  0  0  0  3  0  0  0  0  0  0
  160.4280  212.0820  155.4020 O   0  0  0  0  0  0  0  0  0  0  0  0
  161.1910  205.5600  153.7160 C   0  0  0  0  0  3  0  0  0  0  0  0
  161.0080  206.7650  151.6420 C   0  0  0  0  0  0  0  0  0  0  0  0
  160.7060  209.1970  151.6420 C   0  0  0  0  0  3  0  0  0  0  0  0
  160.8730  207.9740  152.3190 C   0  0  0  0  0  0  0  0  0  0  0  0
  161.0640  206.7380  154.3930 N   0  0  0  0  0  0  0  0  0  0  0  0
  160.6160  210.3070  153.7820 C   0  0  0  0  0  0  0  0  0  0  0  0
  161.1630  205.5680  152.3230 C   0  0  0  0  0  0  0  0  0  0  0  0
  160.5800  210.3520  152.4130 C   0  0  0  0  0  0  0  0  0  0  0  0
  161.2100  204.7980  150.1530 C   0  0  0  0  0  0  0  0  0  0  0  0
  160.3920  211.7570  152.0260 C   0  0  0  0  0  0  0  0  0  0  0  0
  160.4530  211.6770  154.2110 C   0  0  0  0  0  0  0  0  0  0  0  0
  161.3780  212.0950  149.7410 N   0  0  0  0  0  2  0  0  0  0  0  0
  160.2900  212.2690  150.6510 C   0  0  0  0  0  0  0  0  0  0  0  0
  159.2400  212.8580  150.2800 O   0  0  0  0  0  0  0  0  0  0  0  0
  160.6750  211.6290  147.2310 O   0  0  0  0  0  0  0  0  0  0  0  0
  162.9850  212.9460  147.5400 C   0  0  0  0  0  1  0  0  0  0  0  0
  160.5540  213.9500  148.0400 O   0  0  0  0  0  0  0  0  0  0  0  0
  161.3260  212.6620  148.1070 S   0  0  0  0  0  0  0  0  0  0  0  0
  161.2080  203.8290  149.0250 C   0  0  0  0  0  2  0  0  0  0  0  0
  163.5870  205.1720  146.7530 C   0  0  0  0  0  1  0  0  0  0  0  0
  162.1730  204.6550  146.5770 C   0  0  2  0  0  0  0  0  0  0  0  0
  160.4560  206.5410  146.3050 O   0  0  0  0  0  0  0  0  0  0  0  0
  161.1560  205.5830  146.7240 C   0  0  0  0  0  0  0  0  0  0  0  0
  161.4980  204.5310  147.7880 N   0  0  0  0  0  0  0  0  0  0  0  0
  161.9060  203.4800  145.6450 C   0  0  0  0  0  2  0  0  0  0  0  0
  160.7530  202.6130  146.1360 C   0  0  1  0  0  3  0  0  0  0  0  0
  159.7080  202.4980  145.0400 C   0  0  0  0  0  2  0  0  0  0  0  0
  159.7950  201.0840  144.5080 C   0  0  0  0  0  2  0  0  0  0  0  0
  161.2390  201.2010  146.4250 C   0  0  2  0  0  3  0  0  0  0  0  0
  160.3370  200.2620  145.6520 C   0  0  0  0  0  2  0  0  0  0  0  0
  161.1380  200.9330  147.7890 O   0  0  0  0  0  1  0  0  0  0  0  0
  1 13  1  0  0  0  0
  2 15  1  0  0  0  0
  2  8  1  0  0  0  0
  3 11  1  0  0  0  0
  3  5  2  0  0  0  0
  4 17  1  0  0  0  0
  7 11  2  0  0  0  0
  8 10  1  0  0  0  0
  8 13  2  0  0  0  0
  9 10  2  0  0  0  0
  9 14  1  0  0  0  0
 10  3  1  0  0  0  0
 12 17  1  0  0  0  0
 12  5  1  0  0  0  0
 13  7  1  0  0  0  0
 14 12  2  0  0  0  0
 15  1  2  0  0  0  0
 16 14  1  0  0  0  0
 16  4  2  0  0  0  0
 17  6  2  0  0  0  0
 18 19  1  0  0  0  0
 19 16  1  0  0  0  0
 20 19  2  0  0  0  0
 21 24  2  0  0  0  0
 22 24  1  0  0  0  0
 23 24  2  0  0  0  0
 24 18  1  0  0  0  0
 25 15  1  0  0  0  0
 27 29  1  0  0  0  0
 27 26  1  1  0  0  0
 27 30  1  0  0  0  0
 28 29  2  0  0  0  0
 29 30  1  0  0  0  0
 30 25  1  0  0  0  0
 31 27  1  0  0  0  0
 32 31  1  6  0  0  0
 32 35  1  0  0  0  0
 33 32  1  0  0  0  0
 34 33  1  0  0  0  0
 34 36  1  0  0  0  0
 35 37  1  1  0  0  0
 36 35  1  0  0  0  0
M  END
>  <MODEL>
8

>  <REMARK>
 VINA RESULT:      -7.5      3.218      8.237
  Name = 
  6 active torsions:
  status: ('A' for Active; 'I' for Inactive)
    1  A    between atoms: C_2  and  C_25
    2  A    between atoms: C_8  and  C_32
    3  A    between atoms: C_8  and  N_34
    4  A    between atoms: N_11  and  S_35
    5  A    between atoms: C_21  and  C_36
    6  A    between atoms: C_24  and  C_25
                            x       y       z     vdW  Elec       q    Type
                         _______ _______ _______ _____ _____    ______ ____

>  <TORSDO>
F 6

$$$$
=
 OpenBabel11072410143D

 37 42  0  0  1  0  0  0  0  0999 V2000
  161.8640  209.4610  151.6310 C   0  0  0  0  0  3  0  0  0  0  0  0
  161.8140  208.3650  149.3400 S   0  0  0  0  0  0  0  0  0  0  0  0
  161.1840  205.3640  151.9650 C   0  0  0  0  0  0  0  0  0  0  0  0
  160.7670  201.6130  149.1940 N   0  0  0  0  0  0  0  0  0  0  0  0
  160.9630  203.9800  152.0600 C   0  0  0  0  0  3  0  0  0  0  0  0
  160.5270  200.9480  151.4610 O   0  0  0  0  0  0  0  0  0  0  0  0
  161.4580  207.4710  153.0590 C   0  0  0  0  0  3  0  0  0  0  0  0
  161.5700  207.3530  150.6590 C   0  0  0  0  0  0  0  0  0  0  0  0
  161.3030  205.2060  149.5080 C   0  0  0  0  0  3  0  0  0  0  0  0
  161.3540  205.9770  150.6840 C   0  0  0  0  0  0  0  0  0  0  0  0
  161.2420  206.1240  153.0990 N   0  0  0  0  0  0  0  0  0  0  0  0
  160.9170  203.2530  150.8710 C   0  0  0  0  0  0  0  0  0  0  0  0
  161.6250  208.0980  151.8260 C   0  0  0  0  0  0  0  0  0  0  0  0
  161.0820  203.8360  149.6420 C   0  0  0  0  0  0  0  0  0  0  0  0
  161.9760  209.7640  150.2760 C   0  0  0  0  0  0  0  0  0  0  0  0
  160.9800  202.7700  148.6360 C   0  0  0  0  0  0  0  0  0  0  0  0
  160.7180  201.8480  150.6020 C   0  0  0  0  0  0  0  0  0  0  0  0
  161.0380  204.2480  146.6060 N   0  0  0  0  0  2  0  0  0  0  0  0
  161.1000  202.9410  147.1800 C   0  0  0  0  0  0  0  0  0  0  0  0
  161.2600  201.9320  146.4430 O   0  0  0  0  0  0  0  0  0  0  0  0
  162.5690  204.1770  144.4460 O   0  0  0  0  0  0  0  0  0  0  0  0
  160.8730  206.2440  144.5710 C   0  0  0  0  0  1  0  0  0  0  0  0
  160.1730  203.6920  144.1660 O   0  0  0  0  0  0  0  0  0  0  0  0
  161.1810  204.5270  144.9040 S   0  0  0  0  0  0  0  0  0  0  0  0
  162.3150  211.1080  149.7370 C   0  0  0  0  0  2  0  0  0  0  0  0
  161.1550  214.4530  150.0320 C   0  0  0  0  0  1  0  0  0  0  0  0
  160.4500  213.1390  149.7560 C   0  0  2  0  0  0  0  0  0  0  0  0
  159.1900  212.2430  151.8020 O   0  0  0  0  0  0  0  0  0  0  0  0
  160.0040  212.4360  150.8630 C   0  0  0  0  0  0  0  0  0  0  0  0
  161.2450  212.0380  150.0540 N   0  0  0  0  0  0  0  0  0  0  0  0
  159.6710  212.9540  148.4600 C   0  0  0  0  0  2  0  0  0  0  0  0
  160.5740  212.5380  147.3060 C   0  0  1  0  0  3  0  0  0  0  0  0
  159.7210  212.0100  146.1650 C   0  0  0  0  0  2  0  0  0  0  0  0
  159.7650  213.0580  145.0740 C   0  0  0  0  0  2  0  0  0  0  0  0
  161.3290  213.7420  146.7650 C   0  0  2  0  0  3  0  0  0  0  0  0
  161.0740  213.7840  145.2740 C   0  0  0  0  0  2  0  0  0  0  0  0
  162.6940  213.5940  147.0050 O   0  0  0  0  0  1  0  0  0  0  0  0
  1 13  1  0  0  0  0
  2 15  1  0  0  0  0
  2  8  1  0  0  0  0
  3  5  1  0  0  0  0
  3 11  1  0  0  0  0
  4 17  1  0  0  0  0
  7 11  2  0  0  0  0
  8 10  1  0  0  0  0
  8 13  2  0  0  0  0
  9 14  2  0  0  0  0
  9 10  1  0  0  0  0
 10  3  2  0  0  0  0
 12  5  2  0  0  0  0
 13  7  1  0  0  0  0
 14 12  1  0  0  0  0
 15  1  2  0  0  0  0
 16  4  2  0  0  0  0
 16 14  1  0  0  0  0
 17 12  1  0  0  0  0
 17  6  2  0  0  0  0
 18 19  1  0  0  0  0
 19 16  1  0  0  0  0
 20 19  2  0  0  0  0
 21 24  2  0  0  0  0
 22 24  1  0  0  0  0
 23 24  2  0  0  0  0
 24 18  1  0  0  0  0
 25 30  1  0  0  0  0
 25 15  1  0  0  0  0
 27 26  1  1  0  0  0
 27 30  1  0  0  0  0
 27 29  1  0  0  0  0
 29 28  2  0  0  0  0
 30 29  1  0  0  0  0
 31 27  1  0  0  0  0
 32 31  1  1  0  0  0
 33 32  1  0  0  0  0
 34 36  1  0  0  0  0
 34 33  1  0  0  0  0
 35 37  1  6  0  0  0
 35 32  1  0  0  0  0
 36 35  1  0  0  0  0
M  END
>  <MODEL>
9

>  <REMARK>
 VINA RESULT:      -6.8      1.978      2.674
  Name = 
  6 active torsions:
  status: ('A' for Active; 'I' for Inactive)
    1  A    between atoms: C_2  and  C_25
    2  A    between atoms: C_8  and  C_32
    3  A    between atoms: C_8  and  N_34
    4  A    between atoms: N_11  and  S_35
    5  A    between atoms: C_21  and  C_36
    6  A    between atoms: C_24  and  C_25
                            x       y       z     vdW  Elec       q    Type
                         _______ _______ _______ _____ _____    ______ ____

>  <TORSDO>
F 6

$$$$
