=
 OpenBabel11072413253D

 41 44  0  0  1  0  0  0  0  0999 V2000
  160.7530  208.8250  153.4650 C   0  0  1  0  0  3  0  0  0  0  0  0
  161.8410  206.6970  148.7490 C   0  0  0  0  0  2  0  0  0  0  0  0
  160.5380  203.4430  151.1350 C   0  0  0  0  0  2  0  0  0  0  0  0
  161.4950  209.8460  152.6590 C   0  0  0  0  0  3  0  0  0  0  0  0
  161.8080  208.1960  150.8460 C   0  0  0  0  0  0  0  0  0  0  0  0
  161.1300  205.8350  150.9940 C   0  0  0  0  0  0  0  0  0  0  0  0
  161.5300  207.1210  151.6220 C   0  0  0  0  0  0  0  0  0  0  0  0
  161.2260  203.2710  149.7900 C   0  0  2  0  0  3  0  0  0  0  0  0
  160.9700  204.7380  151.7420 C   0  0  0  0  0  3  0  0  0  0  0  0
  161.9930  209.0700  148.6380 O   0  0  0  0  0  0  0  0  0  0  0  0
  161.8770  208.0560  149.3750 C   0  0  0  0  0  0  0  0  0  0  0  0
  161.6500  207.2460  153.4240 S   0  0  0  0  0  0  0  0  0  0  0  0
  161.9590  209.5450  151.4420 C   0  0  0  0  0  3  0  0  0  0  0  0
  160.8190  204.4090  148.8480 C   0  0  0  0  0  2  0  0  0  0  0  0
  160.8620  205.8040  149.4960 C   0  0  2  0  0  3  0  0  0  0  0  0
  160.5390  209.2770  154.8390 N   0  0  0  0  0  0  0  0  0  0  0  0
  159.6380  210.3680  155.0960 C   0  0  0  0  0  0  0  0  0  0  0  0
  159.4310  210.7550  156.2770 O   0  0  0  0  0  0  0  0  0  0  0  0
  161.3830  208.4900  156.1880 S   0  0  0  0  0  0  0  0  0  0  0  0
  159.9790  207.4020  156.5650 C   0  0  0  0  0  1  0  0  0  0  0  0
  158.9090  211.0400  153.9780 C   0  0  0  0  0  2  0  0  0  0  0  0
  158.4630  212.4240  154.4170 C   0  0  0  0  0  2  0  0  0  0  0  0
  158.5410  213.4070  153.2620 C   0  0  2  0  0  3  0  0  0  0  0  0
  157.3550  214.1420  153.2170 O   0  0  0  0  0  1  0  0  0  0  0  0
  158.7280  212.6560  151.9420 C   0  0  1  0  0  3  0  0  0  0  0  0
  159.0050  213.6310  150.1680 C   0  0  0  0  0  2  0  0  0  0  0  0
  157.8370  213.1760  150.9110 N   0  0  0  0  0  2  0  0  0  0  0  0
  159.9670  213.1320  151.2170 C   0  0  0  0  0  2  0  0  0  0  0  0
  162.0310  200.9150  148.7810 O   0  0  0  0  0  0  0  0  0  0  0  0
  160.7850  201.7040  149.0690 S   0  0  0  0  0  0  0  0  0  0  0  0
  159.9250  200.9450  150.0370 O   0  0  0  0  0  0  0  0  0  0  0  0
  159.9110  201.9660  147.5920 N   0  0  0  0  0  2  0  0  0  0  0  0
  160.7890  201.6280  146.4760 C   0  0  2  0  0  3  0  0  0  0  0  0
  160.0890  202.8390  144.5320 O   0  0  0  0  0  0  0  0  0  0  0  0
  160.8890  202.7610  145.5030 C   0  0  0  0  0  0  0  0  0  0  0  0
  161.9080  203.7450  145.6820 N   0  0  0  0  0  2  0  0  0  0  0  0
  162.0140  204.9260  144.8430 C   0  0  0  0  0  2  0  0  0  0  0  0
  161.3630  206.1170  145.5230 C   0  0  0  0  0  2  0  0  0  0  0  0
  160.0050  206.1640  145.2040 O   0  0  0  0  0  1  0  0  0  0  0  0
  161.4060  199.2460  145.8800 C   0  0  0  0  0  1  0  0  0  0  0  0
  160.3460  200.3310  145.8050 C   0  0  0  0  0  2  0  0  0  0  0  0
  1 16  1  1  0  0  0
  2 11  1  0  0  0  0
  3  9  1  0  0  0  0
  4  1  1  0  0  0  0
  5 13  1  0  0  0  0
  5  7  2  0  0  0  0
  6  7  1  0  0  0  0
  6  9  2  0  0  0  0
  7 12  1  0  0  0  0
  8 30  1  6  0  0  0
  8  3  1  0  0  0  0
 10 11  2  0  0  0  0
 11  5  1  0  0  0  0
 12  1  1  0  0  0  0
 13  4  2  0  0  0  0
 14 15  1  0  0  0  0
 14  8  1  0  0  0  0
 15  2  1  6  0  0  0
 15  6  1  0  0  0  0
 16 17  1  0  0  0  0
 16 19  1  0  0  0  0
 17 18  2  0  0  0  0
 19 20  1  0  0  0  0
 21 22  1  0  0  0  0
 21 17  1  0  0  0  0
 23 24  1  6  0  0  0
 23 22  1  0  0  0  0
 25 23  1  1  0  0  0
 26 27  1  0  0  0  0
 26 28  1  0  0  0  0
 27 25  1  0  0  0  0
 28 25  1  0  0  0  0
 29 30  2  0  0  0  0
 30 31  2  0  0  0  0
 32 30  1  0  0  0  0
 33 41  1  6  0  0  0
 33 32  1  0  0  0  0
 34 35  2  0  0  0  0
 35 36  1  0  0  0  0
 35 33  1  0  0  0  0
 37 38  1  0  0  0  0
 37 36  1  0  0  0  0
 39 38  1  0  0  0  0
 41 40  1  0  0  0  0
M  END
>  <MODEL>
1

>  <REMARK>
 VINA RESULT:      -7.8      0.000      0.000
  Name = 
  13 active torsions:
  status: ('A' for Active; 'I' for Inactive)
    1  A    between atoms: C_1  and  C_14
    2  A    between atoms: C_2  and  N_5
    3  A    between atoms: N_5  and  S_6
    4  A    between atoms: C_10  and  C_19
    5  A    between atoms: C_13  and  C_35
    6  A    between atoms: C_14  and  C_28
    7  A    between atoms: C_16  and  C_35
    8  A    between atoms: N_18  and  S_26
    9  A    between atoms: N_18  and  C_35
   10  A    between atoms: C_19  and  N_33
   11  A    between atoms: C_21  and  S_26
   12  A    between atoms: C_28  and  C_32
   13  A    between atoms: C_32  and  C_36
                            x       y       z     vdW  Elec       q    Type
                         _______ _______ _______ _____ _____    ______ ____

>  <TORSDO>
F 13

$$$$
=
 OpenBabel11072413253D

 41 44  0  0  1  0  0  0  0  0999 V2000
  160.6000  209.0560  153.9850 C   0  0  1  0  0  3  0  0  0  0  0  0
  161.9280  207.1950  149.2180 C   0  0  0  0  0  2  0  0  0  0  0  0
  160.5470  203.8060  151.3610 C   0  0  0  0  0  2  0  0  0  0  0  0
  161.3680  210.1240  153.2710 C   0  0  0  0  0  3  0  0  0  0  0  0
  161.7820  208.5780  151.3890 C   0  0  0  0  0  0  0  0  0  0  0  0
  161.1210  206.2070  151.3770 C   0  0  0  0  0  0  0  0  0  0  0  0
  161.4790  207.4600  152.0920 C   0  0  0  0  0  0  0  0  0  0  0  0
  161.3000  203.7130  150.0430 C   0  0  2  0  0  3  0  0  0  0  0  0
  160.9370  205.0700  152.0570 C   0  0  0  0  0  3  0  0  0  0  0  0
  162.0610  209.5710  149.2420 O   0  0  0  0  0  0  0  0  0  0  0  0
  161.9210  208.5180  149.9170 C   0  0  0  0  0  0  0  0  0  0  0  0
  161.5140  207.4880  153.9020 S   0  0  0  0  0  0  0  0  0  0  0  0
  161.8920  209.8940  152.0620 C   0  0  0  0  0  3  0  0  0  0  0  0
  160.9260  204.8970  149.1450 C   0  0  0  0  0  2  0  0  0  0  0  0
  160.9240  206.2560  149.8690 C   0  0  2  0  0  3  0  0  0  0  0  0
  160.3170  209.4310  155.3700 N   0  0  0  0  0  0  0  0  0  0  0  0
  159.6770  210.6880  155.6490 C   0  0  0  0  0  0  0  0  0  0  0  0
  159.4110  211.0150  156.8360 O   0  0  0  0  0  0  0  0  0  0  0  0
  160.7590  208.3480  156.7040 S   0  0  0  0  0  0  0  0  0  0  0  0
  162.3080  209.2330  157.0430 C   0  0  0  0  0  1  0  0  0  0  0  0
  159.2860  211.6120  154.5410 C   0  0  0  0  0  2  0  0  0  0  0  0
  157.8350  211.3700  154.1610 C   0  0  0  0  0  2  0  0  0  0  0  0
  157.0190  212.6410  154.3140 C   0  0  2  0  0  3  0  0  0  0  0  0
  157.8090  213.6120  154.9310 O   0  0  0  0  0  1  0  0  0  0  0  0
  155.7780  212.3710  155.1690 C   0  0  1  0  0  3  0  0  0  0  0  0
  155.8270  212.4470  157.2100 C   0  0  0  0  0  2  0  0  0  0  0  0
  156.0660  211.4030  156.2210 N   0  0  0  0  0  2  0  0  0  0  0  0
  155.5450  213.4910  156.1590 C   0  0  0  0  0  2  0  0  0  0  0  0
  161.2930  201.0270  150.0970 O   0  0  0  0  0  0  0  0  0  0  0  0
  160.9080  202.1840  149.2180 S   0  0  0  0  0  0  0  0  0  0  0  0
  159.4320  202.1370  148.9500 O   0  0  0  0  0  0  0  0  0  0  0  0
  161.7780  202.0890  147.7190 N   0  0  0  0  0  2  0  0  0  0  0  0
  161.0010  202.7820  146.6970 C   0  0  2  0  0  3  0  0  0  0  0  0
  159.4840  202.1880  144.9410 O   0  0  0  0  0  0  0  0  0  0  0  0
  160.4000  201.8170  145.7240 C   0  0  0  0  0  0  0  0  0  0  0  0
  160.8700  200.4700  145.7010 N   0  0  0  0  0  2  0  0  0  0  0  0
  160.4110  199.4950  144.7250 C   0  0  0  0  0  2  0  0  0  0  0  0
  161.0450  198.1410  144.9930 C   0  0  0  0  0  2  0  0  0  0  0  0
  161.9040  198.2270  146.0900 O   0  0  0  0  0  1  0  0  0  0  0  0
  161.0890  204.5440  144.8800 C   0  0  0  0  0  1  0  0  0  0  0  0
  161.8420  203.8500  146.0020 C   0  0  0  0  0  2  0  0  0  0  0  0
  1 16  1  1  0  0  0
  2 15  1  0  0  0  0
  2 11  1  0  0  0  0
  3  9  1  0  0  0  0
  4  1  1  0  0  0  0
  5 13  1  0  0  0  0
  5  7  2  0  0  0  0
  6  9  2  0  0  0  0
  6  7  1  0  0  0  0
  7 12  1  0  0  0  0
  8 30  1  6  0  0  0
  8  3  1  0  0  0  0
 10 11  2  0  0  0  0
 11  5  1  0  0  0  0
 12  1  1  0  0  0  0
 13  4  2  0  0  0  0
 14  8  1  0  0  0  0
 15 14  1  6  0  0  0
 15  6  1  0  0  0  0
 16 17  1  0  0  0  0
 16 19  1  0  0  0  0
 17 18  2  0  0  0  0
 19 20  1  0  0  0  0
 21 17  1  0  0  0  0
 22 23  1  0  0  0  0
 22 21  1  0  0  0  0
 23 24  1  1  0  0  0
 25 23  1  6  0  0  0
 25 28  1  0  0  0  0
 25 27  1  0  0  0  0
 27 26  1  0  0  0  0
 28 26  1  0  0  0  0
 30 29  2  0  0  0  0
 31 30  2  0  0  0  0
 32 30  1  0  0  0  0
 33 41  1  6  0  0  0
 33 32  1  0  0  0  0
 34 35  2  0  0  0  0
 35 33  1  0  0  0  0
 36 35  1  0  0  0  0
 37 38  1  0  0  0  0
 37 36  1  0  0  0  0
 38 39  1  0  0  0  0
 40 41  1  0  0  0  0
M  END
>  <MODEL>
2

>  <REMARK>
 VINA RESULT:      -5.8      1.885      3.188
  Name = 
  13 active torsions:
  status: ('A' for Active; 'I' for Inactive)
    1  A    between atoms: C_1  and  C_14
    2  A    between atoms: C_2  and  N_5
    3  A    between atoms: N_5  and  S_6
    4  A    between atoms: C_10  and  C_19
    5  A    between atoms: C_13  and  C_35
    6  A    between atoms: C_14  and  C_28
    7  A    between atoms: C_16  and  C_35
    8  A    between atoms: N_18  and  S_26
    9  A    between atoms: N_18  and  C_35
   10  A    between atoms: C_19  and  N_33
   11  A    between atoms: C_21  and  S_26
   12  A    between atoms: C_28  and  C_32
   13  A    between atoms: C_32  and  C_36
                            x       y       z     vdW  Elec       q    Type
                         _______ _______ _______ _____ _____    ______ ____

>  <TORSDO>
F 13

$$$$
=
 OpenBabel11072413253D

 41 44  0  0  1  0  0  0  0  0999 V2000
  160.8880  205.2830  151.3940 C   0  0  1  0  0  3  0  0  0  0  0  0
  161.4610  210.3790  152.6790 C   0  0  0  0  0  2  0  0  0  0  0  0
  161.8760  210.2690  148.4600 C   0  0  0  0  0  2  0  0  0  0  0  0
  161.0490  205.3680  152.8810 C   0  0  0  0  0  3  0  0  0  0  0  0
  161.4410  207.8010  152.7050 C   0  0  0  0  0  0  0  0  0  0  0  0
  161.6150  209.0230  150.5760 C   0  0  0  0  0  0  0  0  0  0  0  0
  161.7150  207.7770  151.3780 C   0  0  0  0  0  0  0  0  0  0  0  0
  162.2470  211.4770  149.3060 C   0  0  2  0  0  3  0  0  0  0  0  0
  161.9980  209.0350  149.2940 C   0  0  0  0  0  3  0  0  0  0  0  0
  160.8090  209.1160  154.5880 O   0  0  0  0  0  0  0  0  0  0  0  0
  161.2030  209.0900  153.3930 C   0  0  0  0  0  0  0  0  0  0  0  0
  162.2100  206.2280  150.5820 S   0  0  0  0  0  0  0  0  0  0  0  0
  161.2850  206.5430  153.4730 C   0  0  0  0  0  3  0  0  0  0  0  0
  161.2840  211.5960  150.4930 C   0  0  0  0  0  2  0  0  0  0  0  0
  161.0260  210.2670  151.2250 C   0  0  2  0  0  3  0  0  0  0  0  0
  160.8690  203.8950  150.9340 N   0  0  0  0  0  0  0  0  0  0  0  0
  160.8460  203.6140  149.5240 C   0  0  0  0  0  0  0  0  0  0  0  0
  160.8470  202.4220  149.1140 O   0  0  0  0  0  0  0  0  0  0  0  0
  160.8710  202.5590  152.1020 S   0  0  0  0  0  0  0  0  0  0  0  0
  162.6080  202.1430  151.7770 C   0  0  0  0  0  1  0  0  0  0  0  0
  160.8530  204.7220  148.5220 C   0  0  0  0  0  2  0  0  0  0  0  0
  162.0760  204.5950  147.6280 C   0  0  0  0  0  2  0  0  0  0  0  0
  162.1780  205.7790  146.6830 C   0  0  2  0  0  3  0  0  0  0  0  0
  161.1420  206.6710  146.9650 O   0  0  0  0  0  1  0  0  0  0  0  0
  162.0650  205.3060  145.2310 C   0  0  1  0  0  3  0  0  0  0  0  0
  160.4650  204.2250  144.5620 C   0  0  0  0  0  2  0  0  0  0  0  0
  161.7470  203.8830  145.1660 N   0  0  0  0  0  2  0  0  0  0  0  0
  160.7370  205.7070  144.6300 C   0  0  0  0  0  2  0  0  0  0  0  0
  161.5080  214.0530  149.1090 O   0  0  0  0  0  0  0  0  0  0  0  0
  162.1770  212.9600  148.3230 S   0  0  0  0  0  0  0  0  0  0  0  0
  163.5740  213.3810  147.9730 O   0  0  0  0  0  0  0  0  0  0  0  0
  161.2770  212.6570  146.8700 N   0  0  0  0  0  2  0  0  0  0  0  0
  160.7700  213.9320  146.3730 C   0  0  2  0  0  3  0  0  0  0  0  0
  158.6210  214.0480  145.3230 O   0  0  0  0  0  0  0  0  0  0  0  0
  159.2740  213.9690  146.3980 C   0  0  0  0  0  0  0  0  0  0  0  0
  158.5980  213.9250  147.6540 N   0  0  0  0  0  2  0  0  0  0  0  0
  157.1510  213.8580  147.7640 C   0  0  0  0  0  2  0  0  0  0  0  0
  156.7510  213.2770  149.1090 C   0  0  0  0  0  2  0  0  0  0  0  0
  157.8520  213.2580  149.9670 O   0  0  0  0  0  1  0  0  0  0  0  0
  162.4890  213.3310  144.6130 C   0  0  0  0  0  1  0  0  0  0  0  0
  161.3290  214.2380  144.9850 C   0  0  0  0  0  2  0  0  0  0  0  0
  1 16  1  6  0  0  0
  1  4  1  0  0  0  0
  2 11  1  0  0  0  0
  3  9  1  0  0  0  0
  3  8  1  0  0  0  0
  4 13  2  0  0  0  0
  5 11  1  0  0  0  0
  5 13  1  0  0  0  0
  6 15  1  0  0  0  0
  6  7  1  0  0  0  0
  7  5  2  0  0  0  0
  8 30  1  6  0  0  0
  8 14  1  0  0  0  0
  9  6  2  0  0  0  0
 11 10  2  0  0  0  0
 12  7  1  0  0  0  0
 12  1  1  0  0  0  0
 15 14  1  6  0  0  0
 15  2  1  0  0  0  0
 16 19  1  0  0  0  0
 17 16  1  0  0  0  0
 18 17  2  0  0  0  0
 20 19  1  0  0  0  0
 21 17  1  0  0  0  0
 22 21  1  0  0  0  0
 23 24  1  1  0  0  0
 23 22  1  0  0  0  0
 25 23  1  1  0  0  0
 26 28  1  0  0  0  0
 26 27  1  0  0  0  0
 27 25  1  0  0  0  0
 28 25  1  0  0  0  0
 30 29  2  0  0  0  0
 31 30  2  0  0  0  0
 32 30  1  0  0  0  0
 33 41  1  6  0  0  0
 33 35  1  0  0  0  0
 33 32  1  0  0  0  0
 34 35  2  0  0  0  0
 35 36  1  0  0  0  0
 36 37  1  0  0  0  0
 37 38  1  0  0  0  0
 38 39  1  0  0  0  0
 40 41  1  0  0  0  0
M  END
>  <MODEL>
3

>  <REMARK>
 VINA RESULT:      -5.8      3.226      9.125
  Name = 
  13 active torsions:
  status: ('A' for Active; 'I' for Inactive)
    1  A    between atoms: C_1  and  C_14
    2  A    between atoms: C_2  and  N_5
    3  A    between atoms: N_5  and  S_6
    4  A    between atoms: C_10  and  C_19
    5  A    between atoms: C_13  and  C_35
    6  A    between atoms: C_14  and  C_28
    7  A    between atoms: C_16  and  C_35
    8  A    between atoms: N_18  and  S_26
    9  A    between atoms: N_18  and  C_35
   10  A    between atoms: C_19  and  N_33
   11  A    between atoms: C_21  and  S_26
   12  A    between atoms: C_28  and  C_32
   13  A    between atoms: C_32  and  C_36
                            x       y       z     vdW  Elec       q    Type
                         _______ _______ _______ _____ _____    ______ ____

>  <TORSDO>
F 13

$$$$
=
 OpenBabel11072413253D

 41 44  0  0  1  0  0  0  0  0999 V2000
  161.4140  205.0570  149.5730 C   0  0  1  0  0  3  0  0  0  0  0  0
  161.8330  210.1700  150.8480 C   0  0  0  0  0  2  0  0  0  0  0  0
  161.2440  208.1740  154.5420 C   0  0  0  0  0  2  0  0  0  0  0  0
  161.3270  205.8560  148.3090 C   0  0  0  0  0  3  0  0  0  0  0  0
  161.3810  207.9480  149.6200 C   0  0  0  0  0  0  0  0  0  0  0  0
  161.3530  208.0400  152.0790 C   0  0  0  0  0  0  0  0  0  0  0  0
  161.0570  207.3550  150.7940 C   0  0  0  0  0  0  0  0  0  0  0  0
  161.1330  209.6820  154.3790 C   0  0  2  0  0  3  0  0  0  0  0  0
  160.9300  207.5180  153.2370 C   0  0  0  0  0  3  0  0  0  0  0  0
  162.3150  209.8540  148.5380 O   0  0  0  0  0  0  0  0  0  0  0  0
  161.8770  209.3420  149.6020 C   0  0  0  0  0  0  0  0  0  0  0  0
  160.2570  205.7310  150.8000 S   0  0  0  0  0  0  0  0  0  0  0  0
  161.3340  207.1920  148.3470 C   0  0  0  0  0  3  0  0  0  0  0  0
  162.1460  210.1680  153.3360 C   0  0  0  0  0  2  0  0  0  0  0  0
  162.1840  209.3150  152.0550 C   0  0  2  0  0  3  0  0  0  0  0  0
  161.1610  203.6370  149.3300 N   0  0  0  0  0  0  0  0  0  0  0  0
  161.5980  203.0370  148.0980 C   0  0  0  0  0  0  0  0  0  0  0  0
  161.4010  201.8110  147.8850 O   0  0  0  0  0  0  0  0  0  0  0  0
  160.3180  202.6530  150.5430 S   0  0  0  0  0  0  0  0  0  0  0  0
  161.7680  202.5710  151.6330 C   0  0  0  0  0  1  0  0  0  0  0  0
  162.3170  203.8430  147.0670 C   0  0  0  0  0  2  0  0  0  0  0  0
  162.0260  203.2830  145.6850 C   0  0  0  0  0  2  0  0  0  0  0  0
  160.5360  203.3090  145.3950 C   0  0  2  0  0  3  0  0  0  0  0  0
  160.1690  202.0930  144.8160 O   0  0  0  0  0  1  0  0  0  0  0  0
  160.2060  204.4540  144.4330 C   0  0  1  0  0  3  0  0  0  0  0  0
  160.7510  206.3850  144.8170 C   0  0  0  0  0  2  0  0  0  0  0  0
  159.5860  205.5700  145.1390 N   0  0  0  0  0  2  0  0  0  0  0  0
  161.4440  205.2560  144.0980 C   0  0  0  0  0  2  0  0  0  0  0  0
  161.0160  209.5900  157.0610 O   0  0  0  0  0  0  0  0  0  0  0  0
  161.4360  210.4930  155.9360 S   0  0  0  0  0  0  0  0  0  0  0  0
  162.9020  210.7900  156.0550 O   0  0  0  0  0  0  0  0  0  0  0  0
  160.5310  211.9720  156.0100 N   0  0  0  0  0  2  0  0  0  0  0  0
  159.3340  211.8160  155.1900 C   0  0  2  0  0  3  0  0  0  0  0  0
  158.8540  214.1110  154.7030 O   0  0  0  0  0  0  0  0  0  0  0  0
  159.1620  212.9740  154.2560 C   0  0  0  0  0  0  0  0  0  0  0  0
  159.3410  212.7710  152.8550 N   0  0  0  0  0  2  0  0  0  0  0  0
  159.2880  213.8570  151.8910 C   0  0  0  0  0  2  0  0  0  0  0  0
  159.8830  213.4150  150.5660 C   0  0  0  0  0  2  0  0  0  0  0  0
  158.9280  213.5250  149.5550 O   0  0  0  0  0  1  0  0  0  0  0  0
  156.8840  211.1820  155.2500 C   0  0  0  0  0  1  0  0  0  0  0  0
  158.1010  211.5920  156.0600 C   0  0  0  0  0  2  0  0  0  0  0  0
  1 16  1  6  0  0  0
  1 12  1  0  0  0  0
  4 13  2  0  0  0  0
  4  1  1  0  0  0  0
  5  7  2  0  0  0  0
  6  9  2  0  0  0  0
  7 12  1  0  0  0  0
  7  6  1  0  0  0  0
  8  3  1  0  0  0  0
  8 30  1  1  0  0  0
  9  3  1  0  0  0  0
 10 11  2  0  0  0  0
 11  5  1  0  0  0  0
 11  2  1  0  0  0  0
 13  5  1  0  0  0  0
 14  8  1  0  0  0  0
 15  2  1  6  0  0  0
 15  6  1  0  0  0  0
 15 14  1  0  0  0  0
 16 19  1  0  0  0  0
 17 16  1  0  0  0  0
 18 17  2  0  0  0  0
 19 20  1  0  0  0  0
 21 17  1  0  0  0  0
 22 21  1  0  0  0  0
 23 24  1  6  0  0  0
 23 22  1  0  0  0  0
 25 27  1  0  0  0  0
 25 23  1  1  0  0  0
 26 27  1  0  0  0  0
 28 25  1  0  0  0  0
 28 26  1  0  0  0  0
 30 32  1  0  0  0  0
 30 31  2  0  0  0  0
 30 29  2  0  0  0  0
 33 32  1  0  0  0  0
 33 41  1  1  0  0  0
 35 34  2  0  0  0  0
 35 33  1  0  0  0  0
 36 35  1  0  0  0  0
 37 36  1  0  0  0  0
 38 37  1  0  0  0  0
 39 38  1  0  0  0  0
 40 41  1  0  0  0  0
M  END
>  <MODEL>
4

>  <REMARK>
 VINA RESULT:      -5.7      1.953      9.799
  Name = 
  13 active torsions:
  status: ('A' for Active; 'I' for Inactive)
    1  A    between atoms: C_1  and  C_14
    2  A    between atoms: C_2  and  N_5
    3  A    between atoms: N_5  and  S_6
    4  A    between atoms: C_10  and  C_19
    5  A    between atoms: C_13  and  C_35
    6  A    between atoms: C_14  and  C_28
    7  A    between atoms: C_16  and  C_35
    8  A    between atoms: N_18  and  S_26
    9  A    between atoms: N_18  and  C_35
   10  A    between atoms: C_19  and  N_33
   11  A    between atoms: C_21  and  S_26
   12  A    between atoms: C_28  and  C_32
   13  A    between atoms: C_32  and  C_36
                            x       y       z     vdW  Elec       q    Type
                         _______ _______ _______ _____ _____    ______ ____

>  <TORSDO>
F 13

$$$$
=
 OpenBabel11072413253D

 41 44  0  0  1  0  0  0  0  0999 V2000
  160.5070  209.1170  153.5140 C   0  0  1  0  0  3  0  0  0  0  0  0
  162.3100  209.3850  148.5510 C   0  0  0  0  0  2  0  0  0  0  0  0
  161.0680  205.3610  149.0400 C   0  0  0  0  0  2  0  0  0  0  0  0
  161.2330  210.4180  153.3570 C   0  0  0  0  0  3  0  0  0  0  0  0
  161.9010  209.7760  151.0670 C   0  0  0  0  0  0  0  0  0  0  0  0
  161.4400  207.5790  150.0570 C   0  0  0  0  0  0  0  0  0  0  0  0
  161.6430  208.4570  151.2390 C   0  0  0  0  0  0  0  0  0  0  0  0
  161.9150  205.8390  147.8710 C   0  0  2  0  0  3  0  0  0  0  0  0
  161.3040  206.2570  150.2120 C   0  0  0  0  0  3  0  0  0  0  0  0
  162.2450  211.5570  149.5240 O   0  0  0  0  0  0  0  0  0  0  0  0
  162.1460  210.3160  149.7110 C   0  0  0  0  0  0  0  0  0  0  0  0
  161.5500  207.7600  152.9070 S   0  0  0  0  0  0  0  0  0  0  0  0
  161.8550  210.7160  152.2120 C   0  0  0  0  0  3  0  0  0  0  0  0
  161.5070  207.2640  147.4820 C   0  0  0  0  0  2  0  0  0  0  0  0
  161.3440  208.2170  148.6790 C   0  0  2  0  0  3  0  0  0  0  0  0
  160.0990  208.8930  154.9000 N   0  0  0  0  0  0  0  0  0  0  0  0
  159.3990  209.9280  155.6120 C   0  0  0  0  0  0  0  0  0  0  0  0
  159.0260  209.7400  156.8000 O   0  0  0  0  0  0  0  0  0  0  0  0
  160.4640  207.3560  155.7090 S   0  0  0  0  0  0  0  0  0  0  0  0
  161.8250  208.0700  156.6750 C   0  0  0  0  0  1  0  0  0  0  0  0
  159.0720  211.2270  154.9490 C   0  0  0  0  0  2  0  0  0  0  0  0
  158.4280  212.1660  155.9540 C   0  0  0  0  0  2  0  0  0  0  0  0
  156.9630  212.3900  155.6230 C   0  0  2  0  0  3  0  0  0  0  0  0
  156.2490  211.2340  155.9400 O   0  0  0  0  0  1  0  0  0  0  0  0
  156.8020  212.6990  154.1320 C   0  0  1  0  0  3  0  0  0  0  0  0
  155.9870  214.4520  153.4680 C   0  0  0  0  0  2  0  0  0  0  0  0
  155.4460  213.1480  153.8330 N   0  0  0  0  0  2  0  0  0  0  0  0
  157.4040  214.0430  153.7870 C   0  0  0  0  0  2  0  0  0  0  0  0
  160.2670  204.7480  146.0510 O   0  0  0  0  0  0  0  0  0  0  0  0
  161.7080  204.7510  146.4760 S   0  0  0  0  0  0  0  0  0  0  0  0
  162.5620  205.2400  145.3430 O   0  0  0  0  0  0  0  0  0  0  0  0
  162.1860  203.1410  146.9150 N   0  0  0  0  0  2  0  0  0  0  0  0
  160.9790  202.3370  147.0820 C   0  0  2  0  0  3  0  0  0  0  0  0
  161.4400  200.5560  148.6160 O   0  0  0  0  0  0  0  0  0  0  0  0
  160.9370  201.6980  148.4350 C   0  0  0  0  0  0  0  0  0  0  0  0
  160.3100  202.3910  149.5130 N   0  0  0  0  0  2  0  0  0  0  0  0
  160.3100  201.8870  150.8760 C   0  0  0  0  0  2  0  0  0  0  0  0
  160.8320  202.9480  151.8300 C   0  0  0  0  0  2  0  0  0  0  0  0
  162.1550  203.2610  151.5170 O   0  0  0  0  0  1  0  0  0  0  0  0
  159.8560  201.7470  144.8910 C   0  0  0  0  0  1  0  0  0  0  0  0
  160.8450  201.3130  145.9580 C   0  0  0  0  0  2  0  0  0  0  0  0
  1 16  1  1  0  0  0
  2 15  1  0  0  0  0
  2 11  1  0  0  0  0
  3  9  1  0  0  0  0
  4  1  1  0  0  0  0
  5  7  2  0  0  0  0
  5 13  1  0  0  0  0
  6  9  2  0  0  0  0
  6  7  1  0  0  0  0
  7 12  1  0  0  0  0
  8 30  1  6  0  0  0
  8  3  1  0  0  0  0
 10 11  2  0  0  0  0
 11  5  1  0  0  0  0
 12  1  1  0  0  0  0
 13  4  2  0  0  0  0
 14  8  1  0  0  0  0
 15 14  1  6  0  0  0
 15  6  1  0  0  0  0
 16 17  1  0  0  0  0
 16 19  1  0  0  0  0
 17 18  2  0  0  0  0
 19 20  1  0  0  0  0
 21 17  1  0  0  0  0
 21 22  1  0  0  0  0
 23 24  1  6  0  0  0
 23 22  1  0  0  0  0
 25 23  1  1  0  0  0
 26 28  1  0  0  0  0
 26 27  1  0  0  0  0
 27 25  1  0  0  0  0
 28 25  1  0  0  0  0
 29 30  2  0  0  0  0
 30 32  1  0  0  0  0
 31 30  2  0  0  0  0
 32 33  1  0  0  0  0
 33 41  1  6  0  0  0
 33 35  1  0  0  0  0
 35 34  2  0  0  0  0
 35 36  1  0  0  0  0
 36 37  1  0  0  0  0
 37 38  1  0  0  0  0
 39 38  1  0  0  0  0
 40 41  1  0  0  0  0
M  END
>  <MODEL>
5

>  <REMARK>
 VINA RESULT:      -5.5      1.989      3.425
  Name = 
  13 active torsions:
  status: ('A' for Active; 'I' for Inactive)
    1  A    between atoms: C_1  and  C_14
    2  A    between atoms: C_2  and  N_5
    3  A    between atoms: N_5  and  S_6
    4  A    between atoms: C_10  and  C_19
    5  A    between atoms: C_13  and  C_35
    6  A    between atoms: C_14  and  C_28
    7  A    between atoms: C_16  and  C_35
    8  A    between atoms: N_18  and  S_26
    9  A    between atoms: N_18  and  C_35
   10  A    between atoms: C_19  and  N_33
   11  A    between atoms: C_21  and  S_26
   12  A    between atoms: C_28  and  C_32
   13  A    between atoms: C_32  and  C_36
                            x       y       z     vdW  Elec       q    Type
                         _______ _______ _______ _____ _____    ______ ____

>  <TORSDO>
F 13

$$$$
=
 OpenBabel11072413253D

 41 44  0  0  1  0  0  0  0  0999 V2000
  161.1500  205.0930  151.1920 C   0  0  1  0  0  3  0  0  0  0  0  0
  161.4250  210.1680  152.6450 C   0  0  0  0  0  2  0  0  0  0  0  0
  161.9640  210.2110  148.4390 C   0  0  0  0  0  2  0  0  0  0  0  0
  161.2650  205.1390  152.6840 C   0  0  0  0  0  3  0  0  0  0  0  0
  161.5370  207.5930  152.5930 C   0  0  0  0  0  0  0  0  0  0  0  0
  161.7070  208.8880  150.5080 C   0  0  0  0  0  0  0  0  0  0  0  0
  161.8480  207.6240  151.2750 C   0  0  0  0  0  0  0  0  0  0  0  0
  162.2480  211.4100  149.3310 C   0  0  2  0  0  3  0  0  0  0  0  0
  162.1250  208.9590  149.2390 C   0  0  0  0  0  3  0  0  0  0  0  0
  160.7850  208.8140  154.4950 O   0  0  0  0  0  0  0  0  0  0  0  0
  161.2140  208.8450  153.3120 C   0  0  0  0  0  0  0  0  0  0  0  0
  162.4440  206.1270  150.4480 S   0  0  0  0  0  0  0  0  0  0  0  0
  161.4230  206.3050  153.3180 C   0  0  0  0  0  3  0  0  0  0  0  0
  161.2480  211.4430  150.4920 C   0  0  0  0  0  2  0  0  0  0  0  0
  161.0380  210.0800  151.1760 C   0  0  2  0  0  3  0  0  0  0  0  0
  161.2150  203.7210  150.6900 N   0  0  0  0  0  0  0  0  0  0  0  0
  161.0710  203.4710  149.2810 C   0  0  0  0  0  0  0  0  0  0  0  0
  161.1420  202.2960  148.8340 O   0  0  0  0  0  0  0  0  0  0  0  0
  161.4680  202.3640  151.8060 S   0  0  0  0  0  0  0  0  0  0  0  0
  160.4710  201.2230  150.8060 C   0  0  0  0  0  1  0  0  0  0  0  0
  160.8660  204.5980  148.3210 C   0  0  0  0  0  2  0  0  0  0  0  0
  162.1390  204.8260  147.5220 C   0  0  0  0  0  2  0  0  0  0  0  0
  162.0470  206.1090  146.7160 C   0  0  2  0  0  3  0  0  0  0  0  0
  160.9350  206.8340  147.1490 O   0  0  0  0  0  1  0  0  0  0  0  0
  161.9000  205.7870  145.2270 C   0  0  1  0  0  3  0  0  0  0  0  0
  160.6500  204.3180  144.5510 C   0  0  0  0  0  2  0  0  0  0  0  0
  162.0420  204.3560  144.9830 N   0  0  0  0  0  2  0  0  0  0  0  0
  160.4450  205.7890  144.8110 C   0  0  0  0  0  2  0  0  0  0  0  0
  161.0460  213.7850  148.9670 O   0  0  0  0  0  0  0  0  0  0  0  0
  162.1300  212.9180  148.3910 S   0  0  0  0  0  0  0  0  0  0  0  0
  163.4420  213.6440  148.4650 O   0  0  0  0  0  0  0  0  0  0  0  0
  161.7590  212.5480  146.7370 N   0  0  0  0  0  2  0  0  0  0  0  0
  161.2710  213.7650  146.0960 C   0  0  2  0  0  3  0  0  0  0  0  0
  159.1230  212.7280  145.8900 O   0  0  0  0  0  0  0  0  0  0  0  0
  159.9660  213.5270  145.4020 C   0  0  0  0  0  0  0  0  0  0  0  0
  159.6940  214.2080  144.1790 N   0  0  0  0  0  2  0  0  0  0  0  0
  158.4170  214.1100  143.4930 C   0  0  0  0  0  2  0  0  0  0  0  0
  158.5820  214.4420  142.0200 C   0  0  0  0  0  2  0  0  0  0  0  0
  157.3600  214.3040  141.3610 O   0  0  0  0  0  1  0  0  0  0  0  0
  163.0710  213.2730  144.3840 C   0  0  0  0  0  1  0  0  0  0  0  0
  162.3240  214.3470  145.1550 C   0  0  0  0  0  2  0  0  0  0  0  0
  1 16  1  6  0  0  0
  1  4  1  0  0  0  0
  2 11  1  0  0  0  0
  3  9  1  0  0  0  0
  3  8  1  0  0  0  0
  4 13  2  0  0  0  0
  5 11  1  0  0  0  0
  5 13  1  0  0  0  0
  6 15  1  0  0  0  0
  6  7  1  0  0  0  0
  7  5  2  0  0  0  0
  8 30  1  6  0  0  0
  8 14  1  0  0  0  0
  9  6  2  0  0  0  0
 11 10  2  0  0  0  0
 12  1  1  0  0  0  0
 12  7  1  0  0  0  0
 15 14  1  6  0  0  0
 15  2  1  0  0  0  0
 16 19  1  0  0  0  0
 17 16  1  0  0  0  0
 18 17  2  0  0  0  0
 20 19  1  0  0  0  0
 21 17  1  0  0  0  0
 22 21  1  0  0  0  0
 23 24  1  1  0  0  0
 23 22  1  0  0  0  0
 25 23  1  1  0  0  0
 26 28  1  0  0  0  0
 26 27  1  0  0  0  0
 27 25  1  0  0  0  0
 28 25  1  0  0  0  0
 30 31  2  0  0  0  0
 30 29  2  0  0  0  0
 32 30  1  0  0  0  0
 33 41  1  6  0  0  0
 33 32  1  0  0  0  0
 35 34  2  0  0  0  0
 35 33  1  0  0  0  0
 36 35  1  0  0  0  0
 37 36  1  0  0  0  0
 38 37  1  0  0  0  0
 39 38  1  0  0  0  0
 40 41  1  0  0  0  0
M  END
>  <MODEL>
6

>  <REMARK>
 VINA RESULT:      -5.0      3.962      9.074
  Name = 
  13 active torsions:
  status: ('A' for Active; 'I' for Inactive)
    1  A    between atoms: C_1  and  C_14
    2  A    between atoms: C_2  and  N_5
    3  A    between atoms: N_5  and  S_6
    4  A    between atoms: C_10  and  C_19
    5  A    between atoms: C_13  and  C_35
    6  A    between atoms: C_14  and  C_28
    7  A    between atoms: C_16  and  C_35
    8  A    between atoms: N_18  and  S_26
    9  A    between atoms: N_18  and  C_35
   10  A    between atoms: C_19  and  N_33
   11  A    between atoms: C_21  and  S_26
   12  A    between atoms: C_28  and  C_32
   13  A    between atoms: C_32  and  C_36
                            x       y       z     vdW  Elec       q    Type
                         _______ _______ _______ _____ _____    ______ ____

>  <TORSDO>
F 13

$$$$
