=
 OpenBabel11072410503D

 40 44  0  0  1  0  0  0  0  0999 V2000
  162.3150  210.6800  149.8120 C   0  0  0  0  0  2  0  0  0  0  0  0
  162.3120  207.2560  148.3730 N   0  0  0  0  0  2  0  0  0  0  0  0
  161.9920  207.4290  152.6860 C   0  0  0  0  0  2  0  0  0  0  0  0
  161.8440  208.6040  151.7820 C   0  0  0  0  0  0  0  0  0  0  0  0
  161.5350  209.9900  151.9000 N   0  0  0  0  0  0  0  0  0  0  0  0
  162.1860  209.5590  148.8740 N   0  0  0  0  0  2  0  0  0  0  0  0
  162.2480  206.6090  151.5410 C   0  0  2  0  0  3  0  0  0  0  0  0
  161.1870  210.7130  150.7420 N   0  0  0  0  0  2  0  0  0  0  0  0
  162.2200  208.1800  149.2690 C   0  0  0  0  0  0  0  0  0  0  0  0
  162.1220  207.8230  150.6840 C   0  0  0  0  0  0  0  0  0  0  0  0
  161.3430  210.5920  153.2100 C   0  0  0  0  0  2  0  0  0  0  0  0
  159.8610  210.8310  153.4660 C   0  0  2  0  0  3  0  0  0  0  0  0
  159.4840  212.2430  153.0490 C   0  0  0  0  0  2  0  0  0  0  0  0
  158.4510  212.2010  152.1090 O   0  0  0  0  0  0  0  0  0  0  0  0
  158.3320  213.4770  151.6660 N   0  0  0  0  0  0  0  0  0  0  0  0
  159.3420  213.8670  149.7980 C   0  0  0  0  0  2  0  0  0  0  0  0
  159.6640  213.9160  151.2730 C   0  0  0  0  0  2  0  0  0  0  0  0
  157.9770  213.4080  150.2530 C   0  0  0  0  0  2  0  0  0  0  0  0
  159.5800  210.6480  154.8490 O   0  0  0  0  0  0  0  0  0  0  0  0
  160.2480  207.2700  156.2520 C   0  0  0  0  0  3  0  0  0  0  0  0
  161.7480  208.8820  157.2610 C   0  0  0  0  0  3  0  0  0  0  0  0
  161.2880  207.5680  157.1390 C   0  0  0  0  0  3  0  0  0  0  0  0
  159.6690  208.2870  155.4880 C   0  0  0  0  0  3  0  0  0  0  0  0
  161.1680  209.9000  156.4960 C   0  0  0  0  0  3  0  0  0  0  0  0
  160.1280  209.6100  155.6080 C   0  0  0  0  0  0  0  0  0  0  0  0
  161.0780  205.6640  151.2860 C   0  0  0  0  0  2  0  0  0  0  0  0
  161.2310  203.3400  151.5320 C   0  0  0  0  0  2  0  0  0  0  0  0
  160.8450  202.1660  150.6680 C   0  0  0  0  0  2  0  0  0  0  0  0
  160.3170  202.7810  149.3940 C   0  0  1  0  0  3  0  0  0  0  0  0
  160.7150  204.2460  149.4600 C   0  0  0  0  0  2  0  0  0  0  0  0
  161.5450  204.4470  150.6410 N   0  0  0  0  0  0  0  0  0  0  0  0
  161.5570  200.8870  148.5180 O   0  0  0  0  0  1  0  0  0  0  0  0
  160.9540  202.1040  148.1750 C   0  0  2  0  0  3  0  0  0  0  0  0
  161.8480  202.9490  147.4790 O   0  0  0  0  0  0  0  0  0  0  0  0
  161.3160  203.2280  146.2090 C   0  0  0  0  0  2  0  0  0  0  0  0
  162.2020  204.2220  145.4790 C   0  0  2  0  0  3  0  0  0  0  0  0
  163.1670  204.7330  146.3490 O   0  0  0  0  0  1  0  0  0  0  0  0
  161.3750  205.3320  144.9230 C   0  0  0  0  0  0  0  0  0  0  0  0
  160.6630  206.0420  145.6820 O   0  0  0  0  0  1  0  0  0  0  0  0
  161.3610  205.5590  143.5530 O   0  0  0  0  0  0  0  0  0  0  0  0
  1  8  1  0  0  0  0
  2  9  2  0  0  0  0
  4  5  1  0  0  0  0
  4  3  1  0  0  0  0
  5 11  1  0  0  0  0
  6  9  1  0  0  0  0
  6  1  1  0  0  0  0
  7 26  1  6  0  0  0
  7  3  1  0  0  0  0
  8  5  1  0  0  0  0
  9 10  1  0  0  0  0
 10  7  1  0  0  0  0
 10  4  2  0  0  0  0
 11 12  1  0  0  0  0
 12 13  1  1  0  0  0
 12 19  1  0  0  0  0
 14 13  1  0  0  0  0
 15 14  1  0  0  0  0
 16 18  1  0  0  0  0
 16 17  1  0  0  0  0
 17 15  1  0  0  0  0
 18 15  1  0  0  0  0
 19 25  1  0  0  0  0
 20 22  1  0  0  0  0
 22 21  2  0  0  0  0
 23 25  1  0  0  0  0
 23 20  2  0  0  0  0
 24 21  1  0  0  0  0
 25 24  2  0  0  0  0
 28 27  1  0  0  0  0
 29 33  1  6  0  0  0
 29 30  1  0  0  0  0
 29 28  1  0  0  0  0
 30 31  1  0  0  0  0
 31 26  1  0  0  0  0
 31 27  1  0  0  0  0
 33 32  1  1  0  0  0
 34 33  1  0  0  0  0
 35 34  1  0  0  0  0
 36 35  1  0  0  0  0
 36 37  1  1  0  0  0
 38 36  1  0  0  0  0
 38 39  1  0  0  0  0
 40 38  2  0  0  0  0
M  END
>  <MODEL>
1

>  <REMARK>
 VINA RESULT:      -7.6      0.000      0.000
  Name = 
  14 active torsions:
  status: ('A' for Active; 'I' for Inactive)
    1  A    between atoms: O_1  and  C_34
    2  A    between atoms: O_1  and  C_35
    3  A    between atoms: C_2  and  C_7
    4  A    between atoms: O_3  and  N_8
    5  A    between atoms: O_3  and  C_17
    6  A    between atoms: C_7  and  C_35
    7  A    between atoms: C_17  and  C_21
    8  A    between atoms: C_18  and  O_36
    9  A    between atoms: C_21  and  C_23
   10  A    between atoms: C_21  and  O_36
   11  A    between atoms: C_23  and  N_27
   12  A    between atoms: C_24  and  C_30
   13  A    between atoms: C_24  and  N_40
   14  A    between atoms: C_26  and  C_34
                            x       y       z     vdW  Elec       q    Type
                         _______ _______ _______ _____ _____    ______ ____

>  <TORSDO>
F 14

$$$$
=
 OpenBabel11072410503D

 40 44  0  0  1  0  0  0  0  0999 V2000
  162.0060  210.1520  150.7430 C   0  0  0  0  0  2  0  0  0  0  0  0
  162.3300  206.9170  148.9470 N   0  0  0  0  0  2  0  0  0  0  0  0
  161.3670  206.5860  153.1540 C   0  0  0  0  0  2  0  0  0  0  0  0
  161.3160  207.8550  152.3750 C   0  0  0  0  0  0  0  0  0  0  0  0
  160.9470  209.2140  152.5980 N   0  0  0  0  0  0  0  0  0  0  0  0
  162.0550  209.1450  149.6770 N   0  0  0  0  0  2  0  0  0  0  0  0
  161.8170  205.9080  151.9770 C   0  0  2  0  0  3  0  0  0  0  0  0
  160.7510  210.0600  151.4890 N   0  0  0  0  0  2  0  0  0  0  0  0
  162.0760  207.7300  149.9170 C   0  0  0  0  0  0  0  0  0  0  0  0
  161.7790  207.2110  151.2520 C   0  0  0  0  0  0  0  0  0  0  0  0
  160.5420  209.6570  153.9230 C   0  0  0  0  0  2  0  0  0  0  0  0
  161.1450  211.0220  154.2270 C   0  0  2  0  0  3  0  0  0  0  0  0
  161.6040  211.0750  155.6740 C   0  0  0  0  0  2  0  0  0  0  0  0
  162.4840  210.0200  155.9320 O   0  0  0  0  0  0  0  0  0  0  0  0
  162.1130  209.5460  157.1470 N   0  0  0  0  0  0  0  0  0  0  0  0
  160.3660  208.2770  157.1100 C   0  0  0  0  0  2  0  0  0  0  0  0
  160.6740  209.7490  157.2600 C   0  0  0  0  0  2  0  0  0  0  0  0
  161.8630  208.1180  156.9910 C   0  0  0  0  0  2  0  0  0  0  0  0
  160.1720  212.0350  153.9960 O   0  0  0  0  0  0  0  0  0  0  0  0
  157.0600  211.7730  156.0140 C   0  0  0  0  0  3  0  0  0  0  0  0
  158.2110  213.8340  156.5560 C   0  0  0  0  0  3  0  0  0  0  0  0
  157.1340  212.9620  156.7450 C   0  0  0  0  0  3  0  0  0  0  0  0
  158.0630  211.4560  155.0930 C   0  0  0  0  0  3  0  0  0  0  0  0
  159.2140  213.5170  155.6340 C   0  0  0  0  0  3  0  0  0  0  0  0
  159.1460  212.3290  154.8990 C   0  0  0  0  0  0  0  0  0  0  0  0
  160.7300  204.9800  151.4430 C   0  0  0  0  0  2  0  0  0  0  0  0
  161.1710  202.6820  151.3550 C   0  0  0  0  0  2  0  0  0  0  0  0
  160.9010  201.6010  150.3390 C   0  0  0  0  0  2  0  0  0  0  0  0
  160.2610  202.3160  149.1730 C   0  0  1  0  0  3  0  0  0  0  0  0
  160.4810  203.7960  149.4410 C   0  0  0  0  0  2  0  0  0  0  0  0
  161.3190  203.9320  150.6250 N   0  0  0  0  0  0  0  0  0  0  0  0
  161.5870  200.6670  147.9850 O   0  0  0  0  0  1  0  0  0  0  0  0
  160.9350  201.9010  147.8610 C   0  0  2  0  0  3  0  0  0  0  0  0
  161.7960  202.8950  147.3430 O   0  0  0  0  0  0  0  0  0  0  0  0
  161.4570  203.1380  146.0010 C   0  0  0  0  0  2  0  0  0  0  0  0
  162.2890  204.2830  145.4520 C   0  0  2  0  0  3  0  0  0  0  0  0
  163.2020  204.7160  146.4150 O   0  0  0  0  0  1  0  0  0  0  0  0
  161.4010  205.4100  145.0430 C   0  0  0  0  0  0  0  0  0  0  0  0
  160.8880  206.1680  145.9100 O   0  0  0  0  0  1  0  0  0  0  0  0
  161.1080  205.6010  143.6990 O   0  0  0  0  0  0  0  0  0  0  0  0
  1  8  1  0  0  0  0
  2  9  2  0  0  0  0
  4  5  1  0  0  0  0
  4  3  1  0  0  0  0
  5 11  1  0  0  0  0
  6  9  1  0  0  0  0
  6  1  1  0  0  0  0
  7 26  1  6  0  0  0
  7  3  1  0  0  0  0
  8  5  1  0  0  0  0
  9 10  1  0  0  0  0
 10  7  1  0  0  0  0
 10  4  2  0  0  0  0
 12 11  1  1  0  0  0
 12 13  1  0  0  0  0
 13 14  1  0  0  0  0
 14 15  1  0  0  0  0
 15 17  1  0  0  0  0
 16 17  1  0  0  0  0
 18 16  1  0  0  0  0
 18 15  1  0  0  0  0
 19 12  1  0  0  0  0
 19 25  1  0  0  0  0
 20 22  1  0  0  0  0
 21 22  2  0  0  0  0
 23 20  2  0  0  0  0
 24 21  1  0  0  0  0
 25 23  1  0  0  0  0
 25 24  2  0  0  0  0
 28 27  1  0  0  0  0
 29 33  1  6  0  0  0
 29 30  1  0  0  0  0
 29 28  1  0  0  0  0
 30 31  1  0  0  0  0
 31 27  1  0  0  0  0
 31 26  1  0  0  0  0
 33 32  1  1  0  0  0
 34 33  1  0  0  0  0
 35 34  1  0  0  0  0
 36 35  1  0  0  0  0
 36 37  1  1  0  0  0
 38 36  1  0  0  0  0
 38 39  1  0  0  0  0
 40 38  2  0  0  0  0
M  END
>  <MODEL>
2

>  <REMARK>
 VINA RESULT:      -7.2      1.804      3.574
  Name = 
  14 active torsions:
  status: ('A' for Active; 'I' for Inactive)
    1  A    between atoms: O_1  and  C_34
    2  A    between atoms: O_1  and  C_35
    3  A    between atoms: C_2  and  C_7
    4  A    between atoms: O_3  and  N_8
    5  A    between atoms: O_3  and  C_17
    6  A    between atoms: C_7  and  C_35
    7  A    between atoms: C_17  and  C_21
    8  A    between atoms: C_18  and  O_36
    9  A    between atoms: C_21  and  C_23
   10  A    between atoms: C_21  and  O_36
   11  A    between atoms: C_23  and  N_27
   12  A    between atoms: C_24  and  C_30
   13  A    between atoms: C_24  and  N_40
   14  A    between atoms: C_26  and  C_34
                            x       y       z     vdW  Elec       q    Type
                         _______ _______ _______ _____ _____    ______ ____

>  <TORSDO>
F 14

$$$$
=
 OpenBabel11072410503D

 40 44  0  0  1  0  0  0  0  0999 V2000
  161.8850  208.3970  150.2050 C   0  0  0  0  0  2  0  0  0  0  0  0
  161.5220  210.8130  153.0020 N   0  0  0  0  0  2  0  0  0  0  0  0
  160.6320  206.6990  154.0110 C   0  0  0  0  0  2  0  0  0  0  0  0
  161.2930  207.1340  152.7490 C   0  0  0  0  0  0  0  0  0  0  0  0
  161.8610  206.5210  151.5940 N   0  0  0  0  0  0  0  0  0  0  0  0
  162.0180  209.5940  151.0430 N   0  0  0  0  0  2  0  0  0  0  0  0
  160.5340  208.0720  154.4050 C   0  0  2  0  0  3  0  0  0  0  0  0
  162.6780  207.2920  150.7440 N   0  0  0  0  0  2  0  0  0  0  0  0
  161.5610  209.6720  152.4010 C   0  0  0  0  0  0  0  0  0  0  0  0
  161.1700  208.4550  153.1110 C   0  0  0  0  0  0  0  0  0  0  0  0
  161.8040  205.0780  151.4230 C   0  0  0  0  0  2  0  0  0  0  0  0
  161.0210  204.7290  150.1650 C   0  0  2  0  0  3  0  0  0  0  0  0
  160.2710  203.4230  150.3670 C   0  0  0  0  0  2  0  0  0  0  0  0
  161.1670  202.4120  150.7260 O   0  0  0  0  0  0  0  0  0  0  0  0
  160.6450  201.2800  150.1910 N   0  0  0  0  0  0  0  0  0  0  0  0
  160.6340  201.2390  148.0330 C   0  0  0  0  0  2  0  0  0  0  0  0
  159.7180  201.6910  149.1460 C   0  0  0  0  0  2  0  0  0  0  0  0
  161.5650  200.8350  149.1510 C   0  0  0  0  0  2  0  0  0  0  0  0
  161.9160  204.6030  149.0650 O   0  0  0  0  0  0  0  0  0  0  0  0
  161.5160  204.4160  145.3730 C   0  0  0  0  0  3  0  0  0  0  0  0
  160.4480  206.4230  146.2070 C   0  0  0  0  0  3  0  0  0  0  0  0
  160.7900  205.5880  145.1400 C   0  0  0  0  0  3  0  0  0  0  0  0
  161.9000  204.0800  146.6740 C   0  0  0  0  0  3  0  0  0  0  0  0
  160.8320  206.0870  147.5100 C   0  0  0  0  0  3  0  0  0  0  0  0
  161.5580  204.9170  147.7510 C   0  0  0  0  0  0  0  0  0  0  0  0
  161.4820  208.3670  155.5630 C   0  0  0  0  0  2  0  0  0  0  0  0
  161.8640  210.3690  156.7160 C   0  0  0  0  0  2  0  0  0  0  0  0
  161.1140  211.6730  156.8310 C   0  0  0  0  0  2  0  0  0  0  0  0
  159.8530  211.4660  156.0270 C   0  0  1  0  0  3  0  0  0  0  0  0
  159.7900  209.9710  155.7560 C   0  0  0  0  0  2  0  0  0  0  0  0
  160.8800  209.3250  156.4760 N   0  0  0  0  0  0  0  0  0  0  0  0
  157.4830  211.1960  156.4770 O   0  0  0  0  0  1  0  0  0  0  0  0
  158.6290  211.9190  156.8320 C   0  0  2  0  0  3  0  0  0  0  0  0
  158.4080  213.3130  156.7600 O   0  0  0  0  0  0  0  0  0  0  0  0
  158.4480  213.7120  155.4130 C   0  0  0  0  0  2  0  0  0  0  0  0
  157.1450  214.3910  155.0310 C   0  0  2  0  0  3  0  0  0  0  0  0
  156.2750  214.4060  156.1230 O   0  0  0  0  0  1  0  0  0  0  0  0
  156.5140  213.6780  153.8830 C   0  0  0  0  0  0  0  0  0  0  0  0
  155.4760  212.9850  154.0520 O   0  0  0  0  0  1  0  0  0  0  0  0
  157.0990  213.7480  152.6250 O   0  0  0  0  0  0  0  0  0  0  0  0
  1  8  1  0  0  0  0
  1  6  1  0  0  0  0
  3  7  1  0  0  0  0
  4 10  2  0  0  0  0
  4  3  1  0  0  0  0
  5  4  1  0  0  0  0
  6  9  1  0  0  0  0
  7 26  1  1  0  0  0
  8  5  1  0  0  0  0
  9  2  2  0  0  0  0
  9 10  1  0  0  0  0
 10  7  1  0  0  0  0
 11  5  1  0  0  0  0
 12 13  1  1  0  0  0
 12 11  1  0  0  0  0
 13 14  1  0  0  0  0
 15 14  1  0  0  0  0
 16 17  1  0  0  0  0
 16 18  1  0  0  0  0
 17 15  1  0  0  0  0
 18 15  1  0  0  0  0
 19 12  1  0  0  0  0
 20 23  1  0  0  0  0
 21 24  2  0  0  0  0
 22 20  2  0  0  0  0
 22 21  1  0  0  0  0
 23 25  2  0  0  0  0
 24 25  1  0  0  0  0
 25 19  1  0  0  0  0
 26 31  1  0  0  0  0
 27 28  1  0  0  0  0
 29 28  1  0  0  0  0
 29 33  1  1  0  0  0
 30 29  1  0  0  0  0
 30 31  1  0  0  0  0
 31 27  1  0  0  0  0
 33 32  1  6  0  0  0
 34 33  1  0  0  0  0
 35 34  1  0  0  0  0
 36 35  1  0  0  0  0
 36 37  1  1  0  0  0
 38 39  1  0  0  0  0
 38 36  1  0  0  0  0
 40 38  2  0  0  0  0
M  END
>  <MODEL>
3

>  <REMARK>
 VINA RESULT:      -7.2      2.372      9.990
  Name = 
  14 active torsions:
  status: ('A' for Active; 'I' for Inactive)
    1  A    between atoms: O_1  and  C_34
    2  A    between atoms: O_1  and  C_35
    3  A    between atoms: C_2  and  C_7
    4  A    between atoms: O_3  and  N_8
    5  A    between atoms: O_3  and  C_17
    6  A    between atoms: C_7  and  C_35
    7  A    between atoms: C_17  and  C_21
    8  A    between atoms: C_18  and  O_36
    9  A    between atoms: C_21  and  C_23
   10  A    between atoms: C_21  and  O_36
   11  A    between atoms: C_23  and  N_27
   12  A    between atoms: C_24  and  C_30
   13  A    between atoms: C_24  and  N_40
   14  A    between atoms: C_26  and  C_34
                            x       y       z     vdW  Elec       q    Type
                         _______ _______ _______ _____ _____    ______ ____

>  <TORSDO>
F 14

$$$$
=
 OpenBabel11072410503D

 40 44  0  0  1  0  0  0  0  0999 V2000
  160.0780  210.3110  155.1710 C   0  0  0  0  0  2  0  0  0  0  0  0
  160.9930  206.7150  155.3300 N   0  0  0  0  0  2  0  0  0  0  0  0
  160.9030  208.4060  151.3460 C   0  0  0  0  0  2  0  0  0  0  0  0
  160.8500  209.2050  152.6030 C   0  0  0  0  0  0  0  0  0  0  0  0
  160.8190  210.5810  152.9750 N   0  0  0  0  0  0  0  0  0  0  0  0
  160.5410  209.0080  155.6610 N   0  0  0  0  0  2  0  0  0  0  0  0
  160.9400  207.2120  152.1340 C   0  0  2  0  0  3  0  0  0  0  0  0
  161.0860  210.9320  154.3120 N   0  0  0  0  0  2  0  0  0  0  0  0
  160.7930  207.8790  154.8110 C   0  0  0  0  0  0  0  0  0  0  0  0
  160.8530  208.0570  153.3610 C   0  0  0  0  0  0  0  0  0  0  0  0
  160.7570  211.6160  151.9560 C   0  0  0  0  0  2  0  0  0  0  0  0
  159.7680  212.6990  152.3670 C   0  0  2  0  0  3  0  0  0  0  0  0
  158.3700  212.1130  152.4650 C   0  0  0  0  0  2  0  0  0  0  0  0
  157.5060  213.0430  153.0520 O   0  0  0  0  0  0  0  0  0  0  0  0
  157.6980  212.9010  154.3870 N   0  0  0  0  0  0  0  0  0  0  0  0
  155.9660  213.3680  155.5880 C   0  0  0  0  0  2  0  0  0  0  0  0
  157.1630  214.0970  155.0230 C   0  0  0  0  0  2  0  0  0  0  0  0
  156.5560  212.1570  154.9050 C   0  0  0  0  0  2  0  0  0  0  0  0
  159.7830  213.7480  151.4050 O   0  0  0  0  0  0  0  0  0  0  0  0
  158.2220  213.3720  148.0510 C   0  0  0  0  0  3  0  0  0  0  0  0
  160.6160  213.0510  147.8760 C   0  0  0  0  0  3  0  0  0  0  0  0
  159.3550  213.1060  147.2760 C   0  0  0  0  0  3  0  0  0  0  0  0
  158.3520  213.5830  149.4270 C   0  0  0  0  0  3  0  0  0  0  0  0
  160.7450  213.2620  149.2520 C   0  0  0  0  0  3  0  0  0  0  0  0
  159.6180  213.5290  150.0340 C   0  0  0  0  0  0  0  0  0  0  0  0
  162.3140  206.5540  152.0480 C   0  0  0  0  0  2  0  0  0  0  0  0
  161.2590  204.4960  152.4090 C   0  0  0  0  0  2  0  0  0  0  0  0
  160.4540  203.5620  151.5400 C   0  0  0  0  0  2  0  0  0  0  0  0
  160.4710  204.1990  150.1710 C   0  0  1  0  0  3  0  0  0  0  0  0
  161.5320  205.2840  150.2450 C   0  0  0  0  0  2  0  0  0  0  0  0
  162.1920  205.1960  151.5420 N   0  0  0  0  0  0  0  0  0  0  0  0
  161.2000  201.9350  149.6850 O   0  0  0  0  0  1  0  0  0  0  0  0
  160.8380  203.1590  149.1060 C   0  0  2  0  0  3  0  0  0  0  0  0
  161.8220  203.6180  148.2020 O   0  0  0  0  0  0  0  0  0  0  0  0
  161.3040  203.5590  146.8970 C   0  0  0  0  0  2  0  0  0  0  0  0
  161.9180  204.6540  146.0420 C   0  0  2  0  0  3  0  0  0  0  0  0
  163.1920  204.9740  146.5160 O   0  0  0  0  0  1  0  0  0  0  0  0
  161.0470  205.8650  146.0560 C   0  0  0  0  0  0  0  0  0  0  0  0
  160.9900  206.6000  147.0780 O   0  0  0  0  0  1  0  0  0  0  0  0
  160.2640  206.1610  144.9480 O   0  0  0  0  0  0  0  0  0  0  0  0
  1  6  1  0  0  0  0
  3  7  1  0  0  0  0
  3  4  1  0  0  0  0
  4  5  1  0  0  0  0
  4 10  2  0  0  0  0
  5  8  1  0  0  0  0
  7 26  1  1  0  0  0
  7 10  1  0  0  0  0
  8  1  1  0  0  0  0
  9  2  2  0  0  0  0
  9  6  1  0  0  0  0
 10  9  1  0  0  0  0
 11  5  1  0  0  0  0
 12 11  1  6  0  0  0
 12 13  1  0  0  0  0
 13 14  1  0  0  0  0
 14 15  1  0  0  0  0
 15 18  1  0  0  0  0
 15 17  1  0  0  0  0
 17 16  1  0  0  0  0
 18 16  1  0  0  0  0
 19 12  1  0  0  0  0
 20 23  1  0  0  0  0
 21 24  2  0  0  0  0
 22 21  1  0  0  0  0
 22 20  2  0  0  0  0
 23 25  2  0  0  0  0
 24 25  1  0  0  0  0
 25 19  1  0  0  0  0
 28 27  1  0  0  0  0
 29 33  1  6  0  0  0
 29 30  1  0  0  0  0
 29 28  1  0  0  0  0
 30 31  1  0  0  0  0
 31 26  1  0  0  0  0
 31 27  1  0  0  0  0
 33 32  1  1  0  0  0
 34 33  1  0  0  0  0
 35 34  1  0  0  0  0
 36 38  1  0  0  0  0
 36 37  1  1  0  0  0
 36 35  1  0  0  0  0
 38 39  1  0  0  0  0
 40 38  2  0  0  0  0
M  END
>  <MODEL>
4

>  <REMARK>
 VINA RESULT:      -6.9      2.004      4.700
  Name = 
  14 active torsions:
  status: ('A' for Active; 'I' for Inactive)
    1  A    between atoms: O_1  and  C_34
    2  A    between atoms: O_1  and  C_35
    3  A    between atoms: C_2  and  C_7
    4  A    between atoms: O_3  and  N_8
    5  A    between atoms: O_3  and  C_17
    6  A    between atoms: C_7  and  C_35
    7  A    between atoms: C_17  and  C_21
    8  A    between atoms: C_18  and  O_36
    9  A    between atoms: C_21  and  C_23
   10  A    between atoms: C_21  and  O_36
   11  A    between atoms: C_23  and  N_27
   12  A    between atoms: C_24  and  C_30
   13  A    between atoms: C_24  and  N_40
   14  A    between atoms: C_26  and  C_34
                            x       y       z     vdW  Elec       q    Type
                         _______ _______ _______ _____ _____    ______ ____

>  <TORSDO>
F 14

$$$$
=
 OpenBabel11072410503D

 40 44  0  0  1  0  0  0  0  0999 V2000
  161.7750  206.8780  151.6860 C   0  0  0  0  0  2  0  0  0  0  0  0
  162.1210  210.3800  152.8740 N   0  0  0  0  0  2  0  0  0  0  0  0
  161.9600  209.9140  148.5730 C   0  0  0  0  0  2  0  0  0  0  0  0
  161.6360  208.8370  149.5510 C   0  0  0  0  0  0  0  0  0  0  0  0
  161.1690  207.4910  149.5180 N   0  0  0  0  0  0  0  0  0  0  0  0
  161.7420  208.0760  152.5340 N   0  0  0  0  0  2  0  0  0  0  0  0
  162.2650  210.7840  149.6680 C   0  0  2  0  0  3  0  0  0  0  0  0
  160.6900  206.9050  150.7060 N   0  0  0  0  0  2  0  0  0  0  0  0
  161.9570  209.4070  152.0430 C   0  0  0  0  0  0  0  0  0  0  0  0
  161.9590  209.6630  150.6030 C   0  0  0  0  0  0  0  0  0  0  0  0
  160.9600  206.8170  148.2460 C   0  0  0  0  0  2  0  0  0  0  0  0
  161.7060  205.4900  148.2260 C   0  0  2  0  0  3  0  0  0  0  0  0
  162.5660  205.3970  146.9770 C   0  0  0  0  0  2  0  0  0  0  0  0
  162.4920  204.1070  146.4440 O   0  0  0  0  0  0  0  0  0  0  0  0
  162.2590  204.2910  145.1210 N   0  0  0  0  0  0  0  0  0  0  0  0
  160.4580  205.3970  144.6800 C   0  0  0  0  0  2  0  0  0  0  0  0
  160.8610  203.9560  144.8850 C   0  0  0  0  0  2  0  0  0  0  0  0
  161.9160  205.6960  144.9390 C   0  0  0  0  0  2  0  0  0  0  0  0
  160.7720  204.4160  148.2460 O   0  0  0  0  0  0  0  0  0  0  0  0
  160.9610  200.9280  149.5190 C   0  0  0  0  0  3  0  0  0  0  0  0
  161.2040  202.4810  151.3610 C   0  0  0  0  0  3  0  0  0  0  0  0
  161.1480  201.1680  150.8840 C   0  0  0  0  0  3  0  0  0  0  0  0
  160.8310  202.0000  148.6330 C   0  0  0  0  0  3  0  0  0  0  0  0
  161.0730  203.5540  150.4740 C   0  0  0  0  0  3  0  0  0  0  0  0
  160.8860  203.3210  149.1090 C   0  0  0  0  0  0  0  0  0  0  0  0
  161.2060  211.8760  149.7970 C   0  0  0  0  0  2  0  0  0  0  0  0
  162.7680  212.7030  148.2610 C   0  0  0  0  0  2  0  0  0  0  0  0
  162.7070  213.0780  146.8020 C   0  0  0  0  0  2  0  0  0  0  0  0
  161.2630  212.8770  146.4110 C   0  0  1  0  0  3  0  0  0  0  0  0
  160.5120  212.7040  147.7220 C   0  0  0  0  0  2  0  0  0  0  0  0
  161.4440  212.9260  148.8200 N   0  0  0  0  0  0  0  0  0  0  0  0
  159.3430  214.1650  145.6710 O   0  0  0  0  0  1  0  0  0  0  0  0
  160.7420  214.1020  145.6510 C   0  0  2  0  0  3  0  0  0  0  0  0
  161.2480  214.1900  144.3340 O   0  0  0  0  0  0  0  0  0  0  0  0
  161.0060  212.9740  143.6710 C   0  0  0  0  0  2  0  0  0  0  0  0
  162.2200  212.5790  142.8480 C   0  0  2  0  0  3  0  0  0  0  0  0
  163.0210  213.6960  142.6080 O   0  0  0  0  0  1  0  0  0  0  0  0
  161.7860  211.9720  141.5560 C   0  0  0  0  0  0  0  0  0  0  0  0
  160.6020  211.5690  141.4040 O   0  0  0  0  0  1  0  0  0  0  0  0
  162.7060  211.8150  140.5280 O   0  0  0  0  0  0  0  0  0  0  0  0
  1  6  1  0  0  0  0
  3  4  1  0  0  0  0
  3  7  1  0  0  0  0
  4 10  2  0  0  0  0
  5  4  1  0  0  0  0
  5  8  1  0  0  0  0
  7 26  1  1  0  0  0
  7 10  1  0  0  0  0
  8  1  1  0  0  0  0
  9  6  1  0  0  0  0
  9  2  2  0  0  0  0
 10  9  1  0  0  0  0
 11  5  1  0  0  0  0
 12 13  1  6  0  0  0
 12 19  1  0  0  0  0
 12 11  1  0  0  0  0
 14 13  1  0  0  0  0
 15 14  1  0  0  0  0
 16 17  1  0  0  0  0
 16 18  1  0  0  0  0
 17 15  1  0  0  0  0
 18 15  1  0  0  0  0
 19 25  1  0  0  0  0
 20 22  1  0  0  0  0
 22 21  2  0  0  0  0
 23 25  1  0  0  0  0
 23 20  2  0  0  0  0
 24 21  1  0  0  0  0
 25 24  2  0  0  0  0
 27 31  1  0  0  0  0
 28 27  1  0  0  0  0
 29 33  1  1  0  0  0
 29 28  1  0  0  0  0
 29 30  1  0  0  0  0
 30 31  1  0  0  0  0
 31 26  1  0  0  0  0
 33 32  1  6  0  0  0
 34 33  1  0  0  0  0
 35 34  1  0  0  0  0
 36 37  1  6  0  0  0
 36 35  1  0  0  0  0
 38 36  1  0  0  0  0
 39 38  1  0  0  0  0
 40 38  2  0  0  0  0
M  END
>  <MODEL>
5

>  <REMARK>
 VINA RESULT:      -6.3      3.768      8.605
  Name = 
  14 active torsions:
  status: ('A' for Active; 'I' for Inactive)
    1  A    between atoms: O_1  and  C_34
    2  A    between atoms: O_1  and  C_35
    3  A    between atoms: C_2  and  C_7
    4  A    between atoms: O_3  and  N_8
    5  A    between atoms: O_3  and  C_17
    6  A    between atoms: C_7  and  C_35
    7  A    between atoms: C_17  and  C_21
    8  A    between atoms: C_18  and  O_36
    9  A    between atoms: C_21  and  C_23
   10  A    between atoms: C_21  and  O_36
   11  A    between atoms: C_23  and  N_27
   12  A    between atoms: C_24  and  C_30
   13  A    between atoms: C_24  and  N_40
   14  A    between atoms: C_26  and  C_34
                            x       y       z     vdW  Elec       q    Type
                         _______ _______ _______ _____ _____    ______ ____

>  <TORSDO>
F 14

$$$$
=
 OpenBabel11072410503D

 40 44  0  0  1  0  0  0  0  0999 V2000
  160.7860  207.3490  155.0830 C   0  0  0  0  0  2  0  0  0  0  0  0
  161.2220  204.7420  152.4740 N   0  0  0  0  0  2  0  0  0  0  0  0
  160.9610  208.7980  150.9830 C   0  0  0  0  0  2  0  0  0  0  0  0
  161.1420  208.4360  152.4170 C   0  0  0  0  0  0  0  0  0  0  0  0
  161.3330  209.1130  153.6570 N   0  0  0  0  0  0  0  0  0  0  0  0
  161.1170  206.0880  154.4100 N   0  0  0  0  0  2  0  0  0  0  0  0
  160.9170  207.4040  150.6620 C   0  0  2  0  0  3  0  0  0  0  0  0
  161.7780  208.3790  154.7740 N   0  0  0  0  0  2  0  0  0  0  0  0
  161.1290  205.9240  152.9850 C   0  0  0  0  0  0  0  0  0  0  0  0
  161.0670  207.0970  152.1140 C   0  0  0  0  0  0  0  0  0  0  0  0
  161.3090  210.5660  153.7130 C   0  0  0  0  0  2  0  0  0  0  0  0
  159.8750  211.0640  153.8370 C   0  0  2  0  0  3  0  0  0  0  0  0
  159.7390  212.4220  153.1700 C   0  0  0  0  0  2  0  0  0  0  0  0
  159.6490  212.2640  151.7840 O   0  0  0  0  0  0  0  0  0  0  0  0
  159.7270  213.5230  151.2850 N   0  0  0  0  0  0  0  0  0  0  0  0
  158.8570  213.7560  149.3230 C   0  0  0  0  0  2  0  0  0  0  0  0
  160.2030  213.4070  149.9130 C   0  0  0  0  0  2  0  0  0  0  0  0
  158.4070  213.8570  150.7620 C   0  0  0  0  0  2  0  0  0  0  0  0
  159.5230  211.1660  155.2120 O   0  0  0  0  0  0  0  0  0  0  0  0
  156.8270  212.8750  157.1180 C   0  0  0  0  0  3  0  0  0  0  0  0
  155.8490  211.4860  155.3920 C   0  0  0  0  0  3  0  0  0  0  0  0
  155.6990  212.3810  156.4560 C   0  0  0  0  0  3  0  0  0  0  0  0
  158.1040  212.4760  156.7150 C   0  0  0  0  0  3  0  0  0  0  0  0
  157.1270  211.0860  154.9900 C   0  0  0  0  0  3  0  0  0  0  0  0
  158.2590  211.5760  155.6470 C   0  0  0  0  0  0  0  0  0  0  0  0
  162.1740  206.9860  149.9050 C   0  0  0  0  0  2  0  0  0  0  0  0
  160.4800  206.3970  148.4010 C   0  0  0  0  0  2  0  0  0  0  0  0
  160.4240  206.2100  146.9050 C   0  0  0  0  0  2  0  0  0  0  0  0
  161.8420  206.4290  146.4350 C   0  0  1  0  0  3  0  0  0  0  0  0
  162.6900  206.4170  147.6960 C   0  0  0  0  0  2  0  0  0  0  0  0
  161.8340  206.0750  148.8250 N   0  0  0  0  0  0  0  0  0  0  0  0
  161.4720  205.2680  144.3350 O   0  0  0  0  0  1  0  0  0  0  0  0
  162.2670  205.3000  145.4880 C   0  0  2  0  0  3  0  0  0  0  0  0
  162.3150  204.0380  146.1220 O   0  0  0  0  0  0  0  0  0  0  0  0
  161.1080  203.3600  145.8780 C   0  0  0  0  0  2  0  0  0  0  0  0
  161.2270  201.9100  146.3140 C   0  0  2  0  0  3  0  0  0  0  0  0
  160.3120  201.1220  145.6130 O   0  0  0  0  0  1  0  0  0  0  0  0
  160.9850  201.7950  147.7810 C   0  0  0  0  0  0  0  0  0  0  0  0
  160.6190  202.7980  148.4500 O   0  0  0  0  0  1  0  0  0  0  0  0
  161.2030  200.5820  148.4210 O   0  0  0  0  0  0  0  0  0  0  0  0
  2  9  2  0  0  0  0
  3  4  1  0  0  0  0
  4  5  1  0  0  0  0
  5 11  1  0  0  0  0
  5  8  1  0  0  0  0
  6  1  1  0  0  0  0
  7 26  1  6  0  0  0
  7  3  1  0  0  0  0
  7 10  1  0  0  0  0
  8  1  1  0  0  0  0
  9  6  1  0  0  0  0
 10  4  2  0  0  0  0
 10  9  1  0  0  0  0
 11 12  1  0  0  0  0
 12 13  1  1  0  0  0
 12 19  1  0  0  0  0
 14 13  1  0  0  0  0
 15 14  1  0  0  0  0
 16 17  1  0  0  0  0
 16 18  1  0  0  0  0
 17 15  1  0  0  0  0
 18 15  1  0  0  0  0
 19 25  1  0  0  0  0
 21 22  1  0  0  0  0
 22 20  2  0  0  0  0
 23 20  1  0  0  0  0
 24 21  2  0  0  0  0
 24 25  1  0  0  0  0
 25 23  2  0  0  0  0
 27 31  1  0  0  0  0
 28 27  1  0  0  0  0
 29 33  1  6  0  0  0
 29 28  1  0  0  0  0
 29 30  1  0  0  0  0
 30 31  1  0  0  0  0
 31 26  1  0  0  0  0
 33 32  1  6  0  0  0
 33 34  1  0  0  0  0
 35 34  1  0  0  0  0
 35 36  1  0  0  0  0
 36 37  1  6  0  0  0
 36 38  1  0  0  0  0
 38 40  2  0  0  0  0
 38 39  1  0  0  0  0
M  END
>  <MODEL>
6

>  <REMARK>
 VINA RESULT:      -6.2      2.197      4.009
  Name = 
  14 active torsions:
  status: ('A' for Active; 'I' for Inactive)
    1  A    between atoms: O_1  and  C_34
    2  A    between atoms: O_1  and  C_35
    3  A    between atoms: C_2  and  C_7
    4  A    between atoms: O_3  and  N_8
    5  A    between atoms: O_3  and  C_17
    6  A    between atoms: C_7  and  C_35
    7  A    between atoms: C_17  and  C_21
    8  A    between atoms: C_18  and  O_36
    9  A    between atoms: C_21  and  C_23
   10  A    between atoms: C_21  and  O_36
   11  A    between atoms: C_23  and  N_27
   12  A    between atoms: C_24  and  C_30
   13  A    between atoms: C_24  and  N_40
   14  A    between atoms: C_26  and  C_34
                            x       y       z     vdW  Elec       q    Type
                         _______ _______ _______ _____ _____    ______ ____

>  <TORSDO>
F 14

$$$$
=
 OpenBabel11072410503D

 40 44  0  0  1  0  0  0  0  0999 V2000
  161.6340  209.5030  151.9230 C   0  0  0  0  0  2  0  0  0  0  0  0
  162.0360  206.8490  149.3560 N   0  0  0  0  0  2  0  0  0  0  0  0
  161.2320  205.4140  153.3600 C   0  0  0  0  0  2  0  0  0  0  0  0
  161.1000  206.8350  152.9310 C   0  0  0  0  0  0  0  0  0  0  0  0
  160.6810  208.0720  153.5010 N   0  0  0  0  0  0  0  0  0  0  0  0
  161.6900  208.8020  150.6350 N   0  0  0  0  0  2  0  0  0  0  0  0
  161.6710  205.0800  152.0390 C   0  0  2  0  0  3  0  0  0  0  0  0
  160.4110  209.1600  152.6490 N   0  0  0  0  0  2  0  0  0  0  0  0
  161.7800  207.3760  150.5060 C   0  0  0  0  0  0  0  0  0  0  0  0
  161.5520  206.5210  151.6700 C   0  0  0  0  0  0  0  0  0  0  0  0
  160.3030  208.1440  154.9040 C   0  0  0  0  0  2  0  0  0  0  0  0
  160.2230  209.5970  155.3530 C   0  0  2  0  0  3  0  0  0  0  0  0
  160.5340  209.6990  156.8360 C   0  0  0  0  0  2  0  0  0  0  0  0
  161.9170  209.7810  157.0260 O   0  0  0  0  0  0  0  0  0  0  0  0
  162.2610  211.0020  156.5470 N   0  0  0  0  0  0  0  0  0  0  0  0
  164.3540  211.2080  156.0600 C   0  0  0  0  0  2  0  0  0  0  0  0
  163.4620  211.4160  157.2610 C   0  0  0  0  0  2  0  0  0  0  0  0
  163.0840  210.7800  155.3640 C   0  0  0  0  0  2  0  0  0  0  0  0
  158.9160  210.1030  155.1010 O   0  0  0  0  0  0  0  0  0  0  0  0
  159.4660  213.4110  153.4950 C   0  0  0  0  0  3  0  0  0  0  0  0
  157.0920  213.0220  153.7650 C   0  0  0  0  0  3  0  0  0  0  0  0
  158.1440  213.8360  153.3350 C   0  0  0  0  0  3  0  0  0  0  0  0
  159.7360  212.1730  154.0850 C   0  0  0  0  0  3  0  0  0  0  0  0
  157.3610  211.7830  154.3560 C   0  0  0  0  0  3  0  0  0  0  0  0
  158.6810  211.3520  154.5190 C   0  0  0  0  0  0  0  0  0  0  0  0
  160.6070  204.2640  151.3100 C   0  0  0  0  0  2  0  0  0  0  0  0
  161.2060  202.0390  150.8950 C   0  0  0  0  0  2  0  0  0  0  0  0
  160.9640  201.0840  149.7540 C   0  0  0  0  0  2  0  0  0  0  0  0
  160.2190  201.8950  148.7210 C   0  0  1  0  0  3  0  0  0  0  0  0
  160.3450  203.3390  149.1780 C   0  0  0  0  0  2  0  0  0  0  0  0
  161.2290  203.3820  150.3360 N   0  0  0  0  0  0  0  0  0  0  0  0
  161.5240  200.4810  147.2410 O   0  0  0  0  0  1  0  0  0  0  0  0
  160.8550  201.7090  147.3390 C   0  0  2  0  0  3  0  0  0  0  0  0
  161.6900  202.7870  146.9660 O   0  0  0  0  0  0  0  0  0  0  0  0
  161.5820  202.9880  145.5790 C   0  0  0  0  0  2  0  0  0  0  0  0
  160.6540  204.1550  145.2920 C   0  0  2  0  0  3  0  0  0  0  0  0
  159.7700  203.8230  144.2640 O   0  0  0  0  0  1  0  0  0  0  0  0
  161.4490  205.3600  144.9160 C   0  0  0  0  0  0  0  0  0  0  0  0
  161.5220  205.7290  143.7140 O   0  0  0  0  0  0  0  0  0  0  0  0
  162.1450  206.0580  145.8950 O   0  0  0  0  0  1  0  0  0  0  0  0
  1  8  1  0  0  0  0
  2  9  2  0  0  0  0
  4  3  1  0  0  0  0
  4  5  1  0  0  0  0
  5 11  1  0  0  0  0
  6  1  1  0  0  0  0
  7 26  1  6  0  0  0
  7  3  1  0  0  0  0
  8  5  1  0  0  0  0
  9  6  1  0  0  0  0
  9 10  1  0  0  0  0
 10  7  1  0  0  0  0
 10  4  2  0  0  0  0
 12 11  1  1  0  0  0
 12 13  1  0  0  0  0
 13 14  1  0  0  0  0
 15 14  1  0  0  0  0
 15 17  1  0  0  0  0
 16 17  1  0  0  0  0
 18 16  1  0  0  0  0
 18 15  1  0  0  0  0
 19 12  1  0  0  0  0
 20 23  1  0  0  0  0
 21 24  2  0  0  0  0
 22 20  2  0  0  0  0
 22 21  1  0  0  0  0
 23 25  2  0  0  0  0
 24 25  1  0  0  0  0
 25 19  1  0  0  0  0
 28 27  1  0  0  0  0
 29 33  1  6  0  0  0
 29 30  1  0  0  0  0
 29 28  1  0  0  0  0
 30 31  1  0  0  0  0
 31 27  1  0  0  0  0
 31 26  1  0  0  0  0
 33 32  1  1  0  0  0
 34 33  1  0  0  0  0
 35 34  1  0  0  0  0
 36 37  1  6  0  0  0
 36 35  1  0  0  0  0
 38 36  1  0  0  0  0
 38 40  1  0  0  0  0
 39 38  2  0  0  0  0
M  END
>  <MODEL>
7

>  <REMARK>
 VINA RESULT:      -6.0      1.787      3.892
  Name = 
  14 active torsions:
  status: ('A' for Active; 'I' for Inactive)
    1  A    between atoms: O_1  and  C_34
    2  A    between atoms: O_1  and  C_35
    3  A    between atoms: C_2  and  C_7
    4  A    between atoms: O_3  and  N_8
    5  A    between atoms: O_3  and  C_17
    6  A    between atoms: C_7  and  C_35
    7  A    between atoms: C_17  and  C_21
    8  A    between atoms: C_18  and  O_36
    9  A    between atoms: C_21  and  C_23
   10  A    between atoms: C_21  and  O_36
   11  A    between atoms: C_23  and  N_27
   12  A    between atoms: C_24  and  C_30
   13  A    between atoms: C_24  and  N_40
   14  A    between atoms: C_26  and  C_34
                            x       y       z     vdW  Elec       q    Type
                         _______ _______ _______ _____ _____    ______ ____

>  <TORSDO>
F 14

$$$$
=
 OpenBabel11072410503D

 40 44  0  0  1  0  0  0  0  0999 V2000
  161.1910  208.9050  153.2460 C   0  0  0  0  0  2  0  0  0  0  0  0
  159.9950  212.2640  152.2050 N   0  0  0  0  0  2  0  0  0  0  0  0
  162.3350  210.1540  149.2370 C   0  0  0  0  0  2  0  0  0  0  0  0
  161.7910  209.5350  150.4780 C   0  0  0  0  0  0  0  0  0  0  0  0
  161.7510  208.2430  151.0790 N   0  0  0  0  0  0  0  0  0  0  0  0
  160.4190  210.1500  153.1660 N   0  0  0  0  0  2  0  0  0  0  0  0
  161.7750  211.4070  149.6440 C   0  0  2  0  0  3  0  0  0  0  0  0
  160.8530  208.0110  152.1390 N   0  0  0  0  0  2  0  0  0  0  0  0
  160.5480  211.1020  152.1000 C   0  0  0  0  0  0  0  0  0  0  0  0
  161.2800  210.7450  150.8860 C   0  0  0  0  0  0  0  0  0  0  0  0
  162.4390  207.1220  150.4590 C   0  0  0  0  0  2  0  0  0  0  0  0
  161.5400  206.4610  149.4230 C   0  0  2  0  0  3  0  0  0  0  0  0
  160.7500  205.3340  150.0660 C   0  0  0  0  0  2  0  0  0  0  0  0
  161.6170  204.3090  150.4560 O   0  0  0  0  0  0  0  0  0  0  0  0
  160.8030  203.2930  150.8370 N   0  0  0  0  0  0  0  0  0  0  0  0
  160.8910  201.5570  149.5550 C   0  0  0  0  0  2  0  0  0  0  0  0
  160.1000  202.8410  149.6430 C   0  0  0  0  0  2  0  0  0  0  0  0
  161.5970  202.0700  150.7880 C   0  0  0  0  0  2  0  0  0  0  0  0
  162.3340  205.9450  148.3610 O   0  0  0  0  0  0  0  0  0  0  0  0
  160.6280  205.6740  145.0690 C   0  0  0  0  0  3  0  0  0  0  0  0
  161.3720  203.4830  145.7830 C   0  0  0  0  0  3  0  0  0  0  0  0
  160.7380  204.2980  144.8410 C   0  0  0  0  0  3  0  0  0  0  0  0
  161.1520  206.2320  146.2380 C   0  0  0  0  0  3  0  0  0  0  0  0
  161.8950  204.0420  146.9530 C   0  0  0  0  0  3  0  0  0  0  0  0
  161.7890  205.4160  147.1870 C   0  0  0  0  0  0  0  0  0  0  0  0
  160.5990  211.7850  148.7480 C   0  0  0  0  0  2  0  0  0  0  0  0
  162.3630  213.1470  148.0310 C   0  0  0  0  0  2  0  0  0  0  0  0
  162.8130  213.6590  146.6860 C   0  0  0  0  0  2  0  0  0  0  0  0
  161.7770  213.1500  145.7130 C   0  0  1  0  0  3  0  0  0  0  0  0
  160.6300  212.6460  146.5730 C   0  0  0  0  0  2  0  0  0  0  0  0
  160.9210  212.9660  147.9650 N   0  0  0  0  0  0  0  0  0  0  0  0
  159.9130  214.4420  144.8470 O   0  0  0  0  0  1  0  0  0  0  0  0
  161.3050  214.2850  144.7970 C   0  0  2  0  0  3  0  0  0  0  0  0
  161.7660  214.1510  143.4680 O   0  0  0  0  0  0  0  0  0  0  0  0
  161.9100  212.7840  143.1730 C   0  0  0  0  0  2  0  0  0  0  0  0
  161.2010  212.4540  141.8710 C   0  0  2  0  0  3  0  0  0  0  0  0
  160.3470  211.3650  142.0530 O   0  0  0  0  0  1  0  0  0  0  0  0
  162.2000  212.1510  140.8060 C   0  0  0  0  0  0  0  0  0  0  0  0
  162.4150  210.9610  140.4510 O   0  0  0  0  0  1  0  0  0  0  0  0
  162.9260  213.1850  140.2300 O   0  0  0  0  0  0  0  0  0  0  0  0
  3  7  1  0  0  0  0
  3  4  1  0  0  0  0
  4 10  2  0  0  0  0
  4  5  1  0  0  0  0
  5  8  1  0  0  0  0
  6  1  1  0  0  0  0
  7 26  1  6  0  0  0
  7 10  1  0  0  0  0
  8  1  1  0  0  0  0
  9  2  2  0  0  0  0
  9  6  1  0  0  0  0
 10  9  1  0  0  0  0
 11  5  1  0  0  0  0
 12 13  1  1  0  0  0
 12 11  1  0  0  0  0
 13 14  1  0  0  0  0
 14 15  1  0  0  0  0
 16 17  1  0  0  0  0
 16 18  1  0  0  0  0
 17 15  1  0  0  0  0
 18 15  1  0  0  0  0
 19 12  1  0  0  0  0
 20 23  1  0  0  0  0
 21 24  2  0  0  0  0
 22 20  2  0  0  0  0
 22 21  1  0  0  0  0
 23 25  2  0  0  0  0
 24 25  1  0  0  0  0
 25 19  1  0  0  0  0
 28 27  1  0  0  0  0
 29 33  1  6  0  0  0
 29 30  1  0  0  0  0
 29 28  1  0  0  0  0
 30 31  1  0  0  0  0
 31 27  1  0  0  0  0
 31 26  1  0  0  0  0
 33 32  1  6  0  0  0
 34 33  1  0  0  0  0
 35 34  1  0  0  0  0
 36 37  1  1  0  0  0
 36 35  1  0  0  0  0
 38 36  1  0  0  0  0
 39 38  1  0  0  0  0
 40 38  2  0  0  0  0
M  END
>  <MODEL>
8

>  <REMARK>
 VINA RESULT:      -5.9      3.966      9.032
  Name = 
  14 active torsions:
  status: ('A' for Active; 'I' for Inactive)
    1  A    between atoms: O_1  and  C_34
    2  A    between atoms: O_1  and  C_35
    3  A    between atoms: C_2  and  C_7
    4  A    between atoms: O_3  and  N_8
    5  A    between atoms: O_3  and  C_17
    6  A    between atoms: C_7  and  C_35
    7  A    between atoms: C_17  and  C_21
    8  A    between atoms: C_18  and  O_36
    9  A    between atoms: C_21  and  C_23
   10  A    between atoms: C_21  and  O_36
   11  A    between atoms: C_23  and  N_27
   12  A    between atoms: C_24  and  C_30
   13  A    between atoms: C_24  and  N_40
   14  A    between atoms: C_26  and  C_34
                            x       y       z     vdW  Elec       q    Type
                         _______ _______ _______ _____ _____    ______ ____

>  <TORSDO>
F 14

$$$$
=
 OpenBabel11072410503D

 40 44  0  0  1  0  0  0  0  0999 V2000
  160.8540  207.2400  154.1410 C   0  0  0  0  0  2  0  0  0  0  0  0
  160.6710  210.7380  152.9060 N   0  0  0  0  0  2  0  0  0  0  0  0
  162.5640  207.9390  150.2000 C   0  0  0  0  0  2  0  0  0  0  0  0
  161.7910  207.5480  151.4120 C   0  0  0  0  0  0  0  0  0  0  0  0
  161.3660  206.3450  152.0480 N   0  0  0  0  0  0  0  0  0  0  0  0
  160.4490  208.6380  153.9620 N   0  0  0  0  0  2  0  0  0  0  0  0
  162.3310  209.3140  150.5230 C   0  0  2  0  0  3  0  0  0  0  0  0
  160.3670  206.4110  153.0380 N   0  0  0  0  0  2  0  0  0  0  0  0
  160.9000  209.4680  152.8810 C   0  0  0  0  0  0  0  0  0  0  0  0
  161.5930  208.8690  151.7410 C   0  0  0  0  0  0  0  0  0  0  0  0
  161.7720  205.0520  151.5190 C   0  0  0  0  0  2  0  0  0  0  0  0
  161.0790  204.7870  150.1890 C   0  0  2  0  0  3  0  0  0  0  0  0
  160.4310  203.4130  150.2080 C   0  0  0  0  0  2  0  0  0  0  0  0
  161.4160  202.4240  150.2760 O   0  0  0  0  0  0  0  0  0  0  0  0
  160.7780  201.2740  149.9430 N   0  0  0  0  0  0  0  0  0  0  0  0
  160.1420  201.1760  147.8820 C   0  0  0  0  0  2  0  0  0  0  0  0
  159.5820  201.6520  149.2010 C   0  0  0  0  0  2  0  0  0  0  0  0
  161.3630  200.8080  148.6900 C   0  0  0  0  0  2  0  0  0  0  0  0
  162.0310  204.8540  149.1330 O   0  0  0  0  0  0  0  0  0  0  0  0
  161.7320  204.2250  145.4810 C   0  0  0  0  0  3  0  0  0  0  0  0
  160.4410  206.1850  146.0780 C   0  0  0  0  0  3  0  0  0  0  0  0
  160.8920  205.2800  145.1120 C   0  0  0  0  0  3  0  0  0  0  0  0
  162.1210  204.0750  146.8150 C   0  0  0  0  0  3  0  0  0  0  0  0
  160.8310  206.0350  147.4130 C   0  0  0  0  0  3  0  0  0  0  0  0
  161.6700  204.9830  147.7890 C   0  0  0  0  0  0  0  0  0  0  0  0
  161.3630  209.9420  149.5250 C   0  0  0  0  0  2  0  0  0  0  0  0
  163.0900  211.3700  148.8470 C   0  0  0  0  0  2  0  0  0  0  0  0
  163.2000  212.4710  147.8220 C   0  0  0  0  0  2  0  0  0  0  0  0
  161.8130  212.5940  147.2380 C   0  0  1  0  0  3  0  0  0  0  0  0
  160.9140  211.7910  148.1630 C   0  0  0  0  0  2  0  0  0  0  0  0
  161.7080  211.3360  149.2980 N   0  0  0  0  0  0  0  0  0  0  0  0
  160.7870  214.4510  148.4170 O   0  0  0  0  0  1  0  0  0  0  0  0
  161.3790  214.0640  147.2070 C   0  0  2  0  0  3  0  0  0  0  0  0
  160.5540  214.3730  146.1020 O   0  0  0  0  0  0  0  0  0  0  0  0
  161.2550  214.0890  144.9180 C   0  0  0  0  0  2  0  0  0  0  0  0
  160.3170  213.4810  143.8900 C   0  0  2  0  0  3  0  0  0  0  0  0
  159.2560  212.8380  144.5300 O   0  0  0  0  0  1  0  0  0  0  0  0
  161.0580  212.5140  143.0300 C   0  0  0  0  0  0  0  0  0  0  0  0
  160.4410  211.6160  142.3970 O   0  0  0  0  0  0  0  0  0  0  0  0
  162.4440  212.5790  142.9580 O   0  0  0  0  0  1  0  0  0  0  0  0
  3  7  1  0  0  0  0
  3  4  1  0  0  0  0
  4 10  2  0  0  0  0
  4  5  1  0  0  0  0
  5  8  1  0  0  0  0
  6  1  1  0  0  0  0
  7 26  1  6  0  0  0
  7 10  1  0  0  0  0
  8  1  1  0  0  0  0
  9  2  2  0  0  0  0
  9  6  1  0  0  0  0
 10  9  1  0  0  0  0
 11  5  1  0  0  0  0
 12 13  1  1  0  0  0
 12 11  1  0  0  0  0
 13 14  1  0  0  0  0
 15 14  1  0  0  0  0
 16 18  1  0  0  0  0
 16 17  1  0  0  0  0
 17 15  1  0  0  0  0
 18 15  1  0  0  0  0
 19 12  1  0  0  0  0
 20 23  1  0  0  0  0
 21 24  2  0  0  0  0
 22 20  2  0  0  0  0
 22 21  1  0  0  0  0
 23 25  2  0  0  0  0
 24 25  1  0  0  0  0
 25 19  1  0  0  0  0
 27 31  1  0  0  0  0
 28 27  1  0  0  0  0
 29 33  1  1  0  0  0
 29 28  1  0  0  0  0
 29 30  1  0  0  0  0
 30 31  1  0  0  0  0
 31 26  1  0  0  0  0
 33 32  1  1  0  0  0
 34 33  1  0  0  0  0
 35 34  1  0  0  0  0
 36 37  1  1  0  0  0
 36 35  1  0  0  0  0
 38 36  1  0  0  0  0
 39 38  2  0  0  0  0
 40 38  1  0  0  0  0
M  END
>  <MODEL>
9

>  <REMARK>
 VINA RESULT:      -5.9      3.343      8.942
  Name = 
  14 active torsions:
  status: ('A' for Active; 'I' for Inactive)
    1  A    between atoms: O_1  and  C_34
    2  A    between atoms: O_1  and  C_35
    3  A    between atoms: C_2  and  C_7
    4  A    between atoms: O_3  and  N_8
    5  A    between atoms: O_3  and  C_17
    6  A    between atoms: C_7  and  C_35
    7  A    between atoms: C_17  and  C_21
    8  A    between atoms: C_18  and  O_36
    9  A    between atoms: C_21  and  C_23
   10  A    between atoms: C_21  and  O_36
   11  A    between atoms: C_23  and  N_27
   12  A    between atoms: C_24  and  C_30
   13  A    between atoms: C_24  and  N_40
   14  A    between atoms: C_26  and  C_34
                            x       y       z     vdW  Elec       q    Type
                         _______ _______ _______ _____ _____    ______ ____

>  <TORSDO>
F 14

$$$$
