=
 OpenBabel11072410223D

 33 37  0  0  1  0  0  0  0  0999 V2000
  162.8960  206.8000  150.6470 C   0  0  0  0  0  2  0  0  0  0  0  0
  162.0000  206.0590  151.6460 C   0  0  2  0  0  3  0  0  0  0  0  0
  160.9180  205.2140  150.9470 C   0  0  1  0  0  3  0  0  0  0  0  0
  162.0950  207.5050  149.6500 N   0  0  0  0  0  0  0  0  0  0  0  0
  160.8230  207.0110  149.2170 C   0  0  0  0  0  3  0  0  0  0  0  0
  160.2540  205.9620  149.8140 C   0  0  0  0  0  2  0  0  0  0  0  0
  161.0190  206.4450  153.9540 C   0  0  0  0  0  3  0  0  0  0  0  0
  161.3530  208.3250  152.4670 C   0  0  0  0  0  3  0  0  0  0  0  0
  160.5150  207.3080  154.9310 C   0  0  0  0  0  3  0  0  0  0  0  0
  161.4390  206.9510  152.7140 C   0  0  0  0  0  0  0  0  0  0  0  0
  160.4270  208.6800  154.6750 C   0  0  0  0  0  3  0  0  0  0  0  0
  160.8430  209.1970  153.4430 C   0  0  0  0  0  0  0  0  0  0  0  0
  160.7450  210.5750  153.2180 O   0  0  0  0  0  0  0  0  0  0  0  0
  160.5260  211.5230  154.2600 C   0  0  0  0  0  2  0  0  0  0  0  0
  159.0020  213.2570  153.3800 N   0  0  0  0  0  0  0  0  0  0  0  0
  159.1730  212.1320  154.1280 C   0  0  0  0  0  0  0  0  0  0  0  0
  156.8080  212.1010  154.6030 C   0  0  0  0  0  3  0  0  0  0  0  0
  157.7760  213.8270  153.2240 C   0  0  0  0  0  3  0  0  0  0  0  0
  158.0730  211.5300  154.7500 C   0  0  0  0  0  3  0  0  0  0  0  0
  156.6540  213.2590  153.8350 C   0  0  0  0  0  3  0  0  0  0  0  0
  161.0590  202.7960  151.3100 N   0  0  0  0  0  2  0  0  0  0  0  0
  161.4940  203.8790  150.4540 C   0  0  1  0  0  3  0  0  0  0  0  0
  160.3880  202.2710  149.1390 O   0  0  0  0  0  0  0  0  0  0  0  0
  160.1100  202.0540  150.4960 C   0  0  0  0  0  2  0  0  0  0  0  0
  160.9600  203.5470  149.0810 C   0  0  2  0  0  3  0  0  0  0  0  0
  162.0950  203.5640  148.0680 C   0  0  0  0  0  2  0  0  0  0  0  0
  161.0220  203.3610  145.7820 C   0  0  0  0  0  0  0  0  0  0  0  0
  160.7820  201.6340  146.0030 Cl  0  0  0  0  0  0  0  0  0  0  0  0
  160.7620  205.3200  144.3770 C   0  0  0  0  0  3  0  0  0  0  0  0
  160.5850  203.9500  144.5910 C   0  0  0  0  0  3  0  0  0  0  0  0
  161.3740  206.1060  145.3530 C   0  0  0  0  0  3  0  0  0  0  0  0
  161.6400  204.1520  146.7690 C   0  0  0  0  0  0  0  0  0  0  0  0
  161.8110  205.5240  146.5470 C   0  0  0  0  0  3  0  0  0  0  0  0
  1  2  1  0  0  0  0
  2 10  1  1  0  0  0
  3  6  1  6  0  0  0
  3  2  1  0  0  0  0
  4  1  1  0  0  0  0
  5  4  2  0  0  0  0
  5  6  1  0  0  0  0
  7  9  1  0  0  0  0
  8 10  1  0  0  0  0
  8 12  2  0  0  0  0
 10  7  2  0  0  0  0
 11  9  2  0  0  0  0
 12 11  1  0  0  0  0
 13 12  1  0  0  0  0
 13 14  1  0  0  0  0
 15 16  1  0  0  0  0
 16 14  1  0  0  0  0
 16 19  2  0  0  0  0
 17 19  1  0  0  0  0
 18 15  2  0  0  0  0
 18 20  1  0  0  0  0
 20 17  2  0  0  0  0
 22  3  1  0  0  0  0
 22 21  1  1  0  0  0
 23 24  1  0  0  0  0
 24 21  1  0  0  0  0
 25 26  1  6  0  0  0
 25 23  1  0  0  0  0
 25 22  1  0  0  0  0
 27 28  1  0  0  0  0
 27 32  1  0  0  0  0
 29 30  1  0  0  0  0
 29 31  2  0  0  0  0
 30 27  2  0  0  0  0
 31 33  1  0  0  0  0
 32 26  1  0  0  0  0
 33 32  2  0  0  0  0
M  END
>  <MODEL>
1

>  <REMARK>
 VINA RESULT:      -8.7      0.000      0.000
  Name = 
  7 active torsions:
  status: ('A' for Active; 'I' for Inactive)
    1  A    between atoms: C_2  and  C_15
    2  A    between atoms: C_3  and  C_14
    3  A    between atoms: C_13  and  C_27
    4  A    between atoms: C_13  and  C_30
    5  A    between atoms: C_16  and  C_21
    6  A    between atoms: C_21  and  O_29
    7  A    between atoms: O_29  and  C_33
                            x       y       z     vdW  Elec       q    Type
                         _______ _______ _______ _____ _____    ______ ____

>  <TORSDO>
F 7

$$$$
=
 OpenBabel11072410223D

 33 37  0  0  1  0  0  0  0  0999 V2000
  161.9120  210.5470  154.8400 C   0  0  0  0  0  2  0  0  0  0  0  0
  160.6800  209.7230  154.4510 C   0  0  2  0  0  3  0  0  0  0  0  0
  159.7380  209.4770  155.6460 C   0  0  1  0  0  3  0  0  0  0  0  0
  162.5470  210.0030  156.0370 N   0  0  0  0  0  0  0  0  0  0  0  0
  161.7900  209.3490  157.0620 C   0  0  0  0  0  3  0  0  0  0  0  0
  160.4930  209.0820  156.8940 C   0  0  0  0  0  2  0  0  0  0  0  0
  160.8700  207.1970  154.2990 C   0  0  0  0  0  3  0  0  0  0  0  0
  161.4730  208.5590  152.3920 C   0  0  0  0  0  3  0  0  0  0  0  0
  161.1810  206.0430  153.5730 C   0  0  0  0  0  3  0  0  0  0  0  0
  161.0180  208.4620  153.7110 C   0  0  0  0  0  0  0  0  0  0  0  0
  161.6410  206.1480  152.2560 C   0  0  0  0  0  3  0  0  0  0  0  0
  161.7920  207.4040  151.6580 C   0  0  0  0  0  0  0  0  0  0  0  0
  162.2520  207.4760  150.3380 O   0  0  0  0  0  0  0  0  0  0  0  0
  161.3810  207.5480  149.2110 C   0  0  0  0  0  2  0  0  0  0  0  0
  162.1360  206.5000  147.1050 N   0  0  0  0  0  0  0  0  0  0  0  0
  161.5700  206.3580  148.3350 C   0  0  0  0  0  0  0  0  0  0  0  0
  161.3910  203.9810  147.9660 C   0  0  0  0  0  3  0  0  0  0  0  0
  162.3410  205.4300  146.2890 C   0  0  0  0  0  3  0  0  0  0  0  0
  161.1910  205.0900  148.7900 C   0  0  0  0  0  3  0  0  0  0  0  0
  161.9700  204.1480  146.7050 C   0  0  0  0  0  3  0  0  0  0  0  0
  159.1640  211.2820  157.1990 N   0  0  0  0  0  2  0  0  0  0  0  0
  158.8520  210.7020  155.9100 C   0  0  1  0  0  3  0  0  0  0  0  0
  159.4440  212.9590  155.6030 O   0  0  0  0  0  0  0  0  0  0  0  0
  159.8390  212.5290  156.8780 C   0  0  0  0  0  2  0  0  0  0  0  0
  159.1350  211.7880  154.9000 C   0  0  2  0  0  3  0  0  0  0  0  0
  157.9100  212.0130  154.0260 C   0  0  0  0  0  2  0  0  0  0  0  0
  157.4390  213.7030  152.2000 C   0  0  0  0  0  0  0  0  0  0  0  0
  155.8890  214.1120  152.9200 Cl  0  0  0  0  0  0  0  0  0  0  0  0
  159.0530  214.0690  150.4280 C   0  0  0  0  0  3  0  0  0  0  0  0
  157.8310  214.3690  151.0340 C   0  0  0  0  0  3  0  0  0  0  0  0
  159.8910  213.1020  150.9860 C   0  0  0  0  0  3  0  0  0  0  0  0
  158.2810  212.7280  152.7650 C   0  0  0  0  0  0  0  0  0  0  0  0
  159.5060  212.4340  152.1530 C   0  0  0  0  0  3  0  0  0  0  0  0
  1  4  1  0  0  0  0
  2 10  1  1  0  0  0
  2  1  1  0  0  0  0
  2  3  1  0  0  0  0
  3 22  1  0  0  0  0
  3  6  1  1  0  0  0
  4  5  2  0  0  0  0
  6  5  1  0  0  0  0
  8 10  2  0  0  0  0
  9  7  2  0  0  0  0
 10  7  1  0  0  0  0
 11  9  1  0  0  0  0
 12 11  2  0  0  0  0
 12  8  1  0  0  0  0
 13 12  1  0  0  0  0
 14 13  1  0  0  0  0
 15 16  1  0  0  0  0
 16 19  2  0  0  0  0
 16 14  1  0  0  0  0
 17 19  1  0  0  0  0
 18 20  1  0  0  0  0
 18 15  2  0  0  0  0
 20 17  2  0  0  0  0
 22 21  1  1  0  0  0
 23 24  1  0  0  0  0
 24 21  1  0  0  0  0
 25 26  1  1  0  0  0
 25 23  1  0  0  0  0
 25 22  1  0  0  0  0
 27 32  1  0  0  0  0
 27 28  1  0  0  0  0
 29 31  2  0  0  0  0
 29 30  1  0  0  0  0
 30 27  2  0  0  0  0
 31 33  1  0  0  0  0
 32 26  1  0  0  0  0
 33 32  2  0  0  0  0
M  END
>  <MODEL>
2

>  <REMARK>
 VINA RESULT:      -8.4      3.439      9.098
  Name = 
  7 active torsions:
  status: ('A' for Active; 'I' for Inactive)
    1  A    between atoms: C_2  and  C_15
    2  A    between atoms: C_3  and  C_14
    3  A    between atoms: C_13  and  C_27
    4  A    between atoms: C_13  and  C_30
    5  A    between atoms: C_16  and  C_21
    6  A    between atoms: C_21  and  O_29
    7  A    between atoms: O_29  and  C_33
                            x       y       z     vdW  Elec       q    Type
                         _______ _______ _______ _____ _____    ______ ____

>  <TORSDO>
F 7

$$$$
=
 OpenBabel11072410223D

 33 37  0  0  1  0  0  0  0  0999 V2000
  161.4740  210.7730  153.8810 C   0  0  0  0  0  2  0  0  0  0  0  0
  160.4770  209.6300  154.1010 C   0  0  2  0  0  3  0  0  0  0  0  0
  160.1440  209.4220  155.5910 C   0  0  1  0  0  3  0  0  0  0  0  0
  162.6260  210.6390  154.7680 N   0  0  0  0  0  0  0  0  0  0  0  0
  162.5130  210.0490  156.0680 C   0  0  0  0  0  3  0  0  0  0  0  0
  161.3790  209.4670  156.4620 C   0  0  0  0  0  2  0  0  0  0  0  0
  160.8450  207.1190  154.0720 C   0  0  0  0  0  3  0  0  0  0  0  0
  161.2560  208.4120  152.0680 C   0  0  0  0  0  3  0  0  0  0  0  0
  161.2050  205.9520  153.3920 C   0  0  0  0  0  3  0  0  0  0  0  0
  160.8710  208.3570  153.4110 C   0  0  0  0  0  0  0  0  0  0  0  0
  161.5940  206.0150  152.0500 C   0  0  0  0  0  3  0  0  0  0  0  0
  161.6240  207.2430  151.3800 C   0  0  0  0  0  0  0  0  0  0  0  0
  162.0140  207.2740  150.0360 O   0  0  0  0  0  0  0  0  0  0  0  0
  161.0890  207.2210  148.9540 C   0  0  0  0  0  2  0  0  0  0  0  0
  161.9630  206.3560  146.8100 N   0  0  0  0  0  0  0  0  0  0  0  0
  161.4310  206.0970  148.0360 C   0  0  0  0  0  0  0  0  0  0  0  0
  161.5740  203.7320  147.5860 C   0  0  0  0  0  3  0  0  0  0  0  0
  162.3050  205.3520  145.9570 C   0  0  0  0  0  3  0  0  0  0  0  0
  161.2320  204.7750  148.4490 C   0  0  0  0  0  3  0  0  0  0  0  0
  162.1150  204.0190  146.3300 C   0  0  0  0  0  3  0  0  0  0  0  0
  159.6440  211.2510  157.1410 N   0  0  0  0  0  2  0  0  0  0  0  0
  159.1020  210.4400  156.0720 C   0  0  1  0  0  3  0  0  0  0  0  0
  158.9610  212.7070  155.4530 O   0  0  0  0  0  0  0  0  0  0  0  0
  159.8350  212.5590  156.5390 C   0  0  0  0  0  2  0  0  0  0  0  0
  158.7600  211.4100  154.9650 C   0  0  2  0  0  3  0  0  0  0  0  0
  157.3080  211.2290  154.5490 C   0  0  0  0  0  2  0  0  0  0  0  0
  156.0430  213.4230  154.5950 C   0  0  0  0  0  0  0  0  0  0  0  0
  156.5950  213.8220  152.9750 Cl  0  0  0  0  0  0  0  0  0  0  0  0
  154.7440  214.0430  156.5470 C   0  0  0  0  0  3  0  0  0  0  0  0
  155.2010  214.3230  155.2560 C   0  0  0  0  0  3  0  0  0  0  0  0
  155.1270  212.8610  157.1820 C   0  0  0  0  0  3  0  0  0  0  0  0
  156.4310  212.2300  155.2330 C   0  0  0  0  0  0  0  0  0  0  0  0
  155.9670  211.9550  156.5270 C   0  0  0  0  0  3  0  0  0  0  0  0
  1  2  1  0  0  0  0
  1  4  1  0  0  0  0
  2 10  1  1  0  0  0
  2  3  1  0  0  0  0
  3 22  1  0  0  0  0
  3  6  1  1  0  0  0
  4  5  2  0  0  0  0
  5  6  1  0  0  0  0
  8 10  2  0  0  0  0
  9  7  2  0  0  0  0
 10  7  1  0  0  0  0
 11  9  1  0  0  0  0
 12 11  2  0  0  0  0
 12  8  1  0  0  0  0
 13 12  1  0  0  0  0
 14 13  1  0  0  0  0
 15 16  1  0  0  0  0
 16 19  2  0  0  0  0
 16 14  1  0  0  0  0
 17 19  1  0  0  0  0
 18 20  1  0  0  0  0
 18 15  2  0  0  0  0
 20 17  2  0  0  0  0
 22 21  1  1  0  0  0
 23 24  1  0  0  0  0
 24 21  1  0  0  0  0
 25 26  1  1  0  0  0
 25 23  1  0  0  0  0
 25 22  1  0  0  0  0
 26 32  1  0  0  0  0
 27 32  2  0  0  0  0
 27 30  1  0  0  0  0
 28 27  1  0  0  0  0
 29 31  1  0  0  0  0
 30 29  2  0  0  0  0
 32 33  1  0  0  0  0
 33 31  2  0  0  0  0
M  END
>  <MODEL>
3

>  <REMARK>
 VINA RESULT:      -7.9      3.376      9.969
  Name = 
  7 active torsions:
  status: ('A' for Active; 'I' for Inactive)
    1  A    between atoms: C_2  and  C_15
    2  A    between atoms: C_3  and  C_14
    3  A    between atoms: C_13  and  C_27
    4  A    between atoms: C_13  and  C_30
    5  A    between atoms: C_16  and  C_21
    6  A    between atoms: C_21  and  O_29
    7  A    between atoms: O_29  and  C_33
                            x       y       z     vdW  Elec       q    Type
                         _______ _______ _______ _____ _____    ______ ____

>  <TORSDO>
F 7

$$$$
=
 OpenBabel11072410223D

 33 37  0  0  1  0  0  0  0  0999 V2000
  160.4110  205.8390  152.6100 C   0  0  0  0  0  2  0  0  0  0  0  0
  160.7030  207.3350  152.4460 C   0  0  2  0  0  3  0  0  0  0  0  0
  161.8060  207.6050  151.4030 C   0  0  1  0  0  3  0  0  0  0  0  0
  161.6470  205.0830  152.7940 N   0  0  0  0  0  2  0  0  0  0  0  0
  162.8790  205.4940  152.1910 C   0  0  0  0  0  3  0  0  0  0  0  0
  162.9780  206.6640  151.5570 C   0  0  0  0  0  3  0  0  0  0  0  0
  161.1990  207.3320  154.9350 C   0  0  0  0  0  3  0  0  0  0  0  0
  160.9530  209.4370  153.7660 C   0  0  0  0  0  3  0  0  0  0  0  0
  161.4400  208.0220  156.1260 C   0  0  0  0  0  3  0  0  0  0  0  0
  160.9510  208.0380  153.7480 C   0  0  0  0  0  0  0  0  0  0  0  0
  161.4360  209.4210  156.1380 C   0  0  0  0  0  3  0  0  0  0  0  0
  161.1910  210.1370  154.9610 C   0  0  0  0  0  0  0  0  0  0  0  0
  161.1960  211.5360  155.0040 O   0  0  0  0  0  0  0  0  0  0  0  0
  160.3730  212.2910  155.8900 C   0  0  0  0  0  2  0  0  0  0  0  0
  158.5270  212.7610  154.3150 N   0  0  0  0  0  0  0  0  0  0  0  0
  158.9440  212.1910  155.4790 C   0  0  0  0  0  0  0  0  0  0  0  0
  156.7050  211.3850  155.8720 C   0  0  0  0  0  3  0  0  0  0  0  0
  157.2330  212.6700  153.9020 C   0  0  0  0  0  3  0  0  0  0  0  0
  158.0370  211.4860  156.2780 C   0  0  0  0  0  3  0  0  0  0  0  0
  156.2960  211.9800  154.6760 C   0  0  0  0  0  3  0  0  0  0  0  0
  161.8220  208.5910  149.1620 N   0  0  0  0  0  2  0  0  0  0  0  0
  161.2430  207.5450  149.9770 C   0  0  1  0  0  3  0  0  0  0  0  0
  162.2700  206.5640  148.1000 O   0  0  0  0  0  0  0  0  0  0  0  0
  162.7080  207.8870  148.2500 C   0  0  0  0  0  2  0  0  0  0  0  0
  161.6350  206.2490  149.3070 C   0  0  2  0  0  3  0  0  0  0  0  0
  160.3940  205.4100  149.0400 C   0  0  0  0  0  2  0  0  0  0  0  0
  161.1640  203.2490  147.9680 C   0  0  0  0  0  0  0  0  0  0  0  0
  161.3380  204.0360  146.4070 Cl  0  0  0  0  0  0  0  0  0  0  0  0
  161.3510  201.2270  149.2930 C   0  0  0  0  0  3  0  0  0  0  0  0
  161.4800  201.8900  148.0700 C   0  0  0  0  0  3  0  0  0  0  0  0
  160.9070  201.9200  150.4200 C   0  0  0  0  0  3  0  0  0  0  0  0
  160.7160  203.9500  149.1030 C   0  0  0  0  0  0  0  0  0  0  0  0
  160.5910  203.2790  150.3260 C   0  0  0  0  0  3  0  0  0  0  0  0
  1  4  1  0  0  0  0
  2  1  1  0  0  0  0
  2 10  1  1  0  0  0
  3  6  1  6  0  0  0
  3  2  1  0  0  0  0
  5  4  1  0  0  0  0
  6  5  2  0  0  0  0
  7  9  1  0  0  0  0
  8 12  2  0  0  0  0
  9 11  2  0  0  0  0
 10  8  1  0  0  0  0
 10  7  2  0  0  0  0
 12 13  1  0  0  0  0
 12 11  1  0  0  0  0
 13 14  1  0  0  0  0
 15 16  1  0  0  0  0
 16 14  1  0  0  0  0
 16 19  2  0  0  0  0
 17 19  1  0  0  0  0
 18 15  2  0  0  0  0
 18 20  1  0  0  0  0
 20 17  2  0  0  0  0
 22 21  1  6  0  0  0
 22  3  1  0  0  0  0
 23 24  1  0  0  0  0
 23 25  1  0  0  0  0
 24 21  1  0  0  0  0
 25 26  1  6  0  0  0
 25 22  1  0  0  0  0
 26 32  1  0  0  0  0
 27 30  2  0  0  0  0
 27 32  1  0  0  0  0
 28 27  1  0  0  0  0
 29 31  2  0  0  0  0
 30 29  1  0  0  0  0
 32 33  2  0  0  0  0
 33 31  1  0  0  0  0
M  END
>  <MODEL>
4

>  <REMARK>
 VINA RESULT:      -7.8      1.972      3.382
  Name = 
  7 active torsions:
  status: ('A' for Active; 'I' for Inactive)
    1  A    between atoms: C_2  and  C_15
    2  A    between atoms: C_3  and  C_14
    3  A    between atoms: C_13  and  C_27
    4  A    between atoms: C_13  and  C_30
    5  A    between atoms: C_16  and  C_21
    6  A    between atoms: C_21  and  O_29
    7  A    between atoms: O_29  and  C_33
                            x       y       z     vdW  Elec       q    Type
                         _______ _______ _______ _____ _____    ______ ____

>  <TORSDO>
F 7

$$$$
=
 OpenBabel11072410223D

 33 37  0  0  1  0  0  0  0  0999 V2000
  162.8250  205.8170  153.0160 C   0  0  0  0  0  2  0  0  0  0  0  0
  162.3240  205.7520  151.5690 C   0  0  2  0  0  3  0  0  0  0  0  0
  161.4790  206.9820  151.1860 C   0  0  1  0  0  3  0  0  0  0  0  0
  161.7340  206.1380  153.9320 N   0  0  0  0  0  2  0  0  0  0  0  0
  160.6330  206.9620  153.5340 C   0  0  0  0  0  3  0  0  0  0  0  0
  160.4880  207.3510  152.2660 C   0  0  0  0  0  3  0  0  0  0  0  0
  161.2970  203.5250  152.2220 C   0  0  0  0  0  3  0  0  0  0  0  0
  161.3450  204.1830  149.8940 C   0  0  0  0  0  3  0  0  0  0  0  0
  160.6540  202.3340  151.8720 C   0  0  0  0  0  3  0  0  0  0  0  0
  161.6480  204.4550  151.2320 C   0  0  0  0  0  0  0  0  0  0  0  0
  160.3590  202.0660  150.5310 C   0  0  0  0  0  3  0  0  0  0  0  0
  160.7040  202.9860  149.5340 C   0  0  0  0  0  0  0  0  0  0  0  0
  160.3930  202.6910  148.2010 O   0  0  0  0  0  0  0  0  0  0  0  0
  161.3830  202.4280  147.2100 C   0  0  0  0  0  2  0  0  0  0  0  0
  160.6900  203.5970  145.1460 N   0  0  0  0  0  0  0  0  0  0  0  0
  161.4760  203.5700  146.2570 C   0  0  0  0  0  0  0  0  0  0  0  0
  162.4160  205.7010  145.6300 C   0  0  0  0  0  3  0  0  0  0  0  0
  160.7370  204.6350  144.2660 C   0  0  0  0  0  3  0  0  0  0  0  0
  162.3520  204.6290  146.5220 C   0  0  0  0  0  3  0  0  0  0  0  0
  161.6030  205.7080  144.4920 C   0  0  0  0  0  3  0  0  0  0  0  0
  162.8030  208.1010  149.4570 N   0  0  0  0  0  2  0  0  0  0  0  0
  162.3730  208.1790  150.8360 C   0  0  1  0  0  3  0  0  0  0  0  0
  161.7170  210.1470  149.7240 O   0  0  0  0  0  0  0  0  0  0  0  0
  162.0670  209.1620  148.7900 C   0  0  0  0  0  2  0  0  0  0  0  0
  161.5960  209.4700  150.9430 C   0  0  2  0  0  3  0  0  0  0  0  0
  162.1610  210.3210  152.0710 C   0  0  0  0  0  2  0  0  0  0  0  0
  161.3320  210.9080  154.3910 C   0  0  0  0  0  0  0  0  0  0  0  0
  162.9210  210.6110  155.0790 Cl  0  0  0  0  0  0  0  0  0  0  0  0
  159.0220  211.5650  154.7320 C   0  0  0  0  0  3  0  0  0  0  0  0
  160.3010  211.3230  155.2410 C   0  0  0  0  0  3  0  0  0  0  0  0
  158.7690  211.3950  153.3700 C   0  0  0  0  0  3  0  0  0  0  0  0
  161.0790  210.7360  153.0170 C   0  0  0  0  0  0  0  0  0  0  0  0
  159.7950  210.9830  152.5140 C   0  0  0  0  0  3  0  0  0  0  0  0
  1  4  1  0  0  0  0
  2 10  1  1  0  0  0
  2  1  1  0  0  0  0
  3  2  1  0  0  0  0
  3  6  1  1  0  0  0
  5  4  1  0  0  0  0
  6  5  2  0  0  0  0
  8 10  1  0  0  0  0
  9  7  1  0  0  0  0
 10  7  2  0  0  0  0
 11  9  2  0  0  0  0
 12  8  2  0  0  0  0
 12 11  1  0  0  0  0
 13 12  1  0  0  0  0
 14 13  1  0  0  0  0
 15 16  1  0  0  0  0
 16 19  2  0  0  0  0
 16 14  1  0  0  0  0
 17 19  1  0  0  0  0
 18 20  1  0  0  0  0
 18 15  2  0  0  0  0
 20 17  2  0  0  0  0
 22 21  1  6  0  0  0
 22 25  1  0  0  0  0
 22  3  1  0  0  0  0
 23 25  1  0  0  0  0
 24 21  1  0  0  0  0
 24 23  1  0  0  0  0
 25 26  1  1  0  0  0
 26 32  1  0  0  0  0
 27 28  1  0  0  0  0
 27 30  1  0  0  0  0
 29 30  2  0  0  0  0
 31 29  1  0  0  0  0
 32 27  2  0  0  0  0
 33 32  1  0  0  0  0
 33 31  2  0  0  0  0
M  END
>  <MODEL>
5

>  <REMARK>
 VINA RESULT:      -7.5      3.082      8.786
  Name = 
  7 active torsions:
  status: ('A' for Active; 'I' for Inactive)
    1  A    between atoms: C_2  and  C_15
    2  A    between atoms: C_3  and  C_14
    3  A    between atoms: C_13  and  C_27
    4  A    between atoms: C_13  and  C_30
    5  A    between atoms: C_16  and  C_21
    6  A    between atoms: C_21  and  O_29
    7  A    between atoms: O_29  and  C_33
                            x       y       z     vdW  Elec       q    Type
                         _______ _______ _______ _____ _____    ______ ____

>  <TORSDO>
F 7

$$$$
=
 OpenBabel11072410223D

 33 37  0  0  1  0  0  0  0  0999 V2000
  160.4600  206.4580  152.6700 C   0  0  0  0  0  2  0  0  0  0  0  0
  160.4750  207.7930  151.9160 C   0  0  2  0  0  3  0  0  0  0  0  0
  161.4590  207.7850  150.7310 C   0  0  1  0  0  3  0  0  0  0  0  0
  161.8180  206.0210  152.9840 N   0  0  0  0  0  2  0  0  0  0  0  0
  162.9270  206.3330  152.1340 C   0  0  0  0  0  3  0  0  0  0  0  0
  162.7860  207.1590  151.0950 C   0  0  0  0  0  3  0  0  0  0  0  0
  161.3170  208.8770  154.0510 C   0  0  0  0  0  3  0  0  0  0  0  0
  160.1760  210.2230  152.3940 C   0  0  0  0  0  3  0  0  0  0  0  0
  161.4830  210.0090  154.8550 C   0  0  0  0  0  3  0  0  0  0  0  0
  160.6590  208.9800  152.8150 C   0  0  0  0  0  0  0  0  0  0  0  0
  160.9920  211.2480  154.4300 C   0  0  0  0  0  3  0  0  0  0  0  0
  160.3350  211.3630  153.2000 C   0  0  0  0  0  0  0  0  0  0  0  0
  159.8570  212.6170  152.8000 O   0  0  0  0  0  0  0  0  0  0  0  0
  159.7560  213.0140  151.4350 C   0  0  0  0  0  2  0  0  0  0  0  0
  157.5990  214.0210  152.0980 N   0  0  0  0  0  0  0  0  0  0  0  0
  158.3660  213.4550  151.1260 C   0  0  0  0  0  0  0  0  0  0  0  0
  156.5640  213.7450  149.5490 C   0  0  0  0  0  3  0  0  0  0  0  0
  156.3330  214.4520  151.8430 C   0  0  0  0  0  3  0  0  0  0  0  0
  157.8620  213.3110  149.8290 C   0  0  0  0  0  3  0  0  0  0  0  0
  155.7910  214.3200  150.5620 C   0  0  0  0  0  3  0  0  0  0  0  0
  161.2660  207.7440  148.2900 N   0  0  0  0  0  2  0  0  0  0  0  0
  160.8460  207.0880  149.5090 C   0  0  1  0  0  3  0  0  0  0  0  0
  161.8950  205.5050  148.1190 O   0  0  0  0  0  0  0  0  0  0  0  0
  162.1870  206.8020  147.6740 C   0  0  0  0  0  2  0  0  0  0  0  0
  161.3530  205.6690  149.3990 C   0  0  2  0  0  3  0  0  0  0  0  0
  160.2050  204.6930  149.6080 C   0  0  0  0  0  2  0  0  0  0  0  0
  160.8990  202.3630  150.3210 C   0  0  0  0  0  0  0  0  0  0  0  0
  160.7740  202.8010  152.0190 Cl  0  0  0  0  0  0  0  0  0  0  0  0
  161.3880  200.6710  148.6550 C   0  0  0  0  0  3  0  0  0  0  0  0
  161.2730  201.0560  149.9930 C   0  0  0  0  0  3  0  0  0  0  0  0
  161.1280  201.5910  147.6390 C   0  0  0  0  0  3  0  0  0  0  0  0
  160.6350  203.2930  149.2980 C   0  0  0  0  0  0  0  0  0  0  0  0
  160.7510  202.8990  147.9590 C   0  0  0  0  0  3  0  0  0  0  0  0
  1  4  1  0  0  0  0
  2  1  1  0  0  0  0
  2 10  1  1  0  0  0
  3  6  1  1  0  0  0
  3  2  1  0  0  0  0
  5  4  1  0  0  0  0
  6  5  2  0  0  0  0
  7  9  1  0  0  0  0
  8 10  1  0  0  0  0
  8 12  2  0  0  0  0
 10  7  2  0  0  0  0
 11  9  2  0  0  0  0
 12 11  1  0  0  0  0
 13 12  1  0  0  0  0
 14 13  1  0  0  0  0
 16 14  1  0  0  0  0
 16 15  2  0  0  0  0
 17 19  2  0  0  0  0
 17 20  1  0  0  0  0
 18 15  1  0  0  0  0
 19 16  1  0  0  0  0
 20 18  2  0  0  0  0
 22 21  1  6  0  0  0
 22  3  1  0  0  0  0
 23 25  1  0  0  0  0
 24 23  1  0  0  0  0
 24 21  1  0  0  0  0
 25 22  1  0  0  0  0
 25 26  1  6  0  0  0
 27 28  1  0  0  0  0
 29 30  2  0  0  0  0
 30 27  1  0  0  0  0
 31 33  2  0  0  0  0
 31 29  1  0  0  0  0
 32 26  1  0  0  0  0
 32 27  2  0  0  0  0
 33 32  1  0  0  0  0
M  END
>  <MODEL>
6

>  <REMARK>
 VINA RESULT:      -7.3      2.322      3.838
  Name = 
  7 active torsions:
  status: ('A' for Active; 'I' for Inactive)
    1  A    between atoms: C_2  and  C_15
    2  A    between atoms: C_3  and  C_14
    3  A    between atoms: C_13  and  C_27
    4  A    between atoms: C_13  and  C_30
    5  A    between atoms: C_16  and  C_21
    6  A    between atoms: C_21  and  O_29
    7  A    between atoms: O_29  and  C_33
                            x       y       z     vdW  Elec       q    Type
                         _______ _______ _______ _____ _____    ______ ____

>  <TORSDO>
F 7

$$$$
=
 OpenBabel11072410223D

 33 37  0  0  1  0  0  0  0  0999 V2000
  160.4560  205.9380  152.5280 C   0  0  0  0  0  2  0  0  0  0  0  0
  160.7440  207.4420  152.4620 C   0  0  2  0  0  3  0  0  0  0  0  0
  161.8380  207.7840  151.4310 C   0  0  1  0  0  3  0  0  0  0  0  0
  161.6940  205.1740  152.6510 N   0  0  0  0  0  2  0  0  0  0  0  0
  162.9210  205.6270  152.0670 C   0  0  0  0  0  3  0  0  0  0  0  0
  163.0130  206.8370  151.5120 C   0  0  0  0  0  3  0  0  0  0  0  0
  161.2120  207.2720  154.9500 C   0  0  0  0  0  3  0  0  0  0  0  0
  161.0490  209.4510  153.9090 C   0  0  0  0  0  3  0  0  0  0  0  0
  161.4640  207.8810  156.1830 C   0  0  0  0  0  3  0  0  0  0  0  0
  161.0010  208.0570  153.8060 C   0  0  0  0  0  0  0  0  0  0  0  0
  161.5050  209.2760  156.2800 C   0  0  0  0  0  3  0  0  0  0  0  0
  161.2960  210.0690  155.1460 C   0  0  0  0  0  0  0  0  0  0  0  0
  161.3460  211.4620  155.2740 O   0  0  0  0  0  0  0  0  0  0  0  0
  160.4670  212.2000  156.1200 C   0  0  0  0  0  2  0  0  0  0  0  0
  158.1340  211.3960  156.2550 N   0  0  0  0  0  0  0  0  0  0  0  0
  159.0720  212.1330  155.5990 C   0  0  0  0  0  0  0  0  0  0  0  0
  157.4080  212.7950  153.9840 C   0  0  0  0  0  3  0  0  0  0  0  0
  156.8470  211.3310  155.8160 C   0  0  0  0  0  3  0  0  0  0  0  0
  158.7220  212.8520  154.4510 C   0  0  0  0  0  3  0  0  0  0  0  0
  156.4600  212.0300  154.6690 C   0  0  0  0  0  3  0  0  0  0  0  0
  161.8080  208.9400  149.2720 N   0  0  0  0  0  2  0  0  0  0  0  0
  161.2640  207.8180  150.0090 C   0  0  1  0  0  3  0  0  0  0  0  0
  162.3000  207.0130  148.0550 O   0  0  0  0  0  0  0  0  0  0  0  0
  162.7040  208.3320  148.3030 C   0  0  0  0  0  2  0  0  0  0  0  0
  161.6840  206.5890  149.2380 C   0  0  2  0  0  3  0  0  0  0  0  0
  160.4640  205.7400  148.9160 C   0  0  0  0  0  2  0  0  0  0  0  0
  160.8590  203.2480  148.6920 C   0  0  0  0  0  0  0  0  0  0  0  0
  160.4500  202.9890  150.3810 Cl  0  0  0  0  0  0  0  0  0  0  0  0
  161.5380  202.3050  146.5630 C   0  0  0  0  0  3  0  0  0  0  0  0
  161.2020  202.1400  147.9090 C   0  0  0  0  0  3  0  0  0  0  0  0
  161.5310  203.5790  145.9930 C   0  0  0  0  0  3  0  0  0  0  0  0
  160.8510  204.5330  148.1190 C   0  0  0  0  0  0  0  0  0  0  0  0
  161.1870  204.6910  146.7680 C   0  0  0  0  0  3  0  0  0  0  0  0
  1  4  1  0  0  0  0
  2  1  1  0  0  0  0
  2 10  1  1  0  0  0
  3  6  1  6  0  0  0
  3  2  1  0  0  0  0
  5  4  1  0  0  0  0
  6  5  2  0  0  0  0
  7  9  1  0  0  0  0
  8 12  2  0  0  0  0
  9 11  2  0  0  0  0
 10  8  1  0  0  0  0
 10  7  2  0  0  0  0
 12 13  1  0  0  0  0
 12 11  1  0  0  0  0
 13 14  1  0  0  0  0
 16 14  1  0  0  0  0
 16 15  2  0  0  0  0
 17 19  2  0  0  0  0
 17 20  1  0  0  0  0
 18 15  1  0  0  0  0
 19 16  1  0  0  0  0
 20 18  2  0  0  0  0
 22 21  1  6  0  0  0
 22  3  1  0  0  0  0
 23 24  1  0  0  0  0
 23 25  1  0  0  0  0
 24 21  1  0  0  0  0
 25 26  1  6  0  0  0
 25 22  1  0  0  0  0
 27 28  1  0  0  0  0
 29 30  1  0  0  0  0
 30 27  2  0  0  0  0
 31 29  2  0  0  0  0
 31 33  1  0  0  0  0
 32 27  1  0  0  0  0
 32 26  1  0  0  0  0
 33 32  2  0  0  0  0
M  END
>  <MODEL>
7

>  <REMARK>
 VINA RESULT:      -7.1      1.948      3.248
  Name = 
  7 active torsions:
  status: ('A' for Active; 'I' for Inactive)
    1  A    between atoms: C_2  and  C_15
    2  A    between atoms: C_3  and  C_14
    3  A    between atoms: C_13  and  C_27
    4  A    between atoms: C_13  and  C_30
    5  A    between atoms: C_16  and  C_21
    6  A    between atoms: C_21  and  O_29
    7  A    between atoms: O_29  and  C_33
                            x       y       z     vdW  Elec       q    Type
                         _______ _______ _______ _____ _____    ______ ____

>  <TORSDO>
F 7

$$$$
=
 OpenBabel11072410223D

 33 37  0  0  1  0  0  0  0  0999 V2000
  162.0130  208.4440  155.5040 C   0  0  0  0  0  2  0  0  0  0  0  0
  160.9560  208.5530  154.3990 C   0  0  2  0  0  3  0  0  0  0  0  0
  159.5290  208.6860  154.9650 C   0  0  1  0  0  3  0  0  0  0  0  0
  161.6340  207.4380  156.4910 N   0  0  0  0  0  2  0  0  0  0  0  0
  160.2630  207.1670  156.8050 C   0  0  0  0  0  3  0  0  0  0  0  0
  159.2740  207.7220  156.1010 C   0  0  0  0  0  3  0  0  0  0  0  0
  161.2300  206.1270  153.7080 C   0  0  0  0  0  3  0  0  0  0  0  0
  160.9940  207.8350  152.0100 C   0  0  0  0  0  3  0  0  0  0  0  0
  161.3170  205.1500  152.7120 C   0  0  0  0  0  3  0  0  0  0  0  0
  161.0690  207.4770  153.3600 C   0  0  0  0  0  0  0  0  0  0  0  0
  161.2460  205.5160  151.3640 C   0  0  0  0  0  3  0  0  0  0  0  0
  161.0860  206.8590  151.0040 C   0  0  0  0  0  0  0  0  0  0  0  0
  161.0150  207.1940  149.6470 O   0  0  0  0  0  0  0  0  0  0  0  0
  162.1460  207.1790  148.7790 C   0  0  0  0  0  2  0  0  0  0  0  0
  160.7000  206.7630  146.8190 N   0  0  0  0  0  0  0  0  0  0  0  0
  161.8230  206.4480  147.5220 C   0  0  0  0  0  0  0  0  0  0  0  0
  162.3870  204.7940  145.8590 C   0  0  0  0  0  3  0  0  0  0  0  0
  160.3880  206.1280  145.6560 C   0  0  0  0  0  3  0  0  0  0  0  0
  162.6920  205.4580  147.0480 C   0  0  0  0  0  3  0  0  0  0  0  0
  161.2260  205.1280  145.1540 C   0  0  0  0  0  3  0  0  0  0  0  0
  159.5970  210.3170  156.7910 N   0  0  0  0  0  2  0  0  0  0  0  0
  159.2400  210.1290  155.4010 C   0  0  1  0  0  3  0  0  0  0  0  0
  160.7950  211.8890  155.5540 O   0  0  0  0  0  0  0  0  0  0  0  0
  160.7860  211.1530  156.7470 C   0  0  0  0  0  2  0  0  0  0  0  0
  160.1040  211.0980  154.6290 C   0  0  2  0  0  3  0  0  0  0  0  0
  159.2310  211.9740  153.7430 C   0  0  0  0  0  2  0  0  0  0  0  0
  159.5210  213.2130  151.5530 C   0  0  0  0  0  0  0  0  0  0  0  0
  158.3810  214.4530  152.0550 Cl  0  0  0  0  0  0  0  0  0  0  0  0
  161.0310  212.3600  149.8570 C   0  0  0  0  0  3  0  0  0  0  0  0
  160.1230  213.3280  150.2950 C   0  0  0  0  0  3  0  0  0  0  0  0
  161.3420  211.2740  150.6760 C   0  0  0  0  0  3  0  0  0  0  0  0
  159.8330  212.1180  152.3800 C   0  0  0  0  0  0  0  0  0  0  0  0
  160.7460  211.1530  151.9350 C   0  0  0  0  0  3  0  0  0  0  0  0
  1  4  1  0  0  0  0
  2 10  1  6  0  0  0
  2  3  1  0  0  0  0
  2  1  1  0  0  0  0
  3 22  1  0  0  0  0
  3  6  1  1  0  0  0
  4  5  1  0  0  0  0
  6  5  2  0  0  0  0
  8 10  2  0  0  0  0
  9  7  2  0  0  0  0
 10  7  1  0  0  0  0
 11  9  1  0  0  0  0
 12 11  2  0  0  0  0
 12  8  1  0  0  0  0
 13 12  1  0  0  0  0
 14 13  1  0  0  0  0
 15 16  1  0  0  0  0
 16 14  1  0  0  0  0
 17 19  1  0  0  0  0
 18 15  2  0  0  0  0
 19 16  2  0  0  0  0
 20 18  1  0  0  0  0
 20 17  2  0  0  0  0
 22 21  1  1  0  0  0
 23 24  1  0  0  0  0
 24 21  1  0  0  0  0
 25 26  1  6  0  0  0
 25 22  1  0  0  0  0
 25 23  1  0  0  0  0
 27 28  1  0  0  0  0
 27 32  1  0  0  0  0
 29 30  1  0  0  0  0
 29 31  2  0  0  0  0
 30 27  2  0  0  0  0
 31 33  1  0  0  0  0
 32 26  1  0  0  0  0
 33 32  2  0  0  0  0
M  END
>  <MODEL>
8

>  <REMARK>
 VINA RESULT:      -6.6      3.544      8.607
  Name = 
  7 active torsions:
  status: ('A' for Active; 'I' for Inactive)
    1  A    between atoms: C_2  and  C_15
    2  A    between atoms: C_3  and  C_14
    3  A    between atoms: C_13  and  C_27
    4  A    between atoms: C_13  and  C_30
    5  A    between atoms: C_16  and  C_21
    6  A    between atoms: C_21  and  O_29
    7  A    between atoms: O_29  and  C_33
                            x       y       z     vdW  Elec       q    Type
                         _______ _______ _______ _____ _____    ______ ____

>  <TORSDO>
F 7

$$$$
=
 OpenBabel11072410223D

 33 37  0  0  1  0  0  0  0  0999 V2000
  162.0300  208.2140  155.7560 C   0  0  0  0  0  2  0  0  0  0  0  0
  161.0470  208.4600  154.6050 C   0  0  2  0  0  3  0  0  0  0  0  0
  159.6100  208.7050  155.1040 C   0  0  1  0  0  3  0  0  0  0  0  0
  161.5080  207.2140  156.6820 N   0  0  0  0  0  2  0  0  0  0  0  0
  160.1040  207.0600  156.9160 C   0  0  0  0  0  3  0  0  0  0  0  0
  159.2090  207.7290  156.1860 C   0  0  0  0  0  3  0  0  0  0  0  0
  161.3320  206.0610  153.8290 C   0  0  0  0  0  3  0  0  0  0  0  0
  160.9450  207.8080  152.1990 C   0  0  0  0  0  3  0  0  0  0  0  0
  161.3780  205.1140  152.8020 C   0  0  0  0  0  3  0  0  0  0  0  0
  161.1180  207.4150  153.5310 C   0  0  0  0  0  0  0  0  0  0  0  0
  161.2090  205.5140  151.4720 C   0  0  0  0  0  3  0  0  0  0  0  0
  160.9940  206.8610  151.1620 C   0  0  0  0  0  0  0  0  0  0  0  0
  160.8260  207.2310  149.8220 O   0  0  0  0  0  0  0  0  0  0  0  0
  161.8900  207.2260  148.8730 C   0  0  0  0  0  2  0  0  0  0  0  0
  161.3170  206.5840  146.5560 N   0  0  0  0  0  0  0  0  0  0  0  0
  161.6400  206.2000  147.8220 C   0  0  0  0  0  0  0  0  0  0  0  0
  161.5450  203.8900  147.1330 C   0  0  0  0  0  3  0  0  0  0  0  0
  161.1020  205.6720  145.5690 C   0  0  0  0  0  3  0  0  0  0  0  0
  161.7650  204.8410  148.1310 C   0  0  0  0  0  3  0  0  0  0  0  0
  161.2110  204.3050  145.8400 C   0  0  0  0  0  3  0  0  0  0  0  0
  159.6840  210.2480  157.0050 N   0  0  0  0  0  2  0  0  0  0  0  0
  159.4310  210.1520  155.5830 C   0  0  1  0  0  3  0  0  0  0  0  0
  161.1350  211.7340  155.9450 O   0  0  0  0  0  0  0  0  0  0  0  0
  160.9490  210.9570  157.0970 C   0  0  0  0  0  2  0  0  0  0  0  0
  160.4510  211.0550  154.9300 C   0  0  2  0  0  3  0  0  0  0  0  0
  159.7500  212.0510  154.0180 C   0  0  0  0  0  2  0  0  0  0  0  0
  158.2630  213.4970  155.4720 C   0  0  0  0  0  0  0  0  0  0  0  0
  159.6440  214.4310  156.0280 Cl  0  0  0  0  0  0  0  0  0  0  0  0
  155.8690  213.1150  155.5330 C   0  0  0  0  0  3  0  0  0  0  0  0
  156.9920  213.8360  155.9480 C   0  0  0  0  0  3  0  0  0  0  0  0
  156.0130  212.0520  154.6390 C   0  0  0  0  0  3  0  0  0  0  0  0
  158.4110  212.4260  154.5710 C   0  0  0  0  0  0  0  0  0  0  0  0
  157.2800  211.7090  154.1580 C   0  0  0  0  0  3  0  0  0  0  0  0
  1  4  1  0  0  0  0
  2 10  1  6  0  0  0
  2  3  1  0  0  0  0
  2  1  1  0  0  0  0
  3 22  1  0  0  0  0
  3  6  1  1  0  0  0
  4  5  1  0  0  0  0
  6  5  2  0  0  0  0
  8 10  2  0  0  0  0
  9  7  2  0  0  0  0
 10  7  1  0  0  0  0
 11  9  1  0  0  0  0
 12 11  2  0  0  0  0
 12  8  1  0  0  0  0
 13 12  1  0  0  0  0
 14 13  1  0  0  0  0
 15 16  1  0  0  0  0
 16 19  2  0  0  0  0
 16 14  1  0  0  0  0
 17 19  1  0  0  0  0
 18 20  1  0  0  0  0
 18 15  2  0  0  0  0
 20 17  2  0  0  0  0
 21 24  1  0  0  0  0
 22 21  1  1  0  0  0
 23 24  1  0  0  0  0
 25 26  1  6  0  0  0
 25 22  1  0  0  0  0
 25 23  1  0  0  0  0
 26 32  1  0  0  0  0
 27 30  1  0  0  0  0
 27 28  1  0  0  0  0
 29 30  2  0  0  0  0
 31 29  1  0  0  0  0
 32 27  2  0  0  0  0
 33 32  1  0  0  0  0
 33 31  2  0  0  0  0
M  END
>  <MODEL>
9

>  <REMARK>
 VINA RESULT:      -6.5      3.623      9.568
  Name = 
  7 active torsions:
  status: ('A' for Active; 'I' for Inactive)
    1  A    between atoms: C_2  and  C_15
    2  A    between atoms: C_3  and  C_14
    3  A    between atoms: C_13  and  C_27
    4  A    between atoms: C_13  and  C_30
    5  A    between atoms: C_16  and  C_21
    6  A    between atoms: C_21  and  O_29
    7  A    between atoms: O_29  and  C_33
                            x       y       z     vdW  Elec       q    Type
                         _______ _______ _______ _____ _____    ______ ____

>  <TORSDO>
F 7

$$$$
