=
 OpenBabel11072410393D

 50 52  0  0  1  0  0  0  0  0999 V2000
  160.9270  208.0810  151.9610 O   0  0  0  0  0  0  0  0  0  0  0  0
  161.4890  208.0720  153.2400 C   0  0  0  0  0  2  0  0  0  0  0  0
  160.7190  209.0170  154.1520 C   0  0  1  0  0  3  0  0  0  0  0  0
  161.2020  208.8950  155.5990 C   0  0  0  0  0  2  0  0  0  0  0  0
  160.0420  208.8300  156.5830 C   0  0  0  0  0  2  0  0  0  0  0  0
  159.6640  207.5060  156.8100 O   0  0  0  0  0  1  0  0  0  0  0  0
  160.8150  210.4510  153.6340 C   0  0  0  0  0  2  0  0  0  0  0  0
  159.6370  210.8240  152.7380 C   0  0  0  0  0  2  0  0  0  0  0  0
  158.9490  212.9750  153.7870 C   0  0  1  0  0  3  0  0  0  0  0  0
  158.5750  211.5160  153.5790 C   0  0  1  0  0  3  0  0  0  0  0  0
  157.8040  212.6240  152.8540 C   0  0  2  0  0  3  0  0  0  0  0  0
  158.4190  213.4640  155.0990 C   0  0  0  0  0  0  0  0  0  0  0  0
  157.6350  214.4000  155.1240 O   0  0  0  0  0  0  0  0  0  0  0  0
  158.9000  212.8520  156.3790 C   0  0  0  0  0  3  0  0  0  0  0  0
  158.0070  211.6980  156.7910 C   0  0  0  0  0  1  0  0  0  0  0  0
  160.3240  212.3710  156.2360 C   0  0  0  0  0  1  0  0  0  0  0  0
  158.2370  212.8920  151.4180 C   0  0  0  0  0  2  0  0  0  0  0  0
  157.6670  214.2170  150.9460 C   0  0  0  0  0  2  0  0  0  0  0  0
  158.0640  214.4530  149.4960 C   0  0  0  0  0  2  0  0  0  0  0  0
  157.1090  213.7360  148.5580 C   0  0  0  0  0  2  0  0  0  0  0  0
  157.6260  213.7930  147.1280 C   0  0  0  0  0  2  0  0  0  0  0  0
  159.0120  213.1690  147.0620 C   0  0  0  0  0  2  0  0  0  0  0  0
  161.0110  213.9560  145.7410 C   0  0  0  0  0  1  0  0  0  0  0  0
  159.7410  211.9450  144.9750 C   0  0  0  0  0  1  0  0  0  0  0  0
  159.6460  213.2930  145.6730 C   0  0  0  0  0  3  0  0  0  0  0  0
  162.0150  208.1840  151.0920 C   0  0  1  0  0  3  0  0  0  0  0  0
  161.8910  205.9180  148.3240 C   0  0  2  0  0  3  0  0  0  0  0  0
  162.2830  206.8370  150.4200 C   0  0  2  0  0  3  0  0  0  0  0  0
  160.9400  205.2700  149.2250 N   0  0  0  0  0  0  0  0  0  0  0  0
  162.5490  207.0260  149.0060 N   0  0  0  0  0  2  0  0  0  0  0  0
  161.0690  205.9400  150.5050 C   0  0  0  0  0  2  0  0  0  0  0  0
  161.1590  206.4440  147.1020 C   0  0  0  0  0  2  0  0  0  0  0  0
  162.2170  205.5810  145.0530 C   0  0  0  0  0  2  0  0  0  0  0  0
  161.0840  205.3680  146.0340 C   0  0  1  0  0  3  0  0  0  0  0  0
  162.3180  204.4910  146.1020 C   0  0  1  0  0  3  0  0  0  0  0  0
  162.0320  203.2580  145.5130 O   0  0  0  0  0  0  0  0  0  0  0  0
  160.6980  203.0090  145.8320 C   0  0  0  0  0  2  0  0  0  0  0  0
  160.9570  200.5300  145.8330 O   0  0  0  0  0  1  0  0  0  0  0  0
  160.3090  201.6600  145.3430 C   0  0  0  0  0  0  0  0  0  0  0  0
  159.3670  201.5400  144.5160 O   0  0  0  0  0  0  0  0  0  0  0  0
  161.3990  203.8990  149.4200 C   0  0  0  0  0  2  0  0  0  0  0  0
  160.3210  203.0700  150.1110 C   0  0  2  0  0  3  0  0  0  0  0  0
  160.7100  202.8360  151.5580 C   0  0  0  0  0  2  0  0  0  0  0  0
  161.8670  203.5550  151.8600 O   0  0  0  0  0  1  0  0  0  0  0  0
  160.1720  201.7320  149.4000 C   0  0  0  0  0  2  0  0  0  0  0  0
  161.4690  200.9520  149.4810 C   0  0  0  0  0  2  0  0  0  0  0  0
  162.1910  201.1270  148.3010 O   0  0  0  0  0  1  0  0  0  0  0  0
  161.7090  209.2460  150.0440 C   0  0  0  0  0  2  0  0  0  0  0  0
  161.6290  211.3940  149.9480 O   0  0  0  0  0  1  0  0  0  0  0  0
  162.4260  210.4120  150.3250 O   0  0  0  0  0  0  0  0  0  0  0  0
  1  2  1  0  0  0  0
  3  2  1  6  0  0  0
  3  4  1  0  0  0  0
  4  5  1  0  0  0  0
  5  6  1  0  0  0  0
  7  3  1  0  0  0  0
  8  7  1  0  0  0  0
  9 12  1  1  0  0  0
 10  8  1  6  0  0  0
 10  9  1  0  0  0  0
 11 17  1  6  0  0  0
 11 10  1  0  0  0  0
 11  9  1  0  0  0  0
 12 13  2  0  0  0  0
 12 14  1  0  0  0  0
 14 15  1  0  0  0  0
 16 14  1  0  0  0  0
 18 17  1  0  0  0  0
 19 18  1  0  0  0  0
 20 19  1  0  0  0  0
 21 20  1  0  0  0  0
 22 21  1  0  0  0  0
 24 25  1  0  0  0  0
 25 23  1  0  0  0  0
 25 22  1  0  0  0  0
 26 48  1  6  0  0  0
 26  1  1  0  0  0  0
 27 32  1  6  0  0  0
 27 30  1  0  0  0  0
 27 29  1  0  0  0  0
 28 31  1  0  0  0  0
 28 26  1  6  0  0  0
 29 41  1  0  0  0  0
 29 31  1  0  0  0  0
 30 28  1  0  0  0  0
 33 34  1  0  0  0  0
 33 35  1  0  0  0  0
 34 35  1  0  0  0  0
 34 32  1  1  0  0  0
 35 36  1  6  0  0  0
 36 37  1  0  0  0  0
 39 37  1  0  0  0  0
 39 38  1  0  0  0  0
 40 39  2  0  0  0  0
 41 42  1  0  0  0  0
 42 45  1  6  0  0  0
 42 43  1  0  0  0  0
 43 44  1  0  0  0  0
 45 46  1  0  0  0  0
 47 46  1  0  0  0  0
 48 50  1  0  0  0  0
 49 50  1  0  0  0  0
M  END
>  <MODEL>
1

>  <REMARK>
 VINA RESULT:      -4.9      0.000      0.000
  Name = 
  30 active torsions:
  status: ('A' for Active; 'I' for Inactive)
    1  A    between atoms: C_1  and  C_14
    2  A    between atoms: C_1  and  C_48
    3  A    between atoms: C_2  and  C_4
    4  A    between atoms: C_4  and  C_17
    5  A    between atoms: C_6  and  C_44
    6  A    between atoms: C_7  and  C_22
    7  A    between atoms: C_7  and  C_49
    8  A    between atoms: C_10  and  C_26
    9  A    between atoms: C_10  and  N_32
   10  A    between atoms: C_11  and  C_22
   11  A    between atoms: C_11  and  C_47
   12  A    between atoms: C_12  and  C_50
   13  A    between atoms: C_13  and  C_25
   14  A    between atoms: C_13  and  O_33
   15  A    between atoms: O_15  and  C_25
   16  A    between atoms: O_15  and  C_36
   17  A    between atoms: C_16  and  C_44
   18  A    between atoms: O_19  and  C_23
   19  A    between atoms: O_19  and  C_50
   20  A    between atoms: C_20  and  C_28
   21  A    between atoms: C_21  and  C_31
   22  A    between atoms: C_21  and  C_49
   23  A    between atoms: C_24  and  C_25
   24  A    between atoms: C_26  and  C_29
   25  A    between atoms: C_26  and  C_34
   26  A    between atoms: C_27  and  C_28
   27  A    between atoms: C_27  and  C_48
   28  A    between atoms: C_29  and  C_41
   29  A    between atoms: C_31  and  C_43
   30  A    between atoms: C_36  and  C_48
                            x       y       z     vdW  Elec       q    Type
                         _______ _______ _______ _____ _____    ______ ____

>  <TORSDO>
F 30

$$$$
=
 OpenBabel11072410393D

 50 52  0  0  1  0  0  0  0  0999 V2000
  161.9450  209.1090  153.0490 O   0  0  0  0  0  0  0  0  0  0  0  0
  160.7650  208.4180  153.3380 C   0  0  0  0  0  2  0  0  0  0  0  0
  161.0500  207.3010  154.3320 C   0  0  1  0  0  3  0  0  0  0  0  0
  160.0620  207.3440  155.5010 C   0  0  0  0  0  2  0  0  0  0  0  0
  160.7050  206.8970  156.8070 C   0  0  0  0  0  2  0  0  0  0  0  0
  161.7510  207.7520  157.1570 O   0  0  0  0  0  1  0  0  0  0  0  0
  161.0460  205.9470  153.6270 C   0  0  0  0  0  2  0  0  0  0  0  0
  161.8990  205.9490  152.3610 C   0  0  0  0  0  2  0  0  0  0  0  0
  161.5610  205.3460  149.9700 C   0  0  1  0  0  3  0  0  0  0  0  0
  160.9920  206.1140  151.1520 C   0  0  1  0  0  3  0  0  0  0  0  0
  160.3220  204.8220  150.6730 C   0  0  2  0  0  3  0  0  0  0  0  0
  161.1860  206.0170  148.6860 C   0  0  0  0  0  0  0  0  0  0  0  0
  160.0090  206.1060  148.3700 O   0  0  0  0  0  0  0  0  0  0  0  0
  162.2520  206.5180  147.7600 C   0  0  0  0  0  3  0  0  0  0  0  0
  161.7140  206.6630  146.3500 C   0  0  0  0  0  1  0  0  0  0  0  0
  162.7940  207.8420  148.2410 C   0  0  0  0  0  1  0  0  0  0  0  0
  160.6890  203.5640  151.4520 C   0  0  0  0  0  2  0  0  0  0  0  0
  161.5020  202.6320  150.5730 C   0  0  0  0  0  2  0  0  0  0  0  0
  161.0140  201.2030  150.7610 C   0  0  0  0  0  2  0  0  0  0  0  0
  160.6120  200.5970  149.4280 C   0  0  0  0  0  2  0  0  0  0  0  0
  161.3630  201.2700  148.2900 C   0  0  0  0  0  2  0  0  0  0  0  0
  160.5900  202.4950  147.8230 C   0  0  0  0  0  2  0  0  0  0  0  0
  162.0770  203.3150  145.9580 C   0  0  0  0  0  1  0  0  0  0  0  0
  160.4610  201.4620  145.5210 C   0  0  0  0  0  1  0  0  0  0  0  0
  160.7210  202.7310  146.3150 C   0  0  0  0  0  3  0  0  0  0  0  0
  161.7320  210.4010  153.5380 C   0  0  1  0  0  3  0  0  0  0  0  0
  159.6600  212.3760  151.3900 C   0  0  2  0  0  3  0  0  0  0  0  0
  160.3810  210.9300  153.0580 C   0  0  2  0  0  3  0  0  0  0  0  0
  159.4880  213.1030  152.6460 N   0  0  0  0  0  0  0  0  0  0  0  0
  160.4090  211.1470  151.6230 N   0  0  0  0  0  2  0  0  0  0  0  0
  160.0730  212.2720  153.6810 C   0  0  0  0  0  2  0  0  0  0  0  0
  160.4140  213.2440  150.3980 C   0  0  0  0  0  2  0  0  0  0  0  0
  160.2940  214.4520  148.2560 C   0  0  0  0  0  2  0  0  0  0  0  0
  159.5670  213.4810  149.1610 C   0  0  1  0  0  3  0  0  0  0  0  0
  160.2960  212.9700  147.9340 C   0  0  1  0  0  3  0  0  0  0  0  0
  159.3650  212.7180  146.9250 O   0  0  0  0  0  0  0  0  0  0  0  0
  160.0510  211.9430  145.9900 C   0  0  0  0  0  2  0  0  0  0  0  0
  160.4150  212.1050  143.5290 O   0  0  0  0  0  0  0  0  0  0  0  0
  159.5680  212.2660  144.6210 C   0  0  0  0  0  0  0  0  0  0  0  0
  158.3790  212.6460  144.4500 O   0  0  0  0  0  1  0  0  0  0  0  0
  158.0560  213.1630  152.9150 C   0  0  0  0  0  2  0  0  0  0  0  0
  157.8020  213.3540  154.4080 C   0  0  2  0  0  3  0  0  0  0  0  0
  156.3540  213.7410  154.6310 C   0  0  0  0  0  2  0  0  0  0  0  0
  155.8510  213.0760  155.7490 O   0  0  0  0  0  1  0  0  0  0  0  0
  158.7130  214.4510  154.9440 C   0  0  0  0  0  2  0  0  0  0  0  0
  159.1520  214.1180  156.3560 C   0  0  0  0  0  2  0  0  0  0  0  0
  159.4510  212.7590  156.4420 O   0  0  0  0  0  1  0  0  0  0  0  0
  161.7770  210.3650  155.0590 C   0  0  0  0  0  2  0  0  0  0  0  0
  162.8800  210.8910  156.8300 O   0  0  0  0  0  1  0  0  0  0  0  0
  162.9700  210.9320  155.5140 O   0  0  0  0  0  0  0  0  0  0  0  0
  1  2  1  0  0  0  0
  1 26  1  0  0  0  0
  3  2  1  6  0  0  0
  3  4  1  0  0  0  0
  4  5  1  0  0  0  0
  5  6  1  0  0  0  0
  7  3  1  0  0  0  0
  8  7  1  0  0  0  0
  9 12  1  6  0  0  0
  9 11  1  0  0  0  0
  9 10  1  0  0  0  0
 10  8  1  1  0  0  0
 11 10  1  0  0  0  0
 11 17  1  1  0  0  0
 13 12  2  0  0  0  0
 14 16  1  0  0  0  0
 14 12  1  0  0  0  0
 15 14  1  0  0  0  0
 18 19  1  0  0  0  0
 18 17  1  0  0  0  0
 20 19  1  0  0  0  0
 21 20  1  0  0  0  0
 22 21  1  0  0  0  0
 23 25  1  0  0  0  0
 24 25  1  0  0  0  0
 25 22  1  0  0  0  0
 26 48  1  1  0  0  0
 27 32  1  6  0  0  0
 27 30  1  0  0  0  0
 27 29  1  0  0  0  0
 28 26  1  1  0  0  0
 28 31  1  0  0  0  0
 29 41  1  0  0  0  0
 29 31  1  0  0  0  0
 30 28  1  0  0  0  0
 33 34  1  0  0  0  0
 34 32  1  1  0  0  0
 35 36  1  6  0  0  0
 35 33  1  0  0  0  0
 35 34  1  0  0  0  0
 37 36  1  0  0  0  0
 38 39  2  0  0  0  0
 39 37  1  0  0  0  0
 40 39  1  0  0  0  0
 42 41  1  6  0  0  0
 42 43  1  0  0  0  0
 42 45  1  0  0  0  0
 43 44  1  0  0  0  0
 45 46  1  0  0  0  0
 46 47  1  0  0  0  0
 48 50  1  0  0  0  0
 50 49  1  0  0  0  0
M  END
>  <MODEL>
2

>  <REMARK>
 VINA RESULT:      -4.7      2.645      9.451
  Name = 
  30 active torsions:
  status: ('A' for Active; 'I' for Inactive)
    1  A    between atoms: C_1  and  C_14
    2  A    between atoms: C_1  and  C_48
    3  A    between atoms: C_2  and  C_4
    4  A    between atoms: C_4  and  C_17
    5  A    between atoms: C_6  and  C_44
    6  A    between atoms: C_7  and  C_22
    7  A    between atoms: C_7  and  C_49
    8  A    between atoms: C_10  and  C_26
    9  A    between atoms: C_10  and  N_32
   10  A    between atoms: C_11  and  C_22
   11  A    between atoms: C_11  and  C_47
   12  A    between atoms: C_12  and  C_50
   13  A    between atoms: C_13  and  C_25
   14  A    between atoms: C_13  and  O_33
   15  A    between atoms: O_15  and  C_25
   16  A    between atoms: O_15  and  C_36
   17  A    between atoms: C_16  and  C_44
   18  A    between atoms: O_19  and  C_23
   19  A    between atoms: O_19  and  C_50
   20  A    between atoms: C_20  and  C_28
   21  A    between atoms: C_21  and  C_31
   22  A    between atoms: C_21  and  C_49
   23  A    between atoms: C_24  and  C_25
   24  A    between atoms: C_26  and  C_29
   25  A    between atoms: C_26  and  C_34
   26  A    between atoms: C_27  and  C_28
   27  A    between atoms: C_27  and  C_48
   28  A    between atoms: C_29  and  C_41
   29  A    between atoms: C_31  and  C_43
   30  A    between atoms: C_36  and  C_48
                            x       y       z     vdW  Elec       q    Type
                         _______ _______ _______ _____ _____    ______ ____

>  <TORSDO>
F 30

$$$$
=
 OpenBabel11072410393D

 50 52  0  0  1  0  0  0  0  0999 V2000
  161.3660  208.1590  151.5900 O   0  0  0  0  0  0  0  0  0  0  0  0
  161.7200  208.7750  152.7940 C   0  0  0  0  0  2  0  0  0  0  0  0
  160.6740  209.8140  153.1710 C   0  0  1  0  0  3  0  0  0  0  0  0
  160.9860  210.4330  154.5360 C   0  0  0  0  0  2  0  0  0  0  0  0
  161.5980  209.4200  155.4940 C   0  0  0  0  0  2  0  0  0  0  0  0
  160.6510  208.9920  156.4270 O   0  0  0  0  0  1  0  0  0  0  0  0
  160.5560  210.8720  152.0760 C   0  0  0  0  0  2  0  0  0  0  0  0
  160.0530  212.2100  152.6120 C   0  0  0  0  0  2  0  0  0  0  0  0
  158.0190  213.3460  153.4880 C   0  0  1  0  0  3  0  0  0  0  0  0
  158.5330  212.1920  152.6430 C   0  0  1  0  0  3  0  0  0  0  0  0
  157.8640  213.4000  151.9790 C   0  0  2  0  0  3  0  0  0  0  0  0
  156.7180  212.9790  154.1310 C   0  0  0  0  0  0  0  0  0  0  0  0
  155.6670  213.2810  153.5870 O   0  0  0  0  0  0  0  0  0  0  0  0
  156.7050  212.3030  155.4680 C   0  0  0  0  0  3  0  0  0  0  0  0
  156.0280  213.1770  156.5060 C   0  0  0  0  0  1  0  0  0  0  0  0
  156.0010  210.9710  155.3830 C   0  0  0  0  0  1  0  0  0  0  0  0
  158.8150  214.4530  151.4220 C   0  0  0  0  0  2  0  0  0  0  0  0
  158.7530  214.4530  149.9060 C   0  0  0  0  0  2  0  0  0  0  0  0
  159.7600  213.4520  149.3560 C   0  0  0  0  0  2  0  0  0  0  0  0
  160.9810  214.1690  148.8100 C   0  0  0  0  0  2  0  0  0  0  0  0
  161.8280  213.2170  147.9790 C   0  0  0  0  0  2  0  0  0  0  0  0
  162.1720  213.8700  146.6480 C   0  0  0  0  0  2  0  0  0  0  0  0
  161.4530  214.1550  144.2470 C   0  0  0  0  0  1  0  0  0  0  0  0
  160.2500  212.5260  145.7080 C   0  0  0  0  0  1  0  0  0  0  0  0
  160.9980  213.8480  145.6640 C   0  0  0  0  0  3  0  0  0  0  0  0
  161.0230  206.8520  151.9440 C   0  0  1  0  0  3  0  0  0  0  0  0
  161.0060  203.8540  149.9900 C   0  0  2  0  0  3  0  0  0  0  0  0
  160.6780  206.0410  150.6940 C   0  0  2  0  0  3  0  0  0  0  0  0
  161.9250  204.6670  149.1960 N   0  0  0  0  0  0  0  0  0  0  0  0
  160.4150  204.6590  151.0510 N   0  0  0  0  0  2  0  0  0  0  0  0
  161.8400  206.0140  149.7290 C   0  0  0  0  0  2  0  0  0  0  0  0
  161.7610  202.6870  150.6060 C   0  0  0  0  0  2  0  0  0  0  0  0
  159.7220  201.3160  150.4470 C   0  0  0  0  0  2  0  0  0  0  0  0
  161.1940  201.3730  150.1000 C   0  0  1  0  0  3  0  0  0  0  0  0
  160.1550  201.6400  149.0300 C   0  0  1  0  0  3  0  0  0  0  0  0
  160.0170  200.5010  148.2360 O   0  0  0  0  0  0  0  0  0  0  0  0
  161.1480  200.4940  147.4200 C   0  0  0  0  0  2  0  0  0  0  0  0
  160.9210  202.4160  145.8480 O   0  0  0  0  0  1  0  0  0  0  0  0
  160.8050  201.0490  146.0840 C   0  0  0  0  0  0  0  0  0  0  0  0
  160.4480  200.2750  145.1570 O   0  0  0  0  0  0  0  0  0  0  0  0
  161.3920  204.7180  147.8390 C   0  0  0  0  0  2  0  0  0  0  0  0
  162.0260  205.8660  147.0600 C   0  0  2  0  0  3  0  0  0  0  0  0
  160.9520  206.8500  146.6430 C   0  0  0  0  0  2  0  0  0  0  0  0
  159.7910  206.6290  147.3850 O   0  0  0  0  0  1  0  0  0  0  0  0
  162.7260  205.3180  145.8230 C   0  0  0  0  0  2  0  0  0  0  0  0
  161.9420  205.6830  144.5790 C   0  0  0  0  0  2  0  0  0  0  0  0
  161.0900  204.6320  144.2410 O   0  0  0  0  0  1  0  0  0  0  0  0
  162.1960  206.2180  152.6790 C   0  0  0  0  0  2  0  0  0  0  0  0
  160.4840  205.9050  153.9440 O   0  0  0  0  0  1  0  0  0  0  0  0
  161.8010  205.8320  153.9630 O   0  0  0  0  0  0  0  0  0  0  0  0
  1 26  1  0  0  0  0
  1  2  1  0  0  0  0
  2  3  1  0  0  0  0
  3  7  1  6  0  0  0
  3  4  1  0  0  0  0
  4  5  1  0  0  0  0
  5  6  1  0  0  0  0
  7  8  1  0  0  0  0
  9 12  1  1  0  0  0
 10  8  1  6  0  0  0
 10  9  1  0  0  0  0
 11 17  1  6  0  0  0
 11 10  1  0  0  0  0
 11  9  1  0  0  0  0
 12 14  1  0  0  0  0
 13 12  2  0  0  0  0
 14 15  1  0  0  0  0
 16 14  1  0  0  0  0
 18 17  1  0  0  0  0
 19 18  1  0  0  0  0
 20 19  1  0  0  0  0
 21 20  1  0  0  0  0
 22 21  1  0  0  0  0
 23 25  1  0  0  0  0
 25 24  1  0  0  0  0
 25 22  1  0  0  0  0
 26 48  1  6  0  0  0
 27 32  1  1  0  0  0
 27 30  1  0  0  0  0
 28 30  1  0  0  0  0
 28 26  1  1  0  0  0
 29 31  1  0  0  0  0
 29 27  1  0  0  0  0
 31 28  1  0  0  0  0
 34 33  1  0  0  0  0
 34 32  1  1  0  0  0
 35 36  1  6  0  0  0
 35 34  1  0  0  0  0
 35 33  1  0  0  0  0
 37 36  1  0  0  0  0
 38 39  1  0  0  0  0
 39 37  1  0  0  0  0
 40 39  2  0  0  0  0
 41 29  1  0  0  0  0
 42 45  1  6  0  0  0
 42 41  1  0  0  0  0
 43 42  1  0  0  0  0
 43 44  1  0  0  0  0
 46 45  1  0  0  0  0
 47 46  1  0  0  0  0
 48 50  1  0  0  0  0
 49 50  1  0  0  0  0
M  END
>  <MODEL>
3

>  <REMARK>
 VINA RESULT:      -4.3      1.702      3.557
  Name = 
  30 active torsions:
  status: ('A' for Active; 'I' for Inactive)
    1  A    between atoms: C_1  and  C_14
    2  A    between atoms: C_1  and  C_48
    3  A    between atoms: C_2  and  C_4
    4  A    between atoms: C_4  and  C_17
    5  A    between atoms: C_6  and  C_44
    6  A    between atoms: C_7  and  C_22
    7  A    between atoms: C_7  and  C_49
    8  A    between atoms: C_10  and  C_26
    9  A    between atoms: C_10  and  N_32
   10  A    between atoms: C_11  and  C_22
   11  A    between atoms: C_11  and  C_47
   12  A    between atoms: C_12  and  C_50
   13  A    between atoms: C_13  and  C_25
   14  A    between atoms: C_13  and  O_33
   15  A    between atoms: O_15  and  C_25
   16  A    between atoms: O_15  and  C_36
   17  A    between atoms: C_16  and  C_44
   18  A    between atoms: O_19  and  C_23
   19  A    between atoms: O_19  and  C_50
   20  A    between atoms: C_20  and  C_28
   21  A    between atoms: C_21  and  C_31
   22  A    between atoms: C_21  and  C_49
   23  A    between atoms: C_24  and  C_25
   24  A    between atoms: C_26  and  C_29
   25  A    between atoms: C_26  and  C_34
   26  A    between atoms: C_27  and  C_28
   27  A    between atoms: C_27  and  C_48
   28  A    between atoms: C_29  and  C_41
   29  A    between atoms: C_31  and  C_43
   30  A    between atoms: C_36  and  C_48
                            x       y       z     vdW  Elec       q    Type
                         _______ _______ _______ _____ _____    ______ ____

>  <TORSDO>
F 30

$$$$
=
 OpenBabel11072410393D

 50 52  0  0  1  0  0  0  0  0999 V2000
  161.1550  207.3870  152.2120 O   0  0  0  0  0  0  0  0  0  0  0  0
  161.5650  207.3570  153.5480 C   0  0  0  0  0  2  0  0  0  0  0  0
  160.8530  208.4500  154.3330 C   0  0  1  0  0  3  0  0  0  0  0  0
  161.1940  208.3640  155.8230 C   0  0  0  0  0  2  0  0  0  0  0  0
  159.9750  208.0150  156.6660 C   0  0  0  0  0  2  0  0  0  0  0  0
  159.8720  206.6320  156.8330 O   0  0  0  0  0  1  0  0  0  0  0  0
  161.1780  209.8220  153.7490 C   0  0  0  0  0  2  0  0  0  0  0  0
  159.9670  210.4720  153.0840 C   0  0  0  0  0  2  0  0  0  0  0  0
  159.4960  212.5650  154.3470 C   0  0  1  0  0  3  0  0  0  0  0  0
  159.0970  211.1110  154.1550 C   0  0  1  0  0  3  0  0  0  0  0  0
  158.1850  212.2360  153.6550 C   0  0  2  0  0  3  0  0  0  0  0  0
  159.2450  212.9910  155.7600 C   0  0  0  0  0  0  0  0  0  0  0  0
  158.5630  213.9800  155.9830 O   0  0  0  0  0  0  0  0  0  0  0  0
  159.8810  212.2450  156.8930 C   0  0  0  0  0  3  0  0  0  0  0  0
  159.0740  211.0100  157.2440 C   0  0  0  0  0  1  0  0  0  0  0  0
  161.2950  211.8500  156.5420 C   0  0  0  0  0  1  0  0  0  0  0  0
  158.3100  212.5720  152.1730 C   0  0  0  0  0  2  0  0  0  0  0  0
  158.9900  213.9180  152.0040 C   0  0  0  0  0  2  0  0  0  0  0  0
  159.0350  214.2820  150.5270 C   0  0  0  0  0  2  0  0  0  0  0  0
  160.1830  213.5680  149.8360 C   0  0  0  0  0  2  0  0  0  0  0  0
  159.9200  213.4610  148.3420 C   0  0  0  0  0  2  0  0  0  0  0  0
  160.9110  212.4900  147.7180 C   0  0  0  0  0  2  0  0  0  0  0  0
  163.4100  212.2330  147.4940 C   0  0  0  0  0  1  0  0  0  0  0  0
  162.1760  213.7070  145.9000 C   0  0  0  0  0  1  0  0  0  0  0  0
  162.2260  213.1690  147.3210 C   0  0  0  0  0  3  0  0  0  0  0  0
  162.2770  206.9830  151.4840 C   0  0  1  0  0  3  0  0  0  0  0  0
  161.2470  205.3810  148.4540 C   0  0  2  0  0  3  0  0  0  0  0  0
  161.9420  205.7540  150.6380 C   0  0  2  0  0  3  0  0  0  0  0  0
  160.0810  205.1100  149.2920 N   0  0  0  0  0  0  0  0  0  0  0  0
  162.3060  205.9870  149.2520 N   0  0  0  0  0  2  0  0  0  0  0  0
  160.4550  205.4830  150.6430 C   0  0  0  0  0  2  0  0  0  0  0  0
  160.8590  206.3290  147.3320 C   0  0  0  0  0  2  0  0  0  0  0  0
  160.8970  206.3390  144.8700 C   0  0  0  0  0  2  0  0  0  0  0  0
  160.4850  205.5420  146.0890 C   0  0  1  0  0  3  0  0  0  0  0  0
  161.7380  205.1610  145.3260 C   0  0  1  0  0  3  0  0  0  0  0  0
  161.4600  204.0580  144.5180 O   0  0  0  0  0  0  0  0  0  0  0  0
  161.0930  203.0470  145.4050 C   0  0  0  0  0  2  0  0  0  0  0  0
  158.9300  202.9010  144.1730 O   0  0  0  0  0  0  0  0  0  0  0  0
  159.9750  202.2550  144.8270 C   0  0  0  0  0  0  0  0  0  0  0  0
  159.9960  200.9970  144.8980 O   0  0  0  0  0  1  0  0  0  0  0  0
  159.8810  203.6650  149.2960 C   0  0  0  0  0  2  0  0  0  0  0  0
  161.1900  202.9480  149.6150 C   0  0  2  0  0  3  0  0  0  0  0  0
  161.6130  202.1120  148.4230 C   0  0  0  0  0  2  0  0  0  0  0  0
  160.7880  200.9940  148.3090 O   0  0  0  0  0  1  0  0  0  0  0  0
  160.9960  202.0470  150.8280 C   0  0  0  0  0  2  0  0  0  0  0  0
  161.6940  202.6430  152.0340 C   0  0  0  0  0  2  0  0  0  0  0  0
  160.7590  203.2890  152.8410 O   0  0  0  0  0  1  0  0  0  0  0  0
  162.7260  208.1330  150.5930 C   0  0  0  0  0  2  0  0  0  0  0  0
  162.1740  210.2010  150.8120 O   0  0  0  0  0  1  0  0  0  0  0  0
  161.6780  209.0420  150.4250 O   0  0  0  0  0  0  0  0  0  0  0  0
  1  2  1  0  0  0  0
  3  2  1  6  0  0  0
  3  4  1  0  0  0  0
  4  5  1  0  0  0  0
  5  6  1  0  0  0  0
  7  3  1  0  0  0  0
  8  7  1  0  0  0  0
  9 12  1  1  0  0  0
 10  8  1  6  0  0  0
 10  9  1  0  0  0  0
 11 17  1  6  0  0  0
 11 10  1  0  0  0  0
 11  9  1  0  0  0  0
 12 13  2  0  0  0  0
 12 14  1  0  0  0  0
 14 15  1  0  0  0  0
 16 14  1  0  0  0  0
 18 17  1  0  0  0  0
 19 18  1  0  0  0  0
 20 19  1  0  0  0  0
 21 20  1  0  0  0  0
 22 21  1  0  0  0  0
 24 25  1  0  0  0  0
 25 23  1  0  0  0  0
 25 22  1  0  0  0  0
 26 48  1  6  0  0  0
 26  1  1  0  0  0  0
 27 32  1  6  0  0  0
 27 30  1  0  0  0  0
 27 29  1  0  0  0  0
 28 31  1  0  0  0  0
 28 26  1  1  0  0  0
 29 41  1  0  0  0  0
 29 31  1  0  0  0  0
 30 28  1  0  0  0  0
 33 35  1  0  0  0  0
 33 34  1  0  0  0  0
 34 32  1  1  0  0  0
 35 36  1  6  0  0  0
 35 34  1  0  0  0  0
 36 37  1  0  0  0  0
 38 39  2  0  0  0  0
 39 40  1  0  0  0  0
 39 37  1  0  0  0  0
 41 42  1  0  0  0  0
 42 43  1  6  0  0  0
 42 45  1  0  0  0  0
 44 43  1  0  0  0  0
 45 46  1  0  0  0  0
 46 47  1  0  0  0  0
 50 48  1  0  0  0  0
 50 49  1  0  0  0  0
M  END
>  <MODEL>
4

>  <REMARK>
 VINA RESULT:      -4.0      1.289      1.912
  Name = 
  30 active torsions:
  status: ('A' for Active; 'I' for Inactive)
    1  A    between atoms: C_1  and  C_14
    2  A    between atoms: C_1  and  C_48
    3  A    between atoms: C_2  and  C_4
    4  A    between atoms: C_4  and  C_17
    5  A    between atoms: C_6  and  C_44
    6  A    between atoms: C_7  and  C_22
    7  A    between atoms: C_7  and  C_49
    8  A    between atoms: C_10  and  C_26
    9  A    between atoms: C_10  and  N_32
   10  A    between atoms: C_11  and  C_22
   11  A    between atoms: C_11  and  C_47
   12  A    between atoms: C_12  and  C_50
   13  A    between atoms: C_13  and  C_25
   14  A    between atoms: C_13  and  O_33
   15  A    between atoms: O_15  and  C_25
   16  A    between atoms: O_15  and  C_36
   17  A    between atoms: C_16  and  C_44
   18  A    between atoms: O_19  and  C_23
   19  A    between atoms: O_19  and  C_50
   20  A    between atoms: C_20  and  C_28
   21  A    between atoms: C_21  and  C_31
   22  A    between atoms: C_21  and  C_49
   23  A    between atoms: C_24  and  C_25
   24  A    between atoms: C_26  and  C_29
   25  A    between atoms: C_26  and  C_34
   26  A    between atoms: C_27  and  C_28
   27  A    between atoms: C_27  and  C_48
   28  A    between atoms: C_29  and  C_41
   29  A    between atoms: C_31  and  C_43
   30  A    between atoms: C_36  and  C_48
                            x       y       z     vdW  Elec       q    Type
                         _______ _______ _______ _____ _____    ______ ____

>  <TORSDO>
F 30

$$$$
=
 OpenBabel11072410393D

 50 52  0  0  1  0  0  0  0  0999 V2000
  162.5480  208.0020  149.6190 O   0  0  0  0  0  0  0  0  0  0  0  0
  162.2440  209.1000  148.8100 C   0  0  0  0  0  2  0  0  0  0  0  0
  161.8370  210.2840  149.6750 C   0  0  1  0  0  3  0  0  0  0  0  0
  162.4260  210.1600  151.0830 C   0  0  0  0  0  2  0  0  0  0  0  0
  161.3430  210.0020  152.1410 C   0  0  0  0  0  2  0  0  0  0  0  0
  161.7600  210.5480  153.3560 O   0  0  0  0  0  1  0  0  0  0  0  0
  162.2330  211.5960  149.0010 C   0  0  0  0  0  2  0  0  0  0  0  0
  161.0280  212.3450  148.4370 C   0  0  0  0  0  2  0  0  0  0  0  0
  160.4120  212.8710  146.0830 C   0  0  1  0  0  3  0  0  0  0  0  0
  161.4490  213.0810  147.1750 C   0  0  1  0  0  3  0  0  0  0  0  0
  160.5190  214.2260  146.7590 C   0  0  2  0  0  3  0  0  0  0  0  0
  161.0630  212.9100  144.7350 C   0  0  0  0  0  0  0  0  0  0  0  0
  162.2800  212.9800  144.6510 O   0  0  0  0  0  0  0  0  0  0  0  0
  160.2220  212.9310  143.4960 C   0  0  0  0  0  3  0  0  0  0  0  0
  159.0300  213.8520  143.6710 C   0  0  0  0  0  1  0  0  0  0  0  0
  161.0390  213.3710  142.3060 C   0  0  0  0  0  1  0  0  0  0  0  0
  159.2970  214.4330  147.6460 C   0  0  0  0  0  2  0  0  0  0  0  0
  158.0990  213.7210  147.0490 C   0  0  0  0  0  2  0  0  0  0  0  0
  156.8980  213.8860  147.9700 C   0  0  0  0  0  2  0  0  0  0  0  0
  157.0580  213.0310  149.2140 C   0  0  0  0  0  2  0  0  0  0  0  0
  156.9580  213.8890  150.4660 C   0  0  0  0  0  2  0  0  0  0  0  0
  158.1660  213.6350  151.3560 C   0  0  0  0  0  2  0  0  0  0  0  0
  158.9810  213.2490  153.7110 C   0  0  0  0  0  1  0  0  0  0  0  0
  156.7120  214.2220  153.3360 C   0  0  0  0  0  1  0  0  0  0  0  0
  157.7720  213.2780  152.7920 C   0  0  0  0  0  3  0  0  0  0  0  0
  161.3090  207.4500  149.9540 C   0  0  1  0  0  3  0  0  0  0  0  0
  160.5610  204.8970  147.5610 C   0  0  2  0  0  3  0  0  0  0  0  0
  160.6130  206.9180  148.7010 C   0  0  2  0  0  3  0  0  0  0  0  0
  161.3490  205.8020  146.7270 N   0  0  0  0  0  0  0  0  0  0  0  0
  160.3060  205.5090  148.8590 N   0  0  0  0  0  2  0  0  0  0  0  0
  161.5170  207.0210  147.4950 C   0  0  0  0  0  2  0  0  0  0  0  0
  161.3190  203.5960  147.7580 C   0  0  0  0  0  2  0  0  0  0  0  0
  160.6890  201.3250  148.4700 C   0  0  0  0  0  2  0  0  0  0  0  0
  160.6840  202.7840  148.8720 C   0  0  1  0  0  3  0  0  0  0  0  0
  161.7090  201.8390  149.4670 C   0  0  1  0  0  3  0  0  0  0  0  0
  161.3080  201.4880  150.7570 O   0  0  0  0  0  0  0  0  0  0  0  0
  161.8530  202.4720  151.5820 C   0  0  0  0  0  2  0  0  0  0  0  0
  159.7010  203.7020  151.3130 O   0  0  0  0  0  0  0  0  0  0  0  0
  160.7660  203.3270  152.1270 C   0  0  0  0  0  0  0  0  0  0  0  0
  160.7910  203.6770  153.3360 O   0  0  0  0  0  1  0  0  0  0  0  0
  160.5290  206.1450  145.5700 C   0  0  0  0  0  2  0  0  0  0  0  0
  160.8300  205.2040  144.4070 C   0  0  2  0  0  3  0  0  0  0  0  0
  161.2110  203.8390  144.9450 C   0  0  0  0  0  2  0  0  0  0  0  0
  160.2030  202.9180  144.6590 O   0  0  0  0  0  1  0  0  0  0  0  0
  161.9790  205.7670  143.5800 C   0  0  0  0  0  2  0  0  0  0  0  0
  161.6590  205.6570  142.1030 C   0  0  0  0  0  2  0  0  0  0  0  0
  161.8150  206.9030  141.4980 O   0  0  0  0  0  1  0  0  0  0  0  0
  161.5270  206.3250  150.9560 C   0  0  0  0  0  2  0  0  0  0  0  0
  162.5000  206.4110  152.8730 O   0  0  0  0  0  1  0  0  0  0  0  0
  162.7670  206.4780  151.5830 O   0  0  0  0  0  0  0  0  0  0  0  0
  1 26  1  0  0  0  0
  2  1  1  0  0  0  0
  3  2  1  6  0  0  0
  3  4  1  0  0  0  0
  4  5  1  0  0  0  0
  5  6  1  0  0  0  0
  7  3  1  0  0  0  0
  8  7  1  0  0  0  0
  9 12  1  6  0  0  0
  9 11  1  0  0  0  0
  9 10  1  0  0  0  0
 10  8  1  1  0  0  0
 11 10  1  0  0  0  0
 11 17  1  1  0  0  0
 13 12  2  0  0  0  0
 14 15  1  0  0  0  0
 14 12  1  0  0  0  0
 16 14  1  0  0  0  0
 18 17  1  0  0  0  0
 18 19  1  0  0  0  0
 19 20  1  0  0  0  0
 20 21  1  0  0  0  0
 21 22  1  0  0  0  0
 22 25  1  0  0  0  0
 25 24  1  0  0  0  0
 25 23  1  0  0  0  0
 26 48  1  1  0  0  0
 27 32  1  1  0  0  0
 27 30  1  0  0  0  0
 28 30  1  0  0  0  0
 28 26  1  1  0  0  0
 29 31  1  0  0  0  0
 29 27  1  0  0  0  0
 31 28  1  0  0  0  0
 33 34  1  0  0  0  0
 33 35  1  0  0  0  0
 34 32  1  6  0  0  0
 34 35  1  0  0  0  0
 35 36  1  1  0  0  0
 36 37  1  0  0  0  0
 37 39  1  0  0  0  0
 38 39  2  0  0  0  0
 39 40  1  0  0  0  0
 41 29  1  0  0  0  0
 42 45  1  1  0  0  0
 42 43  1  0  0  0  0
 42 41  1  0  0  0  0
 44 43  1  0  0  0  0
 46 45  1  0  0  0  0
 47 46  1  0  0  0  0
 48 50  1  0  0  0  0
 50 49  1  0  0  0  0
M  END
>  <MODEL>
5

>  <REMARK>
 VINA RESULT:      -3.2      2.209      6.598
  Name = 
  30 active torsions:
  status: ('A' for Active; 'I' for Inactive)
    1  A    between atoms: C_1  and  C_14
    2  A    between atoms: C_1  and  C_48
    3  A    between atoms: C_2  and  C_4
    4  A    between atoms: C_4  and  C_17
    5  A    between atoms: C_6  and  C_44
    6  A    between atoms: C_7  and  C_22
    7  A    between atoms: C_7  and  C_49
    8  A    between atoms: C_10  and  C_26
    9  A    between atoms: C_10  and  N_32
   10  A    between atoms: C_11  and  C_22
   11  A    between atoms: C_11  and  C_47
   12  A    between atoms: C_12  and  C_50
   13  A    between atoms: C_13  and  C_25
   14  A    between atoms: C_13  and  O_33
   15  A    between atoms: O_15  and  C_25
   16  A    between atoms: O_15  and  C_36
   17  A    between atoms: C_16  and  C_44
   18  A    between atoms: O_19  and  C_23
   19  A    between atoms: O_19  and  C_50
   20  A    between atoms: C_20  and  C_28
   21  A    between atoms: C_21  and  C_31
   22  A    between atoms: C_21  and  C_49
   23  A    between atoms: C_24  and  C_25
   24  A    between atoms: C_26  and  C_29
   25  A    between atoms: C_26  and  C_34
   26  A    between atoms: C_27  and  C_28
   27  A    between atoms: C_27  and  C_48
   28  A    between atoms: C_29  and  C_41
   29  A    between atoms: C_31  and  C_43
   30  A    between atoms: C_36  and  C_48
                            x       y       z     vdW  Elec       q    Type
                         _______ _______ _______ _____ _____    ______ ____

>  <TORSDO>
F 30

$$$$
=
 OpenBabel11072410393D

 50 52  0  0  1  0  0  0  0  0999 V2000
  160.5000  206.2650  152.8890 O   0  0  0  0  0  0  0  0  0  0  0  0
  160.4240  206.2140  151.4940 C   0  0  0  0  0  2  0  0  0  0  0  0
  161.6310  205.4730  150.9370 C   0  0  1  0  0  3  0  0  0  0  0  0
  161.2750  204.0230  150.5990 C   0  0  0  0  0  2  0  0  0  0  0  0
  161.2820  203.1330  151.8350 C   0  0  0  0  0  2  0  0  0  0  0  0
  161.6030  201.8190  151.4920 O   0  0  0  0  0  1  0  0  0  0  0  0
  162.2030  206.2180  149.7330 C   0  0  0  0  0  2  0  0  0  0  0  0
  161.4550  205.8960  148.4420 C   0  0  0  0  0  2  0  0  0  0  0  0
  160.7170  203.9180  147.1220 C   0  0  1  0  0  3  0  0  0  0  0  0
  161.8240  204.4900  147.9940 C   0  0  1  0  0  3  0  0  0  0  0  0
  162.0310  204.3320  146.4840 C   0  0  2  0  0  3  0  0  0  0  0  0
  160.6580  202.4300  147.2700 C   0  0  0  0  0  0  0  0  0  0  0  0
  160.3500  201.9390  148.3450 O   0  0  0  0  0  0  0  0  0  0  0  0
  161.0380  201.5460  146.1220 C   0  0  0  0  0  3  0  0  0  0  0  0
  161.2170  200.1120  146.5830 C   0  0  0  0  0  1  0  0  0  0  0  0
  159.9930  201.6060  145.0350 C   0  0  0  0  0  1  0  0  0  0  0  0
  161.8040  205.5910  145.6550 C   0  0  0  0  0  2  0  0  0  0  0  0
  161.3470  205.2130  144.2580 C   0  0  0  0  0  2  0  0  0  0  0  0
  162.2790  205.8420  143.2320 C   0  0  0  0  0  2  0  0  0  0  0  0
  161.5900  205.9550  141.8840 C   0  0  0  0  0  2  0  0  0  0  0  0
  162.2140  207.0710  141.0600 C   0  0  0  0  0  2  0  0  0  0  0  0
  161.4410  207.2380  139.7600 C   0  0  0  0  0  2  0  0  0  0  0  0
  162.3920  209.5510  140.0840 C   0  0  0  0  0  1  0  0  0  0  0  0
  162.0920  208.6540  137.7720 C   0  0  0  0  0  1  0  0  0  0  0  0
  161.5490  208.6560  139.1910 C   0  0  0  0  0  3  0  0  0  0  0  0
  161.2590  207.4050  153.1650 C   0  0  1  0  0  3  0  0  0  0  0  0
  161.2830  210.4150  151.2300 C   0  0  2  0  0  3  0  0  0  0  0  0
  160.5930  208.6410  152.5580 C   0  0  2  0  0  3  0  0  0  0  0  0
  161.0830  210.9750  152.5650 N   0  0  0  0  0  0  0  0  0  0  0  0
  161.2020  208.9600  151.2800 N   0  0  0  0  0  2  0  0  0  0  0  0
  160.7980  209.8520  153.4380 C   0  0  0  0  0  2  0  0  0  0  0  0
  162.6480  210.8250  150.7050 C   0  0  0  0  0  2  0  0  0  0  0  0
  161.8200  209.9000  148.5780 C   0  0  0  0  0  2  0  0  0  0  0  0
  162.5870  211.0450  149.2040 C   0  0  1  0  0  3  0  0  0  0  0  0
  161.1480  211.2460  148.7730 C   0  0  1  0  0  3  0  0  0  0  0  0
  161.1300  211.9300  147.5570 O   0  0  0  0  0  0  0  0  0  0  0  0
  161.1350  213.2800  147.9050 C   0  0  0  0  0  2  0  0  0  0  0  0
  162.0460  214.1840  145.7680 O   0  0  0  0  0  0  0  0  0  0  0  0
  162.1920  213.9920  147.1380 C   0  0  0  0  0  0  0  0  0  0  0  0
  163.1990  214.4520  147.7380 O   0  0  0  0  0  1  0  0  0  0  0  0
  159.8710  211.7850  152.5140 C   0  0  0  0  0  2  0  0  0  0  0  0
  159.4890  212.2590  153.9130 C   0  0  2  0  0  3  0  0  0  0  0  0
  158.6040  211.2220  154.5760 C   0  0  0  0  0  2  0  0  0  0  0  0
  157.9200  211.7950  155.6470 O   0  0  0  0  0  1  0  0  0  0  0  0
  158.7410  213.5830  153.8160 C   0  0  0  0  0  2  0  0  0  0  0  0
  157.6830  213.5040  152.7330 C   0  0  0  0  0  2  0  0  0  0  0  0
  156.4250  213.7140  153.2950 O   0  0  0  0  0  1  0  0  0  0  0  0
  161.3850  207.5590  154.6740 C   0  0  0  0  0  2  0  0  0  0  0  0
  159.6280  207.6180  155.9150 O   0  0  0  0  0  1  0  0  0  0  0  0
  160.4330  206.7620  155.3160 O   0  0  0  0  0  0  0  0  0  0  0  0
  1 26  1  0  0  0  0
  2  1  1  0  0  0  0
  3  7  1  6  0  0  0
  3  2  1  0  0  0  0
  4  3  1  0  0  0  0
  4  5  1  0  0  0  0
  6  5  1  0  0  0  0
  8  7  1  0  0  0  0
  9 12  1  1  0  0  0
  9 10  1  0  0  0  0
 10  8  1  6  0  0  0
 11 17  1  6  0  0  0
 11  9  1  0  0  0  0
 11 10  1  0  0  0  0
 12 13  2  0  0  0  0
 14 15  1  0  0  0  0
 14 12  1  0  0  0  0
 16 14  1  0  0  0  0
 18 17  1  0  0  0  0
 19 18  1  0  0  0  0
 20 19  1  0  0  0  0
 21 20  1  0  0  0  0
 22 21  1  0  0  0  0
 24 25  1  0  0  0  0
 25 22  1  0  0  0  0
 25 23  1  0  0  0  0
 26 48  1  1  0  0  0
 27 32  1  1  0  0  0
 27 30  1  0  0  0  0
 27 29  1  0  0  0  0
 28 26  1  1  0  0  0
 28 31  1  0  0  0  0
 29 31  1  0  0  0  0
 30 28  1  0  0  0  0
 33 35  1  0  0  0  0
 33 34  1  0  0  0  0
 34 32  1  1  0  0  0
 35 36  1  6  0  0  0
 35 34  1  0  0  0  0
 36 37  1  0  0  0  0
 38 39  2  0  0  0  0
 39 40  1  0  0  0  0
 39 37  1  0  0  0  0
 41 29  1  0  0  0  0
 42 41  1  6  0  0  0
 42 43  1  0  0  0  0
 43 44  1  0  0  0  0
 45 42  1  0  0  0  0
 46 47  1  0  0  0  0
 46 45  1  0  0  0  0
 48 50  1  0  0  0  0
 50 49  1  0  0  0  0
M  END
>  <MODEL>
6

>  <REMARK>
 VINA RESULT:      -3.0      2.767      9.688
  Name = 
  30 active torsions:
  status: ('A' for Active; 'I' for Inactive)
    1  A    between atoms: C_1  and  C_14
    2  A    between atoms: C_1  and  C_48
    3  A    between atoms: C_2  and  C_4
    4  A    between atoms: C_4  and  C_17
    5  A    between atoms: C_6  and  C_44
    6  A    between atoms: C_7  and  C_22
    7  A    between atoms: C_7  and  C_49
    8  A    between atoms: C_10  and  C_26
    9  A    between atoms: C_10  and  N_32
   10  A    between atoms: C_11  and  C_22
   11  A    between atoms: C_11  and  C_47
   12  A    between atoms: C_12  and  C_50
   13  A    between atoms: C_13  and  C_25
   14  A    between atoms: C_13  and  O_33
   15  A    between atoms: O_15  and  C_25
   16  A    between atoms: O_15  and  C_36
   17  A    between atoms: C_16  and  C_44
   18  A    between atoms: O_19  and  C_23
   19  A    between atoms: O_19  and  C_50
   20  A    between atoms: C_20  and  C_28
   21  A    between atoms: C_21  and  C_31
   22  A    between atoms: C_21  and  C_49
   23  A    between atoms: C_24  and  C_25
   24  A    between atoms: C_26  and  C_29
   25  A    between atoms: C_26  and  C_34
   26  A    between atoms: C_27  and  C_28
   27  A    between atoms: C_27  and  C_48
   28  A    between atoms: C_29  and  C_41
   29  A    between atoms: C_31  and  C_43
   30  A    between atoms: C_36  and  C_48
                            x       y       z     vdW  Elec       q    Type
                         _______ _______ _______ _____ _____    ______ ____

>  <TORSDO>
F 30

$$$$
=
 OpenBabel11072410393D

 50 52  0  0  1  0  0  0  0  0999 V2000
  161.8740  208.7170  152.7300 O   0  0  0  0  0  0  0  0  0  0  0  0
  160.8140  208.2980  153.5390 C   0  0  0  0  0  2  0  0  0  0  0  0
  161.2480  207.1110  154.3880 C   0  0  1  0  0  3  0  0  0  0  0  0
  160.7940  207.2820  155.8400 C   0  0  0  0  0  2  0  0  0  0  0  0
  161.7390  208.1780  156.6300 C   0  0  0  0  0  2  0  0  0  0  0  0
  161.2430  209.4820  156.6900 O   0  0  0  0  0  1  0  0  0  0  0  0
  160.7400  205.8070  153.7780 C   0  0  0  0  0  2  0  0  0  0  0  0
  160.8030  205.8160  152.2530 C   0  0  0  0  0  2  0  0  0  0  0  0
  160.6980  203.5610  151.2040 C   0  0  1  0  0  3  0  0  0  0  0  0
  161.6200  204.6220  151.7830 C   0  0  1  0  0  3  0  0  0  0  0  0
  161.5800  204.3730  150.2720 C   0  0  2  0  0  3  0  0  0  0  0  0
  161.2800  202.1980  151.4130 C   0  0  0  0  0  0  0  0  0  0  0  0
  162.1920  202.0450  152.2120 O   0  0  0  0  0  0  0  0  0  0  0  0
  160.7910  201.0390  150.6000 C   0  0  0  0  0  3  0  0  0  0  0  0
  159.4750  201.3740  149.9240 C   0  0  0  0  0  1  0  0  0  0  0  0
  161.8140  200.6490  149.5620 C   0  0  0  0  0  1  0  0  0  0  0  0
  160.7050  205.3300  149.4710 C   0  0  0  0  0  2  0  0  0  0  0  0
  160.3960  204.7320  148.1120 C   0  0  0  0  0  2  0  0  0  0  0  0
  161.4620  203.7060  147.7540 C   0  0  0  0  0  2  0  0  0  0  0  0
  161.0820  202.9620  146.4870 C   0  0  0  0  0  2  0  0  0  0  0  0
  160.6650  201.5360  146.8130 C   0  0  0  0  0  2  0  0  0  0  0  0
  160.5640  200.7270  145.5280 C   0  0  0  0  0  2  0  0  0  0  0  0
  161.3330  198.5720  144.4660 C   0  0  0  0  0  1  0  0  0  0  0  0
  161.8650  199.0230  146.8650 C   0  0  0  0  0  1  0  0  0  0  0  0
  160.8590  199.2400  145.7460 C   0  0  0  0  0  3  0  0  0  0  0  0
  161.6550  210.0820  152.5310 C   0  0  1  0  0  3  0  0  0  0  0  0
  161.7570  209.7130  148.9730 C   0  0  2  0  0  3  0  0  0  0  0  0
  161.1230  210.3300  151.1190 C   0  0  2  0  0  3  0  0  0  0  0  0
  162.0820  211.1330  149.0890 N   0  0  0  0  0  0  0  0  0  0  0  0
  161.3850  209.1770  150.2760 N   0  0  0  0  0  2  0  0  0  0  0  0
  161.8320  211.4960  150.4710 C   0  0  0  0  0  2  0  0  0  0  0  0
  162.9640  208.9560  148.4450 C   0  0  0  0  0  2  0  0  0  0  0  0
  161.1530  207.4410  147.7460 C   0  0  0  0  0  2  0  0  0  0  0  0
  162.5990  207.5060  148.1860 C   0  0  1  0  0  3  0  0  0  0  0  0
  162.2630  207.3140  146.7210 C   0  0  1  0  0  3  0  0  0  0  0  0
  162.4290  205.9680  146.3890 O   0  0  0  0  0  0  0  0  0  0  0  0
  162.6080  205.9600  145.0060 C   0  0  0  0  0  2  0  0  0  0  0  0
  161.2490  205.2170  143.0530 O   0  0  0  0  0  0  0  0  0  0  0  0
  161.2980  205.7620  144.3320 C   0  0  0  0  0  0  0  0  0  0  0  0
  160.2320  206.0520  144.9370 O   0  0  0  0  0  1  0  0  0  0  0  0
  161.1120  211.8630  148.2800 C   0  0  0  0  0  2  0  0  0  0  0  0
  161.8190  212.6310  147.1670 C   0  0  2  0  0  3  0  0  0  0  0  0
  162.2920  213.9710  147.6960 C   0  0  0  0  0  2  0  0  0  0  0  0
  163.5890  213.8530  148.1940 O   0  0  0  0  0  1  0  0  0  0  0  0
  160.8550  212.8510  146.0080 C   0  0  0  0  0  2  0  0  0  0  0  0
  159.4240  212.8130  146.5080 C   0  0  0  0  0  2  0  0  0  0  0  0
  158.5530  213.0230  145.4410 O   0  0  0  0  0  1  0  0  0  0  0  0
  160.6560  210.5770  153.5680 C   0  0  0  0  0  2  0  0  0  0  0  0
  158.7680  211.2850  152.8170 O   0  0  0  0  0  1  0  0  0  0  0  0
  159.9890  211.7060  153.0860 O   0  0  0  0  0  0  0  0  0  0  0  0
  1  2  1  0  0  0  0
  3  2  1  6  0  0  0
  3  4  1  0  0  0  0
  4  5  1  0  0  0  0
  5  6  1  0  0  0  0
  7  3  1  0  0  0  0
  8  7  1  0  0  0  0
  9 12  1  1  0  0  0
  9 10  1  0  0  0  0
 10  8  1  6  0  0  0
 11 17  1  6  0  0  0
 11  9  1  0  0  0  0
 11 10  1  0  0  0  0
 12 13  2  0  0  0  0
 14 12  1  0  0  0  0
 15 14  1  0  0  0  0
 16 14  1  0  0  0  0
 18 17  1  0  0  0  0
 19 18  1  0  0  0  0
 20 21  1  0  0  0  0
 20 19  1  0  0  0  0
 22 25  1  0  0  0  0
 22 21  1  0  0  0  0
 23 25  1  0  0  0  0
 25 24  1  0  0  0  0
 26  1  1  0  0  0  0
 26 48  1  1  0  0  0
 27 32  1  1  0  0  0
 27 29  1  0  0  0  0
 27 30  1  0  0  0  0
 28 26  1  1  0  0  0
 29 31  1  0  0  0  0
 30 28  1  0  0  0  0
 31 28  1  0  0  0  0
 33 34  1  0  0  0  0
 34 32  1  6  0  0  0
 35 36  1  1  0  0  0
 35 33  1  0  0  0  0
 35 34  1  0  0  0  0
 37 36  1  0  0  0  0
 38 39  2  0  0  0  0
 39 40  1  0  0  0  0
 39 37  1  0  0  0  0
 41 29  1  0  0  0  0
 42 45  1  6  0  0  0
 42 43  1  0  0  0  0
 42 41  1  0  0  0  0
 43 44  1  0  0  0  0
 45 46  1  0  0  0  0
 47 46  1  0  0  0  0
 49 50  1  0  0  0  0
 50 48  1  0  0  0  0
M  END
>  <MODEL>
7

>  <REMARK>
 VINA RESULT:      -2.0      2.636      8.609
  Name = 
  30 active torsions:
  status: ('A' for Active; 'I' for Inactive)
    1  A    between atoms: C_1  and  C_14
    2  A    between atoms: C_1  and  C_48
    3  A    between atoms: C_2  and  C_4
    4  A    between atoms: C_4  and  C_17
    5  A    between atoms: C_6  and  C_44
    6  A    between atoms: C_7  and  C_22
    7  A    between atoms: C_7  and  C_49
    8  A    between atoms: C_10  and  C_26
    9  A    between atoms: C_10  and  N_32
   10  A    between atoms: C_11  and  C_22
   11  A    between atoms: C_11  and  C_47
   12  A    between atoms: C_12  and  C_50
   13  A    between atoms: C_13  and  C_25
   14  A    between atoms: C_13  and  O_33
   15  A    between atoms: O_15  and  C_25
   16  A    between atoms: O_15  and  C_36
   17  A    between atoms: C_16  and  C_44
   18  A    between atoms: O_19  and  C_23
   19  A    between atoms: O_19  and  C_50
   20  A    between atoms: C_20  and  C_28
   21  A    between atoms: C_21  and  C_31
   22  A    between atoms: C_21  and  C_49
   23  A    between atoms: C_24  and  C_25
   24  A    between atoms: C_26  and  C_29
   25  A    between atoms: C_26  and  C_34
   26  A    between atoms: C_27  and  C_28
   27  A    between atoms: C_27  and  C_48
   28  A    between atoms: C_29  and  C_41
   29  A    between atoms: C_31  and  C_43
   30  A    between atoms: C_36  and  C_48
                            x       y       z     vdW  Elec       q    Type
                         _______ _______ _______ _____ _____    ______ ____

>  <TORSDO>
F 30

$$$$
