=
 OpenBabel11072413173D

 27 29  0  0  1  0  0  0  0  0999 V2000
  161.1940  205.9070  149.9270 C   0  0  0  0  0  3  0  0  0  0  0  0
  161.5920  208.3440  151.2850 C   0  0  0  0  0  0  0  0  0  0  0  0
  161.6340  207.0280  149.2230 C   0  0  0  0  0  0  0  0  0  0  0  0
  162.3230  209.3380  149.1780 O   0  0  0  0  0  1  0  0  0  0  0  0
  160.8850  207.2300  153.3440 O   0  0  0  0  0  1  0  0  0  0  0  0
  160.9600  205.9880  151.2980 C   0  0  0  0  0  3  0  0  0  0  0  0
  161.8460  208.2440  149.8960 C   0  0  0  0  0  0  0  0  0  0  0  0
  161.1520  207.1920  151.9800 C   0  0  0  0  0  0  0  0  0  0  0  0
  161.7620  209.6380  152.0000 C   0  0  0  0  0  0  0  0  0  0  0  0
  160.6410  210.2780  152.6110 N   0  0  0  0  0  2  0  0  0  0  0  0
  162.9000  210.1750  152.0810 O   0  0  0  0  0  0  0  0  0  0  0  0
  160.7690  211.4730  153.3370 N   0  0  0  0  0  0  0  0  0  0  0  0
  159.2590  213.6010  152.7620 O   0  0  0  0  0  1  0  0  0  0  0  0
  160.1370  212.0680  155.6110 C   0  0  0  0  0  2  0  0  0  0  0  0
  159.2020  212.2230  153.3790 P   0  0  2  0  0  0  0  0  0  0  0  0
  160.9560  211.1120  154.7350 C   0  0  0  0  0  2  0  0  0  0  0  0
  158.8840  212.3300  155.0300 O   0  0  0  0  0  0  0  0  0  0  0  0
  158.0280  211.2770  152.6110 O   0  0  0  0  0  0  0  0  0  0  0  0
  161.8400  206.9230  147.7460 C   0  0  0  0  0  2  0  0  0  0  0  0
  160.4790  205.7940  144.8830 C   0  0  0  0  0  3  0  0  0  0  0  0
  160.1690  206.3870  146.0920 O   0  0  0  0  0  0  0  0  0  0  0  0
  160.9400  205.8470  147.1520 C   0  0  1  0  0  3  0  0  0  0  0  0
  161.7970  204.7760  146.4780 C   0  0  2  0  0  3  0  0  0  0  0  0
  161.4040  204.8660  145.0400 C   0  0  0  0  0  3  0  0  0  0  0  0
  161.5860  203.1960  148.2480 O   0  0  0  0  0  1  0  0  0  0  0  0
  161.0720  202.3950  146.1630 O   0  0  0  0  0  0  0  0  0  0  0  0
  161.4670  203.4210  147.0160 C   0  0  0  0  0  0  0  0  0  0  0  0
  1  6  1  0  0  0  0
  2  8  1  0  0  0  0
  2  9  1  0  0  0  0
  3  7  1  0  0  0  0
  3  1  2  0  0  0  0
  4  7  1  0  0  0  0
  6  8  2  0  0  0  0
  7  2  2  0  0  0  0
  8  5  1  0  0  0  0
  9 11  2  0  0  0  0
  9 10  1  0  0  0  0
 10 12  1  0  0  0  0
 12 15  1  0  0  0  0
 12 16  1  0  0  0  0
 13 15  1  0  0  0  0
 15 18  2  6  0  0  0
 15 17  1  0  0  0  0
 16 14  1  0  0  0  0
 17 14  1  0  0  0  0
 19  3  1  0  0  0  0
 20 24  2  0  0  0  0
 20 21  1  0  0  0  0
 21 22  1  0  0  0  0
 22 19  1  6  0  0  0
 23 27  1  1  0  0  0
 23 22  1  0  0  0  0
 24 23  1  0  0  0  0
 26 27  2  0  0  0  0
 27 25  1  0  0  0  0
M  END
>  <MODEL>
1

>  <REMARK>
 VINA RESULT:      -8.0      0.000      0.000
  Name = 
  5 active torsions:
  status: ('A' for Active; 'I' for Inactive)
    1  A    between atoms: C_1  and  C_8
    2  A    between atoms: N_2  and  N_6
    3  A    between atoms: C_4  and  C_11
    4  A    between atoms: C_4  and  C_22
    5  A    between atoms: C_23  and  C_25
                            x       y       z     vdW  Elec       q    Type
                         _______ _______ _______ _____ _____    ______ ____

>  <TORSDO>
F 5

$$$$
=
 OpenBabel11072413173D

 27 29  0  0  1  0  0  0  0  0999 V2000
  160.8000  204.2130  149.1250 C   0  0  0  0  0  3  0  0  0  0  0  0
  161.4650  205.6090  151.4810 C   0  0  0  0  0  0  0  0  0  0  0  0
  161.3800  205.4790  149.0390 C   0  0  0  0  0  0  0  0  0  0  0  0
  162.3380  207.4210  150.0980 O   0  0  0  0  0  1  0  0  0  0  0  0
  160.6020  203.7120  152.7620 O   0  0  0  0  0  1  0  0  0  0  0  0
  160.5590  203.6360  150.3690 C   0  0  0  0  0  3  0  0  0  0  0  0
  161.7250  206.1760  150.2100 C   0  0  0  0  0  0  0  0  0  0  0  0
  160.8820  204.3200  151.5430 C   0  0  0  0  0  0  0  0  0  0  0  0
  161.7780  206.3570  152.7280 C   0  0  0  0  0  0  0  0  0  0  0  0
  160.9210  207.4120  153.1700 N   0  0  0  0  0  2  0  0  0  0  0  0
  162.7950  206.0600  153.4110 O   0  0  0  0  0  0  0  0  0  0  0  0
  161.1540  208.1080  154.3670 N   0  0  0  0  0  0  0  0  0  0  0  0
  161.9100  210.6710  154.3440 O   0  0  0  0  0  1  0  0  0  0  0  0
  159.6430  208.9270  156.0910 C   0  0  0  0  0  2  0  0  0  0  0  0
  160.7240  209.7690  154.0910 P   0  0  2  0  0  0  0  0  0  0  0  0
  160.1280  207.6960  155.3140 C   0  0  0  0  0  2  0  0  0  0  0  0
  159.5240  210.0400  155.2400 O   0  0  0  0  0  0  0  0  0  0  0  0
  160.1150  210.0130  152.5310 O   0  0  0  0  0  0  0  0  0  0  0  0
  161.5920  206.0900  147.6910 C   0  0  0  0  0  2  0  0  0  0  0  0
  160.8190  206.0300  144.4170 C   0  0  0  0  0  3  0  0  0  0  0  0
  160.2930  206.2850  145.6690 O   0  0  0  0  0  0  0  0  0  0  0  0
  160.7710  205.3630  146.6350 C   0  0  1  0  0  3  0  0  0  0  0  0
  161.6760  204.4270  145.8350 C   0  0  2  0  0  3  0  0  0  0  0  0
  161.6180  204.9810  144.4490 C   0  0  0  0  0  3  0  0  0  0  0  0
  161.4590  202.2570  146.7910 O   0  0  0  0  0  1  0  0  0  0  0  0
  160.3280  202.5700  144.8220 O   0  0  0  0  0  0  0  0  0  0  0  0
  161.1400  203.0320  145.8530 C   0  0  0  0  0  0  0  0  0  0  0  0
  1  6  1  0  0  0  0
  2  8  1  0  0  0  0
  2  9  1  0  0  0  0
  3  1  2  0  0  0  0
  3  7  1  0  0  0  0
  4  7  1  0  0  0  0
  6  8  2  0  0  0  0
  7  2  2  0  0  0  0
  8  5  1  0  0  0  0
  9 10  1  0  0  0  0
  9 11  2  0  0  0  0
 10 12  1  0  0  0  0
 12 16  1  0  0  0  0
 15 18  2  6  0  0  0
 15 13  1  0  0  0  0
 15 12  1  0  0  0  0
 15 17  1  0  0  0  0
 16 14  1  0  0  0  0
 17 14  1  0  0  0  0
 19  3  1  0  0  0  0
 20 24  2  0  0  0  0
 20 21  1  0  0  0  0
 21 22  1  0  0  0  0
 22 19  1  1  0  0  0
 23 27  1  6  0  0  0
 23 22  1  0  0  0  0
 24 23  1  0  0  0  0
 26 27  2  0  0  0  0
 27 25  1  0  0  0  0
M  END
>  <MODEL>
2

>  <REMARK>
 VINA RESULT:      -7.9      2.136      2.532
  Name = 
  5 active torsions:
  status: ('A' for Active; 'I' for Inactive)
    1  A    between atoms: C_1  and  C_8
    2  A    between atoms: N_2  and  N_6
    3  A    between atoms: C_4  and  C_11
    4  A    between atoms: C_4  and  C_22
    5  A    between atoms: C_23  and  C_25
                            x       y       z     vdW  Elec       q    Type
                         _______ _______ _______ _____ _____    ______ ____

>  <TORSDO>
F 5

$$$$
=
 OpenBabel11072413173D

 27 29  0  0  1  0  0  0  0  0999 V2000
  160.9120  204.8100  151.1310 C   0  0  0  0  0  3  0  0  0  0  0  0
  161.4740  207.4930  151.7840 C   0  0  0  0  0  0  0  0  0  0  0  0
  160.8850  205.7860  150.1340 C   0  0  0  0  0  0  0  0  0  0  0  0
  161.1810  208.0730  149.4310 O   0  0  0  0  0  1  0  0  0  0  0  0
  161.7870  206.7870  154.1050 O   0  0  0  0  0  1  0  0  0  0  0  0
  161.2240  205.1580  152.4430 C   0  0  0  0  0  3  0  0  0  0  0  0
  161.1760  207.1240  150.4510 C   0  0  0  0  0  0  0  0  0  0  0  0
  161.5020  206.4850  152.7780 C   0  0  0  0  0  0  0  0  0  0  0  0
  161.7330  208.9140  152.1420 C   0  0  0  0  0  0  0  0  0  0  0  0
  160.9320  209.5670  153.1290 N   0  0  0  0  0  2  0  0  0  0  0  0
  162.6690  209.5500  151.5870 O   0  0  0  0  0  0  0  0  0  0  0  0
  161.1760  210.8900  153.5300 N   0  0  0  0  0  0  0  0  0  0  0  0
  160.0020  212.9450  152.2880 O   0  0  0  0  0  0  0  0  0  0  0  0
  160.4960  212.1410  155.5050 C   0  0  0  0  0  2  0  0  0  0  0  0
  159.7240  211.7980  153.2320 P   0  0  2  0  0  0  0  0  0  0  0  0
  161.2300  210.8980  154.9850 C   0  0  0  0  0  2  0  0  0  0  0  0
  159.3260  212.3780  154.7620 O   0  0  0  0  0  0  0  0  0  0  0  0
  158.4810  210.8200  152.6280 O   0  0  0  0  0  1  0  0  0  0  0  0
  160.5090  205.3910  148.7420 C   0  0  0  0  0  2  0  0  0  0  0  0
  161.2260  202.4290  147.3160 C   0  0  0  0  0  3  0  0  0  0  0  0
  161.4770  203.2050  148.4310 O   0  0  0  0  0  0  0  0  0  0  0  0
  161.6190  204.5750  148.0940 C   0  0  1  0  0  3  0  0  0  0  0  0
  161.4560  204.6000  146.5750 C   0  0  2  0  0  3  0  0  0  0  0  0
  161.2010  203.1710  146.2250 C   0  0  0  0  0  3  0  0  0  0  0  0
  162.6490  205.9430  145.0110 O   0  0  0  0  0  0  0  0  0  0  0  0
  163.9450  204.5310  146.2680 O   0  0  0  0  0  1  0  0  0  0  0  0
  162.7120  205.0740  145.9180 C   0  0  0  0  0  0  0  0  0  0  0  0
  1  6  1  0  0  0  0
  2  9  1  0  0  0  0
  2  8  1  0  0  0  0
  3  7  1  0  0  0  0
  3  1  2  0  0  0  0
  4  7  1  0  0  0  0
  6  8  2  0  0  0  0
  7  2  2  0  0  0  0
  8  5  1  0  0  0  0
  9 10  1  0  0  0  0
 10 12  1  0  0  0  0
 11  9  2  0  0  0  0
 12 16  1  0  0  0  0
 15 13  2  6  0  0  0
 15 12  1  0  0  0  0
 15 17  1  0  0  0  0
 16 14  1  0  0  0  0
 17 14  1  0  0  0  0
 18 15  1  0  0  0  0
 19  3  1  0  0  0  0
 20 21  1  0  0  0  0
 22 21  1  0  0  0  0
 22 19  1  1  0  0  0
 23 27  1  6  0  0  0
 23 22  1  0  0  0  0
 24 23  1  0  0  0  0
 24 20  2  0  0  0  0
 25 27  2  0  0  0  0
 27 26  1  0  0  0  0
M  END
>  <MODEL>
3

>  <REMARK>
 VINA RESULT:      -7.9      1.302      1.991
  Name = 
  5 active torsions:
  status: ('A' for Active; 'I' for Inactive)
    1  A    between atoms: C_1  and  C_8
    2  A    between atoms: N_2  and  N_6
    3  A    between atoms: C_4  and  C_11
    4  A    between atoms: C_4  and  C_22
    5  A    between atoms: C_23  and  C_25
                            x       y       z     vdW  Elec       q    Type
                         _______ _______ _______ _____ _____    ______ ____

>  <TORSDO>
F 5

$$$$
=
 OpenBabel11072413173D

 27 29  0  0  1  0  0  0  0  0999 V2000
  160.8530  206.9380  153.0810 C   0  0  0  0  0  3  0  0  0  0  0  0
  161.5940  206.9090  150.3620 C   0  0  0  0  0  0  0  0  0  0  0  0
  160.9930  208.1410  152.3880 C   0  0  0  0  0  0  0  0  0  0  0  0
  161.4460  209.3460  150.3500 O   0  0  0  0  0  1  0  0  0  0  0  0
  161.6660  204.4680  150.4820 O   0  0  0  0  0  1  0  0  0  0  0  0
  161.0700  205.7260  152.4300 C   0  0  0  0  0  3  0  0  0  0  0  0
  161.3510  208.1340  151.0290 C   0  0  0  0  0  0  0  0  0  0  0  0
  161.4390  205.7010  151.0830 C   0  0  0  0  0  0  0  0  0  0  0  0
  162.0240  206.8900  148.9380 C   0  0  0  0  0  0  0  0  0  0  0  0
  161.2470  206.1960  147.9590 N   0  0  0  0  0  2  0  0  0  0  0  0
  163.0700  207.4950  148.5800 O   0  0  0  0  0  0  0  0  0  0  0  0
  161.5910  206.1960  146.5980 N   0  0  0  0  0  0  0  0  0  0  0  0
  163.5250  204.6040  145.6680 O   0  0  0  0  0  0  0  0  0  0  0  0
  160.4290  205.3610  144.6290 C   0  0  0  0  0  2  0  0  0  0  0  0
  162.1090  204.5860  146.1960 P   0  0  2  0  0  0  0  0  0  0  0  0
  160.3530  206.3000  145.8390 C   0  0  0  0  0  2  0  0  0  0  0  0
  161.0330  204.1400  144.9800 O   0  0  0  0  0  0  0  0  0  0  0  0
  161.9810  203.5340  147.5150 O   0  0  0  0  0  1  0  0  0  0  0  0
  160.7930  209.4280  153.1230 C   0  0  0  0  0  2  0  0  0  0  0  0
  161.5000  211.2190  155.8820 C   0  0  0  0  0  3  0  0  0  0  0  0
  162.0830  210.5370  154.8310 O   0  0  0  0  0  0  0  0  0  0  0  0
  161.3780  209.3450  154.5260 C   0  0  1  0  0  3  0  0  0  0  0  0
  160.2470  209.3120  155.5530 C   0  0  2  0  0  3  0  0  0  0  0  0
  160.4460  210.5690  156.3360 C   0  0  0  0  0  3  0  0  0  0  0  0
  161.3430  208.0620  157.2580 O   0  0  0  0  0  1  0  0  0  0  0  0
  159.4830  207.0640  156.3640 O   0  0  0  0  0  0  0  0  0  0  0  0
  160.3830  208.1230  156.4480 C   0  0  0  0  0  0  0  0  0  0  0  0
  2  7  2  0  0  0  0
  2  8  1  0  0  0  0
  3  1  2  0  0  0  0
  3 19  1  0  0  0  0
  4  7  1  0  0  0  0
  5  8  1  0  0  0  0
  6  1  1  0  0  0  0
  7  3  1  0  0  0  0
  8  6  2  0  0  0  0
  9  2  1  0  0  0  0
 10  9  1  0  0  0  0
 11  9  2  0  0  0  0
 12 10  1  0  0  0  0
 14 17  1  0  0  0  0
 14 16  1  0  0  0  0
 15 13  2  6  0  0  0
 15 12  1  0  0  0  0
 15 18  1  0  0  0  0
 16 12  1  0  0  0  0
 17 15  1  0  0  0  0
 20 24  2  0  0  0  0
 21 20  1  0  0  0  0
 22 19  1  6  0  0  0
 22 21  1  0  0  0  0
 22 23  1  0  0  0  0
 23 24  1  0  0  0  0
 23 27  1  1  0  0  0
 26 27  2  0  0  0  0
 27 25  1  0  0  0  0
M  END
>  <MODEL>
4

>  <REMARK>
 VINA RESULT:      -7.8      3.509      8.549
  Name = 
  5 active torsions:
  status: ('A' for Active; 'I' for Inactive)
    1  A    between atoms: C_1  and  C_8
    2  A    between atoms: N_2  and  N_6
    3  A    between atoms: C_4  and  C_11
    4  A    between atoms: C_4  and  C_22
    5  A    between atoms: C_23  and  C_25
                            x       y       z     vdW  Elec       q    Type
                         _______ _______ _______ _____ _____    ______ ____

>  <TORSDO>
F 5

$$$$
=
 OpenBabel11072413173D

 27 29  0  0  1  0  0  0  0  0999 V2000
  161.5000  205.3270  150.6870 C   0  0  0  0  0  3  0  0  0  0  0  0
  161.1380  207.7680  152.0480 C   0  0  0  0  0  0  0  0  0  0  0  0
  161.6890  206.5320  150.0100 C   0  0  0  0  0  0  0  0  0  0  0  0
  161.7530  208.9420  149.9980 O   0  0  0  0  0  1  0  0  0  0  0  0
  160.5810  206.4840  154.0540 O   0  0  0  0  0  1  0  0  0  0  0  0
  161.1430  205.3290  152.0340 C   0  0  0  0  0  3  0  0  0  0  0  0
  161.5210  207.7530  150.6850 C   0  0  0  0  0  0  0  0  0  0  0  0
  160.9580  206.5330  152.7160 C   0  0  0  0  0  0  0  0  0  0  0  0
  160.9070  209.0530  152.7610 C   0  0  0  0  0  0  0  0  0  0  0  0
  161.6020  209.3390  153.9760 N   0  0  0  0  0  2  0  0  0  0  0  0
  160.1050  209.9060  152.2920 O   0  0  0  0  0  0  0  0  0  0  0  0
  161.4490  210.5610  154.6520 N   0  0  0  0  0  0  0  0  0  0  0  0
  159.0490  211.3770  155.4960 O   0  0  0  0  0  0  0  0  0  0  0  0
  162.0970  211.2730  156.8880 C   0  0  0  0  0  2  0  0  0  0  0  0
  160.1390  210.3690  155.7780 P   0  0  2  0  0  0  0  0  0  0  0  0
  162.5860  210.7030  155.5500 C   0  0  0  0  0  2  0  0  0  0  0  0
  160.8710  210.6930  157.2600 O   0  0  0  0  0  0  0  0  0  0  0  0
  159.5140  208.7970  155.7570 O   0  0  0  0  0  1  0  0  0  0  0  0
  162.0340  206.5000  148.5560 C   0  0  0  0  0  2  0  0  0  0  0  0
  160.8020  205.8250  145.4980 C   0  0  0  0  0  3  0  0  0  0  0  0
  160.4640  206.3460  146.7330 O   0  0  0  0  0  0  0  0  0  0  0  0
  161.0610  205.6140  147.7900 C   0  0  1  0  0  3  0  0  0  0  0  0
  161.8300  204.5000  147.0800 C   0  0  2  0  0  3  0  0  0  0  0  0
  161.5820  204.7700  145.6320 C   0  0  0  0  0  3  0  0  0  0  0  0
  161.2700  202.8090  148.6610 O   0  0  0  0  0  1  0  0  0  0  0  0
  160.8250  202.2820  146.4750 O   0  0  0  0  0  0  0  0  0  0  0  0
  161.2820  203.1610  147.4530 C   0  0  0  0  0  0  0  0  0  0  0  0
  1  6  1  0  0  0  0
  2  8  1  0  0  0  0
  2  9  1  0  0  0  0
  3  7  1  0  0  0  0
  3  1  2  0  0  0  0
  4  7  1  0  0  0  0
  6  8  2  0  0  0  0
  7  2  2  0  0  0  0
  8  5  1  0  0  0  0
  9 10  1  0  0  0  0
 10 12  1  0  0  0  0
 11  9  2  0  0  0  0
 12 16  1  0  0  0  0
 12 15  1  0  0  0  0
 14 17  1  0  0  0  0
 15 13  2  6  0  0  0
 15 17  1  0  0  0  0
 16 14  1  0  0  0  0
 18 15  1  0  0  0  0
 19  3  1  0  0  0  0
 20 24  2  0  0  0  0
 20 21  1  0  0  0  0
 21 22  1  0  0  0  0
 22 19  1  6  0  0  0
 23 27  1  1  0  0  0
 23 22  1  0  0  0  0
 24 23  1  0  0  0  0
 26 27  2  0  0  0  0
 27 25  1  0  0  0  0
M  END
>  <MODEL>
5

>  <REMARK>
 VINA RESULT:      -7.8      1.589      1.832
  Name = 
  5 active torsions:
  status: ('A' for Active; 'I' for Inactive)
    1  A    between atoms: C_1  and  C_8
    2  A    between atoms: N_2  and  N_6
    3  A    between atoms: C_4  and  C_11
    4  A    between atoms: C_4  and  C_22
    5  A    between atoms: C_23  and  C_25
                            x       y       z     vdW  Elec       q    Type
                         _______ _______ _______ _____ _____    ______ ____

>  <TORSDO>
F 5

$$$$
=
 OpenBabel11072413173D

 27 29  0  0  1  0  0  0  0  0999 V2000
  161.5140  205.8270  152.1750 C   0  0  0  0  0  3  0  0  0  0  0  0
  161.1760  208.3190  153.4470 C   0  0  0  0  0  0  0  0  0  0  0  0
  161.6830  207.0050  151.4460 C   0  0  0  0  0  0  0  0  0  0  0  0
  161.7390  209.4130  151.3380 O   0  0  0  0  0  1  0  0  0  0  0  0
  160.6710  207.1130  155.5150 O   0  0  0  0  0  1  0  0  0  0  0  0
  161.1890  205.8810  153.5280 C   0  0  0  0  0  3  0  0  0  0  0  0
  161.5270  208.2510  152.0770 C   0  0  0  0  0  0  0  0  0  0  0  0
  161.0170  207.1100  154.1670 C   0  0  0  0  0  0  0  0  0  0  0  0
  160.9580  209.6300  154.1140 C   0  0  0  0  0  0  0  0  0  0  0  0
  159.6390  210.1650  154.2410 N   0  0  0  0  0  2  0  0  0  0  0  0
  161.9340  210.2760  154.5840 O   0  0  0  0  0  0  0  0  0  0  0  0
  159.3860  211.3740  154.9070 N   0  0  0  0  0  0  0  0  0  0  0  0
  159.2850  213.6870  153.5720 O   0  0  0  0  0  1  0  0  0  0  0  0
  157.3700  212.2740  155.9330 C   0  0  0  0  0  2  0  0  0  0  0  0
  158.5230  212.4030  153.8040 P   0  0  2  0  0  0  0  0  0  0  0  0
  158.3680  211.1090  155.9140 C   0  0  0  0  0  2  0  0  0  0  0  0
  157.0870  212.7110  154.6270 O   0  0  0  0  0  0  0  0  0  0  0  0
  158.2080  211.6260  152.3330 O   0  0  0  0  0  0  0  0  0  0  0  0
  161.9930  206.9170  149.9870 C   0  0  0  0  0  2  0  0  0  0  0  0
  160.7330  206.1510  146.9620 C   0  0  0  0  0  3  0  0  0  0  0  0
  160.4280  206.7730  148.1580 O   0  0  0  0  0  0  0  0  0  0  0  0
  160.9580  206.0640  149.2660 C   0  0  1  0  0  3  0  0  0  0  0  0
  161.6410  204.8510  148.6360 C   0  0  2  0  0  3  0  0  0  0  0  0
  161.4260  205.0480  147.1700 C   0  0  0  0  0  3  0  0  0  0  0  0
  160.4840  203.5200  150.2350 O   0  0  0  0  0  1  0  0  0  0  0  0
  160.9650  202.4650  148.2590 O   0  0  0  0  0  0  0  0  0  0  0  0
  160.9860  203.5850  149.0840 C   0  0  0  0  0  0  0  0  0  0  0  0
  1  6  1  0  0  0  0
  2  9  1  0  0  0  0
  2  8  1  0  0  0  0
  3  7  1  0  0  0  0
  3  1  2  0  0  0  0
  4  7  1  0  0  0  0
  6  8  2  0  0  0  0
  7  2  2  0  0  0  0
  8  5  1  0  0  0  0
  9 10  1  0  0  0  0
  9 11  2  0  0  0  0
 10 12  1  0  0  0  0
 12 16  1  0  0  0  0
 13 15  1  0  0  0  0
 15 18  2  6  0  0  0
 15 17  1  0  0  0  0
 15 12  1  0  0  0  0
 16 14  1  0  0  0  0
 17 14  1  0  0  0  0
 19  3  1  0  0  0  0
 20 24  2  0  0  0  0
 20 21  1  0  0  0  0
 21 22  1  0  0  0  0
 22 19  1  6  0  0  0
 23 27  1  1  0  0  0
 23 22  1  0  0  0  0
 24 23  1  0  0  0  0
 26 27  2  0  0  0  0
 27 25  1  0  0  0  0
M  END
>  <MODEL>
6

>  <REMARK>
 VINA RESULT:      -7.8      1.690      2.133
  Name = 
  5 active torsions:
  status: ('A' for Active; 'I' for Inactive)
    1  A    between atoms: C_1  and  C_8
    2  A    between atoms: N_2  and  N_6
    3  A    between atoms: C_4  and  C_11
    4  A    between atoms: C_4  and  C_22
    5  A    between atoms: C_23  and  C_25
                            x       y       z     vdW  Elec       q    Type
                         _______ _______ _______ _____ _____    ______ ____

>  <TORSDO>
F 5

$$$$
=
 OpenBabel11072413173D

 27 29  0  0  1  0  0  0  0  0999 V2000
  160.8320  205.8330  148.3870 C   0  0  0  0  0  3  0  0  0  0  0  0
  161.4290  206.3870  151.0850 C   0  0  0  0  0  0  0  0  0  0  0  0
  160.7910  204.8060  149.3300 C   0  0  0  0  0  0  0  0  0  0  0  0
  160.9900  204.0430  151.6080 O   0  0  0  0  0  1  0  0  0  0  0  0
  161.7990  208.7200  150.4500 O   0  0  0  0  0  1  0  0  0  0  0  0
  161.1580  207.1300  148.7770 C   0  0  0  0  0  3  0  0  0  0  0  0
  161.0760  205.0770  150.6790 C   0  0  0  0  0  0  0  0  0  0  0  0
  161.4580  207.4140  150.1110 C   0  0  0  0  0  0  0  0  0  0  0  0
  161.7830  206.6770  152.5000 C   0  0  0  0  0  0  0  0  0  0  0  0
  161.0100  207.6070  153.2620 N   0  0  0  0  0  2  0  0  0  0  0  0
  162.7620  206.0970  153.0440 O   0  0  0  0  0  0  0  0  0  0  0  0
  161.2810  207.8700  154.6140 N   0  0  0  0  0  0  0  0  0  0  0  0
  162.0010  210.3120  155.4240 O   0  0  0  0  0  1  0  0  0  0  0  0
  159.8290  208.0270  156.5620 C   0  0  0  0  0  2  0  0  0  0  0  0
  160.8180  209.5160  154.9240 P   0  0  2  0  0  0  0  0  0  0  0  0
  160.2990  207.1390  155.4020 C   0  0  0  0  0  2  0  0  0  0  0  0
  159.6610  209.3570  156.1370 O   0  0  0  0  0  0  0  0  0  0  0  0
  160.1440  210.2500  153.5560 O   0  0  0  0  0  0  0  0  0  0  0  0
  160.4760  203.4170  148.8760 C   0  0  0  0  0  2  0  0  0  0  0  0
  161.1230  200.9960  146.6300 C   0  0  0  0  0  3  0  0  0  0  0  0
  161.5730  201.5510  147.8120 O   0  0  0  0  0  0  0  0  0  0  0  0
  161.4580  202.9640  147.8040 C   0  0  1  0  0  3  0  0  0  0  0  0
  160.8900  203.2810  146.4210 C   0  0  2  0  0  3  0  0  0  0  0  0
  160.7190  201.9350  145.7960 C   0  0  0  0  0  3  0  0  0  0  0  0
  163.0020  204.3310  146.0950 O   0  0  0  0  0  1  0  0  0  0  0  0
  161.4940  204.6330  144.3960 O   0  0  0  0  0  0  0  0  0  0  0  0
  161.8590  204.0960  145.6270 C   0  0  0  0  0  0  0  0  0  0  0  0
  1  6  2  0  0  0  0
  1  3  1  0  0  0  0
  2  9  1  0  0  0  0
  3  7  2  0  0  0  0
  6  8  1  0  0  0  0
  7  2  1  0  0  0  0
  7  4  1  0  0  0  0
  8  5  1  0  0  0  0
  8  2  2  0  0  0  0
  9 11  2  0  0  0  0
  9 10  1  0  0  0  0
 10 12  1  0  0  0  0
 12 15  1  0  0  0  0
 12 16  1  0  0  0  0
 15 18  2  6  0  0  0
 15 13  1  0  0  0  0
 15 17  1  0  0  0  0
 16 14  1  0  0  0  0
 17 14  1  0  0  0  0
 19  3  1  0  0  0  0
 20 21  1  0  0  0  0
 22 21  1  0  0  0  0
 22 19  1  1  0  0  0
 23 27  1  6  0  0  0
 23 22  1  0  0  0  0
 24 23  1  0  0  0  0
 24 20  2  0  0  0  0
 26 27  2  0  0  0  0
 27 25  1  0  0  0  0
M  END
>  <MODEL>
7

>  <REMARK>
 VINA RESULT:      -7.7      2.343      3.499
  Name = 
  5 active torsions:
  status: ('A' for Active; 'I' for Inactive)
    1  A    between atoms: C_1  and  C_8
    2  A    between atoms: N_2  and  N_6
    3  A    between atoms: C_4  and  C_11
    4  A    between atoms: C_4  and  C_22
    5  A    between atoms: C_23  and  C_25
                            x       y       z     vdW  Elec       q    Type
                         _______ _______ _______ _____ _____    ______ ____

>  <TORSDO>
F 5

$$$$
=
 OpenBabel11072413173D

 27 29  0  0  1  0  0  0  0  0999 V2000
  161.0220  206.3720  148.8710 C   0  0  0  0  0  3  0  0  0  0  0  0
  161.5030  208.4940  150.6630 C   0  0  0  0  0  0  0  0  0  0  0  0
  160.8170  206.1840  150.2380 C   0  0  0  0  0  0  0  0  0  0  0  0
  160.7960  207.0400  152.4920 O   0  0  0  0  0  1  0  0  0  0  0  0
  162.1480  209.8700  148.7460 O   0  0  0  0  0  1  0  0  0  0  0  0
  161.4540  207.6060  148.3910 C   0  0  0  0  0  3  0  0  0  0  0  0
  161.0450  207.2410  151.1360 C   0  0  0  0  0  0  0  0  0  0  0  0
  161.6970  208.6630  149.2710 C   0  0  0  0  0  0  0  0  0  0  0  0
  161.7970  209.6050  151.6070 C   0  0  0  0  0  0  0  0  0  0  0  0
  160.7460  210.1950  152.3760 N   0  0  0  0  0  2  0  0  0  0  0  0
  162.9760  210.0270  151.7470 O   0  0  0  0  0  0  0  0  0  0  0  0
  160.9900  211.2100  153.3140 N   0  0  0  0  0  0  0  0  0  0  0  0
  159.5430  213.4570  153.3180 O   0  0  0  0  0  1  0  0  0  0  0  0
  160.5710  211.3440  155.7080 C   0  0  0  0  0  2  0  0  0  0  0  0
  159.4690  211.9840  153.6450 P   0  0  2  0  0  0  0  0  0  0  0  0
  161.2710  210.5640  154.5880 C   0  0  0  0  0  2  0  0  0  0  0  0
  159.2900  211.7590  155.3050 O   0  0  0  0  0  0  0  0  0  0  0  0
  158.1930  211.2530  152.8080 O   0  0  0  0  0  0  0  0  0  0  0  0
  160.3920  204.8380  150.7290 C   0  0  0  0  0  2  0  0  0  0  0  0
  161.2280  201.5910  151.0180 C   0  0  0  0  0  3  0  0  0  0  0  0
  161.6980  202.8730  151.2270 O   0  0  0  0  0  0  0  0  0  0  0  0
  161.3070  203.7500  150.1840 C   0  0  1  0  0  3  0  0  0  0  0  0
  160.5270  202.8550  149.2220 C   0  0  2  0  0  3  0  0  0  0  0  0
  160.5500  201.5190  149.8890 C   0  0  0  0  0  3  0  0  0  0  0  0
  162.0410  203.6700  147.5740 O   0  0  0  0  0  1  0  0  0  0  0  0
  160.9150  201.7590  147.0000 O   0  0  0  0  0  0  0  0  0  0  0  0
  161.2130  202.7790  147.8970 C   0  0  0  0  0  0  0  0  0  0  0  0
  1  3  1  0  0  0  0
  2  7  1  0  0  0  0
  2  9  1  0  0  0  0
  3 19  1  0  0  0  0
  3  7  2  0  0  0  0
  5  8  1  0  0  0  0
  6  1  2  0  0  0  0
  6  8  1  0  0  0  0
  7  4  1  0  0  0  0
  8  2  2  0  0  0  0
  9 11  2  0  0  0  0
  9 10  1  0  0  0  0
 10 12  1  0  0  0  0
 12 15  1  0  0  0  0
 12 16  1  0  0  0  0
 13 15  1  0  0  0  0
 15 18  2  6  0  0  0
 15 17  1  0  0  0  0
 16 14  1  0  0  0  0
 17 14  1  0  0  0  0
 20 21  1  0  0  0  0
 22 19  1  1  0  0  0
 22 21  1  0  0  0  0
 23 27  1  6  0  0  0
 23 24  1  0  0  0  0
 23 22  1  0  0  0  0
 24 20  2  0  0  0  0
 25 27  1  0  0  0  0
 26 27  2  0  0  0  0
M  END
>  <MODEL>
8

>  <REMARK>
 VINA RESULT:      -7.7      1.555      3.086
  Name = 
  5 active torsions:
  status: ('A' for Active; 'I' for Inactive)
    1  A    between atoms: C_1  and  C_8
    2  A    between atoms: N_2  and  N_6
    3  A    between atoms: C_4  and  C_11
    4  A    between atoms: C_4  and  C_22
    5  A    between atoms: C_23  and  C_25
                            x       y       z     vdW  Elec       q    Type
                         _______ _______ _______ _____ _____    ______ ____

>  <TORSDO>
F 5

$$$$
=
 OpenBabel11072413173D

 27 29  0  0  1  0  0  0  0  0999 V2000
  162.0580  206.8540  151.0760 C   0  0  0  0  0  3  0  0  0  0  0  0
  161.2910  208.7330  153.0320 C   0  0  0  0  0  0  0  0  0  0  0  0
  161.3980  206.4250  152.2270 C   0  0  0  0  0  0  0  0  0  0  0  0
  160.3100  206.9080  154.3240 O   0  0  0  0  0  1  0  0  0  0  0  0
  162.2680  210.4830  151.6310 O   0  0  0  0  0  1  0  0  0  0  0  0
  162.3300  208.2070  150.8880 C   0  0  0  0  0  3  0  0  0  0  0  0
  161.0020  207.3570  153.2020 C   0  0  0  0  0  0  0  0  0  0  0  0
  161.9560  209.1460  151.8520 C   0  0  0  0  0  0  0  0  0  0  0  0
  160.9240  209.7230  154.0790 C   0  0  0  0  0  0  0  0  0  0  0  0
  159.7170  210.4790  153.9650 N   0  0  0  0  0  2  0  0  0  0  0  0
  161.6690  209.8960  155.0810 O   0  0  0  0  0  0  0  0  0  0  0  0
  159.3100  211.3870  154.9560 N   0  0  0  0  0  0  0  0  0  0  0  0
  159.0580  213.9920  154.4170 O   0  0  0  0  0  1  0  0  0  0  0  0
  157.1610  211.7540  156.0400 C   0  0  0  0  0  2  0  0  0  0  0  0
  158.4130  212.6490  154.1660 P   0  0  2  0  0  0  0  0  0  0  0  0
  158.2680  210.7360  155.7370 C   0  0  0  0  0  2  0  0  0  0  0  0
  156.9100  212.5670  154.9200 O   0  0  0  0  0  0  0  0  0  0  0  0
  158.2580  212.3670  152.5040 O   0  0  0  0  0  0  0  0  0  0  0  0
  161.1540  204.9620  152.4210 C   0  0  0  0  0  2  0  0  0  0  0  0
  161.1860  201.9140  150.9950 C   0  0  0  0  0  3  0  0  0  0  0  0
  161.9890  202.8450  151.6260 O   0  0  0  0  0  0  0  0  0  0  0  0
  161.6690  204.1670  151.2280 C   0  0  1  0  0  3  0  0  0  0  0  0
  160.5460  203.9850  150.2080 C   0  0  2  0  0  3  0  0  0  0  0  0
  160.3400  202.5060  150.1730 C   0  0  0  0  0  3  0  0  0  0  0  0
  161.7750  203.7920  148.1770 O   0  0  0  0  0  0  0  0  0  0  0  0
  160.5230  205.7010  148.3780 O   0  0  0  0  0  1  0  0  0  0  0  0
  160.9720  204.4760  148.8620 C   0  0  0  0  0  0  0  0  0  0  0  0
  1  3  1  0  0  0  0
  2  7  1  0  0  0  0
  2  9  1  0  0  0  0
  3 19  1  0  0  0  0
  3  7  2  0  0  0  0
  5  8  1  0  0  0  0
  6  1  2  0  0  0  0
  6  8  1  0  0  0  0
  7  4  1  0  0  0  0
  8  2  2  0  0  0  0
  9 11  2  0  0  0  0
 10  9  1  0  0  0  0
 10 12  1  0  0  0  0
 12 16  1  0  0  0  0
 15 18  2  6  0  0  0
 15 13  1  0  0  0  0
 15 17  1  0  0  0  0
 15 12  1  0  0  0  0
 16 14  1  0  0  0  0
 17 14  1  0  0  0  0
 20 21  1  0  0  0  0
 22 21  1  0  0  0  0
 22 19  1  1  0  0  0
 23 27  1  6  0  0  0
 23 22  1  0  0  0  0
 24 23  1  0  0  0  0
 24 20  2  0  0  0  0
 25 27  2  0  0  0  0
 26 27  1  0  0  0  0
M  END
>  <MODEL>
9

>  <REMARK>
 VINA RESULT:      -7.5      2.052      3.639
  Name = 
  5 active torsions:
  status: ('A' for Active; 'I' for Inactive)
    1  A    between atoms: C_1  and  C_8
    2  A    between atoms: N_2  and  N_6
    3  A    between atoms: C_4  and  C_11
    4  A    between atoms: C_4  and  C_22
    5  A    between atoms: C_23  and  C_25
                            x       y       z     vdW  Elec       q    Type
                         _______ _______ _______ _____ _____    ______ ____

>  <TORSDO>
F 5

$$$$
