=
 OpenBabel11072411173D

 28 29  0  0  1  0  0  0  0  0999 V2000
  160.7890  207.1220  151.1810 C   0  0  2  0  0  3  0  0  0  0  0  0
  162.3900  203.8910  151.8670 O   0  0  0  0  0  0  0  0  0  0  0  0
  161.1780  204.9620  148.9430 N   0  0  2  0  0  0  0  0  0  0  0  0
  160.5270  202.7890  150.1330 C   0  0  0  0  0  1  0  0  0  0  0  0
  160.7190  204.3080  150.1880 C   0  0  1  0  0  3  0  0  0  0  0  0
  160.4050  206.2060  148.8510 C   0  0  0  0  0  2  0  0  0  0  0  0
  161.6120  204.7210  151.3250 C   0  0  0  0  0  0  0  0  0  0  0  0
  161.6420  206.0850  151.7570 N   0  0  0  0  0  2  0  0  0  0  0  0
  161.0380  207.3290  149.6790 C   0  0  2  0  0  3  0  0  0  0  0  0
  163.1440  204.8620  146.6300 C   0  0  2  0  0  3  0  0  0  0  0  0
  160.9770  204.1450  147.7210 C   0  0  1  0  0  3  0  0  0  0  0  0
  164.3570  204.4010  146.1220 O   0  0  0  0  0  1  0  0  0  0  0  0
  160.3220  206.6960  145.0420 O   0  0  0  0  0  1  0  0  0  0  0  0
  160.2170  204.8900  146.6010 C   0  0  0  0  0  2  0  0  0  0  0  0
  161.0310  206.0670  146.0640 C   0  0  1  0  0  3  0  0  0  0  0  0
  162.3290  203.6820  147.1560 C   0  0  0  0  0  2  0  0  0  0  0  0
  162.3720  205.5820  145.5300 C   0  0  0  0  0  2  0  0  0  0  0  0
  162.4590  207.4630  149.3800 N   0  0  0  0  0  2  0  0  0  0  0  0
  162.5750  208.3920  148.3390 N   0  0  0  0  0  2  0  0  0  0  0  0
  161.6370  209.4630  148.6320 C   0  0  0  0  0  2  0  0  0  0  0  0
  162.3860  210.6920  149.1160 C   0  0  0  0  0  2  0  0  0  0  0  0
  161.0120  212.0090  147.5050 O   0  0  0  0  0  0  0  0  0  0  0  0
  163.1940  212.5820  147.9090 O   0  0  0  0  0  1  0  0  0  0  0  0
  162.2240  211.8190  148.1550 C   0  0  0  0  0  0  0  0  0  0  0  0
  160.8870  208.4290  151.9710 C   0  0  0  0  0  2  0  0  0  0  0  0
  161.4210  208.2450  153.3870 C   0  0  0  0  0  3  0  0  0  0  0  0
  161.4910  209.5940  154.0710 C   0  0  0  0  0  1  0  0  0  0  0  0
  160.5050  207.3330  154.1790 C   0  0  0  0  0  1  0  0  0  0  0  0
  1  8  1  0  0  0  0
  1 25  1  1  0  0  0
  3  6  1  6  0  0  0
  3  5  1  0  0  0  0
  5  4  1  6  0  0  0
  5  7  1  0  0  0  0
  6  9  1  0  0  0  0
  7  8  1  0  0  0  0
  7  2  2  0  0  0  0
  9 18  1  1  0  0  0
  9  1  1  0  0  0  0
 10 12  1  6  0  0  0
 10 16  1  0  0  0  0
 11 14  1  6  0  0  0
 11  3  1  0  0  0  0
 15 13  1  6  0  0  0
 15 14  1  0  0  0  0
 16 11  1  0  0  0  0
 17 15  1  0  0  0  0
 17 10  1  0  0  0  0
 19 20  1  0  0  0  0
 19 18  1  0  0  0  0
 20 21  1  0  0  0  0
 22 24  2  0  0  0  0
 23 24  1  0  0  0  0
 24 21  1  0  0  0  0
 25 26  1  0  0  0  0
 26 27  1  0  0  0  0
 26 28  1  0  0  0  0
M  END
>  <MODEL>
1

>  <REMARK>
 VINA RESULT:      -5.8      0.000      0.000
  Name = 
  8 active torsions:
  status: ('A' for Active; 'I' for Inactive)
    1  A    between atoms: N_1  and  N_6
    2  A    between atoms: N_1  and  C_27
    3  A    between atoms: C_2  and  C_23
    4  A    between atoms: C_3  and  N_6
    5  A    between atoms: C_3  and  C_18
    6  A    between atoms: C_4  and  C_23
    7  A    between atoms: N_7  and  C_15
    8  A    between atoms: C_18  and  C_28
                            x       y       z     vdW  Elec       q    Type
                         _______ _______ _______ _____ _____    ______ ____

>  <TORSDO>
F 8

$$$$
=
 OpenBabel11072411173D

 28 29  0  0  1  0  0  0  0  0999 V2000
  161.8050  206.5650  153.4840 C   0  0  2  0  0  3  0  0  0  0  0  0
  159.0210  206.7650  155.8680 O   0  0  0  0  0  0  0  0  0  0  0  0
  160.7620  209.3100  154.5800 N   0  0  2  0  0  0  0  0  0  0  0  0
  160.4220  208.8320  157.0740 C   0  0  0  0  0  1  0  0  0  0  0  0
  160.8370  208.3320  155.6870 C   0  0  1  0  0  3  0  0  0  0  0  0
  161.9650  209.0760  153.7730 C   0  0  0  0  0  2  0  0  0  0  0  0
  160.0990  207.0810  155.2960 C   0  0  0  0  0  0  0  0  0  0  0  0
  160.5750  206.2730  154.2170 N   0  0  0  0  0  2  0  0  0  0  0  0
  161.7650  207.9290  152.7770 C   0  0  2  0  0  3  0  0  0  0  0  0
  158.1920  210.8960  154.9060 C   0  0  2  0  0  3  0  0  0  0  0  0
  160.7140  210.7240  155.0250 C   0  0  1  0  0  3  0  0  0  0  0  0
  157.0440  211.1550  155.6510 O   0  0  0  0  0  1  0  0  0  0  0  0
  159.6660  212.5940  151.9400 O   0  0  0  0  0  1  0  0  0  0  0  0
  160.7950  211.7390  153.8630 C   0  0  0  0  0  2  0  0  0  0  0  0
  159.5650  211.6490  152.9600 C   0  0  1  0  0  3  0  0  0  0  0  0
  159.4200  210.9960  155.8090 C   0  0  0  0  0  2  0  0  0  0  0  0
  158.2970  211.9020  153.7660 C   0  0  0  0  0  2  0  0  0  0  0  0
  160.5350  208.1060  152.0140 N   0  0  0  0  0  2  0  0  0  0  0  0
  160.8530  208.8950  150.9010 N   0  0  0  0  0  2  0  0  0  0  0  0
  161.9240  208.2090  150.1970 C   0  0  0  0  0  2  0  0  0  0  0  0
  161.7980  208.4440  148.7020 C   0  0  0  0  0  2  0  0  0  0  0  0
  160.3380  206.6090  147.8530 O   0  0  0  0  0  1  0  0  0  0  0  0
  162.6040  206.5400  147.5160 O   0  0  0  0  0  0  0  0  0  0  0  0
  161.6090  207.1520  147.9820 C   0  0  0  0  0  0  0  0  0  0  0  0
  162.1710  205.4260  152.5290 C   0  0  0  0  0  2  0  0  0  0  0  0
  160.9690  204.6090  152.0680 C   0  0  0  0  0  3  0  0  0  0  0  0
  160.7700  204.8120  150.5810 C   0  0  0  0  0  1  0  0  0  0  0  0
  161.2000  203.1360  152.3410 C   0  0  0  0  0  1  0  0  0  0  0  0
  1 25  1  6  0  0  0
  1  8  1  0  0  0  0
  3  6  1  6  0  0  0
  3 11  1  0  0  0  0
  3  5  1  0  0  0  0
  5  4  1  1  0  0  0
  7  5  1  0  0  0  0
  7  2  2  0  0  0  0
  8  7  1  0  0  0  0
  9 18  1  1  0  0  0
  9  1  1  0  0  0  0
  9  6  1  0  0  0  0
 10 12  1  1  0  0  0
 10 16  1  0  0  0  0
 11 14  1  6  0  0  0
 11 16  1  0  0  0  0
 15 13  1  6  0  0  0
 15 17  1  0  0  0  0
 15 14  1  0  0  0  0
 17 10  1  0  0  0  0
 19 18  1  0  0  0  0
 20 19  1  0  0  0  0
 21 20  1  0  0  0  0
 22 24  1  0  0  0  0
 23 24  2  0  0  0  0
 24 21  1  0  0  0  0
 26 28  1  0  0  0  0
 26 25  1  0  0  0  0
 27 26  1  0  0  0  0
M  END
>  <MODEL>
2

>  <REMARK>
 VINA RESULT:      -5.3      3.188      7.181
  Name = 
  8 active torsions:
  status: ('A' for Active; 'I' for Inactive)
    1  A    between atoms: N_1  and  N_6
    2  A    between atoms: N_1  and  C_27
    3  A    between atoms: C_2  and  C_23
    4  A    between atoms: C_3  and  N_6
    5  A    between atoms: C_3  and  C_18
    6  A    between atoms: C_4  and  C_23
    7  A    between atoms: N_7  and  C_15
    8  A    between atoms: C_18  and  C_28
                            x       y       z     vdW  Elec       q    Type
                         _______ _______ _______ _____ _____    ______ ____

>  <TORSDO>
F 8

$$$$
=
 OpenBabel11072411173D

 28 29  0  0  1  0  0  0  0  0999 V2000
  161.9630  206.6050  153.0670 C   0  0  2  0  0  3  0  0  0  0  0  0
  159.3780  206.7910  155.6660 O   0  0  0  0  0  0  0  0  0  0  0  0
  160.8930  209.3490  154.1390 N   0  0  2  0  0  0  0  0  0  0  0  0
  160.7800  208.9630  156.6690 C   0  0  0  0  0  1  0  0  0  0  0  0
  161.1020  208.4220  155.2730 C   0  0  1  0  0  3  0  0  0  0  0  0
  162.0350  209.1300  153.2430 C   0  0  0  0  0  2  0  0  0  0  0  0
  160.3900  207.1260  154.9940 C   0  0  0  0  0  0  0  0  0  0  0  0
  160.8120  206.2930  153.9100 N   0  0  0  0  0  2  0  0  0  0  0  0
  161.8060  207.9340  152.3130 C   0  0  2  0  0  3  0  0  0  0  0  0
  158.3000  210.7980  154.7700 C   0  0  2  0  0  3  0  0  0  0  0  0
  160.8190  210.7770  154.5320 C   0  0  1  0  0  3  0  0  0  0  0  0
  157.2540  211.0260  155.6620 O   0  0  0  0  0  1  0  0  0  0  0  0
  159.2290  212.4350  151.5590 O   0  0  0  0  0  1  0  0  0  0  0  0
  160.6700  211.7380  153.3310 C   0  0  0  0  0  2  0  0  0  0  0  0
  159.3330  211.5360  152.6180 C   0  0  1  0  0  3  0  0  0  0  0  0
  159.6340  211.0110  155.4820 C   0  0  0  0  0  2  0  0  0  0  0  0
  158.1790  211.7540  153.5880 C   0  0  0  0  0  2  0  0  0  0  0  0
  160.5110  208.0280  151.6490 N   0  0  0  0  0  2  0  0  0  0  0  0
  160.7360  207.8340  150.2810 N   0  0  0  0  0  2  0  0  0  0  0  0
  162.0690  208.3410  150.0030 C   0  0  0  0  0  2  0  0  0  0  0  0
  162.0690  209.1210  148.7000 C   0  0  0  0  0  2  0  0  0  0  0  0
  161.7620  211.4660  147.9080 O   0  0  0  0  0  0  0  0  0  0  0  0
  162.0500  211.0210  150.1380 O   0  0  0  0  0  1  0  0  0  0  0  0
  161.9510  210.5830  148.9640 C   0  0  0  0  0  0  0  0  0  0  0  0
  162.3000  205.4430  152.1290 C   0  0  0  0  0  2  0  0  0  0  0  0
  161.0790  204.6440  151.6870 C   0  0  0  0  0  3  0  0  0  0  0  0
  161.0380  204.5940  150.1750 C   0  0  0  0  0  1  0  0  0  0  0  0
  161.1530  203.2300  152.2290 C   0  0  0  0  0  1  0  0  0  0  0  0
  1 25  1  6  0  0  0
  1  8  1  0  0  0  0
  3  6  1  6  0  0  0
  3 11  1  0  0  0  0
  3  5  1  0  0  0  0
  5  4  1  1  0  0  0
  7  5  1  0  0  0  0
  7  2  2  0  0  0  0
  8  7  1  0  0  0  0
  9 18  1  1  0  0  0
  9  1  1  0  0  0  0
  9  6  1  0  0  0  0
 10 16  1  0  0  0  0
 10 12  1  1  0  0  0
 11 14  1  6  0  0  0
 11 16  1  0  0  0  0
 15 13  1  6  0  0  0
 15 14  1  0  0  0  0
 15 17  1  0  0  0  0
 17 10  1  0  0  0  0
 19 18  1  0  0  0  0
 20 19  1  0  0  0  0
 21 24  1  0  0  0  0
 21 20  1  0  0  0  0
 22 24  2  0  0  0  0
 24 23  1  0  0  0  0
 26 25  1  0  0  0  0
 26 28  1  0  0  0  0
 27 26  1  0  0  0  0
M  END
>  <MODEL>
3

>  <REMARK>
 VINA RESULT:      -5.3      3.079      6.791
  Name = 
  8 active torsions:
  status: ('A' for Active; 'I' for Inactive)
    1  A    between atoms: N_1  and  N_6
    2  A    between atoms: N_1  and  C_27
    3  A    between atoms: C_2  and  C_23
    4  A    between atoms: C_3  and  N_6
    5  A    between atoms: C_3  and  C_18
    6  A    between atoms: C_4  and  C_23
    7  A    between atoms: N_7  and  C_15
    8  A    between atoms: C_18  and  C_28
                            x       y       z     vdW  Elec       q    Type
                         _______ _______ _______ _____ _____    ______ ____

>  <TORSDO>
F 8

$$$$
=
 OpenBabel11072411173D

 28 29  0  0  1  0  0  0  0  0999 V2000
  161.1900  207.7240  150.8210 C   0  0  2  0  0  3  0  0  0  0  0  0
  163.1380  210.7030  151.7130 O   0  0  0  0  0  0  0  0  0  0  0  0
  160.8350  209.1640  153.5820 N   0  0  2  0  0  0  0  0  0  0  0  0
  160.8310  211.6420  152.9320 C   0  0  0  0  0  1  0  0  0  0  0  0
  160.9300  210.1740  152.5050 C   0  0  1  0  0  3  0  0  0  0  0  0
  160.0060  208.0850  153.0300 C   0  0  0  0  0  2  0  0  0  0  0  0
  162.1600  209.9090  151.6820 C   0  0  0  0  0  0  0  0  0  0  0  0
  162.2630  208.7110  150.9080 N   0  0  0  0  0  2  0  0  0  0  0  0
  160.8330  207.1120  152.1840 C   0  0  2  0  0  3  0  0  0  0  0  0
  162.4240  209.7160  156.1100 C   0  0  2  0  0  3  0  0  0  0  0  0
  160.2370  209.6750  154.8390 C   0  0  1  0  0  3  0  0  0  0  0  0
  163.3130  210.5410  156.7970 O   0  0  0  0  0  1  0  0  0  0  0  0
  160.4540  206.7470  157.1820 O   0  0  0  0  0  1  0  0  0  0  0  0
  159.7550  208.5570  155.7900 C   0  0  0  0  0  2  0  0  0  0  0  0
  160.9280  207.7260  156.3120 C   0  0  1  0  0  3  0  0  0  0  0  0
  161.2490  210.5470  155.5990 C   0  0  0  0  0  2  0  0  0  0  0  0
  161.9240  208.6190  157.0420 C   0  0  0  0  0  2  0  0  0  0  0  0
  162.0210  206.6690  152.9050 N   0  0  0  0  0  2  0  0  0  0  0  0
  161.8110  205.3310  153.2600 N   0  0  0  0  0  2  0  0  0  0  0  0
  161.9130  204.5550  152.0350 C   0  0  0  0  0  2  0  0  0  0  0  0
  160.8250  203.4950  151.9980 C   0  0  0  0  0  2  0  0  0  0  0  0
  161.2050  201.4460  150.6290 O   0  0  0  0  0  1  0  0  0  0  0  0
  160.5250  203.3970  149.6360 O   0  0  0  0  0  0  0  0  0  0  0  0
  160.8310  202.7820  150.6900 C   0  0  0  0  0  0  0  0  0  0  0  0
  161.4970  206.6560  149.7680 C   0  0  0  0  0  2  0  0  0  0  0  0
  161.3380  207.1510  148.3350 C   0  0  0  0  0  3  0  0  0  0  0  0
  162.7010  207.2210  147.6790 C   0  0  0  0  0  1  0  0  0  0  0  0
  160.4560  206.2030  147.5460 C   0  0  0  0  0  1  0  0  0  0  0  0
  1 25  1  6  0  0  0
  1  8  1  0  0  0  0
  1  9  1  0  0  0  0
  3  6  1  6  0  0  0
  3 11  1  0  0  0  0
  5  4  1  1  0  0  0
  5  3  1  0  0  0  0
  7  2  2  0  0  0  0
  7  5  1  0  0  0  0
  8  7  1  0  0  0  0
  9 18  1  1  0  0  0
  9  6  1  0  0  0  0
 10 12  1  1  0  0  0
 10 17  1  0  0  0  0
 11 16  1  1  0  0  0
 11 14  1  0  0  0  0
 14 15  1  0  0  0  0
 15 17  1  0  0  0  0
 15 13  1  1  0  0  0
 16 10  1  0  0  0  0
 18 19  1  0  0  0  0
 20 19  1  0  0  0  0
 21 20  1  0  0  0  0
 22 24  1  0  0  0  0
 23 24  2  0  0  0  0
 24 21  1  0  0  0  0
 26 25  1  0  0  0  0
 27 26  1  0  0  0  0
 28 26  1  0  0  0  0
M  END
>  <MODEL>
4

>  <REMARK>
 VINA RESULT:      -4.8      2.856      8.060
  Name = 
  8 active torsions:
  status: ('A' for Active; 'I' for Inactive)
    1  A    between atoms: N_1  and  N_6
    2  A    between atoms: N_1  and  C_27
    3  A    between atoms: C_2  and  C_23
    4  A    between atoms: C_3  and  N_6
    5  A    between atoms: C_3  and  C_18
    6  A    between atoms: C_4  and  C_23
    7  A    between atoms: N_7  and  C_15
    8  A    between atoms: C_18  and  C_28
                            x       y       z     vdW  Elec       q    Type
                         _______ _______ _______ _____ _____    ______ ____

>  <TORSDO>
F 8

$$$$
=
 OpenBabel11072411173D

 28 29  0  0  1  0  0  0  0  0999 V2000
  159.0710  210.7810  155.2990 C   0  0  2  0  0  3  0  0  0  0  0  0
  155.6040  211.6200  154.4320 O   0  0  0  0  0  0  0  0  0  0  0  0
  158.3830  213.0550  153.2550 N   0  0  2  0  0  0  0  0  0  0  0  0
  156.4310  214.2660  154.3910 C   0  0  0  0  0  1  0  0  0  0  0  0
  157.4680  213.1390  154.4150 C   0  0  1  0  0  3  0  0  0  0  0  0
  159.7000  212.7390  153.8210 C   0  0  0  0  0  2  0  0  0  0  0  0
  156.8340  211.7950  154.6460 C   0  0  0  0  0  0  0  0  0  0  0  0
  157.6360  210.6790  155.0420 N   0  0  0  0  0  2  0  0  0  0  0  0
  159.8650  211.2350  154.0640 C   0  0  2  0  0  3  0  0  0  0  0  0
  157.1440  213.3740  150.5000 C   0  0  2  0  0  3  0  0  0  0  0  0
  158.4580  214.3010  152.4530 C   0  0  1  0  0  3  0  0  0  0  0  0
  155.9980  213.5500  149.7270 O   0  0  0  0  0  1  0  0  0  0  0  0
  160.7610  213.4020  149.6250 O   0  0  0  0  0  1  0  0  0  0  0  0
  159.6970  214.3670  151.5330 C   0  0  0  0  0  2  0  0  0  0  0  0
  159.6400  213.2940  150.4460 C   0  0  1  0  0  3  0  0  0  0  0  0
  157.2030  214.4530  151.5790 C   0  0  0  0  0  2  0  0  0  0  0  0
  158.3780  213.4560  149.6080 C   0  0  0  0  0  2  0  0  0  0  0  0
  159.5030  210.4690  152.8770 N   0  0  0  0  0  2  0  0  0  0  0  0
  160.6920  210.1900  152.1910 N   0  0  0  0  0  2  0  0  0  0  0  0
  160.7700  208.7440  152.0660 C   0  0  0  0  0  2  0  0  0  0  0  0
  162.1130  208.3440  151.4820 C   0  0  0  0  0  2  0  0  0  0  0  0
  161.9930  206.9290  149.4310 O   0  0  0  0  0  1  0  0  0  0  0  0
  161.9940  209.2160  149.2670 O   0  0  0  0  0  0  0  0  0  0  0  0
  162.0200  208.1950  150.0020 C   0  0  0  0  0  0  0  0  0  0  0  0
  159.6230  209.4860  155.9000 C   0  0  0  0  0  2  0  0  0  0  0  0
  161.1420  209.4710  156.0190 C   0  0  0  0  0  3  0  0  0  0  0  0
  161.5600  210.3440  157.1830 C   0  0  0  0  0  1  0  0  0  0  0  0
  161.6360  208.0570  156.2580 C   0  0  0  0  0  1  0  0  0  0  0  0
  1 25  1  6  0  0  0
  2  7  2  0  0  0  0
  3  6  1  1  0  0  0
  3  5  1  0  0  0  0
  5  4  1  6  0  0  0
  5  7  1  0  0  0  0
  6  9  1  0  0  0  0
  7  8  1  0  0  0  0
  8  1  1  0  0  0  0
  9 18  1  6  0  0  0
  9  1  1  0  0  0  0
 10 12  1  6  0  0  0
 10 16  1  0  0  0  0
 11 14  1  6  0  0  0
 11  3  1  0  0  0  0
 15 13  1  6  0  0  0
 15 14  1  0  0  0  0
 16 11  1  0  0  0  0
 17 15  1  0  0  0  0
 17 10  1  0  0  0  0
 19 18  1  0  0  0  0
 20 19  1  0  0  0  0
 21 20  1  0  0  0  0
 22 24  1  0  0  0  0
 23 24  2  0  0  0  0
 24 21  1  0  0  0  0
 25 26  1  0  0  0  0
 26 28  1  0  0  0  0
 26 27  1  0  0  0  0
M  END
>  <MODEL>
5

>  <REMARK>
 VINA RESULT:      -4.7      4.732      8.148
  Name = 
  8 active torsions:
  status: ('A' for Active; 'I' for Inactive)
    1  A    between atoms: N_1  and  N_6
    2  A    between atoms: N_1  and  C_27
    3  A    between atoms: C_2  and  C_23
    4  A    between atoms: C_3  and  N_6
    5  A    between atoms: C_3  and  C_18
    6  A    between atoms: C_4  and  C_23
    7  A    between atoms: N_7  and  C_15
    8  A    between atoms: C_18  and  C_28
                            x       y       z     vdW  Elec       q    Type
                         _______ _______ _______ _____ _____    ______ ____

>  <TORSDO>
F 8

$$$$
=
 OpenBabel11072411173D

 28 29  0  0  1  0  0  0  0  0999 V2000
  160.3290  210.5310  152.2790 C   0  0  2  0  0  3  0  0  0  0  0  0
  160.2460  213.9070  150.8410 O   0  0  0  0  0  0  0  0  0  0  0  0
  158.3340  212.7170  153.3100 N   0  0  2  0  0  0  0  0  0  0  0  0
  157.4920  213.7860  151.1390 C   0  0  0  0  0  1  0  0  0  0  0  0
  158.3850  212.7510  151.8320 C   0  0  1  0  0  3  0  0  0  0  0  0
  158.3530  211.2940  153.6670 C   0  0  0  0  0  2  0  0  0  0  0  0
  159.8170  212.8540  151.3860 C   0  0  0  0  0  0  0  0  0  0  0  0
  160.7290  211.7830  151.6410 N   0  0  0  0  0  2  0  0  0  0  0  0
  159.7800  210.7370  153.6990 C   0  0  2  0  0  3  0  0  0  0  0  0
  158.1030  213.5570  156.2200 C   0  0  2  0  0  3  0  0  0  0  0  0
  157.1360  213.3730  153.8890 C   0  0  1  0  0  3  0  0  0  0  0  0
  158.4510  214.4530  157.2280 O   0  0  0  0  0  1  0  0  0  0  0  0
  155.6750  210.7370  156.1320 O   0  0  0  0  0  1  0  0  0  0  0  0
  156.0970  212.3750  154.4450 C   0  0  0  0  0  2  0  0  0  0  0  0
  156.6490  211.6080  155.6470 C   0  0  1  0  0  3  0  0  0  0  0  0
  157.5410  214.3250  155.0260 C   0  0  0  0  0  2  0  0  0  0  0  0
  157.0610  212.5760  156.7480 C   0  0  0  0  0  2  0  0  0  0  0  0
  160.6560  211.5850  154.5000 N   0  0  0  0  0  2  0  0  0  0  0  0
  160.6900  211.0390  155.7890 N   0  0  0  0  0  2  0  0  0  0  0  0
  161.9720  210.3680  155.9230 C   0  0  0  0  0  2  0  0  0  0  0  0
  161.8570  209.2160  156.9040 C   0  0  0  0  0  2  0  0  0  0  0  0
  159.9620  207.5950  156.8870 O   0  0  0  0  0  1  0  0  0  0  0  0
  161.5630  207.5270  155.2490 O   0  0  0  0  0  0  0  0  0  0  0  0
  161.1200  208.0750  156.2910 C   0  0  0  0  0  0  0  0  0  0  0  0
  161.4570  209.4970  152.2370 C   0  0  0  0  0  2  0  0  0  0  0  0
  161.1550  208.3040  151.3390 C   0  0  0  0  0  3  0  0  0  0  0  0
  162.2180  208.2080  150.2650 C   0  0  0  0  0  1  0  0  0  0  0  0
  161.1530  207.0230  152.1500 C   0  0  0  0  0  1  0  0  0  0  0  0
  1 25  1  1  0  0  0
  1  9  1  0  0  0  0
  2  7  2  0  0  0  0
  3  6  1  6  0  0  0
  3 11  1  0  0  0  0
  5  4  1  1  0  0  0
  5  3  1  0  0  0  0
  6  9  1  0  0  0  0
  7  8  1  0  0  0  0
  7  5  1  0  0  0  0
  8  1  1  0  0  0  0
  9 18  1  1  0  0  0
 10 17  1  0  0  0  0
 10 12  1  1  0  0  0
 11 14  1  1  0  0  0
 11 16  1  0  0  0  0
 14 15  1  0  0  0  0
 15 13  1  1  0  0  0
 15 17  1  0  0  0  0
 16 10  1  0  0  0  0
 18 19  1  0  0  0  0
 19 20  1  0  0  0  0
 20 21  1  0  0  0  0
 23 24  2  0  0  0  0
 24 22  1  0  0  0  0
 24 21  1  0  0  0  0
 26 28  1  0  0  0  0
 26 25  1  0  0  0  0
 27 26  1  0  0  0  0
M  END
>  <MODEL>
6

>  <REMARK>
 VINA RESULT:      -4.7      5.309      9.562
  Name = 
  8 active torsions:
  status: ('A' for Active; 'I' for Inactive)
    1  A    between atoms: N_1  and  N_6
    2  A    between atoms: N_1  and  C_27
    3  A    between atoms: C_2  and  C_23
    4  A    between atoms: C_3  and  N_6
    5  A    between atoms: C_3  and  C_18
    6  A    between atoms: C_4  and  C_23
    7  A    between atoms: N_7  and  C_15
    8  A    between atoms: C_18  and  C_28
                            x       y       z     vdW  Elec       q    Type
                         _______ _______ _______ _____ _____    ______ ____

>  <TORSDO>
F 8

$$$$
=
 OpenBabel11072411173D

 28 29  0  0  1  0  0  0  0  0999 V2000
  160.0760  210.4030  155.5760 C   0  0  2  0  0  3  0  0  0  0  0  0
  156.4540  210.9140  155.8840 O   0  0  0  0  0  0  0  0  0  0  0  0
  158.6350  212.8530  154.2550 N   0  0  2  0  0  0  0  0  0  0  0  0
  157.0220  213.6200  156.0920 C   0  0  0  0  0  1  0  0  0  0  0  0
  158.1040  212.6440  155.6200 C   0  0  1  0  0  3  0  0  0  0  0  0
  160.0810  212.6250  154.3610 C   0  0  0  0  0  2  0  0  0  0  0  0
  157.6740  211.2100  155.7720 C   0  0  0  0  0  0  0  0  0  0  0  0
  158.6430  210.1600  155.7180 N   0  0  0  0  0  2  0  0  0  0  0  0
  160.4280  211.1360  154.2720 C   0  0  2  0  0  3  0  0  0  0  0  0
  156.2160  213.5430  152.5520 C   0  0  2  0  0  3  0  0  0  0  0  0
  158.3700  214.2040  153.7030 C   0  0  1  0  0  3  0  0  0  0  0  0
  154.8490  213.8040  152.4820 O   0  0  0  0  0  1  0  0  0  0  0  0
  158.9250  213.7840  150.0120 O   0  0  0  0  0  1  0  0  0  0  0  0
  158.9940  214.4330  152.3090 C   0  0  0  0  0  2  0  0  0  0  0  0
  158.3520  213.5300  151.2560 C   0  0  1  0  0  3  0  0  0  0  0  0
  156.8570  214.4530  153.5970 C   0  0  0  0  0  2  0  0  0  0  0  0
  156.8510  213.7840  151.1870 C   0  0  0  0  0  2  0  0  0  0  0  0
  159.7900  210.5170  153.1160 N   0  0  0  0  0  2  0  0  0  0  0  0
  160.5820  210.8170  152.0000 N   0  0  0  0  0  2  0  0  0  0  0  0
  161.6870  209.8730  152.0090 C   0  0  0  0  0  2  0  0  0  0  0  0
  161.1950  208.4920  151.6150 C   0  0  0  0  0  2  0  0  0  0  0  0
  162.0050  209.1930  149.3630 O   0  0  0  0  0  0  0  0  0  0  0  0
  161.4910  206.9990  149.7810 O   0  0  0  0  0  1  0  0  0  0  0  0
  161.5790  208.1780  150.2100 C   0  0  0  0  0  0  0  0  0  0  0  0
  160.8820  209.1140  155.7540 C   0  0  0  0  0  2  0  0  0  0  0  0
  160.0210  207.8570  155.7820 C   0  0  0  0  0  3  0  0  0  0  0  0
  160.4690  206.9220  154.6780 C   0  0  0  0  0  1  0  0  0  0  0  0
  160.1640  207.1530  157.1170 C   0  0  0  0  0  1  0  0  0  0  0  0
  1  8  1  0  0  0  0
  1 25  1  6  0  0  0
  3  6  1  1  0  0  0
  3  5  1  0  0  0  0
  5  7  1  0  0  0  0
  5  4  1  6  0  0  0
  7  2  2  0  0  0  0
  8  7  1  0  0  0  0
  9 18  1  6  0  0  0
  9  6  1  0  0  0  0
  9  1  1  0  0  0  0
 10 12  1  6  0  0  0
 10 16  1  0  0  0  0
 11 14  1  6  0  0  0
 11  3  1  0  0  0  0
 15 13  1  6  0  0  0
 15 14  1  0  0  0  0
 16 11  1  0  0  0  0
 17 15  1  0  0  0  0
 17 10  1  0  0  0  0
 19 20  1  0  0  0  0
 19 18  1  0  0  0  0
 21 20  1  0  0  0  0
 22 24  2  0  0  0  0
 23 24  1  0  0  0  0
 24 21  1  0  0  0  0
 25 26  1  0  0  0  0
 26 28  1  0  0  0  0
 27 26  1  0  0  0  0
M  END
>  <MODEL>
7

>  <REMARK>
 VINA RESULT:      -4.7      4.984      8.539
  Name = 
  8 active torsions:
  status: ('A' for Active; 'I' for Inactive)
    1  A    between atoms: N_1  and  N_6
    2  A    between atoms: N_1  and  C_27
    3  A    between atoms: C_2  and  C_23
    4  A    between atoms: C_3  and  N_6
    5  A    between atoms: C_3  and  C_18
    6  A    between atoms: C_4  and  C_23
    7  A    between atoms: N_7  and  C_15
    8  A    between atoms: C_18  and  C_28
                            x       y       z     vdW  Elec       q    Type
                         _______ _______ _______ _____ _____    ______ ____

>  <TORSDO>
F 8

$$$$
=
 OpenBabel11072411173D

 28 29  0  0  1  0  0  0  0  0999 V2000
  161.8610  209.5390  152.8200 C   0  0  2  0  0  3  0  0  0  0  0  0
  160.2350  206.8740  154.7490 O   0  0  0  0  0  0  0  0  0  0  0  0
  160.2230  210.1470  155.4220 N   0  0  2  0  0  0  0  0  0  0  0  0
  160.9800  208.2880  157.0150 C   0  0  0  0  0  1  0  0  0  0  0  0
  161.0650  208.9500  155.6360 C   0  0  1  0  0  3  0  0  0  0  0  0
  161.0620  211.0820  154.6630 C   0  0  0  0  0  2  0  0  0  0  0  0
  160.8220  207.9660  154.5240 C   0  0  0  0  0  0  0  0  0  0  0  0
  161.1910  208.2930  153.1820 N   0  0  0  0  0  2  0  0  0  0  0  0
  161.0260  210.7830  153.1600 C   0  0  2  0  0  3  0  0  0  0  0  0
  157.5100  211.4790  155.7270 C   0  0  2  0  0  3  0  0  0  0  0  0
  159.7520  210.7860  156.6750 C   0  0  1  0  0  3  0  0  0  0  0  0
  156.1320  211.3440  155.8800 O   0  0  0  0  0  1  0  0  0  0  0  0
  159.7450  214.4520  155.8560 O   0  0  0  0  0  1  0  0  0  0  0  0
  160.1220  212.2820  156.7790 C   0  0  0  0  0  2  0  0  0  0  0  0
  159.4030  213.1090  155.7130 C   0  0  1  0  0  3  0  0  0  0  0  0
  158.2250  210.6610  156.8010 C   0  0  0  0  0  2  0  0  0  0  0  0
  157.8950  212.9500  155.8480 C   0  0  0  0  0  2  0  0  0  0  0  0
  159.6540  210.6600  152.6830 N   0  0  0  0  0  2  0  0  0  0  0  0
  159.1770  211.9590  152.4650 N   0  0  0  0  0  2  0  0  0  0  0  0
  160.0740  212.5740  151.5000 C   0  0  0  0  0  2  0  0  0  0  0  0
  159.4390  213.8270  150.9250 C   0  0  0  0  0  2  0  0  0  0  0  0
  157.3270  214.1560  152.2090 O   0  0  0  0  0  1  0  0  0  0  0  0
  157.2710  213.3240  150.0750 O   0  0  0  0  0  0  0  0  0  0  0  0
  157.9540  213.7620  151.0350 C   0  0  0  0  0  0  0  0  0  0  0  0
  162.3140  209.5260  151.3580 C   0  0  0  0  0  2  0  0  0  0  0  0
  161.8250  208.3110  150.5800 C   0  0  0  0  0  3  0  0  0  0  0  0
  161.9110  208.6010  149.0960 C   0  0  0  0  0  1  0  0  0  0  0  0
  162.6850  207.1030  150.8990 C   0  0  0  0  0  1  0  0  0  0  0  0
  1 25  1  6  0  0  0
  1  9  1  0  0  0  0
  1  8  1  0  0  0  0
  3  6  1  1  0  0  0
  3  5  1  0  0  0  0
  3 11  1  0  0  0  0
  5  4  1  1  0  0  0
  7  2  2  0  0  0  0
  7  5  1  0  0  0  0
  8  7  1  0  0  0  0
  9 18  1  1  0  0  0
  9  6  1  0  0  0  0
 10 17  1  0  0  0  0
 10 12  1  1  0  0  0
 10 16  1  0  0  0  0
 11 14  1  6  0  0  0
 11 16  1  0  0  0  0
 15 17  1  0  0  0  0
 15 13  1  1  0  0  0
 15 14  1  0  0  0  0
 19 18  1  0  0  0  0
 20 19  1  0  0  0  0
 21 24  1  0  0  0  0
 21 20  1  0  0  0  0
 23 24  2  0  0  0  0
 24 22  1  0  0  0  0
 26 28  1  0  0  0  0
 26 25  1  0  0  0  0
 27 26  1  0  0  0  0
M  END
>  <MODEL>
8

>  <REMARK>
 VINA RESULT:      -4.5      4.520      8.309
  Name = 
  8 active torsions:
  status: ('A' for Active; 'I' for Inactive)
    1  A    between atoms: N_1  and  N_6
    2  A    between atoms: N_1  and  C_27
    3  A    between atoms: C_2  and  C_23
    4  A    between atoms: C_3  and  N_6
    5  A    between atoms: C_3  and  C_18
    6  A    between atoms: C_4  and  C_23
    7  A    between atoms: N_7  and  C_15
    8  A    between atoms: C_18  and  C_28
                            x       y       z     vdW  Elec       q    Type
                         _______ _______ _______ _____ _____    ______ ____

>  <TORSDO>
F 8

$$$$
=
 OpenBabel11072411173D

 28 29  0  0  1  0  0  0  0  0999 V2000
  161.6170  209.8860  152.1050 C   0  0  2  0  0  3  0  0  0  0  0  0
  158.2420  211.2880  152.4470 O   0  0  0  0  0  0  0  0  0  0  0  0
  160.6370  212.2830  150.3390 N   0  0  2  0  0  0  0  0  0  0  0  0
  159.4100  213.7680  152.0290 C   0  0  0  0  0  1  0  0  0  0  0  0
  160.2020  212.4890  151.7380 C   0  0  1  0  0  3  0  0  0  0  0  0
  162.0000  211.7480  150.4320 C   0  0  0  0  0  2  0  0  0  0  0  0
  159.4810  211.2590  152.2210 C   0  0  0  0  0  0  0  0  0  0  0  0
  160.1850  210.0220  152.3580 N   0  0  0  0  0  2  0  0  0  0  0  0
  162.0000  210.2330  150.6580 C   0  0  2  0  0  3  0  0  0  0  0  0
  159.3250  212.4860  147.6070 C   0  0  2  0  0  3  0  0  0  0  0  0
  160.6270  213.5170  149.5160 C   0  0  1  0  0  3  0  0  0  0  0  0
  158.1560  212.5860  146.8570 O   0  0  0  0  0  1  0  0  0  0  0  0
  162.9170  212.6940  146.6530 O   0  0  0  0  0  1  0  0  0  0  0  0
  161.8420  213.6330  148.5680 C   0  0  0  0  0  2  0  0  0  0  0  0
  161.8200  212.5390  147.5000 C   0  0  1  0  0  3  0  0  0  0  0  0
  159.3490  213.5860  148.6660 C   0  0  0  0  0  2  0  0  0  0  0  0
  160.5340  212.6190  146.6880 C   0  0  0  0  0  2  0  0  0  0  0  0
  161.1370  209.5590  149.6950 N   0  0  0  0  0  2  0  0  0  0  0  0
  161.9580  209.1060  148.6550 N   0  0  0  0  0  2  0  0  0  0  0  0
  162.1820  207.6890  148.8890 C   0  0  0  0  0  2  0  0  0  0  0  0
  160.8790  206.9240  148.7400 C   0  0  0  0  0  2  0  0  0  0  0  0
  160.7300  206.4240  146.3020 O   0  0  0  0  0  0  0  0  0  0  0  0
  161.1950  204.7560  147.8030 O   0  0  0  0  0  1  0  0  0  0  0  0
  160.9550  205.9730  147.5960 C   0  0  0  0  0  0  0  0  0  0  0  0
  162.1310  208.5080  152.5280 C   0  0  0  0  0  2  0  0  0  0  0  0
  161.0220  207.5370  152.9140 C   0  0  0  0  0  3  0  0  0  0  0  0
  161.2840  206.1970  152.2580 C   0  0  0  0  0  1  0  0  0  0  0  0
  160.9840  207.3540  154.4180 C   0  0  0  0  0  1  0  0  0  0  0  0
  1  8  1  0  0  0  0
  1 25  1  6  0  0  0
  3  6  1  1  0  0  0
  3  5  1  0  0  0  0
  5  4  1  6  0  0  0
  5  7  1  0  0  0  0
  6  9  1  0  0  0  0
  7  8  1  0  0  0  0
  7  2  2  0  0  0  0
  9 18  1  6  0  0  0
  9  1  1  0  0  0  0
 10 12  1  6  0  0  0
 10 16  1  0  0  0  0
 11 14  1  6  0  0  0
 11  3  1  0  0  0  0
 15 13  1  6  0  0  0
 15 14  1  0  0  0  0
 16 11  1  0  0  0  0
 17 15  1  0  0  0  0
 17 10  1  0  0  0  0
 19 20  1  0  0  0  0
 19 18  1  0  0  0  0
 21 20  1  0  0  0  0
 22 24  2  0  0  0  0
 24 23  1  0  0  0  0
 24 21  1  0  0  0  0
 25 26  1  0  0  0  0
 26 28  1  0  0  0  0
 27 26  1  0  0  0  0
M  END
>  <MODEL>
9

>  <REMARK>
 VINA RESULT:      -4.5      2.748      6.630
  Name = 
  8 active torsions:
  status: ('A' for Active; 'I' for Inactive)
    1  A    between atoms: N_1  and  N_6
    2  A    between atoms: N_1  and  C_27
    3  A    between atoms: C_2  and  C_23
    4  A    between atoms: C_3  and  N_6
    5  A    between atoms: C_3  and  C_18
    6  A    between atoms: C_4  and  C_23
    7  A    between atoms: N_7  and  C_15
    8  A    between atoms: C_18  and  C_28
                            x       y       z     vdW  Elec       q    Type
                         _______ _______ _______ _____ _____    ______ ____

>  <TORSDO>
F 8

$$$$
