=
 OpenBabel11072410113D

 43 48  0  0  1  0  0  0  0  0999 V2000
  159.6620  213.1180  150.9670 C   0  0  0  0  0  3  0  0  0  0  0  0
  160.5450  212.0620  153.0840 C   0  0  0  0  0  2  0  0  0  0  0  0
  155.7900  213.8660  154.2330 C   0  0  0  0  0  3  0  0  0  0  0  0
  156.2300  214.3700  153.1080 N   0  0  0  0  0  0  0  0  0  0  0  0
  156.6750  211.4560  154.3450 C   0  0  0  0  0  2  0  0  0  0  0  0
  159.9870  210.6320  153.2860 C   0  0  1  0  0  3  0  0  0  0  0  0
  156.4500  212.7970  155.0770 C   0  0  1  0  0  3  0  0  0  0  0  0
  158.5820  210.5700  153.2090 O   0  0  0  0  0  0  0  0  0  0  0  0
  157.4420  214.0550  152.4050 C   0  0  0  0  0  0  0  0  0  0  0  0
  158.6320  213.8030  150.2980 C   0  0  0  0  0  0  0  0  0  0  0  0
  158.0800  210.8540  154.4860 C   0  0  0  0  0  2  0  0  0  0  0  0
  157.5140  214.2480  151.0200 C   0  0  0  0  0  3  0  0  0  0  0  0
  158.5170  213.4610  153.0550 C   0  0  0  0  0  3  0  0  0  0  0  0
  159.6020  212.9580  152.3520 C   0  0  0  0  0  0  0  0  0  0  0  0
  157.4380  212.9430  157.2530 O   0  0  0  0  0  1  0  0  0  0  0  0
  157.5980  213.3400  155.9250 C   0  0  0  0  0  2  0  0  0  0  0  0
  158.6690  213.9880  148.8800 N   0  0  0  0  0  2  0  0  0  0  0  0
  158.7140  213.2260  146.4240 C   0  0  1  0  0  0  0  0  0  0  0  0
  159.8840  212.9130  147.2380 N   0  0  0  0  0  2  0  0  0  0  0  0
  157.3760  213.0780  147.0770 C   0  0  2  0  0  3  0  0  0  0  0  0
  158.6790  212.1910  145.4920 O   0  0  0  0  0  1  0  0  0  0  0  0
  156.7110  214.4530  147.1050 C   0  0  0  0  0  1  0  0  0  0  0  0
  158.6060  212.8790  147.9300 C   0  0  1  0  0  0  0  0  0  0  0  0
  160.5490  209.7490  152.2770 N   0  0  0  0  0  2  0  0  0  0  0  0
  160.3860  208.3820  152.7460 C   0  0  0  0  0  2  0  0  0  0  0  0
  161.0960  207.4180  151.8020 C   0  0  2  0  0  3  0  0  0  0  0  0
  161.4940  206.1350  152.5270 C   0  0  0  0  0  2  0  0  0  0  0  0
  161.8320  204.9990  151.5680 C   0  0  0  0  0  2  0  0  0  0  0  0
  160.6800  204.7620  150.6080 C   0  0  0  0  0  2  0  0  0  0  0  0
  161.2030  202.4980  151.2040 O   0  0  0  0  0  1  0  0  0  0  0  0
  160.5700  203.2890  150.2430 C   0  0  2  0  0  3  0  0  0  0  0  0
  161.1740  203.0510  148.9010 C   0  0  0  0  0  0  0  0  0  0  0  0
  161.1800  201.8900  148.4040 O   0  0  0  0  0  0  0  0  0  0  0  0
  161.7670  204.1190  148.2260 O   0  0  0  0  0  0  0  0  0  0  0  0
  161.7870  205.5410  146.2050 C   0  0  0  0  0  2  0  0  0  0  0  0
  163.1130  204.7750  146.2100 C   0  0  0  0  0  2  0  0  0  0  0  0
  161.2080  203.1250  146.0400 N   0  0  0  0  0  1  0  0  0  0  0  0
  161.8720  204.1650  146.8080 C   0  0  0  0  0  0  0  0  0  0  0  0
  162.3130  208.0650  151.1470 C   0  0  0  0  0  2  0  0  0  0  0  0
  161.1540  207.6780  148.9850 C   0  0  0  0  0  2  0  0  0  0  0  0
  162.2710  208.6380  148.6270 C   0  0  2  0  0  3  0  0  0  0  0  0
  162.4780  207.5720  149.7110 C   0  0  1  0  0  3  0  0  0  0  0  0
  161.9330  210.0290  149.1480 C   0  0  0  0  0  1  0  0  0  0  0  0
  1 14  1  0  0  0  0
  2  6  1  0  0  0  0
  3  7  1  0  0  0  0
  4  3  2  0  0  0  0
  5 11  1  0  0  0  0
  5  7  1  0  0  0  0
  6 24  1  6  0  0  0
  7 16  1  6  0  0  0
  8  6  1  0  0  0  0
  8 11  1  0  0  0  0
  9 13  1  0  0  0  0
  9  4  1  0  0  0  0
 10  1  2  0  0  0  0
 10 12  1  0  0  0  0
 12  9  2  0  0  0  0
 14 13  2  0  0  0  0
 14  2  1  0  0  0  0
 16 15  1  0  0  0  0
 17 10  1  0  0  0  0
 18 21  1  6  0  0  0
 18 20  1  0  0  0  0
 18 19  1  0  0  0  0
 18 23  1  0  0  0  0
 19 23  1  0  0  0  0
 20 22  1  1  0  0  0
 20 23  1  0  0  0  0
 23 17  1  1  0  0  0
 24 25  1  0  0  0  0
 26 39  1  1  0  0  0
 26 27  1  0  0  0  0
 26 25  1  0  0  0  0
 28 27  1  0  0  0  0
 29 28  1  0  0  0  0
 31 29  1  0  0  0  0
 31 30  1  1  0  0  0
 32 31  1  0  0  0  0
 33 32  2  0  0  0  0
 34 32  1  0  0  0  0
 35 36  1  0  0  0  0
 35 38  1  0  0  0  0
 36 38  1  0  0  0  0
 37 38  1  0  0  0  0
 38 34  1  0  0  0  0
 40 42  1  0  0  0  0
 41 40  1  0  0  0  0
 41 43  1  1  0  0  0
 41 42  1  0  0  0  0
 42 39  1  1  0  0  0
M  END
>  <MODEL>
1

>  <REMARK>
 VINA RESULT:      -6.9      0.000      0.000
  Name = 
  15 active torsions:
  status: ('A' for Active; 'I' for Inactive)
    1  A    between atoms: C_2  and  C_34
    2  A    between atoms: C_2  and  C_37
    3  A    between atoms: C_3  and  C_24
    4  A    between atoms: C_3  and  C_37
    5  A    between atoms: C_6  and  C_14
    6  A    between atoms: C_6  and  C_34
    7  A    between atoms: N_12  and  C_30
    8  A    between atoms: N_12  and  C_38
    9  A    between atoms: N_13  and  C_19
   10  A    between atoms: N_13  and  C_21
   11  A    between atoms: C_14  and  C_26
   12  A    between atoms: C_20  and  C_33
   13  A    between atoms: C_21  and  C_37
   14  A    between atoms: O_22  and  C_26
   15  A    between atoms: O_22  and  C_43
                            x       y       z     vdW  Elec       q    Type
                         _______ _______ _______ _____ _____    ______ ____

>  <TORSDO>
F 15

$$$$
=
 OpenBabel11072410113D

 43 48  0  0  1  0  0  0  0  0999 V2000
  159.7950  212.9300  151.4250 C   0  0  0  0  0  3  0  0  0  0  0  0
  160.9570  211.4720  153.1280 C   0  0  0  0  0  2  0  0  0  0  0  0
  156.9030  213.6370  155.5900 C   0  0  0  0  0  3  0  0  0  0  0  0
  157.1540  214.2480  154.4600 N   0  0  0  0  0  0  0  0  0  0  0  0
  157.4180  211.1490  155.2030 C   0  0  0  0  0  2  0  0  0  0  0  0
  160.2490  210.1050  153.2900 C   0  0  1  0  0  3  0  0  0  0  0  0
  157.5660  212.3840  156.1190 C   0  0  1  0  0  3  0  0  0  0  0  0
  158.8690  210.2230  153.5460 O   0  0  0  0  0  0  0  0  0  0  0  0
  158.1180  213.8990  153.4550 C   0  0  0  0  0  0  0  0  0  0  0  0
  158.7570  213.8240  151.1080 C   0  0  0  0  0  0  0  0  0  0  0  0
  158.7120  210.3710  154.9310 C   0  0  0  0  0  2  0  0  0  0  0  0
  157.9080  214.2870  152.1250 C   0  0  0  0  0  3  0  0  0  0  0  0
  159.2080  213.0910  153.7530 C   0  0  0  0  0  3  0  0  0  0  0  0
  160.0210  212.5730  152.7550 C   0  0  0  0  0  0  0  0  0  0  0  0
  159.0170  213.9750  157.1650 O   0  0  0  0  0  1  0  0  0  0  0  0
  158.9420  212.6530  156.7240 C   0  0  0  0  0  2  0  0  0  0  0  0
  158.5060  214.2130  149.7540 N   0  0  0  0  0  2  0  0  0  0  0  0
  158.1900  213.8260  147.2330 C   0  0  1  0  0  0  0  0  0  0  0  0
  159.5560  213.7880  147.7430 N   0  0  0  0  0  2  0  0  0  0  0  0
  157.1330  213.1870  148.0780 C   0  0  2  0  0  3  0  0  0  0  0  0
  158.2260  212.9600  146.1410 O   0  0  0  0  0  1  0  0  0  0  0  0
  156.1400  214.2730  148.4900 C   0  0  0  0  0  1  0  0  0  0  0  0
  158.5330  213.2720  148.6370 C   0  0  1  0  0  0  0  0  0  0  0  0
  160.4340  209.3210  152.0780 N   0  0  0  0  0  2  0  0  0  0  0  0
  160.7420  207.9570  152.4770 C   0  0  0  0  0  2  0  0  0  0  0  0
  162.0720  207.5240  151.8730 C   0  0  2  0  0  3  0  0  0  0  0  0
  162.2690  208.1320  150.4860 C   0  0  0  0  0  2  0  0  0  0  0  0
  161.4260  207.4440  149.4190 C   0  0  0  0  0  2  0  0  0  0  0  0
  162.2700  207.1560  148.1890 C   0  0  0  0  0  2  0  0  0  0  0  0
  160.1920  206.1210  147.5860 O   0  0  0  0  0  1  0  0  0  0  0  0
  161.5390  206.2210  147.2350 C   0  0  2  0  0  3  0  0  0  0  0  0
  162.1790  204.8750  147.2530 C   0  0  0  0  0  0  0  0  0  0  0  0
  163.1250  204.6110  146.4600 O   0  0  0  0  0  0  0  0  0  0  0  0
  161.6870  203.9030  148.1260 O   0  0  0  0  0  0  0  0  0  0  0  0
  161.5600  201.4540  148.4340 C   0  0  0  0  0  2  0  0  0  0  0  0
  160.1270  201.9820  148.5540 C   0  0  0  0  0  2  0  0  0  0  0  0
  160.9960  202.4780  146.2360 N   0  0  0  0  0  1  0  0  0  0  0  0
  161.1290  202.6770  147.6690 C   0  0  0  0  0  0  0  0  0  0  0  0
  162.1980  206.0050  151.8180 C   0  0  0  0  0  2  0  0  0  0  0  0
  160.2210  204.6810  151.1060 C   0  0  0  0  0  2  0  0  0  0  0  0
  160.8760  203.8110  152.1600 C   0  0  2  0  0  3  0  0  0  0  0  0
  160.9050  205.3390  152.2850 C   0  0  1  0  0  3  0  0  0  0  0  0
  162.1430  203.1860  151.5900 C   0  0  0  0  0  1  0  0  0  0  0  0
  1 14  1  0  0  0  0
  2  6  1  0  0  0  0
  3  7  1  0  0  0  0
  4  3  2  0  0  0  0
  5  7  1  0  0  0  0
  6 24  1  6  0  0  0
  6  8  1  0  0  0  0
  7 16  1  6  0  0  0
  8 11  1  0  0  0  0
  9 13  1  0  0  0  0
  9  4  1  0  0  0  0
 10  1  2  0  0  0  0
 10 12  1  0  0  0  0
 11  5  1  0  0  0  0
 12  9  2  0  0  0  0
 14  2  1  0  0  0  0
 14 13  2  0  0  0  0
 16 15  1  0  0  0  0
 17 10  1  0  0  0  0
 18 21  1  6  0  0  0
 18 19  1  0  0  0  0
 18 20  1  0  0  0  0
 18 23  1  0  0  0  0
 19 23  1  0  0  0  0
 20 22  1  1  0  0  0
 20 23  1  0  0  0  0
 23 17  1  1  0  0  0
 24 25  1  0  0  0  0
 26 27  1  6  0  0  0
 26 25  1  0  0  0  0
 28 27  1  0  0  0  0
 29 28  1  0  0  0  0
 31 32  1  0  0  0  0
 31 30  1  1  0  0  0
 31 29  1  0  0  0  0
 32 34  1  0  0  0  0
 33 32  2  0  0  0  0
 35 36  1  0  0  0  0
 37 38  1  0  0  0  0
 38 34  1  0  0  0  0
 38 35  1  0  0  0  0
 38 36  1  0  0  0  0
 39 26  1  0  0  0  0
 40 41  1  0  0  0  0
 40 42  1  0  0  0  0
 41 43  1  6  0  0  0
 41 42  1  0  0  0  0
 42 39  1  6  0  0  0
M  END
>  <MODEL>
2

>  <REMARK>
 VINA RESULT:      -6.8      1.239      2.672
  Name = 
  15 active torsions:
  status: ('A' for Active; 'I' for Inactive)
    1  A    between atoms: C_2  and  C_34
    2  A    between atoms: C_2  and  C_37
    3  A    between atoms: C_3  and  C_24
    4  A    between atoms: C_3  and  C_37
    5  A    between atoms: C_6  and  C_14
    6  A    between atoms: C_6  and  C_34
    7  A    between atoms: N_12  and  C_30
    8  A    between atoms: N_12  and  C_38
    9  A    between atoms: N_13  and  C_19
   10  A    between atoms: N_13  and  C_21
   11  A    between atoms: C_14  and  C_26
   12  A    between atoms: C_20  and  C_33
   13  A    between atoms: C_21  and  C_37
   14  A    between atoms: O_22  and  C_26
   15  A    between atoms: O_22  and  C_43
                            x       y       z     vdW  Elec       q    Type
                         _______ _______ _______ _____ _____    ______ ____

>  <TORSDO>
F 15

$$$$
=
 OpenBabel11072410113D

 43 48  0  0  1  0  0  0  0  0999 V2000
  160.9990  207.1270  152.1620 C   0  0  0  0  0  3  0  0  0  0  0  0
  160.3880  209.5770  152.1970 C   0  0  0  0  0  2  0  0  0  0  0  0
  160.8480  208.1200  157.1830 C   0  0  0  0  0  3  0  0  0  0  0  0
  160.7700  207.0820  156.3900 N   0  0  0  0  0  0  0  0  0  0  0  0
  162.1570  209.9200  155.8970 C   0  0  0  0  0  2  0  0  0  0  0  0
  161.6330  210.4740  152.4060 C   0  0  1  0  0  3  0  0  0  0  0  0
  160.9360  209.5760  156.7780 C   0  0  1  0  0  3  0  0  0  0  0  0
  162.4010  210.1030  153.5270 O   0  0  0  0  0  0  0  0  0  0  0  0
  160.7320  207.0590  154.9550 C   0  0  0  0  0  0  0  0  0  0  0  0
  161.2990  205.9470  152.8660 C   0  0  0  0  0  0  0  0  0  0  0  0
  161.8530  210.7510  154.6430 C   0  0  0  0  0  2  0  0  0  0  0  0
  161.1850  205.9270  154.2650 C   0  0  0  0  0  3  0  0  0  0  0  0
  160.3530  208.1790  154.2270 C   0  0  0  0  0  3  0  0  0  0  0  0
  160.5160  208.2410  152.8500 C   0  0  0  0  0  0  0  0  0  0  0  0
  159.4070  211.4100  156.9580 O   0  0  0  0  0  1  0  0  0  0  0  0
  159.5840  210.1570  156.3690 C   0  0  0  0  0  2  0  0  0  0  0  0
  161.7890  204.7870  152.1860 N   0  0  0  0  0  2  0  0  0  0  0  0
  161.2610  202.7130  150.7610 C   0  0  1  0  0  0  0  0  0  0  0  0
  161.9870  202.4940  152.0080 N   0  0  0  0  0  2  0  0  0  0  0  0
  160.1570  203.7230  150.7880 C   0  0  2  0  0  3  0  0  0  0  0  0
  160.5450  201.5300  150.5890 O   0  0  0  0  0  1  0  0  0  0  0  0
  160.5230  204.8460  149.8210 C   0  0  0  0  0  1  0  0  0  0  0  0
  161.0040  203.5650  152.0290 C   0  0  1  0  0  0  0  0  0  0  0  0
  162.4750  210.4120  151.2220 N   0  0  0  0  0  2  0  0  0  0  0  0
  161.9190  211.3260  150.2370 C   0  0  0  0  0  2  0  0  0  0  0  0
  161.5380  210.5640  148.9730 C   0  0  2  0  0  3  0  0  0  0  0  0
  162.3990  209.3140  148.8070 C   0  0  0  0  0  2  0  0  0  0  0  0
  161.5800  208.0790  148.4480 C   0  0  0  0  0  2  0  0  0  0  0  0
  162.4960  206.9570  147.9900 C   0  0  0  0  0  2  0  0  0  0  0  0
  160.5790  206.2790  146.7170 O   0  0  0  0  0  1  0  0  0  0  0  0
  161.9750  206.3180  146.7100 C   0  0  2  0  0  3  0  0  0  0  0  0
  162.5290  204.9420  146.5660 C   0  0  0  0  0  0  0  0  0  0  0  0
  163.5280  204.7340  145.8230 O   0  0  0  0  0  0  0  0  0  0  0  0
  161.9020  203.8860  147.2310 O   0  0  0  0  0  0  0  0  0  0  0  0
  161.4410  201.4720  146.9760 C   0  0  0  0  0  2  0  0  0  0  0  0
  160.1040  202.1360  147.3160 C   0  0  0  0  0  2  0  0  0  0  0  0
  160.9430  203.0520  145.1180 N   0  0  0  0  0  1  0  0  0  0  0  0
  161.1590  202.8860  146.5450 C   0  0  0  0  0  0  0  0  0  0  0  0
  161.6290  211.4480  147.7330 C   0  0  0  0  0  2  0  0  0  0  0  0
  162.7610  213.3870  146.6730 C   0  0  0  0  0  2  0  0  0  0  0  0
  162.1350  213.9750  147.9230 C   0  0  2  0  0  3  0  0  0  0  0  0
  162.6780  212.5400  147.9250 C   0  0  1  0  0  3  0  0  0  0  0  0
  160.6290  214.0930  147.7310 C   0  0  0  0  0  1  0  0  0  0  0  0
  1 14  2  0  0  0  0
  1 10  1  0  0  0  0
  2  6  1  0  0  0  0
  2 14  1  0  0  0  0
  4  3  2  0  0  0  0
  5  7  1  0  0  0  0
  6 24  1  6  0  0  0
  6  8  1  0  0  0  0
  7 16  1  6  0  0  0
  7  3  1  0  0  0  0
  8 11  1  0  0  0  0
  9  4  1  0  0  0  0
 10 12  2  0  0  0  0
 11  5  1  0  0  0  0
 12  9  1  0  0  0  0
 13  9  2  0  0  0  0
 14 13  1  0  0  0  0
 16 15  1  0  0  0  0
 17 10  1  0  0  0  0
 18 21  1  1  0  0  0
 18 20  1  0  0  0  0
 18 19  1  0  0  0  0
 18 23  1  0  0  0  0
 19 23  1  0  0  0  0
 20 22  1  6  0  0  0
 20 23  1  0  0  0  0
 23 17  1  6  0  0  0
 25 24  1  0  0  0  0
 26 39  1  6  0  0  0
 26 25  1  0  0  0  0
 27 26  1  0  0  0  0
 28 27  1  0  0  0  0
 29 28  1  0  0  0  0
 31 30  1  1  0  0  0
 31 29  1  0  0  0  0
 32 31  1  0  0  0  0
 32 34  1  0  0  0  0
 33 32  2  0  0  0  0
 35 36  1  0  0  0  0
 37 38  1  0  0  0  0
 38 35  1  0  0  0  0
 38 34  1  0  0  0  0
 38 36  1  0  0  0  0
 40 41  1  0  0  0  0
 40 42  1  0  0  0  0
 41 43  1  6  0  0  0
 41 42  1  0  0  0  0
 42 39  1  6  0  0  0
M  END
>  <MODEL>
3

>  <REMARK>
 VINA RESULT:      -6.8      3.215      6.527
  Name = 
  15 active torsions:
  status: ('A' for Active; 'I' for Inactive)
    1  A    between atoms: C_2  and  C_34
    2  A    between atoms: C_2  and  C_37
    3  A    between atoms: C_3  and  C_24
    4  A    between atoms: C_3  and  C_37
    5  A    between atoms: C_6  and  C_14
    6  A    between atoms: C_6  and  C_34
    7  A    between atoms: N_12  and  C_30
    8  A    between atoms: N_12  and  C_38
    9  A    between atoms: N_13  and  C_19
   10  A    between atoms: N_13  and  C_21
   11  A    between atoms: C_14  and  C_26
   12  A    between atoms: C_20  and  C_33
   13  A    between atoms: C_21  and  C_37
   14  A    between atoms: O_22  and  C_26
   15  A    between atoms: O_22  and  C_43
                            x       y       z     vdW  Elec       q    Type
                         _______ _______ _______ _____ _____    ______ ____

>  <TORSDO>
F 15

$$$$
=
 OpenBabel11072410113D

 43 48  0  0  1  0  0  0  0  0999 V2000
  159.5110  213.3490  151.1720 C   0  0  0  0  0  3  0  0  0  0  0  0
  160.2400  212.5070  153.4380 C   0  0  0  0  0  2  0  0  0  0  0  0
  155.2420  213.9020  153.9450 C   0  0  0  0  0  3  0  0  0  0  0  0
  155.7600  214.3810  152.8420 N   0  0  0  0  0  0  0  0  0  0  0  0
  156.3230  211.6000  154.3140 C   0  0  0  0  0  2  0  0  0  0  0  0
  159.7940  211.0430  153.6750 C   0  0  1  0  0  3  0  0  0  0  0  0
  155.8960  212.9530  154.9250 C   0  0  1  0  0  3  0  0  0  0  0  0
  158.4190  210.8410  153.4520 O   0  0  0  0  0  0  0  0  0  0  0  0
  157.0670  214.1460  152.2970 C   0  0  0  0  0  0  0  0  0  0  0  0
  158.5050  213.8910  150.3510 C   0  0  0  0  0  0  0  0  0  0  0  0
  157.7520  211.1470  154.6460 C   0  0  0  0  0  2  0  0  0  0  0  0
  157.2770  214.2660  150.9170 C   0  0  0  0  0  3  0  0  0  0  0  0
  158.1100  213.6980  153.0970 C   0  0  0  0  0  3  0  0  0  0  0  0
  159.3090  213.2640  152.5500 C   0  0  0  0  0  0  0  0  0  0  0  0
  156.5860  213.3530  157.1820 O   0  0  0  0  0  1  0  0  0  0  0  0
  156.8870  213.6520  155.8530 C   0  0  0  0  0  2  0  0  0  0  0  0
  158.6860  213.9980  148.9360 N   0  0  0  0  0  2  0  0  0  0  0  0
  159.2830  213.1360  146.5880 C   0  0  1  0  0  0  0  0  0  0  0  0
  160.3460  213.1310  147.5870 N   0  0  0  0  0  2  0  0  0  0  0  0
  157.9180  212.7330  147.0500 C   0  0  2  0  0  3  0  0  0  0  0  0
  159.6140  212.0710  145.7520 O   0  0  0  0  0  1  0  0  0  0  0  0
  156.9850  213.9270  146.8620 C   0  0  0  0  0  1  0  0  0  0  0  0
  159.0090  212.8540  148.0860 C   0  0  1  0  0  0  0  0  0  0  0  0
  160.5450  210.1630  152.7940 N   0  0  0  0  0  2  0  0  0  0  0  0
  160.0830  208.8040  153.0280 C   0  0  0  0  0  2  0  0  0  0  0  0
  161.2290  207.9450  153.5480 C   0  0  2  0  0  3  0  0  0  0  0  0
  161.0130  206.4740  153.2010 C   0  0  0  0  0  2  0  0  0  0  0  0
  161.9910  205.9690  152.1450 C   0  0  0  0  0  2  0  0  0  0  0  0
  161.3800  206.1000  150.7600 C   0  0  0  0  0  2  0  0  0  0  0  0
  162.6590  208.1210  150.5720 O   0  0  0  0  0  1  0  0  0  0  0  0
  162.2370  206.9900  149.8710 C   0  0  2  0  0  3  0  0  0  0  0  0
  161.4660  207.3920  148.6600 C   0  0  0  0  0  0  0  0  0  0  0  0
  161.4720  208.5940  148.2730 O   0  0  0  0  0  0  0  0  0  0  0  0
  160.7080  206.4300  147.9900 O   0  0  0  0  0  0  0  0  0  0  0  0
  160.8130  205.4890  145.7080 C   0  0  0  0  0  2  0  0  0  0  0  0
  162.2360  205.9320  146.0610 C   0  0  0  0  0  2  0  0  0  0  0  0
  161.5150  204.1230  147.6670 N   0  0  0  0  0  1  0  0  0  0  0  0
  161.2920  205.4560  147.1340 C   0  0  0  0  0  0  0  0  0  0  0  0
  161.4280  208.1190  155.0500 C   0  0  0  0  0  2  0  0  0  0  0  0
  160.4440  207.5080  157.2480 C   0  0  0  0  0  2  0  0  0  0  0  0
  159.7850  208.8310  156.9140 C   0  0  2  0  0  3  0  0  0  0  0  0
  160.1300  207.8320  155.8030 C   0  0  1  0  0  3  0  0  0  0  0  0
  160.7890  209.9620  157.0990 C   0  0  0  0  0  1  0  0  0  0  0  0
  1 14  1  0  0  0  0
  2  6  1  0  0  0  0
  3  7  1  0  0  0  0
  4  3  2  0  0  0  0
  5 11  1  0  0  0  0
  5  7  1  0  0  0  0
  6 24  1  6  0  0  0
  7 16  1  6  0  0  0
  8  6  1  0  0  0  0
  8 11  1  0  0  0  0
  9  4  1  0  0  0  0
  9 13  1  0  0  0  0
 10 12  1  0  0  0  0
 10  1  2  0  0  0  0
 12  9  2  0  0  0  0
 14 13  2  0  0  0  0
 14  2  1  0  0  0  0
 16 15  1  0  0  0  0
 17 10  1  0  0  0  0
 18 21  1  6  0  0  0
 18 20  1  0  0  0  0
 18 19  1  0  0  0  0
 18 23  1  0  0  0  0
 19 23  1  0  0  0  0
 20 22  1  1  0  0  0
 20 23  1  0  0  0  0
 23 17  1  1  0  0  0
 24 25  1  0  0  0  0
 26 25  1  1  0  0  0
 26 39  1  0  0  0  0
 27 26  1  0  0  0  0
 28 27  1  0  0  0  0
 29 28  1  0  0  0  0
 31 30  1  1  0  0  0
 31 29  1  0  0  0  0
 32 31  1  0  0  0  0
 33 32  2  0  0  0  0
 34 32  1  0  0  0  0
 35 36  1  0  0  0  0
 35 38  1  0  0  0  0
 36 38  1  0  0  0  0
 38 37  1  0  0  0  0
 38 34  1  0  0  0  0
 41 43  1  6  0  0  0
 41 40  1  0  0  0  0
 42 39  1  6  0  0  0
 42 41  1  0  0  0  0
 42 40  1  0  0  0  0
M  END
>  <MODEL>
4

>  <REMARK>
 VINA RESULT:      -6.5      1.766      3.100
  Name = 
  15 active torsions:
  status: ('A' for Active; 'I' for Inactive)
    1  A    between atoms: C_2  and  C_34
    2  A    between atoms: C_2  and  C_37
    3  A    between atoms: C_3  and  C_24
    4  A    between atoms: C_3  and  C_37
    5  A    between atoms: C_6  and  C_14
    6  A    between atoms: C_6  and  C_34
    7  A    between atoms: N_12  and  C_30
    8  A    between atoms: N_12  and  C_38
    9  A    between atoms: N_13  and  C_19
   10  A    between atoms: N_13  and  C_21
   11  A    between atoms: C_14  and  C_26
   12  A    between atoms: C_20  and  C_33
   13  A    between atoms: C_21  and  C_37
   14  A    between atoms: O_22  and  C_26
   15  A    between atoms: O_22  and  C_43
                            x       y       z     vdW  Elec       q    Type
                         _______ _______ _______ _____ _____    ______ ____

>  <TORSDO>
F 15

$$$$
=
 OpenBabel11072410113D

 43 48  0  0  1  0  0  0  0  0999 V2000
  160.9430  211.7700  151.5560 C   0  0  0  0  0  3  0  0  0  0  0  0
  162.0080  210.3910  153.3840 C   0  0  0  0  0  2  0  0  0  0  0  0
  157.8960  212.7530  155.5510 C   0  0  0  0  0  3  0  0  0  0  0  0
  158.2030  213.2960  154.4000 N   0  0  0  0  0  0  0  0  0  0  0  0
  158.3810  210.2400  155.3220 C   0  0  0  0  0  2  0  0  0  0  0  0
  161.2690  209.0460  153.5900 C   0  0  1  0  0  3  0  0  0  0  0  0
  158.5130  211.5210  156.1750 C   0  0  1  0  0  3  0  0  0  0  0  0
  159.8820  209.2000  153.7810 O   0  0  0  0  0  0  0  0  0  0  0  0
  159.2010  212.8770  153.4570 C   0  0  0  0  0  0  0  0  0  0  0  0
  159.9360  212.6620  151.1470 C   0  0  0  0  0  0  0  0  0  0  0  0
  159.6710  209.4270  155.1480 C   0  0  0  0  0  2  0  0  0  0  0  0
  159.0540  213.1940  152.1000 C   0  0  0  0  0  3  0  0  0  0  0  0
  160.2630  212.0700  153.8440 C   0  0  0  0  0  3  0  0  0  0  0  0
  161.1080  211.4850  152.9120 C   0  0  0  0  0  0  0  0  0  0  0  0
  159.9220  213.1260  157.2580 O   0  0  0  0  0  1  0  0  0  0  0  0
  159.8680  211.8020  156.8210 C   0  0  0  0  0  2  0  0  0  0  0  0
  159.7480  212.9790  149.7640 N   0  0  0  0  0  2  0  0  0  0  0  0
  160.8380  214.2630  147.8220 C   0  0  1  0  0  0  0  0  0  0  0  0
  161.5000  214.3350  149.1200 N   0  0  0  0  0  2  0  0  0  0  0  0
  160.2690  212.9370  147.4240 C   0  0  2  0  0  3  0  0  0  0  0  0
  161.8860  214.3940  146.9130 O   0  0  0  0  0  1  0  0  0  0  0  0
  158.7580  213.0990  147.2730 C   0  0  0  0  0  1  0  0  0  0  0  0
  160.8510  213.0720  148.8110 C   0  0  1  0  0  0  0  0  0  0  0  0
  161.4890  208.1940  152.4320 N   0  0  0  0  0  2  0  0  0  0  0  0
  160.7360  206.9670  152.6370 C   0  0  0  0  0  2  0  0  0  0  0  0
  161.0850  205.9530  151.5540 C   0  0  2  0  0  3  0  0  0  0  0  0
  161.3280  204.5710  152.1550 C   0  0  0  0  0  2  0  0  0  0  0  0
  161.5080  203.4920  151.0930 C   0  0  0  0  0  2  0  0  0  0  0  0
  160.3220  203.4880  150.1430 C   0  0  0  0  0  2  0  0  0  0  0  0
  160.4500  201.1030  150.3740 O   0  0  0  0  0  1  0  0  0  0  0  0
  160.1700  202.1310  149.4710 C   0  0  2  0  0  3  0  0  0  0  0  0
  161.0760  202.0430  148.2910 C   0  0  0  0  0  0  0  0  0  0  0  0
  161.4220  200.9160  147.8390 O   0  0  0  0  0  0  0  0  0  0  0  0
  161.5670  203.2210  147.7250 O   0  0  0  0  0  0  0  0  0  0  0  0
  161.2190  204.9290  145.9740 C   0  0  0  0  0  2  0  0  0  0  0  0
  162.5890  204.3010  145.7010 C   0  0  0  0  0  2  0  0  0  0  0  0
  160.8090  202.5220  145.4850 N   0  0  0  0  0  1  0  0  0  0  0  0
  161.4850  203.4910  146.3310 C   0  0  0  0  0  0  0  0  0  0  0  0
  162.2870  206.4010  150.7290 C   0  0  0  0  0  2  0  0  0  0  0  0
  160.6680  206.9310  148.9230 C   0  0  0  0  0  2  0  0  0  0  0  0
  161.9490  207.5990  148.4650 C   0  0  2  0  0  3  0  0  0  0  0  0
  161.9950  206.2740  149.2360 C   0  0  1  0  0  3  0  0  0  0  0  0
  162.2040  208.8430  149.3060 C   0  0  0  0  0  1  0  0  0  0  0  0
  1 14  1  0  0  0  0
  2  6  1  0  0  0  0
  3  7  1  0  0  0  0
  4  3  2  0  0  0  0
  5  7  1  0  0  0  0
  6 24  1  6  0  0  0
  6  8  1  0  0  0  0
  7 16  1  6  0  0  0
  8 11  1  0  0  0  0
  9 13  1  0  0  0  0
  9  4  1  0  0  0  0
 10  1  2  0  0  0  0
 10 12  1  0  0  0  0
 11  5  1  0  0  0  0
 12  9  2  0  0  0  0
 14  2  1  0  0  0  0
 14 13  2  0  0  0  0
 16 15  1  0  0  0  0
 17 10  1  0  0  0  0
 18 21  1  6  0  0  0
 18 23  1  0  0  0  0
 18 19  1  0  0  0  0
 20 22  1  1  0  0  0
 20 18  1  0  0  0  0
 20 23  1  0  0  0  0
 23 19  1  0  0  0  0
 23 17  1  1  0  0  0
 24 25  1  0  0  0  0
 26 39  1  1  0  0  0
 26 27  1  0  0  0  0
 26 25  1  0  0  0  0
 28 27  1  0  0  0  0
 29 28  1  0  0  0  0
 31 29  1  0  0  0  0
 31 30  1  1  0  0  0
 32 31  1  0  0  0  0
 33 32  2  0  0  0  0
 34 32  1  0  0  0  0
 35 38  1  0  0  0  0
 36 35  1  0  0  0  0
 36 38  1  0  0  0  0
 37 38  1  0  0  0  0
 38 34  1  0  0  0  0
 40 42  1  0  0  0  0
 41 40  1  0  0  0  0
 41 42  1  0  0  0  0
 41 43  1  1  0  0  0
 42 39  1  1  0  0  0
M  END
>  <MODEL>
5

>  <REMARK>
 VINA RESULT:      -6.4      1.662      2.043
  Name = 
  15 active torsions:
  status: ('A' for Active; 'I' for Inactive)
    1  A    between atoms: C_2  and  C_34
    2  A    between atoms: C_2  and  C_37
    3  A    between atoms: C_3  and  C_24
    4  A    between atoms: C_3  and  C_37
    5  A    between atoms: C_6  and  C_14
    6  A    between atoms: C_6  and  C_34
    7  A    between atoms: N_12  and  C_30
    8  A    between atoms: N_12  and  C_38
    9  A    between atoms: N_13  and  C_19
   10  A    between atoms: N_13  and  C_21
   11  A    between atoms: C_14  and  C_26
   12  A    between atoms: C_20  and  C_33
   13  A    between atoms: C_21  and  C_37
   14  A    between atoms: O_22  and  C_26
   15  A    between atoms: O_22  and  C_43
                            x       y       z     vdW  Elec       q    Type
                         _______ _______ _______ _____ _____    ______ ____

>  <TORSDO>
F 15

$$$$
=
 OpenBabel11072410113D

 43 48  0  0  1  0  0  0  0  0999 V2000
  162.0440  207.7550  151.8370 C   0  0  0  0  0  3  0  0  0  0  0  0
  163.0830  208.3330  149.6090 C   0  0  0  0  0  2  0  0  0  0  0  0
  160.8750  203.6470  149.0130 C   0  0  0  0  0  3  0  0  0  0  0  0
  160.9820  203.9640  150.2780 N   0  0  0  0  0  0  0  0  0  0  0  0
  160.3900  205.8340  147.7540 C   0  0  0  0  0  2  0  0  0  0  0  0
  162.0340  208.8880  148.6150 C   0  0  1  0  0  3  0  0  0  0  0  0
  161.2000  204.5210  147.8210 C   0  0  1  0  0  3  0  0  0  0  0  0
  160.9090  208.0530  148.4750 O   0  0  0  0  0  0  0  0  0  0  0  0
  161.4430  205.1980  150.8510 C   0  0  0  0  0  0  0  0  0  0  0  0
  161.3230  206.8490  152.6340 C   0  0  0  0  0  0  0  0  0  0  0  0
  161.2130  207.1030  147.4900 C   0  0  0  0  0  2  0  0  0  0  0  0
  161.0060  205.5790  152.1260 C   0  0  0  0  0  3  0  0  0  0  0  0
  162.2350  206.0770  150.1230 C   0  0  0  0  0  3  0  0  0  0  0  0
  162.5070  207.3580  150.5820 C   0  0  0  0  0  0  0  0  0  0  0  0
  162.9300  204.4680  146.1660 O   0  0  0  0  0  1  0  0  0  0  0  0
  162.6980  204.5990  147.5360 C   0  0  0  0  0  2  0  0  0  0  0  0
  160.8410  207.2250  153.9280 N   0  0  0  0  0  2  0  0  0  0  0  0
  161.0780  209.2860  155.4480 C   0  0  1  0  0  0  0  0  0  0  0  0
  161.5810  209.4060  154.0830 N   0  0  0  0  0  2  0  0  0  0  0  0
  159.7910  208.5450  155.6320 C   0  0  2  0  0  3  0  0  0  0  0  0
  160.6930  210.5860  155.7690 O   0  0  0  0  0  1  0  0  0  0  0  0
  160.0740  207.3190  156.4980 C   0  0  0  0  0  1  0  0  0  0  0  0
  160.3970  208.5800  154.2500 C   0  0  1  0  0  0  0  0  0  0  0  0
  161.5900  210.1980  149.0650 N   0  0  0  0  0  2  0  0  0  0  0  0
  162.3150  211.1980  148.2980 C   0  0  0  0  0  2  0  0  0  0  0  0
  161.4340  212.4200  148.0670 C   0  0  2  0  0  3  0  0  0  0  0  0
  160.9280  212.9880  149.3910 C   0  0  0  0  0  2  0  0  0  0  0  0
  159.5890  213.7030  149.2500 C   0  0  0  0  0  2  0  0  0  0  0  0
  159.1840  214.3240  150.5760 C   0  0  0  0  0  2  0  0  0  0  0  0
  157.0600  213.9070  151.6120 O   0  0  0  0  0  1  0  0  0  0  0  0
  158.3260  213.3630  151.3860 C   0  0  2  0  0  3  0  0  0  0  0  0
  158.9940  213.0550  152.6830 C   0  0  0  0  0  0  0  0  0  0  0  0
  159.9720  212.2580  152.7200 O   0  0  0  0  0  0  0  0  0  0  0  0
  158.4950  213.6270  153.8540 O   0  0  0  0  0  0  0  0  0  0  0  0
  156.4200  212.5800  154.6950 C   0  0  0  0  0  2  0  0  0  0  0  0
  157.4470  211.4530  154.5490 C   0  0  0  0  0  2  0  0  0  0  0  0
  158.2830  213.1150  156.2570 N   0  0  0  0  0  1  0  0  0  0  0  0
  157.8880  212.8550  154.8830 C   0  0  0  0  0  0  0  0  0  0  0  0
  160.2670  212.1050  147.1360 C   0  0  0  0  0  2  0  0  0  0  0  0
  159.7840  212.2030  144.7020 C   0  0  0  0  0  2  0  0  0  0  0  0
  158.9650  213.3410  145.2770 C   0  0  2  0  0  3  0  0  0  0  0  0
  160.3260  212.9780  145.8840 C   0  0  1  0  0  3  0  0  0  0  0  0
  157.7590  212.7780  146.0160 C   0  0  0  0  0  1  0  0  0  0  0  0
  1 10  1  0  0  0  0
  2 14  1  0  0  0  0
  3  4  2  0  0  0  0
  4  9  1  0  0  0  0
  5  7  1  0  0  0  0
  6 24  1  1  0  0  0
  6  2  1  0  0  0  0
  7 16  1  1  0  0  0
  7  3  1  0  0  0  0
  8  6  1  0  0  0  0
  9 12  1  0  0  0  0
 10 17  1  0  0  0  0
 11  5  1  0  0  0  0
 11  8  1  0  0  0  0
 12 10  2  0  0  0  0
 13 14  1  0  0  0  0
 13  9  2  0  0  0  0
 14  1  2  0  0  0  0
 15 16  1  0  0  0  0
 18 20  1  0  0  0  0
 18 21  1  6  0  0  0
 19 23  1  0  0  0  0
 19 18  1  0  0  0  0
 20 22  1  1  0  0  0
 23 17  1  1  0  0  0
 23 18  1  0  0  0  0
 23 20  1  0  0  0  0
 25 24  1  0  0  0  0
 26 39  1  6  0  0  0
 26 25  1  0  0  0  0
 26 27  1  0  0  0  0
 28 27  1  0  0  0  0
 28 29  1  0  0  0  0
 29 31  1  0  0  0  0
 31 30  1  1  0  0  0
 31 32  1  0  0  0  0
 32 33  2  0  0  0  0
 32 34  1  0  0  0  0
 34 38  1  0  0  0  0
 35 38  1  0  0  0  0
 36 35  1  0  0  0  0
 36 38  1  0  0  0  0
 38 37  1  0  0  0  0
 40 41  1  0  0  0  0
 40 42  1  0  0  0  0
 41 42  1  0  0  0  0
 41 43  1  1  0  0  0
 42 39  1  1  0  0  0
M  END
>  <MODEL>
6

>  <REMARK>
 VINA RESULT:      -5.6      2.312      9.628
  Name = 
  15 active torsions:
  status: ('A' for Active; 'I' for Inactive)
    1  A    between atoms: C_2  and  C_34
    2  A    between atoms: C_2  and  C_37
    3  A    between atoms: C_3  and  C_24
    4  A    between atoms: C_3  and  C_37
    5  A    between atoms: C_6  and  C_14
    6  A    between atoms: C_6  and  C_34
    7  A    between atoms: N_12  and  C_30
    8  A    between atoms: N_12  and  C_38
    9  A    between atoms: N_13  and  C_19
   10  A    between atoms: N_13  and  C_21
   11  A    between atoms: C_14  and  C_26
   12  A    between atoms: C_20  and  C_33
   13  A    between atoms: C_21  and  C_37
   14  A    between atoms: O_22  and  C_26
   15  A    between atoms: O_22  and  C_43
                            x       y       z     vdW  Elec       q    Type
                         _______ _______ _______ _____ _____    ______ ____

>  <TORSDO>
F 15

$$$$
=
 OpenBabel11072410113D

 43 48  0  0  1  0  0  0  0  0999 V2000
  162.0350  207.5550  151.9290 C   0  0  0  0  0  3  0  0  0  0  0  0
  163.0770  208.2080  149.7240 C   0  0  0  0  0  2  0  0  0  0  0  0
  160.8590  203.5510  148.9620 C   0  0  0  0  0  3  0  0  0  0  0  0
  160.9660  203.8230  150.2380 N   0  0  0  0  0  0  0  0  0  0  0  0
  160.3800  205.7820  147.7800 C   0  0  0  0  0  2  0  0  0  0  0  0
  162.0300  208.8000  148.7490 C   0  0  1  0  0  3  0  0  0  0  0  0
  161.1870  204.4650  147.8010 C   0  0  1  0  0  3  0  0  0  0  0  0
  160.9030  207.9730  148.5790 O   0  0  0  0  0  0  0  0  0  0  0  0
  161.4290  205.0350  150.8540 C   0  0  0  0  0  0  0  0  0  0  0  0
  161.3110  206.6230  152.6940 C   0  0  0  0  0  0  0  0  0  0  0  0
  161.2060  207.0580  147.5620 C   0  0  0  0  0  2  0  0  0  0  0  0
  160.9920  205.3720  152.1410 C   0  0  0  0  0  3  0  0  0  0  0  0
  162.2240  205.9370  150.1580 C   0  0  0  0  0  3  0  0  0  0  0  0
  162.4980  207.2010  150.6610 C   0  0  0  0  0  0  0  0  0  0  0  0
  162.9070  204.6470  146.1460 O   0  0  0  0  0  1  0  0  0  0  0  0
  162.6850  204.5500  147.5210 C   0  0  0  0  0  2  0  0  0  0  0  0
  160.8290  206.9540  154.0000 N   0  0  0  0  0  2  0  0  0  0  0  0
  161.0800  208.9700  155.5750 C   0  0  1  0  0  0  0  0  0  0  0  0
  161.5630  209.1330  154.2080 N   0  0  0  0  0  2  0  0  0  0  0  0
  159.7990  208.2190  155.7570 C   0  0  2  0  0  3  0  0  0  0  0  0
  160.6950  210.2590  155.9400 O   0  0  0  0  0  1  0  0  0  0  0  0
  160.0990  206.9690  156.5820 C   0  0  0  0  0  1  0  0  0  0  0  0
  160.3840  208.2970  154.3670 C   0  0  1  0  0  0  0  0  0  0  0  0
  161.5890  210.0940  149.2450 N   0  0  0  0  0  2  0  0  0  0  0  0
  162.3330  211.1190  148.5290 C   0  0  0  0  0  2  0  0  0  0  0  0
  161.4230  212.2980  148.2100 C   0  0  2  0  0  3  0  0  0  0  0  0
  162.1640  213.3570  147.3960 C   0  0  0  0  0  2  0  0  0  0  0  0
  161.9540  213.1960  145.8940 C   0  0  0  0  0  2  0  0  0  0  0  0
  160.5230  212.7720  145.6070 C   0  0  0  0  0  2  0  0  0  0  0  0
  158.6820  214.2890  145.3550 O   0  0  0  0  0  1  0  0  0  0  0  0
  159.8220  213.7920  144.7210 C   0  0  2  0  0  3  0  0  0  0  0  0
  159.4580  213.1680  143.4170 C   0  0  0  0  0  0  0  0  0  0  0  0
  158.5800  213.6990  142.6820 O   0  0  0  0  0  0  0  0  0  0  0  0
  160.0700  211.9690  143.0460 O   0  0  0  0  0  0  0  0  0  0  0  0
  161.3190  213.1900  141.2980 C   0  0  0  0  0  2  0  0  0  0  0  0
  162.3640  212.6360  142.2710 C   0  0  0  0  0  2  0  0  0  0  0  0
  161.1250  210.7100  141.2070 N   0  0  0  0  0  1  0  0  0  0  0  0
  161.0690  211.9020  142.0350 C   0  0  0  0  0  0  0  0  0  0  0  0
  160.8300  212.9110  149.4750 C   0  0  0  0  0  2  0  0  0  0  0  0
  158.5850  213.6890  148.7540 C   0  0  0  0  0  2  0  0  0  0  0  0
  158.8000  214.3920  150.0800 C   0  0  2  0  0  3  0  0  0  0  0  0
  159.9810  214.1340  149.1350 C   0  0  1  0  0  3  0  0  0  0  0  0
  158.6530  213.3880  151.2170 C   0  0  0  0  0  1  0  0  0  0  0  0
  1 10  1  0  0  0  0
  2 14  1  0  0  0  0
  3  4  2  0  0  0  0
  4  9  1  0  0  0  0
  5  7  1  0  0  0  0
  6 24  1  1  0  0  0
  6  2  1  0  0  0  0
  7 16  1  1  0  0  0
  7  3  1  0  0  0  0
  8  6  1  0  0  0  0
  9 12  1  0  0  0  0
 10 17  1  0  0  0  0
 11  5  1  0  0  0  0
 11  8  1  0  0  0  0
 12 10  2  0  0  0  0
 13 14  1  0  0  0  0
 13  9  2  0  0  0  0
 14  1  2  0  0  0  0
 15 16  1  0  0  0  0
 18 20  1  0  0  0  0
 18 21  1  6  0  0  0
 19 23  1  0  0  0  0
 19 18  1  0  0  0  0
 20 22  1  1  0  0  0
 23 17  1  1  0  0  0
 23 18  1  0  0  0  0
 23 20  1  0  0  0  0
 25 24  1  0  0  0  0
 26 27  1  1  0  0  0
 26 25  1  0  0  0  0
 26 39  1  0  0  0  0
 28 27  1  0  0  0  0
 29 28  1  0  0  0  0
 31 30  1  1  0  0  0
 31 29  1  0  0  0  0
 32 31  1  0  0  0  0
 33 32  2  0  0  0  0
 34 32  1  0  0  0  0
 35 38  1  0  0  0  0
 35 36  1  0  0  0  0
 37 38  1  0  0  0  0
 38 36  1  0  0  0  0
 38 34  1  0  0  0  0
 40 42  1  0  0  0  0
 40 41  1  0  0  0  0
 41 43  1  1  0  0  0
 42 39  1  1  0  0  0
 42 41  1  0  0  0  0
M  END
>  <MODEL>
7

>  <REMARK>
 VINA RESULT:      -5.6      2.912      9.404
  Name = 
  15 active torsions:
  status: ('A' for Active; 'I' for Inactive)
    1  A    between atoms: C_2  and  C_34
    2  A    between atoms: C_2  and  C_37
    3  A    between atoms: C_3  and  C_24
    4  A    between atoms: C_3  and  C_37
    5  A    between atoms: C_6  and  C_14
    6  A    between atoms: C_6  and  C_34
    7  A    between atoms: N_12  and  C_30
    8  A    between atoms: N_12  and  C_38
    9  A    between atoms: N_13  and  C_19
   10  A    between atoms: N_13  and  C_21
   11  A    between atoms: C_14  and  C_26
   12  A    between atoms: C_20  and  C_33
   13  A    between atoms: C_21  and  C_37
   14  A    between atoms: O_22  and  C_26
   15  A    between atoms: O_22  and  C_43
                            x       y       z     vdW  Elec       q    Type
                         _______ _______ _______ _____ _____    ______ ____

>  <TORSDO>
F 15

$$$$
=
 OpenBabel11072410113D

 43 48  0  0  1  0  0  0  0  0999 V2000
  162.3180  209.2910  148.6360 C   0  0  0  0  0  3  0  0  0  0  0  0
  162.5540  206.8970  147.8680 C   0  0  0  0  0  2  0  0  0  0  0  0
  161.2240  206.6840  152.9050 C   0  0  0  0  0  3  0  0  0  0  0  0
  161.6190  207.8860  152.5690 N   0  0  0  0  0  0  0  0  0  0  0  0
  159.9870  205.7280  150.8660 C   0  0  0  0  0  2  0  0  0  0  0  0
  161.1790  206.2630  147.5400 C   0  0  1  0  0  3  0  0  0  0  0  0
  161.0230  205.4970  151.9890 C   0  0  1  0  0  3  0  0  0  0  0  0
  160.2450  206.3950  148.5850 O   0  0  0  0  0  0  0  0  0  0  0  0
  161.9740  208.3740  151.2660 C   0  0  0  0  0  0  0  0  0  0  0  0
  162.0410  210.2070  149.6670 C   0  0  0  0  0  0  0  0  0  0  0  0
  160.4380  205.3150  149.4580 C   0  0  0  0  0  2  0  0  0  0  0  0
  161.8480  209.7380  150.9760 C   0  0  0  0  0  3  0  0  0  0  0  0
  162.3410  207.5040  150.2470 C   0  0  0  0  0  3  0  0  0  0  0  0
  162.4760  207.9370  148.9360 C   0  0  0  0  0  0  0  0  0  0  0  0
  162.1790  203.4280  151.6550 O   0  0  0  0  0  1  0  0  0  0  0  0
  162.3340  204.8140  151.6100 C   0  0  0  0  0  2  0  0  0  0  0  0
  161.8810  211.6010  149.3910 N   0  0  0  0  0  2  0  0  0  0  0  0
  162.2570  213.6470  147.8790 C   0  0  1  0  0  0  0  0  0  0  0  0
  163.2570  212.5870  147.8220 N   0  0  0  0  0  2  0  0  0  0  0  0
  160.8250  213.2220  147.9740 C   0  0  2  0  0  3  0  0  0  0  0  0
  162.2930  214.1990  146.6000 O   0  0  0  0  0  1  0  0  0  0  0  0
  160.2670  213.7430  149.2970 C   0  0  0  0  0  1  0  0  0  0  0  0
  161.8870  212.1510  148.0370 C   0  0  1  0  0  0  0  0  0  0  0  0
  160.6350  206.8880  146.3450 N   0  0  0  0  0  2  0  0  0  0  0  0
  160.1880  205.8280  145.4560 C   0  0  0  0  0  2  0  0  0  0  0  0
  161.3620  205.3010  144.6400 C   0  0  2  0  0  3  0  0  0  0  0  0
  161.0770  205.4000  143.1430 C   0  0  0  0  0  2  0  0  0  0  0  0
  162.1740  206.1370  142.3830 C   0  0  0  0  0  2  0  0  0  0  0  0
  161.5800  206.8960  141.2100 C   0  0  0  0  0  2  0  0  0  0  0  0
  163.6350  206.6280  140.0000 O   0  0  0  0  0  1  0  0  0  0  0  0
  162.2490  206.4880  139.9050 C   0  0  2  0  0  3  0  0  0  0  0  0
  161.7230  207.3180  138.7830 C   0  0  0  0  0  0  0  0  0  0  0  0
  162.0040  207.0210  137.5880 O   0  0  0  0  0  0  0  0  0  0  0  0
  160.9560  208.4470  139.0770 O   0  0  0  0  0  0  0  0  0  0  0  0
  160.8990  210.6820  140.1290 C   0  0  0  0  0  2  0  0  0  0  0  0
  162.3250  210.1530  140.3100 C   0  0  0  0  0  2  0  0  0  0  0  0
  161.8410  210.3900  137.8440 N   0  0  0  0  0  1  0  0  0  0  0  0
  161.5070  209.7580  139.1080 C   0  0  0  0  0  0  0  0  0  0  0  0
  161.7180  203.8690  145.0260 C   0  0  0  0  0  2  0  0  0  0  0  0
  160.8240  201.5920  145.4560 C   0  0  0  0  0  2  0  0  0  0  0  0
  160.3870  202.3860  146.6710 C   0  0  2  0  0  3  0  0  0  0  0  0
  160.4560  203.0510  145.2910 C   0  0  1  0  0  3  0  0  0  0  0  0
  161.5890  202.6430  147.5710 C   0  0  0  0  0  1  0  0  0  0  0  0
  1 14  2  0  0  0  0
  1 10  1  0  0  0  0
  2 14  1  0  0  0  0
  4  3  2  0  0  0  0
  5  7  1  0  0  0  0
  6 24  1  6  0  0  0
  6  2  1  0  0  0  0
  6  8  1  0  0  0  0
  7 16  1  6  0  0  0
  7  3  1  0  0  0  0
  8 11  1  0  0  0  0
  9  4  1  0  0  0  0
 10 12  2  0  0  0  0
 11  5  1  0  0  0  0
 12  9  1  0  0  0  0
 13  9  2  0  0  0  0
 14 13  1  0  0  0  0
 16 15  1  0  0  0  0
 17 10  1  0  0  0  0
 18 21  1  6  0  0  0
 18 20  1  0  0  0  0
 18 23  1  0  0  0  0
 19 18  1  0  0  0  0
 19 23  1  0  0  0  0
 20 23  1  0  0  0  0
 20 22  1  1  0  0  0
 23 17  1  1  0  0  0
 25 24  1  0  0  0  0
 26 27  1  6  0  0  0
 26 39  1  0  0  0  0
 26 25  1  0  0  0  0
 28 27  1  0  0  0  0
 29 28  1  0  0  0  0
 31 30  1  1  0  0  0
 31 29  1  0  0  0  0
 32 34  1  0  0  0  0
 32 31  1  0  0  0  0
 33 32  2  0  0  0  0
 34 38  1  0  0  0  0
 35 36  1  0  0  0  0
 37 38  1  0  0  0  0
 38 35  1  0  0  0  0
 38 36  1  0  0  0  0
 40 41  1  0  0  0  0
 41 43  1  1  0  0  0
 42 39  1  1  0  0  0
 42 40  1  0  0  0  0
 42 41  1  0  0  0  0
M  END
>  <MODEL>
8

>  <REMARK>
 VINA RESULT:      -5.4      4.336      8.032
  Name = 
  15 active torsions:
  status: ('A' for Active; 'I' for Inactive)
    1  A    between atoms: C_2  and  C_34
    2  A    between atoms: C_2  and  C_37
    3  A    between atoms: C_3  and  C_24
    4  A    between atoms: C_3  and  C_37
    5  A    between atoms: C_6  and  C_14
    6  A    between atoms: C_6  and  C_34
    7  A    between atoms: N_12  and  C_30
    8  A    between atoms: N_12  and  C_38
    9  A    between atoms: N_13  and  C_19
   10  A    between atoms: N_13  and  C_21
   11  A    between atoms: C_14  and  C_26
   12  A    between atoms: C_20  and  C_33
   13  A    between atoms: C_21  and  C_37
   14  A    between atoms: O_22  and  C_26
   15  A    between atoms: O_22  and  C_43
                            x       y       z     vdW  Elec       q    Type
                         _______ _______ _______ _____ _____    ______ ____

>  <TORSDO>
F 15

$$$$
=
 OpenBabel11072410113D

 43 48  0  0  1  0  0  0  0  0999 V2000
  161.5510  212.0770  149.2330 C   0  0  0  0  0  3  0  0  0  0  0  0
  162.7800  210.6630  150.9270 C   0  0  0  0  0  2  0  0  0  0  0  0
  158.6570  212.6600  153.4170 C   0  0  0  0  0  3  0  0  0  0  0  0
  158.8760  213.2820  152.2860 N   0  0  0  0  0  0  0  0  0  0  0  0
  159.2680  210.1950  153.0210 C   0  0  0  0  0  2  0  0  0  0  0  0
  162.1280  209.2680  151.0890 C   0  0  1  0  0  3  0  0  0  0  0  0
  159.3720  211.4330  153.9390 C   0  0  1  0  0  3  0  0  0  0  0  0
  160.7460  209.3310  151.3530 O   0  0  0  0  0  0  0  0  0  0  0  0
  159.8480  212.9740  151.2740 C   0  0  0  0  0  0  0  0  0  0  0  0
  160.4760  212.9300  148.9240 C   0  0  0  0  0  0  0  0  0  0  0  0
  160.5910  209.4690  152.7390 C   0  0  0  0  0  2  0  0  0  0  0  0
  159.6150  213.3560  149.9470 C   0  0  0  0  0  3  0  0  0  0  0  0
  160.9710  212.2100  151.5640 C   0  0  0  0  0  3  0  0  0  0  0  0
  161.7990  211.7270  150.5610 C   0  0  0  0  0  0  0  0  0  0  0  0
  160.7570  211.4270  155.8930 O   0  0  0  0  0  1  0  0  0  0  0  0
  160.7400  211.7560  154.5360 C   0  0  0  0  0  2  0  0  0  0  0  0
  160.2020  213.3110  147.5730 N   0  0  0  0  0  2  0  0  0  0  0  0
  160.8910  213.8930  145.1660 C   0  0  1  0  0  0  0  0  0  0  0  0
  161.7050  214.4490  146.2410 N   0  0  0  0  0  2  0  0  0  0  0  0
  160.4180  212.4840  145.3330 C   0  0  2  0  0  3  0  0  0  0  0  0
  161.7940  213.7550  144.1130 O   0  0  0  0  0  1  0  0  0  0  0  0
  158.8920  212.5010  145.3750 C   0  0  0  0  0  1  0  0  0  0  0  0
  161.1570  213.1240  146.4830 C   0  0  1  0  0  0  0  0  0  0  0  0
  162.3360  208.4950  149.8750 N   0  0  0  0  0  2  0  0  0  0  0  0
  161.7550  207.1790  150.0830 C   0  0  0  0  0  2  0  0  0  0  0  0
  160.8340  206.8240  148.9220 C   0  0  2  0  0  3  0  0  0  0  0  0
  160.2550  205.4220  149.0900 C   0  0  0  0  0  2  0  0  0  0  0  0
  160.5430  204.8270  150.4640 C   0  0  0  0  0  2  0  0  0  0  0  0
  161.4820  203.6400  150.3350 C   0  0  0  0  0  2  0  0  0  0  0  0
  161.6140  201.3590  151.0670 O   0  0  0  0  0  1  0  0  0  0  0  0
  160.7410  202.3330  150.5800 C   0  0  2  0  0  3  0  0  0  0  0  0
  160.1010  201.8670  149.3160 C   0  0  0  0  0  0  0  0  0  0  0  0
  159.0360  201.1890  149.3570 O   0  0  0  0  0  0  0  0  0  0  0  0
  160.7180  202.1540  148.0980 O   0  0  0  0  0  0  0  0  0  0  0  0
  159.6410  201.0010  146.1970 C   0  0  0  0  0  2  0  0  0  0  0  0
  160.8990  201.6760  145.6400 C   0  0  0  0  0  2  0  0  0  0  0  0
  161.5780  199.9630  147.3660 N   0  0  0  0  0  1  0  0  0  0  0  0
  160.8570  201.1870  147.0640 C   0  0  0  0  0  0  0  0  0  0  0  0
  161.5470  206.9540  147.5790 C   0  0  0  0  0  2  0  0  0  0  0  0
  161.6570  206.1540  145.2300 C   0  0  0  0  0  2  0  0  0  0  0  0
  161.7220  204.8800  146.0480 C   0  0  2  0  0  3  0  0  0  0  0  0
  160.8810  206.0690  146.5270 C   0  0  1  0  0  3  0  0  0  0  0  0
  163.0950  204.7590  146.6950 C   0  0  0  0  0  1  0  0  0  0  0  0
  1 14  1  0  0  0  0
  2  6  1  0  0  0  0
  3  7  1  0  0  0  0
  4  3  2  0  0  0  0
  5  7  1  0  0  0  0
  6 24  1  6  0  0  0
  6  8  1  0  0  0  0
  7 16  1  6  0  0  0
  8 11  1  0  0  0  0
  9 13  1  0  0  0  0
  9  4  1  0  0  0  0
 10  1  2  0  0  0  0
 10 12  1  0  0  0  0
 11  5  1  0  0  0  0
 12  9  2  0  0  0  0
 14  2  1  0  0  0  0
 14 13  2  0  0  0  0
 16 15  1  0  0  0  0
 17 10  1  0  0  0  0
 18 21  1  6  0  0  0
 18 20  1  0  0  0  0
 18 19  1  0  0  0  0
 18 23  1  0  0  0  0
 19 23  1  0  0  0  0
 20 22  1  1  0  0  0
 20 23  1  0  0  0  0
 23 17  1  1  0  0  0
 24 25  1  0  0  0  0
 26 39  1  6  0  0  0
 26 27  1  0  0  0  0
 26 25  1  0  0  0  0
 27 28  1  0  0  0  0
 29 28  1  0  0  0  0
 29 31  1  0  0  0  0
 31 30  1  6  0  0  0
 32 33  2  0  0  0  0
 32 31  1  0  0  0  0
 34 32  1  0  0  0  0
 35 38  1  0  0  0  0
 36 35  1  0  0  0  0
 36 38  1  0  0  0  0
 38 37  1  0  0  0  0
 38 34  1  0  0  0  0
 40 41  1  0  0  0  0
 40 42  1  0  0  0  0
 41 42  1  0  0  0  0
 41 43  1  1  0  0  0
 42 39  1  1  0  0  0
M  END
>  <MODEL>
9

>  <REMARK>
 VINA RESULT:      -5.1      2.094      3.256
  Name = 
  15 active torsions:
  status: ('A' for Active; 'I' for Inactive)
    1  A    between atoms: C_2  and  C_34
    2  A    between atoms: C_2  and  C_37
    3  A    between atoms: C_3  and  C_24
    4  A    between atoms: C_3  and  C_37
    5  A    between atoms: C_6  and  C_14
    6  A    between atoms: C_6  and  C_34
    7  A    between atoms: N_12  and  C_30
    8  A    between atoms: N_12  and  C_38
    9  A    between atoms: N_13  and  C_19
   10  A    between atoms: N_13  and  C_21
   11  A    between atoms: C_14  and  C_26
   12  A    between atoms: C_20  and  C_33
   13  A    between atoms: C_21  and  C_37
   14  A    between atoms: O_22  and  C_26
   15  A    between atoms: O_22  and  C_43
                            x       y       z     vdW  Elec       q    Type
                         _______ _______ _______ _____ _____    ______ ____

>  <TORSDO>
F 15

$$$$
