=
 OpenBabel11072413063D

 35 40  0  0  1  0  0  0  0  0999 V2000
  161.6460  203.9670  152.2150 C   0  0  0  0  0  2  0  0  0  0  0  0
  160.6240  204.8290  151.4560 C   0  0  2  0  0  0  0  0  0  0  0  0
  160.8700  206.2810  150.9860 C   0  0  1  0  0  3  0  0  0  0  0  0
  161.8410  206.9870  151.9140 C   0  0  2  0  0  3  0  0  0  0  0  0
  160.9170  205.0030  152.9690 C   0  0  2  0  0  3  0  0  0  0  0  0
  161.5610  205.1800  150.2880 C   0  0  2  0  0  3  0  0  0  0  0  0
  161.8090  206.2060  153.2050 C   0  0  0  0  0  2  0  0  0  0  0  0
  161.4670  208.4690  152.1200 C   0  0  2  0  0  0  0  0  0  0  0  0
  160.1460  208.6590  151.7290 F   0  0  0  0  0  0  0  0  0  0  0  0
  162.0880  209.4200  149.8260 C   0  0  1  0  0  3  0  0  0  0  0  0
  161.7290  210.5790  150.7240 C   0  0  2  0  0  3  0  0  0  0  0  0
  162.2910  210.8420  149.3390 C   0  0  2  0  0  3  0  0  0  0  0  0
  162.4300  209.3640  151.3070 C   0  0  1  0  0  3  0  0  0  0  0  0
  161.8050  212.1870  147.6610 C   0  0  0  0  0  1  0  0  0  0  0  0
  161.2560  211.1950  148.4750 O   0  0  0  0  0  0  0  0  0  0  0  0
  161.5700  208.8440  153.6060 C   0  0  0  0  0  2  0  0  0  0  0  0
  160.4580  209.7850  154.0600 C   0  0  0  0  0  2  0  0  0  0  0  0
  160.8920  210.5530  155.2570 C   0  0  0  0  0  0  0  0  0  0  0  0
  162.0780  210.9660  155.3450 O   0  0  0  0  0  0  0  0  0  0  0  0
  159.9900  210.8030  156.2850 O   0  0  0  0  0  1  0  0  0  0  0  0
  160.8580  204.9120  148.9640 C   0  0  2  0  0  3  0  0  0  0  0  0
  161.2750  203.5730  148.3430 C   0  0  0  0  0  2  0  0  0  0  0  0
  160.5420  202.3650  148.9340 C   0  0  0  0  0  2  0  0  0  0  0  0
  160.0560  201.5350  147.9170 O   0  0  0  0  0  0  0  0  0  0  0  0
  161.0130  201.6030  146.9010 C   0  0  1  0  0  3  0  0  0  0  0  0
  159.6810  201.7640  144.7240 O   0  0  0  0  0  0  0  0  0  0  0  0
  161.2270  200.3540  146.3820 O   0  0  0  0  0  0  0  0  0  0  0  0
  160.4000  201.3900  145.6860 C   0  0  0  0  0  0  0  0  0  0  0  0
  161.0610  206.0830  148.0060 C   0  0  0  0  0  2  0  0  0  0  0  0
  161.4200  205.5890  146.6030 C   0  0  2  0  0  3  0  0  0  0  0  0
  163.4500  204.6600  146.0600 C   0  0  0  0  0  1  0  0  0  0  0  0
  162.7550  205.8700  146.2310 O   0  0  0  0  0  0  0  0  0  0  0  0
  160.4020  206.0390  145.5540 C   0  0  0  0  0  2  0  0  0  0  0  0
  161.1650  205.6200  143.5930 O   0  0  0  0  0  1  0  0  0  0  0  0
  160.3610  205.1190  144.5070 O   0  0  0  0  0  0  0  0  0  0  0  0
  1  5  1  0  0  0  0
  2  1  1  1  0  0  0
  2  5  1  0  0  0  0
  3  2  1  0  0  0  0
  3  4  1  0  0  0  0
  4  8  1  0  0  0  0
  4  7  1  0  0  0  0
  5  7  1  0  0  0  0
  6  3  1  0  0  0  0
  6  2  1  0  0  0  0
  8 16  1  0  0  0  0
  9  8  1  0  0  0  0
 10 11  1  0  0  0  0
 10 13  1  0  0  0  0
 11 13  1  0  0  0  0
 12 10  1  0  0  0  0
 12 11  1  0  0  0  0
 13  8  1  0  0  0  0
 14 15  1  0  0  0  0
 15 12  1  0  0  0  0
 16 17  1  0  0  0  0
 17 18  1  0  0  0  0
 18 19  2  0  0  0  0
 18 20  1  0  0  0  0
 21  6  1  0  0  0  0
 22 23  1  0  0  0  0
 22 21  1  0  0  0  0
 24 23  1  0  0  0  0
 25 24  1  0  0  0  0
 26 28  2  0  0  0  0
 27 25  1  0  0  0  0
 28 27  1  0  0  0  0
 28 25  1  0  0  0  0
 29 21  1  0  0  0  0
 30 29  1  0  0  0  0
 31 32  1  0  0  0  0
 32 30  1  0  0  0  0
 33 30  1  0  0  0  0
 34 35  1  0  0  0  0
 35 33  1  0  0  0  0
M  END
>  <MODEL>
1

>  <REMARK>
 VINA RESULT:      -7.1      0.000      0.000
  Name = 
  16 active torsions:
  status: ('A' for Active; 'I' for Inactive)
    1  A    between atoms: C_1  and  O_25
    2  A    between atoms: C_1  and  C_35
    3  A    between atoms: C_2  and  C_15
    4  A    between atoms: C_2  and  C_19
    5  A    between atoms: C_3  and  C_34
    6  A    between atoms: C_4  and  O_25
    7  A    between atoms: C_8  and  C_16
    8  A    between atoms: C_8  and  C_21
    9  A    between atoms: C_8  and  C_24
   10  A    between atoms: C_10  and  C_19
   11  A    between atoms: C_10  and  O_30
   12  A    between atoms: C_14  and  O_27
   13  A    between atoms: C_15  and  C_29
   14  A    between atoms: C_15  and  C_35
   15  A    between atoms: C_16  and  C_34
   16  A    between atoms: C_19  and  O_20
                            x       y       z     vdW  Elec       q    Type
                         _______ _______ _______ _____ _____    ______ ____

>  <TORSDO>
F 16

$$$$
=
 OpenBabel11072413063D

 35 40  0  0  1  0  0  0  0  0999 V2000
  161.1050  202.7480  151.7400 C   0  0  0  0  0  2  0  0  0  0  0  0
  160.5290  203.6680  150.6510 C   0  0  2  0  0  0  0  0  0  0  0  0
  161.1580  205.0070  150.2030 C   0  0  1  0  0  3  0  0  0  0  0  0
  161.9120  205.6540  151.3510 C   0  0  2  0  0  3  0  0  0  0  0  0
  160.3770  203.9570  152.1660 C   0  0  2  0  0  3  0  0  0  0  0  0
  161.8220  203.7470  149.8210 C   0  0  2  0  0  3  0  0  0  0  0  0
  161.3540  205.0290  152.6060 C   0  0  0  0  0  2  0  0  0  0  0  0
  161.7600  207.1890  151.3470 C   0  0  2  0  0  0  0  0  0  0  0  0
  163.0250  207.7670  151.3770 F   0  0  0  0  0  0  0  0  0  0  0  0
  161.5830  208.7020  153.4050 C   0  0  1  0  0  3  0  0  0  0  0  0
  160.4690  209.0780  152.4580 C   0  0  2  0  0  3  0  0  0  0  0  0
  160.5280  209.7010  153.8400 C   0  0  2  0  0  3  0  0  0  0  0  0
  160.9110  207.6280  152.5610 C   0  0  1  0  0  3  0  0  0  0  0  0
  160.0920  211.7910  154.3920 C   0  0  0  0  0  1  0  0  0  0  0  0
  161.0400  210.9950  153.7470 O   0  0  0  0  0  0  0  0  0  0  0  0
  161.0670  207.6540  150.0580 C   0  0  0  0  0  2  0  0  0  0  0  0
  162.0370  208.2640  149.0490 C   0  0  0  0  0  2  0  0  0  0  0  0
  161.9220  209.7470  149.0600 C   0  0  0  0  0  0  0  0  0  0  0  0
  161.6230  210.3650  148.0040 O   0  0  0  0  0  0  0  0  0  0  0  0
  162.1590  210.4520  150.2340 O   0  0  0  0  0  1  0  0  0  0  0  0
  161.5170  203.4470  148.3590 C   0  0  2  0  0  3  0  0  0  0  0  0
  161.4270  204.7210  147.5100 C   0  0  0  0  0  2  0  0  0  0  0  0
  162.6930  205.0120  146.7000 C   0  0  0  0  0  2  0  0  0  0  0  0
  162.4110  205.8710  145.6310 O   0  0  0  0  0  0  0  0  0  0  0  0
  161.3500  205.2680  144.9490 C   0  0  1  0  0  3  0  0  0  0  0  0
  161.6830  205.8910  142.4920 O   0  0  0  0  0  0  0  0  0  0  0  0
  160.3370  206.1730  144.7790 O   0  0  0  0  0  0  0  0  0  0  0  0
  161.2740  205.7910  143.6770 C   0  0  0  0  0  0  0  0  0  0  0  0
  160.2650  202.5830  148.2430 C   0  0  0  0  0  2  0  0  0  0  0  0
  160.5060  201.3880  147.3180 C   0  0  2  0  0  3  0  0  0  0  0  0
  161.6900  199.4710  146.8670 C   0  0  0  0  0  1  0  0  0  0  0  0
  161.4070  200.4360  147.8500 O   0  0  0  0  0  0  0  0  0  0  0  0
  160.8690  201.8210  145.8970 C   0  0  0  0  0  2  0  0  0  0  0  0
  159.4160  202.5290  144.4840 O   0  0  0  0  0  1  0  0  0  0  0  0
  159.8750  201.4110  145.0080 O   0  0  0  0  0  0  0  0  0  0  0  0
  1  5  1  0  0  0  0
  2  1  1  1  0  0  0
  2  5  1  0  0  0  0
  3  2  1  0  0  0  0
  3  4  1  0  0  0  0
  4  7  1  0  0  0  0
  5  7  1  0  0  0  0
  6  3  1  0  0  0  0
  6  2  1  0  0  0  0
  8  4  1  0  0  0  0
  8  9  1  0  0  0  0
  8 13  1  0  0  0  0
 10 12  1  0  0  0  0
 11 13  1  0  0  0  0
 11 10  1  0  0  0  0
 11 12  1  0  0  0  0
 13 10  1  0  0  0  0
 15 12  1  0  0  0  0
 15 14  1  0  0  0  0
 16  8  1  0  0  0  0
 17 18  1  0  0  0  0
 17 16  1  0  0  0  0
 18 20  1  0  0  0  0
 19 18  2  0  0  0  0
 21  6  1  0  0  0  0
 22 21  1  0  0  0  0
 23 22  1  0  0  0  0
 24 23  1  0  0  0  0
 25 24  1  0  0  0  0
 26 28  2  0  0  0  0
 27 25  1  0  0  0  0
 28 27  1  0  0  0  0
 28 25  1  0  0  0  0
 29 21  1  0  0  0  0
 30 32  1  0  0  0  0
 30 29  1  0  0  0  0
 31 32  1  0  0  0  0
 33 30  1  0  0  0  0
 34 35  1  0  0  0  0
 35 33  1  0  0  0  0
M  END
>  <MODEL>
2

>  <REMARK>
 VINA RESULT:      -7.1      1.417      4.253
  Name = 
  16 active torsions:
  status: ('A' for Active; 'I' for Inactive)
    1  A    between atoms: C_1  and  O_25
    2  A    between atoms: C_1  and  C_35
    3  A    between atoms: C_2  and  C_15
    4  A    between atoms: C_2  and  C_19
    5  A    between atoms: C_3  and  C_34
    6  A    between atoms: C_4  and  O_25
    7  A    between atoms: C_8  and  C_16
    8  A    between atoms: C_8  and  C_21
    9  A    between atoms: C_8  and  C_24
   10  A    between atoms: C_10  and  C_19
   11  A    between atoms: C_10  and  O_30
   12  A    between atoms: C_14  and  O_27
   13  A    between atoms: C_15  and  C_29
   14  A    between atoms: C_15  and  C_35
   15  A    between atoms: C_16  and  C_34
   16  A    between atoms: C_19  and  O_20
                            x       y       z     vdW  Elec       q    Type
                         _______ _______ _______ _____ _____    ______ ____

>  <TORSDO>
F 16

$$$$
=
 OpenBabel11072413063D

 35 40  0  0  1  0  0  0  0  0999 V2000
  161.2150  202.9500  151.9840 C   0  0  0  0  0  2  0  0  0  0  0  0
  160.4230  203.8270  151.0010 C   0  0  2  0  0  0  0  0  0  0  0  0
  160.9280  205.1610  150.4040 C   0  0  1  0  0  3  0  0  0  0  0  0
  161.8750  205.8530  151.3670 C   0  0  2  0  0  3  0  0  0  0  0  0
  160.5590  204.1600  152.5080 C   0  0  2  0  0  3  0  0  0  0  0  0
  161.5320  203.8980  149.9360 C   0  0  2  0  0  3  0  0  0  0  0  0
  161.5800  205.2600  152.7230 C   0  0  0  0  0  2  0  0  0  0  0  0
  161.6950  207.3850  151.3490 C   0  0  2  0  0  0  0  0  0  0  0  0
  162.9430  207.9870  151.4750 F   0  0  0  0  0  0  0  0  0  0  0  0
  161.3980  208.7590  153.4890 C   0  0  1  0  0  3  0  0  0  0  0  0
  160.4320  209.2930  152.4590 C   0  0  2  0  0  3  0  0  0  0  0  0
  160.3790  209.8100  153.8850 C   0  0  2  0  0  3  0  0  0  0  0  0
  160.7480  207.8080  152.4950 C   0  0  1  0  0  3  0  0  0  0  0  0
  161.1060  211.3200  155.3190 C   0  0  0  0  0  1  0  0  0  0  0  0
  160.9950  211.0590  153.9510 O   0  0  0  0  0  0  0  0  0  0  0  0
  161.0940  207.8370  150.0110 C   0  0  0  0  0  2  0  0  0  0  0  0
  162.1200  208.4870  149.0870 C   0  0  0  0  0  2  0  0  0  0  0  0
  161.9400  209.9640  149.0800 C   0  0  0  0  0  0  0  0  0  0  0  0
  161.5380  210.5460  148.0380 O   0  0  0  0  0  0  0  0  0  0  0  0
  162.2300  210.7030  150.2220 O   0  0  0  0  0  1  0  0  0  0  0  0
  160.9580  203.5490  148.5690 C   0  0  2  0  0  3  0  0  0  0  0  0
  160.2470  202.1910  148.5650 C   0  0  0  0  0  2  0  0  0  0  0  0
  161.1770  201.0070  148.8420 C   0  0  0  0  0  2  0  0  0  0  0  0
  161.7510  200.5400  147.6540 O   0  0  0  0  0  0  0  0  0  0  0  0
  160.6750  200.3040  146.7950 C   0  0  1  0  0  3  0  0  0  0  0  0
  161.3740  198.3020  145.3660 O   0  0  0  0  0  0  0  0  0  0  0  0
  160.8990  200.9190  145.5930 O   0  0  0  0  0  0  0  0  0  0  0  0
  161.0740  199.4460  145.7940 C   0  0  0  0  0  0  0  0  0  0  0  0
  162.0410  203.6400  147.4980 C   0  0  0  0  0  2  0  0  0  0  0  0
  161.5860  204.5200  146.3300 C   0  0  2  0  0  3  0  0  0  0  0  0
  163.7260  204.2830  145.5290 C   0  0  0  0  0  1  0  0  0  0  0  0
  162.3700  204.3590  145.1650 O   0  0  0  0  0  0  0  0  0  0  0  0
  161.4220  205.9840  146.7410 C   0  0  0  0  0  2  0  0  0  0  0  0
  160.0210  206.2250  145.1320 O   0  0  0  0  0  1  0  0  0  0  0  0
  160.1350  206.4230  146.4290 O   0  0  0  0  0  0  0  0  0  0  0  0
  1  5  1  0  0  0  0
  2  1  1  1  0  0  0
  2  5  1  0  0  0  0
  3  2  1  0  0  0  0
  3  4  1  0  0  0  0
  4  7  1  0  0  0  0
  5  7  1  0  0  0  0
  6  3  1  0  0  0  0
  6  2  1  0  0  0  0
  8  4  1  0  0  0  0
  8  9  1  0  0  0  0
  8 13  1  0  0  0  0
 10 12  1  0  0  0  0
 11 13  1  0  0  0  0
 11 10  1  0  0  0  0
 11 12  1  0  0  0  0
 12 15  1  0  0  0  0
 13 10  1  0  0  0  0
 15 14  1  0  0  0  0
 16  8  1  0  0  0  0
 17 16  1  0  0  0  0
 18 17  1  0  0  0  0
 18 20  1  0  0  0  0
 19 18  2  0  0  0  0
 21  6  1  0  0  0  0
 22 21  1  0  0  0  0
 22 23  1  0  0  0  0
 24 23  1  0  0  0  0
 25 24  1  0  0  0  0
 26 28  2  0  0  0  0
 27 28  1  0  0  0  0
 27 25  1  0  0  0  0
 28 25  1  0  0  0  0
 29 21  1  0  0  0  0
 30 33  1  0  0  0  0
 30 29  1  0  0  0  0
 32 31  1  0  0  0  0
 32 30  1  0  0  0  0
 34 35  1  0  0  0  0
 35 33  1  0  0  0  0
M  END
>  <MODEL>
3

>  <REMARK>
 VINA RESULT:      -7.0      1.437      3.377
  Name = 
  16 active torsions:
  status: ('A' for Active; 'I' for Inactive)
    1  A    between atoms: C_1  and  O_25
    2  A    between atoms: C_1  and  C_35
    3  A    between atoms: C_2  and  C_15
    4  A    between atoms: C_2  and  C_19
    5  A    between atoms: C_3  and  C_34
    6  A    between atoms: C_4  and  O_25
    7  A    between atoms: C_8  and  C_16
    8  A    between atoms: C_8  and  C_21
    9  A    between atoms: C_8  and  C_24
   10  A    between atoms: C_10  and  C_19
   11  A    between atoms: C_10  and  O_30
   12  A    between atoms: C_14  and  O_27
   13  A    between atoms: C_15  and  C_29
   14  A    between atoms: C_15  and  C_35
   15  A    between atoms: C_16  and  C_34
   16  A    between atoms: C_19  and  O_20
                            x       y       z     vdW  Elec       q    Type
                         _______ _______ _______ _____ _____    ______ ____

>  <TORSDO>
F 16

$$$$
=
 OpenBabel11072413063D

 35 40  0  0  1  0  0  0  0  0999 V2000
  160.7140  207.0690  154.4960 C   0  0  0  0  0  2  0  0  0  0  0  0
  161.6500  207.6080  153.4030 C   0  0  2  0  0  0  0  0  0  0  0  0
  161.4660  207.3700  151.8870 C   0  0  1  0  0  3  0  0  0  0  0  0
  160.7710  206.0450  151.6340 C   0  0  2  0  0  3  0  0  0  0  0  0
  161.6770  206.1350  153.8860 C   0  0  2  0  0  3  0  0  0  0  0  0
  160.5440  208.2900  152.5790 C   0  0  2  0  0  3  0  0  0  0  0  0
  160.9740  205.2340  152.8900 C   0  0  0  0  0  2  0  0  0  0  0  0
  161.3260  205.3320  150.3840 C   0  0  2  0  0  0  0  0  0  0  0  0
  162.5050  204.6780  150.7240 F   0  0  0  0  0  0  0  0  0  0  0  0
  161.9440  205.7310  147.9320 C   0  0  1  0  0  3  0  0  0  0  0  0
  160.5380  206.2400  148.1420 C   0  0  2  0  0  3  0  0  0  0  0  0
  161.2390  206.4810  146.8180 C   0  0  2  0  0  3  0  0  0  0  0  0
  161.5600  206.3660  149.2600 C   0  0  1  0  0  3  0  0  0  0  0  0
  161.9090  205.1630  145.1820 C   0  0  0  0  0  1  0  0  0  0  0  0
  160.7660  205.5760  145.8690 O   0  0  0  0  0  0  0  0  0  0  0  0
  160.3320  204.2710  149.8890 C   0  0  0  0  0  2  0  0  0  0  0  0
  160.7540  202.8490  150.2480 C   0  0  0  0  0  2  0  0  0  0  0  0
  160.9110  202.0340  149.0140 C   0  0  0  0  0  0  0  0  0  0  0  0
  161.0510  200.7850  149.0960 O   0  0  0  0  0  1  0  0  0  0  0  0
  160.9170  202.6540  147.7690 O   0  0  0  0  0  0  0  0  0  0  0  0
  160.9450  209.7250  152.2650 C   0  0  2  0  0  3  0  0  0  0  0  0
  162.1410  209.8000  151.3090 C   0  0  0  0  0  2  0  0  0  0  0  0
  161.9970  210.8700  150.2230 C   0  0  0  0  0  2  0  0  0  0  0  0
  162.0080  210.2890  148.9500 O   0  0  0  0  0  0  0  0  0  0  0  0
  161.6830  211.3260  148.0710 C   0  0  1  0  0  3  0  0  0  0  0  0
  163.8100  212.7300  147.8620 O   0  0  0  0  0  0  0  0  0  0  0  0
  161.3220  212.4380  148.7830 O   0  0  0  0  0  0  0  0  0  0  0  0
  162.6610  212.2940  148.1310 C   0  0  0  0  0  0  0  0  0  0  0  0
  161.1840  210.5060  153.5540 C   0  0  0  0  0  2  0  0  0  0  0  0
  160.1650  211.6370  153.7080 C   0  0  2  0  0  3  0  0  0  0  0  0
  160.1620  210.7110  155.8110 C   0  0  0  0  0  1  0  0  0  0  0  0
  159.6320  211.7420  155.0140 O   0  0  0  0  0  0  0  0  0  0  0  0
  159.0850  211.5930  152.6270 C   0  0  0  0  0  2  0  0  0  0  0  0
  159.8440  213.3720  151.6960 O   0  0  0  0  0  1  0  0  0  0  0  0
  158.7460  212.8890  152.2400 O   0  0  0  0  0  0  0  0  0  0  0  0
  2  5  1  0  0  0  0
  2  1  1  6  0  0  0
  3  6  1  0  0  0  0
  3  2  1  0  0  0  0
  4  3  1  0  0  0  0
  4  7  1  0  0  0  0
  5  1  1  0  0  0  0
  6  2  1  0  0  0  0
  7  5  1  0  0  0  0
  8  9  1  0  0  0  0
  8  4  1  0  0  0  0
 10 11  1  0  0  0  0
 10 13  1  0  0  0  0
 11 13  1  0  0  0  0
 12 10  1  0  0  0  0
 12 11  1  0  0  0  0
 13  8  1  0  0  0  0
 14 15  1  0  0  0  0
 15 12  1  0  0  0  0
 16 17  1  0  0  0  0
 16  8  1  0  0  0  0
 18 19  1  0  0  0  0
 18 17  1  0  0  0  0
 20 18  2  0  0  0  0
 21  6  1  0  0  0  0
 21 29  1  0  0  0  0
 22 21  1  0  0  0  0
 23 22  1  0  0  0  0
 24 23  1  0  0  0  0
 25 28  1  0  0  0  0
 25 27  1  0  0  0  0
 25 24  1  0  0  0  0
 26 28  2  0  0  0  0
 28 27  1  0  0  0  0
 29 30  1  0  0  0  0
 30 32  1  0  0  0  0
 32 31  1  0  0  0  0
 33 30  1  0  0  0  0
 34 35  1  0  0  0  0
 35 33  1  0  0  0  0
M  END
>  <MODEL>
4

>  <REMARK>
 VINA RESULT:      -7.0      1.848      8.040
  Name = 
  16 active torsions:
  status: ('A' for Active; 'I' for Inactive)
    1  A    between atoms: C_1  and  O_25
    2  A    between atoms: C_1  and  C_35
    3  A    between atoms: C_2  and  C_15
    4  A    between atoms: C_2  and  C_19
    5  A    between atoms: C_3  and  C_34
    6  A    between atoms: C_4  and  O_25
    7  A    between atoms: C_8  and  C_16
    8  A    between atoms: C_8  and  C_21
    9  A    between atoms: C_8  and  C_24
   10  A    between atoms: C_10  and  C_19
   11  A    between atoms: C_10  and  O_30
   12  A    between atoms: C_14  and  O_27
   13  A    between atoms: C_15  and  C_29
   14  A    between atoms: C_15  and  C_35
   15  A    between atoms: C_16  and  C_34
   16  A    between atoms: C_19  and  O_20
                            x       y       z     vdW  Elec       q    Type
                         _______ _______ _______ _____ _____    ______ ____

>  <TORSDO>
F 16

$$$$
=
 OpenBabel11072413063D

 35 40  0  0  1  0  0  0  0  0999 V2000
  161.2240  206.5970  153.7650 C   0  0  0  0  0  2  0  0  0  0  0  0
  161.9470  207.2430  152.5730 C   0  0  2  0  0  0  0  0  0  0  0  0
  161.4510  207.1980  151.1100 C   0  0  1  0  0  3  0  0  0  0  0  0
  160.6550  205.9310  150.8530 C   0  0  2  0  0  3  0  0  0  0  0  0
  161.9980  205.7220  152.8670 C   0  0  2  0  0  3  0  0  0  0  0  0
  160.7320  208.0480  152.0790 C   0  0  2  0  0  3  0  0  0  0  0  0
  161.0660  204.9670  151.9390 C   0  0  0  0  0  2  0  0  0  0  0  0
  160.9120  205.3650  149.4420 C   0  0  2  0  0  0  0  0  0  0  0  0
  159.7320  205.4230  148.7100 F   0  0  0  0  0  0  0  0  0  0  0  0
  160.4450  202.8800  149.0370 C   0  0  1  0  0  3  0  0  0  0  0  0
  161.6350  203.2700  148.1930 C   0  0  2  0  0  3  0  0  0  0  0  0
  161.2150  201.8140  148.2820 C   0  0  2  0  0  3  0  0  0  0  0  0
  161.4340  203.9140  149.5540 C   0  0  1  0  0  3  0  0  0  0  0  0
  161.1480  200.2960  146.6840 C   0  0  0  0  0  1  0  0  0  0  0  0
  160.5170  201.4590  147.1280 O   0  0  0  0  0  0  0  0  0  0  0  0
  161.9580  206.2170  148.7070 C   0  0  0  0  0  2  0  0  0  0  0  0
  161.3600  207.0380  147.5680 C   0  0  0  0  0  2  0  0  0  0  0  0
  161.4600  206.2880  146.2880 C   0  0  0  0  0  0  0  0  0  0  0  0
  162.5460  205.7420  145.9590 O   0  0  0  0  0  1  0  0  0  0  0  0
  160.3560  206.2010  145.4470 O   0  0  0  0  0  0  0  0  0  0  0  0
  161.1310  209.5010  151.8570 C   0  0  2  0  0  3  0  0  0  0  0  0
  162.1770  209.6550  150.7460 C   0  0  0  0  0  2  0  0  0  0  0  0
  161.9940  210.9180  149.8990 C   0  0  0  0  0  2  0  0  0  0  0  0
  162.0200  210.6070  148.5340 O   0  0  0  0  0  0  0  0  0  0  0  0
  161.4650  211.7200  147.8960 C   0  0  1  0  0  3  0  0  0  0  0  0
  163.3140  213.4860  147.8830 O   0  0  0  0  0  0  0  0  0  0  0  0
  160.9820  212.5960  148.8310 O   0  0  0  0  0  0  0  0  0  0  0  0
  162.2750  212.8140  148.1070 C   0  0  0  0  0  0  0  0  0  0  0  0
  161.5820  210.1350  153.1690 C   0  0  0  0  0  2  0  0  0  0  0  0
  160.4110  210.8190  153.8800 C   0  0  2  0  0  3  0  0  0  0  0  0
  160.3100  210.4150  156.1400 C   0  0  0  0  0  1  0  0  0  0  0  0
  159.8170  210.0190  154.8830 O   0  0  0  0  0  0  0  0  0  0  0  0
  159.3930  211.3920  152.8940 C   0  0  0  0  0  2  0  0  0  0  0  0
  158.9980  213.1620  154.0430 O   0  0  0  0  0  1  0  0  0  0  0  0
  158.3980  212.0820  153.5870 O   0  0  0  0  0  0  0  0  0  0  0  0
  2  5  1  0  0  0  0
  2  1  1  6  0  0  0
  3  6  1  0  0  0  0
  3  2  1  0  0  0  0
  4  3  1  0  0  0  0
  4  7  1  0  0  0  0
  5  1  1  0  0  0  0
  6  2  1  0  0  0  0
  7  5  1  0  0  0  0
  8 13  1  0  0  0  0
  8  4  1  0  0  0  0
  9  8  1  0  0  0  0
 10 13  1  0  0  0  0
 11 12  1  0  0  0  0
 11 10  1  0  0  0  0
 11 13  1  0  0  0  0
 12 10  1  0  0  0  0
 14 15  1  0  0  0  0
 15 12  1  0  0  0  0
 16  8  1  0  0  0  0
 17 16  1  0  0  0  0
 18 17  1  0  0  0  0
 19 18  1  0  0  0  0
 20 18  2  0  0  0  0
 21  6  1  0  0  0  0
 21 29  1  0  0  0  0
 22 21  1  0  0  0  0
 23 22  1  0  0  0  0
 24 23  1  0  0  0  0
 25 28  1  0  0  0  0
 25 24  1  0  0  0  0
 25 27  1  0  0  0  0
 26 28  2  0  0  0  0
 28 27  1  0  0  0  0
 29 30  1  0  0  0  0
 30 32  1  0  0  0  0
 32 31  1  0  0  0  0
 33 35  1  0  0  0  0
 33 30  1  0  0  0  0
 35 34  1  0  0  0  0
M  END
>  <MODEL>
5

>  <REMARK>
 VINA RESULT:      -6.9      1.571      8.503
  Name = 
  16 active torsions:
  status: ('A' for Active; 'I' for Inactive)
    1  A    between atoms: C_1  and  O_25
    2  A    between atoms: C_1  and  C_35
    3  A    between atoms: C_2  and  C_15
    4  A    between atoms: C_2  and  C_19
    5  A    between atoms: C_3  and  C_34
    6  A    between atoms: C_4  and  O_25
    7  A    between atoms: C_8  and  C_16
    8  A    between atoms: C_8  and  C_21
    9  A    between atoms: C_8  and  C_24
   10  A    between atoms: C_10  and  C_19
   11  A    between atoms: C_10  and  O_30
   12  A    between atoms: C_14  and  O_27
   13  A    between atoms: C_15  and  C_29
   14  A    between atoms: C_15  and  C_35
   15  A    between atoms: C_16  and  C_34
   16  A    between atoms: C_19  and  O_20
                            x       y       z     vdW  Elec       q    Type
                         _______ _______ _______ _____ _____    ______ ____

>  <TORSDO>
F 16

$$$$
=
 OpenBabel11072413063D

 35 40  0  0  1  0  0  0  0  0999 V2000
  161.5200  203.6340  151.8920 C   0  0  0  0  0  2  0  0  0  0  0  0
  160.6780  204.5670  151.0070 C   0  0  2  0  0  0  0  0  0  0  0  0
  161.0440  206.0300  150.6680 C   0  0  1  0  0  3  0  0  0  0  0  0
  161.8460  206.6560  151.7940 C   0  0  2  0  0  3  0  0  0  0  0  0
  160.6920  204.6570  152.5540 C   0  0  2  0  0  3  0  0  0  0  0  0
  161.8220  204.9400  150.0490 C   0  0  2  0  0  3  0  0  0  0  0  0
  161.5570  205.8140  153.0140 C   0  0  0  0  0  2  0  0  0  0  0  0
  161.4800  208.1380  152.0090 C   0  0  2  0  0  0  0  0  0  0  0  0
  160.1740  208.3470  151.5760 F   0  0  0  0  0  0  0  0  0  0  0  0
  162.1170  209.2110  149.7730 C   0  0  1  0  0  3  0  0  0  0  0  0
  161.8350  210.3230  150.7550 C   0  0  2  0  0  3  0  0  0  0  0  0
  162.3900  210.6510  149.3810 C   0  0  2  0  0  3  0  0  0  0  0  0
  162.4780  209.0340  151.2410 C   0  0  1  0  0  3  0  0  0  0  0  0
  161.9080  212.2300  147.9200 C   0  0  0  0  0  1  0  0  0  0  0  0
  161.3620  211.1170  148.5630 O   0  0  0  0  0  0  0  0  0  0  0  0
  161.5370  208.4920  153.5020 C   0  0  0  0  0  2  0  0  0  0  0  0
  160.3250  209.2920  153.9700 C   0  0  0  0  0  2  0  0  0  0  0  0
  160.5820  209.8750  155.3140 C   0  0  0  0  0  0  0  0  0  0  0  0
  159.6320  210.3540  155.9870 O   0  0  0  0  0  1  0  0  0  0  0  0
  161.8770  209.9020  155.8220 O   0  0  0  0  0  0  0  0  0  0  0  0
  161.3680  204.7620  148.6070 C   0  0  2  0  0  3  0  0  0  0  0  0
  160.6200  205.9900  148.0750 C   0  0  0  0  0  2  0  0  0  0  0  0
  161.2210  206.5710  146.7920 C   0  0  0  0  0  2  0  0  0  0  0  0
  160.3050  206.4970  145.7370 O   0  0  0  0  0  0  0  0  0  0  0  0
  160.6970  205.3840  144.9890 C   0  0  1  0  0  3  0  0  0  0  0  0
  163.1720  205.0400  145.5330 O   0  0  0  0  0  0  0  0  0  0  0  0
  161.2720  205.7940  143.8170 O   0  0  0  0  0  0  0  0  0  0  0  0
  162.0720  205.3040  144.9830 C   0  0  0  0  0  0  0  0  0  0  0  0
  160.5550  203.4790  148.4600 C   0  0  0  0  0  2  0  0  0  0  0  0
  161.3620  202.3960  147.7380 C   0  0  2  0  0  3  0  0  0  0  0  0
  160.4920  201.3210  145.9040 C   0  0  0  0  0  1  0  0  0  0  0  0
  161.2310  202.4390  146.3310 O   0  0  0  0  0  0  0  0  0  0  0  0
  161.1090  201.0040  148.3180 C   0  0  0  0  0  2  0  0  0  0  0  0
  160.2730  200.7470  150.2780 O   0  0  0  0  0  1  0  0  0  0  0  0
  161.4190  200.9930  149.6780 O   0  0  0  0  0  0  0  0  0  0  0  0
  1  5  1  0  0  0  0
  2  1  1  1  0  0  0
  2  5  1  0  0  0  0
  3  2  1  0  0  0  0
  3  4  1  0  0  0  0
  4  8  1  0  0  0  0
  4  7  1  0  0  0  0
  5  7  1  0  0  0  0
  6  3  1  0  0  0  0
  6  2  1  0  0  0  0
  8 16  1  0  0  0  0
  9  8  1  0  0  0  0
 10 11  1  0  0  0  0
 10 13  1  0  0  0  0
 11 13  1  0  0  0  0
 12 10  1  0  0  0  0
 12 11  1  0  0  0  0
 13  8  1  0  0  0  0
 14 15  1  0  0  0  0
 15 12  1  0  0  0  0
 16 17  1  0  0  0  0
 17 18  1  0  0  0  0
 18 20  2  0  0  0  0
 18 19  1  0  0  0  0
 21  6  1  0  0  0  0
 22 21  1  0  0  0  0
 23 22  1  0  0  0  0
 24 23  1  0  0  0  0
 25 24  1  0  0  0  0
 27 28  1  0  0  0  0
 27 25  1  0  0  0  0
 28 25  1  0  0  0  0
 28 26  2  0  0  0  0
 29 21  1  0  0  0  0
 30 33  1  0  0  0  0
 30 29  1  0  0  0  0
 31 32  1  0  0  0  0
 32 30  1  0  0  0  0
 33 35  1  0  0  0  0
 35 34  1  0  0  0  0
M  END
>  <MODEL>
6

>  <REMARK>
 VINA RESULT:      -6.8      1.011      3.253
  Name = 
  16 active torsions:
  status: ('A' for Active; 'I' for Inactive)
    1  A    between atoms: C_1  and  O_25
    2  A    between atoms: C_1  and  C_35
    3  A    between atoms: C_2  and  C_15
    4  A    between atoms: C_2  and  C_19
    5  A    between atoms: C_3  and  C_34
    6  A    between atoms: C_4  and  O_25
    7  A    between atoms: C_8  and  C_16
    8  A    between atoms: C_8  and  C_21
    9  A    between atoms: C_8  and  C_24
   10  A    between atoms: C_10  and  C_19
   11  A    between atoms: C_10  and  O_30
   12  A    between atoms: C_14  and  O_27
   13  A    between atoms: C_15  and  C_29
   14  A    between atoms: C_15  and  C_35
   15  A    between atoms: C_16  and  C_34
   16  A    between atoms: C_19  and  O_20
                            x       y       z     vdW  Elec       q    Type
                         _______ _______ _______ _____ _____    ______ ____

>  <TORSDO>
F 16

$$$$
=
 OpenBabel11072413063D

 35 40  0  0  1  0  0  0  0  0999 V2000
  160.7700  201.5320  150.5680 C   0  0  0  0  0  2  0  0  0  0  0  0
  160.4140  202.8250  149.8170 C   0  0  2  0  0  0  0  0  0  0  0  0
  161.2050  204.1500  149.9150 C   0  0  1  0  0  3  0  0  0  0  0  0
  161.8630  204.2800  151.2770 C   0  0  2  0  0  3  0  0  0  0  0  0
  160.1000  202.6090  151.3190 C   0  0  2  0  0  3  0  0  0  0  0  0
  161.8020  203.0170  149.1810 C   0  0  2  0  0  3  0  0  0  0  0  0
  161.1020  203.3450  152.1860 C   0  0  0  0  0  2  0  0  0  0  0  0
  161.8450  205.7340  151.7890 C   0  0  2  0  0  0  0  0  0  0  0  0
  163.1420  206.1130  152.1190 F   0  0  0  0  0  0  0  0  0  0  0  0
  161.5920  206.3610  154.2580 C   0  0  1  0  0  3  0  0  0  0  0  0
  160.7040  207.2800  153.4560 C   0  0  2  0  0  3  0  0  0  0  0  0
  160.6480  207.3100  154.9720 C   0  0  2  0  0  3  0  0  0  0  0  0
  160.9000  205.8420  153.0070 C   0  0  1  0  0  3  0  0  0  0  0  0
  161.5270  208.1620  156.8060 C   0  0  0  0  0  1  0  0  0  0  0  0
  161.3590  208.4130  155.4430 O   0  0  0  0  0  0  0  0  0  0  0  0
  161.3500  206.6820  150.6870 C   0  0  0  0  0  2  0  0  0  0  0  0
  162.4810  207.4610  150.0210 C   0  0  0  0  0  2  0  0  0  0  0  0
  161.9930  208.7930  149.5740 C   0  0  0  0  0  0  0  0  0  0  0  0
  161.9690  209.7600  150.3800 O   0  0  0  0  0  1  0  0  0  0  0  0
  161.5500  208.9660  148.2670 O   0  0  0  0  0  0  0  0  0  0  0  0
  161.6560  203.2620  147.6860 C   0  0  2  0  0  3  0  0  0  0  0  0
  161.4860  204.7490  147.3520 C   0  0  0  0  0  2  0  0  0  0  0  0
  162.7170  205.3770  146.6920 C   0  0  0  0  0  2  0  0  0  0  0  0
  162.3600  206.0480  145.5160 O   0  0  0  0  0  0  0  0  0  0  0  0
  161.4980  205.1760  144.8450 C   0  0  1  0  0  3  0  0  0  0  0  0
  161.5810  205.8950  142.3930 O   0  0  0  0  0  0  0  0  0  0  0  0
  160.2650  205.7570  144.7110 O   0  0  0  0  0  0  0  0  0  0  0  0
  161.2460  205.6700  143.5840 C   0  0  0  0  0  0  0  0  0  0  0  0
  160.5290  202.4070  147.1140 C   0  0  0  0  0  2  0  0  0  0  0  0
  161.0810  201.3070  146.2040 C   0  0  2  0  0  3  0  0  0  0  0  0
  159.3540  202.1410  144.9390 C   0  0  0  0  0  1  0  0  0  0  0  0
  160.4110  201.2130  144.9620 O   0  0  0  0  0  0  0  0  0  0  0  0
  161.1920  199.9630  146.9240 C   0  0  0  0  0  2  0  0  0  0  0  0
  161.1040  198.2820  145.5920 O   0  0  0  0  0  1  0  0  0  0  0  0
  161.9720  199.0840  146.1730 O   0  0  0  0  0  0  0  0  0  0  0  0
  1  5  1  0  0  0  0
  2  3  1  0  0  0  0
  2  1  1  1  0  0  0
  2  5  1  0  0  0  0
  3  4  1  0  0  0  0
  4  8  1  0  0  0  0
  4  7  1  0  0  0  0
  5  7  1  0  0  0  0
  6  2  1  0  0  0  0
  6  3  1  0  0  0  0
  8  9  1  0  0  0  0
  8 13  1  0  0  0  0
 10 12  1  0  0  0  0
 11 10  1  0  0  0  0
 11 12  1  0  0  0  0
 12 15  1  0  0  0  0
 13 11  1  0  0  0  0
 13 10  1  0  0  0  0
 15 14  1  0  0  0  0
 16  8  1  0  0  0  0
 17 16  1  0  0  0  0
 18 17  1  0  0  0  0
 18 19  1  0  0  0  0
 20 18  2  0  0  0  0
 21  6  1  0  0  0  0
 22 21  1  0  0  0  0
 23 22  1  0  0  0  0
 24 23  1  0  0  0  0
 25 24  1  0  0  0  0
 26 28  2  0  0  0  0
 27 25  1  0  0  0  0
 28 27  1  0  0  0  0
 28 25  1  0  0  0  0
 29 21  1  0  0  0  0
 30 33  1  0  0  0  0
 30 29  1  0  0  0  0
 31 32  1  0  0  0  0
 32 30  1  0  0  0  0
 34 35  1  0  0  0  0
 35 33  1  0  0  0  0
M  END
>  <MODEL>
7

>  <REMARK>
 VINA RESULT:      -6.7      1.860      5.076
  Name = 
  16 active torsions:
  status: ('A' for Active; 'I' for Inactive)
    1  A    between atoms: C_1  and  O_25
    2  A    between atoms: C_1  and  C_35
    3  A    between atoms: C_2  and  C_15
    4  A    between atoms: C_2  and  C_19
    5  A    between atoms: C_3  and  C_34
    6  A    between atoms: C_4  and  O_25
    7  A    between atoms: C_8  and  C_16
    8  A    between atoms: C_8  and  C_21
    9  A    between atoms: C_8  and  C_24
   10  A    between atoms: C_10  and  C_19
   11  A    between atoms: C_10  and  O_30
   12  A    between atoms: C_14  and  O_27
   13  A    between atoms: C_15  and  C_29
   14  A    between atoms: C_15  and  C_35
   15  A    between atoms: C_16  and  C_34
   16  A    between atoms: C_19  and  O_20
                            x       y       z     vdW  Elec       q    Type
                         _______ _______ _______ _____ _____    ______ ____

>  <TORSDO>
F 16

$$$$
=
 OpenBabel11072413063D

 35 40  0  0  1  0  0  0  0  0999 V2000
  160.5040  203.9110  152.2490 C   0  0  0  0  0  2  0  0  0  0  0  0
  161.5160  204.6930  151.3970 C   0  0  2  0  0  0  0  0  0  0  0  0
  161.4880  204.7830  149.8530 C   0  0  1  0  0  3  0  0  0  0  0  0
  160.8780  203.5290  149.2550 C   0  0  2  0  0  3  0  0  0  0  0  0
  161.5600  203.1510  151.5560 C   0  0  2  0  0  3  0  0  0  0  0  0
  160.4650  205.5120  150.6280 C   0  0  2  0  0  3  0  0  0  0  0  0
  160.9950  202.4710  150.3250 C   0  0  0  0  0  2  0  0  0  0  0  0
  161.5790  203.1140  147.9460 C   0  0  2  0  0  0  0  0  0  0  0  0
  162.5620  202.1750  148.2390 F   0  0  0  0  0  0  0  0  0  0  0  0
  162.1160  204.3070  145.7450 C   0  0  1  0  0  3  0  0  0  0  0  0
  161.1340  205.1640  146.5070 C   0  0  2  0  0  3  0  0  0  0  0  0
  161.7590  205.6870  145.2260 C   0  0  2  0  0  3  0  0  0  0  0  0
  162.1810  204.3640  147.2640 C   0  0  1  0  0  3  0  0  0  0  0  0
  161.5890  205.8540  143.0350 C   0  0  0  0  0  1  0  0  0  0  0  0
  160.8430  205.5740  144.1810 O   0  0  0  0  0  0  0  0  0  0  0  0
  160.5770  202.4550  146.9880 C   0  0  0  0  0  2  0  0  0  0  0  0
  160.5480  200.9340  147.1120 C   0  0  0  0  0  2  0  0  0  0  0  0
  160.5980  200.3090  145.7640 C   0  0  0  0  0  0  0  0  0  0  0  0
  160.0840  200.8960  144.7760 O   0  0  0  0  0  0  0  0  0  0  0  0
  161.2020  199.0670  145.5970 O   0  0  0  0  0  1  0  0  0  0  0  0
  160.8310  206.9890  150.6680 C   0  0  2  0  0  3  0  0  0  0  0  0
  161.2380  207.5270  149.2910 C   0  0  0  0  0  2  0  0  0  0  0  0
  162.0660  208.8140  149.3510 C   0  0  0  0  0  2  0  0  0  0  0  0
  161.6060  209.7430  148.4100 O   0  0  0  0  0  0  0  0  0  0  0  0
  162.3600  210.8970  148.6390 C   0  0  1  0  0  3  0  0  0  0  0  0
  160.8370  212.4440  149.9900 O   0  0  0  0  0  0  0  0  0  0  0  0
  162.0570  211.8410  147.6940 O   0  0  0  0  0  0  0  0  0  0  0  0
  161.5290  211.8970  149.0930 C   0  0  0  0  0  0  0  0  0  0  0  0
  161.8980  207.2450  151.7290 C   0  0  0  0  0  2  0  0  0  0  0  0
  161.3230  208.0340  152.9080 C   0  0  2  0  0  3  0  0  0  0  0  0
  160.9480  207.4090  155.0860 C   0  0  0  0  0  1  0  0  0  0  0  0
  160.5050  207.2580  153.7600 O   0  0  0  0  0  0  0  0  0  0  0  0
  160.6530  209.3340  152.4600 C   0  0  0  0  0  2  0  0  0  0  0  0
  161.0910  210.8940  153.8680 O   0  0  0  0  0  1  0  0  0  0  0  0
  161.4990  210.4150  152.7120 O   0  0  0  0  0  0  0  0  0  0  0  0
  2  5  1  0  0  0  0
  2  1  1  6  0  0  0
  3  6  1  0  0  0  0
  3  2  1  0  0  0  0
  4  3  1  0  0  0  0
  4  7  1  0  0  0  0
  5  1  1  0  0  0  0
  6 21  1  0  0  0  0
  6  2  1  0  0  0  0
  7  5  1  0  0  0  0
  8  9  1  0  0  0  0
  8  4  1  0  0  0  0
 10 11  1  0  0  0  0
 10 13  1  0  0  0  0
 11 13  1  0  0  0  0
 12 10  1  0  0  0  0
 12 11  1  0  0  0  0
 13  8  1  0  0  0  0
 14 15  1  0  0  0  0
 15 12  1  0  0  0  0
 16 17  1  0  0  0  0
 16  8  1  0  0  0  0
 18 17  1  0  0  0  0
 19 18  2  0  0  0  0
 20 18  1  0  0  0  0
 21 29  1  0  0  0  0
 22 23  1  0  0  0  0
 22 21  1  0  0  0  0
 24 25  1  0  0  0  0
 24 23  1  0  0  0  0
 25 28  1  0  0  0  0
 27 25  1  0  0  0  0
 27 28  1  0  0  0  0
 28 26  2  0  0  0  0
 29 30  1  0  0  0  0
 30 32  1  0  0  0  0
 32 31  1  0  0  0  0
 33 35  1  0  0  0  0
 33 30  1  0  0  0  0
 35 34  1  0  0  0  0
M  END
>  <MODEL>
8

>  <REMARK>
 VINA RESULT:      -6.5      2.009      8.395
  Name = 
  16 active torsions:
  status: ('A' for Active; 'I' for Inactive)
    1  A    between atoms: C_1  and  O_25
    2  A    between atoms: C_1  and  C_35
    3  A    between atoms: C_2  and  C_15
    4  A    between atoms: C_2  and  C_19
    5  A    between atoms: C_3  and  C_34
    6  A    between atoms: C_4  and  O_25
    7  A    between atoms: C_8  and  C_16
    8  A    between atoms: C_8  and  C_21
    9  A    between atoms: C_8  and  C_24
   10  A    between atoms: C_10  and  C_19
   11  A    between atoms: C_10  and  O_30
   12  A    between atoms: C_14  and  O_27
   13  A    between atoms: C_15  and  C_29
   14  A    between atoms: C_15  and  C_35
   15  A    between atoms: C_16  and  C_34
   16  A    between atoms: C_19  and  O_20
                            x       y       z     vdW  Elec       q    Type
                         _______ _______ _______ _____ _____    ______ ____

>  <TORSDO>
F 16

$$$$
=
 OpenBabel11072413063D

 35 40  0  0  1  0  0  0  0  0999 V2000
  162.1530  205.4010  152.6730 C   0  0  0  0  0  2  0  0  0  0  0  0
  161.0870  206.2150  151.9230 C   0  0  2  0  0  0  0  0  0  0  0  0
  160.9870  207.7580  151.9310 C   0  0  1  0  0  3  0  0  0  0  0  0
  161.5210  208.3220  153.2360 C   0  0  2  0  0  3  0  0  0  0  0  0
  161.0280  205.9530  153.4490 C   0  0  2  0  0  3  0  0  0  0  0  0
  162.0850  207.1200  151.1790 C   0  0  2  0  0  3  0  0  0  0  0  0
  161.4750  207.1790  154.2200 C   0  0  0  0  0  2  0  0  0  0  0  0
  160.7040  209.5380  153.7150 C   0  0  2  0  0  0  0  0  0  0  0  0
  159.6700  209.0940  154.5320 F   0  0  0  0  0  0  0  0  0  0  0  0
  158.9390  211.1590  152.8120 C   0  0  1  0  0  3  0  0  0  0  0  0
  160.2900  211.8170  152.6620 C   0  0  2  0  0  3  0  0  0  0  0  0
  159.0580  212.4760  152.0700 C   0  0  2  0  0  3  0  0  0  0  0  0
  160.1620  210.3120  152.4920 C   0  0  1  0  0  3  0  0  0  0  0  0
  157.4700  213.9880  152.3040 C   0  0  0  0  0  1  0  0  0  0  0  0
  158.6450  213.5200  152.8970 O   0  0  0  0  0  0  0  0  0  0  0  0
  161.5860  210.4780  154.5510 C   0  0  0  0  0  2  0  0  0  0  0  0
  161.1730  210.5290  156.0190 C   0  0  0  0  0  2  0  0  0  0  0  0
  160.2870  211.6990  156.2620 C   0  0  0  0  0  0  0  0  0  0  0  0
  160.7850  212.8430  156.4360 O   0  0  0  0  0  1  0  0  0  0  0  0
  158.9080  211.5260  156.3110 O   0  0  0  0  0  0  0  0  0  0  0  0
  161.7510  207.1460  149.6940 C   0  0  2  0  0  3  0  0  0  0  0  0
  161.2270  208.5140  149.2380 C   0  0  0  0  0  2  0  0  0  0  0  0
  162.3290  209.4780  148.7910 C   0  0  0  0  0  2  0  0  0  0  0  0
  161.7790  210.6010  148.1630 O   0  0  0  0  0  0  0  0  0  0  0  0
  162.0300  211.6660  149.0330 C   0  0  1  0  0  3  0  0  0  0  0  0
  160.2260  213.4030  148.5160 O   0  0  0  0  0  0  0  0  0  0  0  0
  162.7740  212.6200  148.3930 O   0  0  0  0  0  0  0  0  0  0  0  0
  161.3030  212.7630  148.6270 C   0  0  0  0  0  0  0  0  0  0  0  0
  160.7920  206.0120  149.3440 C   0  0  0  0  0  2  0  0  0  0  0  0
  161.4320  205.0390  148.3510 C   0  0  2  0  0  3  0  0  0  0  0  0
  162.1980  205.7260  146.2960 C   0  0  0  0  0  1  0  0  0  0  0  0
  161.0670  205.2850  147.0070 O   0  0  0  0  0  0  0  0  0  0  0  0
  161.2350  203.5800  148.7640 C   0  0  0  0  0  2  0  0  0  0  0  0
  160.5660  201.6460  148.1140 O   0  0  0  0  0  1  0  0  0  0  0  0
  160.9990  202.7940  147.6360 O   0  0  0  0  0  0  0  0  0  0  0  0
  1  5  1  0  0  0  0
  2  3  1  0  0  0  0
  2  1  1  1  0  0  0
  2  5  1  0  0  0  0
  3  4  1  0  0  0  0
  4  8  1  0  0  0  0
  4  7  1  0  0  0  0
  5  7  1  0  0  0  0
  6  2  1  0  0  0  0
  6  3  1  0  0  0  0
  8  9  1  0  0  0  0
  8 16  1  0  0  0  0
 11 10  1  0  0  0  0
 12 11  1  0  0  0  0
 12 10  1  0  0  0  0
 12 15  1  0  0  0  0
 13 11  1  0  0  0  0
 13 10  1  0  0  0  0
 13  8  1  0  0  0  0
 14 15  1  0  0  0  0
 16 17  1  0  0  0  0
 17 18  1  0  0  0  0
 18 20  2  0  0  0  0
 18 19  1  0  0  0  0
 21  6  1  0  0  0  0
 22 21  1  0  0  0  0
 23 22  1  0  0  0  0
 24 23  1  0  0  0  0
 24 25  1  0  0  0  0
 26 28  2  0  0  0  0
 27 28  1  0  0  0  0
 27 25  1  0  0  0  0
 28 25  1  0  0  0  0
 29 21  1  0  0  0  0
 30 33  1  0  0  0  0
 30 29  1  0  0  0  0
 31 32  1  0  0  0  0
 32 30  1  0  0  0  0
 35 34  1  0  0  0  0
 35 33  1  0  0  0  0
M  END
>  <MODEL>
9

>  <REMARK>
 VINA RESULT:      -6.3      1.948      5.314
  Name = 
  16 active torsions:
  status: ('A' for Active; 'I' for Inactive)
    1  A    between atoms: C_1  and  O_25
    2  A    between atoms: C_1  and  C_35
    3  A    between atoms: C_2  and  C_15
    4  A    between atoms: C_2  and  C_19
    5  A    between atoms: C_3  and  C_34
    6  A    between atoms: C_4  and  O_25
    7  A    between atoms: C_8  and  C_16
    8  A    between atoms: C_8  and  C_21
    9  A    between atoms: C_8  and  C_24
   10  A    between atoms: C_10  and  C_19
   11  A    between atoms: C_10  and  O_30
   12  A    between atoms: C_14  and  O_27
   13  A    between atoms: C_15  and  C_29
   14  A    between atoms: C_15  and  C_35
   15  A    between atoms: C_16  and  C_34
   16  A    between atoms: C_19  and  O_20
                            x       y       z     vdW  Elec       q    Type
                         _______ _______ _______ _____ _____    ______ ____

>  <TORSDO>
F 16

$$$$
