=
 OpenBabel11072411313D

 52 54  0  0  1  0  0  0  0  0999 V2000
  162.0730  211.7530  148.8390 C   0  0  0  0  0  0  0  0  0  0  0  0
  162.1360  212.1750  147.6100 C   0  0  0  0  0  3  0  0  0  0  0  0
  162.0280  211.2780  150.0570 C   0  0  0  0  0  3  0  0  0  0  0  0
  161.4100  207.1470  150.8930 C   0  0  0  0  0  0  0  0  0  0  0  0
  161.1680  208.0940  151.8370 N   0  0  0  0  0  0  0  0  0  0  0  0
  162.2020  206.4630  148.6110 C   0  0  2  0  0  3  0  0  0  0  0  0
  161.8350  207.5250  149.6120 C   0  0  0  0  0  0  0  0  0  0  0  0
  161.9960  206.9360  147.3130 O   0  0  0  0  0  1  0  0  0  0  0  0
  162.0350  208.8790  149.3400 C   0  0  0  0  0  3  0  0  0  0  0  0
  161.3310  209.4240  151.5820 C   0  0  0  0  0  0  0  0  0  0  0  0
  161.4060  205.1560  148.8360 C   0  0  2  0  0  0  0  0  0  0  0  0
  161.7740  209.8470  150.3170 C   0  0  0  0  0  0  0  0  0  0  0  0
  160.1190  205.3020  148.3370 F   0  0  0  0  0  0  0  0  0  0  0  0
  161.2640  205.7590  151.2160 N   0  0  0  0  0  0  0  0  0  0  0  0
  161.2980  204.8300  150.3060 C   0  0  0  0  0  3  0  0  0  0  0  0
  162.0520  204.0570  148.1920 O   0  0  0  0  0  0  0  0  0  0  0  0
  161.0920  203.7360  146.1220 O   0  0  0  0  0  0  0  0  0  0  0  0
  161.4130  203.2550  147.2450 C   0  0  0  0  0  0  0  0  0  0  0  0
  161.0060  201.8610  147.5890 C   0  0  0  0  0  2  0  0  0  0  0  0
  160.8850  201.1470  149.9500 C   0  0  0  0  0  1  0  0  0  0  0  0
  160.1450  201.8610  148.8380 C   0  0  0  0  0  2  0  0  0  0  0  0
  161.0830  210.3590  152.5860 O   0  0  0  0  0  0  0  0  0  0  0  0
  161.9310  210.4730  153.6690 N   0  0  0  0  0  2  0  0  0  0  0  0
  161.1570  210.9170  154.8270 C   0  0  0  0  0  2  0  0  0  0  0  0
  159.8000  210.2140  154.9340 C   0  0  1  0  0  3  0  0  0  0  0  0
  160.5900  209.3200  156.8940 O   0  0  0  0  0  0  0  0  0  0  0  0
  159.8650  209.1930  155.9510 N   0  0  0  0  0  0  0  0  0  0  0  0
  158.6370  211.1770  155.1950 C   0  0  0  0  0  2  0  0  0  0  0  0
  158.7680  212.4820  154.4200 C   0  0  0  0  0  1  0  0  0  0  0  0
  162.0540  213.6070  147.2880 C   0  0  0  0  0  3  0  0  0  0  0  0
  161.9750  214.0320  146.0650 N   0  0  0  0  0  0  0  0  0  0  0  0
  161.9470  213.1490  144.9000 C   0  0  2  0  0  3  0  0  0  0  0  0
  163.2140  213.1150  144.3090 O   0  0  0  0  0  1  0  0  0  0  0  0
  160.9060  213.6180  143.8750 C   0  0  2  0  0  3  0  0  0  0  0  0
  159.5880  213.9480  144.5810 C   0  0  0  0  0  2  0  0  0  0  0  0
  158.7820  212.7090  144.9300 C   0  0  0  0  0  2  0  0  0  0  0  0
  158.6280  212.5820  147.3190 O   0  0  0  0  0  1  0  0  0  0  0  0
  157.9230  212.9270  146.1640 C   0  0  0  0  0  2  0  0  0  0  0  0
  160.6800  212.6040  142.9280 O   0  0  0  0  0  0  0  0  0  0  0  0
  160.4220  213.2400  141.7040 C   0  0  2  0  0  3  0  0  0  0  0  0
  159.1130  212.9840  141.2900 O   0  0  0  0  0  1  0  0  0  0  0  0
  161.9310  209.2390  139.7940 C   0  0  0  0  0  1  0  0  0  0  0  0
  161.4060  212.7540  140.6440 C   0  0  1  0  0  3  0  0  0  0  0  0
  161.5070  210.6830  139.5710 C   0  0  2  0  0  0  0  0  0  0  0  0
  162.6090  213.4620  140.7750 O   0  0  0  0  0  0  0  0  0  0  0  0
  162.3880  211.2390  138.4390 C   0  0  0  0  0  2  0  0  0  0  0  0
  162.9130  213.9200  139.4900 C   0  0  0  0  0  2  0  0  0  0  0  0
  164.0450  213.0970  138.8690 C   0  0  0  0  0  2  0  0  0  0  0  0
  163.7910  211.5920  138.9270 C   0  0  0  0  0  2  0  0  0  0  0  0
  161.6550  211.3750  140.8050 O   0  0  0  0  0  0  0  0  0  0  0  0
  160.0490  210.6880  139.0940 C   0  0  0  0  0  2  0  0  0  0  0  0
  159.5960  209.3850  138.8590 O   0  0  0  0  0  1  0  0  0  0  0  0
  1  3  2  0  0  0  0
  2  1  2  0  0  0  0
  3 12  1  0  0  0  0
  4 14  1  0  0  0  0
  4  5  1  0  0  0  0
  6  8  1  6  0  0  0
  6 11  1  0  0  0  0
  6  7  1  0  0  0  0
  7  4  2  0  0  0  0
  9  7  1  0  0  0  0
  9 12  2  0  0  0  0
 10  5  2  0  0  0  0
 10 22  1  0  0  0  0
 11 13  1  6  0  0  0
 11 15  1  0  0  0  0
 12 10  1  0  0  0  0
 15 14  2  0  0  0  0
 16 11  1  0  0  0  0
 17 18  2  0  0  0  0
 18 19  1  0  0  0  0
 18 16  1  0  0  0  0
 19 21  1  0  0  0  0
 21 20  1  0  0  0  0
 22 23  1  0  0  0  0
 23 24  1  0  0  0  0
 25 24  1  1  0  0  0
 25 28  1  0  0  0  0
 25 27  1  0  0  0  0
 27 26  2  0  0  0  0
 29 28  1  0  0  0  0
 30  2  1  0  0  0  0
 31 30  2  0  0  0  0
 32 33  1  6  0  0  0
 32 31  1  0  0  0  0
 34 35  1  1  0  0  0
 34 32  1  0  0  0  0
 35 36  1  0  0  0  0
 36 38  1  0  0  0  0
 38 37  1  0  0  0  0
 39 34  1  0  0  0  0
 40 41  1  6  0  0  0
 40 39  1  0  0  0  0
 43 45  1  0  0  0  0
 43 50  1  0  0  0  0
 43 40  1  1  0  0  0
 44 42  1  1  0  0  0
 44 50  1  0  0  0  0
 46 49  1  0  0  0  0
 46 44  1  0  0  0  0
 47 45  1  0  0  0  0
 48 49  1  0  0  0  0
 48 47  1  0  0  0  0
 51 44  1  0  0  0  0
 52 51  1  0  0  0  0
M  END
>  <MODEL>
1

>  <REMARK>
 VINA RESULT:      -6.9      0.000      0.000
  Name = 
  21 active torsions:
  status: ('A' for Active; 'I' for Inactive)
    1  A    between atoms: C_1  and  C_30
    2  A    between atoms: C_1  and  N_38
    3  A    between atoms: C_6  and  C_28
    4  A    between atoms: C_6  and  C_36
    5  A    between atoms: N_8  and  O_45
    6  A    between atoms: N_8  and  C_49
    7  A    between atoms: C_9  and  C_14
    8  A    between atoms: C_10  and  C_21
    9  A    between atoms: C_10  and  O_47
   10  A    between atoms: O_13  and  C_36
   11  A    between atoms: O_13  and  C_37
   12  A    between atoms: C_14  and  C_32
   13  A    between atoms: C_15  and  C_29
   14  A    between atoms: C_16  and  C_42
   15  A    between atoms: C_18  and  C_25
   16  A    between atoms: N_22  and  C_42
   17  A    between atoms: C_30  and  C_32
   18  A    between atoms: C_30  and  O_47
   19  A    between atoms: C_31  and  O_45
   20  A    between atoms: C_33  and  C_40
   21  A    between atoms: C_42  and  C_49
                            x       y       z     vdW  Elec       q    Type
                         _______ _______ _______ _____ _____    ______ ____

>  <TORSDO>
F 21

$$$$
=
 OpenBabel11072411313D

 52 54  0  0  1  0  0  0  0  0999 V2000
  161.6190  211.9180  148.6690 C   0  0  0  0  0  0  0  0  0  0  0  0
  160.8260  212.5330  147.8410 C   0  0  0  0  0  3  0  0  0  0  0  0
  162.3930  211.2510  149.4850 C   0  0  0  0  0  3  0  0  0  0  0  0
  161.2820  207.5420  151.2620 C   0  0  0  0  0  0  0  0  0  0  0  0
  161.1370  208.7110  151.9390 N   0  0  0  0  0  0  0  0  0  0  0  0
  162.0260  206.2400  149.2490 C   0  0  2  0  0  3  0  0  0  0  0  0
  161.7700  207.5480  149.9480 C   0  0  0  0  0  0  0  0  0  0  0  0
  161.8980  206.4020  147.8670 O   0  0  0  0  0  1  0  0  0  0  0  0
  162.1310  208.7640  149.3680 C   0  0  0  0  0  3  0  0  0  0  0  0
  161.4590  209.9130  151.3780 C   0  0  0  0  0  0  0  0  0  0  0  0
  161.0790  205.1230  149.7460 C   0  0  2  0  0  0  0  0  0  0  0  0
  161.9690  209.9640  150.0710 C   0  0  0  0  0  0  0  0  0  0  0  0
  159.8260  205.2820  149.1700 F   0  0  0  0  0  0  0  0  0  0  0  0
  160.9690  206.2990  151.9020 N   0  0  0  0  0  0  0  0  0  0  0  0
  160.9090  205.1790  151.2450 C   0  0  0  0  0  3  0  0  0  0  0  0
  161.6020  203.8350  149.4140 O   0  0  0  0  0  0  0  0  0  0  0  0
  160.0760  202.1430  149.0740 O   0  0  0  0  0  0  0  0  0  0  0  0
  160.9280  202.9370  148.5850 C   0  0  0  0  0  0  0  0  0  0  0  0
  161.2850  202.8300  147.1410 C   0  0  0  0  0  2  0  0  0  0  0  0
  160.1710  201.6890  145.2550 C   0  0  0  0  0  1  0  0  0  0  0  0
  160.8510  201.4840  146.5940 C   0  0  0  0  0  2  0  0  0  0  0  0
  161.3050  211.0860  152.1170 O   0  0  0  0  0  0  0  0  0  0  0  0
  160.0640  211.4700  152.5820 N   0  0  0  0  0  2  0  0  0  0  0  0
  160.1760  211.7980  154.0020 C   0  0  0  0  0  2  0  0  0  0  0  0
  159.2590  212.9550  154.4140 C   0  0  1  0  0  3  0  0  0  0  0  0
  157.1380  212.1100  154.1750 O   0  0  0  0  0  0  0  0  0  0  0  0
  157.9900  212.8280  153.7390 N   0  0  0  0  0  0  0  0  0  0  0  0
  159.0660  213.0650  155.9300 C   0  0  0  0  0  2  0  0  0  0  0  0
  160.2860  212.6010  156.7140 C   0  0  0  0  0  1  0  0  0  0  0  0
  161.0330  213.9450  147.4890 C   0  0  0  0  0  3  0  0  0  0  0  0
  161.0780  214.3460  146.2560 N   0  0  0  0  0  0  0  0  0  0  0  0
  160.9160  213.4560  145.1080 C   0  0  2  0  0  3  0  0  0  0  0  0
  162.1410  213.3200  144.4460 O   0  0  0  0  0  1  0  0  0  0  0  0
  159.8560  213.9920  144.1370 C   0  0  2  0  0  3  0  0  0  0  0  0
  158.6180  214.4500  144.9150 C   0  0  0  0  0  2  0  0  0  0  0  0
  157.5910  213.3440  145.0900 C   0  0  0  0  0  2  0  0  0  0  0  0
  157.6800  214.0390  147.3830 O   0  0  0  0  0  1  0  0  0  0  0  0
  157.4390  212.9460  146.5480 C   0  0  0  0  0  2  0  0  0  0  0  0
  159.4840  212.9810  143.2330 O   0  0  0  0  0  0  0  0  0  0  0  0
  159.6910  213.4930  141.9430 C   0  0  2  0  0  3  0  0  0  0  0  0
  158.4890  213.9560  141.4050 O   0  0  0  0  0  1  0  0  0  0  0  0
  158.2840  210.1110  139.0250 C   0  0  0  0  0  1  0  0  0  0  0  0
  160.2810  212.4140  141.0410 C   0  0  1  0  0  3  0  0  0  0  0  0
  159.2670  211.2390  139.2960 C   0  0  2  0  0  0  0  0  0  0  0  0
  161.3260  211.7690  141.7190 O   0  0  0  0  0  0  0  0  0  0  0  0
  160.6230  210.8010  138.7160 C   0  0  0  0  0  2  0  0  0  0  0  0
  162.4030  211.7700  140.8290 C   0  0  0  0  0  2  0  0  0  0  0  0
  162.6100  210.3800  140.2190 C   0  0  0  0  0  2  0  0  0  0  0  0
  161.3340  209.7950  139.6180 C   0  0  0  0  0  2  0  0  0  0  0  0
  159.2920  211.4680  140.7000 O   0  0  0  0  0  0  0  0  0  0  0  0
  158.7950  212.4820  138.5320 C   0  0  0  0  0  2  0  0  0  0  0  0
  157.6510  212.1990  137.7770 O   0  0  0  0  0  1  0  0  0  0  0  0
  1  3  2  0  0  0  0
  2  1  2  0  0  0  0
  3 12  1  0  0  0  0
  4 14  1  0  0  0  0
  4  5  1  0  0  0  0
  6  8  1  6  0  0  0
  6 11  1  0  0  0  0
  6  7  1  0  0  0  0
  7  4  2  0  0  0  0
  9  7  1  0  0  0  0
  9 12  2  0  0  0  0
 10  5  2  0  0  0  0
 10 22  1  0  0  0  0
 11 13  1  6  0  0  0
 11 15  1  0  0  0  0
 12 10  1  0  0  0  0
 15 14  2  0  0  0  0
 16 11  1  0  0  0  0
 18 17  2  0  0  0  0
 18 16  1  0  0  0  0
 19 18  1  0  0  0  0
 20 21  1  0  0  0  0
 21 19  1  0  0  0  0
 22 23  1  0  0  0  0
 23 24  1  0  0  0  0
 25 24  1  1  0  0  0
 25 28  1  0  0  0  0
 27 26  2  0  0  0  0
 27 25  1  0  0  0  0
 28 29  1  0  0  0  0
 30  2  1  0  0  0  0
 31 30  2  0  0  0  0
 32 33  1  6  0  0  0
 32 31  1  0  0  0  0
 34 35  1  1  0  0  0
 34 32  1  0  0  0  0
 35 36  1  0  0  0  0
 36 38  1  0  0  0  0
 38 37  1  0  0  0  0
 39 34  1  0  0  0  0
 40 41  1  6  0  0  0
 40 39  1  0  0  0  0
 43 45  1  0  0  0  0
 43 40  1  1  0  0  0
 44 42  1  6  0  0  0
 44 50  1  0  0  0  0
 46 44  1  0  0  0  0
 46 49  1  0  0  0  0
 47 45  1  0  0  0  0
 48 47  1  0  0  0  0
 49 48  1  0  0  0  0
 50 43  1  0  0  0  0
 51 44  1  0  0  0  0
 52 51  1  0  0  0  0
M  END
>  <MODEL>
2

>  <REMARK>
 VINA RESULT:      -5.9      1.665      2.102
  Name = 
  21 active torsions:
  status: ('A' for Active; 'I' for Inactive)
    1  A    between atoms: C_1  and  C_30
    2  A    between atoms: C_1  and  N_38
    3  A    between atoms: C_6  and  C_28
    4  A    between atoms: C_6  and  C_36
    5  A    between atoms: N_8  and  O_45
    6  A    between atoms: N_8  and  C_49
    7  A    between atoms: C_9  and  C_14
    8  A    between atoms: C_10  and  C_21
    9  A    between atoms: C_10  and  O_47
   10  A    between atoms: O_13  and  C_36
   11  A    between atoms: O_13  and  C_37
   12  A    between atoms: C_14  and  C_32
   13  A    between atoms: C_15  and  C_29
   14  A    between atoms: C_16  and  C_42
   15  A    between atoms: C_18  and  C_25
   16  A    between atoms: N_22  and  C_42
   17  A    between atoms: C_30  and  C_32
   18  A    between atoms: C_30  and  O_47
   19  A    between atoms: C_31  and  O_45
   20  A    between atoms: C_33  and  C_40
   21  A    between atoms: C_42  and  C_49
                            x       y       z     vdW  Elec       q    Type
                         _______ _______ _______ _____ _____    ______ ____

>  <TORSDO>
F 21

$$$$
=
 OpenBabel11072411313D

 52 54  0  0  1  0  0  0  0  0999 V2000
  161.9350  211.8330  148.4600 C   0  0  0  0  0  0  0  0  0  0  0  0
  161.2190  212.4380  147.5560 C   0  0  0  0  0  3  0  0  0  0  0  0
  162.6310  211.1770  149.3510 C   0  0  0  0  0  3  0  0  0  0  0  0
  161.2960  207.5620  151.1670 C   0  0  0  0  0  0  0  0  0  0  0  0
  161.1720  208.7530  151.8100 N   0  0  0  0  0  0  0  0  0  0  0  0
  162.0680  206.1800  149.2190 C   0  0  2  0  0  3  0  0  0  0  0  0
  161.8370  207.5140  149.8760 C   0  0  0  0  0  0  0  0  0  0  0  0
  162.0040  206.3110  147.8290 O   0  0  0  0  0  1  0  0  0  0  0  0
  162.2720  208.7000  149.2820 C   0  0  0  0  0  3  0  0  0  0  0  0
  161.5650  209.9260  151.2350 C   0  0  0  0  0  0  0  0  0  0  0  0
  161.0560  205.1150  149.7030 C   0  0  2  0  0  0  0  0  0  0  0  0
  162.1310  209.9230  149.9480 C   0  0  0  0  0  0  0  0  0  0  0  0
  159.8360  205.3090  149.0700 F   0  0  0  0  0  0  0  0  0  0  0  0
  160.9070  206.3490  151.8230 N   0  0  0  0  0  0  0  0  0  0  0  0
  160.8280  205.2160  151.1910 C   0  0  0  0  0  3  0  0  0  0  0  0
  161.5390  203.7990  149.4240 O   0  0  0  0  0  0  0  0  0  0  0  0
  160.1600  201.9560  149.3220 O   0  0  0  0  0  0  0  0  0  0  0  0
  160.7970  202.8580  148.7080 C   0  0  0  0  0  0  0  0  0  0  0  0
  160.8390  202.8410  147.2180 C   0  0  0  0  0  2  0  0  0  0  0  0
  160.2900  201.4390  145.2590 C   0  0  0  0  0  1  0  0  0  0  0  0
  160.7320  201.4160  146.7080 C   0  0  0  0  0  2  0  0  0  0  0  0
  161.4300  211.1230  151.9370 O   0  0  0  0  0  0  0  0  0  0  0  0
  160.1950  211.5410  152.3890 N   0  0  0  0  0  2  0  0  0  0  0  0
  159.9440  210.9400  153.6970 C   0  0  0  0  0  2  0  0  0  0  0  0
  161.0270  211.2870  154.7230 C   0  0  1  0  0  3  0  0  0  0  0  0
  159.5630  212.9070  155.4290 O   0  0  0  0  0  0  0  0  0  0  0  0
  160.4880  212.2000  155.7020 N   0  0  0  0  0  0  0  0  0  0  0  0
  161.6400  210.0560  155.3990 C   0  0  0  0  0  2  0  0  0  0  0  0
  162.6950  210.4170  156.4350 C   0  0  0  0  0  1  0  0  0  0  0  0
  161.4900  213.8310  147.1720 C   0  0  0  0  0  3  0  0  0  0  0  0
  161.6620  214.1800  145.9350 N   0  0  0  0  0  0  0  0  0  0  0  0
  161.5920  213.2480  144.8120 C   0  0  2  0  0  3  0  0  0  0  0  0
  162.8590  213.1120  144.2370 O   0  0  0  0  0  1  0  0  0  0  0  0
  160.5890  213.7290  143.7540 C   0  0  2  0  0  3  0  0  0  0  0  0
  159.1940  213.8540  144.3750 C   0  0  0  0  0  2  0  0  0  0  0  0
  158.6950  212.5460  144.9650 C   0  0  0  0  0  2  0  0  0  0  0  0
  156.6690  211.9570  146.1040 O   0  0  0  0  0  1  0  0  0  0  0  0
  157.7940  212.7810  146.1660 C   0  0  0  0  0  2  0  0  0  0  0  0
  160.5400  212.8100  142.6920 O   0  0  0  0  0  0  0  0  0  0  0  0
  160.6120  213.5560  141.5050 C   0  0  2  0  0  3  0  0  0  0  0  0
  159.3300  213.8950  141.0660 O   0  0  0  0  0  1  0  0  0  0  0  0
  162.3380  214.1190  137.1880 C   0  0  0  0  0  1  0  0  0  0  0  0
  161.3340  212.7550  140.4260 C   0  0  1  0  0  3  0  0  0  0  0  0
  162.5300  213.5260  138.5750 C   0  0  2  0  0  0  0  0  0  0  0  0
  160.7380  211.4910  140.3170 O   0  0  0  0  0  0  0  0  0  0  0  0
  163.2410  212.1740  138.3900 C   0  0  0  0  0  2  0  0  0  0  0  0
  161.7930  210.5760  140.3690 C   0  0  0  0  0  2  0  0  0  0  0  0
  162.0910  210.0030  138.9800 C   0  0  0  0  0  2  0  0  0  0  0  0
  162.2830  211.0830  137.9180 C   0  0  0  0  0  2  0  0  0  0  0  0
  161.2500  213.4210  139.1850 O   0  0  0  0  0  0  0  0  0  0  0  0
  163.4580  214.4530  139.3700 C   0  0  0  0  0  2  0  0  0  0  0  0
  163.7130  213.9320  140.6430 O   0  0  0  0  0  1  0  0  0  0  0  0
  1  3  2  0  0  0  0
  2  1  2  0  0  0  0
  3 12  1  0  0  0  0
  4  5  1  0  0  0  0
  4 14  1  0  0  0  0
  6  8  1  6  0  0  0
  6 11  1  0  0  0  0
  6  7  1  0  0  0  0
  7  4  2  0  0  0  0
  9  7  1  0  0  0  0
  9 12  2  0  0  0  0
 10  5  2  0  0  0  0
 10 22  1  0  0  0  0
 11 13  1  6  0  0  0
 11 15  1  0  0  0  0
 12 10  1  0  0  0  0
 15 14  2  0  0  0  0
 16 11  1  0  0  0  0
 18 17  2  0  0  0  0
 18 16  1  0  0  0  0
 19 18  1  0  0  0  0
 20 21  1  0  0  0  0
 21 19  1  0  0  0  0
 22 23  1  0  0  0  0
 23 24  1  0  0  0  0
 25 24  1  6  0  0  0
 25 28  1  0  0  0  0
 25 27  1  0  0  0  0
 26 27  2  0  0  0  0
 28 29  1  0  0  0  0
 30  2  1  0  0  0  0
 31 30  2  0  0  0  0
 32 33  1  6  0  0  0
 32 31  1  0  0  0  0
 34 35  1  1  0  0  0
 34 32  1  0  0  0  0
 35 36  1  0  0  0  0
 36 38  1  0  0  0  0
 37 38  1  0  0  0  0
 39 34  1  0  0  0  0
 40 41  1  6  0  0  0
 40 39  1  0  0  0  0
 43 40  1  1  0  0  0
 44 42  1  6  0  0  0
 44 50  1  0  0  0  0
 44 51  1  0  0  0  0
 45 47  1  0  0  0  0
 45 43  1  0  0  0  0
 46 44  1  0  0  0  0
 48 47  1  0  0  0  0
 49 46  1  0  0  0  0
 49 48  1  0  0  0  0
 50 43  1  0  0  0  0
 51 52  1  0  0  0  0
M  END
>  <MODEL>
3

>  <REMARK>
 VINA RESULT:      -5.5      1.379      2.360
  Name = 
  21 active torsions:
  status: ('A' for Active; 'I' for Inactive)
    1  A    between atoms: C_1  and  C_30
    2  A    between atoms: C_1  and  N_38
    3  A    between atoms: C_6  and  C_28
    4  A    between atoms: C_6  and  C_36
    5  A    between atoms: N_8  and  O_45
    6  A    between atoms: N_8  and  C_49
    7  A    between atoms: C_9  and  C_14
    8  A    between atoms: C_10  and  C_21
    9  A    between atoms: C_10  and  O_47
   10  A    between atoms: O_13  and  C_36
   11  A    between atoms: O_13  and  C_37
   12  A    between atoms: C_14  and  C_32
   13  A    between atoms: C_15  and  C_29
   14  A    between atoms: C_16  and  C_42
   15  A    between atoms: C_18  and  C_25
   16  A    between atoms: N_22  and  C_42
   17  A    between atoms: C_30  and  C_32
   18  A    between atoms: C_30  and  O_47
   19  A    between atoms: C_31  and  O_45
   20  A    between atoms: C_33  and  C_40
   21  A    between atoms: C_42  and  C_49
                            x       y       z     vdW  Elec       q    Type
                         _______ _______ _______ _____ _____    ______ ____

>  <TORSDO>
F 21

$$$$
=
 OpenBabel11072411313D

 52 54  0  0  1  0  0  0  0  0999 V2000
  160.6540  209.8730  152.6950 C   0  0  0  0  0  0  0  0  0  0  0  0
  160.7020  208.5820  152.5320 C   0  0  0  0  0  3  0  0  0  0  0  0
  160.5730  211.1730  152.8120 C   0  0  0  0  0  3  0  0  0  0  0  0
  159.9490  213.6330  149.3900 C   0  0  0  0  0  0  0  0  0  0  0  0
  159.3180  213.8970  150.5640 N   0  0  0  0  0  0  0  0  0  0  0  0
  161.4560  212.2140  147.9700 C   0  0  2  0  0  3  0  0  0  0  0  0
  160.8460  212.5610  149.3010 C   0  0  0  0  0  0  0  0  0  0  0  0
  162.6990  211.6030  148.1550 O   0  0  0  0  0  1  0  0  0  0  0  0
  161.0510  211.7580  150.4240 C   0  0  0  0  0  3  0  0  0  0  0  0
  159.5260  213.1400  151.6800 C   0  0  0  0  0  0  0  0  0  0  0  0
  161.6010  213.4560  147.0590 C   0  0  2  0  0  0  0  0  0  0  0  0
  160.4020  212.0440  151.6310 C   0  0  0  0  0  0  0  0  0  0  0  0
  162.6990  214.2040  147.4620 F   0  0  0  0  0  0  0  0  0  0  0  0
  159.6720  214.4300  148.2320 N   0  0  0  0  0  0  0  0  0  0  0  0
  160.3810  214.3410  147.1460 C   0  0  0  0  0  3  0  0  0  0  0  0
  161.7600  213.0640  145.6950 O   0  0  0  0  0  0  0  0  0  0  0  0
  163.3700  214.3920  144.7190 O   0  0  0  0  0  0  0  0  0  0  0  0
  162.1890  213.9440  144.7010 C   0  0  0  0  0  0  0  0  0  0  0  0
  161.2300  214.4490  143.6760 C   0  0  0  0  0  2  0  0  0  0  0  0
  162.2410  212.5550  142.4550 C   0  0  0  0  0  1  0  0  0  0  0  0
  160.9860  213.3870  142.6210 C   0  0  0  0  0  2  0  0  0  0  0  0
  158.8460  213.4420  152.8600 O   0  0  0  0  0  0  0  0  0  0  0  0
  157.5110  213.7940  152.8350 N   0  0  0  0  0  2  0  0  0  0  0  0
  157.1080  214.2040  154.1780 C   0  0  0  0  0  2  0  0  0  0  0  0
  157.0030  213.0240  155.1490 C   0  0  1  0  0  3  0  0  0  0  0  0
  155.5340  211.2830  155.4320 O   0  0  0  0  0  0  0  0  0  0  0  0
  155.9700  212.1220  154.6990 N   0  0  0  0  0  0  0  0  0  0  0  0
  158.3300  212.2840  155.3510 C   0  0  0  0  0  2  0  0  0  0  0  0
  158.9850  212.6060  156.6870 C   0  0  0  0  0  1  0  0  0  0  0  0
  161.1940  207.6960  153.5960 C   0  0  0  0  0  3  0  0  0  0  0  0
  161.9350  206.6620  153.3410 N   0  0  0  0  0  0  0  0  0  0  0  0
  162.3610  206.2840  151.9950 C   0  0  2  0  0  3  0  0  0  0  0  0
  162.5150  207.4330  151.2130 O   0  0  0  0  0  1  0  0  0  0  0  0
  161.3470  205.3390  151.3380 C   0  0  2  0  0  3  0  0  0  0  0  0
  160.9680  204.2190  152.3120 C   0  0  0  0  0  2  0  0  0  0  0  0
  160.4790  202.9660  151.6060 C   0  0  0  0  0  2  0  0  0  0  0  0
  161.4920  201.0670  150.5500 O   0  0  0  0  0  1  0  0  0  0  0  0
  161.4830  201.8310  151.7190 C   0  0  0  0  0  2  0  0  0  0  0  0
  161.9060  204.7720  150.1790 O   0  0  0  0  0  0  0  0  0  0  0  0
  161.3380  205.4420  149.0840 C   0  0  2  0  0  3  0  0  0  0  0  0
  160.0610  205.9040  149.4070 O   0  0  0  0  0  1  0  0  0  0  0  0
  160.7700  205.6370  144.4390 C   0  0  0  0  0  1  0  0  0  0  0  0
  161.2640  204.5080  147.8800 C   0  0  1  0  0  3  0  0  0  0  0  0
  161.5070  205.0090  145.6120 C   0  0  2  0  0  0  0  0  0  0  0  0
  160.4630  203.4040  148.2050 O   0  0  0  0  0  0  0  0  0  0  0  0
  161.7600  203.5360  145.2480 C   0  0  0  0  0  2  0  0  0  0  0  0
  161.2090  202.2820  147.8340 C   0  0  0  0  0  2  0  0  0  0  0  0
  160.6650  201.6640  146.5430 C   0  0  0  0  0  2  0  0  0  0  0  0
  160.5070  202.6820  145.4150 C   0  0  0  0  0  2  0  0  0  0  0  0
  160.7050  205.1820  146.7740 O   0  0  0  0  0  0  0  0  0  0  0  0
  162.8640  205.7100  145.7580 C   0  0  0  0  0  2  0  0  0  0  0  0
  163.9010  204.7760  145.8470 O   0  0  0  0  0  1  0  0  0  0  0  0
  1  3  2  0  0  0  0
  2  1  2  0  0  0  0
  2 30  1  0  0  0  0
  4  5  1  0  0  0  0
  5 10  2  0  0  0  0
  6  8  1  1  0  0  0
  6  7  1  0  0  0  0
  7  4  2  0  0  0  0
  7  9  1  0  0  0  0
  9 12  2  0  0  0  0
 10 22  1  0  0  0  0
 11 15  1  0  0  0  0
 11 13  1  1  0  0  0
 11  6  1  0  0  0  0
 12 10  1  0  0  0  0
 12  3  1  0  0  0  0
 14  4  1  0  0  0  0
 15 14  2  0  0  0  0
 16 11  1  0  0  0  0
 18 17  2  0  0  0  0
 18 16  1  0  0  0  0
 19 18  1  0  0  0  0
 20 21  1  0  0  0  0
 21 19  1  0  0  0  0
 23 22  1  0  0  0  0
 23 24  1  0  0  0  0
 25 24  1  6  0  0  0
 25 28  1  0  0  0  0
 27 25  1  0  0  0  0
 27 26  2  0  0  0  0
 28 29  1  0  0  0  0
 31 30  2  0  0  0  0
 32 33  1  6  0  0  0
 32 31  1  0  0  0  0
 34 32  1  0  0  0  0
 34 35  1  1  0  0  0
 36 38  1  0  0  0  0
 36 35  1  0  0  0  0
 37 38  1  0  0  0  0
 39 34  1  0  0  0  0
 40 41  1  1  0  0  0
 40 39  1  0  0  0  0
 43 45  1  0  0  0  0
 43 40  1  1  0  0  0
 44 42  1  6  0  0  0
 44 51  1  0  0  0  0
 44 50  1  0  0  0  0
 46 49  1  0  0  0  0
 46 44  1  0  0  0  0
 47 45  1  0  0  0  0
 48 47  1  0  0  0  0
 49 48  1  0  0  0  0
 50 43  1  0  0  0  0
 51 52  1  0  0  0  0
M  END
>  <MODEL>
4

>  <REMARK>
 VINA RESULT:      -5.0      3.240      9.158
  Name = 
  21 active torsions:
  status: ('A' for Active; 'I' for Inactive)
    1  A    between atoms: C_1  and  C_30
    2  A    between atoms: C_1  and  N_38
    3  A    between atoms: C_6  and  C_28
    4  A    between atoms: C_6  and  C_36
    5  A    between atoms: N_8  and  O_45
    6  A    between atoms: N_8  and  C_49
    7  A    between atoms: C_9  and  C_14
    8  A    between atoms: C_10  and  C_21
    9  A    between atoms: C_10  and  O_47
   10  A    between atoms: O_13  and  C_36
   11  A    between atoms: O_13  and  C_37
   12  A    between atoms: C_14  and  C_32
   13  A    between atoms: C_15  and  C_29
   14  A    between atoms: C_16  and  C_42
   15  A    between atoms: C_18  and  C_25
   16  A    between atoms: N_22  and  C_42
   17  A    between atoms: C_30  and  C_32
   18  A    between atoms: C_30  and  O_47
   19  A    between atoms: C_31  and  O_45
   20  A    between atoms: C_33  and  C_40
   21  A    between atoms: C_42  and  C_49
                            x       y       z     vdW  Elec       q    Type
                         _______ _______ _______ _____ _____    ______ ____

>  <TORSDO>
F 21

$$$$
