=
 OpenBabel11072413353D

 43 48  0  0  1  0  0  0  0  0999 V2000
  162.5750  211.0140  155.7730 N   0  0  0  0  0  0  0  0  0  0  0  0
  162.1170  209.0600  156.6310 C   0  0  0  0  0  3  0  0  0  0  0  0
  161.4210  210.5980  155.2230 C   0  0  0  0  0  0  0  0  0  0  0  0
  161.0970  209.3630  155.7500 C   0  0  0  0  0  0  0  0  0  0  0  0
  162.9850  210.0920  156.6310 N   0  0  0  0  0  2  0  0  0  0  0  0
  159.0280  212.8560  153.3170 C   0  0  0  0  0  3  0  0  0  0  0  0
  161.1790  211.1530  152.8300 C   0  0  0  0  0  3  0  0  0  0  0  0
  159.4690  212.6490  152.0080 C   0  0  0  0  0  0  0  0  0  0  0  0
  159.6410  212.2000  154.3960 C   0  0  0  0  0  0  0  0  0  0  0  0
  160.7250  211.3290  154.1450 C   0  0  0  0  0  0  0  0  0  0  0  0
  160.5550  211.8080  151.7670 C   0  0  0  0  0  3  0  0  0  0  0  0
  159.2520  212.4920  155.7490 N   0  0  0  0  0  2  0  0  0  0  0  0
  157.9270  212.7280  156.2490 C   0  0  0  0  0  0  0  0  0  0  0  0
  157.4990  214.0030  156.6460 C   0  0  0  0  0  3  0  0  0  0  0  0
  155.3350  213.1230  157.1410 N   0  0  0  0  0  0  0  0  0  0  0  0
  156.1890  214.1800  157.0960 C   0  0  0  0  0  3  0  0  0  0  0  0
  155.7230  211.8780  156.7510 C   0  0  0  0  0  3  0  0  0  0  0  0
  157.0250  211.6630  156.2960 C   0  0  0  0  0  3  0  0  0  0  0  0
  158.8120  213.3610  150.8780 C   0  0  0  0  0  2  0  0  0  0  0  0
  159.8200  214.2340  150.1520 C   0  0  0  0  0  2  0  0  0  0  0  0
  160.8160  212.7770  148.5440 O   0  0  0  0  0  1  0  0  0  0  0  0
  159.9100  213.8290  148.6920 C   0  0  0  0  0  2  0  0  0  0  0  0
  160.0200  208.4310  155.2870 C   0  0  0  0  0  2  0  0  0  0  0  0
  160.4950  207.5560  154.1760 C   0  0  0  0  0  0  0  0  0  0  0  0
  161.6110  205.2420  152.3900 C   0  0  0  0  0  3  0  0  0  0  0  0
  160.9400  206.2720  154.5150 O   0  0  0  0  0  0  0  0  0  0  0  0
  161.3420  206.2930  151.4090 C   0  0  0  0  0  0  0  0  0  0  0  0
  160.4520  208.0760  152.9530 C   0  0  0  0  0  3  0  0  0  0  0  0
  161.4360  205.2450  153.7070 C   0  0  0  0  0  3  0  0  0  0  0  0
  160.8410  207.4950  151.6680 C   0  0  0  0  0  3  0  0  0  0  0  0
  161.6350  205.9700  149.9840 C   0  0  0  0  0  2  0  0  0  0  0  0
  160.8970  206.6340  147.2320 C   0  0  0  0  0  2  0  0  0  0  0  0
  161.4200  202.9030  148.1960 C   0  0  0  0  0  2  0  0  0  0  0  0
  161.8300  203.9460  145.7340 S   0  0  0  0  0  0  0  0  0  0  0  0
  161.7400  204.2380  147.5330 C   0  0  1  0  0  3  0  0  0  0  0  0
  160.4430  205.4150  149.3330 N   0  0  0  0  0  0  0  0  0  0  0  0
  161.2080  203.0780  149.6940 C   0  0  1  0  0  3  0  0  0  0  0  0
  160.9770  206.5360  145.7190 C   0  0  0  0  0  2  0  0  0  0  0  0
  162.1660  205.6830  145.3210 C   0  0  0  0  0  2  0  0  0  0  0  0
  160.6410  205.2670  147.8770 C   0  0  1  0  0  3  0  0  0  0  0  0
  160.1130  204.1180  149.9370 C   0  0  0  0  0  2  0  0  0  0  0  0
  160.7960  201.7590  150.3200 C   0  0  0  0  0  2  0  0  0  0  0  0
  160.1710  200.9520  149.3680 O   0  0  0  0  0  1  0  0  0  0  0  0
  1  5  1  0  0  0  0
  3  4  1  0  0  0  0
  3  1  2  0  0  0  0
  4  2  2  0  0  0  0
  5  2  1  0  0  0  0
  6  9  1  0  0  0  0
  7 10  1  0  0  0  0
  8  6  2  0  0  0  0
  9 12  1  0  0  0  0
 10  9  2  0  0  0  0
 10  3  1  0  0  0  0
 11  8  1  0  0  0  0
 11  7  2  0  0  0  0
 12 13  1  0  0  0  0
 13 18  2  0  0  0  0
 13 14  1  0  0  0  0
 14 16  2  0  0  0  0
 16 15  1  0  0  0  0
 17 15  2  0  0  0  0
 18 17  1  0  0  0  0
 19  8  1  0  0  0  0
 20 19  1  0  0  0  0
 21 22  1  0  0  0  0
 22 20  1  0  0  0  0
 23  4  1  0  0  0  0
 24 26  1  0  0  0  0
 24 23  1  0  0  0  0
 25 29  2  0  0  0  0
 27 30  2  0  0  0  0
 27 25  1  0  0  0  0
 28 24  2  0  0  0  0
 29 26  1  0  0  0  0
 30 28  1  0  0  0  0
 31 27  1  0  0  0  0
 33 37  1  0  0  0  0
 34 35  1  0  0  0  0
 35 40  1  0  0  0  0
 35 33  1  1  0  0  0
 36 41  1  0  0  0  0
 36 31  1  0  0  0  0
 37 41  1  0  0  0  0
 37 42  1  6  0  0  0
 38 32  1  0  0  0  0
 39 38  1  0  0  0  0
 39 34  1  0  0  0  0
 40 32  1  1  0  0  0
 40 36  1  0  0  0  0
 43 42  1  0  0  0  0
M  END
>  <MODEL>
1

>  <REMARK>
 VINA RESULT:      -7.0      0.000      0.000
  Name = 
  11 active torsions:
  status: ('A' for Active; 'I' for Inactive)
    1  A    between atoms: C_1  and  C_30
    2  A    between atoms: N_2  and  C_14
    3  A    between atoms: N_2  and  C_38
    4  A    between atoms: C_3  and  C_16
    5  A    between atoms: C_3  and  C_27
    6  A    between atoms: C_8  and  C_19
    7  A    between atoms: C_8  and  C_24
    8  A    between atoms: C_21  and  C_24
    9  A    between atoms: N_23  and  C_33
   10  A    between atoms: C_25  and  C_39
   11  A    between atoms: C_28  and  C_33
                            x       y       z     vdW  Elec       q    Type
                         _______ _______ _______ _____ _____    ______ ____

>  <TORSDO>
F 11

$$$$
=
 OpenBabel11072413353D

 43 48  0  0  1  0  0  0  0  0999 V2000
  160.2410  203.4330  151.0420 N   0  0  0  0  0  0  0  0  0  0  0  0
  161.2870  204.2700  152.7660 C   0  0  0  0  0  3  0  0  0  0  0  0
  160.9930  204.4550  150.5950 C   0  0  0  0  0  0  0  0  0  0  0  0
  161.6760  205.0050  151.6640 C   0  0  0  0  0  0  0  0  0  0  0  0
  160.4300  203.3150  152.3480 N   0  0  0  0  0  2  0  0  0  0  0  0
  161.1330  204.6270  146.8000 C   0  0  0  0  0  3  0  0  0  0  0  0
  160.6740  206.2970  148.9840 C   0  0  0  0  0  3  0  0  0  0  0  0
  160.8810  205.9860  146.5970 C   0  0  0  0  0  0  0  0  0  0  0  0
  161.1800  204.0900  148.0960 C   0  0  0  0  0  0  0  0  0  0  0  0
  160.9570  204.9410  149.2020 C   0  0  0  0  0  0  0  0  0  0  0  0
  160.6370  206.8180  147.6900 C   0  0  0  0  0  3  0  0  0  0  0  0
  161.3380  202.6750  148.2970 N   0  0  0  0  0  2  0  0  0  0  0  0
  161.1410  201.6260  147.3380 C   0  0  0  0  0  0  0  0  0  0  0  0
  160.5350  201.8580  146.0950 C   0  0  0  0  0  3  0  0  0  0  0  0
  160.8530  199.5660  145.5090 N   0  0  0  0  0  0  0  0  0  0  0  0
  160.3970  200.8060  145.1880 C   0  0  0  0  0  3  0  0  0  0  0  0
  161.4540  199.3160  146.7040 C   0  0  0  0  0  3  0  0  0  0  0  0
  161.6100  200.3440  147.6360 C   0  0  0  0  0  3  0  0  0  0  0  0
  160.8270  206.5370  145.2140 C   0  0  0  0  0  2  0  0  0  0  0  0
  160.7770  205.4050  144.2020 C   0  0  0  0  0  2  0  0  0  0  0  0
  161.5600  206.2840  142.1250 O   0  0  0  0  0  1  0  0  0  0  0  0
  161.9370  205.5200  143.2310 C   0  0  0  0  0  2  0  0  0  0  0  0
  162.4630  206.2780  151.6800 C   0  0  0  0  0  2  0  0  0  0  0  0
  161.7980  207.3220  152.5140 C   0  0  0  0  0  0  0  0  0  0  0  0
  160.4390  208.9920  154.7840 C   0  0  0  0  0  3  0  0  0  0  0  0
  161.5150  206.9950  153.8460 O   0  0  0  0  0  0  0  0  0  0  0  0
  160.4180  209.9220  153.6540 C   0  0  0  0  0  0  0  0  0  0  0  0
  161.5330  208.4780  151.9140 C   0  0  0  0  0  3  0  0  0  0  0  0
  160.9080  207.7500  154.8520 C   0  0  0  0  0  3  0  0  0  0  0  0
  160.8950  209.6860  152.4380 C   0  0  0  0  0  3  0  0  0  0  0  0
  159.8270  211.2670  153.9060 C   0  0  0  0  0  2  0  0  0  0  0  0
  157.2760  211.0640  155.3240 C   0  0  0  0  0  2  0  0  0  0  0  0
  158.0370  214.2720  153.2620 C   0  0  0  0  0  2  0  0  0  0  0  0
  156.4540  214.1700  155.4530 S   0  0  0  0  0  0  0  0  0  0  0  0
  157.8310  213.4250  154.5130 C   0  0  1  0  0  3  0  0  0  0  0  0
  158.5340  211.3890  153.2220 N   0  0  0  0  0  0  0  0  0  0  0  0
  159.0920  213.6510  152.3550 C   0  0  1  0  0  3  0  0  0  0  0  0
  156.1350  211.5650  156.1920 C   0  0  0  0  0  2  0  0  0  0  0  0
  156.4870  212.9210  156.7720 C   0  0  0  0  0  2  0  0  0  0  0  0
  157.5070  211.9700  154.1090 C   0  0  1  0  0  3  0  0  0  0  0  0
  158.6930  212.2130  152.0170 C   0  0  0  0  0  2  0  0  0  0  0  0
  159.2140  214.4530  151.0730 C   0  0  0  0  0  2  0  0  0  0  0  0
  159.2570  213.5940  149.9740 O   0  0  0  0  0  1  0  0  0  0  0  0
  1  5  1  0  0  0  0
  3  1  2  0  0  0  0
  3  4  1  0  0  0  0
  4 23  1  0  0  0  0
  4  2  2  0  0  0  0
  5  2  1  0  0  0  0
  6  9  1  0  0  0  0
  7 10  1  0  0  0  0
  8  6  2  0  0  0  0
  8 11  1  0  0  0  0
  9 12  1  0  0  0  0
  9 10  2  0  0  0  0
 10  3  1  0  0  0  0
 11  7  2  0  0  0  0
 13 18  1  0  0  0  0
 13 12  1  0  0  0  0
 14 13  2  0  0  0  0
 15 17  1  0  0  0  0
 16 15  2  0  0  0  0
 16 14  1  0  0  0  0
 17 18  2  0  0  0  0
 19  8  1  0  0  0  0
 20 19  1  0  0  0  0
 21 22  1  0  0  0  0
 22 20  1  0  0  0  0
 23 24  1  0  0  0  0
 24 26  1  0  0  0  0
 25 29  2  0  0  0  0
 26 29  1  0  0  0  0
 27 31  1  0  0  0  0
 27 25  1  0  0  0  0
 28 30  1  0  0  0  0
 28 24  2  0  0  0  0
 30 27  2  0  0  0  0
 32 38  1  0  0  0  0
 34 39  1  0  0  0  0
 35 33  1  6  0  0  0
 35 34  1  0  0  0  0
 36 31  1  0  0  0  0
 36 40  1  0  0  0  0
 37 42  1  6  0  0  0
 37 33  1  0  0  0  0
 38 39  1  0  0  0  0
 40 35  1  0  0  0  0
 40 32  1  1  0  0  0
 41 37  1  0  0  0  0
 41 36  1  0  0  0  0
 43 42  1  0  0  0  0
M  END
>  <MODEL>
2

>  <REMARK>
 VINA RESULT:      -6.9      3.394     10.537
  Name = 
  11 active torsions:
  status: ('A' for Active; 'I' for Inactive)
    1  A    between atoms: C_1  and  C_30
    2  A    between atoms: N_2  and  C_14
    3  A    between atoms: N_2  and  C_38
    4  A    between atoms: C_3  and  C_16
    5  A    between atoms: C_3  and  C_27
    6  A    between atoms: C_8  and  C_19
    7  A    between atoms: C_8  and  C_24
    8  A    between atoms: C_21  and  C_24
    9  A    between atoms: N_23  and  C_33
   10  A    between atoms: C_25  and  C_39
   11  A    between atoms: C_28  and  C_33
                            x       y       z     vdW  Elec       q    Type
                         _______ _______ _______ _____ _____    ______ ____

>  <TORSDO>
F 11

$$$$
=
 OpenBabel11072413353D

 43 48  0  0  1  0  0  0  0  0999 V2000
  158.3090  211.5010  155.1780 N   0  0  0  0  0  0  0  0  0  0  0  0
  159.6530  210.0120  156.0420 C   0  0  0  0  0  3  0  0  0  0  0  0
  159.3160  211.3190  154.3050 C   0  0  0  0  0  0  0  0  0  0  0  0
  160.1840  210.3740  154.8190 C   0  0  0  0  0  0  0  0  0  0  0  0
  158.5070  210.7030  156.2170 N   0  0  0  0  0  2  0  0  0  0  0  0
  159.0580  214.0720  151.6970 C   0  0  0  0  0  3  0  0  0  0  0  0
  160.2920  211.5990  152.0560 C   0  0  0  0  0  3  0  0  0  0  0  0
  159.8460  213.5320  150.6770 C   0  0  0  0  0  0  0  0  0  0  0  0
  158.8590  213.3750  152.8990 C   0  0  0  0  0  0  0  0  0  0  0  0
  159.4770  212.1160  153.0740 C   0  0  0  0  0  0  0  0  0  0  0  0
  160.4750  212.3010  150.8630 C   0  0  0  0  0  3  0  0  0  0  0  0
  158.1320  213.9770  153.9830 N   0  0  0  0  0  2  0  0  0  0  0  0
  156.7100  214.1100  154.1180 C   0  0  0  0  0  0  0  0  0  0  0  0
  156.0950  214.2980  155.3640 C   0  0  0  0  0  3  0  0  0  0  0  0
  153.9640  214.4280  154.2960 N   0  0  0  0  0  0  0  0  0  0  0  0
  154.7100  214.4530  155.4320 C   0  0  0  0  0  3  0  0  0  0  0  0
  154.5370  214.2580  153.0730 C   0  0  0  0  0  3  0  0  0  0  0  0
  155.9200  214.1000  152.9660 C   0  0  0  0  0  3  0  0  0  0  0  0
  160.0520  214.2910  149.4130 C   0  0  0  0  0  2  0  0  0  0  0  0
  161.4380  214.0140  148.8570 C   0  0  0  0  0  2  0  0  0  0  0  0
  160.2500  212.6590  147.2920 O   0  0  0  0  0  1  0  0  0  0  0  0
  161.3410  213.5190  147.4260 C   0  0  0  0  0  2  0  0  0  0  0  0
  161.5400  210.0070  154.2990 C   0  0  0  0  0  2  0  0  0  0  0  0
  161.5320  208.6610  153.6550 C   0  0  0  0  0  0  0  0  0  0  0  0
  161.3040  205.6160  152.9730 C   0  0  0  0  0  3  0  0  0  0  0  0
  161.1570  207.5710  154.4500 O   0  0  0  0  0  0  0  0  0  0  0  0
  161.7460  206.1890  151.7020 C   0  0  0  0  0  0  0  0  0  0  0  0
  161.8840  208.6160  152.3730 C   0  0  0  0  0  3  0  0  0  0  0  0
  161.0580  206.2140  154.1340 C   0  0  0  0  0  3  0  0  0  0  0  0
  161.9830  207.4740  151.4640 C   0  0  0  0  0  3  0  0  0  0  0  0
  161.9210  205.2420  150.5650 C   0  0  0  0  0  2  0  0  0  0  0  0
  161.1990  206.5630  148.0560 C   0  0  0  0  0  2  0  0  0  0  0  0
  161.1790  202.6780  148.2150 C   0  0  0  0  0  2  0  0  0  0  0  0
  161.6580  204.1410  145.9910 S   0  0  0  0  0  0  0  0  0  0  0  0
  161.6770  204.0620  147.8150 C   0  0  1  0  0  3  0  0  0  0  0  0
  160.6360  205.0110  149.8950 N   0  0  0  0  0  0  0  0  0  0  0  0
  161.0470  202.5650  149.7280 C   0  0  1  0  0  3  0  0  0  0  0  0
  161.2120  206.7720  146.5520 C   0  0  0  0  0  2  0  0  0  0  0  0
  162.2420  205.8600  145.9150 C   0  0  0  0  0  2  0  0  0  0  0  0
  160.7590  205.1420  148.4290 C   0  0  1  0  0  3  0  0  0  0  0  0
  160.1330  203.6770  150.2460 C   0  0  0  0  0  2  0  0  0  0  0  0
  160.4610  201.2170  150.1020 C   0  0  0  0  0  2  0  0  0  0  0  0
  159.1960  201.0710  149.5300 O   0  0  0  0  0  1  0  0  0  0  0  0
  1  5  1  0  0  0  0
  2  5  1  0  0  0  0
  3  4  1  0  0  0  0
  3  1  2  0  0  0  0
  4  2  2  0  0  0  0
  6  9  1  0  0  0  0
  7 10  1  0  0  0  0
  8 11  1  0  0  0  0
  8  6  2  0  0  0  0
  9 10  2  0  0  0  0
  9 12  1  0  0  0  0
 10  3  1  0  0  0  0
 11  7  2  0  0  0  0
 12 13  1  0  0  0  0
 13 14  1  0  0  0  0
 14 16  2  0  0  0  0
 15 16  1  0  0  0  0
 17 15  2  0  0  0  0
 18 17  1  0  0  0  0
 18 13  2  0  0  0  0
 19  8  1  0  0  0  0
 20 19  1  0  0  0  0
 21 22  1  0  0  0  0
 22 20  1  0  0  0  0
 23  4  1  0  0  0  0
 24 23  1  0  0  0  0
 24 26  1  0  0  0  0
 25 29  2  0  0  0  0
 27 25  1  0  0  0  0
 28 24  2  0  0  0  0
 29 26  1  0  0  0  0
 30 27  2  0  0  0  0
 30 28  1  0  0  0  0
 31 27  1  0  0  0  0
 33 37  1  0  0  0  0
 34 35  1  0  0  0  0
 35 33  1  6  0  0  0
 35 40  1  0  0  0  0
 36 41  1  0  0  0  0
 36 31  1  0  0  0  0
 37 42  1  6  0  0  0
 37 41  1  0  0  0  0
 38 32  1  0  0  0  0
 39 34  1  0  0  0  0
 39 38  1  0  0  0  0
 40 32  1  1  0  0  0
 40 36  1  0  0  0  0
 43 42  1  0  0  0  0
M  END
>  <MODEL>
3

>  <REMARK>
 VINA RESULT:      -6.6      1.672      2.062
  Name = 
  11 active torsions:
  status: ('A' for Active; 'I' for Inactive)
    1  A    between atoms: C_1  and  C_30
    2  A    between atoms: N_2  and  C_14
    3  A    between atoms: N_2  and  C_38
    4  A    between atoms: C_3  and  C_16
    5  A    between atoms: C_3  and  C_27
    6  A    between atoms: C_8  and  C_19
    7  A    between atoms: C_8  and  C_24
    8  A    between atoms: C_21  and  C_24
    9  A    between atoms: N_23  and  C_33
   10  A    between atoms: C_25  and  C_39
   11  A    between atoms: C_28  and  C_33
                            x       y       z     vdW  Elec       q    Type
                         _______ _______ _______ _____ _____    ______ ____

>  <TORSDO>
F 11

$$$$
=
 OpenBabel11072413353D

 43 48  0  0  1  0  0  0  0  0999 V2000
  160.4740  205.0970  150.1470 N   0  0  0  0  0  0  0  0  0  0  0  0
  161.0330  204.3580  152.1230 C   0  0  0  0  0  3  0  0  0  0  0  0
  161.2930  206.0110  150.6960 C   0  0  0  0  0  0  0  0  0  0  0  0
  161.6730  205.5700  151.9500 C   0  0  0  0  0  0  0  0  0  0  0  0
  160.3290  204.0970  151.0020 N   0  0  0  0  0  2  0  0  0  0  0  0
  162.5140  208.6840  148.2840 C   0  0  0  0  0  3  0  0  0  0  0  0
  161.2070  208.4770  150.7370 C   0  0  0  0  0  3  0  0  0  0  0  0
  162.1460  209.8400  148.9770 C   0  0  0  0  0  0  0  0  0  0  0  0
  162.2530  207.4120  148.8170 C   0  0  0  0  0  0  0  0  0  0  0  0
  161.6000  207.3100  150.0660 C   0  0  0  0  0  0  0  0  0  0  0  0
  161.4790  209.7360  150.1980 C   0  0  0  0  0  3  0  0  0  0  0  0
  162.5410  206.2260  148.0570 N   0  0  0  0  0  2  0  0  0  0  0  0
  161.9300  205.8010  146.8300 C   0  0  0  0  0  0  0  0  0  0  0  0
  162.5040  204.8160  146.0150 C   0  0  0  0  0  3  0  0  0  0  0  0
  160.6610  204.9840  144.5080 N   0  0  0  0  0  0  0  0  0  0  0  0
  161.8500  204.4200  144.8470 C   0  0  0  0  0  3  0  0  0  0  0  0
  160.0770  205.9350  145.2870 C   0  0  0  0  0  3  0  0  0  0  0  0
  160.7020  206.3560  146.4620 C   0  0  0  0  0  3  0  0  0  0  0  0
  162.4240  211.1810  148.3920 C   0  0  0  0  0  2  0  0  0  0  0  0
  161.5650  212.2350  149.0690 C   0  0  0  0  0  2  0  0  0  0  0  0
  160.6410  212.1600  146.8690 O   0  0  0  0  0  1  0  0  0  0  0  0
  160.6470  212.8930  148.0560 C   0  0  0  0  0  2  0  0  0  0  0  0
  162.4040  206.3450  153.0020 C   0  0  0  0  0  2  0  0  0  0  0  0
  161.4750  207.2040  153.7940 C   0  0  0  0  0  0  0  0  0  0  0  0
  159.4320  208.3890  155.8460 C   0  0  0  0  0  3  0  0  0  0  0  0
  160.8290  206.6120  154.8860 O   0  0  0  0  0  0  0  0  0  0  0  0
  159.7010  209.5330  154.9740 C   0  0  0  0  0  0  0  0  0  0  0  0
  161.3440  208.4630  153.3890 C   0  0  0  0  0  3  0  0  0  0  0  0
  159.9180  207.1530  155.7980 C   0  0  0  0  0  3  0  0  0  0  0  0
  160.5250  209.5470  153.9330 C   0  0  0  0  0  3  0  0  0  0  0  0
  159.0000  210.8060  155.3050 C   0  0  0  0  0  2  0  0  0  0  0  0
  156.2810  211.2830  156.2720 C   0  0  0  0  0  2  0  0  0  0  0  0
  157.9270  213.8960  153.9100 C   0  0  0  0  0  2  0  0  0  0  0  0
  156.0560  214.4530  155.7820 S   0  0  0  0  0  0  0  0  0  0  0  0
  157.3850  213.3360  155.2200 C   0  0  1  0  0  3  0  0  0  0  0  0
  157.8660  211.0130  154.3960 N   0  0  0  0  0  0  0  0  0  0  0  0
  158.9630  212.9580  153.3050 C   0  0  1  0  0  3  0  0  0  0  0  0
  155.1430  212.1120  156.8420 C   0  0  0  0  0  2  0  0  0  0  0  0
  155.6600  213.4750  157.2610 C   0  0  0  0  0  2  0  0  0  0  0  0
  156.8520  211.9040  154.9920 C   0  0  1  0  0  3  0  0  0  0  0  0
  158.3500  211.5670  153.1260 C   0  0  0  0  0  2  0  0  0  0  0  0
  159.4190  213.4830  151.9570 C   0  0  0  0  0  2  0  0  0  0  0  0
  158.3430  213.5230  151.0700 O   0  0  0  0  0  1  0  0  0  0  0  0
  1  3  2  0  0  0  0
  1  5  1  0  0  0  0
  3  4  1  0  0  0  0
  4  2  2  0  0  0  0
  4 23  1  0  0  0  0
  5  2  1  0  0  0  0
  6  9  2  0  0  0  0
  6  8  1  0  0  0  0
  8 11  2  0  0  0  0
  9 10  1  0  0  0  0
 10  3  1  0  0  0  0
 10  7  2  0  0  0  0
 11  7  1  0  0  0  0
 12  9  1  0  0  0  0
 13 12  1  0  0  0  0
 14 13  2  0  0  0  0
 15 16  2  0  0  0  0
 15 17  1  0  0  0  0
 16 14  1  0  0  0  0
 17 18  2  0  0  0  0
 18 13  1  0  0  0  0
 19  8  1  0  0  0  0
 19 20  1  0  0  0  0
 21 22  1  0  0  0  0
 22 20  1  0  0  0  0
 23 24  1  0  0  0  0
 24 26  1  0  0  0  0
 26 29  1  0  0  0  0
 27 31  1  0  0  0  0
 27 25  1  0  0  0  0
 28 24  2  0  0  0  0
 28 30  1  0  0  0  0
 29 25  2  0  0  0  0
 30 27  2  0  0  0  0
 32 38  1  0  0  0  0
 34 39  1  0  0  0  0
 35 33  1  6  0  0  0
 35 34  1  0  0  0  0
 36 40  1  0  0  0  0
 36 31  1  0  0  0  0
 37 42  1  6  0  0  0
 37 33  1  0  0  0  0
 38 39  1  0  0  0  0
 40 35  1  0  0  0  0
 40 32  1  1  0  0  0
 41 37  1  0  0  0  0
 41 36  1  0  0  0  0
 43 42  1  0  0  0  0
M  END
>  <MODEL>
4

>  <REMARK>
 VINA RESULT:      -6.6      3.360      9.367
  Name = 
  11 active torsions:
  status: ('A' for Active; 'I' for Inactive)
    1  A    between atoms: C_1  and  C_30
    2  A    between atoms: N_2  and  C_14
    3  A    between atoms: N_2  and  C_38
    4  A    between atoms: C_3  and  C_16
    5  A    between atoms: C_3  and  C_27
    6  A    between atoms: C_8  and  C_19
    7  A    between atoms: C_8  and  C_24
    8  A    between atoms: C_21  and  C_24
    9  A    between atoms: N_23  and  C_33
   10  A    between atoms: C_25  and  C_39
   11  A    between atoms: C_28  and  C_33
                            x       y       z     vdW  Elec       q    Type
                         _______ _______ _______ _____ _____    ______ ____

>  <TORSDO>
F 11

$$$$
=
 OpenBabel11072413353D

 43 48  0  0  1  0  0  0  0  0999 V2000
  161.4270  211.6110  156.5090 N   0  0  0  0  0  0  0  0  0  0  0  0
  162.3020  210.3460  154.9610 C   0  0  0  0  0  3  0  0  0  0  0  0
  160.4570  211.3470  155.6160 C   0  0  0  0  0  0  0  0  0  0  0  0
  160.9770  210.5390  154.6220 C   0  0  0  0  0  0  0  0  0  0  0  0
  162.5340  210.9970  156.1190 N   0  0  0  0  0  2  0  0  0  0  0  0
  157.4020  213.4980  154.9140 C   0  0  0  0  0  3  0  0  0  0  0  0
  158.2150  211.4680  156.6410 C   0  0  0  0  0  3  0  0  0  0  0  0
  156.5290  213.0310  155.9000 C   0  0  0  0  0  0  0  0  0  0  0  0
  158.6980  212.9720  154.7920 C   0  0  0  0  0  0  0  0  0  0  0  0
  159.1110  211.9500  155.6760 C   0  0  0  0  0  0  0  0  0  0  0  0
  156.9320  212.0050  156.7550 C   0  0  0  0  0  3  0  0  0  0  0  0
  159.5560  213.3810  153.7140 N   0  0  0  0  0  2  0  0  0  0  0  0
  159.2070  213.5570  152.3330 C   0  0  0  0  0  0  0  0  0  0  0  0
  158.0130  214.1800  151.9420 C   0  0  0  0  0  3  0  0  0  0  0  0
  158.6280  213.9240  149.6490 N   0  0  0  0  0  0  0  0  0  0  0  0
  157.7380  214.3520  150.5840 C   0  0  0  0  0  3  0  0  0  0  0  0
  159.7980  213.3260  150.0030 C   0  0  0  0  0  3  0  0  0  0  0  0
  160.1070  213.1370  151.3510 C   0  0  0  0  0  3  0  0  0  0  0  0
  155.1560  213.5960  156.0080 C   0  0  0  0  0  2  0  0  0  0  0  0
  154.8000  214.3530  154.7410 C   0  0  0  0  0  2  0  0  0  0  0  0
  154.6600  214.1060  152.3700 O   0  0  0  0  0  1  0  0  0  0  0  0
  154.6850  213.3940  153.5710 C   0  0  0  0  0  2  0  0  0  0  0  0
  160.3290  210.1640  153.3250 C   0  0  0  0  0  2  0  0  0  0  0  0
  160.7030  208.7810  152.9070 C   0  0  0  0  0  0  0  0  0  0  0  0
  161.4720  205.7520  152.7540 C   0  0  0  0  0  3  0  0  0  0  0  0
  160.8660  207.8270  153.9180 O   0  0  0  0  0  0  0  0  0  0  0  0
  161.4820  206.1490  151.3450 C   0  0  0  0  0  0  0  0  0  0  0  0
  160.8480  208.5760  151.6010 C   0  0  0  0  0  3  0  0  0  0  0  0
  161.2090  206.4750  153.8380 C   0  0  0  0  0  3  0  0  0  0  0  0
  161.2070  207.3590  150.8720 C   0  0  0  0  0  3  0  0  0  0  0  0
  161.8070  205.0870  150.3520 C   0  0  0  0  0  2  0  0  0  0  0  0
  161.0080  206.3030  147.8140 C   0  0  0  0  0  2  0  0  0  0  0  0
  161.5310  202.4530  147.9790 C   0  0  0  0  0  2  0  0  0  0  0  0
  161.8890  203.9790  145.7740 S   0  0  0  0  0  0  0  0  0  0  0  0
  161.8440  203.8960  147.5970 C   0  0  1  0  0  3  0  0  0  0  0  0
  160.5960  204.6790  149.6310 N   0  0  0  0  0  0  0  0  0  0  0  0
  161.3550  202.3170  149.4860 C   0  0  1  0  0  3  0  0  0  0  0  0
  161.0530  206.5180  146.3120 C   0  0  0  0  0  2  0  0  0  0  0  0
  162.2270  205.7630  145.7190 C   0  0  0  0  0  2  0  0  0  0  0  0
  160.7590  204.8330  148.1710 C   0  0  1  0  0  3  0  0  0  0  0  0
  160.2720  203.2870  149.9640 C   0  0  0  0  0  2  0  0  0  0  0  0
  160.9500  200.8980  149.8370 C   0  0  0  0  0  2  0  0  0  0  0  0
  159.5890  200.8510  150.1420 O   0  0  0  0  0  1  0  0  0  0  0  0
  2  5  1  0  0  0  0
  3 10  1  0  0  0  0
  3  1  2  0  0  0  0
  4  2  2  0  0  0  0
  4  3  1  0  0  0  0
  5  1  1  0  0  0  0
  6  8  1  0  0  0  0
  7 11  1  0  0  0  0
  8 19  1  0  0  0  0
  8 11  2  0  0  0  0
  9  6  2  0  0  0  0
  9 10  1  0  0  0  0
 10  7  2  0  0  0  0
 12  9  1  0  0  0  0
 13 12  1  0  0  0  0
 14 13  1  0  0  0  0
 15 17  2  0  0  0  0
 15 16  1  0  0  0  0
 16 14  2  0  0  0  0
 17 18  1  0  0  0  0
 18 13  2  0  0  0  0
 20 19  1  0  0  0  0
 21 22  1  0  0  0  0
 22 20  1  0  0  0  0
 23  4  1  0  0  0  0
 24 23  1  0  0  0  0
 24 26  1  0  0  0  0
 25 29  2  0  0  0  0
 27 25  1  0  0  0  0
 28 24  2  0  0  0  0
 29 26  1  0  0  0  0
 30 27  2  0  0  0  0
 30 28  1  0  0  0  0
 31 27  1  0  0  0  0
 33 37  1  0  0  0  0
 34 35  1  0  0  0  0
 35 33  1  6  0  0  0
 35 40  1  0  0  0  0
 36 41  1  0  0  0  0
 36 31  1  0  0  0  0
 37 42  1  6  0  0  0
 37 41  1  0  0  0  0
 38 32  1  0  0  0  0
 39 34  1  0  0  0  0
 39 38  1  0  0  0  0
 40 32  1  1  0  0  0
 40 36  1  0  0  0  0
 42 43  1  0  0  0  0
M  END
>  <MODEL>
5

>  <REMARK>
 VINA RESULT:      -6.4      1.940      3.686
  Name = 
  11 active torsions:
  status: ('A' for Active; 'I' for Inactive)
    1  A    between atoms: C_1  and  C_30
    2  A    between atoms: N_2  and  C_14
    3  A    between atoms: N_2  and  C_38
    4  A    between atoms: C_3  and  C_16
    5  A    between atoms: C_3  and  C_27
    6  A    between atoms: C_8  and  C_19
    7  A    between atoms: C_8  and  C_24
    8  A    between atoms: C_21  and  C_24
    9  A    between atoms: N_23  and  C_33
   10  A    between atoms: C_25  and  C_39
   11  A    between atoms: C_28  and  C_33
                            x       y       z     vdW  Elec       q    Type
                         _______ _______ _______ _____ _____    ______ ____

>  <TORSDO>
F 11

$$$$
=
 OpenBabel11072413353D

 43 48  0  0  1  0  0  0  0  0999 V2000
  158.0080  212.8390  151.9890 N   0  0  0  0  0  0  0  0  0  0  0  0
  159.3080  213.2890  150.2950 C   0  0  0  0  0  3  0  0  0  0  0  0
  159.2560  212.4860  152.3410 C   0  0  2  0  0  3  0  0  0  0  0  0
  160.1100  212.7650  151.2900 C   0  0  0  0  0  0  0  0  0  0  0  0
  158.0430  213.3340  150.7610 N   0  0  0  0  0  0  0  0  0  0  0  0
  159.7030  211.6910  156.0320 C   0  0  0  0  0  3  0  0  0  0  0  0
  160.1060  210.5050  153.5420 C   0  0  0  0  0  3  0  0  0  0  0  0
  160.2550  210.4100  155.9520 C   0  0  0  0  0  0  0  0  0  0  0  0
  159.3660  212.4030  154.8700 C   0  0  0  0  0  0  0  0  0  0  0  0
  159.5810  211.8030  153.6090 C   0  0  0  0  0  0  0  0  0  0  0  0
  160.4430  209.8120  154.7060 C   0  0  0  0  0  3  0  0  0  0  0  0
  158.7050  213.6770  154.9570 N   0  0  0  0  0  2  0  0  0  0  0  0
  157.3680  213.9420  155.4050 C   0  0  0  0  0  0  0  0  0  0  0  0
  156.3270  214.2280  154.5100 C   0  0  0  0  0  3  0  0  0  0  0  0
  154.7960  214.3790  156.3360 N   0  0  0  0  0  0  0  0  0  0  0  0
  155.0380  214.4480  155.0000 C   0  0  0  0  0  3  0  0  0  0  0  0
  155.7870  214.0930  157.2240 C   0  0  0  0  0  3  0  0  0  0  0  0
  157.0870  213.8670  156.7720 C   0  0  0  0  0  3  0  0  0  0  0  0
  160.5990  209.6670  157.1950 C   0  0  0  0  0  2  0  0  0  0  0  0
  161.1640  208.3000  156.8490 C   0  0  0  0  0  2  0  0  0  0  0  0
  159.1910  207.0860  156.2710 O   0  0  0  0  0  1  0  0  0  0  0  0
  160.1830  207.2120  157.2450 C   0  0  0  0  0  2  0  0  0  0  0  0
  161.5430  212.3530  151.1500 C   0  0  0  0  0  2  0  0  0  0  0  0
  161.6740  211.0790  150.3840 C   0  0  0  0  0  0  0  0  0  0  0  0
  161.9670  208.8600  148.1980 C   0  0  0  0  0  3  0  0  0  0  0  0
  161.7860  211.1760  148.9910 O   0  0  0  0  0  0  0  0  0  0  0  0
  161.8980  208.0770  149.4330 C   0  0  0  0  0  0  0  0  0  0  0  0
  161.6720  209.9570  151.0970 C   0  0  0  0  0  3  0  0  0  0  0  0
  161.9180  210.1760  148.0240 C   0  0  0  0  0  3  0  0  0  0  0  0
  161.7780  208.5640  150.6620 C   0  0  0  0  0  3  0  0  0  0  0  0
  161.9970  206.5970  149.2930 C   0  0  0  0  0  2  0  0  0  0  0  0
  161.0960  206.1940  146.5390 C   0  0  0  0  0  2  0  0  0  0  0  0
  161.1980  203.1480  148.9530 C   0  0  0  0  0  2  0  0  0  0  0  0
  161.5080  203.0170  146.2690 S   0  0  0  0  0  0  0  0  0  0  0  0
  161.6320  204.0260  147.7850 C   0  0  1  0  0  3  0  0  0  0  0  0
  160.6840  206.0280  148.9700 N   0  0  0  0  0  0  0  0  0  0  0  0
  161.1560  203.9490  150.2480 C   0  0  1  0  0  3  0  0  0  0  0  0
  161.0180  205.4780  145.2020 C   0  0  0  0  0  2  0  0  0  0  0  0
  162.0360  204.3560  145.1600 C   0  0  0  0  0  2  0  0  0  0  0  0
  160.7200  205.2710  147.7030 C   0  0  1  0  0  3  0  0  0  0  0  0
  160.2410  205.1620  150.0690 C   0  0  0  0  0  2  0  0  0  0  0  0
  160.6310  203.0850  151.3790 C   0  0  0  0  0  2  0  0  0  0  0  0
  160.8840  203.6980  152.6070 O   0  0  0  0  0  1  0  0  0  0  0  0
  1  3  1  0  0  0  0
  2  5  1  0  0  0  0
  2  4  2  0  0  0  0
  3 10  1  6  0  0  0
  4  3  1  0  0  0  0
  5  1  2  0  0  0  0
  7 10  2  0  0  0  0
  7 11  1  0  0  0  0
  8  6  1  0  0  0  0
  8 19  1  0  0  0  0
  9 12  1  0  0  0  0
  9  6  2  0  0  0  0
 10  9  1  0  0  0  0
 11  8  2  0  0  0  0
 12 13  1  0  0  0  0
 13 18  1  0  0  0  0
 14 16  1  0  0  0  0
 14 13  2  0  0  0  0
 15 17  1  0  0  0  0
 16 15  2  0  0  0  0
 18 17  2  0  0  0  0
 20 19  1  0  0  0  0
 20 22  1  0  0  0  0
 21 22  1  0  0  0  0
 23  4  1  0  0  0  0
 24 28  2  0  0  0  0
 24 23  1  0  0  0  0
 25 27  1  0  0  0  0
 26 24  1  0  0  0  0
 27 30  2  0  0  0  0
 29 25  2  0  0  0  0
 29 26  1  0  0  0  0
 30 28  1  0  0  0  0
 31 27  1  0  0  0  0
 33 37  1  0  0  0  0
 34 35  1  0  0  0  0
 35 33  1  1  0  0  0
 36 31  1  0  0  0  0
 36 41  1  0  0  0  0
 37 42  1  1  0  0  0
 38 32  1  0  0  0  0
 39 38  1  0  0  0  0
 39 34  1  0  0  0  0
 40 32  1  6  0  0  0
 40 35  1  0  0  0  0
 40 36  1  0  0  0  0
 41 37  1  0  0  0  0
 42 43  1  0  0  0  0
M  END
>  <MODEL>
6

>  <REMARK>
 VINA RESULT:      -5.1      1.986      4.590
  Name = 
  11 active torsions:
  status: ('A' for Active; 'I' for Inactive)
    1  A    between atoms: C_1  and  C_30
    2  A    between atoms: N_2  and  C_14
    3  A    between atoms: N_2  and  C_38
    4  A    between atoms: C_3  and  C_16
    5  A    between atoms: C_3  and  C_27
    6  A    between atoms: C_8  and  C_19
    7  A    between atoms: C_8  and  C_24
    8  A    between atoms: C_21  and  C_24
    9  A    between atoms: N_23  and  C_33
   10  A    between atoms: C_25  and  C_39
   11  A    between atoms: C_28  and  C_33
                            x       y       z     vdW  Elec       q    Type
                         _______ _______ _______ _____ _____    ______ ____

>  <TORSDO>
F 11

$$$$
=
 OpenBabel11072413353D

 43 48  0  0  1  0  0  0  0  0999 V2000
  159.1450  213.8850  151.5510 N   0  0  0  0  0  0  0  0  0  0  0  0
  160.4890  212.2880  150.9110 C   0  0  0  0  0  3  0  0  0  0  0  0
  159.2230  213.0010  152.5610 C   0  0  2  0  0  3  0  0  0  0  0  0
  160.0740  211.9770  152.1910 C   0  0  0  0  0  0  0  0  0  0  0  0
  159.9190  213.4600  150.5630 N   0  0  0  0  0  0  0  0  0  0  0  0
  158.0650  212.8150  156.1780 C   0  0  0  0  0  3  0  0  0  0  0  0
  157.1190  213.6320  153.6860 C   0  0  0  0  0  3  0  0  0  0  0  0
  156.7670  213.3180  156.0560 C   0  0  0  0  0  0  0  0  0  0  0  0
  158.8980  212.6940  155.0540 C   0  0  0  0  0  0  0  0  0  0  0  0
  158.4120  213.0990  153.7910 C   0  0  0  0  0  0  0  0  0  0  0  0
  156.3000  213.7400  154.8110 C   0  0  0  0  0  3  0  0  0  0  0  0
  160.2650  212.2720  155.1980 N   0  0  0  0  0  2  0  0  0  0  0  0
  160.7570  211.1130  155.8860 C   0  0  0  0  0  0  0  0  0  0  0  0
  159.9760  209.9620  156.0560 C   0  0  0  0  0  3  0  0  0  0  0  0
  161.7960  208.8890  157.1680 N   0  0  0  0  0  0  0  0  0  0  0  0
  160.5170  208.8520  156.7080 C   0  0  0  0  0  3  0  0  0  0  0  0
  162.5780  209.9910  157.0070 C   0  0  0  0  0  3  0  0  0  0  0  0
  162.0710  211.1190  156.3600 C   0  0  0  0  0  3  0  0  0  0  0  0
  155.9010  213.4470  157.2600 C   0  0  0  0  0  2  0  0  0  0  0  0
  154.7530  212.4560  157.1880 C   0  0  0  0  0  2  0  0  0  0  0  0
  154.8840  210.3980  155.9840 O   0  0  0  0  0  1  0  0  0  0  0  0
  155.2860  211.0360  157.1590 C   0  0  0  0  0  2  0  0  0  0  0  0
  160.3000  210.6800  152.9050 C   0  0  0  0  0  2  0  0  0  0  0  0
  160.8450  209.6380  151.9870 C   0  0  0  0  0  0  0  0  0  0  0  0
  162.3070  208.0290  149.7370 C   0  0  0  0  0  3  0  0  0  0  0  0
  161.6860  210.0690  150.9540 O   0  0  0  0  0  0  0  0  0  0  0  0
  161.6000  206.9760  150.4660 C   0  0  0  0  0  0  0  0  0  0  0  0
  160.4810  208.3830  152.2340 C   0  0  0  0  0  3  0  0  0  0  0  0
  162.3360  209.3400  149.9540 C   0  0  0  0  0  3  0  0  0  0  0  0
  160.8290  207.1460  151.5340 C   0  0  0  0  0  3  0  0  0  0  0  0
  161.7850  205.5810  149.9750 C   0  0  0  0  0  2  0  0  0  0  0  0
  160.8490  206.3120  147.3020 C   0  0  0  0  0  2  0  0  0  0  0  0
  161.3440  202.5530  148.1640 C   0  0  0  0  0  2  0  0  0  0  0  0
  161.5850  203.6270  145.6930 S   0  0  0  0  0  0  0  0  0  0  0  0
  161.6480  203.8900  147.4980 C   0  0  1  0  0  3  0  0  0  0  0  0
  160.5300  205.0690  149.4140 N   0  0  0  0  0  0  0  0  0  0  0  0
  161.2570  202.7070  149.6770 C   0  0  1  0  0  3  0  0  0  0  0  0
  160.8060  206.2390  145.7860 C   0  0  0  0  0  2  0  0  0  0  0  0
  161.9350  205.3610  145.2810 C   0  0  0  0  0  2  0  0  0  0  0  0
  160.6080  204.9410  147.9450 C   0  0  1  0  0  3  0  0  0  0  0  0
  160.2140  203.7710  150.0230 C   0  0  0  0  0  2  0  0  0  0  0  0
  160.8600  201.3880  150.3130 C   0  0  0  0  0  2  0  0  0  0  0  0
  159.6530  200.9410  149.7740 O   0  0  0  0  0  1  0  0  0  0  0  0
  1  3  1  0  0  0  0
  2  4  2  0  0  0  0
  3 10  1  6  0  0  0
  4  3  1  0  0  0  0
  4 23  1  0  0  0  0
  5  2  1  0  0  0  0
  5  1  2  0  0  0  0
  7 10  2  0  0  0  0
  7 11  1  0  0  0  0
  8  6  1  0  0  0  0
  8 19  1  0  0  0  0
  9 12  1  0  0  0  0
  9  6  2  0  0  0  0
 10  9  1  0  0  0  0
 11  8  2  0  0  0  0
 12 13  1  0  0  0  0
 13 14  2  0  0  0  0
 13 18  1  0  0  0  0
 14 16  1  0  0  0  0
 16 15  2  0  0  0  0
 17 15  1  0  0  0  0
 18 17  2  0  0  0  0
 20 19  1  0  0  0  0
 21 22  1  0  0  0  0
 22 20  1  0  0  0  0
 24 28  2  0  0  0  0
 24 23  1  0  0  0  0
 25 29  2  0  0  0  0
 25 27  1  0  0  0  0
 26 24  1  0  0  0  0
 27 30  2  0  0  0  0
 29 26  1  0  0  0  0
 30 28  1  0  0  0  0
 31 27  1  0  0  0  0
 33 37  1  0  0  0  0
 34 35  1  0  0  0  0
 35 40  1  0  0  0  0
 35 33  1  1  0  0  0
 36 31  1  0  0  0  0
 36 41  1  0  0  0  0
 37 41  1  0  0  0  0
 37 42  1  1  0  0  0
 38 32  1  0  0  0  0
 39 34  1  0  0  0  0
 39 38  1  0  0  0  0
 40 32  1  6  0  0  0
 40 36  1  0  0  0  0
 43 42  1  0  0  0  0
M  END
>  <MODEL>
7

>  <REMARK>
 VINA RESULT:      -5.1      1.982      4.622
  Name = 
  11 active torsions:
  status: ('A' for Active; 'I' for Inactive)
    1  A    between atoms: C_1  and  C_30
    2  A    between atoms: N_2  and  C_14
    3  A    between atoms: N_2  and  C_38
    4  A    between atoms: C_3  and  C_16
    5  A    between atoms: C_3  and  C_27
    6  A    between atoms: C_8  and  C_19
    7  A    between atoms: C_8  and  C_24
    8  A    between atoms: C_21  and  C_24
    9  A    between atoms: N_23  and  C_33
   10  A    between atoms: C_25  and  C_39
   11  A    between atoms: C_28  and  C_33
                            x       y       z     vdW  Elec       q    Type
                         _______ _______ _______ _____ _____    ______ ____

>  <TORSDO>
F 11

$$$$
=
 OpenBabel11072413353D

 43 48  0  0  1  0  0  0  0  0999 V2000
  161.0800  211.5580  151.4170 N   0  0  0  0  0  0  0  0  0  0  0  0
  162.1550  209.6850  151.0920 C   0  0  0  0  0  3  0  0  0  0  0  0
  160.8350  210.7690  152.4770 C   0  0  2  0  0  3  0  0  0  0  0  0
  161.5080  209.5730  152.3070 C   0  0  0  0  0  0  0  0  0  0  0  0
  161.8860  210.9080  150.5890 N   0  0  0  0  0  0  0  0  0  0  0  0
  158.2940  212.6110  154.6220 C   0  0  0  0  0  3  0  0  0  0  0  0
  159.7140  210.2130  154.6040 C   0  0  0  0  0  3  0  0  0  0  0  0
  158.1460  211.7060  155.6760 C   0  0  0  0  0  0  0  0  0  0  0  0
  159.1680  212.3400  153.5580 C   0  0  0  0  0  0  0  0  0  0  0  0
  159.8940  211.1280  153.5570 C   0  0  0  0  0  0  0  0  0  0  0  0
  158.8460  210.5000  155.6590 C   0  0  0  0  0  3  0  0  0  0  0  0
  159.2420  213.2240  152.4270 N   0  0  0  0  0  2  0  0  0  0  0  0
  158.1810  213.5980  151.5350 C   0  0  0  0  0  0  0  0  0  0  0  0
  158.2850  213.4360  150.1470 C   0  0  0  0  0  3  0  0  0  0  0  0
  156.0670  214.2790  149.8810 N   0  0  0  0  0  0  0  0  0  0  0  0
  157.2090  213.7890  149.3300 C   0  0  0  0  0  3  0  0  0  0  0  0
  155.9370  214.4360  151.2260 C   0  0  0  0  0  3  0  0  0  0  0  0
  156.9920  214.0940  152.0740 C   0  0  0  0  0  3  0  0  0  0  0  0
  157.2070  212.0080  156.7920 C   0  0  0  0  0  2  0  0  0  0  0  0
  155.7740  211.9850  156.2910 C   0  0  0  0  0  2  0  0  0  0  0  0
  155.2610  210.4390  154.5460 O   0  0  0  0  0  1  0  0  0  0  0  0
  155.3660  210.5690  155.9320 C   0  0  0  0  0  2  0  0  0  0  0  0
  161.3670  208.3270  153.1240 C   0  0  0  0  0  2  0  0  0  0  0  0
  161.2020  207.1220  152.2600 C   0  0  0  0  0  0  0  0  0  0  0  0
  161.0050  204.2350  151.0700 C   0  0  0  0  0  3  0  0  0  0  0  0
  161.3590  205.8700  152.8670 O   0  0  0  0  0  0  0  0  0  0  0  0
  160.7400  205.0740  149.9010 C   0  0  0  0  0  0  0  0  0  0  0  0
  160.9190  207.3460  150.9800 C   0  0  0  0  0  3  0  0  0  0  0  0
  161.2670  204.5850  152.3250 C   0  0  0  0  0  3  0  0  0  0  0  0
  160.7020  206.4010  149.8840 C   0  0  0  0  0  3  0  0  0  0  0  0
  160.4640  204.3680  148.6180 C   0  0  0  0  0  2  0  0  0  0  0  0
  161.4840  201.6400  148.3410 C   0  0  0  0  0  2  0  0  0  0  0  0
  160.8810  203.7620  145.1390 C   0  0  0  0  0  2  0  0  0  0  0  0
  160.7270  201.0640  145.2700 S   0  0  0  0  0  0  0  0  0  0  0  0
  160.6250  202.6560  146.1570 C   0  0  1  0  0  3  0  0  0  0  0  0
  161.7210  204.0640  147.9250 N   0  0  0  0  0  0  0  0  0  0  0  0
  160.9340  205.1230  145.8190 C   0  0  1  0  0  3  0  0  0  0  0  0
  161.5630  200.2500  147.7350 C   0  0  0  0  0  2  0  0  0  0  0  0
  160.4270  200.0540  146.7500 C   0  0  0  0  0  2  0  0  0  0  0  0
  161.6770  202.7340  147.2850 C   0  0  1  0  0  3  0  0  0  0  0  0
  161.9920  205.1030  146.9240 C   0  0  0  0  0  2  0  0  0  0  0  0
  161.2840  206.1980  144.8070 C   0  0  0  0  0  2  0  0  0  0  0  0
  161.6900  205.6120  143.6070 O   0  0  0  0  0  1  0  0  0  0  0  0
  1  3  1  0  0  0  0
  2  4  2  0  0  0  0
  3 10  1  6  0  0  0
  4  3  1  0  0  0  0
  4 23  1  0  0  0  0
  5  2  1  0  0  0  0
  5  1  2  0  0  0  0
  6  8  1  0  0  0  0
  7 11  1  0  0  0  0
  8 19  1  0  0  0  0
  9  6  2  0  0  0  0
 10  9  1  0  0  0  0
 10  7  2  0  0  0  0
 11  8  2  0  0  0  0
 12  9  1  0  0  0  0
 13 18  1  0  0  0  0
 13 12  1  0  0  0  0
 14 13  2  0  0  0  0
 15 17  1  0  0  0  0
 16 15  2  0  0  0  0
 16 14  1  0  0  0  0
 17 18  2  0  0  0  0
 20 19  1  0  0  0  0
 21 22  1  0  0  0  0
 22 20  1  0  0  0  0
 24 26  1  0  0  0  0
 24 23  1  0  0  0  0
 25 29  2  0  0  0  0
 27 25  1  0  0  0  0
 28 24  2  0  0  0  0
 29 26  1  0  0  0  0
 30 27  2  0  0  0  0
 30 28  1  0  0  0  0
 31 27  1  0  0  0  0
 33 37  1  0  0  0  0
 34 35  1  0  0  0  0
 34 39  1  0  0  0  0
 35 33  1  6  0  0  0
 35 40  1  0  0  0  0
 36 31  1  0  0  0  0
 37 42  1  6  0  0  0
 37 41  1  0  0  0  0
 38 32  1  0  0  0  0
 39 38  1  0  0  0  0
 40 36  1  0  0  0  0
 40 32  1  1  0  0  0
 41 36  1  0  0  0  0
 43 42  1  0  0  0  0
M  END
>  <MODEL>
8

>  <REMARK>
 VINA RESULT:      -4.8      2.744      4.802
  Name = 
  11 active torsions:
  status: ('A' for Active; 'I' for Inactive)
    1  A    between atoms: C_1  and  C_30
    2  A    between atoms: N_2  and  C_14
    3  A    between atoms: N_2  and  C_38
    4  A    between atoms: C_3  and  C_16
    5  A    between atoms: C_3  and  C_27
    6  A    between atoms: C_8  and  C_19
    7  A    between atoms: C_8  and  C_24
    8  A    between atoms: C_21  and  C_24
    9  A    between atoms: N_23  and  C_33
   10  A    between atoms: C_25  and  C_39
   11  A    between atoms: C_28  and  C_33
                            x       y       z     vdW  Elec       q    Type
                         _______ _______ _______ _____ _____    ______ ____

>  <TORSDO>
F 11

$$$$
=
 OpenBabel11072413353D

 43 48  0  0  1  0  0  0  0  0999 V2000
  160.7490  206.0580  148.7030 N   0  0  0  0  0  0  0  0  0  0  0  0
  161.7530  207.5920  147.5190 C   0  0  0  0  0  3  0  0  0  0  0  0
  161.2640  206.9520  149.5650 C   0  0  2  0  0  3  0  0  0  0  0  0
  161.9040  207.9440  148.8460 C   0  0  0  0  0  0  0  0  0  0  0  0
  161.0330  206.4520  147.4710 N   0  0  0  0  0  0  0  0  0  0  0  0
  161.5370  205.4890  153.0630 C   0  0  0  0  0  3  0  0  0  0  0  0
  160.8200  207.8730  151.8100 C   0  0  0  0  0  3  0  0  0  0  0  0
  161.0990  206.5730  153.8280 C   0  0  0  0  0  0  0  0  0  0  0  0
  161.6020  205.5740  151.6640 C   0  0  0  0  0  0  0  0  0  0  0  0
  161.2280  206.7810  151.0310 C   0  0  0  0  0  0  0  0  0  0  0  0
  160.7540  207.7700  153.2010 C   0  0  0  0  0  3  0  0  0  0  0  0
  162.1490  204.4950  150.8880 N   0  0  0  0  0  2  0  0  0  0  0  0
  161.4520  203.3580  150.3540 C   0  0  0  0  0  0  0  0  0  0  0  0
  161.4910  203.0360  148.9910 C   0  0  0  0  0  3  0  0  0  0  0  0
  160.1390  201.1120  149.4060 N   0  0  0  0  0  0  0  0  0  0  0  0
  160.8190  201.9020  148.5320 C   0  0  0  0  0  3  0  0  0  0  0  0
  160.0950  201.3980  150.7360 C   0  0  0  0  0  3  0  0  0  0  0  0
  160.7540  202.5240  151.2310 C   0  0  0  0  0  3  0  0  0  0  0  0
  161.0450  206.4660  155.3120 C   0  0  0  0  0  2  0  0  0  0  0  0
  159.9150  207.3210  155.8580 C   0  0  0  0  0  2  0  0  0  0  0  0
  161.7940  208.5210  156.7130 O   0  0  0  0  0  1  0  0  0  0  0  0
  160.4390  208.2610  156.9270 C   0  0  0  0  0  2  0  0  0  0  0  0
  162.7910  209.0260  149.3810 C   0  0  0  0  0  2  0  0  0  0  0  0
  162.0020  210.2220  149.8000 C   0  0  0  0  0  0  0  0  0  0  0  0
  160.4370  212.9250  149.9740 C   0  0  0  0  0  3  0  0  0  0  0  0
  161.7250  211.1830  148.8200 O   0  0  0  0  0  0  0  0  0  0  0  0
  160.3540  212.4260  151.3470 C   0  0  0  0  0  0  0  0  0  0  0  0
  161.6300  210.2680  151.0750 C   0  0  0  0  0  3  0  0  0  0  0  0
  161.0230  212.3880  148.9090 C   0  0  0  0  0  3  0  0  0  0  0  0
  160.8650  211.2850  151.7970 C   0  0  0  0  0  3  0  0  0  0  0  0
  159.6030  213.2670  152.3210 C   0  0  0  0  0  2  0  0  0  0  0  0
  160.0420  212.3550  155.0660 C   0  0  0  0  0  2  0  0  0  0  0  0
  156.8690  214.4530  154.2610 C   0  0  0  0  0  2  0  0  0  0  0  0
  158.1330  214.4000  156.6520 S   0  0  0  0  0  0  0  0  0  0  0  0
  158.2470  214.1630  154.8450 C   0  0  1  0  0  3  0  0  0  0  0  0
  158.6220  212.4520  153.0460 N   0  0  0  0  0  0  0  0  0  0  0  0
  156.8410  214.1620  152.7660 C   0  0  1  0  0  3  0  0  0  0  0  0
  160.0820  212.4940  156.5780 C   0  0  0  0  0  2  0  0  0  0  0  0
  159.8630  213.9430  156.9670 C   0  0  0  0  0  2  0  0  0  0  0  0
  158.6650  212.7170  154.4980 C   0  0  1  0  0  3  0  0  0  0  0  0
  157.2780  212.7170  152.5180 C   0  0  0  0  0  2  0  0  0  0  0  0
  155.4400  214.3650  152.2210 C   0  0  0  0  0  2  0  0  0  0  0  0
  155.4240  214.1360  150.8450 O   0  0  0  0  0  1  0  0  0  0  0  0
  1  3  1  0  0  0  0
  2  4  2  0  0  0  0
  3 10  1  1  0  0  0
  4 23  1  0  0  0  0
  4  3  1  0  0  0  0
  5  2  1  0  0  0  0
  5  1  2  0  0  0  0
  6  8  1  0  0  0  0
  7 11  1  0  0  0  0
  8 19  1  0  0  0  0
  9  6  2  0  0  0  0
 10  9  1  0  0  0  0
 10  7  2  0  0  0  0
 11  8  2  0  0  0  0
 12  9  1  0  0  0  0
 13 12  1  0  0  0  0
 13 18  1  0  0  0  0
 14 13  2  0  0  0  0
 15 17  1  0  0  0  0
 16 14  1  0  0  0  0
 16 15  2  0  0  0  0
 17 18  2  0  0  0  0
 19 20  1  0  0  0  0
 20 22  1  0  0  0  0
 21 22  1  0  0  0  0
 23 24  1  0  0  0  0
 24 28  2  0  0  0  0
 25 27  1  0  0  0  0
 26 29  1  0  0  0  0
 26 24  1  0  0  0  0
 27 30  2  0  0  0  0
 27 31  1  0  0  0  0
 28 30  1  0  0  0  0
 29 25  2  0  0  0  0
 31 36  1  0  0  0  0
 32 38  1  0  0  0  0
 34 39  1  0  0  0  0
 35 33  1  6  0  0  0
 35 34  1  0  0  0  0
 36 40  1  0  0  0  0
 37 42  1  1  0  0  0
 37 33  1  0  0  0  0
 38 39  1  0  0  0  0
 40 35  1  0  0  0  0
 40 32  1  6  0  0  0
 41 37  1  0  0  0  0
 41 36  1  0  0  0  0
 43 42  1  0  0  0  0
M  END
>  <MODEL>
9

>  <REMARK>
 VINA RESULT:      -4.8      3.612     10.062
  Name = 
  11 active torsions:
  status: ('A' for Active; 'I' for Inactive)
    1  A    between atoms: C_1  and  C_30
    2  A    between atoms: N_2  and  C_14
    3  A    between atoms: N_2  and  C_38
    4  A    between atoms: C_3  and  C_16
    5  A    between atoms: C_3  and  C_27
    6  A    between atoms: C_8  and  C_19
    7  A    between atoms: C_8  and  C_24
    8  A    between atoms: C_21  and  C_24
    9  A    between atoms: N_23  and  C_33
   10  A    between atoms: C_25  and  C_39
   11  A    between atoms: C_28  and  C_33
                            x       y       z     vdW  Elec       q    Type
                         _______ _______ _______ _____ _____    ______ ____

>  <TORSDO>
F 11

$$$$
