=
 OpenBabel11072410073D

 69 74  0  0  1  0  0  0  0  0999 V2000
  162.0940  208.7130  148.9390 C   0  0  2  0  0  0  0  0  0  0  0  0
  160.3930  212.1560  149.0290 C   0  0  1  0  0  3  0  0  0  0  0  0
  163.2090  206.2140  155.0410 O   0  0  0  0  0  0  0  0  0  0  0  0
  159.0860  212.3240  149.8370 C   0  0  2  0  0  3  0  0  0  0  0  0
  160.9140  209.6740  149.2050 C   0  0  0  0  0  2  0  0  0  0  0  0
  160.9610  205.1270  147.7350 C   0  0  0  0  0  1  0  0  0  0  0  0
  161.3360  211.0870  149.6060 C   0  0  0  0  0  2  0  0  0  0  0  0
  158.9400  212.6250  146.9690 C   0  0  0  0  0  0  0  0  0  0  0  0
  159.3700  207.1280  154.3410 O   0  0  0  0  0  0  0  0  0  0  0  0
  159.8180  209.3750  154.2200 O   0  0  0  0  0  0  0  0  0  0  0  0
  163.8510  206.4680  152.1240 O   0  0  0  0  0  1  0  0  0  0  0  0
  163.1710  209.4310  148.1380 C   0  0  0  0  0  1  0  0  0  0  0  0
  157.5960  214.2990  149.8560 N   0  0  0  0  0  0  0  0  0  0  0  0
  161.6520  207.5410  148.0140 C   0  0  1  0  0  3  0  0  0  0  0  0
  160.4300  207.1610  150.8060 C   0  0  0  0  0  0  0  0  0  0  0  0
  158.1370  213.4200  147.7840 O   0  0  0  0  0  0  0  0  0  0  0  0
  161.8040  207.5160  151.3180 C   0  0  2  0  0  3  0  0  0  0  0  0
  162.1950  206.5680  154.3840 C   0  0  0  0  0  0  0  0  0  0  0  0
  161.5580  207.7650  154.7200 O   0  0  0  0  0  0  0  0  0  0  0  0
  159.4180  207.5460  151.4440 O   0  0  0  0  0  0  0  0  0  0  0  0
  158.6150  212.4590  145.7660 O   0  0  0  0  0  0  0  0  0  0  0  0
  158.0290  213.1340  151.9680 C   0  0  0  0  0  2  0  0  0  0  0  0
  161.3180  206.2220  148.7260 C   0  0  1  0  0  3  0  0  0  0  0  0
  160.1180  211.8760  147.5340 C   0  0  1  0  0  3  0  0  0  0  0  0
  163.4390  209.2250  150.9110 O   0  0  0  0  0  1  0  0  0  0  0  0
  159.7250  211.3320  152.0850 C   0  0  0  0  0  2  0  0  0  0  0  0
  158.2510  213.4060  149.1720 C   0  0  0  0  0  0  0  0  0  0  0  0
  160.1690  211.6680  153.5000 C   0  0  0  0  0  2  0  0  0  0  0  0
  160.7610  210.4420  154.1830 C   0  0  1  0  0  3  0  0  0  0  0  0
  162.7180  208.2120  150.2770 C   0  0  2  0  0  3  0  0  0  0  0  0
  160.2230  208.0520  154.4100 C   0  0  0  0  0  0  0  0  0  0  0  0
  162.4850  206.2640  151.9020 C   0  0  2  0  0  3  0  0  0  0  0  0
  161.7980  205.7690  153.1810 C   0  0  0  0  0  2  0  0  0  0  0  0
  159.3120  212.5980  151.3420 C   0  0  1  0  0  3  0  0  0  0  0  0
  157.6830  214.4520  151.3050 C   0  0  0  0  0  2  0  0  0  0  0  0
  160.2510  206.4180  149.6410 O   0  0  0  0  0  0  0  0  0  0  0  0
  161.3020  210.7670  155.5800 C   0  0  1  0  0  3  0  0  0  0  0  0
  161.2250  209.6310  156.3700 F   0  0  0  0  0  0  0  0  0  0  0  0
  163.5150  210.5790  154.6820 F   0  0  0  0  0  0  0  0  0  0  0  0
  162.7380  211.2990  155.5710 C   0  0  2  0  0  3  0  0  0  0  0  0
  165.1270  211.8230  156.6620 C   0  0  0  0  0  1  0  0  0  0  0  0
  163.5010  211.2570  157.2300 S   0  0  0  0  0  0  0  0  0  0  0  0
  160.5820  207.9360  147.1450 O   0  0  0  0  0  0  0  0  0  0  0  0
  160.4870  207.5390  145.8040 C   0  0  0  0  0  3  0  0  0  0  0  0
  160.6330  206.2730  145.4200 C   0  0  0  0  0  2  0  0  0  0  0  0
  161.3720  212.1080  146.7010 C   0  0  0  0  0  2  0  0  0  0  0  0
  161.0370  212.0620  145.3450 O   0  0  0  0  0  0  0  0  0  0  0  0
  161.5220  213.2560  144.8010 C   0  0  2  0  0  3  0  0  0  0  0  0
  158.4870  213.4500  141.8060 C   0  0  0  0  0  0  0  0  0  0  0  0
  160.5790  212.5940  142.6650 O   0  0  0  0  0  0  0  0  0  0  0  0
  159.5710  212.5660  141.6960 C   0  0  0  0  0  0  0  0  0  0  0  0
  157.5630  212.5640  139.7490 C   0  0  0  0  0  3  0  0  0  0  0  0
  156.3440  214.4110  140.8880 C   0  0  0  0  0  1  0  0  0  0  0  0
  159.2700  214.1270  144.0390 C   0  0  0  0  0  2  0  0  0  0  0  0
  157.4930  213.4680  140.8130 C   0  0  0  0  0  0  0  0  0  0  0  0
  158.4350  214.3240  142.9000 O   0  0  0  0  0  0  0  0  0  0  0  0
  160.6700  213.6690  143.6040 C   0  0  1  0  0  3  0  0  0  0  0  0
  159.6380  211.6660  140.6290 C   0  0  0  0  0  3  0  0  0  0  0  0
  158.6320  211.6650  139.6550 C   0  0  0  0  0  3  0  0  0  0  0  0
  162.8540  213.0860  144.4040 O   0  0  0  0  0  0  0  0  0  0  0  0
  162.9810  213.8210  143.2250 C   0  0  0  0  0  2  0  0  0  0  0  0
  163.1750  212.8860  142.0450 C   0  0  0  0  0  2  0  0  0  0  0  0
  163.7640  213.5860  140.9880 O   0  0  0  0  0  0  0  0  0  0  0  0
  162.4350  214.4450  139.3490 O   0  0  0  0  0  1  0  0  0  0  0  0
  162.9940  213.2760  139.8650 C   0  0  1  0  0  3  0  0  0  0  0  0
  163.2360  212.6760  137.5670 F   0  0  0  0  0  0  0  0  0  0  0  0
  164.0270  211.2640  139.1410 F   0  0  0  0  0  0  0  0  0  0  0  0
  163.8510  212.5940  138.8070 C   0  0  0  0  0  0  0  0  0  0  0  0
  165.0980  213.2150  138.7440 O   0  0  0  0  0  1  0  0  0  0  0  0
  1 12  1  6  0  0  0
  1  5  1  0  0  0  0
  1 30  1  0  0  0  0
  2  7  1  1  0  0  0
  2  4  1  0  0  0  0
  4 27  1  6  0  0  0
  4 34  1  0  0  0  0
  5  7  1  0  0  0  0
  8 24  1  0  0  0  0
  8 16  1  0  0  0  0
  9 31  2  0  0  0  0
 10 31  1  0  0  0  0
 13 35  1  0  0  0  0
 14 43  1  1  0  0  0
 14 23  1  0  0  0  0
 14  1  1  0  0  0  0
 15 20  2  0  0  0  0
 16 27  1  0  0  0  0
 17 15  1  6  0  0  0
 17 32  1  0  0  0  0
 18 19  1  0  0  0  0
 18  3  2  0  0  0  0
 21  8  2  0  0  0  0
 23  6  1  6  0  0  0
 23 36  1  0  0  0  0
 24 46  1  6  0  0  0
 24  2  1  0  0  0  0
 26 28  1  0  0  0  0
 27 13  2  0  0  0  0
 28 29  1  0  0  0  0
 29 10  1  0  0  0  0
 29 37  1  1  0  0  0
 30 25  1  1  0  0  0
 30 17  1  0  0  0  0
 31 19  1  0  0  0  0
 32 11  1  1  0  0  0
 32 33  1  0  0  0  0
 33 18  1  0  0  0  0
 34 22  1  1  0  0  0
 34 26  1  0  0  0  0
 35 22  1  0  0  0  0
 36 15  1  0  0  0  0
 37 38  1  1  0  0  0
 40 39  1  6  0  0  0
 40 37  1  0  0  0  0
 40 42  1  0  0  0  0
 41 42  1  0  0  0  0
 44 43  1  0  0  0  0
 45 44  2  0  0  0  0
 47 46  1  0  0  0  0
 48 60  1  6  0  0  0
 48 47  1  0  0  0  0
 49 56  1  0  0  0  0
 50 57  1  0  0  0  0
 51 49  1  0  0  0  0
 51 50  1  0  0  0  0
 52 55  1  0  0  0  0
 55 53  1  0  0  0  0
 55 49  2  0  0  0  0
 56 54  1  0  0  0  0
 57 54  1  0  0  0  0
 57 48  1  1  0  0  0
 58 51  2  0  0  0  0
 59 52  2  0  0  0  0
 59 58  1  0  0  0  0
 61 60  1  0  0  0  0
 62 61  1  0  0  0  0
 63 62  1  0  0  0  0
 65 64  1  6  0  0  0
 65 63  1  0  0  0  0
 66 68  1  0  0  0  0
 68 67  1  0  0  0  0
 68 65  1  0  0  0  0
 69 68  1  0  0  0  0
M  END
>  <MODEL>
1

>  <REMARK>
 VINA RESULT:       9.5      0.000      0.000
  Name = 
  15 active torsions:
  status: ('A' for Active; 'I' for Inactive)
    1  A    between atoms: O_1  and  C_53
    2  A    between atoms: O_1  and  C_66
    3  A    between atoms: C_6  and  O_29
    4  A    between atoms: O_13  and  C_42
    5  A    between atoms: O_13  and  C_66
    6  A    between atoms: O_15  and  C_50
    7  A    between atoms: O_15  and  C_68
    8  A    between atoms: C_25  and  C_27
    9  A    between atoms: C_25  and  S_43
   10  A    between atoms: C_27  and  C_57
   11  A    between atoms: O_29  and  C_31
   12  A    between atoms: C_42  and  C_50
   13  A    between atoms: C_45  and  C_66
   14  A    between atoms: C_48  and  C_53
   15  A    between atoms: C_52  and  C_68
                            x       y       z     vdW  Elec       q    Type
                         _______ _______ _______ _____ _____    ______ ____

>  <TORSDO>
F 15

$$$$
=
 OpenBabel11072410073D

 69 74  0  0  1  0  0  0  0  0999 V2000
  161.5800  211.8530  143.6870 C   0  0  2  0  0  0  0  0  0  0  0  0
  158.1290  212.4830  145.2510 C   0  0  1  0  0  3  0  0  0  0  0  0
  161.2830  210.8210  137.0860 O   0  0  0  0  0  0  0  0  0  0  0  0
  157.2290  213.5890  144.6560 C   0  0  2  0  0  3  0  0  0  0  0  0
  160.2950  212.6730  143.9340 C   0  0  0  0  0  2  0  0  0  0  0  0
  164.7910  214.0840  143.1410 C   0  0  0  0  0  1  0  0  0  0  0  0
  159.0550  211.8250  144.2160 C   0  0  0  0  0  2  0  0  0  0  0  0
  158.2180  213.9620  147.3440 C   0  0  0  0  0  0  0  0  0  0  0  0
  159.6640  214.2950  138.2580 O   0  0  0  0  0  0  0  0  0  0  0  0
  157.9640  213.2420  139.3860 O   0  0  0  0  0  0  0  0  0  0  0  0
  162.5730  210.4620  139.7690 O   0  0  0  0  0  1  0  0  0  0  0  0
  161.6630  210.7120  144.6920 C   0  0  0  0  0  1  0  0  0  0  0  0
  155.1080  214.4450  145.6000 N   0  0  0  0  0  0  0  0  0  0  0  0
  162.8470  212.7100  143.9820 C   0  0  1  0  0  3  0  0  0  0  0  0
  161.5430  213.6700  141.3730 C   0  0  0  0  0  0  0  0  0  0  0  0
  156.9400  214.4100  147.0140 O   0  0  0  0  0  0  0  0  0  0  0  0
  161.4320  212.2040  141.0360 C   0  0  2  0  0  3  0  0  0  0  0  0
  160.9720  211.7590  137.8660 C   0  0  0  0  0  0  0  0  0  0  0  0
  159.6220  211.9880  138.1420 O   0  0  0  0  0  0  0  0  0  0  0  0
  160.6250  214.4530  141.0190 O   0  0  0  0  0  0  0  0  0  0  0  0
  158.7980  214.4530  148.3450 O   0  0  0  0  0  0  0  0  0  0  0  0
  155.2720  214.1280  143.1760 C   0  0  0  0  0  2  0  0  0  0  0  0
  163.5340  213.3230  142.7540 C   0  0  1  0  0  3  0  0  0  0  0  0
  158.9520  212.9910  146.4580 C   0  0  1  0  0  3  0  0  0  0  0  0
  160.6730  210.2060  142.1290 O   0  0  0  0  0  1  0  0  0  0  0  0
  157.2480  213.0130  142.1850 C   0  0  0  0  0  2  0  0  0  0  0  0
  156.3650  214.1520  145.7740 C   0  0  0  0  0  0  0  0  0  0  0  0
  156.4660  212.3370  141.0690 C   0  0  0  0  0  2  0  0  0  0  0  0
  157.3710  212.0450  139.8790 C   0  0  1  0  0  3  0  0  0  0  0  0
  161.5910  211.2510  142.2490 C   0  0  2  0  0  3  0  0  0  0  0  0
  159.1140  213.2110  138.5940 C   0  0  0  0  0  0  0  0  0  0  0  0
  162.4290  211.8460  139.9180 C   0  0  2  0  0  3  0  0  0  0  0  0
  162.0630  212.4980  138.5790 C   0  0  0  0  0  2  0  0  0  0  0  0
  156.3920  213.1290  143.4400 C   0  0  1  0  0  3  0  0  0  0  0  0
  154.3560  214.1570  144.3830 C   0  0  0  0  0  2  0  0  0  0  0  0
  162.6360  214.1810  142.0690 O   0  0  0  0  0  0  0  0  0  0  0  0
  156.6350  211.2830  138.7710 C   0  0  1  0  0  3  0  0  0  0  0  0
  156.3920  209.9880  139.1980 F   0  0  0  0  0  0  0  0  0  0  0  0
  154.8880  212.8300  139.3110 F   0  0  0  0  0  0  0  0  0  0  0  0
  155.3230  211.9450  138.3410 C   0  0  2  0  0  3  0  0  0  0  0  0
  152.9050  211.3080  139.3000 C   0  0  0  0  0  1  0  0  0  0  0  0
  154.0130  210.7200  137.9920 S   0  0  0  0  0  0  0  0  0  0  0  0
  162.5800  213.7130  144.9720 O   0  0  0  0  0  0  0  0  0  0  0  0
  162.6260  213.4710  146.3510 C   0  0  0  0  0  3  0  0  0  0  0  0
  163.1270  214.3490  147.2160 C   0  0  0  0  0  2  0  0  0  0  0  0
  159.5110  211.8240  147.2620 C   0  0  0  0  0  2  0  0  0  0  0  0
  160.8920  211.9810  147.3990 O   0  0  0  0  0  0  0  0  0  0  0  0
  161.1460  211.8520  148.7690 C   0  0  2  0  0  3  0  0  0  0  0  0
  161.4750  207.7020  149.7160 C   0  0  0  0  0  0  0  0  0  0  0  0
  161.2460  210.0220  150.3600 O   0  0  0  0  0  0  0  0  0  0  0  0
  161.2720  208.6680  150.7130 C   0  0  0  0  0  0  0  0  0  0  0  0
  161.3720  205.9570  151.3940 C   0  0  0  0  0  3  0  0  0  0  0  0
  161.7930  205.2960  149.0310 C   0  0  0  0  0  1  0  0  0  0  0  0
  161.2750  209.4460  147.9900 C   0  0  0  0  0  2  0  0  0  0  0  0
  161.5530  206.3420  150.0620 C   0  0  0  0  0  0  0  0  0  0  0  0
  161.6270  208.1220  148.3880 O   0  0  0  0  0  0  0  0  0  0  0  0
  161.6860  210.4560  149.0710 C   0  0  1  0  0  3  0  0  0  0  0  0
  161.0940  208.2780  152.0430 C   0  0  0  0  0  3  0  0  0  0  0  0
  161.1430  206.9200  152.3830 C   0  0  0  0  0  3  0  0  0  0  0  0
  159.9660  212.0740  149.4900 O   0  0  0  0  0  0  0  0  0  0  0  0
  160.3690  212.2100  150.8190 C   0  0  0  0  0  2  0  0  0  0  0  0
  159.2410  212.7930  151.6500 C   0  0  0  0  0  2  0  0  0  0  0  0
  159.7330  213.8410  152.4320 O   0  0  0  0  0  0  0  0  0  0  0  0
  157.4690  214.0940  152.5000 O   0  0  0  0  0  1  0  0  0  0  0  0
  158.6540  214.2550  153.2170 C   0  0  1  0  0  3  0  0  0  0  0  0
  158.9550  214.2420  155.5860 F   0  0  0  0  0  0  0  0  0  0  0  0
  159.4720  212.3780  154.4220 F   0  0  0  0  0  0  0  0  0  0  0  0
  158.5980  213.4460  154.5080 C   0  0  0  0  0  0  0  0  0  0  0  0
  157.3060  212.9620  154.7010 O   0  0  0  0  0  1  0  0  0  0  0  0
  1  5  1  0  0  0  0
  1 14  1  0  0  0  0
  1 12  1  1  0  0  0
  2  7  1  6  0  0  0
  2 24  1  0  0  0  0
  3 18  2  0  0  0  0
  4  2  1  0  0  0  0
  4 27  1  1  0  0  0
  5  7  1  0  0  0  0
  8 21  2  0  0  0  0
  9 31  2  0  0  0  0
 10 29  1  0  0  0  0
 13 27  2  0  0  0  0
 14 43  1  1  0  0  0
 15 36  1  0  0  0  0
 16  8  1  0  0  0  0
 17 15  1  1  0  0  0
 17 30  1  0  0  0  0
 18 19  1  0  0  0  0
 18 33  1  0  0  0  0
 19 31  1  0  0  0  0
 20 15  2  0  0  0  0
 22 34  1  0  0  0  0
 22 35  1  0  0  0  0
 23  6  1  1  0  0  0
 23 14  1  0  0  0  0
 24 46  1  1  0  0  0
 24  8  1  0  0  0  0
 27 16  1  0  0  0  0
 28 26  1  0  0  0  0
 29 37  1  6  0  0  0
 29 28  1  0  0  0  0
 30 25  1  1  0  0  0
 30  1  1  0  0  0  0
 31 10  1  0  0  0  0
 32 11  1  6  0  0  0
 32 17  1  0  0  0  0
 33 32  1  0  0  0  0
 34 26  1  6  0  0  0
 34  4  1  0  0  0  0
 35 13  1  0  0  0  0
 36 23  1  0  0  0  0
 37 38  1  1  0  0  0
 40 37  1  0  0  0  0
 40 39  1  1  0  0  0
 42 40  1  0  0  0  0
 42 41  1  0  0  0  0
 43 44  1  0  0  0  0
 44 45  2  0  0  0  0
 46 47  1  0  0  0  0
 48 47  1  6  0  0  0
 48 60  1  0  0  0  0
 49 55  2  0  0  0  0
 49 51  1  0  0  0  0
 50 51  1  0  0  0  0
 51 58  2  0  0  0  0
 52 59  2  0  0  0  0
 53 55  1  0  0  0  0
 54 56  1  0  0  0  0
 54 57  1  0  0  0  0
 55 52  1  0  0  0  0
 56 49  1  0  0  0  0
 57 48  1  6  0  0  0
 57 50  1  0  0  0  0
 58 59  1  0  0  0  0
 60 61  1  0  0  0  0
 61 62  1  0  0  0  0
 62 63  1  0  0  0  0
 63 65  1  0  0  0  0
 65 64  1  6  0  0  0
 65 68  1  0  0  0  0
 67 68  1  0  0  0  0
 68 69  1  0  0  0  0
 68 66  1  0  0  0  0
M  END
>  <MODEL>
2

>  <REMARK>
 VINA RESULT:      12.3      3.923     11.977
  Name = 
  15 active torsions:
  status: ('A' for Active; 'I' for Inactive)
    1  A    between atoms: O_1  and  C_53
    2  A    between atoms: O_1  and  C_66
    3  A    between atoms: C_6  and  O_29
    4  A    between atoms: O_13  and  C_42
    5  A    between atoms: O_13  and  C_66
    6  A    between atoms: O_15  and  C_50
    7  A    between atoms: O_15  and  C_68
    8  A    between atoms: C_25  and  C_27
    9  A    between atoms: C_25  and  S_43
   10  A    between atoms: C_27  and  C_57
   11  A    between atoms: O_29  and  C_31
   12  A    between atoms: C_42  and  C_50
   13  A    between atoms: C_45  and  C_66
   14  A    between atoms: C_48  and  C_53
   15  A    between atoms: C_52  and  C_68
                            x       y       z     vdW  Elec       q    Type
                         _______ _______ _______ _____ _____    ______ ____

>  <TORSDO>
F 15

$$$$
