=
 OpenBabel11072412233D

 27 30  0  0  1  0  0  0  0  0999 V2000
  159.2820  212.0150  153.3990 O   0  0  0  0  0  0  0  0  0  0  0  0
  156.1220  211.6500  156.3990 N   0  0  0  0  0  2  0  0  0  0  0  0
  161.0680  210.9960  157.2510 C   0  0  0  0  0  2  0  0  0  0  0  0
  160.4010  211.0660  155.8880 C   0  0  0  0  0  0  0  0  0  0  0  0
  162.7000  210.4270  154.9140 C   0  0  0  0  0  2  0  0  0  0  0  0
  158.4760  212.0730  156.9910 C   0  0  0  0  0  3  0  0  0  0  0  0
  156.3280  211.0280  155.1040 C   0  0  0  0  0  2  0  0  0  0  0  0
  159.1640  211.6120  155.7560 C   0  0  0  0  0  0  0  0  0  0  0  0
  163.1100  210.7830  156.3410 C   0  0  0  0  0  2  0  0  0  0  0  0
  158.5500  211.8480  154.4110 C   0  0  0  0  0  0  0  0  0  0  0  0
  162.2170  210.1850  157.2390 O   0  0  0  0  0  0  0  0  0  0  0  0
  157.0790  211.9880  154.2100 C   0  0  0  0  0  2  0  0  0  0  0  0
  161.1750  210.5140  154.7020 C   0  0  1  0  0  3  0  0  0  0  0  0
  157.1660  212.1150  157.2610 C   0  0  0  0  0  3  0  0  0  0  0  0
  160.5670  209.1990  154.1920 C   0  0  2  0  0  3  0  0  0  0  0  0
  160.3380  206.9620  155.0820 O   0  0  0  0  0  1  0  0  0  0  0  0
  161.2650  207.9420  154.7210 C   0  0  0  0  0  2  0  0  0  0  0  0
  160.4230  209.2000  152.6730 C   0  0  0  0  0  2  0  0  0  0  0  0
  162.1720  209.7080  151.0380 N   0  0  0  0  0  0  0  0  0  0  0  0
  161.6830  208.6820  151.9870 C   0  0  2  0  0  3  0  0  0  0  0  0
  161.6590  207.7840  149.8630 C   0  0  0  0  0  0  0  0  0  0  0  0
  161.0600  205.5710  149.1740 C   0  0  0  0  0  3  0  0  0  0  0  0
  160.9560  206.2080  151.5300 C   0  0  0  0  0  3  0  0  0  0  0  0
  160.7860  205.2450  150.5180 C   0  0  0  0  0  3  0  0  0  0  0  0
  161.5090  206.8590  148.8330 C   0  0  0  0  0  3  0  0  0  0  0  0
  161.3870  207.4820  151.1540 C   0  0  0  0  0  0  0  0  0  0  0  0
  162.1230  209.1060  149.7630 N   0  0  0  0  0  0  0  0  0  0  0  0
  1 10  2  0  0  0  0
  2 14  1  0  0  0  0
  4  3  1  0  0  0  0
  5  9  1  0  0  0  0
  6 14  2  0  0  0  0
  7  2  1  0  0  0  0
  8  4  2  0  0  0  0
  8  6  1  0  0  0  0
  9 11  1  0  0  0  0
 10  8  1  0  0  0  0
 11  3  1  0  0  0  0
 12 10  1  0  0  0  0
 12  7  1  0  0  0  0
 13 15  1  1  0  0  0
 13  5  1  0  0  0  0
 13  4  1  0  0  0  0
 15 18  1  6  0  0  0
 15 17  1  0  0  0  0
 17 16  1  0  0  0  0
 19 20  1  0  0  0  0
 20 18  1  6  0  0  0
 21 26  1  0  0  0  0
 22 24  2  0  0  0  0
 24 23  1  0  0  0  0
 25 22  1  0  0  0  0
 25 21  2  0  0  0  0
 26 23  2  0  0  0  0
 26 20  1  0  0  0  0
 27 21  1  0  0  0  0
 27 19  2  0  0  0  0
M  END
>  <MODEL>
1

>  <REMARK>
 VINA RESULT:      -7.1      0.000      0.000
  Name = 
  4 active torsions:
  status: ('A' for Active; 'I' for Inactive)
    1  A    between atoms: C_2  and  C_14
    2  A    between atoms: C_2  and  C_20
    3  A    between atoms: C_2  and  C_26
    4  A    between atoms: C_5  and  C_20
                            x       y       z     vdW  Elec       q    Type
                         _______ _______ _______ _____ _____    ______ ____

>  <TORSDO>
F 4

$$$$
=
 OpenBabel11072412233D

 27 30  0  0  1  0  0  0  0  0999 V2000
  159.6530  206.3470  148.7280 O   0  0  0  0  0  0  0  0  0  0  0  0
  162.6470  205.0530  145.8160 N   0  0  0  0  0  2  0  0  0  0  0  0
  161.5700  202.6960  150.1630 C   0  0  0  0  0  2  0  0  0  0  0  0
  161.1320  204.0980  149.7790 C   0  0  0  0  0  0  0  0  0  0  0  0
  160.2370  204.3010  152.1870 C   0  0  0  0  0  2  0  0  0  0  0  0
  161.6500  203.5210  147.4690 C   0  0  0  0  0  3  0  0  0  0  0  0
  162.4300  206.3060  146.5160 C   0  0  0  0  0  2  0  0  0  0  0  0
  161.1420  204.4890  148.4780 C   0  0  0  0  0  0  0  0  0  0  0  0
  160.4760  202.7940  152.1230 C   0  0  0  0  0  2  0  0  0  0  0  0
  160.5630  205.8000  148.0480 C   0  0  0  0  0  0  0  0  0  0  0  0
  161.7330  202.5520  151.5520 O   0  0  0  0  0  0  0  0  0  0  0  0
  160.9510  206.4750  146.7750 C   0  0  0  0  0  2  0  0  0  0  0  0
  160.6830  205.0220  150.9000 C   0  0  1  0  0  3  0  0  0  0  0  0
  162.2760  203.7620  146.3110 C   0  0  0  0  0  3  0  0  0  0  0  0
  161.7110  206.1330  151.1630 C   0  0  2  0  0  3  0  0  0  0  0  0
  162.1790  206.1410  153.5360 O   0  0  0  0  0  1  0  0  0  0  0  0
  162.7040  205.8120  152.2850 C   0  0  0  0  0  2  0  0  0  0  0  0
  161.0360  207.4900  151.3420 C   0  0  0  0  0  2  0  0  0  0  0  0
  161.7550  209.3630  152.7440 N   0  0  0  0  0  0  0  0  0  0  0  0
  162.0570  208.6110  151.5050 C   0  0  2  0  0  3  0  0  0  0  0  0
  161.5980  210.7990  150.9390 C   0  0  0  0  0  0  0  0  0  0  0  0
  161.6500  211.8350  148.7810 C   0  0  0  0  0  3  0  0  0  0  0  0
  162.1790  209.4640  149.0320 C   0  0  0  0  0  3  0  0  0  0  0  0
  162.0220  210.5990  148.2160 C   0  0  0  0  0  3  0  0  0  0  0  0
  161.4370  211.9460  150.1670 C   0  0  0  0  0  3  0  0  0  0  0  0
  161.9440  209.6060  150.4000 C   0  0  0  0  0  0  0  0  0  0  0  0
  161.4730  210.6830  152.3330 N   0  0  0  0  0  0  0  0  0  0  0  0
  2 14  1  0  0  0  0
  2  7  1  0  0  0  0
  3 11  1  0  0  0  0
  4  3  1  0  0  0  0
  4 13  1  0  0  0  0
  6  8  1  0  0  0  0
  7 12  1  0  0  0  0
  8  4  2  0  0  0  0
  9  5  1  0  0  0  0
 10  8  1  0  0  0  0
 10  1  2  0  0  0  0
 11  9  1  0  0  0  0
 12 10  1  0  0  0  0
 13 15  1  1  0  0  0
 13  5  1  0  0  0  0
 14  6  2  0  0  0  0
 15 18  1  1  0  0  0
 15 17  1  0  0  0  0
 17 16  1  0  0  0  0
 20 18  1  6  0  0  0
 20 19  1  0  0  0  0
 21 27  1  0  0  0  0
 22 25  1  0  0  0  0
 23 26  2  0  0  0  0
 24 22  2  0  0  0  0
 24 23  1  0  0  0  0
 25 21  2  0  0  0  0
 26 21  1  0  0  0  0
 26 20  1  0  0  0  0
 27 19  2  0  0  0  0
M  END
>  <MODEL>
2

>  <REMARK>
 VINA RESULT:      -6.0      4.454      8.027
  Name = 
  4 active torsions:
  status: ('A' for Active; 'I' for Inactive)
    1  A    between atoms: C_2  and  C_14
    2  A    between atoms: C_2  and  C_20
    3  A    between atoms: C_2  and  C_26
    4  A    between atoms: C_5  and  C_20
                            x       y       z     vdW  Elec       q    Type
                         _______ _______ _______ _____ _____    ______ ____

>  <TORSDO>
F 4

$$$$
=
 OpenBabel11072412233D

 27 30  0  0  1  0  0  0  0  0999 V2000
  159.4840  206.4110  148.4010 O   0  0  0  0  0  0  0  0  0  0  0  0
  162.5260  204.9150  145.6390 N   0  0  0  0  0  2  0  0  0  0  0  0
  161.7350  203.2100  150.3380 C   0  0  0  0  0  2  0  0  0  0  0  0
  161.1700  204.4910  149.7500 C   0  0  0  0  0  0  0  0  0  0  0  0
  160.3050  205.0050  152.1220 C   0  0  0  0  0  2  0  0  0  0  0  0
  161.6950  203.5930  147.5460 C   0  0  0  0  0  3  0  0  0  0  0  0
  162.2140  206.2420  146.1370 C   0  0  0  0  0  2  0  0  0  0  0  0
  161.1230  204.6660  148.4030 C   0  0  0  0  0  0  0  0  0  0  0  0
  160.6720  203.5320  152.2900 C   0  0  0  0  0  2  0  0  0  0  0  0
  160.4250  205.8380  147.7880 C   0  0  0  0  0  0  0  0  0  0  0  0
  161.9350  203.3060  151.7270 O   0  0  0  0  0  0  0  0  0  0  0  0
  160.7310  206.3280  146.4130 C   0  0  0  0  0  2  0  0  0  0  0  0
  160.6630  205.5430  150.7220 C   0  0  1  0  0  3  0  0  0  0  0  0
  162.2760  203.6940  146.3450 C   0  0  0  0  0  3  0  0  0  0  0  0
  161.5960  206.7630  150.7720 C   0  0  2  0  0  3  0  0  0  0  0  0
  162.9600  207.7240  149.0210 O   0  0  0  0  0  1  0  0  0  0  0  0
  162.8400  206.6350  149.8870 C   0  0  0  0  0  2  0  0  0  0  0  0
  161.9320  207.1530  152.2090 C   0  0  0  0  0  2  0  0  0  0  0  0
  161.5860  209.5640  152.4460 N   0  0  0  0  0  0  0  0  0  0  0  0
  160.9970  208.2370  152.7330 C   0  0  2  0  0  3  0  0  0  0  0  0
  161.3570  209.3250  154.7340 C   0  0  0  0  0  0  0  0  0  0  0  0
  160.8370  208.6000  156.9550 C   0  0  0  0  0  3  0  0  0  0  0  0
  160.3320  207.1770  155.0350 C   0  0  0  0  0  3  0  0  0  0  0  0
  160.3220  207.4000  156.4230 C   0  0  0  0  0  3  0  0  0  0  0  0
  161.3610  209.5870  156.1020 C   0  0  0  0  0  3  0  0  0  0  0  0
  160.8750  208.1710  154.2180 C   0  0  0  0  0  0  0  0  0  0  0  0
  161.7930  210.1720  153.7010 N   0  0  0  0  0  0  0  0  0  0  0  0
  2  7  1  0  0  0  0
  2 14  1  0  0  0  0
  3 11  1  0  0  0  0
  4  3  1  0  0  0  0
  4 13  1  0  0  0  0
  5  9  1  0  0  0  0
  6  8  1  0  0  0  0
  7 12  1  0  0  0  0
  8  4  2  0  0  0  0
 10  1  2  0  0  0  0
 10  8  1  0  0  0  0
 11  9  1  0  0  0  0
 12 10  1  0  0  0  0
 13 15  1  1  0  0  0
 13  5  1  0  0  0  0
 14  6  2  0  0  0  0
 15 17  1  6  0  0  0
 15 18  1  0  0  0  0
 16 17  1  0  0  0  0
 19 20  1  0  0  0  0
 19 27  2  0  0  0  0
 20 18  1  1  0  0  0
 20 26  1  0  0  0  0
 21 25  1  0  0  0  0
 23 24  2  0  0  0  0
 24 22  1  0  0  0  0
 25 22  2  0  0  0  0
 26 21  2  0  0  0  0
 26 23  1  0  0  0  0
 27 21  1  0  0  0  0
M  END
>  <MODEL>
3

>  <REMARK>
 VINA RESULT:      -6.0      3.599      8.264
  Name = 
  4 active torsions:
  status: ('A' for Active; 'I' for Inactive)
    1  A    between atoms: C_2  and  C_14
    2  A    between atoms: C_2  and  C_20
    3  A    between atoms: C_2  and  C_26
    4  A    between atoms: C_5  and  C_20
                            x       y       z     vdW  Elec       q    Type
                         _______ _______ _______ _____ _____    ______ ____

>  <TORSDO>
F 4

$$$$
=
 OpenBabel11072412233D

 27 30  0  0  1  0  0  0  0  0999 V2000
  159.6960  205.8340  148.7880 O   0  0  0  0  0  0  0  0  0  0  0  0
  162.9770  206.0150  145.9030 N   0  0  0  0  0  2  0  0  0  0  0  0
  161.2510  201.8080  148.1260 C   0  0  0  0  0  2  0  0  0  0  0  0
  160.9280  203.2320  148.5440 C   0  0  0  0  0  0  0  0  0  0  0  0
  159.7440  202.1900  150.5810 C   0  0  0  0  0  2  0  0  0  0  0  0
  161.7110  203.9480  146.3500 C   0  0  0  0  0  3  0  0  0  0  0  0
  162.7280  206.7030  147.1570 C   0  0  0  0  0  2  0  0  0  0  0  0
  161.1210  204.2620  147.6790 C   0  0  0  0  0  0  0  0  0  0  0  0
  159.9220  200.9440  149.7170 C   0  0  0  0  0  2  0  0  0  0  0  0
  160.6600  205.6500  147.9970 C   0  0  0  0  0  0  0  0  0  0  0  0
  161.2300  200.9170  149.2130 O   0  0  0  0  0  0  0  0  0  0  0  0
  161.2370  206.8610  147.3440 C   0  0  0  0  0  2  0  0  0  0  0  0
  160.3810  203.4420  149.9460 C   0  0  1  0  0  3  0  0  0  0  0  0
  162.4890  204.7100  145.5720 C   0  0  0  0  0  3  0  0  0  0  0  0
  161.4150  204.1150  150.8610 C   0  0  2  0  0  3  0  0  0  0  0  0
  161.8540  202.2270  152.3080 O   0  0  0  0  0  1  0  0  0  0  0  0
  162.4520  203.1510  151.4470 C   0  0  0  0  0  2  0  0  0  0  0  0
  160.7430  204.9780  151.9260 C   0  0  0  0  0  2  0  0  0  0  0  0
  161.3090  206.0890  154.0320 N   0  0  0  0  0  0  0  0  0  0  0  0
  161.7460  205.8840  152.6330 C   0  0  2  0  0  3  0  0  0  0  0  0
  161.3680  208.1360  152.9580 C   0  0  0  0  0  0  0  0  0  0  0  0
  161.6730  209.9480  151.4230 C   0  0  0  0  0  3  0  0  0  0  0  0
  162.1560  207.6520  150.7440 C   0  0  0  0  0  3  0  0  0  0  0  0
  162.1010  209.0260  150.4460 C   0  0  0  0  0  3  0  0  0  0  0  0
  161.3040  209.5040  152.7050 C   0  0  0  0  0  3  0  0  0  0  0  0
  161.7660  207.2440  152.0210 C   0  0  0  0  0  0  0  0  0  0  0  0
  161.0830  207.4760  154.1650 N   0  0  0  0  0  0  0  0  0  0  0  0
  2  7  1  0  0  0  0
  3  4  1  0  0  0  0
  3 11  1  0  0  0  0
  4 13  1  0  0  0  0
  6  8  1  0  0  0  0
  7 12  1  0  0  0  0
  8 10  1  0  0  0  0
  8  4  2  0  0  0  0
  9  5  1  0  0  0  0
 10  1  2  0  0  0  0
 11  9  1  0  0  0  0
 12 10  1  0  0  0  0
 13  5  1  0  0  0  0
 13 15  1  1  0  0  0
 14  2  1  0  0  0  0
 14  6  2  0  0  0  0
 15 17  1  1  0  0  0
 15 18  1  0  0  0  0
 17 16  1  0  0  0  0
 19 27  2  0  0  0  0
 20 18  1  6  0  0  0
 20 19  1  0  0  0  0
 21 27  1  0  0  0  0
 22 25  2  0  0  0  0
 23 26  1  0  0  0  0
 24 23  2  0  0  0  0
 24 22  1  0  0  0  0
 25 21  1  0  0  0  0
 26 20  1  0  0  0  0
 26 21  2  0  0  0  0
M  END
>  <MODEL>
4

>  <REMARK>
 VINA RESULT:      -5.9      4.395      8.794
  Name = 
  4 active torsions:
  status: ('A' for Active; 'I' for Inactive)
    1  A    between atoms: C_2  and  C_14
    2  A    between atoms: C_2  and  C_20
    3  A    between atoms: C_2  and  C_26
    4  A    between atoms: C_5  and  C_20
                            x       y       z     vdW  Elec       q    Type
                         _______ _______ _______ _____ _____    ______ ____

>  <TORSDO>
F 4

$$$$
=
 OpenBabel11072412233D

 27 30  0  0  1  0  0  0  0  0999 V2000
  159.7200  213.5560  154.9920 O   0  0  0  0  0  0  0  0  0  0  0  0
  155.6210  212.0580  154.7200 N   0  0  0  0  0  2  0  0  0  0  0  0
  159.6470  209.3470  156.1530 C   0  0  0  0  0  2  0  0  0  0  0  0
  159.6850  210.7080  155.4800 C   0  0  0  0  0  0  0  0  0  0  0  0
  162.2380  210.3890  155.3460 C   0  0  0  0  0  2  0  0  0  0  0  0
  157.3450  210.9720  156.1070 C   0  0  0  0  0  3  0  0  0  0  0  0
  156.4900  212.7280  153.7710 C   0  0  0  0  0  2  0  0  0  0  0  0
  158.5850  211.5060  155.4820 C   0  0  0  0  0  0  0  0  0  0  0  0
  161.8860  209.2700  156.3240 C   0  0  0  0  0  2  0  0  0  0  0  0
  158.6360  212.9130  154.9760 C   0  0  0  0  0  0  0  0  0  0  0  0
  160.7750  208.5680  155.8390 O   0  0  0  0  0  0  0  0  0  0  0  0
  157.4210  213.6510  154.5220 C   0  0  0  0  0  2  0  0  0  0  0  0
  160.9900  211.1280  154.8240 C   0  0  1  0  0  3  0  0  0  0  0  0
  156.0680  211.2280  155.7980 C   0  0  0  0  0  3  0  0  0  0  0  0
  160.8840  211.1130  153.2920 C   0  0  2  0  0  3  0  0  0  0  0  0
  160.2730  212.4310  151.3580 O   0  0  0  0  0  1  0  0  0  0  0  0
  160.0110  212.2330  152.7160 C   0  0  0  0  0  2  0  0  0  0  0  0
  160.4930  209.7320  152.7710 C   0  0  0  0  0  2  0  0  0  0  0  0
  161.7930  209.3900  150.7260 N   0  0  0  0  0  0  0  0  0  0  0  0
  161.6820  209.0070  152.1510 C   0  0  2  0  0  3  0  0  0  0  0  0
  161.4430  207.1080  150.8640 C   0  0  0  0  0  0  0  0  0  0  0  0
  161.1520  204.8390  151.5700 C   0  0  0  0  0  3  0  0  0  0  0  0
  161.3580  206.6340  153.2140 C   0  0  0  0  0  3  0  0  0  0  0  0
  161.1910  205.2710  152.9120 C   0  0  0  0  0  3  0  0  0  0  0  0
  161.2840  205.7680  150.5220 C   0  0  0  0  0  3  0  0  0  0  0  0
  161.4690  207.5310  152.1490 C   0  0  0  0  0  0  0  0  0  0  0  0
  161.6270  208.1950  149.9930 N   0  0  0  0  0  0  0  0  0  0  0  0
  2 14  1  0  0  0  0
  4  8  2  0  0  0  0
  4  3  1  0  0  0  0
  5  9  1  0  0  0  0
  7 12  1  0  0  0  0
  7  2  1  0  0  0  0
  8  6  1  0  0  0  0
 10  1  2  0  0  0  0
 10  8  1  0  0  0  0
 11  3  1  0  0  0  0
 11  9  1  0  0  0  0
 12 10  1  0  0  0  0
 13 15  1  6  0  0  0
 13  5  1  0  0  0  0
 13  4  1  0  0  0  0
 14  6  2  0  0  0  0
 15 17  1  1  0  0  0
 16 17  1  0  0  0  0
 18 15  1  0  0  0  0
 19 20  1  0  0  0  0
 20 18  1  6  0  0  0
 21 26  1  0  0  0  0
 22 24  2  0  0  0  0
 24 23  1  0  0  0  0
 25 21  2  0  0  0  0
 25 22  1  0  0  0  0
 26 20  1  0  0  0  0
 26 23  2  0  0  0  0
 27 19  2  0  0  0  0
 27 21  1  0  0  0  0
M  END
>  <MODEL>
5

>  <REMARK>
 VINA RESULT:      -5.3      1.405      2.273
  Name = 
  4 active torsions:
  status: ('A' for Active; 'I' for Inactive)
    1  A    between atoms: C_2  and  C_14
    2  A    between atoms: C_2  and  C_20
    3  A    between atoms: C_2  and  C_26
    4  A    between atoms: C_5  and  C_20
                            x       y       z     vdW  Elec       q    Type
                         _______ _______ _______ _____ _____    ______ ____

>  <TORSDO>
F 4

$$$$
=
 OpenBabel11072412233D

 27 30  0  0  1  0  0  0  0  0999 V2000
  159.5290  206.3590  148.8540 O   0  0  0  0  0  0  0  0  0  0  0  0
  162.6050  205.2360  145.9570 N   0  0  0  0  0  2  0  0  0  0  0  0
  161.5790  202.7660  150.2530 C   0  0  0  0  0  2  0  0  0  0  0  0
  161.0880  204.1550  149.8860 C   0  0  0  0  0  0  0  0  0  0  0  0
  160.1600  204.2810  152.2870 C   0  0  0  0  0  2  0  0  0  0  0  0
  161.6550  203.6380  147.5740 C   0  0  0  0  0  3  0  0  0  0  0  0
  162.3290  206.4670  146.6730 C   0  0  0  0  0  2  0  0  0  0  0  0
  161.0960  204.5670  148.5910 C   0  0  0  0  0  0  0  0  0  0  0  0
  160.4610  202.7870  152.2010 C   0  0  0  0  0  2  0  0  0  0  0  0
  160.4680  205.8610  148.1760 C   0  0  0  0  0  0  0  0  0  0  0  0
  161.7330  202.6060  151.6410 O   0  0  0  0  0  0  0  0  0  0  0  0
  160.8420  206.5710  146.9190 C   0  0  0  0  0  2  0  0  0  0  0  0
  160.5890  205.0410  151.0160 C   0  0  1  0  0  3  0  0  0  0  0  0
  162.2820  203.9230  146.4260 C   0  0  0  0  0  3  0  0  0  0  0  0
  161.5680  206.1890  151.3090 C   0  0  2  0  0  3  0  0  0  0  0  0
  163.9370  205.8290  151.6360 O   0  0  0  0  0  1  0  0  0  0  0  0
  162.6960  205.8160  152.2760 C   0  0  0  0  0  2  0  0  0  0  0  0
  160.8320  207.4610  151.7210 C   0  0  0  0  0  2  0  0  0  0  0  0
  161.1730  207.3510  154.1420 N   0  0  0  0  0  0  0  0  0  0  0  0
  161.4900  208.1290  152.9230 C   0  0  2  0  0  3  0  0  0  0  0  0
  160.3270  209.4900  154.3770 C   0  0  0  0  0  0  0  0  0  0  0  0
  159.7430  211.7990  154.1330 C   0  0  0  0  0  3  0  0  0  0  0  0
  160.9780  210.6380  152.3740 C   0  0  0  0  0  3  0  0  0  0  0  0
  160.3710  211.8060  152.8710 C   0  0  0  0  0  3  0  0  0  0  0  0
  159.7200  210.6250  154.9070 C   0  0  0  0  0  3  0  0  0  0  0  0
  160.9220  209.4870  153.1610 C   0  0  0  0  0  0  0  0  0  0  0  0
  160.4560  208.2290  154.9820 N   0  0  0  0  0  0  0  0  0  0  0  0
  2 14  1  0  0  0  0
  2  7  1  0  0  0  0
  3 11  1  0  0  0  0
  4  3  1  0  0  0  0
  4 13  1  0  0  0  0
  6  8  1  0  0  0  0
  7 12  1  0  0  0  0
  8  4  2  0  0  0  0
  9  5  1  0  0  0  0
 10  8  1  0  0  0  0
 10  1  2  0  0  0  0
 11  9  1  0  0  0  0
 12 10  1  0  0  0  0
 13 15  1  1  0  0  0
 13  5  1  0  0  0  0
 14  6  2  0  0  0  0
 15 18  1  1  0  0  0
 15 17  1  0  0  0  0
 16 17  1  0  0  0  0
 19 27  2  0  0  0  0
 20 18  1  6  0  0  0
 20 26  1  0  0  0  0
 20 19  1  0  0  0  0
 21 25  1  0  0  0  0
 21 27  1  0  0  0  0
 22 25  2  0  0  0  0
 23 24  2  0  0  0  0
 23 26  1  0  0  0  0
 24 22  1  0  0  0  0
 26 21  2  0  0  0  0
M  END
>  <MODEL>
6

>  <REMARK>
 VINA RESULT:      -5.3      3.302      8.250
  Name = 
  4 active torsions:
  status: ('A' for Active; 'I' for Inactive)
    1  A    between atoms: C_2  and  C_14
    2  A    between atoms: C_2  and  C_20
    3  A    between atoms: C_2  and  C_26
    4  A    between atoms: C_5  and  C_20
                            x       y       z     vdW  Elec       q    Type
                         _______ _______ _______ _____ _____    ______ ____

>  <TORSDO>
F 4

$$$$
=
 OpenBabel11072412233D

 27 30  0  0  1  0  0  0  0  0999 V2000
  156.5320  210.3680  154.6200 O   0  0  0  0  0  0  0  0  0  0  0  0
  154.8530  213.7300  156.8550 N   0  0  0  0  0  2  0  0  0  0  0  0
  158.0250  214.1070  152.9300 C   0  0  0  0  0  2  0  0  0  0  0  0
  157.7200  212.8390  153.7090 C   0  0  0  0  0  0  0  0  0  0  0  0
  159.5900  211.7340  152.3240 C   0  0  0  0  0  2  0  0  0  0  0  0
  155.7350  213.9620  154.5660 C   0  0  0  0  0  3  0  0  0  0  0  0
  155.5940  212.5500  157.2600 C   0  0  0  0  0  2  0  0  0  0  0  0
  156.6000  212.7560  154.4750 C   0  0  0  0  0  0  0  0  0  0  0  0
  159.3960  213.0190  151.5220 C   0  0  0  0  0  2  0  0  0  0  0  0
  156.1840  211.4720  155.1190 C   0  0  0  0  0  0  0  0  0  0  0  0
  159.3290  214.1050  152.4040 O   0  0  0  0  0  0  0  0  0  0  0  0
  155.2810  211.4200  156.3060 C   0  0  0  0  0  2  0  0  0  0  0  0
  158.7040  211.6880  153.5840 C   0  0  1  0  0  3  0  0  0  0  0  0
  154.9610  214.3700  155.5800 C   0  0  0  0  0  3  0  0  0  0  0  0
  159.5110  211.4920  154.8760 C   0  0  2  0  0  3  0  0  0  0  0  0
  159.5220  213.0700  156.7090 O   0  0  0  0  0  1  0  0  0  0  0  0
  160.0800  212.7890  155.4600 C   0  0  0  0  0  2  0  0  0  0  0  0
  160.5690  210.4030  154.7160 C   0  0  0  0  0  2  0  0  0  0  0  0
  160.0680  208.2520  155.7710 N   0  0  0  0  0  0  0  0  0  0  0  0
  159.9390  209.0290  154.5170 C   0  0  2  0  0  3  0  0  0  0  0  0
  161.1910  207.1420  154.0820 C   0  0  0  0  0  0  0  0  0  0  0  0
  162.1100  206.3930  152.0020 C   0  0  0  0  0  3  0  0  0  0  0  0
  160.8330  208.4730  152.1190 C   0  0  0  0  0  3  0  0  0  0  0  0
  161.5670  207.5320  151.3730 C   0  0  0  0  0  3  0  0  0  0  0  0
  161.9190  206.1850  153.3800 C   0  0  0  0  0  3  0  0  0  0  0  0
  160.6770  208.2440  153.4870 C   0  0  0  0  0  0  0  0  0  0  0  0
  160.8490  207.1230  155.4450 N   0  0  0  0  0  0  0  0  0  0  0  0
  1 10  2  0  0  0  0
  2  7  1  0  0  0  0
  3  4  1  0  0  0  0
  4  8  2  0  0  0  0
  5 13  1  0  0  0  0
  6 14  2  0  0  0  0
  8  6  1  0  0  0  0
  8 10  1  0  0  0  0
  9  5  1  0  0  0  0
  9 11  1  0  0  0  0
 10 12  1  0  0  0  0
 11  3  1  0  0  0  0
 12  7  1  0  0  0  0
 13  4  1  0  0  0  0
 13 15  1  1  0  0  0
 14  2  1  0  0  0  0
 15 18  1  6  0  0  0
 15 17  1  0  0  0  0
 17 16  1  0  0  0  0
 20 18  1  1  0  0  0
 20 19  1  0  0  0  0
 21 27  1  0  0  0  0
 22 25  1  0  0  0  0
 23 26  2  0  0  0  0
 24 22  2  0  0  0  0
 24 23  1  0  0  0  0
 25 21  2  0  0  0  0
 26 21  1  0  0  0  0
 26 20  1  0  0  0  0
 27 19  2  0  0  0  0
M  END
>  <MODEL>
7

>  <REMARK>
 VINA RESULT:      -5.2      2.595      4.174
  Name = 
  4 active torsions:
  status: ('A' for Active; 'I' for Inactive)
    1  A    between atoms: C_2  and  C_14
    2  A    between atoms: C_2  and  C_20
    3  A    between atoms: C_2  and  C_26
    4  A    between atoms: C_5  and  C_20
                            x       y       z     vdW  Elec       q    Type
                         _______ _______ _______ _____ _____    ______ ____

>  <TORSDO>
F 4

$$$$
=
 OpenBabel11072412233D

 27 30  0  0  1  0  0  0  0  0999 V2000
  161.4700  211.5030  154.7770 O   0  0  0  0  0  0  0  0  0  0  0  0
  157.3010  212.5950  154.0440 N   0  0  0  0  0  2  0  0  0  0  0  0
  158.8690  208.3240  156.2600 C   0  0  0  0  0  2  0  0  0  0  0  0
  159.7420  209.2990  155.4890 C   0  0  0  0  0  0  0  0  0  0  0  0
  161.6280  207.5630  155.7510 C   0  0  0  0  0  2  0  0  0  0  0  0
  157.9630  210.9430  155.7490 C   0  0  0  0  0  3  0  0  0  0  0  0
  158.4600  212.4960  153.1770 C   0  0  0  0  0  2  0  0  0  0  0  0
  159.3200  210.5710  155.2670 C   0  0  0  0  0  0  0  0  0  0  0  0
  160.6210  207.0100  156.7580 C   0  0  0  0  0  2  0  0  0  0  0  0
  160.2190  211.6010  154.6590 C   0  0  0  0  0  0  0  0  0  0  0  0
  159.3460  207.0040  156.1780 O   0  0  0  0  0  0  0  0  0  0  0  0
  159.7010  212.8220  153.9760 C   0  0  0  0  0  2  0  0  0  0  0  0
  161.0880  208.7930  154.9960 C   0  0  1  0  0  3  0  0  0  0  0  0
  157.1020  211.8330  155.2390 C   0  0  0  0  0  3  0  0  0  0  0  0
  161.0980  208.6100  153.4710 C   0  0  2  0  0  3  0  0  0  0  0  0
  160.8990  210.3020  151.7540 O   0  0  0  0  0  1  0  0  0  0  0  0
  160.1870  209.5860  152.7180 C   0  0  0  0  0  2  0  0  0  0  0  0
  160.8560  207.1550  153.0790 C   0  0  0  0  0  2  0  0  0  0  0  0
  162.2090  207.6150  151.0930 N   0  0  0  0  0  0  0  0  0  0  0  0
  161.9560  206.6260  152.1650 C   0  0  2  0  0  3  0  0  0  0  0  0
  161.5080  205.6320  150.1330 C   0  0  0  0  0  0  0  0  0  0  0  0
  160.8320  203.3810  149.6770 C   0  0  0  0  0  3  0  0  0  0  0  0
  161.2110  204.1230  151.9740 C   0  0  0  0  0  3  0  0  0  0  0  0
  160.8560  203.1130  151.0610 C   0  0  0  0  0  3  0  0  0  0  0  0
  161.1670  204.6590  149.1970 C   0  0  0  0  0  3  0  0  0  0  0  0
  161.5210  205.3850  151.4640 C   0  0  0  0  0  0  0  0  0  0  0  0
  161.9080  206.9550  149.8830 N   0  0  0  0  0  0  0  0  0  0  0  0
  2 14  1  0  0  0  0
  4  3  1  0  0  0  0
  5  9  1  0  0  0  0
  7 12  1  0  0  0  0
  7  2  1  0  0  0  0
  8  4  2  0  0  0  0
  8  6  1  0  0  0  0
 10  1  2  0  0  0  0
 10  8  1  0  0  0  0
 11  3  1  0  0  0  0
 11  9  1  0  0  0  0
 12 10  1  0  0  0  0
 13 15  1  6  0  0  0
 13  4  1  0  0  0  0
 13  5  1  0  0  0  0
 14  6  2  0  0  0  0
 15 17  1  6  0  0  0
 16 17  1  0  0  0  0
 18 15  1  0  0  0  0
 19 20  1  0  0  0  0
 20 18  1  1  0  0  0
 21 26  1  0  0  0  0
 22 24  2  0  0  0  0
 24 23  1  0  0  0  0
 25 22  1  0  0  0  0
 25 21  2  0  0  0  0
 26 23  2  0  0  0  0
 26 20  1  0  0  0  0
 27 21  1  0  0  0  0
 27 19  2  0  0  0  0
M  END
>  <MODEL>
8

>  <REMARK>
 VINA RESULT:      -5.0      1.827      2.671
  Name = 
  4 active torsions:
  status: ('A' for Active; 'I' for Inactive)
    1  A    between atoms: C_2  and  C_14
    2  A    between atoms: C_2  and  C_20
    3  A    between atoms: C_2  and  C_26
    4  A    between atoms: C_5  and  C_20
                            x       y       z     vdW  Elec       q    Type
                         _______ _______ _______ _____ _____    ______ ____

>  <TORSDO>
F 4

$$$$
=
 OpenBabel11072412233D

 27 30  0  0  1  0  0  0  0  0999 V2000
  159.1560  208.8470  154.2130 O   0  0  0  0  0  0  0  0  0  0  0  0
  162.2640  209.2560  157.2610 N   0  0  0  0  0  2  0  0  0  0  0  0
  162.8150  210.3280  152.3460 C   0  0  0  0  0  2  0  0  0  0  0  0
  161.6640  209.5540  152.9640 C   0  0  0  0  0  0  0  0  0  0  0  0
  160.8910  209.0970  150.5490 C   0  0  0  0  0  2  0  0  0  0  0  0
  162.3330  210.4720  155.1190 C   0  0  0  0  0  3  0  0  0  0  0  0
  161.4180  208.1480  156.8590 C   0  0  0  0  0  2  0  0  0  0  0  0
  161.4120  209.6450  154.2960 C   0  0  0  0  0  0  0  0  0  0  0  0
  161.9170  210.1970  150.2910 C   0  0  0  0  0  2  0  0  0  0  0  0
  160.1920  209.0300  154.9070 C   0  0  0  0  0  0  0  0  0  0  0  0
  163.0790  209.9240  151.0250 O   0  0  0  0  0  0  0  0  0  0  0  0
  160.1000  208.6910  156.3570 C   0  0  0  0  0  2  0  0  0  0  0  0
  160.8210  208.6950  152.0360 C   0  0  1  0  0  3  0  0  0  0  0  0
  162.6820  210.3230  156.4020 C   0  0  0  0  0  3  0  0  0  0  0  0
  161.0760  207.1980  152.2630 C   0  0  2  0  0  3  0  0  0  0  0  0
  161.3140  205.8440  154.2530 O   0  0  0  0  0  1  0  0  0  0  0  0
  161.8890  206.8870  153.5240 C   0  0  0  0  0  2  0  0  0  0  0  0
  161.6450  206.5300  151.0130 C   0  0  0  0  0  2  0  0  0  0  0  0
  160.7520  204.2520  151.0300 N   0  0  0  0  0  0  0  0  0  0  0  0
  160.6420  205.5760  150.3760 C   0  0  2  0  0  3  0  0  0  0  0  0
  161.2460  204.0230  148.7830 C   0  0  0  0  0  0  0  0  0  0  0  0
  161.5830  204.3320  146.4330 C   0  0  0  0  0  3  0  0  0  0  0  0
  160.9570  206.2160  147.8560 C   0  0  0  0  0  3  0  0  0  0  0  0
  161.2780  205.7000  146.5880 C   0  0  0  0  0  3  0  0  0  0  0  0
  161.5650  203.4710  147.5440 C   0  0  0  0  0  3  0  0  0  0  0  0
  160.9640  205.3370  148.9400 C   0  0  0  0  0  0  0  0  0  0  0  0
  161.1340  203.3520  150.0120 N   0  0  0  0  0  0  0  0  0  0  0  0
  1 10  2  0  0  0  0
  3  4  1  0  0  0  0
  4  8  2  0  0  0  0
  5 13  1  0  0  0  0
  6 14  2  0  0  0  0
  7  2  1  0  0  0  0
  8 10  1  0  0  0  0
  8  6  1  0  0  0  0
  9  5  1  0  0  0  0
  9 11  1  0  0  0  0
 10 12  1  0  0  0  0
 11  3  1  0  0  0  0
 12  7  1  0  0  0  0
 13 15  1  6  0  0  0
 13  4  1  0  0  0  0
 14  2  1  0  0  0  0
 15 18  1  6  0  0  0
 15 17  1  0  0  0  0
 17 16  1  0  0  0  0
 20 18  1  1  0  0  0
 20 19  1  0  0  0  0
 21 26  1  0  0  0  0
 21 27  1  0  0  0  0
 22 24  2  0  0  0  0
 22 25  1  0  0  0  0
 23 26  2  0  0  0  0
 24 23  1  0  0  0  0
 25 21  2  0  0  0  0
 26 20  1  0  0  0  0
 27 19  2  0  0  0  0
M  END
>  <MODEL>
9

>  <REMARK>
 VINA RESULT:      -4.8      3.049      4.422
  Name = 
  4 active torsions:
  status: ('A' for Active; 'I' for Inactive)
    1  A    between atoms: C_2  and  C_14
    2  A    between atoms: C_2  and  C_20
    3  A    between atoms: C_2  and  C_26
    4  A    between atoms: C_5  and  C_20
                            x       y       z     vdW  Elec       q    Type
                         _______ _______ _______ _____ _____    ______ ____

>  <TORSDO>
F 4

$$$$
