=
 OpenBabel11072412033D

 45 53  0  0  1  0  0  0  0  0999 V2000
  160.4100  212.3320  153.0020 O   0  0  0  0  0  0  0  0  0  0  0  0
  160.4830  209.1530  153.3090 C   0  0  0  0  0  2  0  0  0  0  0  0
  161.0940  212.6760  150.7220 C   0  0  2  0  0  3  0  0  0  0  0  0
  160.6180  208.2880  155.6370 C   0  0  0  0  0  2  0  0  0  0  0  0
  157.0070  211.1460  156.2000 C   0  0  0  0  0  0  0  0  0  0  0  0
  158.1980  212.9800  152.4400 C   0  0  1  0  0  3  0  0  0  0  0  0
  161.2180  213.0300  146.8500 C   0  0  1  0  0  3  0  0  0  0  0  0
  161.4120  209.5400  148.2740 C   0  0  0  0  0  2  0  0  0  0  0  0
  162.4300  212.3720  150.9910 O   0  0  0  0  0  1  0  0  0  0  0  0
  159.6860  210.6200  155.1460 C   0  0  2  0  0  3  0  0  0  0  0  0
  157.2790  211.5570  154.9570 C   0  0  0  0  0  3  0  0  0  0  0  0
  157.0610  212.9420  149.7940 O   0  0  0  0  0  1  0  0  0  0  0  0
  160.1910  211.8960  151.6740 C   0  0  2  0  0  3  0  0  0  0  0  0
  162.4430  210.3370  147.4750 C   0  0  0  0  0  2  0  0  0  0  0  0
  158.2890  212.2830  149.8870 C   0  0  1  0  0  3  0  0  0  0  0  0
  161.2130  208.7560  150.5930 C   0  0  1  0  0  3  0  0  0  0  0  0
  161.3790  205.3090  153.5170 C   0  0  0  0  0  1  0  0  0  0  0  0
  159.4510  210.7780  156.6520 C   0  0  0  0  0  2  0  0  0  0  0  0
  158.9870  212.8480  147.6730 O   0  0  0  0  0  0  0  0  0  0  0  0
  161.7820  212.7160  148.2500 C   0  0  2  0  0  3  0  0  0  0  0  0
  159.8500  213.6950  146.9680 C   0  0  0  0  0  2  0  0  0  0  0  0
  159.1420  212.6050  153.5710 C   0  0  1  0  0  3  0  0  0  0  0  0
  158.6210  211.3560  154.3010 C   0  0  1  0  0  3  0  0  0  0  0  0
  163.5960  208.7660  151.1230 O   0  0  0  0  0  1  0  0  0  0  0  0
  158.3990  214.4480  152.0880 C   0  0  0  0  0  1  0  0  0  0  0  0
  161.3730  206.7660  153.9580 C   0  0  2  0  0  3  0  0  0  0  0  0
  159.3430  212.9750  149.0240 C   0  0  2  0  0  3  0  0  0  0  0  0
  160.5750  206.8990  155.1790 N   0  0  0  0  0  2  0  0  0  0  0  0
  162.8750  211.6330  148.1760 C   0  0  0  0  0  2  0  0  0  0  0  0
  158.0490  210.5590  156.9830 N   0  0  0  0  0  2  0  0  0  0  0  0
  159.9740  207.1890  151.9450 O   0  0  0  0  0  0  0  0  0  0  0  0
  159.8070  209.1630  154.6780 C   0  0  1  0  0  3  0  0  0  0  0  0
  160.8750  207.7410  152.8710 C   0  0  1  0  0  0  0  0  0  0  0  0
  161.2680  207.4890  151.4540 C   0  0  2  0  0  3  0  0  0  0  0  0
  162.5650  209.4640  150.4880 C   0  0  1  0  0  3  0  0  0  0  0  0
  158.7070  212.0680  151.3600 C   0  0  2  0  0  3  0  0  0  0  0  0
  162.0450  208.6400  149.3290 C   0  0  2  0  0  3  0  0  0  0  0  0
  160.7080  212.3220  149.2860 C   0  0  2  0  0  3  0  0  0  0  0  0
  162.1690  213.9460  146.0930 C   0  0  0  0  0  3  0  0  0  0  0  0
  161.5060  214.4420  144.8210 C   0  0  0  0  0  2  0  0  0  0  0  0
  162.5200  213.3210  144.7550 C   0  0  0  0  0  2  0  0  0  0  0  0
  154.8580  210.3150  156.7400 O   0  0  0  0  0  0  0  0  0  0  0  0
  155.6340  211.3080  156.7430 C   0  0  0  0  0  0  0  0  0  0  0  0
  154.8090  213.6500  156.4780 C   0  0  0  0  0  1  0  0  0  0  0  0
  155.1440  212.5150  157.2610 O   0  0  0  0  0  0  0  0  0  0  0  0
  1 22  1  0  0  0  0
  2 32  1  0  0  0  0
  3  9  1  1  0  0  0
  3 13  1  0  0  0  0
  5 43  1  0  0  0  0
  5 30  1  0  0  0  0
  6 25  1  6  0  0  0
  6 22  1  0  0  0  0
  7 39  1  1  0  0  0
  7 21  1  0  0  0  0
  7 20  1  0  0  0  0
  8 37  1  0  0  0  0
 10 18  1  1  0  0  0
 11  5  2  0  0  0  0
 13  1  1  1  0  0  0
 14 29  1  0  0  0  0
 14  8  1  0  0  0  0
 15 12  1  1  0  0  0
 15 36  1  0  0  0  0
 16 34  1  0  0  0  0
 17 26  1  0  0  0  0
 18 30  1  0  0  0  0
 19 27  1  0  0  0  0
 20 38  1  0  0  0  0
 21 19  1  0  0  0  0
 22 23  1  0  0  0  0
 23 11  1  0  0  0  0
 23 10  1  0  0  0  0
 26 28  1  0  0  0  0
 27 38  1  0  0  0  0
 27 15  1  0  0  0  0
 28  4  1  0  0  0  0
 29 20  1  0  0  0  0
 31 33  1  0  0  0  0
 32 10  1  0  0  0  0
 32  4  1  0  0  0  0
 33  2  1  0  0  0  0
 33 26  1  0  0  0  0
 34 31  1  0  0  0  0
 34 33  1  0  0  0  0
 35 16  1  0  0  0  0
 35 24  1  0  0  0  0
 36 13  1  0  0  0  0
 36  6  1  0  0  0  0
 37 35  1  0  0  0  0
 37 16  1  0  0  0  0
 38  3  1  0  0  0  0
 40 39  1  0  0  0  0
 41 40  1  0  0  0  0
 41 39  1  0  0  0  0
 42 43  2  0  0  0  0
 43 45  1  0  0  0  0
 44 45  1  0  0  0  0
M  END
>  <MODEL>
1

>  <REMARK>
 VINA RESULT:       6.6      0.000      0.000
  Name = 
  3 active torsions:
  status: ('A' for Active; 'I' for Inactive)
    1  A    between atoms: C_5  and  C_8
    2  A    between atoms: C_6  and  C_28
    3  A    between atoms: C_28  and  O_41
                            x       y       z     vdW  Elec       q    Type
                         _______ _______ _______ _____ _____    ______ ____

>  <TORSDO>
F 3

$$$$
=
 OpenBabel11072412033D

 45 53  0  0  1  0  0  0  0  0999 V2000
  162.6030  209.5260  149.4250 O   0  0  0  0  0  0  0  0  0  0  0  0
  160.6610  211.3540  151.1850 C   0  0  0  0  0  2  0  0  0  0  0  0
  162.5310  207.4060  150.5580 C   0  0  2  0  0  3  0  0  0  0  0  0
  160.9570  213.8110  150.9360 C   0  0  0  0  0  2  0  0  0  0  0  0
  160.5910  212.7280  146.4400 C   0  0  0  0  0  0  0  0  0  0  0  0
  161.3490  208.6140  147.6300 C   0  0  1  0  0  3  0  0  0  0  0  0
  161.5580  203.8680  151.8480 C   0  0  1  0  0  3  0  0  0  0  0  0
  159.8650  206.8250  153.4700 C   0  0  0  0  0  2  0  0  0  0  0  0
  163.3230  207.8530  151.6180 O   0  0  0  0  0  1  0  0  0  0  0  0
  161.7010  212.1970  149.0950 C   0  0  2  0  0  3  0  0  0  0  0  0
  160.6310  211.4580  146.8550 C   0  0  0  0  0  3  0  0  0  0  0  0
  159.6760  206.2740  147.7710 O   0  0  0  0  0  1  0  0  0  0  0  0
  161.7250  208.5740  149.9940 C   0  0  2  0  0  3  0  0  0  0  0  0
  160.8190  205.7890  154.0630 C   0  0  0  0  0  2  0  0  0  0  0  0
  160.1020  206.7370  149.0180 C   0  0  1  0  0  3  0  0  0  0  0  0
  159.9870  209.2180  152.9330 C   0  0  1  0  0  3  0  0  0  0  0  0
  158.8030  213.4600  153.9660 C   0  0  0  0  0  1  0  0  0  0  0  0
  162.1480  213.4190  148.2870 C   0  0  0  0  0  2  0  0  0  0  0  0
  160.2070  204.5670  150.0120 O   0  0  0  0  0  0  0  0  0  0  0  0
  162.1980  205.2670  151.9360 C   0  0  2  0  0  3  0  0  0  0  0  0
  161.1120  203.5790  150.4180 C   0  0  0  0  0  2  0  0  0  0  0  0
  162.1170  209.8280  148.1300 C   0  0  1  0  0  3  0  0  0  0  0  0
  161.1860  211.0500  148.1960 C   0  0  1  0  0  3  0  0  0  0  0  0
  161.7780  209.7900  154.4900 O   0  0  0  0  0  1  0  0  0  0  0  0
  162.3350  207.5990  147.0660 C   0  0  0  0  0  1  0  0  0  0  0  0
  159.9050  213.1300  152.9690 C   0  0  2  0  0  3  0  0  0  0  0  0
  160.9810  205.6980  149.7130 C   0  0  2  0  0  3  0  0  0  0  0  0
  159.8610  214.0900  151.8640 N   0  0  0  0  0  2  0  0  0  0  0  0
  162.1980  205.7860  153.3870 C   0  0  0  0  0  2  0  0  0  0  0  0
  161.1690  213.7480  147.2590 N   0  0  0  0  0  2  0  0  0  0  0  0
  158.5690  211.1040  152.4260 O   0  0  0  0  0  0  0  0  0  0  0  0
  160.6680  212.5090  150.1860 C   0  0  1  0  0  3  0  0  0  0  0  0
  159.8490  211.6830  152.4390 C   0  0  1  0  0  0  0  0  0  0  0  0
  159.4770  210.5910  153.3860 C   0  0  2  0  0  3  0  0  0  0  0  0
  161.3310  208.8460  153.5610 C   0  0  1  0  0  3  0  0  0  0  0  0
  160.7330  208.1450  148.9170 C   0  0  2  0  0  3  0  0  0  0  0  0
  160.0510  208.2150  154.0690 C   0  0  2  0  0  3  0  0  0  0  0  0
  161.5590  206.3110  150.9960 C   0  0  2  0  0  3  0  0  0  0  0  0
  162.5500  202.8060  152.2990 C   0  0  0  0  0  3  0  0  0  0  0  0
  162.8250  201.8380  151.1630 C   0  0  0  0  0  2  0  0  0  0  0  0
  161.8820  201.4430  152.2780 C   0  0  0  0  0  2  0  0  0  0  0  0
  159.6590  214.2570  144.8910 O   0  0  0  0  0  0  0  0  0  0  0  0
  159.9530  213.0560  145.1400 C   0  0  0  0  0  0  0  0  0  0  0  0
  160.3840  211.9100  142.9630 C   0  0  0  0  0  1  0  0  0  0  0  0
  159.6490  212.0980  144.1630 O   0  0  0  0  0  0  0  0  0  0  0  0
  2 33  1  0  0  0  0
  3 38  1  0  0  0  0
  3  9  1  1  0  0  0
  4 28  1  0  0  0  0
  5 11  2  0  0  0  0
  5 30  1  0  0  0  0
  6 25  1  1  0  0  0
  6 22  1  0  0  0  0
  6 36  1  0  0  0  0
  7 20  1  0  0  0  0
  7 39  1  6  0  0  0
  8 14  1  0  0  0  0
  8 37  1  0  0  0  0
 10 18  1  6  0  0  0
 10 32  1  0  0  0  0
 11 23  1  0  0  0  0
 13  1  1  6  0  0  0
 13  3  1  0  0  0  0
 15 12  1  6  0  0  0
 15 27  1  0  0  0  0
 16 34  1  0  0  0  0
 16 35  1  0  0  0  0
 16 37  1  0  0  0  0
 19 21  1  0  0  0  0
 20 29  1  0  0  0  0
 21  7  1  0  0  0  0
 22 23  1  0  0  0  0
 22  1  1  0  0  0  0
 23 10  1  0  0  0  0
 26 17  1  0  0  0  0
 27 19  1  0  0  0  0
 27 38  1  0  0  0  0
 28 26  1  0  0  0  0
 29 14  1  0  0  0  0
 30 18  1  0  0  0  0
 31 33  1  0  0  0  0
 31 34  1  0  0  0  0
 32  4  1  0  0  0  0
 32  2  1  0  0  0  0
 33 26  1  0  0  0  0
 33 34  1  0  0  0  0
 35 37  1  0  0  0  0
 35 24  1  0  0  0  0
 36 15  1  0  0  0  0
 36 13  1  0  0  0  0
 38 20  1  0  0  0  0
 40 41  1  0  0  0  0
 40 39  1  0  0  0  0
 41 39  1  0  0  0  0
 42 43  2  0  0  0  0
 43  5  1  0  0  0  0
 44 45  1  0  0  0  0
 45 43  1  0  0  0  0
M  END
>  <MODEL>
2

>  <REMARK>
 VINA RESULT:       7.6      2.847      8.420
  Name = 
  3 active torsions:
  status: ('A' for Active; 'I' for Inactive)
    1  A    between atoms: C_5  and  C_8
    2  A    between atoms: C_6  and  C_28
    3  A    between atoms: C_28  and  O_41
                            x       y       z     vdW  Elec       q    Type
                         _______ _______ _______ _____ _____    ______ ____

>  <TORSDO>
F 3

$$$$
=
 OpenBabel11072412033D

 45 53  0  0  1  0  0  0  0  0999 V2000
  159.5830  208.1460  152.0940 O   0  0  0  0  0  0  0  0  0  0  0  0
  161.2470  210.3000  150.4210 C   0  0  0  0  0  2  0  0  0  0  0  0
  160.0810  206.0790  150.9700 C   0  0  2  0  0  3  0  0  0  0  0  0
  160.5090  212.6640  150.6520 C   0  0  0  0  0  2  0  0  0  0  0  0
  160.8580  211.6350  155.1620 C   0  0  0  0  0  0  0  0  0  0  0  0
  160.8960  207.4590  153.9470 C   0  0  1  0  0  3  0  0  0  0  0  0
  161.7240  202.7780  149.7320 C   0  0  1  0  0  3  0  0  0  0  0  0
  162.9360  205.9980  148.1830 C   0  0  0  0  0  2  0  0  0  0  0  0
  159.2720  206.3850  149.8740 O   0  0  0  0  0  1  0  0  0  0  0  0
  159.9810  210.9320  152.4600 C   0  0  2  0  0  3  0  0  0  0  0  0
  161.0630  210.3810  154.7480 C   0  0  0  0  0  3  0  0  0  0  0  0
  162.9630  205.4540  153.8860 O   0  0  0  0  0  1  0  0  0  0  0  0
  160.6400  207.3680  151.5680 C   0  0  2  0  0  3  0  0  0  0  0  0
  162.2090  204.8130  147.5500 C   0  0  0  0  0  2  0  0  0  0  0  0
  162.5180  205.8420  152.6200 C   0  0  1  0  0  3  0  0  0  0  0  0
  162.3680  208.3280  148.7100 C   0  0  1  0  0  3  0  0  0  0  0  0
  162.8260  212.7190  147.7240 C   0  0  0  0  0  1  0  0  0  0  0  0
  159.2880  212.0510  153.2450 C   0  0  0  0  0  2  0  0  0  0  0  0
  162.8450  203.6930  151.6270 O   0  0  0  0  0  0  0  0  0  0  0  0
  160.8500  204.0420  149.6120 C   0  0  2  0  0  3  0  0  0  0  0  0
  162.1480  202.5640  151.1820 C   0  0  0  0  0  2  0  0  0  0  0  0
  159.9490  208.5210  153.4090 C   0  0  1  0  0  3  0  0  0  0  0  0
  160.6510  209.8890  153.3830 C   0  0  1  0  0  3  0  0  0  0  0  0
  160.5760  208.5830  147.0720 O   0  0  0  0  0  1  0  0  0  0  0  0
  160.0820  206.2820  154.4670 C   0  0  0  0  0  1  0  0  0  0  0  0
  161.7560  212.1930  148.6700 C   0  0  2  0  0  3  0  0  0  0  0  0
  161.8700  204.6670  151.8890 C   0  0  2  0  0  3  0  0  0  0  0  0
  161.5790  213.1380  149.7740 N   0  0  0  0  0  2  0  0  0  0  0  0
  160.8240  204.5610  148.1630 C   0  0  0  0  0  2  0  0  0  0  0  0
  160.1460  212.5410  154.3150 N   0  0  0  0  0  2  0  0  0  0  0  0
  163.4050  210.4320  149.2770 O   0  0  0  0  0  0  0  0  0  0  0  0
  160.9910  211.4290  151.4170 C   0  0  1  0  0  3  0  0  0  0  0  0
  162.0440  210.7750  149.2050 C   0  0  1  0  0  0  0  0  0  0  0  0
  162.6470  209.7730  148.2780 C   0  0  2  0  0  3  0  0  0  0  0  0
  161.1410  207.7270  148.0220 C   0  0  1  0  0  3  0  0  0  0  0  0
  161.6430  207.1150  152.6900 C   0  0  2  0  0  3  0  0  0  0  0  0
  162.5340  207.3370  147.5740 C   0  0  2  0  0  3  0  0  0  0  0  0
  161.2510  205.1760  150.5790 C   0  0  2  0  0  3  0  0  0  0  0  0
  160.9570  201.5590  149.2390 C   0  0  0  0  0  3  0  0  0  0  0  0
  161.9150  200.5620  148.6140 C   0  0  0  0  0  2  0  0  0  0  0  0
  161.0770  201.4590  147.7290 C   0  0  0  0  0  2  0  0  0  0  0  0
  160.9890  213.1690  156.9600 O   0  0  0  0  0  0  0  0  0  0  0  0
  161.3690  212.0630  156.4890 C   0  0  0  0  0  0  0  0  0  0  0  0
  163.6230  211.0780  156.9210 C   0  0  0  0  0  1  0  0  0  0  0  0
  162.2630  211.3030  157.2570 O   0  0  0  0  0  0  0  0  0  0  0  0
  1 22  1  0  0  0  0
  2 32  1  0  0  0  0
  3  9  1  6  0  0  0
  3 13  1  0  0  0  0
  4 32  1  0  0  0  0
  5 43  1  0  0  0  0
  6 25  1  6  0  0  0
  7 39  1  1  0  0  0
  7 21  1  0  0  0  0
 10 18  1  1  0  0  0
 10 23  1  0  0  0  0
 11  5  2  0  0  0  0
 13  1  1  1  0  0  0
 13 36  1  0  0  0  0
 14 29  1  0  0  0  0
 14  8  1  0  0  0  0
 15 36  1  0  0  0  0
 15 12  1  1  0  0  0
 17 26  1  0  0  0  0
 18 30  1  0  0  0  0
 19 27  1  0  0  0  0
 20  7  1  0  0  0  0
 20 38  1  0  0  0  0
 21 19  1  0  0  0  0
 22  6  1  0  0  0  0
 23 22  1  0  0  0  0
 23 11  1  0  0  0  0
 24 35  1  0  0  0  0
 26 33  1  0  0  0  0
 26 28  1  0  0  0  0
 27 15  1  0  0  0  0
 28  4  1  0  0  0  0
 29 20  1  0  0  0  0
 30  5  1  0  0  0  0
 32 10  1  0  0  0  0
 33 31  1  0  0  0  0
 33  2  1  0  0  0  0
 34 16  1  0  0  0  0
 34 33  1  0  0  0  0
 34 31  1  0  0  0  0
 35 16  1  0  0  0  0
 36  6  1  0  0  0  0
 37 35  1  0  0  0  0
 37  8  1  0  0  0  0
 37 16  1  0  0  0  0
 38  3  1  0  0  0  0
 38 27  1  0  0  0  0
 40 39  1  0  0  0  0
 41 40  1  0  0  0  0
 41 39  1  0  0  0  0
 43 42  2  0  0  0  0
 43 45  1  0  0  0  0
 44 45  1  0  0  0  0
M  END
>  <MODEL>
3

>  <REMARK>
 VINA RESULT:       8.0      3.288      7.278
  Name = 
  3 active torsions:
  status: ('A' for Active; 'I' for Inactive)
    1  A    between atoms: C_5  and  C_8
    2  A    between atoms: C_6  and  C_28
    3  A    between atoms: C_28  and  O_41
                            x       y       z     vdW  Elec       q    Type
                         _______ _______ _______ _____ _____    ______ ____

>  <TORSDO>
F 3

$$$$
=
 OpenBabel11072412033D

 45 53  0  0  1  0  0  0  0  0999 V2000
  159.7710  205.9830  151.3460 O   0  0  0  0  0  0  0  0  0  0  0  0
  161.5430  208.3700  150.1750 C   0  0  0  0  0  2  0  0  0  0  0  0
  160.0100  204.2610  149.6840 C   0  0  2  0  0  3  0  0  0  0  0  0
  161.0460  210.6360  151.0730 C   0  0  0  0  0  2  0  0  0  0  0  0
  161.5320  208.4120  155.1150 C   0  0  0  0  0  0  0  0  0  0  0  0
  161.1080  204.7240  152.8480 C   0  0  1  0  0  3  0  0  0  0  0  0
  161.2630  201.2940  147.5020 C   0  0  1  0  0  3  0  0  0  0  0  0
  162.6940  204.7070  146.7650 C   0  0  0  0  0  2  0  0  0  0  0  0
  159.1770  204.9110  148.7720 O   0  0  0  0  0  1  0  0  0  0  0  0
  160.4520  208.5290  152.3990 C   0  0  2  0  0  3  0  0  0  0  0  0
  161.5940  207.3020  154.3730 C   0  0  0  0  0  3  0  0  0  0  0  0
  162.9680  202.6540  152.1060 O   0  0  0  0  0  1  0  0  0  0  0  0
  160.7200  205.2940  150.5550 C   0  0  2  0  0  3  0  0  0  0  0  0
  161.8250  203.7960  145.9000 C   0  0  0  0  0  2  0  0  0  0  0  0
  162.4970  203.4010  151.0240 C   0  0  1  0  0  3  0  0  0  0  0  0
  162.3790  206.8480  147.9270 C   0  0  1  0  0  3  0  0  0  0  0  0
  163.2010  211.2930  148.0950 C   0  0  0  0  0  1  0  0  0  0  0  0
  159.9100  209.4470  153.5000 C   0  0  0  0  0  2  0  0  0  0  0  0
  162.5640  201.5780  149.4800 O   0  0  0  0  0  0  0  0  0  0  0  0
  160.5090  202.6080  147.7850 C   0  0  2  0  0  3  0  0  0  0  0  0
  161.7410  200.6670  148.8080 C   0  0  0  0  0  2  0  0  0  0  0  0
  160.2390  205.9610  152.6810 C   0  0  1  0  0  3  0  0  0  0  0  0
  161.0660  207.2270  152.9620 C   0  0  1  0  0  3  0  0  0  0  0  0
  160.5360  207.6720  146.5540 O   0  0  0  0  0  1  0  0  0  0  0  0
  160.2140  203.5180  153.1010 C   0  0  0  0  0  1  0  0  0  0  0  0
  162.1370  210.6180  148.9480 C   0  0  2  0  0  3  0  0  0  0  0  0
  161.7020  202.5190  150.0610 C   0  0  2  0  0  3  0  0  0  0  0  0
  162.1090  211.2430  150.2720 N   0  0  0  0  0  2  0  0  0  0  0  0
  160.4560  203.4980  146.5280 C   0  0  0  0  0  2  0  0  0  0  0  0
  160.8660  209.5640  154.5930 N   0  0  0  0  0  2  0  0  0  0  0  0
  163.6400  208.6350  148.9450 O   0  0  0  0  0  0  0  0  0  0  0  0
  161.4470  209.2070  151.4490 C   0  0  1  0  0  3  0  0  0  0  0  0
  162.3160  209.0900  149.0690 C   0  0  1  0  0  0  0  0  0  0  0  0
  162.7710  208.3290  147.8690 C   0  0  2  0  0  3  0  0  0  0  0  0
  161.0660  206.5510  147.2000 C   0  0  1  0  0  3  0  0  0  0  0  0
  161.7520  204.6720  151.4920 C   0  0  2  0  0  3  0  0  0  0  0  0
  162.3900  206.1870  146.5610 C   0  0  2  0  0  3  0  0  0  0  0  0
  161.0660  203.4080  148.9820 C   0  0  2  0  0  3  0  0  0  0  0  0
  160.3590  200.3160  146.7660 C   0  0  0  0  0  3  0  0  0  0  0  0
  161.1980  199.3210  145.9860 C   0  0  0  0  0  2  0  0  0  0  0  0
  160.5440  200.4810  145.2690 C   0  0  0  0  0  2  0  0  0  0  0  0
  161.9110  207.4730  157.2550 O   0  0  0  0  0  0  0  0  0  0  0  0
  162.1500  208.4270  156.4660 C   0  0  0  0  0  0  0  0  0  0  0  0
  162.5650  210.7760  157.2030 C   0  0  0  0  0  1  0  0  0  0  0  0
  162.9900  209.4520  156.9220 O   0  0  0  0  0  0  0  0  0  0  0  0
  1 22  1  0  0  0  0
  2 32  1  0  0  0  0
  3  9  1  6  0  0  0
  3 13  1  0  0  0  0
  4 32  1  0  0  0  0
  5 43  1  0  0  0  0
  6 25  1  6  0  0  0
  7 39  1  1  0  0  0
  7 20  1  0  0  0  0
  7 21  1  0  0  0  0
 10 23  1  0  0  0  0
 10 18  1  1  0  0  0
 11  5  2  0  0  0  0
 13  1  1  1  0  0  0
 13 36  1  0  0  0  0
 14 29  1  0  0  0  0
 14  8  1  0  0  0  0
 15 36  1  0  0  0  0
 15 12  1  1  0  0  0
 17 26  1  0  0  0  0
 18 30  1  0  0  0  0
 19 27  1  0  0  0  0
 20 38  1  0  0  0  0
 21 19  1  0  0  0  0
 22  6  1  0  0  0  0
 22 23  1  0  0  0  0
 23 11  1  0  0  0  0
 24 35  1  0  0  0  0
 26 33  1  0  0  0  0
 26 28  1  0  0  0  0
 27 15  1  0  0  0  0
 28  4  1  0  0  0  0
 29 20  1  0  0  0  0
 30  5  1  0  0  0  0
 31 33  1  0  0  0  0
 32 10  1  0  0  0  0
 33  2  1  0  0  0  0
 34 16  1  0  0  0  0
 34 31  1  0  0  0  0
 34 33  1  0  0  0  0
 35 16  1  0  0  0  0
 36  6  1  0  0  0  0
 37  8  1  0  0  0  0
 37 35  1  0  0  0  0
 37 16  1  0  0  0  0
 38  3  1  0  0  0  0
 38 27  1  0  0  0  0
 40 39  1  0  0  0  0
 41 40  1  0  0  0  0
 41 39  1  0  0  0  0
 43 45  1  0  0  0  0
 43 42  2  0  0  0  0
 45 44  1  0  0  0  0
M  END
>  <MODEL>
4

>  <REMARK>
 VINA RESULT:       8.8      4.376      8.170
  Name = 
  3 active torsions:
  status: ('A' for Active; 'I' for Inactive)
    1  A    between atoms: C_5  and  C_8
    2  A    between atoms: C_6  and  C_28
    3  A    between atoms: C_28  and  O_41
                            x       y       z     vdW  Elec       q    Type
                         _______ _______ _______ _____ _____    ______ ____

>  <TORSDO>
F 3

$$$$
