=
 OpenBabel11072415273D

 70 78  0  0  1  0  0  0  0  0999 V2000
  161.1590  208.7990  150.2460 C   0  0  1  0  0  3  0  0  0  0  0  0
  161.2440  210.5120  155.3500 C   0  0  1  0  0  3  0  0  0  0  0  0
  162.2610  207.9600  154.1530 O   0  0  0  0  0  0  0  0  0  0  0  0
  161.2900  212.8210  155.0150 F   0  0  0  0  0  0  0  0  0  0  0  0
  160.4560  209.2160  155.0910 C   0  0  0  0  0  2  0  0  0  0  0  0
  161.2960  207.9430  155.1780 C   0  0  0  0  0  2  0  0  0  0  0  0
  159.3030  211.8140  154.8090 O   0  0  0  0  0  1  0  0  0  0  0  0
  161.9660  210.7920  150.7580 C   0  0  2  0  0  3  0  0  0  0  0  0
  162.6030  210.3850  155.1030 F   0  0  0  0  0  0  0  0  0  0  0  0
  160.7690  207.6340  152.2930 C   0  0  2  0  0  3  0  0  0  0  0  0
  162.3160  209.4500  150.7050 O   0  0  0  0  0  0  0  0  0  0  0  0
  160.6370  206.3220  153.0570 C   0  0  0  0  0  2  0  0  0  0  0  0
  161.0640  207.4750  150.8680 N   0  0  0  0  0  0  0  0  0  0  0  0
  159.2040  210.1460  152.7940 F   0  0  0  0  0  0  0  0  0  0  0  0
  159.9970  209.5680  150.4780 O   0  0  0  0  0  0  0  0  0  0  0  0
  159.9000  211.2280  152.2750 C   0  0  1  0  0  0  0  0  0  0  0  0
  160.6680  211.6850  154.5440 C   0  0  2  0  0  0  0  0  0  0  0  0
  160.9900  211.5590  153.1520 O   0  0  0  0  0  0  0  0  0  0  0  0
  161.9610  207.0920  153.0640 C   0  0  2  0  0  3  0  0  0  0  0  0
  160.4540  210.8330  150.8680 C   0  0  1  0  0  3  0  0  0  0  0  0
  161.7470  214.4520  151.0150 C   0  0  0  0  0  2  0  0  0  0  0  0
  159.6180  213.6930  150.0660 C   0  0  2  0  0  3  0  0  0  0  0  0
  156.0610  211.8360  151.1000 O   0  0  0  0  0  1  0  0  0  0  0  0
  160.8060  214.1650  152.1760 C   0  0  0  0  0  2  0  0  0  0  0  0
  156.1740  213.5080  152.8830 C   0  0  0  0  0  2  0  0  0  0  0  0
  156.4210  214.1750  150.4630 C   0  0  2  0  0  3  0  0  0  0  0  0
  160.9310  214.3690  149.7400 C   0  0  0  0  0  2  0  0  0  0  0  0
  155.8240  213.1720  151.4410 C   0  0  1  0  0  0  0  0  0  0  0  0
  157.1780  211.1060  154.0050 O   0  0  0  0  0  0  0  0  0  0  0  0
  158.9180  212.4310  152.1380 C   0  0  2  0  0  3  0  0  0  0  0  0
  158.2760  213.4050  154.6160 O   0  0  0  0  0  1  0  0  0  0  0  0
  158.5810  214.3450  149.3830 O   0  0  0  0  0  0  0  0  0  0  0  0
  155.0430  214.4530  149.8950 C   0  0  0  0  0  2  0  0  0  0  0  0
  157.4410  213.5400  149.5190 C   0  0  2  0  0  3  0  0  0  0  0  0
  159.4670  213.7650  151.5860 C   0  0  2  0  0  3  0  0  0  0  0  0
  157.6690  212.6360  153.4650 P   0  0  1  0  0  0  0  0  0  0  0  0
  154.4390  213.5730  150.9840 C   0  0  0  0  0  2  0  0  0  0  0  0
  156.8900  212.9710  148.1940 C   0  0  0  0  0  2  0  0  0  0  0  0
  156.4760  214.0360  147.2690 N   0  0  0  0  0  2  0  0  0  0  0  0
  156.6620  213.9180  145.8610 C   0  0  0  0  0  0  0  0  0  0  0  0
  155.6510  213.8950  145.1090 O   0  0  0  0  0  0  0  0  0  0  0  0
  158.0100  213.8970  145.2700 C   0  0  0  0  0  0  0  0  0  0  0  0
  160.4790  214.1740  145.4800 C   0  0  2  0  0  3  0  0  0  0  0  0
  158.1460  213.7540  143.7750 C   0  0  0  0  0  2  0  0  0  0  0  0
  159.0870  214.0900  146.0490 C   0  0  0  0  0  3  0  0  0  0  0  0
  159.4930  213.2150  143.3910 C   0  0  0  0  0  0  0  0  0  0  0  0
  159.6420  212.6760  142.2610 O   0  0  0  0  0  0  0  0  0  0  0  0
  160.6240  213.3910  144.2500 N   0  0  0  0  0  0  0  0  0  0  0  0
  161.8590  213.0880  143.7830 O   0  0  0  0  0  1  0  0  0  0  0  0
  161.4760  213.7030  146.5200 C   0  0  0  0  0  1  0  0  0  0  0  0
  162.4540  211.5490  149.5140 C   0  0  2  0  0  3  0  0  0  0  0  0
  162.2730  210.7260  148.2500 C   0  0  0  0  0  1  0  0  0  0  0  0
  163.7930  211.8790  149.6580 O   0  0  0  0  0  0  0  0  0  0  0  0
  164.1140  212.6120  148.5040 C   0  0  0  0  0  1  0  0  0  0  0  0
  160.0280  206.6950  150.1910 C   0  0  0  0  0  2  0  0  0  0  0  0
  160.4090  206.5010  148.7240 C   0  0  0  0  0  2  0  0  0  0  0  0
  161.8430  205.9960  148.6140 C   0  0  0  0  0  2  0  0  0  0  0  0
  161.9160  204.8260  147.7460 N   0  0  0  0  0  0  0  0  0  0  0  0
  161.5330  203.5320  148.2320 C   0  0  0  0  0  0  0  0  0  0  0  0
  161.3870  202.5760  147.4140 O   0  0  0  0  0  0  0  0  0  0  0  0
  162.1110  205.0350  146.3160 C   0  0  0  0  0  2  0  0  0  0  0  0
  161.9970  203.9400  144.2090 O   0  0  0  0  0  0  0  0  0  0  0  0
  161.5190  203.8710  145.5310 C   0  0  2  0  0  3  0  0  0  0  0  0
  160.6870  204.4060  144.4320 C   0  0  2  0  0  3  0  0  0  0  0  0
  159.6870  203.3570  143.9840 C   0  0  0  0  0  3  0  0  0  0  0  0
  158.7060  203.0690  145.1170 C   0  0  0  0  0  2  0  0  0  0  0  0
  159.8510  202.1230  144.8510 C   0  0  0  0  0  2  0  0  0  0  0  0
  161.3200  203.3290  149.6050 O   0  0  0  0  0  0  0  0  0  0  0  0
  160.5040  202.2750  150.1010 C   0  0  0  0  0  2  0  0  0  0  0  0
  161.3110  201.3530  150.9950 C   0  0  0  0  0  1  0  0  0  0  0  0
  1 15  1  1  0  0  0
  1 11  1  0  0  0  0
  1 13  1  0  0  0  0
  2  9  1  6  0  0  0
  3  6  1  0  0  0  0
  5  6  1  0  0  0  0
  5  2  1  0  0  0  0
  8 51  1  6  0  0  0
  8 20  1  0  0  0  0
 10 12  1  1  0  0  0
 10 19  1  0  0  0  0
 11  8  1  0  0  0  0
 13 10  1  0  0  0  0
 16 14  1  1  0  0  0
 16 18  1  0  0  0  0
 17  7  1  1  0  0  0
 17  4  1  0  0  0  0
 17  2  1  0  0  0  0
 18 17  1  0  0  0  0
 19 12  1  1  0  0  0
 19  3  1  0  0  0  0
 20 15  1  1  0  0  0
 20 16  1  0  0  0  0
 21 24  1  0  0  0  0
 22 27  1  1  0  0  0
 22 35  1  0  0  0  0
 25 36  1  0  0  0  0
 26 33  1  6  0  0  0
 26 28  1  0  0  0  0
 27 21  1  0  0  0  0
 28 23  1  6  0  0  0
 28 25  1  0  0  0  0
 30 16  1  1  0  0  0
 30 36  1  0  0  0  0
 32 34  1  0  0  0  0
 32 22  1  0  0  0  0
 33 37  1  0  0  0  0
 34 38  1  6  0  0  0
 34 26  1  0  0  0  0
 35 30  1  0  0  0  0
 35 24  1  1  0  0  0
 36 29  2  1  0  0  0
 36 31  1  0  0  0  0
 37 28  1  0  0  0  0
 39 38  1  0  0  0  0
 40 39  1  0  0  0  0
 41 40  2  0  0  0  0
 42 40  1  0  0  0  0
 42 45  2  0  0  0  0
 43 45  1  0  0  0  0
 43 50  1  1  0  0  0
 44 42  1  0  0  0  0
 46 44  1  0  0  0  0
 46 48  1  0  0  0  0
 47 46  2  0  0  0  0
 48 43  1  0  0  0  0
 49 48  1  0  0  0  0
 51 52  1  6  0  0  0
 51 53  1  0  0  0  0
 54 53  1  0  0  0  0
 55 13  1  0  0  0  0
 56 55  1  0  0  0  0
 57 56  1  0  0  0  0
 58 59  1  0  0  0  0
 58 57  1  0  0  0  0
 59 68  1  0  0  0  0
 60 59  2  0  0  0  0
 61 58  1  0  0  0  0
 62 64  1  0  0  0  0
 62 63  1  0  0  0  0
 63 61  1  1  0  0  0
 64 65  1  6  0  0  0
 64 63  1  0  0  0  0
 65 67  1  0  0  0  0
 65 66  1  0  0  0  0
 67 66  1  0  0  0  0
 68 69  1  0  0  0  0
 69 70  1  0  0  0  0
M  END
>  <MODEL>
1

>  <REMARK>
 VINA RESULT:       8.5      0.000      0.000
  Name = 
  15 active torsions:
  status: ('A' for Active; 'I' for Inactive)
    1  A    between atoms: C_3  and  C_58
    2  A    between atoms: C_3  and  N_59
    3  A    between atoms: C_7  and  N_20
    4  A    between atoms: C_7  and  C_28
    5  A    between atoms: C_8  and  C_65
    6  A    between atoms: C_13  and  C_16
    7  A    between atoms: C_13  and  C_29
    8  A    between atoms: O_14  and  C_26
    9  A    between atoms: O_14  and  C_38
   10  A    between atoms: C_16  and  N_20
   11  A    between atoms: C_19  and  C_23
   12  A    between atoms: C_23  and  O_53
   13  A    between atoms: C_29  and  N_30
   14  A    between atoms: C_31  and  C_36
   15  A    between atoms: C_49  and  C_50
                            x       y       z     vdW  Elec       q    Type
                         _______ _______ _______ _____ _____    ______ ____

>  <TORSDO>
F 15

$$$$
=
 OpenBabel11072415273D

 70 78  0  0  1  0  0  0  0  0999 V2000
  160.9360  208.6670  152.0530 C   0  0  1  0  0  3  0  0  0  0  0  0
  160.6610  210.0370  157.2530 C   0  0  1  0  0  3  0  0  0  0  0  0
  161.9770  207.6850  155.9440 O   0  0  0  0  0  0  0  0  0  0  0  0
  160.4810  212.3550  157.0660 F   0  0  0  0  0  0  0  0  0  0  0  0
  160.0200  208.6880  156.8800 C   0  0  0  0  0  2  0  0  0  0  0  0
  160.9820  207.5030  156.9230 C   0  0  0  0  0  2  0  0  0  0  0  0
  158.6170  211.1710  156.7130 O   0  0  0  0  0  1  0  0  0  0  0  0
  161.5150  210.6920  152.7230 C   0  0  2  0  0  3  0  0  0  0  0  0
  162.0330  210.0630  157.0570 F   0  0  0  0  0  0  0  0  0  0  0  0
  160.5940  207.3350  154.0050 C   0  0  2  0  0  3  0  0  0  0  0  0
  162.0030  209.3990  152.6010 O   0  0  0  0  0  0  0  0  0  0  0  0
  160.5700  205.9690  154.6790 C   0  0  0  0  0  2  0  0  0  0  0  0
  160.9550  207.3020  152.5870 N   0  0  0  0  0  0  0  0  0  0  0  0
  158.7630  209.6400  154.5950 F   0  0  0  0  0  0  0  0  0  0  0  0
  159.6930  209.2990  152.2830 O   0  0  0  0  0  0  0  0  0  0  0  0
  159.3620  210.8180  154.1750 C   0  0  1  0  0  0  0  0  0  0  0  0
  159.9970  211.1970  156.4990 C   0  0  2  0  0  0  0  0  0  0  0  0
  160.3800  211.1970  155.1170 O   0  0  0  0  0  0  0  0  0  0  0  0
  161.8060  206.8650  154.7910 C   0  0  2  0  0  3  0  0  0  0  0  0
  160.0040  210.5750  152.7710 C   0  0  1  0  0  3  0  0  0  0  0  0
  160.9540  214.3830  153.7920 C   0  0  0  0  0  2  0  0  0  0  0  0
  159.1050  213.6030  152.3840 C   0  0  2  0  0  3  0  0  0  0  0  0
  155.6970  211.2490  152.4800 O   0  0  0  0  0  1  0  0  0  0  0  0
  159.8930  213.7980  154.7140 C   0  0  0  0  0  2  0  0  0  0  0  0
  155.3280  212.5710  154.5060 C   0  0  0  0  0  2  0  0  0  0  0  0
  155.8490  213.6870  152.3060 C   0  0  2  0  0  3  0  0  0  0  0  0
  160.3560  214.4530  152.4000 C   0  0  0  0  0  2  0  0  0  0  0  0
  155.2450  212.4700  152.9900 C   0  0  1  0  0  0  0  0  0  0  0  0
  156.4480  210.1150  155.3740 O   0  0  0  0  0  0  0  0  0  0  0  0
  158.2670  211.9230  154.0720 C   0  0  2  0  0  3  0  0  0  0  0  0
  157.1430  212.3620  156.5300 O   0  0  0  0  0  1  0  0  0  0  0  0
  158.1080  214.2630  151.6510 O   0  0  0  0  0  0  0  0  0  0  0  0
  154.5490  213.9280  151.5640 C   0  0  0  0  0  2  0  0  0  0  0  0
  157.0710  213.3390  151.4580 C   0  0  2  0  0  3  0  0  0  0  0  0
  158.7190  213.3820  153.8470 C   0  0  2  0  0  3  0  0  0  0  0  0
  156.8180  211.7590  155.1830 P   0  0  1  0  0  0  0  0  0  0  0  0
  153.9040  212.8080  152.3770 C   0  0  0  0  0  2  0  0  0  0  0  0
  156.8020  212.9690  149.9830 C   0  0  0  0  0  2  0  0  0  0  0  0
  156.6000  214.1610  149.1460 N   0  0  0  0  0  2  0  0  0  0  0  0
  156.3840  214.0610  147.7410 C   0  0  0  0  0  0  0  0  0  0  0  0
  155.2870  214.4510  147.2610 O   0  0  0  0  0  0  0  0  0  0  0  0
  157.4440  213.5800  146.8410 C   0  0  0  0  0  0  0  0  0  0  0  0
  158.3090  213.1350  144.5440 C   0  0  2  0  0  3  0  0  0  0  0  0
  158.6380  212.8740  147.4340 C   0  0  0  0  0  2  0  0  0  0  0  0
  157.2990  213.6980  145.5100 C   0  0  0  0  0  3  0  0  0  0  0  0
  159.8270  212.9360  146.5210 C   0  0  0  0  0  0  0  0  0  0  0  0
  160.9800  212.7530  146.9990 O   0  0  0  0  0  0  0  0  0  0  0  0
  159.6600  213.1030  145.1110 N   0  0  0  0  0  0  0  0  0  0  0  0
  160.7300  212.9380  144.2960 O   0  0  0  0  0  1  0  0  0  0  0  0
  158.2950  213.9560  143.2700 C   0  0  0  0  0  1  0  0  0  0  0  0
  161.9670  211.5760  151.5510 C   0  0  2  0  0  3  0  0  0  0  0  0
  160.7830  212.1970  150.8300 C   0  0  0  0  0  1  0  0  0  0  0  0
  162.7080  210.8240  150.6510 O   0  0  0  0  0  0  0  0  0  0  0  0
  163.0870  211.7270  149.6460 C   0  0  0  0  0  1  0  0  0  0  0  0
  160.0290  206.4690  151.8190 C   0  0  0  0  0  2  0  0  0  0  0  0
  160.7990  205.3330  151.1480 C   0  0  0  0  0  2  0  0  0  0  0  0
  159.9990  204.7710  149.9780 C   0  0  0  0  0  2  0  0  0  0  0  0
  160.8240  204.6830  148.7790 N   0  0  0  0  0  0  0  0  0  0  0  0
  161.4920  205.8440  148.2660 C   0  0  0  0  0  0  0  0  0  0  0  0
  162.3760  205.7110  147.3680 O   0  0  0  0  0  0  0  0  0  0  0  0
  161.1830  203.3610  148.2800 C   0  0  0  0  0  2  0  0  0  0  0  0
  160.9890  201.9300  146.3930 O   0  0  0  0  0  0  0  0  0  0  0  0
  160.4040  203.0530  147.0070 C   0  0  2  0  0  3  0  0  0  0  0  0
  161.3090  203.1870  145.8450 C   0  0  2  0  0  3  0  0  0  0  0  0
  160.4990  203.4200  144.5840 C   0  0  0  0  0  3  0  0  0  0  0  0
  161.3090  204.2620  143.6040 C   0  0  0  0  0  2  0  0  0  0  0  0
  160.2320  204.9060  144.4420 C   0  0  0  0  0  2  0  0  0  0  0  0
  161.1700  207.1190  148.7590 O   0  0  0  0  0  0  0  0  0  0  0  0
  162.1630  208.0450  149.1820 C   0  0  0  0  0  2  0  0  0  0  0  0
  162.5760  208.9440  148.0340 C   0  0  0  0  0  1  0  0  0  0  0  0
  1 15  1  1  0  0  0
  1 13  1  0  0  0  0
  1 11  1  0  0  0  0
  2  9  1  6  0  0  0
  3  6  1  0  0  0  0
  5  6  1  0  0  0  0
  5  2  1  0  0  0  0
  8 51  1  6  0  0  0
  8 20  1  0  0  0  0
 10 12  1  6  0  0  0
 10 19  1  0  0  0  0
 11  8  1  0  0  0  0
 13 10  1  0  0  0  0
 16 14  1  1  0  0  0
 16 18  1  0  0  0  0
 17  7  1  1  0  0  0
 17  4  1  0  0  0  0
 17  2  1  0  0  0  0
 18 17  1  0  0  0  0
 19 12  1  1  0  0  0
 19  3  1  0  0  0  0
 20 15  1  1  0  0  0
 20 16  1  0  0  0  0
 21 24  1  0  0  0  0
 22 27  1  1  0  0  0
 22 35  1  0  0  0  0
 25 36  1  0  0  0  0
 26 33  1  6  0  0  0
 26 28  1  0  0  0  0
 27 21  1  0  0  0  0
 28 23  1  6  0  0  0
 28 25  1  0  0  0  0
 30 16  1  1  0  0  0
 30 36  1  0  0  0  0
 32 22  1  0  0  0  0
 33 37  1  0  0  0  0
 34 38  1  6  0  0  0
 34 32  1  0  0  0  0
 34 26  1  0  0  0  0
 35 30  1  0  0  0  0
 35 24  1  1  0  0  0
 36 29  2  1  0  0  0
 36 31  1  0  0  0  0
 37 28  1  0  0  0  0
 39 38  1  0  0  0  0
 40 39  1  0  0  0  0
 41 40  2  0  0  0  0
 42 44  1  0  0  0  0
 42 40  1  0  0  0  0
 43 50  1  6  0  0  0
 43 48  1  0  0  0  0
 43 45  1  0  0  0  0
 45 42  2  0  0  0  0
 46 47  2  0  0  0  0
 46 44  1  0  0  0  0
 48 46  1  0  0  0  0
 49 48  1  0  0  0  0
 51 52  1  6  0  0  0
 53 51  1  0  0  0  0
 54 53  1  0  0  0  0
 55 13  1  0  0  0  0
 56 55  1  0  0  0  0
 57 56  1  0  0  0  0
 58 57  1  0  0  0  0
 59 68  1  0  0  0  0
 59 58  1  0  0  0  0
 60 59  2  0  0  0  0
 61 58  1  0  0  0  0
 62 63  1  0  0  0  0
 63 61  1  1  0  0  0
 64 65  1  6  0  0  0
 64 62  1  0  0  0  0
 64 63  1  0  0  0  0
 66 67  1  0  0  0  0
 66 65  1  0  0  0  0
 67 65  1  0  0  0  0
 68 69  1  0  0  0  0
 70 69  1  0  0  0  0
M  END
>  <MODEL>
2

>  <REMARK>
 VINA RESULT:       9.5      1.694      2.621
  Name = 
  15 active torsions:
  status: ('A' for Active; 'I' for Inactive)
    1  A    between atoms: C_3  and  C_58
    2  A    between atoms: C_3  and  N_59
    3  A    between atoms: C_7  and  N_20
    4  A    between atoms: C_7  and  C_28
    5  A    between atoms: C_8  and  C_65
    6  A    between atoms: C_13  and  C_16
    7  A    between atoms: C_13  and  C_29
    8  A    between atoms: O_14  and  C_26
    9  A    between atoms: O_14  and  C_38
   10  A    between atoms: C_16  and  N_20
   11  A    between atoms: C_19  and  C_23
   12  A    between atoms: C_23  and  O_53
   13  A    between atoms: C_29  and  N_30
   14  A    between atoms: C_31  and  C_36
   15  A    between atoms: C_49  and  C_50
                            x       y       z     vdW  Elec       q    Type
                         _______ _______ _______ _____ _____    ______ ____

>  <TORSDO>
F 15

$$$$
=
 OpenBabel11072415273D

 70 78  0  0  1  0  0  0  0  0999 V2000
  161.9490  208.7240  149.0960 C   0  0  1  0  0  3  0  0  0  0  0  0
  160.4480  211.7640  153.2780 C   0  0  1  0  0  3  0  0  0  0  0  0
  161.5800  208.9900  153.2160 O   0  0  0  0  0  0  0  0  0  0  0  0
  160.8100  213.8940  152.3980 F   0  0  0  0  0  0  0  0  0  0  0  0
  159.6830  210.4410  153.1030 C   0  0  0  0  0  2  0  0  0  0  0  0
  160.3260  209.2460  153.8040 C   0  0  0  0  0  2  0  0  0  0  0  0
  158.9300  212.8540  151.7750 O   0  0  0  0  0  1  0  0  0  0  0  0
  162.7080  210.7860  149.3250 C   0  0  2  0  0  3  0  0  0  0  0  0
  161.7930  211.5850  153.5650 F   0  0  0  0  0  0  0  0  0  0  0  0
  160.7850  208.1580  151.1020 C   0  0  2  0  0  3  0  0  0  0  0  0
  162.9340  209.4840  149.7470 O   0  0  0  0  0  0  0  0  0  0  0  0
  160.2850  207.1030  152.0820 C   0  0  0  0  0  2  0  0  0  0  0  0
  161.5310  207.6190  149.9640 N   0  0  0  0  0  0  0  0  0  0  0  0
  159.3730  210.7000  150.3560 F   0  0  0  0  0  0  0  0  0  0  0  0
  160.8500  209.5180  148.6980 O   0  0  0  0  0  0  0  0  0  0  0  0
  160.2970  211.6040  149.8540 C   0  0  1  0  0  0  0  0  0  0  0  0
  160.2860  212.6680  152.0490 C   0  0  2  0  0  0  0  0  0  0  0  0
  161.0490  212.1700  150.9410 O   0  0  0  0  0  0  0  0  0  0  0  0
  161.5910  207.8550  152.3540 C   0  0  2  0  0  3  0  0  0  0  0  0
  161.2580  210.8450  148.8830 C   0  0  1  0  0  3  0  0  0  0  0  0
  162.7380  214.3870  148.5540 C   0  0  0  0  0  2  0  0  0  0  0  0
  161.0080  213.3810  147.1390 C   0  0  2  0  0  3  0  0  0  0  0  0
  157.1650  211.8390  147.2800 O   0  0  0  0  0  1  0  0  0  0  0  0
  161.4340  214.4150  149.3380 C   0  0  0  0  0  2  0  0  0  0  0  0
  156.8020  213.9300  148.4990 C   0  0  0  0  0  2  0  0  0  0  0  0
  157.9240  213.9220  146.2400 C   0  0  2  0  0  3  0  0  0  0  0  0
  162.4060  213.9560  147.1390 C   0  0  0  0  0  2  0  0  0  0  0  0
  156.9430  213.2140  147.1630 C   0  0  1  0  0  0  0  0  0  0  0  0
  157.1460  211.9270  150.4760 O   0  0  0  0  0  0  0  0  0  0  0  0
  159.5300  212.7170  149.0760 C   0  0  2  0  0  3  0  0  0  0  0  0
  158.1630  214.3160  150.8290 O   0  0  0  0  0  1  0  0  0  0  0  0
  160.3300  213.8150  145.9910 O   0  0  0  0  0  0  0  0  0  0  0  0
  156.8560  214.0250  145.1680 C   0  0  0  0  0  2  0  0  0  0  0  0
  159.1470  213.0670  145.9140 C   0  0  2  0  0  3  0  0  0  0  0  0
  160.3500  213.8580  148.4340 C   0  0  2  0  0  3  0  0  0  0  0  0
  157.9250  213.2600  149.7750 P   0  0  1  0  0  0  0  0  0  0  0  0
  155.8390  213.4650  146.1590 C   0  0  0  0  0  2  0  0  0  0  0  0
  159.0380  212.1570  144.6710 C   0  0  0  0  0  2  0  0  0  0  0  0
  160.1980  212.3040  143.7790 N   0  0  0  0  0  2  0  0  0  0  0  0
  160.2450  213.3110  142.7730 C   0  0  0  0  0  0  0  0  0  0  0  0
  161.1250  214.2090  142.8440 O   0  0  0  0  0  0  0  0  0  0  0  0
  159.3330  213.2760  141.6180 C   0  0  0  0  0  0  0  0  0  0  0  0
  158.7310  212.4360  139.3480 C   0  0  2  0  0  3  0  0  0  0  0  0
  158.1860  214.2550  141.5660 C   0  0  0  0  0  2  0  0  0  0  0  0
  159.5780  212.4410  140.5950 C   0  0  0  0  0  3  0  0  0  0  0  0
  157.0820  213.7670  140.6750 C   0  0  0  0  0  0  0  0  0  0  0  0
  155.9230  214.2430  140.8150 O   0  0  0  0  0  0  0  0  0  0  0  0
  157.3490  212.8450  139.6150 N   0  0  0  0  0  0  0  0  0  0  0  0
  156.3820  212.5940  138.7010 O   0  0  0  0  0  1  0  0  0  0  0  0
  158.7560  211.0510  138.7310 C   0  0  0  0  0  1  0  0  0  0  0  0
  163.6540  211.1800  148.1820 C   0  0  2  0  0  3  0  0  0  0  0  0
  164.6700  210.0870  147.8950 C   0  0  0  0  0  1  0  0  0  0  0  0
  164.3210  212.3530  148.5040 O   0  0  0  0  0  0  0  0  0  0  0  0
  165.4300  211.9450  149.2620 C   0  0  0  0  0  1  0  0  0  0  0  0
  160.7210  206.6760  149.1920 C   0  0  0  0  0  2  0  0  0  0  0  0
  161.4020  206.3910  147.8550 C   0  0  0  0  0  2  0  0  0  0  0  0
  160.4900  205.5530  146.9660 C   0  0  0  0  0  2  0  0  0  0  0  0
  161.2240  204.4430  146.3680 N   0  0  0  0  0  0  0  0  0  0  0  0
  162.0320  204.6480  145.2000 C   0  0  0  0  0  0  0  0  0  0  0  0
  162.8330  203.7400  144.8280 O   0  0  0  0  0  0  0  0  0  0  0  0
  161.3480  203.2050  147.1270 C   0  0  0  0  0  2  0  0  0  0  0  0
  162.4050  202.5920  149.1650 O   0  0  0  0  0  0  0  0  0  0  0  0
  161.4980  203.5140  148.6120 C   0  0  2  0  0  3  0  0  0  0  0  0
  161.0380  202.3470  149.3950 C   0  0  2  0  0  3  0  0  0  0  0  0
  160.6660  202.7820  150.7990 C   0  0  0  0  0  3  0  0  0  0  0  0
  160.6790  201.5740  151.7300 C   0  0  0  0  0  2  0  0  0  0  0  0
  159.3700  202.1000  151.1960 C   0  0  0  0  0  2  0  0  0  0  0  0
  161.9350  205.8480  144.4770 O   0  0  0  0  0  0  0  0  0  0  0  0
  160.9910  206.0320  143.4300 C   0  0  0  0  0  2  0  0  0  0  0  0
  161.6940  206.1150  142.0890 C   0  0  0  0  0  1  0  0  0  0  0  0
  1 15  1  1  0  0  0
  1 11  1  0  0  0  0
  1 13  1  0  0  0  0
  2  9  1  6  0  0  0
  3  6  1  0  0  0  0
  5  2  1  0  0  0  0
  5  6  1  0  0  0  0
  8 51  1  6  0  0  0
  8 11  1  0  0  0  0
 10 12  1  1  0  0  0
 10 19  1  0  0  0  0
 13 10  1  0  0  0  0
 16 14  1  1  0  0  0
 16 18  1  0  0  0  0
 17  7  1  6  0  0  0
 17  4  1  0  0  0  0
 17  2  1  0  0  0  0
 18 17  1  0  0  0  0
 19 12  1  1  0  0  0
 19  3  1  0  0  0  0
 20 15  1  1  0  0  0
 20  8  1  0  0  0  0
 20 16  1  0  0  0  0
 21 24  1  0  0  0  0
 22 27  1  6  0  0  0
 22 35  1  0  0  0  0
 25 36  1  0  0  0  0
 26 33  1  6  0  0  0
 26 28  1  0  0  0  0
 27 21  1  0  0  0  0
 28 23  1  1  0  0  0
 28 25  1  0  0  0  0
 30 36  1  0  0  0  0
 30 16  1  1  0  0  0
 32 22  1  0  0  0  0
 33 37  1  0  0  0  0
 34 38  1  6  0  0  0
 34 32  1  0  0  0  0
 34 26  1  0  0  0  0
 35 30  1  0  0  0  0
 35 24  1  1  0  0  0
 36 29  2  1  0  0  0
 36 31  1  0  0  0  0
 37 28  1  0  0  0  0
 39 38  1  0  0  0  0
 40 41  2  0  0  0  0
 40 39  1  0  0  0  0
 42 40  1  0  0  0  0
 43 50  1  1  0  0  0
 43 48  1  0  0  0  0
 43 45  1  0  0  0  0
 44 42  1  0  0  0  0
 45 42  2  0  0  0  0
 46 47  2  0  0  0  0
 46 44  1  0  0  0  0
 48 46  1  0  0  0  0
 49 48  1  0  0  0  0
 51 52  1  1  0  0  0
 51 53  1  0  0  0  0
 53 54  1  0  0  0  0
 55 13  1  0  0  0  0
 56 55  1  0  0  0  0
 57 56  1  0  0  0  0
 58 57  1  0  0  0  0
 58 61  1  0  0  0  0
 59 58  1  0  0  0  0
 60 59  2  0  0  0  0
 62 64  1  0  0  0  0
 63 61  1  6  0  0  0
 63 62  1  0  0  0  0
 63 64  1  0  0  0  0
 64 65  1  1  0  0  0
 65 67  1  0  0  0  0
 65 66  1  0  0  0  0
 67 66  1  0  0  0  0
 68 59  1  0  0  0  0
 69 68  1  0  0  0  0
 70 69  1  0  0  0  0
M  END
>  <MODEL>
3

>  <REMARK>
 VINA RESULT:      10.4      2.107      4.119
  Name = 
  15 active torsions:
  status: ('A' for Active; 'I' for Inactive)
    1  A    between atoms: C_3  and  C_58
    2  A    between atoms: C_3  and  N_59
    3  A    between atoms: C_7  and  N_20
    4  A    between atoms: C_7  and  C_28
    5  A    between atoms: C_8  and  C_65
    6  A    between atoms: C_13  and  C_16
    7  A    between atoms: C_13  and  C_29
    8  A    between atoms: O_14  and  C_26
    9  A    between atoms: O_14  and  C_38
   10  A    between atoms: C_16  and  N_20
   11  A    between atoms: C_19  and  C_23
   12  A    between atoms: C_23  and  O_53
   13  A    between atoms: C_29  and  N_30
   14  A    between atoms: C_31  and  C_36
   15  A    between atoms: C_49  and  C_50
                            x       y       z     vdW  Elec       q    Type
                         _______ _______ _______ _____ _____    ______ ____

>  <TORSDO>
F 15

$$$$
=
 OpenBabel11072415273D

 70 78  0  0  1  0  0  0  0  0999 V2000
  162.4330  210.4760  148.2080 C   0  0  1  0  0  3  0  0  0  0  0  0
  159.1570  212.3300  152.0570 C   0  0  1  0  0  3  0  0  0  0  0  0
  159.7420  213.4230  149.3300 O   0  0  0  0  0  0  0  0  0  0  0  0
  158.6090  210.3350  153.1370 F   0  0  0  0  0  0  0  0  0  0  0  0
  160.3060  213.2660  151.6470 C   0  0  0  0  0  2  0  0  0  0  0  0
  159.9730  214.1970  150.4830 C   0  0  0  0  0  2  0  0  0  0  0  0
  160.5980  211.2330  153.6310 O   0  0  0  0  0  1  0  0  0  0  0  0
  160.9270  209.1570  149.1440 C   0  0  2  0  0  3  0  0  0  0  0  0
  158.2460  212.1030  151.0380 F   0  0  0  0  0  0  0  0  0  0  0  0
  162.0090  212.7010  148.9620 C   0  0  2  0  0  3  0  0  0  0  0  0
  161.0770  210.1140  148.1520 O   0  0  0  0  0  0  0  0  0  0  0  0
  162.1010  214.2060  148.7420 C   0  0  0  0  0  2  0  0  0  0  0  0
  162.5740  211.8970  147.8780 N   0  0  0  0  0  0  0  0  0  0  0  0
  162.2380  211.2730  151.5930 F   0  0  0  0  0  0  0  0  0  0  0  0
  163.0050  210.1740  149.4640 O   0  0  0  0  0  0  0  0  0  0  0  0
  161.6370  210.0270  151.4890 C   0  0  1  0  0  0  0  0  0  0  0  0
  159.6910  210.9950  152.5960 C   0  0  2  0  0  0  0  0  0  0  0  0
  160.2080  210.1820  151.5330 O   0  0  0  0  0  0  0  0  0  0  0  0
  160.8150  213.4510  148.3930 C   0  0  2  0  0  3  0  0  0  0  0  0
  162.0580  209.3840  150.1290 C   0  0  1  0  0  3  0  0  0  0  0  0
  165.0630  211.3070  152.9110 C   0  0  0  0  0  2  0  0  0  0  0  0
  163.1750  210.7030  154.3550 C   0  0  2  0  0  3  0  0  0  0  0  0
  160.0000  208.0570  154.6410 O   0  0  0  0  0  1  0  0  0  0  0  0
  164.5550  209.9460  152.4540 C   0  0  0  0  0  2  0  0  0  0  0  0
  161.7910  206.4780  154.1040 C   0  0  0  0  0  2  0  0  0  0  0  0
  162.0410  208.1280  155.9950 C   0  0  2  0  0  3  0  0  0  0  0  0
  164.3500  211.6450  154.2050 C   0  0  0  0  0  2  0  0  0  0  0  0
  161.0700  207.3140  155.1510 C   0  0  1  0  0  0  0  0  0  0  0  0
  160.4720  207.0210  151.6530 O   0  0  0  0  0  0  0  0  0  0  0  0
  162.1310  209.1380  152.6710 C   0  0  2  0  0  3  0  0  0  0  0  0
  163.0780  206.7520  151.7160 O   0  0  0  0  0  1  0  0  0  0  0  0
  163.0790  210.2940  155.6920 O   0  0  0  0  0  0  0  0  0  0  0  0
  161.4780  207.5050  157.2580 C   0  0  0  0  0  2  0  0  0  0  0  0
  161.8490  209.6340  155.8240 C   0  0  2  0  0  3  0  0  0  0  0  0
  163.4350  209.5420  153.3940 C   0  0  2  0  0  3  0  0  0  0  0  0
  161.9150  207.3260  152.4910 P   0  0  1  0  0  0  0  0  0  0  0  0
  160.6270  206.5780  156.3960 C   0  0  0  0  0  2  0  0  0  0  0  0
  160.8510  210.3130  156.7860 C   0  0  0  0  0  2  0  0  0  0  0  0
  159.6320  209.5130  156.9680 N   0  0  0  0  0  2  0  0  0  0  0  0
  158.5500  209.5770  156.0440 C   0  0  0  0  0  0  0  0  0  0  0  0
  158.2370  208.5450  155.3930 O   0  0  0  0  0  0  0  0  0  0  0  0
  157.7490  210.8030  155.8930 C   0  0  0  0  0  0  0  0  0  0  0  0
  157.3680  213.2220  156.3660 C   0  0  2  0  0  3  0  0  0  0  0  0
  156.3930  210.7110  155.2400 C   0  0  0  0  0  2  0  0  0  0  0  0
  158.1930  211.9610  156.4080 C   0  0  0  0  0  3  0  0  0  0  0  0
  155.9570  212.0320  154.6790 C   0  0  0  0  0  0  0  0  0  0  0  0
  155.0670  212.0590  153.7860 O   0  0  0  0  0  0  0  0  0  0  0  0
  156.4700  213.2580  155.2090 N   0  0  0  0  0  0  0  0  0  0  0  0
  155.9000  214.4280  154.8330 O   0  0  0  0  0  1  0  0  0  0  0  0
  158.2910  214.4240  156.3490 C   0  0  0  0  0  1  0  0  0  0  0  0
  160.9710  207.7360  148.5660 C   0  0  2  0  0  3  0  0  0  0  0  0
  162.3770  207.1600  148.6000 C   0  0  0  0  0  1  0  0  0  0  0  0
  160.5110  207.7450  147.2570 O   0  0  0  0  0  0  0  0  0  0  0  0
  161.4880  207.0540  146.5220 C   0  0  0  0  0  1  0  0  0  0  0  0
  163.9880  212.2060  147.6650 C   0  0  0  0  0  2  0  0  0  0  0  0
  164.1250  213.2200  146.5300 C   0  0  0  0  0  2  0  0  0  0  0  0
  162.7500  213.5940  145.9880 C   0  0  0  0  0  2  0  0  0  0  0  0
  162.5070  212.9520  144.7000 N   0  0  0  0  0  0  0  0  0  0  0  0
  161.1710  212.6390  144.2820 C   0  0  0  0  0  0  0  0  0  0  0  0
  160.9570  212.2940  143.0820 O   0  0  0  0  0  0  0  0  0  0  0  0
  163.6000  212.8920  143.7390 C   0  0  0  0  0  2  0  0  0  0  0  0
  162.1510  214.0340  142.2410 O   0  0  0  0  0  0  0  0  0  0  0  0
  163.4710  214.0240  142.7270 C   0  0  2  0  0  3  0  0  0  0  0  0
  163.1260  213.4540  141.4080 C   0  0  2  0  0  3  0  0  0  0  0  0
  163.5080  214.4270  140.3080 C   0  0  0  0  0  3  0  0  0  0  0  0
  162.6300  214.1870  139.0850 C   0  0  0  0  0  2  0  0  0  0  0  0
  164.0360  213.6420  139.1220 C   0  0  0  0  0  2  0  0  0  0  0  0
  160.1080  212.7190  145.1970 O   0  0  0  0  0  0  0  0  0  0  0  0
  158.7560  212.8700  144.7820 C   0  0  0  0  0  2  0  0  0  0  0  0
  158.6840  213.1430  143.2920 C   0  0  0  0  0  1  0  0  0  0  0  0
  1 11  1  1  0  0  0
  1 15  1  0  0  0  0
  2  9  1  6  0  0  0
  2 17  1  0  0  0  0
  3  6  1  0  0  0  0
  5  2  1  0  0  0  0
  6  5  1  0  0  0  0
  8 51  1  6  0  0  0
  8 20  1  0  0  0  0
 10 12  1  6  0  0  0
 11  8  1  0  0  0  0
 13  1  1  0  0  0  0
 13 10  1  0  0  0  0
 16 18  1  0  0  0  0
 16 14  1  1  0  0  0
 17  4  1  1  0  0  0
 17  7  1  0  0  0  0
 18 17  1  0  0  0  0
 19 12  1  1  0  0  0
 19 10  1  0  0  0  0
 19  3  1  0  0  0  0
 20 15  1  6  0  0  0
 20 16  1  0  0  0  0
 21 27  1  0  0  0  0
 22 27  1  1  0  0  0
 22 32  1  0  0  0  0
 24 21  1  0  0  0  0
 25 28  1  0  0  0  0
 26 33  1  1  0  0  0
 28 23  1  6  0  0  0
 28 26  1  0  0  0  0
 28 37  1  0  0  0  0
 30 16  1  6  0  0  0
 30 35  1  0  0  0  0
 31 36  1  0  0  0  0
 32 34  1  0  0  0  0
 34 26  1  0  0  0  0
 34 38  1  1  0  0  0
 35 24  1  6  0  0  0
 35 22  1  0  0  0  0
 36 29  2  6  0  0  0
 36 30  1  0  0  0  0
 36 25  1  0  0  0  0
 37 33  1  0  0  0  0
 38 39  1  0  0  0  0
 40 39  1  0  0  0  0
 41 40  2  0  0  0  0
 42 40  1  0  0  0  0
 42 45  2  0  0  0  0
 43 50  1  6  0  0  0
 43 45  1  0  0  0  0
 44 42  1  0  0  0  0
 46 48  1  0  0  0  0
 46 44  1  0  0  0  0
 47 46  2  0  0  0  0
 48 43  1  0  0  0  0
 49 48  1  0  0  0  0
 51 52  1  6  0  0  0
 53 51  1  0  0  0  0
 54 53  1  0  0  0  0
 55 13  1  0  0  0  0
 56 55  1  0  0  0  0
 57 56  1  0  0  0  0
 58 57  1  0  0  0  0
 59 58  1  0  0  0  0
 59 68  1  0  0  0  0
 60 59  2  0  0  0  0
 61 58  1  0  0  0  0
 62 63  1  0  0  0  0
 63 61  1  1  0  0  0
 64 65  1  6  0  0  0
 64 62  1  0  0  0  0
 64 63  1  0  0  0  0
 66 67  1  0  0  0  0
 66 65  1  0  0  0  0
 67 65  1  0  0  0  0
 69 68  1  0  0  0  0
 70 69  1  0  0  0  0
M  END
>  <MODEL>
4

>  <REMARK>
 VINA RESULT:      10.6      3.125      8.616
  Name = 
  15 active torsions:
  status: ('A' for Active; 'I' for Inactive)
    1  A    between atoms: C_3  and  C_58
    2  A    between atoms: C_3  and  N_59
    3  A    between atoms: C_7  and  N_20
    4  A    between atoms: C_7  and  C_28
    5  A    between atoms: C_8  and  C_65
    6  A    between atoms: C_13  and  C_16
    7  A    between atoms: C_13  and  C_29
    8  A    between atoms: O_14  and  C_26
    9  A    between atoms: O_14  and  C_38
   10  A    between atoms: C_16  and  N_20
   11  A    between atoms: C_19  and  C_23
   12  A    between atoms: C_23  and  O_53
   13  A    between atoms: C_29  and  N_30
   14  A    between atoms: C_31  and  C_36
   15  A    between atoms: C_49  and  C_50
                            x       y       z     vdW  Elec       q    Type
                         _______ _______ _______ _____ _____    ______ ____

>  <TORSDO>
F 15

$$$$
=
 OpenBabel11072415273D

 70 78  0  0  1  0  0  0  0  0999 V2000
  160.9700  208.6680  152.0310 C   0  0  1  0  0  3  0  0  0  0  0  0
  160.4710  209.8740  157.2550 C   0  0  1  0  0  3  0  0  0  0  0  0
  161.8630  207.5760  155.9290 O   0  0  0  0  0  0  0  0  0  0  0  0
  160.2740  212.1960  157.1310 F   0  0  0  0  0  0  0  0  0  0  0  0
  159.8600  208.5320  156.8160 C   0  0  0  0  0  2  0  0  0  0  0  0
  160.8310  207.3550  156.8620 C   0  0  0  0  0  2  0  0  0  0  0  0
  158.4380  211.0050  156.6660 O   0  0  0  0  0  1  0  0  0  0  0  0
  161.5010  210.6770  152.7850 C   0  0  2  0  0  3  0  0  0  0  0  0
  161.8490  209.9190  157.1160 F   0  0  0  0  0  0  0  0  0  0  0  0
  160.5640  207.2740  153.9260 C   0  0  2  0  0  3  0  0  0  0  0  0
  162.0060  209.3930  152.6440 O   0  0  0  0  0  0  0  0  0  0  0  0
  160.5270  205.8870  154.5570 C   0  0  0  0  0  2  0  0  0  0  0  0
  160.9830  207.2880  152.5240 N   0  0  0  0  0  0  0  0  0  0  0  0
  158.6860  209.5420  154.5110 F   0  0  0  0  0  0  0  0  0  0  0  0
  159.7130  209.2810  152.2290 O   0  0  0  0  0  0  0  0  0  0  0  0
  159.2900  210.7380  154.1520 C   0  0  1  0  0  0  0  0  0  0  0  0
  159.8250  211.0510  156.5100 C   0  0  2  0  0  0  0  0  0  0  0  0
  160.2640  211.0970  155.1450 O   0  0  0  0  0  0  0  0  0  0  0  0
  161.7490  206.7910  154.7460 C   0  0  2  0  0  3  0  0  0  0  0  0
  159.9900  210.5440  152.7680 C   0  0  1  0  0  3  0  0  0  0  0  0
  160.8560  214.3310  153.9810 C   0  0  0  0  0  2  0  0  0  0  0  0
  159.0860  213.5870  152.4570 C   0  0  2  0  0  3  0  0  0  0  0  0
  155.7050  211.1970  152.2980 O   0  0  0  0  0  1  0  0  0  0  0  0
  159.7590  213.7000  154.8280 C   0  0  0  0  0  2  0  0  0  0  0  0
  155.2240  212.4370  154.3530 C   0  0  0  0  0  2  0  0  0  0  0  0
  155.8370  213.6420  152.2240 C   0  0  2  0  0  3  0  0  0  0  0  0
  160.3250  214.4480  152.5660 C   0  0  0  0  0  2  0  0  0  0  0  0
  155.2150  212.3930  152.8320 C   0  0  1  0  0  0  0  0  0  0  0  0
  156.3300  209.9610  155.1800 O   0  0  0  0  0  0  0  0  0  0  0  0
  158.1880  211.8350  154.0370 C   0  0  2  0  0  3  0  0  0  0  0  0
  156.9410  212.1680  156.4530 O   0  0  0  0  0  1  0  0  0  0  0  0
  158.1180  214.2650  151.7020 O   0  0  0  0  0  0  0  0  0  0  0  0
  154.5710  213.8980  151.4300 C   0  0  0  0  0  2  0  0  0  0  0  0
  157.1030  213.3390  151.4240 C   0  0  2  0  0  3  0  0  0  0  0  0
  158.6330  213.3060  153.8900 C   0  0  2  0  0  3  0  0  0  0  0  0
  156.6890  211.6140  155.0700 P   0  0  1  0  0  0  0  0  0  0  0  0
  153.9010  212.7420  152.1670 C   0  0  0  0  0  2  0  0  0  0  0  0
  156.9090  213.0240  149.9250 C   0  0  0  0  0  2  0  0  0  0  0  0
  156.5440  214.2210  149.1540 N   0  0  0  0  0  2  0  0  0  0  0  0
  156.6260  214.2500  147.7320 C   0  0  0  0  0  0  0  0  0  0  0  0
  155.5720  214.4050  147.0600 O   0  0  0  0  0  0  0  0  0  0  0  0
  157.9250  214.1760  147.0440 C   0  0  0  0  0  0  0  0  0  0  0  0
  160.4140  214.3220  147.0770 C   0  0  2  0  0  3  0  0  0  0  0  0
  157.9450  214.0630  145.5390 C   0  0  0  0  0  2  0  0  0  0  0  0
  159.0640  214.2930  147.7450 C   0  0  0  0  0  3  0  0  0  0  0  0
  159.2310  213.4660  145.0470 C   0  0  0  0  0  0  0  0  0  0  0  0
  159.2680  212.9500  143.8970 O   0  0  0  0  0  0  0  0  0  0  0  0
  160.4280  213.5630  145.8230 N   0  0  0  0  0  0  0  0  0  0  0  0
  161.6080  213.2100  145.2600 O   0  0  0  0  0  1  0  0  0  0  0  0
  161.4570  213.7740  148.0310 C   0  0  0  0  0  1  0  0  0  0  0  0
  161.9900  211.6000  151.6600 C   0  0  2  0  0  3  0  0  0  0  0  0
  160.8310  212.1700  150.8600 C   0  0  0  0  0  1  0  0  0  0  0  0
  162.8340  210.9010  150.8100 O   0  0  0  0  0  0  0  0  0  0  0  0
  162.0300  210.5330  149.7200 C   0  0  0  0  0  1  0  0  0  0  0  0
  160.0970  206.4700  151.6940 C   0  0  0  0  0  2  0  0  0  0  0  0
  160.6270  206.4340  150.2610 C   0  0  0  0  0  2  0  0  0  0  0  0
  161.4560  205.1740  150.0360 C   0  0  0  0  0  2  0  0  0  0  0  0
  160.9700  204.4330  148.8770 N   0  0  0  0  0  0  0  0  0  0  0  0
  160.9250  202.9990  148.8940 C   0  0  0  0  0  0  0  0  0  0  0  0
  160.2980  202.3830  147.9820 O   0  0  0  0  0  0  0  0  0  0  0  0
  160.2770  205.1670  147.8260 C   0  0  0  0  0  2  0  0  0  0  0  0
  162.0300  205.3380  146.2310 O   0  0  0  0  0  0  0  0  0  0  0  0
  160.7830  204.7270  146.4580 C   0  0  2  0  0  3  0  0  0  0  0  0
  160.9180  205.9160  145.5890 C   0  0  2  0  0  3  0  0  0  0  0  0
  160.8900  205.4960  144.1320 C   0  0  0  0  0  3  0  0  0  0  0  0
  162.2550  204.9480  143.7310 C   0  0  0  0  0  2  0  0  0  0  0  0
  161.8690  206.3570  143.3560 C   0  0  0  0  0  2  0  0  0  0  0  0
  161.5700  202.2860  149.9180 O   0  0  0  0  0  0  0  0  0  0  0  0
  161.0420  201.0790  150.4530 C   0  0  0  0  0  2  0  0  0  0  0  0
  160.1100  201.3730  151.6120 C   0  0  0  0  0  1  0  0  0  0  0  0
  1 15  1  1  0  0  0
  1 13  1  0  0  0  0
  1 11  1  0  0  0  0
  2  9  1  6  0  0  0
  3  6  1  0  0  0  0
  5  6  1  0  0  0  0
  5  2  1  0  0  0  0
  8 51  1  6  0  0  0
 10 12  1  6  0  0  0
 10 19  1  0  0  0  0
 11  8  1  0  0  0  0
 13 10  1  0  0  0  0
 16 14  1  1  0  0  0
 16 18  1  0  0  0  0
 17  7  1  1  0  0  0
 17  4  1  0  0  0  0
 17  2  1  0  0  0  0
 18 17  1  0  0  0  0
 19 12  1  1  0  0  0
 19  3  1  0  0  0  0
 20 15  1  1  0  0  0
 20  8  1  0  0  0  0
 20 16  1  0  0  0  0
 21 24  1  0  0  0  0
 22 27  1  1  0  0  0
 22 35  1  0  0  0  0
 25 36  1  0  0  0  0
 26 33  1  6  0  0  0
 26 28  1  0  0  0  0
 27 21  1  0  0  0  0
 28 23  1  6  0  0  0
 28 25  1  0  0  0  0
 30 16  1  1  0  0  0
 30 36  1  0  0  0  0
 32 22  1  0  0  0  0
 33 37  1  0  0  0  0
 34 38  1  6  0  0  0
 34 32  1  0  0  0  0
 34 26  1  0  0  0  0
 35 30  1  0  0  0  0
 35 24  1  1  0  0  0
 36 29  2  1  0  0  0
 36 31  1  0  0  0  0
 37 28  1  0  0  0  0
 39 38  1  0  0  0  0
 40 39  1  0  0  0  0
 41 40  2  0  0  0  0
 42 40  1  0  0  0  0
 42 45  2  0  0  0  0
 43 45  1  0  0  0  0
 43 50  1  1  0  0  0
 44 42  1  0  0  0  0
 46 44  1  0  0  0  0
 46 48  1  0  0  0  0
 47 46  2  0  0  0  0
 48 43  1  0  0  0  0
 49 48  1  0  0  0  0
 51 52  1  6  0  0  0
 53 51  1  0  0  0  0
 54 53  1  0  0  0  0
 55 13  1  0  0  0  0
 56 55  1  0  0  0  0
 57 56  1  0  0  0  0
 58 59  1  0  0  0  0
 58 57  1  0  0  0  0
 59 68  1  0  0  0  0
 60 59  2  0  0  0  0
 61 58  1  0  0  0  0
 62 63  1  0  0  0  0
 63 61  1  1  0  0  0
 64 65  1  6  0  0  0
 64 62  1  0  0  0  0
 64 63  1  0  0  0  0
 66 65  1  0  0  0  0
 67 66  1  0  0  0  0
 67 65  1  0  0  0  0
 68 69  1  0  0  0  0
 69 70  1  0  0  0  0
M  END
>  <MODEL>
5

>  <REMARK>
 VINA RESULT:      10.9      1.683      2.120
  Name = 
  15 active torsions:
  status: ('A' for Active; 'I' for Inactive)
    1  A    between atoms: C_3  and  C_58
    2  A    between atoms: C_3  and  N_59
    3  A    between atoms: C_7  and  N_20
    4  A    between atoms: C_7  and  C_28
    5  A    between atoms: C_8  and  C_65
    6  A    between atoms: C_13  and  C_16
    7  A    between atoms: C_13  and  C_29
    8  A    between atoms: O_14  and  C_26
    9  A    between atoms: O_14  and  C_38
   10  A    between atoms: C_16  and  N_20
   11  A    between atoms: C_19  and  C_23
   12  A    between atoms: C_23  and  O_53
   13  A    between atoms: C_29  and  N_30
   14  A    between atoms: C_31  and  C_36
   15  A    between atoms: C_49  and  C_50
                            x       y       z     vdW  Elec       q    Type
                         _______ _______ _______ _____ _____    ______ ____

>  <TORSDO>
F 15

$$$$
