=
 OpenBabel11072414473D

 45 51  0  0  1  0  0  0  0  0999 V2000
  161.9460  208.9870  155.3070 O   0  0  0  0  0  0  0  0  0  0  0  0
  162.3100  207.1940  149.5220 C   0  0  1  0  0  0  0  0  0  0  0  0
  161.9840  208.6870  149.4240 C   0  0  1  0  0  0  0  0  0  0  0  0
  160.5650  210.6860  153.1300 C   0  0  0  0  0  0  0  0  0  0  0  0
  161.7730  208.5860  153.9650 C   0  0  1  0  0  3  0  0  0  0  0  0
  159.9180  211.1320  151.9660 C   0  0  0  0  0  3  0  0  0  0  0  0
  160.5510  207.6790  153.7440 C   0  0  0  0  0  2  0  0  0  0  0  0
  163.3770  208.1780  149.0790 C   0  0  0  0  0  2  0  0  0  0  0  0
  161.8030  209.8130  153.0520 C   0  0  1  0  0  3  0  0  0  0  0  0
  160.8200  206.5030  151.5410 C   0  0  0  0  0  2  0  0  0  0  0  0
  160.1180  211.1570  154.3820 C   0  0  0  0  0  0  0  0  0  0  0  0
  160.6500  210.6640  155.5760 O   0  0  0  0  0  0  0  0  0  0  0  0
  160.7610  209.3390  155.7820 O   0  0  0  0  0  0  0  0  0  0  0  0
  161.0240  209.1350  148.3350 C   0  0  0  0  0  1  0  0  0  0  0  0
  158.8720  212.0540  152.0410 C   0  0  0  0  0  3  0  0  0  0  0  0
  160.9400  206.3830  153.0530 C   0  0  0  0  0  2  0  0  0  0  0  0
  158.4690  212.5510  153.2810 C   0  0  0  0  0  3  0  0  0  0  0  0
  162.4360  209.5590  151.6690 C   0  0  1  0  0  3  0  0  0  0  0  0
  161.9540  207.3500  150.9930 C   0  0  2  0  0  3  0  0  0  0  0  0
  161.5440  208.7460  150.8300 N   0  0  2  0  0  0  0  0  0  0  0  0
  159.0920  212.1060  154.4480 C   0  0  0  0  0  3  0  0  0  0  0  0
  161.7400  206.1170  148.5010 C   0  0  1  0  0  0  0  0  0  0  0  0
  162.0000  204.6940  149.1010 C   0  0  2  0  0  3  0  0  0  0  0  0
  161.0150  203.6110  148.7000 C   0  0  2  0  0  3  0  0  0  0  0  0
  160.9630  204.2180  150.1060 C   0  0  1  0  0  3  0  0  0  0  0  0
  161.5810  203.4040  151.0610 O   0  0  0  0  0  1  0  0  0  0  0  0
  161.7380  202.2720  148.6250 C   0  0  0  0  0  2  0  0  0  0  0  0
  160.8980  201.2600  147.8550 C   0  0  1  0  0  3  0  0  0  0  0  0
  160.5810  201.7810  146.4640 C   0  0  0  0  0  1  0  0  0  0  0  0
  161.5490  199.9520  147.7900 N   0  0  0  0  0  2  0  0  0  0  0  0
  161.5410  199.5220  146.5010 O   0  0  0  0  0  1  0  0  0  0  0  0
  159.7390  206.2200  146.8030 C   0  0  0  0  0  1  0  0  0  0  0  0
  160.2390  206.4720  148.2210 C   0  0  0  0  0  3  0  0  0  0  0  0
  159.2420  205.9420  149.2430 C   0  0  0  0  0  1  0  0  0  0  0  0
  162.4990  206.0700  147.1520 C   0  0  0  0  0  2  0  0  0  0  0  0
  163.2510  204.7860  146.8130 C   0  0  0  0  0  2  0  0  0  0  0  0
  163.0480  204.3840  145.3590 C   0  0  0  0  0  2  0  0  0  0  0  0
  161.5480  205.4830  143.6940 C   0  0  0  0  0  1  0  0  0  0  0  0
  161.6060  204.5910  144.9200 C   0  0  0  0  0  2  0  0  0  0  0  0
  162.8370  210.8860  151.0100 C   0  0  0  0  0  2  0  0  0  0  0  0
  162.0270  211.1340  149.7490 C   0  0  0  0  0  3  0  0  0  0  0  0
  160.9470  212.9020  148.5380 C   0  0  0  0  0  2  0  0  0  0  0  0
  162.2100  212.5400  147.7770 C   0  0  0  0  0  2  0  0  0  0  0  0
  161.1060  212.3190  149.9230 C   0  0  0  0  0  2  0  0  0  0  0  0
  162.9470  211.5020  148.6060 C   0  0  0  0  0  2  0  0  0  0  0  0
  1 13  1  0  0  0  0
  2 22  1  6  0  0  0
  2 19  1  0  0  0  0
  3 14  1  6  0  0  0
  3  2  1  0  0  0  0
  3 20  1  0  0  0  0
  4 11  1  0  0  0  0
  5  7  1  1  0  0  0
  5  1  1  0  0  0  0
  6 15  1  0  0  0  0
  6  4  2  0  0  0  0
  8  3  1  0  0  0  0
  8  2  1  0  0  0  0
  9  4  1  6  0  0  0
  9  5  1  0  0  0  0
 10 16  1  0  0  0  0
 11 21  2  0  0  0  0
 11 12  1  0  0  0  0
 12 13  1  0  0  0  0
 15 17  2  0  0  0  0
 16  7  1  0  0  0  0
 17 21  1  0  0  0  0
 18 40  1  6  0  0  0
 18  9  1  0  0  0  0
 19 10  1  6  0  0  0
 20 19  1  0  0  0  0
 20 18  1  0  0  0  0
 22 23  1  0  0  0  0
 23 25  1  0  0  0  0
 24 23  1  0  0  0  0
 24 25  1  0  0  0  0
 25 26  1  0  0  0  0
 27 24  1  0  0  0  0
 28 27  1  0  0  0  0
 29 28  1  0  0  0  0
 30 28  1  0  0  0  0
 31 30  1  0  0  0  0
 32 33  1  0  0  0  0
 33 22  1  0  0  0  0
 33 34  1  0  0  0  0
 35 22  1  0  0  0  0
 36 35  1  0  0  0  0
 37 36  1  0  0  0  0
 38 39  1  0  0  0  0
 39 37  1  0  0  0  0
 41 44  1  0  0  0  0
 41 40  1  0  0  0  0
 42 44  1  0  0  0  0
 43 42  1  0  0  0  0
 43 45  1  0  0  0  0
 45 41  1  0  0  0  0
M  END
>  <MODEL>
1

>  <REMARK>
 VINA RESULT:      -2.5      0.000      0.000
  Name = 
  12 active torsions:
  status: ('A' for Active; 'I' for Inactive)
    1  A    between atoms: C_2  and  C_3
    2  A    between atoms: C_3  and  C_16
    3  A    between atoms: C_3  and  C_30
    4  A    between atoms: C_3  and  C_44
    5  A    between atoms: N_4  and  C_12
    6  A    between atoms: C_6  and  C_24
    7  A    between atoms: C_12  and  C_33
    8  A    between atoms: C_19  and  C_33
    9  A    between atoms: C_21  and  C_37
   10  A    between atoms: C_24  and  C_35
   11  A    between atoms: C_32  and  C_37
   12  A    between atoms: C_32  and  C_44
                            x       y       z     vdW  Elec       q    Type
                         _______ _______ _______ _____ _____    ______ ____

>  <TORSDO>
F 12

$$$$
=
 OpenBabel11072414473D

 45 51  0  0  1  0  0  0  0  0999 V2000
  161.6090  209.9630  156.3270 O   0  0  0  0  0  0  0  0  0  0  0  0
  162.1390  206.3850  151.4550 C   0  0  1  0  0  0  0  0  0  0  0  0
  161.8300  207.7640  150.8660 C   0  0  1  0  0  0  0  0  0  0  0  0
  160.3140  210.8590  153.6700 C   0  0  0  0  0  0  0  0  0  0  0  0
  161.4740  209.1460  155.1830 C   0  0  1  0  0  3  0  0  0  0  0  0
  159.7080  210.9000  152.4040 C   0  0  0  0  0  3  0  0  0  0  0  0
  160.2510  208.2150  155.2290 C   0  0  0  0  0  2  0  0  0  0  0  0
  163.2280  207.1730  150.7510 C   0  0  0  0  0  2  0  0  0  0  0  0
  161.5450  210.0100  153.9220 C   0  0  1  0  0  3  0  0  0  0  0  0
  160.5790  206.3870  153.5380 C   0  0  0  0  0  2  0  0  0  0  0  0
  159.8320  211.7110  154.6860 C   0  0  0  0  0  0  0  0  0  0  0  0
  160.3210  211.6340  155.9930 O   0  0  0  0  0  0  0  0  0  0  0  0
  160.4130  210.4480  156.6220 O   0  0  0  0  0  0  0  0  0  0  0  0
  160.9090  207.8320  149.6590 C   0  0  0  0  0  1  0  0  0  0  0  0
  158.6680  211.7950  152.1400 C   0  0  0  0  0  3  0  0  0  0  0  0
  160.6500  206.7650  155.0100 C   0  0  0  0  0  2  0  0  0  0  0  0
  158.2310  212.6680  153.1370 C   0  0  0  0  0  3  0  0  0  0  0  0
  162.2190  209.3200  152.7190 C   0  0  1  0  0  3  0  0  0  0  0  0
  161.7380  207.0110  152.7820 C   0  0  2  0  0  3  0  0  0  0  0  0
  161.3460  208.2770  152.1600 N   0  0  2  0  0  0  0  0  0  0  0  0
  158.8130  212.6280  154.4060 C   0  0  0  0  0  3  0  0  0  0  0  0
  161.5910  205.0340  150.8210 C   0  0  1  0  0  0  0  0  0  0  0  0
  162.2270  204.8730  149.3990 C   0  0  2  0  0  3  0  0  0  0  0  0
  161.5050  205.5760  148.2620 C   0  0  2  0  0  3  0  0  0  0  0  0
  161.4080  204.0540  148.4140 C   0  0  1  0  0  3  0  0  0  0  0  0
  162.2680  203.3760  147.5450 O   0  0  0  0  0  1  0  0  0  0  0  0
  162.5220  206.0350  147.2250 C   0  0  0  0  0  2  0  0  0  0  0  0
  161.8210  206.3990  145.9220 C   0  0  1  0  0  3  0  0  0  0  0  0
  162.2590  205.4680  144.8050 C   0  0  0  0  0  1  0  0  0  0  0  0
  160.3650  206.3940  146.0690 N   0  0  0  0  0  2  0  0  0  0  0  0
  159.8250  205.6780  145.0490 O   0  0  0  0  0  1  0  0  0  0  0  0
  160.7490  203.4710  152.7560 C   0  0  0  0  0  1  0  0  0  0  0  0
  161.8920  203.8740  151.8330 C   0  0  0  0  0  3  0  0  0  0  0  0
  162.5580  202.6430  151.2340 C   0  0  0  0  0  1  0  0  0  0  0  0
  160.0720  205.0520  150.5240 C   0  0  0  0  0  2  0  0  0  0  0  0
  159.3120  203.7360  150.6670 C   0  0  0  0  0  2  0  0  0  0  0  0
  159.5440  202.8210  149.4720 C   0  0  0  0  0  2  0  0  0  0  0  0
  160.8210  200.7170  149.0610 C   0  0  0  0  0  1  0  0  0  0  0  0
  159.7510  201.3790  149.9090 C   0  0  0  0  0  2  0  0  0  0  0  0
  162.6530  210.3610  151.6780 C   0  0  0  0  0  2  0  0  0  0  0  0
  161.6200  210.4870  150.5710 C   0  0  0  0  0  3  0  0  0  0  0  0
  160.7610  212.0730  148.9870 C   0  0  0  0  0  2  0  0  0  0  0  0
  161.6140  211.0810  148.2160 C   0  0  0  0  0  2  0  0  0  0  0  0
  161.1400  211.9150  150.4420 C   0  0  0  0  0  2  0  0  0  0  0  0
  162.2460  210.1500  149.2360 C   0  0  0  0  0  2  0  0  0  0  0  0
  1 13  1  0  0  0  0
  2 22  1  6  0  0  0
  2 19  1  0  0  0  0
  3 14  1  6  0  0  0
  3  2  1  0  0  0  0
  3 20  1  0  0  0  0
  4 11  1  0  0  0  0
  5  7  1  1  0  0  0
  5  1  1  0  0  0  0
  6  4  2  0  0  0  0
  8  3  1  0  0  0  0
  8  2  1  0  0  0  0
  9  4  1  6  0  0  0
  9  5  1  0  0  0  0
 10 16  1  0  0  0  0
 11 12  1  0  0  0  0
 12 13  1  0  0  0  0
 15  6  1  0  0  0  0
 15 17  2  0  0  0  0
 16  7  1  0  0  0  0
 17 21  1  0  0  0  0
 18 40  1  6  0  0  0
 18  9  1  0  0  0  0
 19 10  1  6  0  0  0
 20 18  1  0  0  0  0
 20 19  1  0  0  0  0
 21 11  2  0  0  0  0
 22 33  1  0  0  0  0
 23 22  1  0  0  0  0
 24 25  1  0  0  0  0
 24 23  1  0  0  0  0
 25 23  1  0  0  0  0
 26 25  1  0  0  0  0
 27 24  1  0  0  0  0
 28 30  1  0  0  0  0
 28 27  1  0  0  0  0
 29 28  1  0  0  0  0
 31 30  1  0  0  0  0
 33 32  1  0  0  0  0
 34 33  1  0  0  0  0
 35 36  1  0  0  0  0
 35 22  1  0  0  0  0
 37 39  1  0  0  0  0
 37 36  1  0  0  0  0
 38 39  1  0  0  0  0
 41 40  1  0  0  0  0
 42 44  1  0  0  0  0
 43 42  1  0  0  0  0
 43 45  1  0  0  0  0
 44 41  1  0  0  0  0
 45 41  1  0  0  0  0
M  END
>  <MODEL>
2

>  <REMARK>
 VINA RESULT:      -1.8      1.849      3.326
  Name = 
  12 active torsions:
  status: ('A' for Active; 'I' for Inactive)
    1  A    between atoms: C_2  and  C_3
    2  A    between atoms: C_3  and  C_16
    3  A    between atoms: C_3  and  C_30
    4  A    between atoms: C_3  and  C_44
    5  A    between atoms: N_4  and  C_12
    6  A    between atoms: C_6  and  C_24
    7  A    between atoms: C_12  and  C_33
    8  A    between atoms: C_19  and  C_33
    9  A    between atoms: C_21  and  C_37
   10  A    between atoms: C_24  and  C_35
   11  A    between atoms: C_32  and  C_37
   12  A    between atoms: C_32  and  C_44
                            x       y       z     vdW  Elec       q    Type
                         _______ _______ _______ _____ _____    ______ ____

>  <TORSDO>
F 12

$$$$
=
 OpenBabel11072414473D

 45 51  0  0  1  0  0  0  0  0999 V2000
  161.1760  209.9850  156.8540 O   0  0  0  0  0  0  0  0  0  0  0  0
  161.9890  206.9990  151.6350 C   0  0  1  0  0  0  0  0  0  0  0  0
  161.5640  208.4020  151.1930 C   0  0  1  0  0  0  0  0  0  0  0  0
  159.8020  211.0450  154.3000 C   0  0  0  0  0  0  0  0  0  0  0  0
  161.1070  209.2850  155.6290 C   0  0  1  0  0  3  0  0  0  0  0  0
  159.1910  211.1690  153.0420 C   0  0  0  0  0  3  0  0  0  0  0  0
  159.9660  208.2550  155.5700 C   0  0  0  0  0  2  0  0  0  0  0  0
  163.0060  207.9460  151.0250 C   0  0  0  0  0  2  0  0  0  0  0  0
  161.1000  210.2800  154.4670 C   0  0  1  0  0  3  0  0  0  0  0  0
  160.4410  206.6500  153.6980 C   0  0  0  0  0  2  0  0  0  0  0  0
  159.2530  211.7410  155.3970 C   0  0  0  0  0  0  0  0  0  0  0  0
  159.7510  211.5680  156.6910 O   0  0  0  0  0  0  0  0  0  0  0  0
  159.9440  210.3340  157.1920 O   0  0  0  0  0  0  0  0  0  0  0  0
  160.6370  208.5200  149.9950 C   0  0  0  0  0  1  0  0  0  0  0  0
  158.0790  211.9970  152.8680 C   0  0  0  0  0  3  0  0  0  0  0  0
  160.4840  206.8750  155.2010 C   0  0  0  0  0  2  0  0  0  0  0  0
  157.5730  212.7200  153.9490 C   0  0  0  0  0  3  0  0  0  0  0  0
  161.8270  209.7800  153.2020 C   0  0  1  0  0  3  0  0  0  0  0  0
  161.5410  207.4460  153.0190 C   0  0  2  0  0  3  0  0  0  0  0  0
  161.0420  208.7330  152.5320 N   0  0  2  0  0  0  0  0  0  0  0  0
  158.1600  212.5940  155.2090 C   0  0  0  0  0  3  0  0  0  0  0  0
  161.5550  205.6820  150.8590 C   0  0  1  0  0  0  0  0  0  0  0  0
  161.4540  206.0280  149.3350 C   0  0  2  0  0  3  0  0  0  0  0  0
  161.9910  204.9800  148.3750 C   0  0  2  0  0  3  0  0  0  0  0  0
  162.7840  206.2650  148.6370 C   0  0  1  0  0  3  0  0  0  0  0  0
  162.6150  207.2120  147.6220 O   0  0  0  0  0  1  0  0  0  0  0  0
  161.1710  205.0030  147.0910 C   0  0  0  0  0  2  0  0  0  0  0  0
  161.8840  204.2200  145.9960 C   0  0  1  0  0  3  0  0  0  0  0  0
  161.2190  202.8700  145.7900 C   0  0  0  0  0  1  0  0  0  0  0  0
  161.9440  204.9710  144.7420 N   0  0  0  0  0  2  0  0  0  0  0  0
  160.6880  205.0820  144.2370 O   0  0  0  0  0  1  0  0  0  0  0  0
  163.7990  204.9790  152.0290 C   0  0  0  0  0  1  0  0  0  0  0  0
  162.5740  204.5490  151.2320 C   0  0  0  0  0  3  0  0  0  0  0  0
  161.9590  203.2910  151.8290 C   0  0  0  0  0  1  0  0  0  0  0  0
  160.1250  205.1950  151.2000 C   0  0  0  0  0  2  0  0  0  0  0  0
  159.4740  204.2000  150.2450 C   0  0  0  0  0  2  0  0  0  0  0  0
  160.0400  202.7970  150.4240 C   0  0  0  0  0  2  0  0  0  0  0  0
  161.1020  200.9160  149.1750 C   0  0  0  0  0  1  0  0  0  0  0  0
  160.0900  202.0450  149.1030 C   0  0  0  0  0  2  0  0  0  0  0  0
  162.1680  210.9580  152.2790 C   0  0  0  0  0  2  0  0  0  0  0  0
  161.3110  210.9340  151.0250 C   0  0  0  0  0  3  0  0  0  0  0  0
  160.3210  212.4060  149.4090 C   0  0  0  0  0  2  0  0  0  0  0  0
  161.5010  211.7260  148.7380 C   0  0  0  0  0  2  0  0  0  0  0  0
  160.5090  212.2080  150.8960 C   0  0  0  0  0  2  0  0  0  0  0  0
  162.1920  210.8850  149.7960 C   0  0  0  0  0  2  0  0  0  0  0  0
  1 13  1  0  0  0  0
  2 22  1  6  0  0  0
  2 19  1  0  0  0  0
  3 14  1  6  0  0  0
  3  2  1  0  0  0  0
  3 20  1  0  0  0  0
  4 11  1  0  0  0  0
  5  7  1  1  0  0  0
  5  1  1  0  0  0  0
  6  4  2  0  0  0  0
  8  3  1  0  0  0  0
  8  2  1  0  0  0  0
  9  4  1  6  0  0  0
  9  5  1  0  0  0  0
 10 16  1  0  0  0  0
 11 12  1  0  0  0  0
 12 13  1  0  0  0  0
 15  6  1  0  0  0  0
 15 17  2  0  0  0  0
 16  7  1  0  0  0  0
 17 21  1  0  0  0  0
 18 40  1  6  0  0  0
 18  9  1  0  0  0  0
 19 10  1  6  0  0  0
 20 19  1  0  0  0  0
 20 18  1  0  0  0  0
 21 11  2  0  0  0  0
 22 35  1  0  0  0  0
 22 33  1  0  0  0  0
 23 22  1  0  0  0  0
 24 25  1  0  0  0  0
 24 23  1  0  0  0  0
 25 23  1  0  0  0  0
 26 25  1  0  0  0  0
 27 24  1  0  0  0  0
 28 27  1  0  0  0  0
 29 28  1  0  0  0  0
 30 28  1  0  0  0  0
 31 30  1  0  0  0  0
 33 34  1  0  0  0  0
 33 32  1  0  0  0  0
 36 37  1  0  0  0  0
 36 35  1  0  0  0  0
 39 38  1  0  0  0  0
 39 37  1  0  0  0  0
 41 40  1  0  0  0  0
 42 44  1  0  0  0  0
 43 42  1  0  0  0  0
 43 45  1  0  0  0  0
 44 41  1  0  0  0  0
 45 41  1  0  0  0  0
M  END
>  <MODEL>
3

>  <REMARK>
 VINA RESULT:      -1.2      2.033      3.235
  Name = 
  12 active torsions:
  status: ('A' for Active; 'I' for Inactive)
    1  A    between atoms: C_2  and  C_3
    2  A    between atoms: C_3  and  C_16
    3  A    between atoms: C_3  and  C_30
    4  A    between atoms: C_3  and  C_44
    5  A    between atoms: N_4  and  C_12
    6  A    between atoms: C_6  and  C_24
    7  A    between atoms: C_12  and  C_33
    8  A    between atoms: C_19  and  C_33
    9  A    between atoms: C_21  and  C_37
   10  A    between atoms: C_24  and  C_35
   11  A    between atoms: C_32  and  C_37
   12  A    between atoms: C_32  and  C_44
                            x       y       z     vdW  Elec       q    Type
                         _______ _______ _______ _____ _____    ______ ____

>  <TORSDO>
F 12

$$$$
=
 OpenBabel11072414473D

 45 51  0  0  1  0  0  0  0  0999 V2000
  163.0180  210.3690  149.3070 O   0  0  0  0  0  0  0  0  0  0  0  0
  160.9270  208.9600  154.8260 C   0  0  1  0  0  0  0  0  0  0  0  0
  160.9700  207.6150  154.0950 C   0  0  1  0  0  0  0  0  0  0  0  0
  161.4480  207.7360  149.6800 C   0  0  0  0  0  0  0  0  0  0  0  0
  162.3030  210.0180  150.4730 C   0  0  1  0  0  3  0  0  0  0  0  0
  160.5750  206.7300  150.1250 C   0  0  0  0  0  3  0  0  0  0  0  0
  160.8930  210.6300  150.5410 C   0  0  0  0  0  2  0  0  0  0  0  0
  161.9880  207.9350  155.1810 C   0  0  0  0  0  2  0  0  0  0  0  0
  162.3250  208.4990  150.6530 C   0  0  1  0  0  3  0  0  0  0  0  0
  160.0920  210.5220  152.9180 C   0  0  0  0  0  2  0  0  0  0  0  0
  161.5870  207.9540  148.2930 C   0  0  0  0  0  0  0  0  0  0  0  0
  162.3530  209.0120  147.7970 O   0  0  0  0  0  0  0  0  0  0  0  0
  162.1930  210.2580  148.2770 O   0  0  0  0  0  0  0  0  0  0  0  0
  159.8410  206.6310  154.3490 C   0  0  0  0  0  1  0  0  0  0  0  0
  159.8820  205.9320  149.2120 C   0  0  0  0  0  3  0  0  0  0  0  0
  160.6870  211.4040  151.8320 C   0  0  0  0  0  2  0  0  0  0  0  0
  160.0640  206.1220  147.8410 C   0  0  0  0  0  3  0  0  0  0  0  0
  162.3640  208.0370  152.1240 C   0  0  1  0  0  3  0  0  0  0  0  0
  161.1450  209.5640  153.4470 C   0  0  2  0  0  3  0  0  0  0  0  0
  161.0660  208.2650  152.7760 N   0  0  2  0  0  0  0  0  0  0  0  0
  160.9160  207.1290  147.3840 C   0  0  0  0  0  3  0  0  0  0  0  0
  159.7940  209.3350  155.8750 C   0  0  1  0  0  0  0  0  0  0  0  0
  158.6710  210.1200  155.1160 C   0  0  2  0  0  3  0  0  0  0  0  0
  158.4370  211.5520  155.5640 C   0  0  2  0  0  3  0  0  0  0  0  0
  157.4400  210.4520  155.9460 C   0  0  1  0  0  3  0  0  0  0  0  0
  156.3100  210.4480  155.1230 O   0  0  0  0  0  1  0  0  0  0  0  0
  158.0100  212.3930  154.3680 C   0  0  0  0  0  2  0  0  0  0  0  0
  157.6850  213.8140  154.8110 C   0  0  1  0  0  3  0  0  0  0  0  0
  156.1850  213.9910  154.9710 C   0  0  0  0  0  1  0  0  0  0  0  0
  158.3900  214.1750  156.0400 N   0  0  0  0  0  2  0  0  0  0  0  0
  157.4900  214.2570  157.0540 O   0  0  0  0  0  1  0  0  0  0  0  0
  158.4390  207.0880  155.7670 C   0  0  0  0  0  1  0  0  0  0  0  0
  159.3380  208.0110  156.5810 C   0  0  0  0  0  3  0  0  0  0  0  0
  160.4470  207.2200  157.2600 C   0  0  0  0  0  1  0  0  0  0  0  0
  160.2510  210.3430  156.9590 C   0  0  0  0  0  2  0  0  0  0  0  0
  161.0980  211.5280  156.5040 C   0  0  0  0  0  2  0  0  0  0  0  0
  162.4180  211.5980  157.2600 C   0  0  0  0  0  2  0  0  0  0  0  0
  164.8650  211.6710  156.7780 C   0  0  0  0  0  1  0  0  0  0  0  0
  163.5520  210.9800  156.4590 C   0  0  0  0  0  2  0  0  0  0  0  0
  162.8330  206.5780  152.2160 C   0  0  0  0  0  2  0  0  0  0  0  0
  161.7110  205.6210  151.8500 C   0  0  0  0  0  3  0  0  0  0  0  0
  161.3430  203.3700  151.1050 C   0  0  0  0  0  2  0  0  0  0  0  0
  160.9510  203.4300  152.5700 C   0  0  0  0  0  2  0  0  0  0  0  0
  162.1820  204.5990  150.8400 C   0  0  0  0  0  2  0  0  0  0  0  0
  161.2930  204.8230  153.0660 C   0  0  0  0  0  2  0  0  0  0  0  0
  1  5  1  0  0  0  0
  2  8  1  0  0  0  0
  2 22  1  1  0  0  0
  3 14  1  1  0  0  0
  3  2  1  0  0  0  0
  3  8  1  0  0  0  0
  4  6  1  0  0  0  0
  5  7  1  6  0  0  0
  5  9  1  0  0  0  0
  7 16  1  0  0  0  0
  9  4  1  1  0  0  0
  9 18  1  0  0  0  0
 11  4  2  0  0  0  0
 12 13  1  0  0  0  0
 12 11  1  0  0  0  0
 13  1  1  0  0  0  0
 15  6  2  0  0  0  0
 16 10  1  0  0  0  0
 17 15  1  0  0  0  0
 18 40  1  6  0  0  0
 18 20  1  0  0  0  0
 19 10  1  6  0  0  0
 19  2  1  0  0  0  0
 20 19  1  0  0  0  0
 20  3  1  0  0  0  0
 21 17  2  0  0  0  0
 21 11  1  0  0  0  0
 22 33  1  0  0  0  0
 22 35  1  0  0  0  0
 23 24  1  0  0  0  0
 23 22  1  0  0  0  0
 23 25  1  0  0  0  0
 24 25  1  0  0  0  0
 26 25  1  0  0  0  0
 27 28  1  0  0  0  0
 27 24  1  0  0  0  0
 28 29  1  0  0  0  0
 28 30  1  0  0  0  0
 30 31  1  0  0  0  0
 32 33  1  0  0  0  0
 33 34  1  0  0  0  0
 36 35  1  0  0  0  0
 36 37  1  0  0  0  0
 39 38  1  0  0  0  0
 39 37  1  0  0  0  0
 41 40  1  0  0  0  0
 41 45  1  0  0  0  0
 42 43  1  0  0  0  0
 43 45  1  0  0  0  0
 44 42  1  0  0  0  0
 44 41  1  0  0  0  0
M  END
>  <MODEL>
4

>  <REMARK>
 VINA RESULT:       0.2      3.302      9.241
  Name = 
  12 active torsions:
  status: ('A' for Active; 'I' for Inactive)
    1  A    between atoms: C_2  and  C_3
    2  A    between atoms: C_3  and  C_16
    3  A    between atoms: C_3  and  C_30
    4  A    between atoms: C_3  and  C_44
    5  A    between atoms: N_4  and  C_12
    6  A    between atoms: C_6  and  C_24
    7  A    between atoms: C_12  and  C_33
    8  A    between atoms: C_19  and  C_33
    9  A    between atoms: C_21  and  C_37
   10  A    between atoms: C_24  and  C_35
   11  A    between atoms: C_32  and  C_37
   12  A    between atoms: C_32  and  C_44
                            x       y       z     vdW  Elec       q    Type
                         _______ _______ _______ _____ _____    ______ ____

>  <TORSDO>
F 12

$$$$
