=
 OpenBabel11072411073D

 46 49  0  0  1  0  0  0  0  0999 V2000
  162.6560  208.4950  151.3090 C   0  0  0  0  0  2  0  0  0  0  0  0
  161.2000  208.0440  151.1620 C   0  0  2  0  0  3  0  0  0  0  0  0
  161.4630  210.6640  152.0920 C   0  0  2  0  0  3  0  0  0  0  0  0
  162.7960  209.9660  151.7610 C   0  0  0  0  0  2  0  0  0  0  0  0
  160.4090  208.4580  152.3650 C   0  0  0  0  0  3  0  0  0  0  0  0
  160.5360  209.7070  152.8150 C   0  0  0  0  0  0  0  0  0  0  0  0
  161.1390  206.6040  150.9850 N   0  0  0  0  0  2  0  0  0  0  0  0
  162.5720  206.8560  148.7810 O   0  0  0  0  0  0  0  0  0  0  0  0
  161.2730  206.2910  149.2870 S   0  0  0  0  0  0  0  0  0  0  0  0
  160.1390  206.9570  148.5600 O   0  0  0  0  0  0  0  0  0  0  0  0
  161.2240  204.5520  148.9850 C   0  0  0  0  0  0  0  0  0  0  0  0
  161.4560  204.0160  147.7020 C   0  0  0  0  0  0  0  0  0  0  0  0
  160.4910  201.4950  150.8650 F   0  0  0  0  0  0  0  0  0  0  0  0
  160.9570  200.4480  148.3460 F   0  0  0  0  0  0  0  0  0  0  0  0
  161.0430  201.7840  148.5590 C   0  0  0  0  0  0  0  0  0  0  0  0
  160.8090  202.3130  149.8330 C   0  0  0  0  0  0  0  0  0  0  0  0
  160.8960  203.6910  150.0410 C   0  0  0  0  0  3  0  0  0  0  0  0
  161.7910  204.8820  146.5380 C   0  0  0  0  0  1  0  0  0  0  0  0
  161.3650  202.6350  147.5000 C   0  0  0  0  0  3  0  0  0  0  0  0
  160.8510  211.2570  150.8050 C   0  0  1  0  0  3  0  0  0  0  0  0
  160.2910  212.6770  150.9180 C   0  0  0  0  0  2  0  0  0  0  0  0
  157.6510  213.7170  151.1090 O   0  0  0  0  0  0  0  0  0  0  0  0
  159.5500  212.8600  152.1550 N   0  0  0  0  0  2  0  0  0  0  0  0
  158.2480  213.4360  152.1840 C   0  0  0  0  0  0  0  0  0  0  0  0
  156.2410  213.9210  153.3340 O   0  0  0  0  0  1  0  0  0  0  0  0
  157.6140  213.7380  153.5020 C   0  0  1  0  0  3  0  0  0  0  0  0
  157.8740  212.6230  154.5030 C   0  0  0  0  0  2  0  0  0  0  0  0
  156.9850  211.5740  154.2770 O   0  0  0  0  0  1  0  0  0  0  0  0
  161.6970  211.0460  149.5380 C   0  0  0  0  0  2  0  0  0  0  0  0
  163.1390  212.4390  148.2430 O   0  0  0  0  0  1  0  0  0  0  0  0
  161.8150  212.2820  148.6490 C   0  0  1  0  0  3  0  0  0  0  0  0
  160.9160  212.1660  147.4320 C   0  0  0  0  0  2  0  0  0  0  0  0
  160.9850  213.4330  146.5990 C   0  0  0  0  0  2  0  0  0  0  0  0
  162.6300  212.7960  143.1890 N   0  0  0  0  0  0  0  0  0  0  0  0
  163.4180  213.1150  144.2450 O   0  0  0  0  0  0  0  0  0  0  0  0
  160.9020  213.1090  145.1840 N   0  0  0  0  0  2  0  0  0  0  0  0
  162.0680  213.0250  144.3740 C   0  0  0  0  0  0  0  0  0  0  0  0
  159.8260  210.1020  153.9520 O   0  0  0  0  0  0  0  0  0  0  0  0
  160.4590  207.9450  156.9400 C   0  0  1  0  0  3  0  0  0  0  0  0
  161.8550  207.9460  156.7810 O   0  0  0  0  0  0  0  0  0  0  0  0
  159.7860  208.3850  155.6390 C   0  0  0  0  0  2  0  0  0  0  0  0
  161.7850  209.8820  155.3630 C   0  0  1  0  0  3  0  0  0  0  0  0
  160.0400  206.6720  157.2610 F   0  0  0  0  0  0  0  0  0  0  0  0
  162.1940  211.2000  155.2790 F   0  0  0  0  0  0  0  0  0  0  0  0
  162.2490  209.2920  156.6950 C   0  0  0  0  0  2  0  0  0  0  0  0
  160.2600  209.7890  155.2710 C   0  0  1  0  0  3  0  0  0  0  0  0
  1  4  1  0  0  0  0
  2  7  1  1  0  0  0
  2  1  1  0  0  0  0
  2  5  1  0  0  0  0
  3 20  1  6  0  0  0
  3  6  1  0  0  0  0
  4  3  1  0  0  0  0
  5  6  2  0  0  0  0
  6 38  1  0  0  0  0
  8  9  2  0  0  0  0
  9  7  1  0  0  0  0
 10  9  2  0  0  0  0
 11  9  1  0  0  0  0
 11 17  1  0  0  0  0
 12 11  2  0  0  0  0
 14 15  1  0  0  0  0
 15 16  1  0  0  0  0
 16 17  2  0  0  0  0
 16 13  1  0  0  0  0
 18 12  1  0  0  0  0
 19 12  1  0  0  0  0
 19 15  2  0  0  0  0
 20 29  1  6  0  0  0
 20 21  1  0  0  0  0
 21 23  1  0  0  0  0
 22 24  2  0  0  0  0
 23 24  1  0  0  0  0
 24 26  1  0  0  0  0
 26 25  1  6  0  0  0
 26 27  1  0  0  0  0
 28 27  1  0  0  0  0
 31 30  1  6  0  0  0
 31 29  1  0  0  0  0
 32 31  1  0  0  0  0
 33 32  1  0  0  0  0
 34 35  1  0  0  0  0
 34 37  2  0  0  0  0
 35 37  1  0  0  0  0
 36 33  1  0  0  0  0
 37 36  1  0  0  0  0
 39 43  1  6  0  0  0
 40 39  1  0  0  0  0
 41 39  1  0  0  0  0
 42 44  1  1  0  0  0
 42 45  1  0  0  0  0
 45 40  1  0  0  0  0
 46 38  1  6  0  0  0
 46 42  1  0  0  0  0
 46 41  1  0  0  0  0
M  END
>  <MODEL>
1

>  <REMARK>
 VINA RESULT:      -7.2      0.000      0.000
  Name = 
  15 active torsions:
  status: ('A' for Active; 'I' for Inactive)
    1  A    between atoms: C_2  and  N_3
    2  A    between atoms: N_3  and  S_24
    3  A    between atoms: C_4  and  C_10
    4  A    between atoms: C_7  and  C_20
    5  A    between atoms: C_8  and  S_24
    6  A    between atoms: C_10  and  C_12
    7  A    between atoms: C_10  and  C_34
    8  A    between atoms: C_12  and  N_30
    9  A    between atoms: N_15  and  C_28
   10  A    between atoms: C_20  and  C_43
   11  A    between atoms: O_25  and  C_37
   12  A    between atoms: O_25  and  C_45
   13  A    between atoms: C_28  and  C_36
   14  A    between atoms: C_34  and  C_39
   15  A    between atoms: C_36  and  C_39
                            x       y       z     vdW  Elec       q    Type
                         _______ _______ _______ _____ _____    ______ ____

>  <TORSDO>
F 15

$$$$
=
 OpenBabel11072411073D

 46 49  0  0  1  0  0  0  0  0999 V2000
  160.3390  208.3230  152.3380 C   0  0  0  0  0  2  0  0  0  0  0  0
  161.7110  207.9870  152.9310 C   0  0  2  0  0  3  0  0  0  0  0  0
  161.3130  206.9220  150.3800 C   0  0  2  0  0  3  0  0  0  0  0  0
  160.1490  207.7870  150.9010 C   0  0  0  0  0  2  0  0  0  0  0  0
  162.0310  206.5420  152.7020 C   0  0  0  0  0  3  0  0  0  0  0  0
  161.8380  206.0290  151.4860 C   0  0  0  0  0  0  0  0  0  0  0  0
  161.7290  208.2940  154.3500 N   0  0  0  0  0  2  0  0  0  0  0  0
  162.5490  210.5680  153.2880 O   0  0  0  0  0  0  0  0  0  0  0  0
  161.8540  210.0150  154.5010 S   0  0  0  0  0  0  0  0  0  0  0  0
  162.6630  210.3560  155.7210 O   0  0  0  0  0  0  0  0  0  0  0  0
  160.2460  210.7290  154.6440 C   0  0  0  0  0  0  0  0  0  0  0  0
  159.3990  210.4390  155.7320 C   0  0  0  0  0  0  0  0  0  0  0  0
  158.0740  212.9270  152.6760 F   0  0  0  0  0  0  0  0  0  0  0  0
  156.4210  212.3600  154.8220 F   0  0  0  0  0  0  0  0  0  0  0  0
  157.6680  211.8320  154.7590 C   0  0  0  0  0  0  0  0  0  0  0  0
  158.5040  212.1200  153.6760 C   0  0  0  0  0  0  0  0  0  0  0  0
  159.7850  211.5670  153.6190 C   0  0  0  0  0  3  0  0  0  0  0  0
  159.8270  209.5420  156.8420 C   0  0  0  0  0  1  0  0  0  0  0  0
  158.1170  210.9940  155.7820 C   0  0  0  0  0  3  0  0  0  0  0  0
  162.3960  207.8270  149.7570 C   0  0  1  0  0  3  0  0  0  0  0  0
  162.8510  207.4570  148.3420 C   0  0  0  0  0  2  0  0  0  0  0  0
  163.1190  205.3090  146.5000 O   0  0  0  0  0  0  0  0  0  0  0  0
  161.7650  206.8760  147.5700 N   0  0  0  0  0  2  0  0  0  0  0  0
  161.9790  205.8330  146.6230 C   0  0  0  0  0  0  0  0  0  0  0  0
  160.0880  206.5050  145.3740 O   0  0  0  0  0  1  0  0  0  0  0  0
  160.8460  205.3960  145.7550 C   0  0  1  0  0  3  0  0  0  0  0  0
  161.3500  204.6610  144.5230 C   0  0  0  0  0  2  0  0  0  0  0  0
  161.5140  205.5630  143.4730 O   0  0  0  0  0  1  0  0  0  0  0  0
  162.1480  209.3350  149.9300 C   0  0  0  0  0  2  0  0  0  0  0  0
  161.0760  210.1820  147.9730 O   0  0  0  0  0  1  0  0  0  0  0  0
  162.2960  210.1480  148.6460 C   0  0  1  0  0  3  0  0  0  0  0  0
  162.7560  211.5620  148.9450 C   0  0  0  0  0  2  0  0  0  0  0  0
  162.3810  212.4940  147.8070 C   0  0  0  0  0  2  0  0  0  0  0  0
  160.0920  214.3870  150.2400 N   0  0  0  0  0  0  0  0  0  0  0  0
  160.1240  213.0330  150.2920 O   0  0  0  0  0  0  0  0  0  0  0  0
  161.8230  213.7300  148.3330 N   0  0  0  0  0  2  0  0  0  0  0  0
  160.8770  213.7220  149.3960 C   0  0  0  0  0  0  0  0  0  0  0  0
  162.1060  204.6760  151.2630 O   0  0  0  0  0  0  0  0  0  0  0  0
  160.7150  202.5480  148.5210 C   0  0  1  0  0  3  0  0  0  0  0  0
  160.9670  201.3360  149.1850 O   0  0  0  0  0  0  0  0  0  0  0  0
  161.5430  203.6690  149.1490 C   0  0  0  0  0  2  0  0  0  0  0  0
  161.1780  202.4360  151.3090 C   0  0  1  0  0  3  0  0  0  0  0  0
  161.0590  202.4180  147.1920 F   0  0  0  0  0  0  0  0  0  0  0  0
  160.6080  202.5230  152.5640 F   0  0  0  0  0  0  0  0  0  0  0  0
  160.3830  201.4460  150.4580 C   0  0  0  0  0  2  0  0  0  0  0  0
  161.1770  203.8070  150.6260 C   0  0  1  0  0  3  0  0  0  0  0  0
  1  2  1  0  0  0  0
  2  7  1  1  0  0  0
  3 20  1  1  0  0  0
  3  4  1  0  0  0  0
  3  6  1  0  0  0  0
  4  1  1  0  0  0  0
  5  2  1  0  0  0  0
  6  5  2  0  0  0  0
  7  9  1  0  0  0  0
  8  9  2  0  0  0  0
  9 11  1  0  0  0  0
  9 10  2  0  0  0  0
 11 12  1  0  0  0  0
 12 19  2  0  0  0  0
 12 18  1  0  0  0  0
 13 16  1  0  0  0  0
 15 14  1  0  0  0  0
 15 19  1  0  0  0  0
 16 15  2  0  0  0  0
 17 16  1  0  0  0  0
 17 11  2  0  0  0  0
 20 21  1  6  0  0  0
 20 29  1  0  0  0  0
 22 24  2  0  0  0  0
 23 21  1  0  0  0  0
 24 23  1  0  0  0  0
 26 25  1  6  0  0  0
 26 24  1  0  0  0  0
 27 26  1  0  0  0  0
 28 27  1  0  0  0  0
 31 30  1  1  0  0  0
 31 32  1  0  0  0  0
 31 29  1  0  0  0  0
 33 36  1  0  0  0  0
 33 32  1  0  0  0  0
 34 35  1  0  0  0  0
 36 37  1  0  0  0  0
 37 34  2  0  0  0  0
 37 35  1  0  0  0  0
 38  6  1  0  0  0  0
 39 43  1  6  0  0  0
 39 41  1  0  0  0  0
 39 40  1  0  0  0  0
 40 45  1  0  0  0  0
 41 46  1  0  0  0  0
 42 44  1  1  0  0  0
 45 42  1  0  0  0  0
 46 38  1  1  0  0  0
 46 42  1  0  0  0  0
M  END
>  <MODEL>
2

>  <REMARK>
 VINA RESULT:      -6.2      2.900      8.416
  Name = 
  15 active torsions:
  status: ('A' for Active; 'I' for Inactive)
    1  A    between atoms: C_2  and  N_3
    2  A    between atoms: N_3  and  S_24
    3  A    between atoms: C_4  and  C_10
    4  A    between atoms: C_7  and  C_20
    5  A    between atoms: C_8  and  S_24
    6  A    between atoms: C_10  and  C_12
    7  A    between atoms: C_10  and  C_34
    8  A    between atoms: C_12  and  N_30
    9  A    between atoms: N_15  and  C_28
   10  A    between atoms: C_20  and  C_43
   11  A    between atoms: O_25  and  C_37
   12  A    between atoms: O_25  and  C_45
   13  A    between atoms: C_28  and  C_36
   14  A    between atoms: C_34  and  C_39
   15  A    between atoms: C_36  and  C_39
                            x       y       z     vdW  Elec       q    Type
                         _______ _______ _______ _____ _____    ______ ____

>  <TORSDO>
F 15

$$$$
=
 OpenBabel11072411073D

 46 49  0  0  1  0  0  0  0  0999 V2000
  162.4920  208.5290  151.8490 C   0  0  0  0  0  2  0  0  0  0  0  0
  161.1730  207.7520  151.8460 C   0  0  2  0  0  3  0  0  0  0  0  0
  161.0800  210.0880  153.3730 C   0  0  2  0  0  3  0  0  0  0  0  0
  162.4150  209.8540  152.6420 C   0  0  0  0  0  2  0  0  0  0  0  0
  160.6150  207.6760  153.2340 C   0  0  0  0  0  3  0  0  0  0  0  0
  160.5740  208.7880  153.9680 C   0  0  0  0  0  0  0  0  0  0  0  0
  161.3810  206.4180  151.3080 N   0  0  0  0  0  2  0  0  0  0  0  0
  162.6280  207.2760  149.1440 O   0  0  0  0  0  0  0  0  0  0  0  0
  161.3820  206.5560  149.5820 S   0  0  0  0  0  0  0  0  0  0  0  0
  160.1840  207.3490  149.1390 O   0  0  0  0  0  0  0  0  0  0  0  0
  161.3310  204.9530  148.8450 C   0  0  0  0  0  0  0  0  0  0  0  0
  161.6930  204.7440  147.4990 C   0  0  0  0  0  0  0  0  0  0  0  0
  160.3280  201.5620  149.8010 F   0  0  0  0  0  0  0  0  0  0  0  0
  161.0510  201.1580  147.1610 F   0  0  0  0  0  0  0  0  0  0  0  0
  161.1410  202.3920  147.7140 C   0  0  0  0  0  0  0  0  0  0  0  0
  160.7770  202.5960  149.0490 C   0  0  0  0  0  0  0  0  0  0  0  0
  160.8690  203.8720  149.6080 C   0  0  0  0  0  3  0  0  0  0  0  0
  162.1750  205.8570  146.6330 C   0  0  0  0  0  1  0  0  0  0  0  0
  161.5970  203.4640  146.9440 C   0  0  0  0  0  3  0  0  0  0  0  0
  160.0710  210.7570  152.4150 C   0  0  1  0  0  3  0  0  0  0  0  0
  158.6310  210.8630  152.9220 C   0  0  0  0  0  2  0  0  0  0  0  0
  156.4740  211.7580  154.5440 O   0  0  0  0  0  0  0  0  0  0  0  0
  158.2260  212.2490  153.0860 N   0  0  0  0  0  2  0  0  0  0  0  0
  157.1000  212.6250  153.8760 C   0  0  0  0  0  0  0  0  0  0  0  0
  155.6840  214.2340  152.8820 O   0  0  0  0  0  1  0  0  0  0  0  0
  156.6510  214.0490  153.8710 C   0  0  1  0  0  3  0  0  0  0  0  0
  156.0950  214.4530  155.2270 C   0  0  0  0  0  2  0  0  0  0  0  0
  154.7140  214.2670  155.2420 O   0  0  0  0  0  1  0  0  0  0  0  0
  160.5740  212.0550  151.7630 C   0  0  0  0  0  2  0  0  0  0  0  0
  160.2440  213.3000  149.7530 O   0  0  0  0  0  1  0  0  0  0  0  0
  160.5680  212.0330  150.2350 C   0  0  1  0  0  3  0  0  0  0  0  0
  161.9200  211.6090  149.6920 C   0  0  0  0  0  2  0  0  0  0  0  0
  161.8240  211.3110  148.2060 C   0  0  0  0  0  2  0  0  0  0  0  0
  161.2970  214.3180  145.8780 N   0  0  0  0  0  0  0  0  0  0  0  0
  160.2200  213.5880  146.2550 O   0  0  0  0  0  0  0  0  0  0  0  0
  162.3370  212.4320  147.4350 N   0  0  0  0  0  2  0  0  0  0  0  0
  161.4710  213.2700  146.6790 C   0  0  0  0  0  0  0  0  0  0  0  0
  160.0820  208.7300  155.2750 O   0  0  0  0  0  0  0  0  0  0  0  0
  162.6830  210.6090  157.1940 C   0  0  1  0  0  3  0  0  0  0  0  0
  162.1760  211.8750  156.8540 O   0  0  0  0  0  0  0  0  0  0  0  0
  162.1300  209.5520  156.2380 C   0  0  0  0  0  2  0  0  0  0  0  0
  160.0460  210.9570  156.2320 C   0  0  1  0  0  3  0  0  0  0  0  0
  164.0580  210.6320  157.1010 F   0  0  0  0  0  0  0  0  0  0  0  0
  158.7040  210.9690  156.5620 F   0  0  0  0  0  0  0  0  0  0  0  0
  160.8120  211.8660  157.1930 C   0  0  0  0  0  2  0  0  0  0  0  0
  160.6050  209.5340  156.3260 C   0  0  1  0  0  3  0  0  0  0  0  0
  1  4  1  0  0  0  0
  2  7  1  1  0  0  0
  2  1  1  0  0  0  0
  2  5  1  0  0  0  0
  3 20  1  6  0  0  0
  3  6  1  0  0  0  0
  4  3  1  0  0  0  0
  5  6  2  0  0  0  0
  6 38  1  0  0  0  0
  8  9  2  0  0  0  0
  9  7  1  0  0  0  0
 10  9  2  0  0  0  0
 11  9  1  0  0  0  0
 11 17  1  0  0  0  0
 12 11  2  0  0  0  0
 14 15  1  0  0  0  0
 15 16  1  0  0  0  0
 16 17  2  0  0  0  0
 16 13  1  0  0  0  0
 18 12  1  0  0  0  0
 19 12  1  0  0  0  0
 19 15  2  0  0  0  0
 20 29  1  1  0  0  0
 20 21  1  0  0  0  0
 21 23  1  0  0  0  0
 23 24  1  0  0  0  0
 24 22  2  0  0  0  0
 26 25  1  6  0  0  0
 26 24  1  0  0  0  0
 26 27  1  0  0  0  0
 27 28  1  0  0  0  0
 31 30  1  6  0  0  0
 31 29  1  0  0  0  0
 32 31  1  0  0  0  0
 33 32  1  0  0  0  0
 34 35  1  0  0  0  0
 34 37  2  0  0  0  0
 35 37  1  0  0  0  0
 36 33  1  0  0  0  0
 37 36  1  0  0  0  0
 39 43  1  6  0  0  0
 40 45  1  0  0  0  0
 40 39  1  0  0  0  0
 41 46  1  0  0  0  0
 41 39  1  0  0  0  0
 42 46  1  0  0  0  0
 42 44  1  1  0  0  0
 42 45  1  0  0  0  0
 46 38  1  6  0  0  0
M  END
>  <MODEL>
3

>  <REMARK>
 VINA RESULT:      -6.0      1.678      2.345
  Name = 
  15 active torsions:
  status: ('A' for Active; 'I' for Inactive)
    1  A    between atoms: C_2  and  N_3
    2  A    between atoms: N_3  and  S_24
    3  A    between atoms: C_4  and  C_10
    4  A    between atoms: C_7  and  C_20
    5  A    between atoms: C_8  and  S_24
    6  A    between atoms: C_10  and  C_12
    7  A    between atoms: C_10  and  C_34
    8  A    between atoms: C_12  and  N_30
    9  A    between atoms: N_15  and  C_28
   10  A    between atoms: C_20  and  C_43
   11  A    between atoms: O_25  and  C_37
   12  A    between atoms: O_25  and  C_45
   13  A    between atoms: C_28  and  C_36
   14  A    between atoms: C_34  and  C_39
   15  A    between atoms: C_36  and  C_39
                            x       y       z     vdW  Elec       q    Type
                         _______ _______ _______ _____ _____    ______ ____

>  <TORSDO>
F 15

$$$$
=
 OpenBabel11072411073D

 46 49  0  0  1  0  0  0  0  0999 V2000
  162.6960  208.8260  151.5930 C   0  0  0  0  0  2  0  0  0  0  0  0
  161.2980  208.2840  151.2830 C   0  0  2  0  0  3  0  0  0  0  0  0
  161.3000  210.9630  152.0720 C   0  0  2  0  0  3  0  0  0  0  0  0
  162.6990  210.3260  151.9650 C   0  0  0  0  0  2  0  0  0  0  0  0
  160.3310  208.7170  152.3420 C   0  0  0  0  0  3  0  0  0  0  0  0
  160.3330  209.9950  152.7250 C   0  0  0  0  0  0  0  0  0  0  0  0
  161.3350  206.8340  151.1910 N   0  0  0  0  0  2  0  0  0  0  0  0
  162.6860  206.8720  148.9230 O   0  0  0  0  0  0  0  0  0  0  0  0
  161.3730  206.4290  149.5080 S   0  0  0  0  0  0  0  0  0  0  0  0
  160.2590  207.1410  148.7930 O   0  0  0  0  0  0  0  0  0  0  0  0
  161.1860  204.6860  149.2990 C   0  0  0  0  0  0  0  0  0  0  0  0
  160.9870  203.8260  150.3970 C   0  0  0  0  0  0  0  0  0  0  0  0
  161.2900  202.2600  146.5570 F   0  0  0  0  0  0  0  0  0  0  0  0
  160.8890  200.5760  148.7170 F   0  0  0  0  0  0  0  0  0  0  0  0
  160.9860  201.9160  148.9010 C   0  0  0  0  0  0  0  0  0  0  0  0
  161.1870  202.7670  147.8100 C   0  0  0  0  0  0  0  0  0  0  0  0
  161.2900  204.1450  148.0110 C   0  0  0  0  0  3  0  0  0  0  0  0
  160.8860  204.3410  151.7910 C   0  0  0  0  0  1  0  0  0  0  0  0
  160.8870  202.4470  150.1890 C   0  0  0  0  0  3  0  0  0  0  0  0
  160.8390  211.4450  150.6810 C   0  0  1  0  0  3  0  0  0  0  0  0
  160.3230  212.8850  150.6040 C   0  0  0  0  0  2  0  0  0  0  0  0
  157.6470  213.6830  150.0700 O   0  0  0  0  0  0  0  0  0  0  0  0
  159.3090  213.1400  151.6130 N   0  0  0  0  0  2  0  0  0  0  0  0
  157.9980  213.5900  151.2770 C   0  0  0  0  0  0  0  0  0  0  0  0
  155.7720  214.1300  151.8580 O   0  0  0  0  0  1  0  0  0  0  0  0
  157.0620  213.9820  152.3720 C   0  0  1  0  0  3  0  0  0  0  0  0
  157.0630  212.9540  153.4910 C   0  0  0  0  0  2  0  0  0  0  0  0
  155.8430  212.9900  154.1630 O   0  0  0  0  0  1  0  0  0  0  0  0
  161.7960  211.0900  149.5310 C   0  0  0  0  0  2  0  0  0  0  0  0
  163.3780  212.2300  148.1540 O   0  0  0  0  0  1  0  0  0  0  0  0
  162.0390  212.2290  148.5430 C   0  0  1  0  0  3  0  0  0  0  0  0
  161.1520  212.0890  147.3200 C   0  0  0  0  0  2  0  0  0  0  0  0
  161.6530  212.9770  146.1960 C   0  0  0  0  0  2  0  0  0  0  0  0
  159.1550  212.6890  143.2940 N   0  0  0  0  0  0  0  0  0  0  0  0
  160.0860  211.7180  143.4530 O   0  0  0  0  0  0  0  0  0  0  0  0
  160.5320  213.4880  145.4230 N   0  0  0  0  0  2  0  0  0  0  0  0
  160.0290  212.7840  144.2930 C   0  0  0  0  0  0  0  0  0  0  0  0
  159.4560  210.4100  153.7310 O   0  0  0  0  0  0  0  0  0  0  0  0
  161.5110  209.5660  156.7390 C   0  0  1  0  0  3  0  0  0  0  0  0
  161.5900  210.8940  157.1930 O   0  0  0  0  0  0  0  0  0  0  0  0
  161.0940  209.5420  155.2690 C   0  0  0  0  0  2  0  0  0  0  0  0
  159.7170  211.5630  155.8480 C   0  0  1  0  0  3  0  0  0  0  0  0
  162.7450  208.9670  156.8720 F   0  0  0  0  0  0  0  0  0  0  0  0
  158.4270  212.0550  155.9240 F   0  0  0  0  0  0  0  0  0  0  0  0
  160.2720  211.3750  157.2600 C   0  0  0  0  0  2  0  0  0  0  0  0
  159.7330  210.2190  155.1140 C   0  0  1  0  0  3  0  0  0  0  0  0
  1  4  1  0  0  0  0
  2  7  1  1  0  0  0
  2  1  1  0  0  0  0
  2  5  1  0  0  0  0
  3 20  1  6  0  0  0
  3  6  1  0  0  0  0
  4  3  1  0  0  0  0
  5  6  2  0  0  0  0
  6 38  1  0  0  0  0
  8  9  2  0  0  0  0
  9  7  1  0  0  0  0
 10  9  2  0  0  0  0
 11  9  1  0  0  0  0
 11 12  1  0  0  0  0
 12 18  1  0  0  0  0
 13 16  1  0  0  0  0
 14 15  1  0  0  0  0
 15 19  1  0  0  0  0
 16 17  1  0  0  0  0
 16 15  2  0  0  0  0
 17 11  2  0  0  0  0
 19 12  2  0  0  0  0
 20 29  1  6  0  0  0
 21 20  1  0  0  0  0
 21 23  1  0  0  0  0
 22 24  2  0  0  0  0
 24 23  1  0  0  0  0
 24 26  1  0  0  0  0
 26 25  1  6  0  0  0
 26 27  1  0  0  0  0
 27 28  1  0  0  0  0
 31 30  1  6  0  0  0
 31 29  1  0  0  0  0
 32 31  1  0  0  0  0
 33 32  1  0  0  0  0
 34 35  1  0  0  0  0
 34 37  2  0  0  0  0
 35 37  1  0  0  0  0
 36 33  1  0  0  0  0
 37 36  1  0  0  0  0
 39 43  1  6  0  0  0
 39 40  1  0  0  0  0
 40 45  1  0  0  0  0
 41 39  1  0  0  0  0
 42 44  1  1  0  0  0
 42 45  1  0  0  0  0
 46 38  1  6  0  0  0
 46 41  1  0  0  0  0
 46 42  1  0  0  0  0
M  END
>  <MODEL>
4

>  <REMARK>
 VINA RESULT:      -5.9      1.414      1.966
  Name = 
  15 active torsions:
  status: ('A' for Active; 'I' for Inactive)
    1  A    between atoms: C_2  and  N_3
    2  A    between atoms: N_3  and  S_24
    3  A    between atoms: C_4  and  C_10
    4  A    between atoms: C_7  and  C_20
    5  A    between atoms: C_8  and  S_24
    6  A    between atoms: C_10  and  C_12
    7  A    between atoms: C_10  and  C_34
    8  A    between atoms: C_12  and  N_30
    9  A    between atoms: N_15  and  C_28
   10  A    between atoms: C_20  and  C_43
   11  A    between atoms: O_25  and  C_37
   12  A    between atoms: O_25  and  C_45
   13  A    between atoms: C_28  and  C_36
   14  A    between atoms: C_34  and  C_39
   15  A    between atoms: C_36  and  C_39
                            x       y       z     vdW  Elec       q    Type
                         _______ _______ _______ _____ _____    ______ ____

>  <TORSDO>
F 15

$$$$
=
 OpenBabel11072411073D

 46 49  0  0  1  0  0  0  0  0999 V2000
  162.6910  208.1980  151.4550 C   0  0  0  0  0  2  0  0  0  0  0  0
  161.1860  208.0190  151.2330 C   0  0  2  0  0  3  0  0  0  0  0  0
  161.8630  210.5150  152.2880 C   0  0  2  0  0  3  0  0  0  0  0  0
  163.0660  209.6040  151.9770 C   0  0  0  0  0  2  0  0  0  0  0  0
  160.4270  208.5220  152.4220 C   0  0  0  0  0  3  0  0  0  0  0  0
  160.7500  209.7110  152.9320 C   0  0  0  0  0  0  0  0  0  0  0  0
  160.8820  206.6190  150.9900 N   0  0  0  0  0  2  0  0  0  0  0  0
  162.4700  206.9370  148.9050 O   0  0  0  0  0  0  0  0  0  0  0  0
  161.1590  206.3200  149.3070 S   0  0  0  0  0  0  0  0  0  0  0  0
  160.0600  206.9460  148.4960 O   0  0  0  0  0  0  0  0  0  0  0  0
  161.1990  204.5820  148.9990 C   0  0  0  0  0  0  0  0  0  0  0  0
  161.5450  204.0610  147.7360 C   0  0  0  0  0  0  0  0  0  0  0  0
  160.4480  201.4900  150.8130 F   0  0  0  0  0  0  0  0  0  0  0  0
  161.1380  200.4740  148.3340 F   0  0  0  0  0  0  0  0  0  0  0  0
  161.1570  201.8110  148.5550 C   0  0  0  0  0  0  0  0  0  0  0  0
  160.8100  202.3250  149.8090 C   0  0  0  0  0  0  0  0  0  0  0  0
  160.8280  203.7040  150.0260 C   0  0  0  0  0  3  0  0  0  0  0  0
  161.9320  204.9460  146.6010 C   0  0  0  0  0  1  0  0  0  0  0  0
  161.5230  202.6800  147.5240 C   0  0  0  0  0  3  0  0  0  0  0  0
  161.4240  211.2530  151.0060 C   0  0  1  0  0  3  0  0  0  0  0  0
  161.8690  210.6270  149.6820 C   0  0  0  0  0  2  0  0  0  0  0  0
  163.4680  212.5230  148.2920 O   0  0  0  0  0  0  0  0  0  0  0  0
  161.4300  211.4190  148.5450 N   0  0  0  0  0  2  0  0  0  0  0  0
  162.2680  212.3920  147.9270 C   0  0  0  0  0  0  0  0  0  0  0  0
  162.2670  212.9620  145.6330 O   0  0  0  0  0  1  0  0  0  0  0  0
  161.6980  213.2770  146.8680 C   0  0  1  0  0  3  0  0  0  0  0  0
  160.1850  213.1410  146.7960 C   0  0  0  0  0  2  0  0  0  0  0  0
  159.8330  212.4250  145.6520 O   0  0  0  0  0  1  0  0  0  0  0  0
  159.9500  211.6930  150.9940 C   0  0  0  0  0  2  0  0  0  0  0  0
  160.2530  214.0520  150.7950 O   0  0  0  0  0  1  0  0  0  0  0  0
  159.7010  213.0670  151.6120 C   0  0  1  0  0  3  0  0  0  0  0  0
  158.2160  213.3240  151.7900 C   0  0  0  0  0  2  0  0  0  0  0  0
  157.9180  213.7470  153.2170 C   0  0  0  0  0  2  0  0  0  0  0  0
  155.7330  211.1450  155.0060 N   0  0  0  0  0  0  0  0  0  0  0  0
  157.0770  210.9720  154.9940 O   0  0  0  0  0  0  0  0  0  0  0  0
  156.6190  213.2400  153.6300 N   0  0  0  0  0  2  0  0  0  0  0  0
  156.4980  212.0380  154.3820 C   0  0  0  0  0  0  0  0  0  0  0  0
  160.0700  210.1830  154.0570 O   0  0  0  0  0  0  0  0  0  0  0  0
  160.4970  207.8940  156.9830 C   0  0  1  0  0  3  0  0  0  0  0  0
  161.8990  207.8610  156.8910 O   0  0  0  0  0  0  0  0  0  0  0  0
  159.9010  208.4030  155.6700 C   0  0  0  0  0  2  0  0  0  0  0  0
  161.9510  209.8520  155.5500 C   0  0  1  0  0  3  0  0  0  0  0  0
  160.0280  206.6220  157.2320 F   0  0  0  0  0  0  0  0  0  0  0  0
  162.3980  211.1590  155.5390 F   0  0  0  0  0  0  0  0  0  0  0  0
  162.3320  209.1970  156.8780 C   0  0  0  0  0  2  0  0  0  0  0  0
  160.4300  209.8070  155.3820 C   0  0  1  0  0  3  0  0  0  0  0  0
  1  4  1  0  0  0  0
  2  7  1  1  0  0  0
  2  1  1  0  0  0  0
  2  5  1  0  0  0  0
  3 20  1  6  0  0  0
  3  6  1  0  0  0  0
  4  3  1  0  0  0  0
  5  6  2  0  0  0  0
  6 38  1  0  0  0  0
  8  9  2  0  0  0  0
  9  7  1  0  0  0  0
 10  9  2  0  0  0  0
 11  9  1  0  0  0  0
 11 17  1  0  0  0  0
 12 11  2  0  0  0  0
 14 15  1  0  0  0  0
 15 16  1  0  0  0  0
 16 17  2  0  0  0  0
 16 13  1  0  0  0  0
 18 12  1  0  0  0  0
 19 12  1  0  0  0  0
 19 15  2  0  0  0  0
 20 21  1  6  0  0  0
 23 21  1  0  0  0  0
 24 22  2  0  0  0  0
 24 23  1  0  0  0  0
 26 25  1  6  0  0  0
 26 24  1  0  0  0  0
 27 26  1  0  0  0  0
 28 27  1  0  0  0  0
 29 20  1  0  0  0  0
 29 31  1  0  0  0  0
 31 30  1  6  0  0  0
 31 32  1  0  0  0  0
 32 33  1  0  0  0  0
 33 36  1  0  0  0  0
 35 34  1  0  0  0  0
 36 37  1  0  0  0  0
 37 35  1  0  0  0  0
 37 34  2  0  0  0  0
 39 43  1  6  0  0  0
 40 39  1  0  0  0  0
 41 39  1  0  0  0  0
 42 44  1  1  0  0  0
 42 45  1  0  0  0  0
 45 40  1  0  0  0  0
 46 38  1  6  0  0  0
 46 42  1  0  0  0  0
 46 41  1  0  0  0  0
M  END
>  <MODEL>
5

>  <REMARK>
 VINA RESULT:      -5.9      1.444      4.896
  Name = 
  15 active torsions:
  status: ('A' for Active; 'I' for Inactive)
    1  A    between atoms: C_2  and  N_3
    2  A    between atoms: N_3  and  S_24
    3  A    between atoms: C_4  and  C_10
    4  A    between atoms: C_7  and  C_20
    5  A    between atoms: C_8  and  S_24
    6  A    between atoms: C_10  and  C_12
    7  A    between atoms: C_10  and  C_34
    8  A    between atoms: C_12  and  N_30
    9  A    between atoms: N_15  and  C_28
   10  A    between atoms: C_20  and  C_43
   11  A    between atoms: O_25  and  C_37
   12  A    between atoms: O_25  and  C_45
   13  A    between atoms: C_28  and  C_36
   14  A    between atoms: C_34  and  C_39
   15  A    between atoms: C_36  and  C_39
                            x       y       z     vdW  Elec       q    Type
                         _______ _______ _______ _____ _____    ______ ____

>  <TORSDO>
F 15

$$$$
=
 OpenBabel11072411073D

 46 49  0  0  1  0  0  0  0  0999 V2000
  162.3110  209.5580  149.4050 C   0  0  0  0  0  2  0  0  0  0  0  0
  161.3750  208.5730  150.1120 C   0  0  2  0  0  3  0  0  0  0  0  0
  161.7850  210.9360  151.5420 C   0  0  2  0  0  3  0  0  0  0  0  0
  162.4820  210.8900  150.1690 C   0  0  0  0  0  2  0  0  0  0  0  0
  161.7310  208.4770  151.5640 C   0  0  0  0  0  3  0  0  0  0  0  0
  161.9320  209.6030  152.2490 C   0  0  0  0  0  0  0  0  0  0  0  0
  161.4570  207.2670  149.4810 N   0  0  0  0  0  2  0  0  0  0  0  0
  160.3880  206.4090  151.7380 O   0  0  0  0  0  0  0  0  0  0  0  0
  161.4730  206.0860  150.7480 S   0  0  0  0  0  0  0  0  0  0  0  0
  162.7990  206.1230  151.4550 O   0  0  0  0  0  0  0  0  0  0  0  0
  161.2080  204.4750  150.0790 C   0  0  0  0  0  0  0  0  0  0  0  0
  160.9670  203.3590  150.9060 C   0  0  0  0  0  0  0  0  0  0  0  0
  161.2070  202.8760  146.7830 F   0  0  0  0  0  0  0  0  0  0  0  0
  160.7250  200.6920  148.4120 F   0  0  0  0  0  0  0  0  0  0  0  0
  160.8820  201.9260  148.9500 C   0  0  0  0  0  0  0  0  0  0  0  0
  161.1240  203.0300  148.1270 C   0  0  0  0  0  0  0  0  0  0  0  0
  161.2900  204.2970  148.6910 C   0  0  0  0  0  3  0  0  0  0  0  0
  160.8870  203.4830  152.3880 C   0  0  0  0  0  1  0  0  0  0  0  0
  160.8050  202.0930  150.3350 C   0  0  0  0  0  3  0  0  0  0  0  0
  160.3170  211.3790  151.3670 C   0  0  1  0  0  3  0  0  0  0  0  0
  159.3430  210.9260  152.4580 C   0  0  0  0  0  2  0  0  0  0  0  0
  159.1860  212.2340  154.9780 O   0  0  0  0  0  0  0  0  0  0  0  0
  158.3990  211.9790  152.7980 N   0  0  0  0  0  2  0  0  0  0  0  0
  158.3400  212.5560  154.1000 C   0  0  0  0  0  0  0  0  0  0  0  0
  156.9030  214.2410  153.2760 O   0  0  0  0  0  1  0  0  0  0  0  0
  157.2430  213.5170  154.4200 C   0  0  1  0  0  3  0  0  0  0  0  0
  156.0220  212.7950  154.9640 C   0  0  0  0  0  2  0  0  0  0  0  0
  155.2050  213.6990  155.6410 O   0  0  0  0  0  1  0  0  0  0  0  0
  160.1360  212.8550  150.9780 C   0  0  0  0  0  2  0  0  0  0  0  0
  158.8020  213.6790  149.1780 O   0  0  0  0  0  1  0  0  0  0  0  0
  160.0350  213.1000  149.4740 C   0  0  1  0  0  3  0  0  0  0  0  0
  161.1540  214.0040  148.9920 C   0  0  0  0  0  2  0  0  0  0  0  0
  161.8320  213.4050  147.7730 C   0  0  0  0  0  2  0  0  0  0  0  0
  161.6400  213.6800  143.9480 N   0  0  0  0  0  0  0  0  0  0  0  0
  162.6940  213.0350  144.5040 O   0  0  0  0  0  0  0  0  0  0  0  0
  161.1730  213.8580  146.5580 N   0  0  0  0  0  2  0  0  0  0  0  0
  161.7190  213.5860  145.2730 C   0  0  0  0  0  0  0  0  0  0  0  0
  162.2910  209.5310  153.5980 O   0  0  0  0  0  0  0  0  0  0  0  0
  159.8800  208.1320  156.0900 C   0  0  1  0  0  3  0  0  0  0  0  0
  160.6920  208.4220  157.2010 O   0  0  0  0  0  0  0  0  0  0  0  0
  160.7160  208.1730  154.8110 C   0  0  0  0  0  2  0  0  0  0  0  0
  161.9890  210.0120  155.9550 C   0  0  1  0  0  3  0  0  0  0  0  0
  159.3390  206.8730  156.2410 F   0  0  0  0  0  0  0  0  0  0  0  0
  162.3200  211.3530  155.8900 F   0  0  0  0  0  0  0  0  0  0  0  0
  161.0190  209.7860  157.1140 C   0  0  0  0  0  2  0  0  0  0  0  0
  161.3310  209.5610  154.6470 C   0  0  1  0  0  3  0  0  0  0  0  0
  1  2  1  0  0  0  0
  1  4  1  0  0  0  0
  2  7  1  6  0  0  0
  2  5  1  0  0  0  0
  3 20  1  6  0  0  0
  3  6  1  0  0  0  0
  4  3  1  0  0  0  0
  5  6  2  0  0  0  0
  6 38  1  0  0  0  0
  7  9  1  0  0  0  0
  9 10  2  0  0  0  0
  9  8  2  0  0  0  0
 11  9  1  0  0  0  0
 11 12  1  0  0  0  0
 12 18  1  0  0  0  0
 13 16  1  0  0  0  0
 14 15  1  0  0  0  0
 15 19  1  0  0  0  0
 16 17  1  0  0  0  0
 16 15  2  0  0  0  0
 17 11  2  0  0  0  0
 19 12  2  0  0  0  0
 20 29  1  1  0  0  0
 20 21  1  0  0  0  0
 21 23  1  0  0  0  0
 23 24  1  0  0  0  0
 24 26  1  0  0  0  0
 24 22  2  0  0  0  0
 26 25  1  6  0  0  0
 26 27  1  0  0  0  0
 27 28  1  0  0  0  0
 31 30  1  1  0  0  0
 31 29  1  0  0  0  0
 32 31  1  0  0  0  0
 33 32  1  0  0  0  0
 34 35  1  0  0  0  0
 34 37  2  0  0  0  0
 35 37  1  0  0  0  0
 36 33  1  0  0  0  0
 37 36  1  0  0  0  0
 39 43  1  1  0  0  0
 39 40  1  0  0  0  0
 41 39  1  0  0  0  0
 42 44  1  6  0  0  0
 42 45  1  0  0  0  0
 45 40  1  0  0  0  0
 46 38  1  6  0  0  0
 46 41  1  0  0  0  0
 46 42  1  0  0  0  0
M  END
>  <MODEL>
6

>  <REMARK>
 VINA RESULT:      -5.7      1.544      2.313
  Name = 
  15 active torsions:
  status: ('A' for Active; 'I' for Inactive)
    1  A    between atoms: C_2  and  N_3
    2  A    between atoms: N_3  and  S_24
    3  A    between atoms: C_4  and  C_10
    4  A    between atoms: C_7  and  C_20
    5  A    between atoms: C_8  and  S_24
    6  A    between atoms: C_10  and  C_12
    7  A    between atoms: C_10  and  C_34
    8  A    between atoms: C_12  and  N_30
    9  A    between atoms: N_15  and  C_28
   10  A    between atoms: C_20  and  C_43
   11  A    between atoms: O_25  and  C_37
   12  A    between atoms: O_25  and  C_45
   13  A    between atoms: C_28  and  C_36
   14  A    between atoms: C_34  and  C_39
   15  A    between atoms: C_36  and  C_39
                            x       y       z     vdW  Elec       q    Type
                         _______ _______ _______ _____ _____    ______ ____

>  <TORSDO>
F 15

$$$$
=
 OpenBabel11072411073D

 46 49  0  0  1  0  0  0  0  0999 V2000
  161.6410  208.9790  150.5500 C   0  0  0  0  0  2  0  0  0  0  0  0
  160.8670  208.3810  151.7290 C   0  0  2  0  0  3  0  0  0  0  0  0
  161.5310  211.0710  152.0850 C   0  0  2  0  0  3  0  0  0  0  0  0
  161.9480  210.4830  150.7240 C   0  0  0  0  0  2  0  0  0  0  0  0
  161.4980  208.7960  153.0230 C   0  0  0  0  0  3  0  0  0  0  0  0
  161.8210  210.0790  153.1940 C   0  0  0  0  0  0  0  0  0  0  0  0
  160.8340  206.9330  151.6210 N   0  0  0  0  0  2  0  0  0  0  0  0
  162.7480  206.9730  149.8020 O   0  0  0  0  0  0  0  0  0  0  0  0
  161.3260  206.5280  150.0100 S   0  0  0  0  0  0  0  0  0  0  0  0
  160.4460  207.2390  149.0210 O   0  0  0  0  0  0  0  0  0  0  0  0
  161.2050  204.7850  149.7590 C   0  0  0  0  0  0  0  0  0  0  0  0
  161.2740  204.2150  148.4720 C   0  0  0  0  0  0  0  0  0  0  0  0
  160.6280  201.7890  151.7860 F   0  0  0  0  0  0  0  0  0  0  0  0
  160.7750  200.6760  149.2570 F   0  0  0  0  0  0  0  0  0  0  0  0
  160.9150  202.0140  149.4250 C   0  0  0  0  0  0  0  0  0  0  0  0
  160.8420  202.5770  150.7040 C   0  0  0  0  0  0  0  0  0  0  0  0
  160.9830  203.9560  150.8670 C   0  0  0  0  0  3  0  0  0  0  0  0
  161.4910  205.0480  147.2550 C   0  0  0  0  0  1  0  0  0  0  0  0
  161.1300  202.8340  148.3150 C   0  0  0  0  0  3  0  0  0  0  0  0
  160.0540  211.5150  152.0310 C   0  0  1  0  0  3  0  0  0  0  0  0
  159.2020  211.1720  153.2560 C   0  0  0  0  0  2  0  0  0  0  0  0
  156.7250  210.9540  154.6360 O   0  0  0  0  0  0  0  0  0  0  0  0
  158.3620  212.2900  153.6490 N   0  0  0  0  0  2  0  0  0  0  0  0
  157.1040  212.1080  154.2940 C   0  0  0  0  0  0  0  0  0  0  0  0
  156.6460  213.9740  155.6690 O   0  0  0  0  0  1  0  0  0  0  0  0
  156.2260  213.2930  154.5250 C   0  0  1  0  0  3  0  0  0  0  0  0
  156.2390  214.2280  153.3260 C   0  0  0  0  0  2  0  0  0  0  0  0
  155.2930  213.8060  152.3930 O   0  0  0  0  0  1  0  0  0  0  0  0
  159.8360  212.9540  151.5340 C   0  0  0  0  0  2  0  0  0  0  0  0
  158.0980  213.3940  149.9590 O   0  0  0  0  0  1  0  0  0  0  0  0
  159.4470  213.0570  150.0610 C   0  0  1  0  0  3  0  0  0  0  0  0
  160.2900  214.0970  149.3460 C   0  0  0  0  0  2  0  0  0  0  0  0
  161.5680  213.4710  148.8170 C   0  0  0  0  0  2  0  0  0  0  0  0
  160.0150  212.6160  145.4120 N   0  0  0  0  0  0  0  0  0  0  0  0
  159.3890  212.1970  146.5380 O   0  0  0  0  0  0  0  0  0  0  0  0
  161.5820  213.5100  147.3640 N   0  0  0  0  0  2  0  0  0  0  0  0
  160.5490  212.9020  146.5960 C   0  0  0  0  0  0  0  0  0  0  0  0
  162.4350  210.4770  154.3850 O   0  0  0  0  0  0  0  0  0  0  0  0
  160.0000  211.3500  157.0850 C   0  0  1  0  0  3  0  0  0  0  0  0
  159.2190  210.1950  156.9040 O   0  0  0  0  0  0  0  0  0  0  0  0
  160.8810  211.5800  155.8570 C   0  0  0  0  0  2  0  0  0  0  0  0
  160.9850  209.0730  155.7270 C   0  0  1  0  0  3  0  0  0  0  0  0
  159.1700  212.4360  157.2590 F   0  0  0  0  0  0  0  0  0  0  0  0
  161.8320  207.9830  155.7930 F   0  0  0  0  0  0  0  0  0  0  0  0
  160.0980  209.1010  156.9720 C   0  0  0  0  0  2  0  0  0  0  0  0
  161.7920  210.3720  155.6500 C   0  0  1  0  0  3  0  0  0  0  0  0
  1  4  1  0  0  0  0
  1  2  1  0  0  0  0
  2  7  1  6  0  0  0
  2  5  1  0  0  0  0
  3 20  1  6  0  0  0
  3  6  1  0  0  0  0
  4  3  1  0  0  0  0
  5  6  2  0  0  0  0
  6 38  1  0  0  0  0
  8  9  2  0  0  0  0
  9  7  1  0  0  0  0
 10  9  2  0  0  0  0
 11  9  1  0  0  0  0
 11 17  1  0  0  0  0
 12 11  2  0  0  0  0
 14 15  1  0  0  0  0
 15 16  1  0  0  0  0
 16 17  2  0  0  0  0
 16 13  1  0  0  0  0
 18 12  1  0  0  0  0
 19 12  1  0  0  0  0
 19 15  2  0  0  0  0
 20 29  1  1  0  0  0
 20 21  1  0  0  0  0
 21 23  1  0  0  0  0
 23 24  1  0  0  0  0
 24 26  1  0  0  0  0
 24 22  2  0  0  0  0
 26 25  1  1  0  0  0
 27 26  1  0  0  0  0
 28 27  1  0  0  0  0
 31 30  1  1  0  0  0
 31 29  1  0  0  0  0
 32 31  1  0  0  0  0
 33 32  1  0  0  0  0
 34 35  1  0  0  0  0
 34 37  2  0  0  0  0
 35 37  1  0  0  0  0
 36 33  1  0  0  0  0
 37 36  1  0  0  0  0
 39 43  1  6  0  0  0
 40 45  1  0  0  0  0
 40 39  1  0  0  0  0
 41 39  1  0  0  0  0
 42 44  1  1  0  0  0
 42 45  1  0  0  0  0
 46 38  1  6  0  0  0
 46 42  1  0  0  0  0
 46 41  1  0  0  0  0
M  END
>  <MODEL>
7

>  <REMARK>
 VINA RESULT:      -5.6      1.754      2.523
  Name = 
  15 active torsions:
  status: ('A' for Active; 'I' for Inactive)
    1  A    between atoms: C_2  and  N_3
    2  A    between atoms: N_3  and  S_24
    3  A    between atoms: C_4  and  C_10
    4  A    between atoms: C_7  and  C_20
    5  A    between atoms: C_8  and  S_24
    6  A    between atoms: C_10  and  C_12
    7  A    between atoms: C_10  and  C_34
    8  A    between atoms: C_12  and  N_30
    9  A    between atoms: N_15  and  C_28
   10  A    between atoms: C_20  and  C_43
   11  A    between atoms: O_25  and  C_37
   12  A    between atoms: O_25  and  C_45
   13  A    between atoms: C_28  and  C_36
   14  A    between atoms: C_34  and  C_39
   15  A    between atoms: C_36  and  C_39
                            x       y       z     vdW  Elec       q    Type
                         _______ _______ _______ _____ _____    ______ ____

>  <TORSDO>
F 15

$$$$
=
 OpenBabel11072411073D

 46 49  0  0  1  0  0  0  0  0999 V2000
  162.8610  207.0260  151.5500 C   0  0  0  0  0  2  0  0  0  0  0  0
  161.4190  206.6340  151.2140 C   0  0  2  0  0  3  0  0  0  0  0  0
  161.6010  208.7730  153.0010 C   0  0  2  0  0  3  0  0  0  0  0  0
  162.9570  208.2510  152.4860 C   0  0  0  0  0  2  0  0  0  0  0  0
  160.5920  206.5940  152.4630 C   0  0  0  0  0  3  0  0  0  0  0  0
  160.6810  207.6120  153.3210 C   0  0  0  0  0  0  0  0  0  0  0  0
  161.3950  205.3440  150.5480 N   0  0  0  0  0  2  0  0  0  0  0  0
  162.5060  206.4210  148.4080 O   0  0  0  0  0  0  0  0  0  0  0  0
  161.2920  205.6480  148.8460 S   0  0  0  0  0  0  0  0  0  0  0  0
  160.0660  206.4650  148.5530 O   0  0  0  0  0  0  0  0  0  0  0  0
  161.2070  204.1230  147.9610 C   0  0  0  0  0  0  0  0  0  0  0  0
  161.3340  204.0720  146.5580 C   0  0  0  0  0  0  0  0  0  0  0  0
  160.6030  200.5880  148.7060 F   0  0  0  0  0  0  0  0  0  0  0  0
  160.8620  200.4940  145.9530 F   0  0  0  0  0  0  0  0  0  0  0  0
  160.9740  201.6740  146.6110 C   0  0  0  0  0  0  0  0  0  0  0  0
  160.8450  201.7210  148.0030 C   0  0  0  0  0  0  0  0  0  0  0  0
  160.9580  202.9420  148.6720 C   0  0  0  0  0  3  0  0  0  0  0  0
  161.5830  205.2970  145.7470 C   0  0  0  0  0  1  0  0  0  0  0  0
  161.2180  202.8470  145.8940 C   0  0  0  0  0  3  0  0  0  0  0  0
  161.0040  209.7660  151.9810 C   0  0  1  0  0  3  0  0  0  0  0  0
  159.7230  210.4840  152.4120 C   0  0  0  0  0  2  0  0  0  0  0  0
  157.8020  212.4320  153.1870 O   0  0  0  0  0  0  0  0  0  0  0  0
  159.7270  211.8760  151.9950 N   0  0  0  0  0  2  0  0  0  0  0  0
  158.7020  212.7890  152.3790 C   0  0  0  0  0  0  0  0  0  0  0  0
  159.9430  214.4530  151.2500 O   0  0  0  0  0  1  0  0  0  0  0  0
  158.6880  214.1580  151.7850 C   0  0  1  0  0  3  0  0  0  0  0  0
  157.6200  214.2790  150.7100 C   0  0  0  0  0  2  0  0  0  0  0  0
  156.3610  214.3360  151.3030 O   0  0  0  0  0  1  0  0  0  0  0  0
  162.0300  210.7100  151.3320 C   0  0  0  0  0  2  0  0  0  0  0  0
  161.5690  209.4360  149.3670 O   0  0  0  0  0  1  0  0  0  0  0  0
  162.0370  210.6740  149.8050 C   0  0  1  0  0  3  0  0  0  0  0  0
  161.1750  211.7810  149.2290 C   0  0  0  0  0  2  0  0  0  0  0  0
  161.3070  211.8250  147.7170 C   0  0  0  0  0  2  0  0  0  0  0  0
  159.2070  212.9330  144.7000 N   0  0  0  0  0  0  0  0  0  0  0  0
  160.2670  212.1150  144.4920 O   0  0  0  0  0  0  0  0  0  0  0  0
  160.2030  212.5720  147.1380 N   0  0  0  0  0  2  0  0  0  0  0  0
  159.9450  212.5490  145.7390 C   0  0  0  0  0  0  0  0  0  0  0  0
  159.9370  207.5780  154.5030 O   0  0  0  0  0  0  0  0  0  0  0  0
  162.0840  209.5280  156.8640 C   0  0  1  0  0  3  0  0  0  0  0  0
  161.6570  210.7800  156.3900 O   0  0  0  0  0  0  0  0  0  0  0  0
  161.7410  208.4410  155.8440 C   0  0  0  0  0  2  0  0  0  0  0  0
  159.7020  209.8300  155.3690 C   0  0  1  0  0  3  0  0  0  0  0  0
  163.4490  209.5570  157.0550 F   0  0  0  0  0  0  0  0  0  0  0  0
  158.3210  209.8430  155.4140 F   0  0  0  0  0  0  0  0  0  0  0  0
  160.2530  210.7710  156.4410 C   0  0  0  0  0  2  0  0  0  0  0  0
  160.2310  208.4150  155.6160 C   0  0  1  0  0  3  0  0  0  0  0  0
  1  4  1  0  0  0  0
  2  7  1  1  0  0  0
  2  1  1  0  0  0  0
  2  5  1  0  0  0  0
  3 20  1  6  0  0  0
  3  6  1  0  0  0  0
  4  3  1  0  0  0  0
  5  6  2  0  0  0  0
  6 38  1  0  0  0  0
  8  9  2  0  0  0  0
  9  7  1  0  0  0  0
 10  9  2  0  0  0  0
 11 17  1  0  0  0  0
 11  9  1  0  0  0  0
 12 11  2  0  0  0  0
 14 15  1  0  0  0  0
 15 16  1  0  0  0  0
 16 17  2  0  0  0  0
 16 13  1  0  0  0  0
 18 12  1  0  0  0  0
 19 12  1  0  0  0  0
 19 15  2  0  0  0  0
 20 29  1  1  0  0  0
 20 21  1  0  0  0  0
 23 24  1  0  0  0  0
 23 21  1  0  0  0  0
 24 22  2  0  0  0  0
 26 25  1  6  0  0  0
 26 24  1  0  0  0  0
 27 28  1  0  0  0  0
 27 26  1  0  0  0  0
 31 30  1  1  0  0  0
 31 29  1  0  0  0  0
 32 31  1  0  0  0  0
 33 32  1  0  0  0  0
 34 37  2  0  0  0  0
 35 34  1  0  0  0  0
 35 37  1  0  0  0  0
 36 33  1  0  0  0  0
 37 36  1  0  0  0  0
 39 43  1  6  0  0  0
 40 45  1  0  0  0  0
 40 39  1  0  0  0  0
 41 39  1  0  0  0  0
 42 44  1  1  0  0  0
 42 46  1  0  0  0  0
 42 45  1  0  0  0  0
 46 38  1  6  0  0  0
 46 41  1  0  0  0  0
M  END
>  <MODEL>
8

>  <REMARK>
 VINA RESULT:      -4.7      1.785      2.392
  Name = 
  15 active torsions:
  status: ('A' for Active; 'I' for Inactive)
    1  A    between atoms: C_2  and  N_3
    2  A    between atoms: N_3  and  S_24
    3  A    between atoms: C_4  and  C_10
    4  A    between atoms: C_7  and  C_20
    5  A    between atoms: C_8  and  S_24
    6  A    between atoms: C_10  and  C_12
    7  A    between atoms: C_10  and  C_34
    8  A    between atoms: C_12  and  N_30
    9  A    between atoms: N_15  and  C_28
   10  A    between atoms: C_20  and  C_43
   11  A    between atoms: O_25  and  C_37
   12  A    between atoms: O_25  and  C_45
   13  A    between atoms: C_28  and  C_36
   14  A    between atoms: C_34  and  C_39
   15  A    between atoms: C_36  and  C_39
                            x       y       z     vdW  Elec       q    Type
                         _______ _______ _______ _____ _____    ______ ____

>  <TORSDO>
F 15

$$$$
=
 OpenBabel11072411073D

 46 49  0  0  1  0  0  0  0  0999 V2000
  162.6890  207.2200  147.6540 C   0  0  0  0  0  2  0  0  0  0  0  0
  161.1650  207.0900  147.7210 C   0  0  2  0  0  3  0  0  0  0  0  0
  162.3010  208.0800  150.0730 C   0  0  2  0  0  3  0  0  0  0  0  0
  163.3060  207.8290  148.9330 C   0  0  0  0  0  2  0  0  0  0  0  0
  160.7570  206.4760  149.0250 C   0  0  0  0  0  3  0  0  0  0  0  0
  161.3020  206.9420  150.1500 C   0  0  0  0  0  0  0  0  0  0  0  0
  160.6820  206.2900  146.6090 N   0  0  0  0  0  2  0  0  0  0  0  0
  162.8510  205.0040  147.3940 O   0  0  0  0  0  0  0  0  0  0  0  0
  161.9310  205.1570  146.2140 S   0  0  0  0  0  0  0  0  0  0  0  0
  162.7230  205.6680  145.0440 O   0  0  0  0  0  0  0  0  0  0  0  0
  161.2230  203.5920  145.8060 C   0  0  0  0  0  0  0  0  0  0  0  0
  160.2720  203.4550  144.7740 C   0  0  0  0  0  0  0  0  0  0  0  0
  161.3710  200.1460  147.0390 F   0  0  0  0  0  0  0  0  0  0  0  0
  159.5130  199.8830  145.0060 F   0  0  0  0  0  0  0  0  0  0  0  0
  160.0730  201.0890  145.2700 C   0  0  0  0  0  0  0  0  0  0  0  0
  161.0130  201.2220  146.2970 C   0  0  0  0  0  0  0  0  0  0  0  0
  161.5810  202.4690  146.5640 C   0  0  0  0  0  3  0  0  0  0  0  0
  159.8390  204.6160  143.9460 C   0  0  0  0  0  1  0  0  0  0  0  0
  159.7060  202.2040  144.5130 C   0  0  0  0  0  3  0  0  0  0  0  0
  161.6420  209.4640  149.8910 C   0  0  1  0  0  3  0  0  0  0  0  0
  161.5870  210.3520  151.1370 C   0  0  0  0  0  2  0  0  0  0  0  0
  162.2680  210.7070  153.8750 O   0  0  0  0  0  0  0  0  0  0  0  0
  160.9570  209.6640  152.2530 N   0  0  0  0  0  2  0  0  0  0  0  0
  161.3840  209.8510  153.5990 C   0  0  0  0  0  0  0  0  0  0  0  0
  160.9820  207.6480  154.3550 O   0  0  0  0  0  1  0  0  0  0  0  0
  160.7980  208.9940  154.6730 C   0  0  1  0  0  3  0  0  0  0  0  0
  161.4250  209.3020  156.0240 C   0  0  0  0  0  2  0  0  0  0  0  0
  161.6920  208.1120  156.6980 O   0  0  0  0  0  1  0  0  0  0  0  0
  162.0890  210.2250  148.6330 C   0  0  0  0  0  2  0  0  0  0  0  0
  163.1760  212.2810  148.0960 O   0  0  0  0  0  1  0  0  0  0  0  0
  162.0910  211.7450  148.7860 C   0  0  1  0  0  3  0  0  0  0  0  0
  160.8010  212.3470  148.2600 C   0  0  0  0  0  2  0  0  0  0  0  0
  161.0440  213.0420  146.9310 C   0  0  0  0  0  2  0  0  0  0  0  0
  157.3580  212.5470  145.9770 N   0  0  0  0  0  0  0  0  0  0  0  0
  157.6570  212.9660  147.2300 O   0  0  0  0  0  0  0  0  0  0  0  0
  160.0140  212.6700  145.9750 N   0  0  0  0  0  2  0  0  0  0  0  0
  158.6330  212.7150  146.3190 C   0  0  0  0  0  0  0  0  0  0  0  0
  160.9530  206.3620  151.3730 O   0  0  0  0  0  0  0  0  0  0  0  0
  160.4550  202.8090  150.3200 C   0  0  1  0  0  3  0  0  0  0  0  0
  161.3450  202.2870  151.2750 O   0  0  0  0  0  0  0  0  0  0  0  0
  160.7010  204.3070  150.1430 C   0  0  0  0  0  2  0  0  0  0  0  0
  161.2480  204.2900  152.5960 C   0  0  1  0  0  3  0  0  0  0  0  0
  160.6550  202.1690  149.1160 F   0  0  0  0  0  0  0  0  0  0  0  0
  160.8650  204.7750  153.8310 F   0  0  0  0  0  0  0  0  0  0  0  0
  160.9400  202.7940  152.5210 C   0  0  0  0  0  2  0  0  0  0  0  0
  160.4960  205.0190  151.4790 C   0  0  1  0  0  3  0  0  0  0  0  0
  1  2  1  0  0  0  0
  1  4  1  0  0  0  0
  2  7  1  6  0  0  0
  2  5  1  0  0  0  0
  3 20  1  6  0  0  0
  3  6  1  0  0  0  0
  4  3  1  0  0  0  0
  5  6  2  0  0  0  0
  6 38  1  0  0  0  0
  9  7  1  0  0  0  0
  9  8  2  0  0  0  0
 10  9  2  0  0  0  0
 11  9  1  0  0  0  0
 11 17  1  0  0  0  0
 12 11  2  0  0  0  0
 14 15  1  0  0  0  0
 15 16  1  0  0  0  0
 16 17  2  0  0  0  0
 16 13  1  0  0  0  0
 18 12  1  0  0  0  0
 19 12  1  0  0  0  0
 19 15  2  0  0  0  0
 20 29  1  6  0  0  0
 20 21  1  0  0  0  0
 21 23  1  0  0  0  0
 23 24  1  0  0  0  0
 24 22  2  0  0  0  0
 24 26  1  0  0  0  0
 26 25  1  6  0  0  0
 26 27  1  0  0  0  0
 27 28  1  0  0  0  0
 29 31  1  0  0  0  0
 31 30  1  6  0  0  0
 32 31  1  0  0  0  0
 33 32  1  0  0  0  0
 34 37  2  0  0  0  0
 34 35  1  0  0  0  0
 36 37  1  0  0  0  0
 36 33  1  0  0  0  0
 37 35  1  0  0  0  0
 39 43  1  6  0  0  0
 39 40  1  0  0  0  0
 40 45  1  0  0  0  0
 41 39  1  0  0  0  0
 41 46  1  0  0  0  0
 42 44  1  1  0  0  0
 45 42  1  0  0  0  0
 46 38  1  6  0  0  0
 46 42  1  0  0  0  0
M  END
>  <MODEL>
9

>  <REMARK>
 VINA RESULT:      -4.6      2.819      4.832
  Name = 
  15 active torsions:
  status: ('A' for Active; 'I' for Inactive)
    1  A    between atoms: C_2  and  N_3
    2  A    between atoms: N_3  and  S_24
    3  A    between atoms: C_4  and  C_10
    4  A    between atoms: C_7  and  C_20
    5  A    between atoms: C_8  and  S_24
    6  A    between atoms: C_10  and  C_12
    7  A    between atoms: C_10  and  C_34
    8  A    between atoms: C_12  and  N_30
    9  A    between atoms: N_15  and  C_28
   10  A    between atoms: C_20  and  C_43
   11  A    between atoms: O_25  and  C_37
   12  A    between atoms: O_25  and  C_45
   13  A    between atoms: C_28  and  C_36
   14  A    between atoms: C_34  and  C_39
   15  A    between atoms: C_36  and  C_39
                            x       y       z     vdW  Elec       q    Type
                         _______ _______ _______ _____ _____    ______ ____

>  <TORSDO>
F 15

$$$$
