=
 OpenBabel11072414313D

 36 41  0  0  1  0  0  0  0  0999 V2000
  161.4350  208.8440  148.5320 C   0  0  0  0  0  2  0  0  0  0  0  0
  160.3430  206.4510  145.7710 C   0  0  0  0  0  3  0  0  0  0  0  0
  160.8730  204.0710  150.0300 C   0  0  0  0  0  0  0  0  0  0  0  0
  161.3780  205.4400  150.2510 C   0  0  0  0  0  0  0  0  0  0  0  0
  161.6400  204.9740  144.4460 N   0  0  0  0  0  0  0  0  0  0  0  0
  161.6820  207.7380  149.5020 C   0  0  0  0  0  0  0  0  0  0  0  0
  160.1250  206.2120  148.2110 C   0  0  0  0  0  2  0  0  0  0  0  0
  162.2190  203.9190  147.9380 C   0  0  0  0  0  2  0  0  0  0  0  0
  161.6150  204.6660  146.7830 C   0  0  0  0  0  0  0  0  0  0  0  0
  161.2300  203.3860  148.9320 C   0  0  0  0  0  3  0  0  0  0  0  0
  162.7210  206.9760  151.5570 C   0  0  0  0  0  3  0  0  0  0  0  0
  162.4820  207.9860  150.6230 C   0  0  0  0  0  3  0  0  0  0  0  0
  160.7560  205.7820  146.9210 C   0  0  0  0  0  0  0  0  0  0  0  0
  162.1730  205.7060  151.3700 C   0  0  0  0  0  3  0  0  0  0  0  0
  160.8020  206.0360  144.5260 C   0  0  0  0  0  3  0  0  0  0  0  0
  162.0360  204.3170  145.5370 N   0  0  0  0  0  0  0  0  0  0  0  0
  161.1040  206.4670  149.3230 C   0  0  0  0  0  0  0  0  0  0  0  0
  160.4920  202.9620  152.2160 C   0  0  0  0  0  1  0  0  0  0  0  0
  160.0230  203.5110  150.9910 O   0  0  0  0  0  0  0  0  0  0  0  0
  162.3200  209.9640  148.8130 N   0  0  0  0  0  2  0  0  0  0  0  0
  162.9050  212.1910  148.5040 O   0  0  0  0  0  0  0  0  0  0  0  0
  162.0610  211.2770  148.3130 C   0  0  0  0  0  0  0  0  0  0  0  0
  160.8090  211.5820  147.5600 C   0  0  0  0  0  2  0  0  0  0  0  0
  157.7460  214.4480  145.7810 C   0  0  0  0  0  2  0  0  0  0  0  0
  159.9720  211.9030  144.6270 C   0  0  0  0  0  1  0  0  0  0  0  0
  161.7650  213.6190  144.7180 C   0  0  0  0  0  2  0  0  0  0  0  0
  159.4010  213.1560  148.6920 O   0  0  0  0  0  0  0  0  0  0  0  0
  160.2780  214.3510  142.9650 O   0  0  0  0  0  0  0  0  0  0  0  0
  159.8610  213.6540  146.4790 C   0  0  1  0  0  3  0  0  0  0  0  0
  160.4300  213.0480  147.7320 C   0  0  2  0  0  3  0  0  0  0  0  0
  160.3420  213.3220  145.0690 C   0  0  2  0  0  0  0  0  0  0  0  0
  161.6430  214.1390  143.2770 C   0  0  0  0  0  2  0  0  0  0  0  0
  158.1480  214.3190  144.2900 C   0  0  0  0  0  2  0  0  0  0  0  0
  159.6770  214.3670  144.2230 C   0  0  2  0  0  3  0  0  0  0  0  0
  158.4420  213.4280  146.5790 N   0  0  1  0  0  0  0  0  0  0  0  0
  158.2520  213.6290  148.0040 C   0  0  0  0  0  2  0  0  0  0  0  0
  1 20  1  0  0  0  0
  1  6  1  0  0  0  0
  2 13  1  0  0  0  0
  3  4  1  0  0  0  0
  3 19  1  0  0  0  0
  4 14  1  0  0  0  0
  5 15  1  0  0  0  0
  5 16  2  0  0  0  0
  6 12  2  0  0  0  0
  7 17  1  0  0  0  0
  8 10  1  0  0  0  0
  9 13  2  0  0  0  0
  9  8  1  0  0  0  0
 10  3  2  0  0  0  0
 12 11  1  0  0  0  0
 13  7  1  0  0  0  0
 14 11  2  0  0  0  0
 15  2  2  0  0  0  0
 16  9  1  0  0  0  0
 17  6  1  0  0  0  0
 17  4  2  0  0  0  0
 19 18  1  0  0  0  0
 22 21  2  0  0  0  0
 22 20  1  0  0  0  0
 23 30  1  0  0  0  0
 23 22  1  0  0  0  0
 24 35  1  0  0  0  0
 25 31  1  0  0  0  0
 26 31  1  0  0  0  0
 28 32  1  0  0  0  0
 28 34  1  0  0  0  0
 29 35  1  0  0  0  0
 29 30  1  0  0  0  0
 30 27  1  0  0  0  0
 31 29  1  0  0  0  0
 32 26  1  0  0  0  0
 33 24  1  0  0  0  0
 34 33  1  0  0  0  0
 34 31  1  0  0  0  0
 35 36  1  0  0  0  0
 36 27  1  0  0  0  0
M  END
>  <MODEL>
1

>  <REMARK>
 VINA RESULT:      -8.1      0.000      0.000
  Name = 
  5 active torsions:
  status: ('A' for Active; 'I' for Inactive)
    1  A    between atoms: C_2  and  O_29
    2  A    between atoms: C_3  and  C_21
    3  A    between atoms: C_3  and  C_24
    4  A    between atoms: N_5  and  C_8
    5  A    between atoms: C_8  and  C_12
                            x       y       z     vdW  Elec       q    Type
                         _______ _______ _______ _____ _____    ______ ____

>  <TORSDO>
F 5

$$$$
=
 OpenBabel11072414313D

 36 41  0  0  1  0  0  0  0  0999 V2000
  161.1450  208.7950  151.4780 C   0  0  0  0  0  2  0  0  0  0  0  0
  160.0320  212.4330  151.7440 C   0  0  0  0  0  3  0  0  0  0  0  0
  160.5010  210.4230  156.1970 C   0  0  0  0  0  0  0  0  0  0  0  0
  160.6710  209.3270  155.2240 C   0  0  0  0  0  0  0  0  0  0  0  0
  157.8610  213.3340  152.0560 N   0  0  0  0  0  0  0  0  0  0  0  0
  160.9400  208.5430  152.9330 C   0  0  0  0  0  0  0  0  0  0  0  0
  161.1440  211.0200  153.4250 C   0  0  0  0  0  2  0  0  0  0  0  0
  158.4520  211.1690  154.9900 C   0  0  0  0  0  2  0  0  0  0  0  0
  158.7450  211.9180  153.7210 C   0  0  0  0  0  0  0  0  0  0  0  0
  159.4960  211.3030  156.0580 C   0  0  0  0  0  3  0  0  0  0  0  0
  160.6560  206.9520  154.7420 C   0  0  0  0  0  3  0  0  0  0  0  0
  160.8320  207.2230  153.3840 C   0  0  0  0  0  3  0  0  0  0  0  0
  159.9240  211.7540  152.9560 C   0  0  0  0  0  0  0  0  0  0  0  0
  160.5720  208.0020  155.6590 C   0  0  0  0  0  3  0  0  0  0  0  0
  158.9790  213.2240  151.2980 C   0  0  0  0  0  3  0  0  0  0  0  0
  157.7470  212.6990  153.2230 N   0  0  0  0  0  0  0  0  0  0  0  0
  160.8850  209.6040  153.8570 C   0  0  0  0  0  0  0  0  0  0  0  0
  162.8160  210.5110  157.0820 C   0  0  0  0  0  1  0  0  0  0  0  0
  161.4050  210.5160  157.2610 O   0  0  0  0  0  0  0  0  0  0  0  0
  162.3560  208.1320  151.0200 N   0  0  0  0  0  2  0  0  0  0  0  0
  163.4880  206.9000  149.4080 O   0  0  0  0  0  0  0  0  0  0  0  0
  162.4530  207.5430  149.7220 C   0  0  0  0  0  0  0  0  0  0  0  0
  161.3410  207.6690  148.7340 C   0  0  0  0  0  2  0  0  0  0  0  0
  161.4180  203.1350  148.2950 C   0  0  0  0  0  2  0  0  0  0  0  0
  162.6430  205.9870  146.5250 C   0  0  0  0  0  1  0  0  0  0  0  0
  160.3630  206.2030  145.5670 C   0  0  0  0  0  2  0  0  0  0  0  0
  160.4410  206.0090  150.2090 O   0  0  0  0  0  0  0  0  0  0  0  0
  161.2410  204.1520  144.6500 O   0  0  0  0  0  0  0  0  0  0  0  0
  160.6590  205.3550  147.9990 C   0  0  1  0  0  3  0  0  0  0  0  0
  160.3520  206.5220  148.8970 C   0  0  2  0  0  3  0  0  0  0  0  0
  161.1970  205.4840  146.5760 C   0  0  2  0  0  0  0  0  0  0  0  0
  160.5740  205.3520  144.3030 C   0  0  0  0  0  2  0  0  0  0  0  0
  161.8720  203.0540  146.8150 C   0  0  0  0  0  2  0  0  0  0  0  0
  161.0650  204.0920  146.0310 C   0  0  2  0  0  3  0  0  0  0  0  0
  161.5330  204.5180  148.7800 N   0  0  1  0  0  0  0  0  0  0  0  0
  160.9380  204.6840  150.0940 C   0  0  0  0  0  2  0  0  0  0  0  0
  1  6  1  0  0  0  0
  2 13  1  0  0  0  0
  3 19  1  0  0  0  0
  4 14  1  0  0  0  0
  4  3  1  0  0  0  0
  5 16  2  0  0  0  0
  6 12  2  0  0  0  0
  6 17  1  0  0  0  0
  7 17  1  0  0  0  0
  8 10  1  0  0  0  0
  9  8  1  0  0  0  0
 10  3  2  0  0  0  0
 11 14  2  0  0  0  0
 12 11  1  0  0  0  0
 13  7  1  0  0  0  0
 13  9  2  0  0  0  0
 15  2  2  0  0  0  0
 15  5  1  0  0  0  0
 16  9  1  0  0  0  0
 17  4  2  0  0  0  0
 18 19  1  0  0  0  0
 20  1  1  0  0  0  0
 21 22  2  0  0  0  0
 22 20  1  0  0  0  0
 23 30  1  0  0  0  0
 23 22  1  0  0  0  0
 24 35  1  0  0  0  0
 25 31  1  0  0  0  0
 26 31  1  0  0  0  0
 28 34  1  0  0  0  0
 29 35  1  0  0  0  0
 29 30  1  0  0  0  0
 30 27  1  0  0  0  0
 31 29  1  0  0  0  0
 32 28  1  0  0  0  0
 32 26  1  0  0  0  0
 33 24  1  0  0  0  0
 34 31  1  0  0  0  0
 34 33  1  0  0  0  0
 35 36  1  0  0  0  0
 36 27  1  0  0  0  0
M  END
>  <MODEL>
2

>  <REMARK>
 VINA RESULT:      -7.9      4.423      8.357
  Name = 
  5 active torsions:
  status: ('A' for Active; 'I' for Inactive)
    1  A    between atoms: C_2  and  O_29
    2  A    between atoms: C_3  and  C_21
    3  A    between atoms: C_3  and  C_24
    4  A    between atoms: N_5  and  C_8
    5  A    between atoms: C_8  and  C_12
                            x       y       z     vdW  Elec       q    Type
                         _______ _______ _______ _____ _____    ______ ____

>  <TORSDO>
F 5

$$$$
=
 OpenBabel11072414313D

 36 41  0  0  1  0  0  0  0  0999 V2000
  161.3840  210.3710  151.8310 C   0  0  0  0  0  2  0  0  0  0  0  0
  161.1900  208.3240  155.0430 C   0  0  0  0  0  3  0  0  0  0  0  0
  157.4250  211.4570  154.7430 C   0  0  0  0  0  0  0  0  0  0  0  0
  158.3300  211.7840  153.6250 C   0  0  0  0  0  0  0  0  0  0  0  0
  161.8680  208.8900  157.2440 N   0  0  0  0  0  0  0  0  0  0  0  0
  160.2720  211.2740  152.2460 C   0  0  0  0  0  0  0  0  0  0  0  0
  159.3990  209.5190  153.8500 C   0  0  0  0  0  2  0  0  0  0  0  0
  159.3670  211.4400  156.3040 C   0  0  0  0  0  2  0  0  0  0  0  0
  160.2040  210.1970  156.2040 C   0  0  0  0  0  0  0  0  0  0  0  0
  157.9150  211.2530  155.9760 C   0  0  0  0  0  3  0  0  0  0  0  0
  159.0870  213.3710  151.9570 C   0  0  0  0  0  3  0  0  0  0  0  0
  160.1270  212.5080  151.6030 C   0  0  0  0  0  3  0  0  0  0  0  0
  160.3000  209.3960  155.0420 C   0  0  0  0  0  0  0  0  0  0  0  0
  158.1940  213.0110  152.9680 C   0  0  0  0  0  3  0  0  0  0  0  0
  161.9810  208.0820  156.1610 C   0  0  0  0  0  3  0  0  0  0  0  0
  161.0130  209.9140  157.2610 N   0  0  0  0  0  0  0  0  0  0  0  0
  159.3570  210.8940  153.2460 C   0  0  0  0  0  0  0  0  0  0  0  0
  155.2200  210.3580  155.0380 C   0  0  0  0  0  1  0  0  0  0  0  0
  156.0510  211.3700  154.4850 O   0  0  0  0  0  0  0  0  0  0  0  0
  161.5760  210.4420  150.3910 N   0  0  0  0  0  2  0  0  0  0  0  0
  162.3030  209.4710  148.4090 O   0  0  0  0  0  0  0  0  0  0  0  0
  162.0650  209.3310  149.6360 C   0  0  0  0  0  0  0  0  0  0  0  0
  162.3050  208.0070  150.2830 C   0  0  0  0  0  2  0  0  0  0  0  0
  160.8940  203.6870  149.9600 C   0  0  0  0  0  2  0  0  0  0  0  0
  163.0100  205.9220  148.1460 C   0  0  0  0  0  1  0  0  0  0  0  0
  160.9390  206.8450  147.1330 C   0  0  0  0  0  2  0  0  0  0  0  0
  160.8920  206.7800  151.7790 O   0  0  0  0  0  0  0  0  0  0  0  0
  161.1050  204.5920  146.2880 O   0  0  0  0  0  0  0  0  0  0  0  0
  160.9100  206.0220  149.5920 C   0  0  1  0  0  3  0  0  0  0  0  0
  160.9920  207.2530  150.4530 C   0  0  2  0  0  3  0  0  0  0  0  0
  161.4780  205.9230  148.1790 C   0  0  2  0  0  0  0  0  0  0  0  0
  160.8740  205.9330  145.8970 C   0  0  0  0  0  2  0  0  0  0  0  0
  161.3150  203.4150  148.4930 C   0  0  0  0  0  2  0  0  0  0  0  0
  160.9030  204.6360  147.6660 C   0  0  2  0  0  3  0  0  0  0  0  0
  161.4510  204.9700  150.4130 N   0  0  1  0  0  0  0  0  0  0  0  0
  160.9270  205.3620  151.7080 C   0  0  0  0  0  2  0  0  0  0  0  0
  1  6  1  0  0  0  0
  2 15  1  0  0  0  0
  3 10  2  0  0  0  0
  4  3  1  0  0  0  0
  5 16  1  0  0  0  0
  6 17  2  0  0  0  0
  7 13  1  0  0  0  0
  9  8  1  0  0  0  0
  9 16  2  0  0  0  0
 10  8  1  0  0  0  0
 11 14  1  0  0  0  0
 12 11  2  0  0  0  0
 12  6  1  0  0  0  0
 13  2  2  0  0  0  0
 13  9  1  0  0  0  0
 14  4  2  0  0  0  0
 15  5  2  0  0  0  0
 17  4  1  0  0  0  0
 17  7  1  0  0  0  0
 19  3  1  0  0  0  0
 19 18  1  0  0  0  0
 20  1  1  0  0  0  0
 21 22  2  0  0  0  0
 22 23  1  0  0  0  0
 22 20  1  0  0  0  0
 23 30  1  0  0  0  0
 24 35  1  0  0  0  0
 25 31  1  0  0  0  0
 26 31  1  0  0  0  0
 28 34  1  0  0  0  0
 29 35  1  0  0  0  0
 29 30  1  0  0  0  0
 30 27  1  0  0  0  0
 31 29  1  0  0  0  0
 32 28  1  0  0  0  0
 32 26  1  0  0  0  0
 33 24  1  0  0  0  0
 34 31  1  0  0  0  0
 34 33  1  0  0  0  0
 35 36  1  0  0  0  0
 36 27  1  0  0  0  0
M  END
>  <MODEL>
3

>  <REMARK>
 VINA RESULT:      -7.3      4.662      8.785
  Name = 
  5 active torsions:
  status: ('A' for Active; 'I' for Inactive)
    1  A    between atoms: C_2  and  O_29
    2  A    between atoms: C_3  and  C_21
    3  A    between atoms: C_3  and  C_24
    4  A    between atoms: N_5  and  C_8
    5  A    between atoms: C_8  and  C_12
                            x       y       z     vdW  Elec       q    Type
                         _______ _______ _______ _____ _____    ______ ____

>  <TORSDO>
F 5

$$$$
=
 OpenBabel11072414313D

 36 41  0  0  1  0  0  0  0  0999 V2000
  160.8320  207.6070  152.7740 C   0  0  0  0  0  2  0  0  0  0  0  0
  161.0980  211.1420  151.3670 C   0  0  0  0  0  3  0  0  0  0  0  0
  161.2150  211.2070  156.2720 C   0  0  0  0  0  0  0  0  0  0  0  0
  160.9030  209.8180  155.8800 C   0  0  0  0  0  0  0  0  0  0  0  0
  159.4190  212.7930  151.0920 N   0  0  0  0  0  0  0  0  0  0  0  0
  160.6790  208.0920  154.1760 C   0  0  0  0  0  0  0  0  0  0  0  0
  161.7830  210.2910  153.5730 C   0  0  0  0  0  2  0  0  0  0  0  0
  159.4630  212.0360  154.7070 C   0  0  0  0  0  2  0  0  0  0  0  0
  159.8890  212.0140  153.2660 C   0  0  0  0  0  0  0  0  0  0  0  0
  160.5760  212.2350  155.6920 C   0  0  0  0  0  3  0  0  0  0  0  0
  160.0120  207.6420  156.4650 C   0  0  0  0  0  3  0  0  0  0  0  0
  160.1530  207.2240  155.1400 C   0  0  0  0  0  3  0  0  0  0  0  0
  160.8640  211.1340  152.7400 C   0  0  0  0  0  0  0  0  0  0  0  0
  160.3830  208.9370  156.8330 C   0  0  0  0  0  3  0  0  0  0  0  0
  160.3560  211.9820  150.5440 C   0  0  0  0  0  3  0  0  0  0  0  0
  159.1900  212.8030  152.4060 N   0  0  0  0  0  0  0  0  0  0  0  0
  161.0820  209.3890  154.5490 C   0  0  0  0  0  0  0  0  0  0  0  0
  163.5430  211.0330  157.1090 C   0  0  0  0  0  1  0  0  0  0  0  0
  162.1830  211.4180  157.2610 O   0  0  0  0  0  0  0  0  0  0  0  0
  161.9240  206.6490  152.6910 N   0  0  0  0  0  2  0  0  0  0  0  0
  163.1620  205.1130  151.4650 O   0  0  0  0  0  0  0  0  0  0  0  0
  162.2720  206.0020  151.4660 C   0  0  0  0  0  0  0  0  0  0  0  0
  161.5910  206.3590  150.1860 C   0  0  0  0  0  2  0  0  0  0  0  0
  161.1010  202.4540  147.8910 C   0  0  0  0  0  2  0  0  0  0  0  0
  162.7040  205.6130  147.4270 C   0  0  0  0  0  1  0  0  0  0  0  0
  160.4840  206.4860  146.7370 C   0  0  0  0  0  2  0  0  0  0  0  0
  160.4660  204.3560  150.8670 O   0  0  0  0  0  0  0  0  0  0  0  0
  161.1100  204.9180  145.0130 O   0  0  0  0  0  0  0  0  0  0  0  0
  160.6340  204.6660  148.5790 C   0  0  1  0  0  3  0  0  0  0  0  0
  160.4630  205.3770  149.8930 C   0  0  2  0  0  3  0  0  0  0  0  0
  161.2060  205.3140  147.3200 C   0  0  2  0  0  0  0  0  0  0  0  0
  160.6060  206.2240  145.2270 C   0  0  0  0  0  2  0  0  0  0  0  0
  161.5650  202.9460  146.4960 C   0  0  0  0  0  2  0  0  0  0  0  0
  160.9070  204.3070  146.2490 C   0  0  2  0  0  3  0  0  0  0  0  0
  161.3830  203.4800  148.9050 N   0  0  1  0  0  0  0  0  0  0  0  0
  160.7930  203.1510  150.1890 C   0  0  0  0  0  2  0  0  0  0  0  0
  1  6  1  0  0  0  0
  2 13  1  0  0  0  0
  3 19  1  0  0  0  0
  4  3  1  0  0  0  0
  4 14  1  0  0  0  0
  5 16  2  0  0  0  0
  6 17  1  0  0  0  0
  6 12  2  0  0  0  0
  7 17  1  0  0  0  0
  8 10  1  0  0  0  0
  9  8  1  0  0  0  0
 10  3  2  0  0  0  0
 11 14  2  0  0  0  0
 12 11  1  0  0  0  0
 13  9  2  0  0  0  0
 13  7  1  0  0  0  0
 15  5  1  0  0  0  0
 15  2  2  0  0  0  0
 16  9  1  0  0  0  0
 17  4  2  0  0  0  0
 18 19  1  0  0  0  0
 20  1  1  0  0  0  0
 21 22  2  0  0  0  0
 22 20  1  0  0  0  0
 23 22  1  0  0  0  0
 24 35  1  0  0  0  0
 26 31  1  0  0  0  0
 28 32  1  0  0  0  0
 28 34  1  0  0  0  0
 29 35  1  0  0  0  0
 29 30  1  0  0  0  0
 30 23  1  0  0  0  0
 30 27  1  0  0  0  0
 31 25  1  0  0  0  0
 31 29  1  0  0  0  0
 32 26  1  0  0  0  0
 33 24  1  0  0  0  0
 34 33  1  0  0  0  0
 34 31  1  0  0  0  0
 35 36  1  0  0  0  0
 36 27  1  0  0  0  0
M  END
>  <MODEL>
4

>  <REMARK>
 VINA RESULT:      -7.2      4.415      8.696
  Name = 
  5 active torsions:
  status: ('A' for Active; 'I' for Inactive)
    1  A    between atoms: C_2  and  O_29
    2  A    between atoms: C_3  and  C_21
    3  A    between atoms: C_3  and  C_24
    4  A    between atoms: N_5  and  C_8
    5  A    between atoms: C_8  and  C_12
                            x       y       z     vdW  Elec       q    Type
                         _______ _______ _______ _____ _____    ______ ____

>  <TORSDO>
F 5

$$$$
=
 OpenBabel11072414313D

 36 41  0  0  1  0  0  0  0  0999 V2000
  160.4530  208.2970  152.1750 C   0  0  0  0  0  2  0  0  0  0  0  0
  159.4270  211.9690  152.2790 C   0  0  0  0  0  3  0  0  0  0  0  0
  161.3980  210.5890  156.5560 C   0  0  0  0  0  0  0  0  0  0  0  0
  161.2530  209.3620  155.7480 C   0  0  0  0  0  0  0  0  0  0  0  0
  157.4700  212.9700  153.1680 N   0  0  0  0  0  0  0  0  0  0  0  0
  160.7530  208.2580  153.6350 C   0  0  0  0  0  0  0  0  0  0  0  0
  161.0640  210.7720  153.6740 C   0  0  0  0  0  2  0  0  0  0  0  0
  159.0500  211.2200  156.0110 C   0  0  0  0  0  2  0  0  0  0  0  0
  158.8860  211.7750  154.6240 C   0  0  0  0  0  0  0  0  0  0  0  0
  160.3890  211.4700  156.6380 C   0  0  0  0  0  3  0  0  0  0  0  0
  161.1210  206.9450  155.6410 C   0  0  0  0  0  3  0  0  0  0  0  0
  160.8270  207.0170  154.2780 C   0  0  0  0  0  3  0  0  0  0  0  0
  159.7440  211.4700  153.5410 C   0  0  0  0  0  0  0  0  0  0  0  0
  161.3300  208.1150  156.3750 C   0  0  0  0  0  3  0  0  0  0  0  0
  158.2710  212.7220  152.1030 C   0  0  0  0  0  3  0  0  0  0  0  0
  157.7650  212.5080  154.3830 N   0  0  0  0  0  0  0  0  0  0  0  0
  160.9920  209.4390  154.3640 C   0  0  0  0  0  0  0  0  0  0  0  0
  163.8300  211.0800  156.5640 C   0  0  0  0  0  1  0  0  0  0  0  0
  162.6060  210.8020  157.2310 O   0  0  0  0  0  0  0  0  0  0  0  0
  161.3900  209.1780  151.4940 N   0  0  0  0  0  2  0  0  0  0  0  0
  162.7110  209.6670  149.6470 O   0  0  0  0  0  0  0  0  0  0  0  0
  161.8290  208.9290  150.1580 C   0  0  0  0  0  0  0  0  0  0  0  0
  161.2650  207.8010  149.3590 C   0  0  0  0  0  2  0  0  0  0  0  0
  161.5720  203.7010  147.3970 C   0  0  0  0  0  2  0  0  0  0  0  0
  159.7080  205.2440  150.0250 C   0  0  0  0  0  1  0  0  0  0  0  0
  161.6980  204.8840  151.4650 C   0  0  0  0  0  2  0  0  0  0  0  0
  162.6260  207.1290  147.5040 O   0  0  0  0  0  0  0  0  0  0  0  0
  160.8660  202.6730  150.9740 O   0  0  0  0  0  0  0  0  0  0  0  0
  162.0140  205.4270  148.9490 C   0  0  1  0  0  3  0  0  0  0  0  0
  162.3800  206.8840  148.8720 C   0  0  2  0  0  3  0  0  0  0  0  0
  161.1770  204.8100  150.0670 C   0  0  2  0  0  0  0  0  0  0  0  0
  161.3150  203.5050  152.0280 C   0  0  0  0  0  2  0  0  0  0  0  0
  160.8250  202.8730  148.4740 C   0  0  0  0  0  2  0  0  0  0  0  0
  161.3350  203.3360  149.8410 C   0  0  2  0  0  3  0  0  0  0  0  0
  161.4180  205.1360  147.6710 N   0  0  1  0  0  0  0  0  0  0  0  0
  162.2570  205.9470  146.8080 C   0  0  0  0  0  2  0  0  0  0  0  0
  1  6  1  0  0  0  0
  2 13  1  0  0  0  0
  3 10  2  0  0  0  0
  3 19  1  0  0  0  0
  4 14  1  0  0  0  0
  4  3  1  0  0  0  0
  5 16  2  0  0  0  0
  6 12  2  0  0  0  0
  6 17  1  0  0  0  0
  7 17  1  0  0  0  0
  8 10  1  0  0  0  0
  9  8  1  0  0  0  0
 11 14  2  0  0  0  0
 12 11  1  0  0  0  0
 13  7  1  0  0  0  0
 13  9  2  0  0  0  0
 15  2  2  0  0  0  0
 15  5  1  0  0  0  0
 16  9  1  0  0  0  0
 17  4  2  0  0  0  0
 18 19  1  0  0  0  0
 20  1  1  0  0  0  0
 21 22  2  0  0  0  0
 22 20  1  0  0  0  0
 23 22  1  0  0  0  0
 24 35  1  0  0  0  0
 24 33  1  0  0  0  0
 25 31  1  0  0  0  0
 26 32  1  0  0  0  0
 27 30  1  0  0  0  0
 28 32  1  0  0  0  0
 29 31  1  0  0  0  0
 30 29  1  0  0  0  0
 30 23  1  0  0  0  0
 31 26  1  0  0  0  0
 33 34  1  0  0  0  0
 34 31  1  0  0  0  0
 34 28  1  0  0  0  0
 35 29  1  0  0  0  0
 36 27  1  0  0  0  0
 36 35  1  0  0  0  0
M  END
>  <MODEL>
5

>  <REMARK>
 VINA RESULT:      -7.1      4.403      9.071
  Name = 
  5 active torsions:
  status: ('A' for Active; 'I' for Inactive)
    1  A    between atoms: C_2  and  O_29
    2  A    between atoms: C_3  and  C_21
    3  A    between atoms: C_3  and  C_24
    4  A    between atoms: N_5  and  C_8
    5  A    between atoms: C_8  and  C_12
                            x       y       z     vdW  Elec       q    Type
                         _______ _______ _______ _____ _____    ______ ____

>  <TORSDO>
F 5

$$$$
=
 OpenBabel11072414313D

 36 41  0  0  1  0  0  0  0  0999 V2000
  161.1870  206.5940  152.7550 C   0  0  0  0  0  2  0  0  0  0  0  0
  162.1960  209.8830  151.1070 C   0  0  0  0  0  3  0  0  0  0  0  0
  161.2770  210.5370  155.8830 C   0  0  0  0  0  0  0  0  0  0  0  0
  160.8800  209.1510  155.5670 C   0  0  0  0  0  0  0  0  0  0  0  0
  160.8400  211.6520  150.3020 N   0  0  0  0  0  0  0  0  0  0  0  0
  160.8040  207.2610  154.0320 C   0  0  0  0  0  0  0  0  0  0  0  0
  162.2830  209.2420  153.4820 C   0  0  0  0  0  2  0  0  0  0  0  0
  160.0180  211.3450  153.8900 C   0  0  0  0  0  2  0  0  0  0  0  0
  160.7340  211.1020  152.5910 C   0  0  0  0  0  0  0  0  0  0  0  0
  160.9130  211.5470  155.0760 C   0  0  0  0  0  3  0  0  0  0  0  0
  159.6140  207.1670  156.1440 C   0  0  0  0  0  3  0  0  0  0  0  0
  159.9790  206.5770  154.9320 C   0  0  0  0  0  3  0  0  0  0  0  0
  161.6770  210.0670  152.3870 C   0  0  0  0  0  0  0  0  0  0  0  0
  160.0610  208.4520  156.4590 C   0  0  0  0  0  3  0  0  0  0  0  0
  161.7600  210.6870  150.0600 C   0  0  0  0  0  3  0  0  0  0  0  0
  160.3410  211.8480  151.5230 N   0  0  0  0  0  0  0  0  0  0  0  0
  161.2810  208.5450  154.3580 C   0  0  0  0  0  0  0  0  0  0  0  0
  163.4530  210.7020  157.0620 C   0  0  0  0  0  1  0  0  0  0  0  0
  162.0330  210.7670  157.0380 O   0  0  0  0  0  0  0  0  0  0  0  0
  161.2960  205.1570  152.9520 N   0  0  0  0  0  2  0  0  0  0  0  0
  160.9280  202.9900  152.2000 O   0  0  0  0  0  0  0  0  0  0  0  0
  160.9020  204.2220  151.9460 C   0  0  0  0  0  0  0  0  0  0  0  0
  160.4510  204.6840  150.6000 C   0  0  0  0  0  2  0  0  0  0  0  0
  161.2410  204.1460  146.1450 C   0  0  0  0  0  2  0  0  0  0  0  0
  159.4850  202.4390  148.7470 C   0  0  0  0  0  1  0  0  0  0  0  0
  161.6780  201.4860  149.4160 C   0  0  0  0  0  2  0  0  0  0  0  0
  161.6580  206.1220  149.1110 O   0  0  0  0  0  0  0  0  0  0  0  0
  161.2050  200.5240  147.2550 O   0  0  0  0  0  0  0  0  0  0  0  0
  161.5600  203.8990  148.4740 C   0  0  1  0  0  3  0  0  0  0  0  0
  161.6420  204.8220  149.6590 C   0  0  2  0  0  3  0  0  0  0  0  0
  161.0010  202.4790  148.5290 C   0  0  2  0  0  0  0  0  0  0  0  0
  161.6280  200.2040  148.5680 C   0  0  0  0  0  2  0  0  0  0  0  0
  160.8040  202.6650  146.0110 C   0  0  0  0  0  2  0  0  0  0  0  0
  161.3940  201.9040  147.2000 C   0  0  2  0  0  3  0  0  0  0  0  0
  160.8660  204.6620  147.4700 N   0  0  1  0  0  0  0  0  0  0  0  0
  161.4230  205.9780  147.7180 C   0  0  0  0  0  2  0  0  0  0  0  0
  1 20  1  0  0  0  0
  1  6  1  0  0  0  0
  2 13  1  0  0  0  0
  3 19  1  0  0  0  0
  4  3  1  0  0  0  0
  4 14  1  0  0  0  0
  5 16  2  0  0  0  0
  6 17  1  0  0  0  0
  6 12  2  0  0  0  0
  7 17  1  0  0  0  0
  8 10  1  0  0  0  0
  9  8  1  0  0  0  0
 10  3  2  0  0  0  0
 11 14  2  0  0  0  0
 12 11  1  0  0  0  0
 13  9  2  0  0  0  0
 13  7  1  0  0  0  0
 15  5  1  0  0  0  0
 15  2  2  0  0  0  0
 16  9  1  0  0  0  0
 17  4  2  0  0  0  0
 19 18  1  0  0  0  0
 22 21  2  0  0  0  0
 22 20  1  0  0  0  0
 23 22  1  0  0  0  0
 24 35  1  0  0  0  0
 27 30  1  0  0  0  0
 28 32  1  0  0  0  0
 29 31  1  0  0  0  0
 29 30  1  0  0  0  0
 30 23  1  0  0  0  0
 31 25  1  0  0  0  0
 31 26  1  0  0  0  0
 32 26  1  0  0  0  0
 33 24  1  0  0  0  0
 33 34  1  0  0  0  0
 34 28  1  0  0  0  0
 34 31  1  0  0  0  0
 35 36  1  0  0  0  0
 35 29  1  0  0  0  0
 36 27  1  0  0  0  0
M  END
>  <MODEL>
6

>  <REMARK>
 VINA RESULT:      -6.7      4.388      9.172
  Name = 
  5 active torsions:
  status: ('A' for Active; 'I' for Inactive)
    1  A    between atoms: C_2  and  O_29
    2  A    between atoms: C_3  and  C_21
    3  A    between atoms: C_3  and  C_24
    4  A    between atoms: N_5  and  C_8
    5  A    between atoms: C_8  and  C_12
                            x       y       z     vdW  Elec       q    Type
                         _______ _______ _______ _____ _____    ______ ____

>  <TORSDO>
F 5

$$$$
=
 OpenBabel11072414313D

 36 41  0  0  1  0  0  0  0  0999 V2000
  161.0500  207.7190  150.1360 C   0  0  0  0  0  2  0  0  0  0  0  0
  160.4560  206.4980  146.5720 C   0  0  0  0  0  3  0  0  0  0  0  0
  160.7230  202.7160  149.6880 C   0  0  0  0  0  0  0  0  0  0  0  0
  161.0880  203.9200  150.4600 C   0  0  0  0  0  0  0  0  0  0  0  0
  162.0030  205.6730  144.9760 N   0  0  0  0  0  0  0  0  0  0  0  0
  161.2830  206.3400  150.6540 C   0  0  0  0  0  0  0  0  0  0  0  0
  160.0010  205.3550  148.7040 C   0  0  0  0  0  2  0  0  0  0  0  0
  162.2910  203.4080  147.8790 C   0  0  0  0  0  2  0  0  0  0  0  0
  161.7550  204.5110  147.0120 C   0  0  0  0  0  0  0  0  0  0  0  0
  161.2490  202.5060  148.4710 C   0  0  0  0  0  3  0  0  0  0  0  0
  162.1550  204.9010  152.4020 C   0  0  0  0  0  3  0  0  0  0  0  0
  161.9360  206.1780  151.8810 C   0  0  0  0  0  3  0  0  0  0  0  0
  160.7980  205.4620  147.4390 C   0  0  0  0  0  0  0  0  0  0  0  0
  161.7350  203.7750  151.6910 C   0  0  0  0  0  3  0  0  0  0  0  0
  161.0770  206.5970  145.3320 C   0  0  0  0  0  3  0  0  0  0  0  0
  162.3330  204.6700  145.7910 N   0  0  0  0  0  0  0  0  0  0  0  0
  160.8320  205.2090  149.9480 C   0  0  0  0  0  0  0  0  0  0  0  0
  158.9860  200.9560  149.4850 C   0  0  0  0  0  1  0  0  0  0  0  0
  159.8240  201.8070  150.2580 O   0  0  0  0  0  0  0  0  0  0  0  0
  162.1820  208.5740  150.4610 N   0  0  0  0  0  2  0  0  0  0  0  0
  163.0910  210.3280  151.6830 O   0  0  0  0  0  0  0  0  0  0  0  0
  162.1190  209.5500  151.5020 C   0  0  0  0  0  0  0  0  0  0  0  0
  160.9140  209.6680  152.3760 C   0  0  0  0  0  2  0  0  0  0  0  0
  158.7790  210.6930  156.2680 C   0  0  0  0  0  2  0  0  0  0  0  0
  158.2140  211.0710  152.7610 C   0  0  0  0  0  1  0  0  0  0  0  0
  159.7090  213.0500  152.8710 C   0  0  0  0  0  2  0  0  0  0  0  0
  161.5860  209.1780  154.6240 O   0  0  0  0  0  0  0  0  0  0  0  0
  157.7560  213.6620  154.1490 O   0  0  0  0  0  0  0  0  0  0  0  0
  160.1780  211.0000  154.3880 C   0  0  1  0  0  3  0  0  0  0  0  0
  161.2980  210.2370  153.7370 C   0  0  2  0  0  3  0  0  0  0  0  0
  159.1830  211.8770  153.6320 C   0  0  2  0  0  0  0  0  0  0  0  0
  158.6370  214.1200  153.1390 C   0  0  0  0  0  2  0  0  0  0  0  0
  157.7380  211.6930  155.7040 C   0  0  0  0  0  2  0  0  0  0  0  0
  158.4730  212.6150  154.7280 C   0  0  2  0  0  3  0  0  0  0  0  0
  159.4720  210.0140  155.1650 N   0  0  1  0  0  0  0  0  0  0  0  0
  160.5880  209.2130  155.6340 C   0  0  0  0  0  2  0  0  0  0  0  0
  1 20  1  0  0  0  0
  1  6  1  0  0  0  0
  2 13  1  0  0  0  0
  3 19  1  0  0  0  0
  3  4  1  0  0  0  0
  4 14  1  0  0  0  0
  5 15  1  0  0  0  0
  5 16  2  0  0  0  0
  6 12  2  0  0  0  0
  7 17  1  0  0  0  0
  8 10  1  0  0  0  0
  9 13  2  0  0  0  0
  9  8  1  0  0  0  0
 10  3  2  0  0  0  0
 12 11  1  0  0  0  0
 13  7  1  0  0  0  0
 14 11  2  0  0  0  0
 15  2  2  0  0  0  0
 16  9  1  0  0  0  0
 17  4  2  0  0  0  0
 17  6  1  0  0  0  0
 18 19  1  0  0  0  0
 20 22  1  0  0  0  0
 22 21  2  0  0  0  0
 22 23  1  0  0  0  0
 23 30  1  0  0  0  0
 25 31  1  0  0  0  0
 26 32  1  0  0  0  0
 26 31  1  0  0  0  0
 27 36  1  0  0  0  0
 28 34  1  0  0  0  0
 29 35  1  0  0  0  0
 30 29  1  0  0  0  0
 30 27  1  0  0  0  0
 31 29  1  0  0  0  0
 31 34  1  0  0  0  0
 32 28  1  0  0  0  0
 33 24  1  0  0  0  0
 34 33  1  0  0  0  0
 35 36  1  0  0  0  0
 35 24  1  0  0  0  0
M  END
>  <MODEL>
7

>  <REMARK>
 VINA RESULT:      -6.6      4.499      5.969
  Name = 
  5 active torsions:
  status: ('A' for Active; 'I' for Inactive)
    1  A    between atoms: C_2  and  O_29
    2  A    between atoms: C_3  and  C_21
    3  A    between atoms: C_3  and  C_24
    4  A    between atoms: N_5  and  C_8
    5  A    between atoms: C_8  and  C_12
                            x       y       z     vdW  Elec       q    Type
                         _______ _______ _______ _____ _____    ______ ____

>  <TORSDO>
F 5

$$$$
=
 OpenBabel11072414313D

 36 41  0  0  1  0  0  0  0  0999 V2000
  159.3830  210.4180  152.4750 C   0  0  0  0  0  2  0  0  0  0  0  0
  160.7950  209.3550  155.8540 C   0  0  0  0  0  3  0  0  0  0  0  0
  157.4540  212.9070  156.4020 C   0  0  0  0  0  0  0  0  0  0  0  0
  157.6780  212.7650  154.9510 C   0  0  0  0  0  0  0  0  0  0  0  0
  162.5010  210.3510  157.1650 N   0  0  0  0  0  0  0  0  0  0  0  0
  158.6500  211.5790  153.0580 C   0  0  0  0  0  0  0  0  0  0  0  0
  158.6710  210.4880  155.3440 C   0  0  0  0  0  2  0  0  0  0  0  0
  159.9180  212.9620  156.7720 C   0  0  0  0  0  2  0  0  0  0  0  0
  160.5660  211.6100  156.6850 C   0  0  0  0  0  0  0  0  0  0  0  0
  158.4950  212.9520  157.2490 C   0  0  0  0  0  3  0  0  0  0  0  0
  157.5220  213.7000  152.7210 C   0  0  0  0  0  3  0  0  0  0  0  0
  158.2240  212.6070  152.2090 C   0  0  0  0  0  3  0  0  0  0  0  0
  160.0470  210.5270  155.9370 C   0  0  0  0  0  0  0  0  0  0  0  0
  157.2530  213.7800  154.0880 C   0  0  0  0  0  3  0  0  0  0  0  0
  162.0370  209.2810  156.4750 C   0  0  0  0  0  3  0  0  0  0  0  0
  161.7920  211.4770  157.2610 N   0  0  0  0  0  0  0  0  0  0  0  0
  158.3560  211.6410  154.4330 C   0  0  0  0  0  0  0  0  0  0  0  0
  155.3620  211.8600  157.2290 C   0  0  0  0  0  1  0  0  0  0  0  0
  156.1370  212.9970  156.8670 O   0  0  0  0  0  0  0  0  0  0  0  0
  160.8140  210.6770  152.4770 N   0  0  0  0  0  2  0  0  0  0  0  0
  162.9870  209.9620  152.0740 O   0  0  0  0  0  0  0  0  0  0  0  0
  161.7550  209.7320  151.9650 C   0  0  0  0  0  0  0  0  0  0  0  0
  161.3010  208.4710  151.3080 C   0  0  0  0  0  2  0  0  0  0  0  0
  161.4770  205.7830  147.6330 C   0  0  0  0  0  2  0  0  0  0  0  0
  159.8280  205.8280  150.8030 C   0  0  0  0  0  1  0  0  0  0  0  0
  161.9370  204.9310  151.7600 C   0  0  0  0  0  2  0  0  0  0  0  0
  162.5050  208.8100  149.2640 O   0  0  0  0  0  0  0  0  0  0  0  0
  161.0850  203.1700  150.3480 O   0  0  0  0  0  0  0  0  0  0  0  0
  162.0340  206.6030  149.7790 C   0  0  1  0  0  3  0  0  0  0  0  0
  162.3790  207.9420  150.3700 C   0  0  2  0  0  3  0  0  0  0  0  0
  161.2990  205.4960  150.5320 C   0  0  2  0  0  0  0  0  0  0  0  0
  161.6150  203.4330  151.6350 C   0  0  0  0  0  2  0  0  0  0  0  0
  160.8320  204.5130  148.2450 C   0  0  0  0  0  2  0  0  0  0  0  0
  161.4510  204.3070  149.6290 C   0  0  2  0  0  3  0  0  0  0  0  0
  161.3340  206.9150  148.5600 N   0  0  1  0  0  0  0  0  0  0  0  0
  162.0900  208.0740  148.1220 C   0  0  0  0  0  2  0  0  0  0  0  0
  1 20  1  0  0  0  0
  1  6  1  0  0  0  0
  2 13  2  0  0  0  0
  2 15  1  0  0  0  0
  3 19  1  0  0  0  0
  3 10  2  0  0  0  0
  4  3  1  0  0  0  0
  5 16  1  0  0  0  0
  6 17  2  0  0  0  0
  7 13  1  0  0  0  0
  8 10  1  0  0  0  0
  9  8  1  0  0  0  0
  9 16  2  0  0  0  0
 11 14  1  0  0  0  0
 12 11  2  0  0  0  0
 12  6  1  0  0  0  0
 13  9  1  0  0  0  0
 14  4  2  0  0  0  0
 15  5  2  0  0  0  0
 17  4  1  0  0  0  0
 17  7  1  0  0  0  0
 19 18  1  0  0  0  0
 22 21  2  0  0  0  0
 22 20  1  0  0  0  0
 23 22  1  0  0  0  0
 24 33  1  0  0  0  0
 24 35  1  0  0  0  0
 27 30  1  0  0  0  0
 28 32  1  0  0  0  0
 29 30  1  0  0  0  0
 29 31  1  0  0  0  0
 30 23  1  0  0  0  0
 31 25  1  0  0  0  0
 31 26  1  0  0  0  0
 32 26  1  0  0  0  0
 33 34  1  0  0  0  0
 34 28  1  0  0  0  0
 34 31  1  0  0  0  0
 35 29  1  0  0  0  0
 36 35  1  0  0  0  0
 36 27  1  0  0  0  0
M  END
>  <MODEL>
8

>  <REMARK>
 VINA RESULT:      -6.4      5.362      9.761
  Name = 
  5 active torsions:
  status: ('A' for Active; 'I' for Inactive)
    1  A    between atoms: C_2  and  O_29
    2  A    between atoms: C_3  and  C_21
    3  A    between atoms: C_3  and  C_24
    4  A    between atoms: N_5  and  C_8
    5  A    between atoms: C_8  and  C_12
                            x       y       z     vdW  Elec       q    Type
                         _______ _______ _______ _____ _____    ______ ____

>  <TORSDO>
F 5

$$$$
=
 OpenBabel11072414313D

 36 41  0  0  1  0  0  0  0  0999 V2000
  162.5790  207.7200  150.3750 C   0  0  0  0  0  2  0  0  0  0  0  0
  162.3410  211.4540  149.6370 C   0  0  0  0  0  3  0  0  0  0  0  0
  161.1400  210.5210  154.3020 C   0  0  0  0  0  0  0  0  0  0  0  0
  161.2890  209.2100  153.6400 C   0  0  0  0  0  0  0  0  0  0  0  0
  160.4460  212.7750  149.1040 N   0  0  0  0  0  0  0  0  0  0  0  0
  161.9490  207.8650  151.7190 C   0  0  0  0  0  0  0  0  0  0  0  0
  162.6050  210.3100  151.8000 C   0  0  0  0  0  2  0  0  0  0  0  0
  159.7170  211.3080  152.4150 C   0  0  0  0  0  2  0  0  0  0  0  0
  160.5000  211.6660  151.1840 C   0  0  0  0  0  0  0  0  0  0  0  0
  160.4480  211.5060  153.7090 C   0  0  0  0  0  3  0  0  0  0  0  0
  160.8310  206.8310  153.6080 C   0  0  0  0  0  3  0  0  0  0  0  0
  161.4140  206.7320  152.3430 C   0  0  0  0  0  3  0  0  0  0  0  0
  161.7630  211.1160  150.8580 C   0  0  0  0  0  0  0  0  0  0  0  0
  160.7660  208.0680  154.2530 C   0  0  0  0  0  3  0  0  0  0  0  0
  161.6630  212.2890  148.7570 C   0  0  0  0  0  3  0  0  0  0  0  0
  159.8840  212.4690  150.2740 N   0  0  0  0  0  0  0  0  0  0  0  0
  161.9120  209.1090  152.3780 C   0  0  0  0  0  0  0  0  0  0  0  0
  163.1400  210.6990  155.7600 C   0  0  0  0  0  1  0  0  0  0  0  0
  161.7320  210.7030  155.5580 O   0  0  0  0  0  0  0  0  0  0  0  0
  161.5570  207.7210  149.3400 N   0  0  0  0  0  2  0  0  0  0  0  0
  160.3640  206.6010  147.6910 O   0  0  0  0  0  0  0  0  0  0  0  0
  161.1850  206.5310  148.6420 C   0  0  0  0  0  0  0  0  0  0  0  0
  161.7610  205.2060  149.0170 C   0  0  0  0  0  2  0  0  0  0  0  0
  161.2080  200.6830  149.0190 C   0  0  0  0  0  2  0  0  0  0  0  0
  162.6330  203.1750  146.8910 C   0  0  0  0  0  1  0  0  0  0  0  0
  160.3240  203.6190  146.0920 C   0  0  0  0  0  2  0  0  0  0  0  0
  160.7860  203.8190  150.7110 O   0  0  0  0  0  0  0  0  0  0  0  0
  160.8430  201.3950  145.3160 O   0  0  0  0  0  0  0  0  0  0  0  0
  160.7210  202.9520  148.5660 C   0  0  1  0  0  3  0  0  0  0  0  0
  160.6490  204.2240  149.3660 C   0  0  2  0  0  3  0  0  0  0  0  0
  161.1440  202.8820  147.1010 C   0  0  2  0  0  0  0  0  0  0  0  0
  160.3100  202.6410  144.9060 C   0  0  0  0  0  2  0  0  0  0  0  0
  161.5150  200.4130  147.5240 C   0  0  0  0  0  2  0  0  0  0  0  0
  160.7840  201.4800  146.7060 C   0  0  2  0  0  3  0  0  0  0  0  0
  161.5440  202.0740  149.3570 N   0  0  1  0  0  0  0  0  0  0  0  0
  161.0950  202.4330  150.6890 C   0  0  0  0  0  2  0  0  0  0  0  0
  1  6  1  0  0  0  0
  2 13  1  0  0  0  0
  3 19  1  0  0  0  0
  4 14  1  0  0  0  0
  4  3  1  0  0  0  0
  5 16  2  0  0  0  0
  6 12  2  0  0  0  0
  6 17  1  0  0  0  0
  7 17  1  0  0  0  0
  8 10  1  0  0  0  0
  9  8  1  0  0  0  0
 10  3  2  0  0  0  0
 11 14  2  0  0  0  0
 12 11  1  0  0  0  0
 13  9  2  0  0  0  0
 13  7  1  0  0  0  0
 15  5  1  0  0  0  0
 15  2  2  0  0  0  0
 16  9  1  0  0  0  0
 17  4  2  0  0  0  0
 19 18  1  0  0  0  0
 20  1  1  0  0  0  0
 21 22  2  0  0  0  0
 22 23  1  0  0  0  0
 22 20  1  0  0  0  0
 23 30  1  0  0  0  0
 24 35  1  0  0  0  0
 25 31  1  0  0  0  0
 26 31  1  0  0  0  0
 28 34  1  0  0  0  0
 29 35  1  0  0  0  0
 29 30  1  0  0  0  0
 30 27  1  0  0  0  0
 31 29  1  0  0  0  0
 32 28  1  0  0  0  0
 32 26  1  0  0  0  0
 33 24  1  0  0  0  0
 34 31  1  0  0  0  0
 34 33  1  0  0  0  0
 35 36  1  0  0  0  0
 36 27  1  0  0  0  0
M  END
>  <MODEL>
9

>  <REMARK>
 VINA RESULT:      -6.4      3.698      8.829
  Name = 
  5 active torsions:
  status: ('A' for Active; 'I' for Inactive)
    1  A    between atoms: C_2  and  O_29
    2  A    between atoms: C_3  and  C_21
    3  A    between atoms: C_3  and  C_24
    4  A    between atoms: N_5  and  C_8
    5  A    between atoms: C_8  and  C_12
                            x       y       z     vdW  Elec       q    Type
                         _______ _______ _______ _____ _____    ______ ____

>  <TORSDO>
F 5

$$$$
