=
 OpenBabel11072412083D

 50 52  0  0  1  0  0  0  0  0999 V2000
  161.9400  207.3270  152.3910 C   0  0  1  0  0  3  0  0  0  0  0  0
  161.6040  207.6760  150.9710 C   0  0  0  0  0  0  0  0  0  0  0  0
  160.3990  207.6640  150.6030 O   0  0  0  0  0  0  0  0  0  0  0  0
  162.6170  208.0410  150.0400 N   0  0  0  0  0  1  0  0  0  0  0  0
  160.8260  207.7040  153.3300 C   0  0  0  0  0  3  0  0  0  0  0  0
  160.4090  208.9680  153.4970 C   0  0  0  0  0  3  0  0  0  0  0  0
  160.9910  210.1190  152.7200 C   0  0  0  0  0  2  0  0  0  0  0  0
  157.1320  213.5370  154.0200 N   0  0  0  0  0  2  0  0  0  0  0  0
  160.8350  211.4540  153.4430 C   0  0  2  0  0  3  0  0  0  0  0  0
  156.7520  213.0050  155.2900 C   0  0  0  0  0  0  0  0  0  0  0  0
  158.8690  211.7170  156.4840 O   0  0  0  0  0  0  0  0  0  0  0  0
  157.1320  212.7420  152.8010 C   0  0  0  0  0  2  0  0  0  0  0  0
  157.2850  213.6370  156.5340 C   0  0  0  0  0  2  0  0  0  0  0  0
  158.3440  212.7690  157.2580 C   0  0  0  0  0  2  0  0  0  0  0  0
  160.5100  211.1380  154.9180 C   0  0  2  0  0  3  0  0  0  0  0  0
  156.0200  211.9820  155.3620 O   0  0  0  0  0  0  0  0  0  0  0  0
  158.0650  210.6030  152.9490 O   0  0  0  0  0  0  0  0  0  0  0  0
  159.7710  212.2920  155.5830 C   0  0  2  0  0  3  0  0  0  0  0  0
  159.7240  212.3130  152.7820 C   0  0  2  0  0  3  0  0  0  0  0  0
  158.2920  211.7940  152.8120 C   0  0  0  0  0  0  0  0  0  0  0  0
  161.2140  212.0310  155.9350 C   0  0  0  0  0  2  0  0  0  0  0  0
  160.8740  212.7880  150.5580 N   0  0  0  0  0  2  0  0  0  0  0  0
  160.1200  213.2730  151.6810 C   0  0  0  0  0  0  0  0  0  0  0  0
  159.6810  214.4530  151.6870 O   0  0  0  0  0  0  0  0  0  0  0  0
  160.8620  213.4230  149.2420 C   0  0  0  0  0  2  0  0  0  0  0  0
  161.2730  212.4670  148.1670 C   0  0  0  0  0  0  0  0  0  0  0  0
  160.4510  212.2930  147.0130 N   0  0  0  0  0  1  0  0  0  0  0  0
  162.3600  211.8390  148.2570 O   0  0  0  0  0  0  0  0  0  0  0  0
  162.2180  205.8350  152.5040 C   0  0  0  0  0  2  0  0  0  0  0  0
  161.2030  205.0200  151.7120 C   0  0  2  0  0  3  0  0  0  0  0  0
  161.4460  202.6030  151.8740 N   0  0  0  0  0  1  0  0  0  0  0  0
  160.8360  203.7660  152.4890 C   0  0  0  0  0  2  0  0  0  0  0  0
  161.8040  204.6240  150.3720 C   0  0  0  0  0  2  0  0  0  0  0  0
  160.7130  204.3060  149.3680 C   0  0  0  0  0  2  0  0  0  0  0  0
  161.2790  203.5920  148.2370 N   0  0  0  0  0  2  0  0  0  0  0  0
  163.0340  205.0920  146.9340 O   0  0  0  0  0  0  0  0  0  0  0  0
  161.5710  204.7460  146.9610 S   0  0  0  0  0  0  0  0  0  0  0  0
  160.7790  205.9960  147.2070 O   0  0  0  0  0  0  0  0  0  0  0  0
  161.0750  203.9860  145.4060 C   0  0  1  0  0  3  0  0  0  0  0  0
  160.9900  201.5670  146.4950 C   0  0  0  0  0  1  0  0  0  0  0  0
  159.0480  202.2720  145.0100 C   0  0  0  0  0  2  0  0  0  0  0  0
  160.2110  201.9750  144.2690 O   0  0  0  0  0  0  0  0  0  0  0  0
  160.4020  202.5790  145.5280 C   0  0  1  0  0  0  0  0  0  0  0  0
  160.6370  204.9420  144.4550 O   0  0  0  0  0  0  0  0  0  0  0  0
  161.7190  205.5350  143.7840 C   0  0  0  0  0  2  0  0  0  0  0  0
  161.5170  205.6110  142.2760 C   0  0  0  0  0  2  0  0  0  0  0  0
  162.2280  206.2240  139.4710 N   0  0  0  0  0  1  0  0  0  0  0  0
  161.8890  207.2630  140.3930 C   0  0  0  0  0  0  0  0  0  0  0  0
  161.7290  206.9710  141.7840 N   0  0  0  0  0  2  0  0  0  0  0  0
  161.7480  208.4410  139.9800 O   0  0  0  0  0  0  0  0  0  0  0  0
  1 29  1  6  0  0  0
  1  5  1  0  0  0  0
  2  1  1  0  0  0  0
  3  2  2  0  0  0  0
  4  2  1  0  0  0  0
  5  6  2  0  0  0  0
  7  6  1  0  0  0  0
  8 10  1  0  0  0  0
  9  7  1  6  0  0  0
  9 15  1  0  0  0  0
 10 16  2  0  0  0  0
 10 13  1  0  0  0  0
 11 14  1  0  0  0  0
 12 20  1  0  0  0  0
 12  8  1  0  0  0  0
 13 14  1  0  0  0  0
 15 18  1  0  0  0  0
 15 21  1  1  0  0  0
 18 21  1  1  0  0  0
 18 11  1  0  0  0  0
 19 23  1  6  0  0  0
 19 20  1  0  0  0  0
 19  9  1  0  0  0  0
 20 17  2  0  0  0  0
 22 23  1  0  0  0  0
 23 24  2  0  0  0  0
 25 22  1  0  0  0  0
 26 28  2  0  0  0  0
 26 25  1  0  0  0  0
 27 26  1  0  0  0  0
 30 33  1  6  0  0  0
 30 32  1  0  0  0  0
 30 29  1  0  0  0  0
 31 32  1  0  0  0  0
 34 33  1  0  0  0  0
 35 34  1  0  0  0  0
 36 37  2  0  0  0  0
 37 38  2  0  0  0  0
 37 35  1  0  0  0  0
 39 44  1  1  0  0  0
 39 43  1  0  0  0  0
 39 37  1  0  0  0  0
 41 43  1  0  0  0  0
 42 41  1  0  0  0  0
 42 43  1  0  0  0  0
 43 40  1  1  0  0  0
 45 44  1  0  0  0  0
 46 45  1  0  0  0  0
 47 48  1  0  0  0  0
 48 49  1  0  0  0  0
 49 46  1  0  0  0  0
 50 48  2  0  0  0  0
M  END
>  <MODEL>
1

>  <REMARK>
 VINA RESULT:      -3.9      0.000      0.000
  Name = 
  20 active torsions:
  status: ('A' for Active; 'I' for Inactive)
    1  A    between atoms: C_1  and  C_9
    2  A    between atoms: C_2  and  C_13
    3  A    between atoms: C_2  and  C_34
    4  A    between atoms: N_3  and  C_20
    5  A    between atoms: C_4  and  C_6
    6  A    between atoms: C_4  and  N_10
    7  A    between atoms: C_6  and  C_37
    8  A    between atoms: C_8  and  C_20
    9  A    between atoms: C_9  and  C_11
   10  A    between atoms: C_9  and  C_21
   11  A    between atoms: N_10  and  S_35
   12  A    between atoms: O_12  and  C_31
   13  A    between atoms: O_12  and  C_32
   14  A    between atoms: C_21  and  C_37
   15  A    between atoms: N_25  and  C_48
   16  A    between atoms: C_28  and  C_37
   17  A    between atoms: C_31  and  C_33
   18  A    between atoms: C_31  and  S_35
   19  A    between atoms: C_32  and  C_48
   20  A    between atoms: C_36  and  C_45
                            x       y       z     vdW  Elec       q    Type
                         _______ _______ _______ _____ _____    ______ ____

>  <TORSDO>
F 20

$$$$
=
 OpenBabel11072412083D

 50 52  0  0  1  0  0  0  0  0999 V2000
  161.0830  207.3130  152.7930 C   0  0  1  0  0  3  0  0  0  0  0  0
  161.6590  205.9300  152.8550 C   0  0  0  0  0  0  0  0  0  0  0  0
  162.7750  205.7040  152.3160 O   0  0  0  0  0  0  0  0  0  0  0  0
  160.9800  204.8750  153.5290 N   0  0  0  0  0  1  0  0  0  0  0  0
  160.8340  207.8680  154.1700 C   0  0  0  0  0  3  0  0  0  0  0  0
  160.6100  209.1700  154.4020 C   0  0  0  0  0  3  0  0  0  0  0  0
  160.5390  210.1870  153.2930 C   0  0  0  0  0  2  0  0  0  0  0  0
  156.8880  214.0090  153.8720 N   0  0  0  0  0  2  0  0  0  0  0  0
  160.4470  211.6180  153.8150 C   0  0  2  0  0  3  0  0  0  0  0  0
  156.4050  213.6880  155.1770 C   0  0  0  0  0  0  0  0  0  0  0  0
  158.3540  212.4430  156.6650 O   0  0  0  0  0  0  0  0  0  0  0  0
  156.8900  213.0510  152.7760 C   0  0  0  0  0  2  0  0  0  0  0  0
  156.9200  214.4530  156.3520 C   0  0  0  0  0  2  0  0  0  0  0  0
  157.8720  213.6260  157.2520 C   0  0  0  0  0  2  0  0  0  0  0  0
  160.0250  211.5370  155.2970 C   0  0  2  0  0  3  0  0  0  0  0  0
  155.5940  212.7380  155.3440 O   0  0  0  0  0  0  0  0  0  0  0  0
  157.6500  210.8950  153.2740 O   0  0  0  0  0  0  0  0  0  0  0  0
  159.3420  212.8220  155.7500 C   0  0  2  0  0  3  0  0  0  0  0  0
  159.4400  212.4480  152.9750 C   0  0  2  0  0  3  0  0  0  0  0  0
  157.9730  212.0370  152.9890 C   0  0  0  0  0  0  0  0  0  0  0  0
  160.7410  212.5150  156.2220 C   0  0  0  0  0  2  0  0  0  0  0  0
  160.0810  212.5480  150.5110 N   0  0  0  0  0  2  0  0  0  0  0  0
  159.9630  213.2140  151.7780 C   0  0  0  0  0  0  0  0  0  0  0  0
  160.1680  214.4520  151.8650 O   0  0  0  0  0  0  0  0  0  0  0  0
  160.0510  213.2440  149.2260 C   0  0  0  0  0  2  0  0  0  0  0  0
  158.6770  213.2530  148.6370 C   0  0  0  0  0  0  0  0  0  0  0  0
  158.5020  213.1080  147.2280 N   0  0  0  0  0  1  0  0  0  0  0  0
  157.6670  213.3540  149.3820 O   0  0  0  0  0  0  0  0  0  0  0  0
  162.0300  208.2340  152.0370 C   0  0  0  0  0  2  0  0  0  0  0  0
  162.0470  207.9100  150.5480 C   0  0  2  0  0  3  0  0  0  0  0  0
  161.6080  209.3160  148.6090 N   0  0  0  0  0  1  0  0  0  0  0  0
  162.4710  209.1390  149.7610 C   0  0  0  0  0  2  0  0  0  0  0  0
  160.6550  207.4840  150.1050 C   0  0  0  0  0  2  0  0  0  0  0  0
  160.6680  206.0550  149.5990 C   0  0  0  0  0  2  0  0  0  0  0  0
  161.8390  205.8380  148.7680 N   0  0  0  0  0  2  0  0  0  0  0  0
  162.3250  207.0370  146.4540 O   0  0  0  0  0  0  0  0  0  0  0  0
  161.3720  206.0720  147.1030 S   0  0  0  0  0  0  0  0  0  0  0  0
  159.9830  206.6370  147.0330 O   0  0  0  0  0  0  0  0  0  0  0  0
  161.4380  204.4720  146.2810 C   0  0  1  0  0  3  0  0  0  0  0  0
  161.5840  205.2870  143.7590 C   0  0  0  0  0  1  0  0  0  0  0  0
  159.9520  203.4150  144.3120 C   0  0  0  0  0  2  0  0  0  0  0  0
  159.5020  204.6730  144.7660 O   0  0  0  0  0  0  0  0  0  0  0  0
  160.8910  204.4450  144.8150 C   0  0  1  0  0  0  0  0  0  0  0  0
  162.5710  203.7140  146.6680 O   0  0  0  0  0  0  0  0  0  0  0  0
  162.2130  202.6340  147.4910 C   0  0  0  0  0  2  0  0  0  0  0  0
  160.7110  202.3820  147.5280 C   0  0  0  0  0  2  0  0  0  0  0  0
  161.0320  202.6470  150.4550 N   0  0  0  0  0  1  0  0  0  0  0  0
  160.3640  201.5200  149.8830 C   0  0  0  0  0  0  0  0  0  0  0  0
  160.3790  201.3140  148.4680 N   0  0  0  0  0  2  0  0  0  0  0  0
  159.7760  200.6980  150.6300 O   0  0  0  0  0  0  0  0  0  0  0  0
  1 29  1  1  0  0  0
  1  2  1  0  0  0  0
  1  5  1  0  0  0  0
  2  4  1  0  0  0  0
  3  2  2  0  0  0  0
  5  6  2  0  0  0  0
  7  6  1  0  0  0  0
  8 10  1  0  0  0  0
  9  7  1  6  0  0  0
  9 15  1  0  0  0  0
 10 16  2  0  0  0  0
 10 13  1  0  0  0  0
 11 14  1  0  0  0  0
 12 20  1  0  0  0  0
 12  8  1  0  0  0  0
 13 14  1  0  0  0  0
 15 18  1  0  0  0  0
 15 21  1  1  0  0  0
 18 21  1  1  0  0  0
 18 11  1  0  0  0  0
 19 23  1  6  0  0  0
 19 20  1  0  0  0  0
 19  9  1  0  0  0  0
 20 17  2  0  0  0  0
 22 23  1  0  0  0  0
 23 24  2  0  0  0  0
 25 22  1  0  0  0  0
 26 25  1  0  0  0  0
 26 28  2  0  0  0  0
 27 26  1  0  0  0  0
 30 32  1  6  0  0  0
 30 29  1  0  0  0  0
 31 32  1  0  0  0  0
 33 30  1  0  0  0  0
 34 33  1  0  0  0  0
 35 34  1  0  0  0  0
 36 37  2  0  0  0  0
 37 35  1  0  0  0  0
 38 37  2  0  0  0  0
 39 44  1  6  0  0  0
 39 37  1  0  0  0  0
 41 42  1  0  0  0  0
 41 43  1  0  0  0  0
 42 43  1  0  0  0  0
 43 40  1  6  0  0  0
 43 39  1  0  0  0  0
 44 45  1  0  0  0  0
 45 46  1  0  0  0  0
 46 49  1  0  0  0  0
 48 47  1  0  0  0  0
 48 50  2  0  0  0  0
 49 48  1  0  0  0  0
M  END
>  <MODEL>
2

>  <REMARK>
 VINA RESULT:      -3.9      2.463      4.135
  Name = 
  20 active torsions:
  status: ('A' for Active; 'I' for Inactive)
    1  A    between atoms: C_1  and  C_9
    2  A    between atoms: C_2  and  C_13
    3  A    between atoms: C_2  and  C_34
    4  A    between atoms: N_3  and  C_20
    5  A    between atoms: C_4  and  C_6
    6  A    between atoms: C_4  and  N_10
    7  A    between atoms: C_6  and  C_37
    8  A    between atoms: C_8  and  C_20
    9  A    between atoms: C_9  and  C_11
   10  A    between atoms: C_9  and  C_21
   11  A    between atoms: N_10  and  S_35
   12  A    between atoms: O_12  and  C_31
   13  A    between atoms: O_12  and  C_32
   14  A    between atoms: C_21  and  C_37
   15  A    between atoms: N_25  and  C_48
   16  A    between atoms: C_28  and  C_37
   17  A    between atoms: C_31  and  C_33
   18  A    between atoms: C_31  and  S_35
   19  A    between atoms: C_32  and  C_48
   20  A    between atoms: C_36  and  C_45
                            x       y       z     vdW  Elec       q    Type
                         _______ _______ _______ _____ _____    ______ ____

>  <TORSDO>
F 20

$$$$
=
 OpenBabel11072412083D

 50 52  0  0  1  0  0  0  0  0999 V2000
  159.5360  213.1240  145.4410 C   0  0  1  0  0  3  0  0  0  0  0  0
  158.5040  213.0870  146.5280 C   0  0  0  0  0  0  0  0  0  0  0  0
  158.6000  213.8880  147.4960 O   0  0  0  0  0  0  0  0  0  0  0  0
  157.4070  212.1810  146.4750 N   0  0  0  0  0  1  0  0  0  0  0  0
  159.2690  214.2390  144.4650 C   0  0  0  0  0  3  0  0  0  0  0  0
  159.8840  214.3300  143.2760 C   0  0  0  0  0  3  0  0  0  0  0  0
  160.8640  213.2940  142.7930 C   0  0  0  0  0  2  0  0  0  0  0  0
  161.2860  213.2350  137.4930 N   0  0  0  0  0  2  0  0  0  0  0  0
  160.3330  212.4930  141.6070 C   0  0  2  0  0  3  0  0  0  0  0  0
  162.4130  212.3700  137.3480 C   0  0  0  0  0  0  0  0  0  0  0  0
  162.5790  210.6150  139.4590 O   0  0  0  0  0  0  0  0  0  0  0  0
  161.3240  214.4490  138.2950 C   0  0  0  0  0  2  0  0  0  0  0  0
  162.1880  210.9300  137.0210 C   0  0  0  0  0  2  0  0  0  0  0  0
  162.4810  209.9790  138.2080 C   0  0  0  0  0  2  0  0  0  0  0  0
  161.3650  211.3850  141.3070 C   0  0  2  0  0  3  0  0  0  0  0  0
  163.5810  212.8010  137.5440 O   0  0  0  0  0  0  0  0  0  0  0  0
  162.3290  214.2820  140.3990 O   0  0  0  0  0  0  0  0  0  0  0  0
  161.2740  210.9200  139.8590 C   0  0  2  0  0  3  0  0  0  0  0  0
  160.1040  213.4120  140.3780 C   0  0  2  0  0  3  0  0  0  0  0  0
  161.3120  214.0980  139.7510 C   0  0  0  0  0  0  0  0  0  0  0  0
  160.7640  210.0260  140.9610 C   0  0  0  0  0  2  0  0  0  0  0  0
  158.1270  214.0520  138.9030 N   0  0  0  0  0  2  0  0  0  0  0  0
  158.7420  214.0480  140.2020 C   0  0  0  0  0  0  0  0  0  0  0  0
  158.1010  214.4500  141.2070 O   0  0  0  0  0  0  0  0  0  0  0  0
  156.6830  214.1300  138.6930 C   0  0  0  0  0  2  0  0  0  0  0  0
  156.0520  212.7740  138.6940 C   0  0  0  0  0  0  0  0  0  0  0  0
  156.5580  211.7500  137.8400 N   0  0  0  0  0  1  0  0  0  0  0  0
  155.0960  212.5200  139.4720 O   0  0  0  0  0  0  0  0  0  0  0  0
  160.9200  213.3000  146.0490 C   0  0  0  0  0  2  0  0  0  0  0  0
  160.9050  213.0390  147.5500 C   0  0  2  0  0  3  0  0  0  0  0  0
  161.0980  214.4530  149.5220 N   0  0  0  0  0  1  0  0  0  0  0  0
  161.7250  214.1000  148.2630 C   0  0  0  0  0  2  0  0  0  0  0  0
  161.5000  211.6670  147.8320 C   0  0  0  0  0  2  0  0  0  0  0  0
  162.0130  211.5890  149.2570 C   0  0  0  0  0  2  0  0  0  0  0  0
  161.0130  210.9630  150.1050 N   0  0  0  0  0  2  0  0  0  0  0  0
  161.0260  209.5690  152.3590 O   0  0  0  0  0  0  0  0  0  0  0  0
  161.8150  209.7710  151.0950 S   0  0  0  0  0  0  0  0  0  0  0  0
  163.1950  210.2410  151.4510 O   0  0  0  0  0  0  0  0  0  0  0  0
  161.9000  208.2390  150.1540 C   0  0  1  0  0  3  0  0  0  0  0  0
  160.7830  205.9010  150.7330 C   0  0  0  0  0  1  0  0  0  0  0  0
  163.0120  206.4570  151.8250 C   0  0  0  0  0  2  0  0  0  0  0  0
  161.9420  207.1870  152.3840 O   0  0  0  0  0  0  0  0  0  0  0  0
  161.8720  206.9240  151.0030 C   0  0  1  0  0  0  0  0  0  0  0  0
  161.2330  208.3350  148.9070 O   0  0  0  0  0  0  0  0  0  0  0  0
  161.7410  207.4120  147.9780 C   0  0  0  0  0  2  0  0  0  0  0  0
  160.6690  206.5010  147.3930 C   0  0  0  0  0  2  0  0  0  0  0  0
  163.0370  204.7950  146.9200 N   0  0  0  0  0  1  0  0  0  0  0  0
  162.0880  205.0470  145.8810 C   0  0  0  0  0  0  0  0  0  0  0  0
  161.0530  206.0180  146.0690 N   0  0  0  0  0  2  0  0  0  0  0  0
  162.1740  204.4260  144.7930 O   0  0  0  0  0  0  0  0  0  0  0  0
  1  5  1  6  0  0  0
  1 29  1  0  0  0  0
  1  2  1  0  0  0  0
  2  3  2  0  0  0  0
  4  2  1  0  0  0  0
  6  5  2  0  0  0  0
  7  6  1  0  0  0  0
  8 12  1  0  0  0  0
  9  7  1  1  0  0  0
 10  8  1  0  0  0  0
 10 16  2  0  0  0  0
 11 18  1  0  0  0  0
 12 20  1  0  0  0  0
 13 10  1  0  0  0  0
 13 14  1  0  0  0  0
 14 11  1  0  0  0  0
 15 21  1  1  0  0  0
 15  9  1  0  0  0  0
 18 21  1  1  0  0  0
 18 15  1  0  0  0  0
 19 23  1  1  0  0  0
 19  9  1  0  0  0  0
 20 19  1  0  0  0  0
 20 17  2  0  0  0  0
 22 23  1  0  0  0  0
 23 24  2  0  0  0  0
 25 26  1  0  0  0  0
 25 22  1  0  0  0  0
 26 28  2  0  0  0  0
 27 26  1  0  0  0  0
 30 29  1  6  0  0  0
 30 33  1  0  0  0  0
 30 32  1  0  0  0  0
 32 31  1  0  0  0  0
 33 34  1  0  0  0  0
 34 35  1  0  0  0  0
 35 37  1  0  0  0  0
 37 38  2  0  0  0  0
 37 36  2  0  0  0  0
 39 44  1  6  0  0  0
 39 43  1  0  0  0  0
 39 37  1  0  0  0  0
 41 42  1  0  0  0  0
 43 40  1  6  0  0  0
 43 41  1  0  0  0  0
 43 42  1  0  0  0  0
 45 44  1  0  0  0  0
 46 45  1  0  0  0  0
 48 49  1  0  0  0  0
 48 47  1  0  0  0  0
 49 46  1  0  0  0  0
 50 48  2  0  0  0  0
M  END
>  <MODEL>
3

>  <REMARK>
 VINA RESULT:      -3.6      4.751     11.382
  Name = 
  20 active torsions:
  status: ('A' for Active; 'I' for Inactive)
    1  A    between atoms: C_1  and  C_9
    2  A    between atoms: C_2  and  C_13
    3  A    between atoms: C_2  and  C_34
    4  A    between atoms: N_3  and  C_20
    5  A    between atoms: C_4  and  C_6
    6  A    between atoms: C_4  and  N_10
    7  A    between atoms: C_6  and  C_37
    8  A    between atoms: C_8  and  C_20
    9  A    between atoms: C_9  and  C_11
   10  A    between atoms: C_9  and  C_21
   11  A    between atoms: N_10  and  S_35
   12  A    between atoms: O_12  and  C_31
   13  A    between atoms: O_12  and  C_32
   14  A    between atoms: C_21  and  C_37
   15  A    between atoms: N_25  and  C_48
   16  A    between atoms: C_28  and  C_37
   17  A    between atoms: C_31  and  C_33
   18  A    between atoms: C_31  and  S_35
   19  A    between atoms: C_32  and  C_48
   20  A    between atoms: C_36  and  C_45
                            x       y       z     vdW  Elec       q    Type
                         _______ _______ _______ _____ _____    ______ ____

>  <TORSDO>
F 20

$$$$
=
 OpenBabel11072412083D

 50 52  0  0  1  0  0  0  0  0999 V2000
  159.4860  213.0140  145.4640 C   0  0  1  0  0  3  0  0  0  0  0  0
  158.4570  212.9610  146.5550 C   0  0  0  0  0  0  0  0  0  0  0  0
  157.6960  211.9610  146.6350 O   0  0  0  0  0  0  0  0  0  0  0  0
  158.3410  214.0090  147.5120 N   0  0  0  0  0  1  0  0  0  0  0  0
  159.3240  214.2450  144.6130 C   0  0  0  0  0  3  0  0  0  0  0  0
  160.0220  214.4490  143.4860 C   0  0  0  0  0  3  0  0  0  0  0  0
  160.9980  213.4360  142.9460 C   0  0  0  0  0  2  0  0  0  0  0  0
  160.9200  213.2090  137.6340 N   0  0  0  0  0  2  0  0  0  0  0  0
  160.3950  212.5710  141.8430 C   0  0  2  0  0  3  0  0  0  0  0  0
  162.0670  212.3880  137.4090 C   0  0  0  0  0  0  0  0  0  0  0  0
  162.5120  210.7180  139.5470 O   0  0  0  0  0  0  0  0  0  0  0  0
  160.9760  214.4510  138.3910 C   0  0  0  0  0  2  0  0  0  0  0  0
  161.8790  210.9300  137.1490 C   0  0  0  0  0  2  0  0  0  0  0  0
  162.3260  210.0340  138.3320 C   0  0  0  0  0  2  0  0  0  0  0  0
  161.4430  211.4990  141.4790 C   0  0  2  0  0  3  0  0  0  0  0  0
  163.2260  212.8760  137.4790 O   0  0  0  0  0  0  0  0  0  0  0  0
  162.1830  214.4010  140.3940 O   0  0  0  0  0  0  0  0  0  0  0  0
  161.2380  210.9800  140.0610 C   0  0  2  0  0  3  0  0  0  0  0  0
  160.0080  213.4360  140.6130 C   0  0  2  0  0  3  0  0  0  0  0  0
  161.1180  214.1510  139.8520 C   0  0  0  0  0  0  0  0  0  0  0  0
  160.8760  210.1050  141.2340 C   0  0  0  0  0  2  0  0  0  0  0  0
  158.0630  214.4010  139.2790 N   0  0  0  0  0  2  0  0  0  0  0  0
  158.6070  214.0060  140.5490 C   0  0  0  0  0  0  0  0  0  0  0  0
  157.8830  214.0100  141.5780 O   0  0  0  0  0  0  0  0  0  0  0  0
  156.6310  214.4520  138.9940 C   0  0  0  0  0  2  0  0  0  0  0  0
  156.2420  213.4580  137.9470 C   0  0  0  0  0  0  0  0  0  0  0  0
  154.9320  212.8930  137.9490 N   0  0  0  0  0  1  0  0  0  0  0  0
  157.0550  213.1390  137.0410 O   0  0  0  0  0  0  0  0  0  0  0  0
  160.8820  212.9930  146.0700 C   0  0  0  0  0  2  0  0  0  0  0  0
  160.8500  212.5400  147.5240 C   0  0  2  0  0  3  0  0  0  0  0  0
  161.3010  214.1970  149.2490 N   0  0  0  0  0  1  0  0  0  0  0  0
  161.9180  213.2770  148.3140 C   0  0  0  0  0  2  0  0  0  0  0  0
  161.1120  211.0430  147.5950 C   0  0  0  0  0  2  0  0  0  0  0  0
  162.0820  210.7220  148.7160 C   0  0  0  0  0  2  0  0  0  0  0  0
  161.3470  210.3160  149.9010 N   0  0  0  0  0  2  0  0  0  0  0  0
  163.1360  208.3960  150.2760 O   0  0  0  0  0  0  0  0  0  0  0  0
  161.6530  208.6200  150.1720 S   0  0  0  0  0  0  0  0  0  0  0  0
  161.1170  207.8110  149.0270 O   0  0  0  0  0  0  0  0  0  0  0  0
  160.8360  208.1500  151.7060 C   0  0  1  0  0  3  0  0  0  0  0  0
  160.8700  206.3950  153.6960 C   0  0  0  0  0  1  0  0  0  0  0  0
  161.5170  205.5750  151.3770 C   0  0  0  0  0  2  0  0  0  0  0  0
  162.5230  206.3700  151.9660 O   0  0  0  0  0  0  0  0  0  0  0  0
  161.1900  206.7270  152.2500 C   0  0  1  0  0  0  0  0  0  0  0  0
  160.6450  209.2540  152.5740 O   0  0  0  0  0  0  0  0  0  0  0  0
  161.8430  209.6300  153.2030 C   0  0  0  0  0  2  0  0  0  0  0  0
  161.6570  210.7400  154.2300 C   0  0  0  0  0  2  0  0  0  0  0  0
  160.6640  212.3110  156.5300 N   0  0  0  0  0  1  0  0  0  0  0  0
  159.7910  211.9260  155.4650 C   0  0  0  0  0  0  0  0  0  0  0  0
  160.2400  211.0150  154.4580 N   0  0  0  0  0  2  0  0  0  0  0  0
  158.6200  212.3780  155.4240 O   0  0  0  0  0  0  0  0  0  0  0  0
  1  5  1  1  0  0  0
  1 29  1  0  0  0  0
  1  2  1  0  0  0  0
  2  3  2  0  0  0  0
  2  4  1  0  0  0  0
  6  5  2  0  0  0  0
  7  6  1  0  0  0  0
  8 12  1  0  0  0  0
  9  7  1  1  0  0  0
 10 16  2  0  0  0  0
 10  8  1  0  0  0  0
 11 18  1  0  0  0  0
 12 20  1  0  0  0  0
 13 10  1  0  0  0  0
 13 14  1  0  0  0  0
 14 11  1  0  0  0  0
 15 21  1  1  0  0  0
 15  9  1  0  0  0  0
 18 21  1  1  0  0  0
 18 15  1  0  0  0  0
 19 23  1  1  0  0  0
 19  9  1  0  0  0  0
 20 17  2  0  0  0  0
 20 19  1  0  0  0  0
 22 23  1  0  0  0  0
 23 24  2  0  0  0  0
 25 22  1  0  0  0  0
 26 27  1  0  0  0  0
 26 25  1  0  0  0  0
 28 26  2  0  0  0  0
 30 29  1  6  0  0  0
 30 33  1  0  0  0  0
 30 32  1  0  0  0  0
 32 31  1  0  0  0  0
 33 34  1  0  0  0  0
 34 35  1  0  0  0  0
 35 37  1  0  0  0  0
 37 36  2  0  0  0  0
 37 39  1  0  0  0  0
 38 37  2  0  0  0  0
 39 43  1  0  0  0  0
 39 44  1  1  0  0  0
 41 42  1  0  0  0  0
 41 43  1  0  0  0  0
 42 43  1  0  0  0  0
 43 40  1  1  0  0  0
 44 45  1  0  0  0  0
 45 46  1  0  0  0  0
 46 49  1  0  0  0  0
 48 47  1  0  0  0  0
 49 48  1  0  0  0  0
 50 48  2  0  0  0  0
M  END
>  <MODEL>
4

>  <REMARK>
 VINA RESULT:      -3.4      4.791     12.208
  Name = 
  20 active torsions:
  status: ('A' for Active; 'I' for Inactive)
    1  A    between atoms: C_1  and  C_9
    2  A    between atoms: C_2  and  C_13
    3  A    between atoms: C_2  and  C_34
    4  A    between atoms: N_3  and  C_20
    5  A    between atoms: C_4  and  C_6
    6  A    between atoms: C_4  and  N_10
    7  A    between atoms: C_6  and  C_37
    8  A    between atoms: C_8  and  C_20
    9  A    between atoms: C_9  and  C_11
   10  A    between atoms: C_9  and  C_21
   11  A    between atoms: N_10  and  S_35
   12  A    between atoms: O_12  and  C_31
   13  A    between atoms: O_12  and  C_32
   14  A    between atoms: C_21  and  C_37
   15  A    between atoms: N_25  and  C_48
   16  A    between atoms: C_28  and  C_37
   17  A    between atoms: C_31  and  C_33
   18  A    between atoms: C_31  and  S_35
   19  A    between atoms: C_32  and  C_48
   20  A    between atoms: C_36  and  C_45
                            x       y       z     vdW  Elec       q    Type
                         _______ _______ _______ _____ _____    ______ ____

>  <TORSDO>
F 20

$$$$
=
 OpenBabel11072412083D

 50 52  0  0  1  0  0  0  0  0999 V2000
  159.5020  213.1060  145.4660 C   0  0  1  0  0  3  0  0  0  0  0  0
  158.5190  213.1250  146.5980 C   0  0  0  0  0  0  0  0  0  0  0  0
  157.8580  212.0840  146.8570 O   0  0  0  0  0  0  0  0  0  0  0  0
  158.3340  214.2890  147.3970 N   0  0  0  0  0  1  0  0  0  0  0  0
  159.2860  214.2630  144.5280 C   0  0  0  0  0  3  0  0  0  0  0  0
  159.9350  214.3880  143.3610 C   0  0  0  0  0  3  0  0  0  0  0  0
  160.9060  213.3490  142.8630 C   0  0  0  0  0  2  0  0  0  0  0  0
  160.7970  213.2250  137.5490 N   0  0  0  0  0  2  0  0  0  0  0  0
  160.3230  212.4890  141.7470 C   0  0  2  0  0  3  0  0  0  0  0  0
  161.9680  212.4460  137.2990 C   0  0  0  0  0  0  0  0  0  0  0  0
  162.4810  210.7480  139.4010 O   0  0  0  0  0  0  0  0  0  0  0  0
  160.8210  214.4530  138.3290 C   0  0  0  0  0  2  0  0  0  0  0  0
  161.8240  210.9870  137.0120 C   0  0  0  0  0  2  0  0  0  0  0  0
  162.3070  210.0830  138.1740 C   0  0  0  0  0  2  0  0  0  0  0  0
  161.4020  211.4570  141.3550 C   0  0  2  0  0  3  0  0  0  0  0  0
  163.1120  212.9680  137.3720 O   0  0  0  0  0  0  0  0  0  0  0  0
  162.0430  214.4020  140.3230 O   0  0  0  0  0  0  0  0  0  0  0  0
  161.2030  210.9600  139.9280 C   0  0  2  0  0  3  0  0  0  0  0  0
  159.9010  213.3650  140.5370 C   0  0  2  0  0  3  0  0  0  0  0  0
  160.9820  214.1290  139.7830 C   0  0  0  0  0  0  0  0  0  0  0  0
  160.8770  210.0510  141.0860 C   0  0  0  0  0  2  0  0  0  0  0  0
  157.6730  213.6440  139.3330 N   0  0  0  0  0  2  0  0  0  0  0  0
  158.4820  213.8910  140.4930 C   0  0  0  0  0  0  0  0  0  0  0  0
  157.9780  214.4250  141.5150 O   0  0  0  0  0  0  0  0  0  0  0  0
  156.2120  213.6120  139.3580 C   0  0  0  0  0  2  0  0  0  0  0  0
  155.6780  212.3500  138.7580 C   0  0  0  0  0  0  0  0  0  0  0  0
  154.3960  211.8600  139.1460 N   0  0  0  0  0  1  0  0  0  0  0  0
  156.3410  211.7330  137.8840 O   0  0  0  0  0  0  0  0  0  0  0  0
  160.9210  213.1530  146.0140 C   0  0  0  0  0  2  0  0  0  0  0  0
  160.9330  213.0450  147.5340 C   0  0  2  0  0  3  0  0  0  0  0  0
  162.9810  214.2820  147.0830 N   0  0  0  0  0  1  0  0  0  0  0  0
  162.0030  213.9610  148.1040 C   0  0  0  0  0  2  0  0  0  0  0  0
  161.2330  211.6080  147.9370 C   0  0  0  0  0  2  0  0  0  0  0  0
  161.8910  211.5610  149.3020 C   0  0  0  0  0  2  0  0  0  0  0  0
  160.8750  211.4620  150.3350 N   0  0  0  0  0  2  0  0  0  0  0  0
  162.9120  210.5720  151.7790 O   0  0  0  0  0  0  0  0  0  0  0  0
  161.4440  210.3440  151.5470 S   0  0  0  0  0  0  0  0  0  0  0  0
  161.2370  208.9320  151.0830 O   0  0  0  0  0  0  0  0  0  0  0  0
  160.5140  210.6470  153.0580 C   0  0  1  0  0  3  0  0  0  0  0  0
  162.5860  210.1400  154.6370 C   0  0  0  0  0  1  0  0  0  0  0  0
  160.2670  209.5290  155.4860 C   0  0  0  0  0  2  0  0  0  0  0  0
  160.7230  208.6460  154.4850 O   0  0  0  0  0  0  0  0  0  0  0  0
  161.1020  209.9970  154.3540 C   0  0  1  0  0  0  0  0  0  0  0  0
  159.9170  211.9330  153.0750 O   0  0  0  0  0  0  0  0  0  0  0  0
  159.7310  212.4000  154.3860 C   0  0  0  0  0  2  0  0  0  0  0  0
  158.3620  213.0320  154.6070 C   0  0  0  0  0  2  0  0  0  0  0  0
  156.7340  211.3330  156.3980 N   0  0  0  0  0  1  0  0  0  0  0  0
  156.3990  211.4860  155.0170 C   0  0  0  0  0  0  0  0  0  0  0  0
  157.2950  212.1570  154.1270 N   0  0  0  0  0  2  0  0  0  0  0  0
  155.3200  211.0140  154.5810 O   0  0  0  0  0  0  0  0  0  0  0  0
  1  5  1  6  0  0  0
  1 29  1  0  0  0  0
  1  2  1  0  0  0  0
  2  3  2  0  0  0  0
  2  4  1  0  0  0  0
  6  5  2  0  0  0  0
  7  6  1  0  0  0  0
  8 12  1  0  0  0  0
  9  7  1  1  0  0  0
 10 16  2  0  0  0  0
 10  8  1  0  0  0  0
 11 18  1  0  0  0  0
 12 20  1  0  0  0  0
 13 10  1  0  0  0  0
 13 14  1  0  0  0  0
 14 11  1  0  0  0  0
 15 21  1  1  0  0  0
 15  9  1  0  0  0  0
 18 21  1  1  0  0  0
 18 15  1  0  0  0  0
 19 23  1  1  0  0  0
 19  9  1  0  0  0  0
 20 17  2  0  0  0  0
 20 19  1  0  0  0  0
 22 25  1  0  0  0  0
 22 23  1  0  0  0  0
 23 24  2  0  0  0  0
 26 27  1  0  0  0  0
 26 25  1  0  0  0  0
 28 26  2  0  0  0  0
 30 29  1  6  0  0  0
 30 33  1  0  0  0  0
 30 32  1  0  0  0  0
 31 32  1  0  0  0  0
 33 34  1  0  0  0  0
 34 35  1  0  0  0  0
 35 37  1  0  0  0  0
 37 36  2  0  0  0  0
 37 39  1  0  0  0  0
 38 37  2  0  0  0  0
 39 44  1  1  0  0  0
 39 43  1  0  0  0  0
 42 41  1  0  0  0  0
 43 42  1  0  0  0  0
 43 40  1  1  0  0  0
 43 41  1  0  0  0  0
 44 45  1  0  0  0  0
 45 46  1  0  0  0  0
 48 47  1  0  0  0  0
 49 46  1  0  0  0  0
 49 48  1  0  0  0  0
 50 48  2  0  0  0  0
M  END
>  <MODEL>
5

>  <REMARK>
 VINA RESULT:      -3.2      5.012     12.772
  Name = 
  20 active torsions:
  status: ('A' for Active; 'I' for Inactive)
    1  A    between atoms: C_1  and  C_9
    2  A    between atoms: C_2  and  C_13
    3  A    between atoms: C_2  and  C_34
    4  A    between atoms: N_3  and  C_20
    5  A    between atoms: C_4  and  C_6
    6  A    between atoms: C_4  and  N_10
    7  A    between atoms: C_6  and  C_37
    8  A    between atoms: C_8  and  C_20
    9  A    between atoms: C_9  and  C_11
   10  A    between atoms: C_9  and  C_21
   11  A    between atoms: N_10  and  S_35
   12  A    between atoms: O_12  and  C_31
   13  A    between atoms: O_12  and  C_32
   14  A    between atoms: C_21  and  C_37
   15  A    between atoms: N_25  and  C_48
   16  A    between atoms: C_28  and  C_37
   17  A    between atoms: C_31  and  C_33
   18  A    between atoms: C_31  and  S_35
   19  A    between atoms: C_32  and  C_48
   20  A    between atoms: C_36  and  C_45
                            x       y       z     vdW  Elec       q    Type
                         _______ _______ _______ _____ _____    ______ ____

>  <TORSDO>
F 20

$$$$
=
 OpenBabel11072412083D

 50 52  0  0  1  0  0  0  0  0999 V2000
  161.7710  207.6490  150.8480 C   0  0  1  0  0  3  0  0  0  0  0  0
  161.5600  207.9290  149.3900 C   0  0  0  0  0  0  0  0  0  0  0  0
  160.6340  207.3350  148.7760 O   0  0  0  0  0  0  0  0  0  0  0  0
  162.3730  208.8680  148.6930 N   0  0  0  0  0  1  0  0  0  0  0  0
  160.5410  207.9700  151.6540 C   0  0  0  0  0  3  0  0  0  0  0  0
  160.4050  209.1030  152.3590 C   0  0  0  0  0  3  0  0  0  0  0  0
  161.4590  210.1800  152.3650 C   0  0  0  0  0  2  0  0  0  0  0  0
  157.1410  212.6910  154.1880 N   0  0  0  0  0  2  0  0  0  0  0  0
  161.1120  211.3350  153.3000 C   0  0  2  0  0  3  0  0  0  0  0  0
  156.8730  211.9020  155.3480 C   0  0  0  0  0  0  0  0  0  0  0  0
  159.1840  210.7810  156.3270 O   0  0  0  0  0  0  0  0  0  0  0  0
  157.2430  212.1190  152.8530 C   0  0  0  0  0  2  0  0  0  0  0  0
  157.3240  212.3950  156.6830 C   0  0  0  0  0  2  0  0  0  0  0  0
  158.5180  211.5940  157.2610 C   0  0  0  0  0  2  0  0  0  0  0  0
  160.8670  210.7320  154.6990 C   0  0  2  0  0  3  0  0  0  0  0  0
  156.3090  210.7810  155.2420 O   0  0  0  0  0  0  0  0  0  0  0  0
  158.4980  210.1570  152.6490 O   0  0  0  0  0  0  0  0  0  0  0  0
  159.9700  211.6300  155.5420 C   0  0  2  0  0  3  0  0  0  0  0  0
  159.8690  212.1090  152.7830 C   0  0  2  0  0  3  0  0  0  0  0  0
  158.5350  211.3750  152.7150 C   0  0  0  0  0  0  0  0  0  0  0  0
  161.4420  211.5420  155.8560 C   0  0  0  0  0  2  0  0  0  0  0  0
  160.0860  213.0830  150.4390 N   0  0  0  0  0  2  0  0  0  0  0  0
  160.0910  213.2880  151.8600 C   0  0  0  0  0  0  0  0  0  0  0  0
  160.1490  214.4530  152.3320 O   0  0  0  0  0  0  0  0  0  0  0  0
  159.7610  214.1300  149.4720 C   0  0  0  0  0  2  0  0  0  0  0  0
  160.5400  213.9710  148.2050 C   0  0  0  0  0  0  0  0  0  0  0  0
  159.9180  214.2260  146.9470 N   0  0  0  0  0  1  0  0  0  0  0  0
  161.7550  213.6450  148.2430 O   0  0  0  0  0  0  0  0  0  0  0  0
  162.1410  206.1860  151.0450 C   0  0  0  0  0  2  0  0  0  0  0  0
  161.3840  205.5750  152.2180 C   0  0  2  0  0  3  0  0  0  0  0  0
  160.8010  206.1330  154.5140 N   0  0  0  0  0  1  0  0  0  0  0  0
  161.8500  206.2120  153.5160 C   0  0  0  0  0  2  0  0  0  0  0  0
  161.6500  204.0770  152.2680 C   0  0  0  0  0  2  0  0  0  0  0  0
  160.4850  203.3060  151.6790 C   0  0  0  0  0  2  0  0  0  0  0  0
  160.3920  203.5680  150.2540 N   0  0  0  0  0  2  0  0  0  0  0  0
  159.1570  201.4860  149.1740 O   0  0  0  0  0  0  0  0  0  0  0  0
  160.5320  202.0440  149.4150 S   0  0  0  0  0  0  0  0  0  0  0  0
  161.3160  201.0700  150.2440 O   0  0  0  0  0  0  0  0  0  0  0  0
  161.3700  202.3500  147.8510 C   0  0  1  0  0  3  0  0  0  0  0  0
  161.1750  200.0500  146.5410 C   0  0  0  0  0  1  0  0  0  0  0  0
  159.7710  202.0080  145.7230 C   0  0  0  0  0  2  0  0  0  0  0  0
  161.1380  202.1550  145.4040 O   0  0  0  0  0  0  0  0  0  0  0  0
  160.8400  201.5280  146.6300 C   0  0  1  0  0  0  0  0  0  0  0  0
  161.7870  203.6980  147.7180 O   0  0  0  0  0  0  0  0  0  0  0  0
  162.8880  203.8160  146.8540 C   0  0  0  0  0  2  0  0  0  0  0  0
  162.9700  205.1770  146.1720 C   0  0  0  0  0  2  0  0  0  0  0  0
  161.2530  205.5100  143.7880 N   0  0  0  0  0  1  0  0  0  0  0  0
  160.7810  205.8530  145.0930 C   0  0  0  0  0  0  0  0  0  0  0  0
  161.6800  205.8610  146.2070 N   0  0  0  0  0  2  0  0  0  0  0  0
  159.5750  206.1640  145.2590 O   0  0  0  0  0  0  0  0  0  0  0  0
  1 29  1  6  0  0  0
  1  5  1  0  0  0  0
  2  1  1  0  0  0  0
  3  2  2  0  0  0  0
  4  2  1  0  0  0  0
  5  6  2  0  0  0  0
  6  7  1  0  0  0  0
  8 10  1  0  0  0  0
  9  7  1  6  0  0  0
  9 15  1  0  0  0  0
 10 13  1  0  0  0  0
 11 14  1  0  0  0  0
 12  8  1  0  0  0  0
 13 14  1  0  0  0  0
 15 18  1  0  0  0  0
 15 21  1  1  0  0  0
 16 10  2  0  0  0  0
 17 20  2  0  0  0  0
 18 21  1  1  0  0  0
 18 11  1  0  0  0  0
 19 23  1  6  0  0  0
 19  9  1  0  0  0  0
 20 19  1  0  0  0  0
 20 12  1  0  0  0  0
 22 23  1  0  0  0  0
 23 24  2  0  0  0  0
 25 22  1  0  0  0  0
 26 28  2  0  0  0  0
 26 25  1  0  0  0  0
 27 26  1  0  0  0  0
 30 29  1  6  0  0  0
 30 33  1  0  0  0  0
 30 32  1  0  0  0  0
 32 31  1  0  0  0  0
 34 33  1  0  0  0  0
 35 34  1  0  0  0  0
 36 37  2  0  0  0  0
 37 38  2  0  0  0  0
 37 35  1  0  0  0  0
 39 44  1  6  0  0  0
 39 37  1  0  0  0  0
 41 43  1  0  0  0  0
 42 41  1  0  0  0  0
 42 43  1  0  0  0  0
 43 40  1  1  0  0  0
 43 39  1  0  0  0  0
 45 44  1  0  0  0  0
 46 49  1  0  0  0  0
 46 45  1  0  0  0  0
 47 48  1  0  0  0  0
 48 50  2  0  0  0  0
 48 49  1  0  0  0  0
M  END
>  <MODEL>
6

>  <REMARK>
 VINA RESULT:      -3.2      1.961      2.577
  Name = 
  20 active torsions:
  status: ('A' for Active; 'I' for Inactive)
    1  A    between atoms: C_1  and  C_9
    2  A    between atoms: C_2  and  C_13
    3  A    between atoms: C_2  and  C_34
    4  A    between atoms: N_3  and  C_20
    5  A    between atoms: C_4  and  C_6
    6  A    between atoms: C_4  and  N_10
    7  A    between atoms: C_6  and  C_37
    8  A    between atoms: C_8  and  C_20
    9  A    between atoms: C_9  and  C_11
   10  A    between atoms: C_9  and  C_21
   11  A    between atoms: N_10  and  S_35
   12  A    between atoms: O_12  and  C_31
   13  A    between atoms: O_12  and  C_32
   14  A    between atoms: C_21  and  C_37
   15  A    between atoms: N_25  and  C_48
   16  A    between atoms: C_28  and  C_37
   17  A    between atoms: C_31  and  C_33
   18  A    between atoms: C_31  and  S_35
   19  A    between atoms: C_32  and  C_48
   20  A    between atoms: C_36  and  C_45
                            x       y       z     vdW  Elec       q    Type
                         _______ _______ _______ _____ _____    ______ ____

>  <TORSDO>
F 20

$$$$
=
 OpenBabel11072412083D

 50 53  0  0  1  0  0  0  0  0999 V2000
  160.5210  207.4850  153.5020 C   0  0  1  0  0  3  0  0  0  0  0  0
  160.7900  207.5970  154.9730 C   0  0  0  0  0  0  0  0  0  0  0  0
  161.9640  207.8320  155.3680 O   0  0  0  0  0  0  0  0  0  0  0  0
  159.7430  207.4660  155.9280 N   0  0  0  0  0  1  0  0  0  0  0  0
  161.5370  208.2490  152.6960 C   0  0  2  0  0  3  0  0  0  0  0  0
  161.3000  209.4700  152.1930 C   0  0  0  0  0  2  0  0  0  0  0  0
  160.0080  210.2050  152.4340 C   0  0  0  0  0  2  0  0  0  0  0  0
  157.1000  214.2380  154.3190 N   0  0  0  0  0  2  0  0  0  0  0  0
  160.2210  211.5660  153.0890 C   0  0  2  0  0  3  0  0  0  0  0  0
  156.9360  213.8080  155.6710 C   0  0  0  0  0  0  0  0  0  0  0  0
  159.0440  212.2280  156.4600 O   0  0  0  0  0  0  0  0  0  0  0  0
  156.7080  213.4200  153.1800 C   0  0  0  0  0  2  0  0  0  0  0  0
  157.8220  214.3800  156.7290 C   0  0  0  0  0  2  0  0  0  0  0  0
  158.8710  213.3710  157.2610 C   0  0  0  0  0  2  0  0  0  0  0  0
  160.1880  211.3480  154.6160 C   0  0  2  0  0  3  0  0  0  0  0  0
  156.0910  212.9210  155.9630 O   0  0  0  0  0  0  0  0  0  0  0  0
  157.3140  211.1620  153.2570 O   0  0  0  0  0  0  0  0  0  0  0  0
  159.8000  212.6240  155.3520 C   0  0  2  0  0  3  0  0  0  0  0  0
  159.1350  212.5760  152.6300 C   0  0  2  0  0  3  0  0  0  0  0  0
  157.6840  212.2970  153.0010 C   0  0  0  0  0  0  0  0  0  0  0  0
  161.2280  212.1420  155.4000 C   0  0  0  0  0  2  0  0  0  0  0  0
  160.3790  212.9810  150.4440 N   0  0  0  0  0  2  0  0  0  0  0  0
  159.4180  213.4290  151.4120 C   0  0  0  0  0  0  0  0  0  0  0  0
  158.7220  214.4530  151.1870 O   0  0  0  0  0  0  0  0  0  0  0  0
  160.3650  213.3900  149.0410 C   0  0  0  0  0  2  0  0  0  0  0  0
  161.5000  212.7840  148.2790 C   0  0  0  0  0  0  0  0  0  0  0  0
  161.4890  212.7910  146.8520 N   0  0  0  0  0  1  0  0  0  0  0  0
  162.4860  212.2940  148.8900 O   0  0  0  0  0  0  0  0  0  0  0  0
  160.5360  206.0210  153.0850 C   0  0  0  0  0  2  0  0  0  0  0  0
  161.2360  205.8330  151.7440 C   0  0  2  0  0  3  0  0  0  0  0  0
  160.8730  203.4470  152.0610 N   0  0  0  0  0  1  0  0  0  0  0  0
  161.8520  204.4460  151.6780 C   0  0  0  0  0  2  0  0  0  0  0  0
  162.3310  206.8780  151.5920 C   0  0  1  0  0  3  0  0  0  0  0  0
  162.3990  207.3790  150.1620 C   0  0  0  0  0  2  0  0  0  0  0  0
  162.5860  206.2590  149.2580 N   0  0  0  0  0  2  0  0  0  0  0  0
  161.1650  207.3110  147.2830 O   0  0  0  0  0  0  0  0  0  0  0  0
  161.1760  206.1490  148.2360 S   0  0  0  0  0  0  0  0  0  0  0  0
  159.9300  206.1920  149.0720 O   0  0  0  0  0  0  0  0  0  0  0  0
  161.2680  204.5940  147.3330 C   0  0  1  0  0  3  0  0  0  0  0  0
  160.8410  204.7200  144.7170 C   0  0  0  0  0  1  0  0  0  0  0  0
  163.2150  205.0890  145.5530 C   0  0  0  0  0  2  0  0  0  0  0  0
  162.8240  203.7350  145.6230 O   0  0  0  0  0  0  0  0  0  0  0  0
  161.8230  204.6940  145.8740 C   0  0  1  0  0  0  0  0  0  0  0  0
  161.5820  203.4990  148.1770 O   0  0  0  0  0  0  0  0  0  0  0  0
  160.4300  202.7930  148.5570 C   0  0  0  0  0  2  0  0  0  0  0  0
  160.7390  201.5200  149.3360 C   0  0  0  0  0  2  0  0  0  0  0  0
  159.8580  200.6970  146.6360 N   0  0  0  0  0  1  0  0  0  0  0  0
  161.1400  200.3180  147.1440 C   0  0  0  0  0  0  0  0  0  0  0  0
  161.4750  200.5640  148.5130 N   0  0  0  0  0  2  0  0  0  0  0  0
  161.9670  199.7500  146.3880 O   0  0  0  0  0  0  0  0  0  0  0  0
  1  2  1  1  0  0  0
  2  3  2  0  0  0  0
  2  4  1  0  0  0  0
  5  6  1  6  0  0  0
  5  1  1  0  0  0  0
  6  7  1  0  0  0  0
  8 10  1  0  0  0  0
  9  7  1  6  0  0  0
  9 15  1  0  0  0  0
 10 16  2  0  0  0  0
 10 13  1  0  0  0  0
 11 14  1  0  0  0  0
 12  8  1  0  0  0  0
 13 14  1  0  0  0  0
 15 18  1  0  0  0  0
 15 21  1  1  0  0  0
 18 21  1  1  0  0  0
 18 11  1  0  0  0  0
 19 23  1  6  0  0  0
 19 20  1  0  0  0  0
 19  9  1  0  0  0  0
 20 12  1  0  0  0  0
 20 17  2  0  0  0  0
 22 23  1  0  0  0  0
 24 23  2  0  0  0  0
 25 22  1  0  0  0  0
 26 28  2  0  0  0  0
 26 25  1  0  0  0  0
 27 26  1  0  0  0  0
 29  1  1  0  0  0  0
 30 32  1  1  0  0  0
 30 29  1  0  0  0  0
 32 31  1  0  0  0  0
 33 34  1  6  0  0  0
 33 30  1  0  0  0  0
 33  5  1  0  0  0  0
 35 34  1  0  0  0  0
 36 37  2  0  0  0  0
 37 38  2  0  0  0  0
 37 35  1  0  0  0  0
 39 44  1  1  0  0  0
 39 37  1  0  0  0  0
 41 42  1  0  0  0  0
 41 43  1  0  0  0  0
 42 43  1  0  0  0  0
 43 40  1  6  0  0  0
 43 39  1  0  0  0  0
 44 45  1  0  0  0  0
 45 46  1  0  0  0  0
 47 48  1  0  0  0  0
 48 49  1  0  0  0  0
 49 46  1  0  0  0  0
 50 48  2  0  0  0  0
M  END
>  <MODEL>
7

>  <REMARK>
 VINA RESULT:      -3.2      2.561      3.799
  Name = 
  20 active torsions:
  status: ('A' for Active; 'I' for Inactive)
    1  A    between atoms: C_1  and  C_9
    2  A    between atoms: C_2  and  C_13
    3  A    between atoms: C_2  and  C_34
    4  A    between atoms: N_3  and  C_20
    5  A    between atoms: C_4  and  C_6
    6  A    between atoms: C_4  and  N_10
    7  A    between atoms: C_6  and  C_37
    8  A    between atoms: C_8  and  C_20
    9  A    between atoms: C_9  and  C_11
   10  A    between atoms: C_9  and  C_21
   11  A    between atoms: N_10  and  S_35
   12  A    between atoms: O_12  and  C_31
   13  A    between atoms: O_12  and  C_32
   14  A    between atoms: C_21  and  C_37
   15  A    between atoms: N_25  and  C_48
   16  A    between atoms: C_28  and  C_37
   17  A    between atoms: C_31  and  C_33
   18  A    between atoms: C_31  and  S_35
   19  A    between atoms: C_32  and  C_48
   20  A    between atoms: C_36  and  C_45
                            x       y       z     vdW  Elec       q    Type
                         _______ _______ _______ _____ _____    ______ ____

>  <TORSDO>
F 20

$$$$
=
 OpenBabel11072412083D

 50 52  0  0  1  0  0  0  0  0999 V2000
  159.7360  212.9950  145.5710 C   0  0  1  0  0  3  0  0  0  0  0  0
  158.7940  212.9380  146.7360 C   0  0  0  0  0  0  0  0  0  0  0  0
  158.2030  211.8560  146.9980 O   0  0  0  0  0  0  0  0  0  0  0  0
  158.5720  214.0750  147.5640 N   0  0  0  0  0  1  0  0  0  0  0  0
  159.4600  214.1890  144.6970 C   0  0  0  0  0  3  0  0  0  0  0  0
  160.0460  214.3710  143.5050 C   0  0  0  0  0  3  0  0  0  0  0  0
  161.0010  213.3670  142.9130 C   0  0  0  0  0  2  0  0  0  0  0  0
  160.4880  213.2150  137.6230 N   0  0  0  0  0  2  0  0  0  0  0  0
  160.3460  212.4920  141.8470 C   0  0  2  0  0  3  0  0  0  0  0  0
  161.6470  212.4500  137.2880 C   0  0  0  0  0  0  0  0  0  0  0  0
  162.3430  210.7700  139.3510 O   0  0  0  0  0  0  0  0  0  0  0  0
  160.5540  214.4470  138.3950 C   0  0  0  0  0  2  0  0  0  0  0  0
  161.5020  210.9880  137.0180 C   0  0  0  0  0  2  0  0  0  0  0  0
  162.0850  210.0970  138.1430 C   0  0  0  0  0  2  0  0  0  0  0  0
  161.4060  211.4740  141.3780 C   0  0  2  0  0  3  0  0  0  0  0  0
  162.7860  212.9880  137.2700 O   0  0  0  0  0  0  0  0  0  0  0  0
  161.9250  214.4220  140.2890 O   0  0  0  0  0  0  0  0  0  0  0  0
  161.1060  210.9670  139.9730 C   0  0  2  0  0  3  0  0  0  0  0  0
  159.8200  213.3570  140.6700 C   0  0  2  0  0  3  0  0  0  0  0  0
  160.8300  214.1320  139.8330 C   0  0  0  0  0  0  0  0  0  0  0  0
  160.8820  210.0590  141.1560 C   0  0  0  0  0  2  0  0  0  0  0  0
  157.5090  213.6170  139.6300 N   0  0  0  0  0  2  0  0  0  0  0  0
  158.3960  213.8640  140.7330 C   0  0  0  0  0  0  0  0  0  0  0  0
  157.9580  214.3800  141.7950 O   0  0  0  0  0  0  0  0  0  0  0  0
  156.0540  213.5640  139.7580 C   0  0  0  0  0  2  0  0  0  0  0  0
  155.4370  212.7280  138.6830 C   0  0  0  0  0  0  0  0  0  0  0  0
  154.4980  211.7090  139.0210 N   0  0  0  0  0  1  0  0  0  0  0  0
  155.7160  212.9400  137.4740 O   0  0  0  0  0  0  0  0  0  0  0  0
  161.1730  213.0510  146.0710 C   0  0  0  0  0  2  0  0  0  0  0  0
  161.2890  212.5060  147.4890 C   0  0  2  0  0  3  0  0  0  0  0  0
  163.1910  214.0090  147.2650 N   0  0  0  0  0  1  0  0  0  0  0  0
  162.5150  213.0950  148.1660 C   0  0  0  0  0  2  0  0  0  0  0  0
  161.4190  210.9910  147.4410 C   0  0  0  0  0  2  0  0  0  0  0  0
  162.3480  210.4980  148.5330 C   0  0  0  0  0  2  0  0  0  0  0  0
  161.6660  209.5110  149.3510 N   0  0  0  0  0  2  0  0  0  0  0  0
  163.1780  207.8080  147.9930 O   0  0  0  0  0  0  0  0  0  0  0  0
  161.7890  207.9660  148.5490 S   0  0  0  0  0  0  0  0  0  0  0  0
  160.8020  207.8910  147.4210 O   0  0  0  0  0  0  0  0  0  0  0  0
  161.4480  206.6840  149.7650 C   0  0  1  0  0  3  0  0  0  0  0  0
  161.2010  208.6280  151.5550 C   0  0  0  0  0  1  0  0  0  0  0  0
  161.2920  206.2320  152.4060 C   0  0  0  0  0  2  0  0  0  0  0  0
  162.5510  206.6970  151.9700 O   0  0  0  0  0  0  0  0  0  0  0  0
  161.4280  207.1570  151.2560 C   0  0  1  0  0  0  0  0  0  0  0  0
  160.5400  205.7100  149.2800 O   0  0  0  0  0  0  0  0  0  0  0  0
  161.0780  204.9940  148.1990 C   0  0  0  0  0  2  0  0  0  0  0  0
  161.8240  203.7350  148.6270 C   0  0  0  0  0  2  0  0  0  0  0  0
  161.2290  200.8560  148.9460 N   0  0  0  0  0  1  0  0  0  0  0  0
  161.1360  201.7580  150.0520 C   0  0  0  0  0  0  0  0  0  0  0  0
  161.2450  203.1690  149.8430 N   0  0  0  0  0  2  0  0  0  0  0  0
  160.9410  201.3090  151.2090 O   0  0  0  0  0  0  0  0  0  0  0  0
  1  5  1  1  0  0  0
  1 29  1  0  0  0  0
  1  2  1  0  0  0  0
  2  3  2  0  0  0  0
  2  4  1  0  0  0  0
  6  5  2  0  0  0  0
  7  6  1  0  0  0  0
  8 12  1  0  0  0  0
  9  7  1  1  0  0  0
 10  8  1  0  0  0  0
 11 18  1  0  0  0  0
 12 20  1  0  0  0  0
 13 10  1  0  0  0  0
 13 14  1  0  0  0  0
 14 11  1  0  0  0  0
 15 21  1  1  0  0  0
 15  9  1  0  0  0  0
 16 10  2  0  0  0  0
 18 21  1  1  0  0  0
 18 15  1  0  0  0  0
 19 23  1  1  0  0  0
 19  9  1  0  0  0  0
 20 17  2  0  0  0  0
 20 19  1  0  0  0  0
 22 25  1  0  0  0  0
 22 23  1  0  0  0  0
 23 24  2  0  0  0  0
 26 27  1  0  0  0  0
 26 25  1  0  0  0  0
 28 26  2  0  0  0  0
 30 29  1  6  0  0  0
 30 32  1  0  0  0  0
 31 32  1  0  0  0  0
 33 30  1  0  0  0  0
 33 34  1  0  0  0  0
 34 35  1  0  0  0  0
 36 37  2  0  0  0  0
 37 35  1  0  0  0  0
 37 39  1  0  0  0  0
 38 37  2  0  0  0  0
 39 44  1  6  0  0  0
 39 43  1  0  0  0  0
 42 41  1  0  0  0  0
 43 40  1  1  0  0  0
 43 42  1  0  0  0  0
 43 41  1  0  0  0  0
 45 46  1  0  0  0  0
 45 44  1  0  0  0  0
 46 49  1  0  0  0  0
 47 48  1  0  0  0  0
 48 50  2  0  0  0  0
 49 48  1  0  0  0  0
M  END
>  <MODEL>
8

>  <REMARK>
 VINA RESULT:      -3.1      4.773     11.457
  Name = 
  20 active torsions:
  status: ('A' for Active; 'I' for Inactive)
    1  A    between atoms: C_1  and  C_9
    2  A    between atoms: C_2  and  C_13
    3  A    between atoms: C_2  and  C_34
    4  A    between atoms: N_3  and  C_20
    5  A    between atoms: C_4  and  C_6
    6  A    between atoms: C_4  and  N_10
    7  A    between atoms: C_6  and  C_37
    8  A    between atoms: C_8  and  C_20
    9  A    between atoms: C_9  and  C_11
   10  A    between atoms: C_9  and  C_21
   11  A    between atoms: N_10  and  S_35
   12  A    between atoms: O_12  and  C_31
   13  A    between atoms: O_12  and  C_32
   14  A    between atoms: C_21  and  C_37
   15  A    between atoms: N_25  and  C_48
   16  A    between atoms: C_28  and  C_37
   17  A    between atoms: C_31  and  C_33
   18  A    between atoms: C_31  and  S_35
   19  A    between atoms: C_32  and  C_48
   20  A    between atoms: C_36  and  C_45
                            x       y       z     vdW  Elec       q    Type
                         _______ _______ _______ _____ _____    ______ ____

>  <TORSDO>
F 20

$$$$
=
 OpenBabel11072412083D

 50 52  0  0  1  0  0  0  0  0999 V2000
  160.9610  207.7880  152.7020 C   0  0  1  0  0  3  0  0  0  0  0  0
  161.5920  206.4320  152.8140 C   0  0  0  0  0  0  0  0  0  0  0  0
  162.6640  206.1990  152.1950 O   0  0  0  0  0  0  0  0  0  0  0  0
  161.0130  205.4130  153.6220 N   0  0  0  0  0  1  0  0  0  0  0  0
  161.8770  208.8660  153.2170 C   0  0  0  0  0  3  0  0  0  0  0  0
  161.4340  210.0560  153.6480 C   0  0  0  0  0  3  0  0  0  0  0  0
  159.9680  210.4000  153.7000 C   0  0  0  0  0  2  0  0  0  0  0  0
  156.0360  213.9800  153.7480 N   0  0  0  0  0  2  0  0  0  0  0  0
  159.7170  211.8230  154.1890 C   0  0  2  0  0  3  0  0  0  0  0  0
  155.4060  213.6310  154.9820 C   0  0  0  0  0  0  0  0  0  0  0  0
  157.2140  212.5170  156.7280 O   0  0  0  0  0  0  0  0  0  0  0  0
  156.2460  213.0210  152.6730 C   0  0  0  0  0  2  0  0  0  0  0  0
  155.7100  214.4310  156.2060 C   0  0  0  0  0  2  0  0  0  0  0  0
  156.5840  213.6680  157.2330 C   0  0  0  0  0  2  0  0  0  0  0  0
  159.1070  211.7180  155.6030 C   0  0  2  0  0  3  0  0  0  0  0  0
  154.6420  212.6310  155.0500 O   0  0  0  0  0  0  0  0  0  0  0  0
  157.0680  210.9200  153.2900 O   0  0  0  0  0  0  0  0  0  0  0  0
  158.2890  212.9570  155.9480 C   0  0  2  0  0  3  0  0  0  0  0  0
  158.7800  212.5850  153.2140 C   0  0  2  0  0  3  0  0  0  0  0  0
  157.3530  212.0800  153.0380 C   0  0  0  0  0  0  0  0  0  0  0  0
  159.6300  212.7430  156.6050 C   0  0  0  0  0  2  0  0  0  0  0  0
  159.1350  213.0130  150.7280 N   0  0  0  0  0  2  0  0  0  0  0  0
  159.4080  213.3800  152.0900 C   0  0  0  0  0  0  0  0  0  0  0  0
  160.0550  214.4280  152.3460 O   0  0  0  0  0  0  0  0  0  0  0  0
  159.2160  213.9480  149.6070 C   0  0  0  0  0  2  0  0  0  0  0  0
  158.1780  213.6560  148.5710 C   0  0  0  0  0  0  0  0  0  0  0  0
  158.4480  212.7110  147.5360 N   0  0  0  0  0  1  0  0  0  0  0  0
  157.0520  214.2160  148.6240 O   0  0  0  0  0  0  0  0  0  0  0  0
  160.6050  208.0730  151.2500 C   0  0  0  0  0  2  0  0  0  0  0  0
  161.8380  208.4580  150.4410 C   0  0  2  0  0  3  0  0  0  0  0  0
  161.6240  210.7240  149.5750 N   0  0  0  0  0  1  0  0  0  0  0  0
  162.1580  209.9270  150.6630 C   0  0  0  0  0  2  0  0  0  0  0  0
  161.5690  208.2190  148.9620 C   0  0  0  0  0  2  0  0  0  0  0  0
  162.7300  207.4880  148.3180 C   0  0  0  0  0  2  0  0  0  0  0  0
  162.7930  206.1270  148.8190 N   0  0  0  0  0  2  0  0  0  0  0  0
  160.3470  206.3430  147.8200 O   0  0  0  0  0  0  0  0  0  0  0  0
  161.2300  205.3900  148.5770 S   0  0  0  0  0  0  0  0  0  0  0  0
  160.5950  205.0840  149.9020 O   0  0  0  0  0  0  0  0  0  0  0  0
  161.4740  203.8750  147.6360 C   0  0  1  0  0  3  0  0  0  0  0  0
  160.9580  203.6900  145.0390 C   0  0  0  0  0  1  0  0  0  0  0  0
  163.0840  204.8940  145.7460 C   0  0  0  0  0  2  0  0  0  0  0  0
  163.1820  203.4950  145.8980 O   0  0  0  0  0  0  0  0  0  0  0  0
  161.9210  204.0690  146.1490 C   0  0  1  0  0  0  0  0  0  0  0  0
  161.9820  202.8200  148.4350 O   0  0  0  0  0  0  0  0  0  0  0  0
  161.0050  201.8430  148.6820 C   0  0  0  0  0  2  0  0  0  0  0  0
  161.0990  200.6500  147.7390 C   0  0  0  0  0  2  0  0  0  0  0  0
  160.3990  198.6930  145.6350 N   0  0  0  0  0  1  0  0  0  0  0  0
  160.2550  200.0990  145.4160 C   0  0  0  0  0  0  0  0  0  0  0  0
  160.7690  201.0340  146.3690 N   0  0  0  0  0  2  0  0  0  0  0  0
  159.6900  200.5130  144.3740 O   0  0  0  0  0  0  0  0  0  0  0  0
  1 29  1  6  0  0  0
  1  2  1  0  0  0  0
  1  5  1  0  0  0  0
  2  4  1  0  0  0  0
  3  2  2  0  0  0  0
  5  6  2  0  0  0  0
  6  7  1  0  0  0  0
  8 10  1  0  0  0  0
  9  7  1  6  0  0  0
  9 15  1  0  0  0  0
 10 16  2  0  0  0  0
 10 13  1  0  0  0  0
 11 14  1  0  0  0  0
 12 20  1  0  0  0  0
 12  8  1  0  0  0  0
 13 14  1  0  0  0  0
 15 18  1  0  0  0  0
 15 21  1  1  0  0  0
 18 21  1  1  0  0  0
 18 11  1  0  0  0  0
 19 23  1  6  0  0  0
 19  9  1  0  0  0  0
 20 19  1  0  0  0  0
 20 17  2  0  0  0  0
 22 23  1  0  0  0  0
 23 24  2  0  0  0  0
 25 22  1  0  0  0  0
 26 28  2  0  0  0  0
 26 25  1  0  0  0  0
 27 26  1  0  0  0  0
 30 33  1  6  0  0  0
 30 32  1  0  0  0  0
 30 29  1  0  0  0  0
 31 32  1  0  0  0  0
 34 35  1  0  0  0  0
 34 33  1  0  0  0  0
 36 37  2  0  0  0  0
 37 35  1  0  0  0  0
 37 38  2  0  0  0  0
 39 44  1  1  0  0  0
 39 37  1  0  0  0  0
 41 42  1  0  0  0  0
 41 43  1  0  0  0  0
 42 43  1  0  0  0  0
 43 40  1  6  0  0  0
 43 39  1  0  0  0  0
 44 45  1  0  0  0  0
 46 45  1  0  0  0  0
 48 47  1  0  0  0  0
 48 49  1  0  0  0  0
 49 46  1  0  0  0  0
 50 48  2  0  0  0  0
M  END
>  <MODEL>
9

>  <REMARK>
 VINA RESULT:      -2.4      2.857      4.054
  Name = 
  20 active torsions:
  status: ('A' for Active; 'I' for Inactive)
    1  A    between atoms: C_1  and  C_9
    2  A    between atoms: C_2  and  C_13
    3  A    between atoms: C_2  and  C_34
    4  A    between atoms: N_3  and  C_20
    5  A    between atoms: C_4  and  C_6
    6  A    between atoms: C_4  and  N_10
    7  A    between atoms: C_6  and  C_37
    8  A    between atoms: C_8  and  C_20
    9  A    between atoms: C_9  and  C_11
   10  A    between atoms: C_9  and  C_21
   11  A    between atoms: N_10  and  S_35
   12  A    between atoms: O_12  and  C_31
   13  A    between atoms: O_12  and  C_32
   14  A    between atoms: C_21  and  C_37
   15  A    between atoms: N_25  and  C_48
   16  A    between atoms: C_28  and  C_37
   17  A    between atoms: C_31  and  C_33
   18  A    between atoms: C_31  and  S_35
   19  A    between atoms: C_32  and  C_48
   20  A    between atoms: C_36  and  C_45
                            x       y       z     vdW  Elec       q    Type
                         _______ _______ _______ _____ _____    ______ ____

>  <TORSDO>
F 20

$$$$
