=
 OpenBabel11072412293D

 33 38  0  0  1  0  0  0  0  0999 V2000
  159.8660  205.7420  144.8430 O   0  0  0  0  0  1  0  0  0  0  0  0
  160.0640  206.5840  147.5220 C   0  0  0  0  0  3  0  0  0  0  0  0
  161.3580  207.0550  149.5820 C   0  0  0  0  0  0  0  0  0  0  0  0
  161.0350  205.6260  146.9370 C   0  0  0  0  0  0  0  0  0  0  0  0
  161.8200  204.7900  147.6770 C   0  0  0  0  0  0  0  0  0  0  0  0
  160.7740  210.8030  153.9800 N   0  0  0  0  0  0  0  0  0  0  0  0
  161.2940  206.2520  152.3720 C   0  0  0  0  0  0  0  0  0  0  0  0
  160.9600  208.1080  154.4170 C   0  0  0  0  0  0  0  0  0  0  0  0
  161.0660  208.5870  153.0850 C   0  0  0  0  0  0  0  0  0  0  0  0
  161.4390  205.2990  151.4470 C   0  0  0  0  0  3  0  0  0  0  0  0
  160.7570  208.9710  155.4440 N   0  0  0  0  0  0  0  0  0  0  0  0
  162.6970  203.7600  147.0150 C   0  0  0  0  0  2  0  0  0  0  0  0
  161.2200  205.8610  153.7050 C   0  0  0  0  0  3  0  0  0  0  0  0
  161.7430  204.6510  149.1480 C   0  0  0  0  0  3  0  0  0  0  0  0
  163.1230  204.1780  145.6180 C   0  0  0  0  0  2  0  0  0  0  0  0
  160.6550  210.3040  155.2330 C   0  0  0  0  0  3  0  0  0  0  0  0
  161.2260  208.0010  150.7440 C   0  0  0  0  0  3  0  0  0  0  0  0
  161.2050  207.6280  152.0370 C   0  0  0  0  0  0  0  0  0  0  0  0
  160.9920  210.0010  152.9050 C   0  0  0  0  0  0  0  0  0  0  0  0
  161.5000  205.6280  150.0200 C   0  0  2  0  0  3  0  0  0  0  0  0
  161.1340  205.6560  145.4210 C   0  0  1  0  0  3  0  0  0  0  0  0
  161.8750  204.4680  144.8140 C   0  0  0  0  0  2  0  0  0  0  0  0
  160.1740  207.2070  148.6930 C   0  0  0  0  0  3  0  0  0  0  0  0
  161.0500  206.7810  154.6830 N   0  0  0  0  0  0  0  0  0  0  0  0
  162.1580  210.3060  150.7950 N   0  0  0  0  0  0  0  0  0  0  0  0
  161.0380  212.0390  149.9650 C   0  0  0  0  0  0  0  0  0  0  0  0
  162.0780  211.1560  149.7570 C   0  0  0  0  0  0  0  0  0  0  0  0
  161.1840  210.6280  151.6340 N   0  0  0  0  0  0  0  0  0  0  0  0
  160.4910  211.6950  151.1880 C   0  0  0  0  0  3  0  0  0  0  0  0
  163.0000  211.1310  148.5890 C   0  0  0  0  0  1  0  0  0  0  0  0
  160.0460  212.6880  147.9140 O   0  0  0  0  0  1  0  0  0  0  0  0
  160.6340  213.1750  149.0820 C   0  0  1  0  0  3  0  0  0  0  0  0
  159.6570  214.0810  149.8060 C   0  0  0  0  0  1  0  0  0  0  0  0
  2 23  1  0  0  0  0
  3 20  1  0  0  0  0
  3 17  1  0  0  0  0
  4  2  2  0  0  0  0
  4  5  1  0  0  0  0
  5 14  2  0  0  0  0
  6 16  2  0  0  0  0
  7 13  1  0  0  0  0
  8 24  1  0  0  0  0
  8 11  2  0  0  0  0
  9  8  1  0  0  0  0
 10  7  2  0  0  0  0
 12  5  1  0  0  0  0
 13 24  2  0  0  0  0
 15 12  1  0  0  0  0
 16 11  1  0  0  0  0
 17 18  2  0  0  0  0
 18  7  1  0  0  0  0
 18  9  1  0  0  0  0
 19  9  2  0  0  0  0
 19  6  1  0  0  0  0
 20 14  1  1  0  0  0
 20 10  1  0  0  0  0
 21  1  1  6  0  0  0
 21  4  1  0  0  0  0
 22 21  1  0  0  0  0
 22 15  1  0  0  0  0
 23  3  2  0  0  0  0
 25 28  1  0  0  0  0
 26 29  2  0  0  0  0
 27 26  1  0  0  0  0
 27 25  2  0  0  0  0
 28 19  1  0  0  0  0
 29 28  1  0  0  0  0
 30 27  1  0  0  0  0
 31 32  1  0  0  0  0
 32 33  1  1  0  0  0
 32 26  1  0  0  0  0
M  END
>  <MODEL>
1

>  <REMARK>
 VINA RESULT:      -7.0      0.000      0.000
  Name = 
  2 active torsions:
  status: ('A' for Active; 'I' for Inactive)
    1  A    between atoms: C_11  and  C_24
    2  A    between atoms: N_17  and  C_27
                            x       y       z     vdW  Elec       q    Type
                         _______ _______ _______ _____ _____    ______ ____

>  <TORSDO>
F 2

$$$$
=
 OpenBabel11072412293D

 33 38  0  0  1  0  0  0  0  0999 V2000
  162.7940  213.2770  145.7690 O   0  0  0  0  0  1  0  0  0  0  0  0
  162.3380  212.1700  148.3170 C   0  0  0  0  0  3  0  0  0  0  0  0
  160.8500  211.2650  150.0800 C   0  0  0  0  0  0  0  0  0  0  0  0
  161.2970  212.9670  147.6210 C   0  0  0  0  0  0  0  0  0  0  0  0
  160.2430  213.5600  148.2530 C   0  0  0  0  0  0  0  0  0  0  0  0
  161.4740  207.3170  154.2940 N   0  0  0  0  0  0  0  0  0  0  0  0
  160.2820  211.8050  152.8760 C   0  0  0  0  0  0  0  0  0  0  0  0
  160.6560  209.8710  154.8400 C   0  0  0  0  0  0  0  0  0  0  0  0
  160.8750  209.5050  153.4860 C   0  0  0  0  0  0  0  0  0  0  0  0
  160.0940  212.7920  151.9950 C   0  0  0  0  0  3  0  0  0  0  0  0
  160.8630  208.9740  155.8370 N   0  0  0  0  0  0  0  0  0  0  0  0
  159.2910  214.4530  147.5020 C   0  0  0  0  0  2  0  0  0  0  0  0
  160.0510  212.0790  154.2200 C   0  0  0  0  0  3  0  0  0  0  0  0
  160.0450  213.5750  149.7190 C   0  0  0  0  0  3  0  0  0  0  0  0
  159.1990  214.0900  146.0300 C   0  0  0  0  0  2  0  0  0  0  0  0
  161.2760  207.7130  155.5730 C   0  0  0  0  0  3  0  0  0  0  0  0
  160.9830  210.2610  151.1920 C   0  0  0  0  0  3  0  0  0  0  0  0
  160.7120  210.5100  152.4860 C   0  0  0  0  0  0  0  0  0  0  0  0
  161.2720  208.1570  153.2440 C   0  0  0  0  0  0  0  0  0  0  0  0
  160.3400  212.5890  150.5640 C   0  0  2  0  0  3  0  0  0  0  0  0
  161.4590  213.0570  146.1130 C   0  0  1  0  0  3  0  0  0  0  0  0
  160.5950  214.1270  145.4500 C   0  0  0  0  0  2  0  0  0  0  0  0
  162.1690  211.4320  149.4120 C   0  0  0  0  0  3  0  0  0  0  0  0
  160.2460  211.1240  155.1600 N   0  0  0  0  0  0  0  0  0  0  0  0
  162.3210  208.0700  151.0530 N   0  0  0  0  0  0  0  0  0  0  0  0
  161.0630  206.5230  150.0670 C   0  0  0  0  0  0  0  0  0  0  0  0
  162.1180  207.3980  149.9070 C   0  0  0  0  0  0  0  0  0  0  0  0
  161.4290  207.6230  151.9260 N   0  0  0  0  0  0  0  0  0  0  0  0
  160.6210  206.7000  151.3660 C   0  0  0  0  0  3  0  0  0  0  0  0
  162.9170  207.6070  148.6690 C   0  0  0  0  0  1  0  0  0  0  0  0
  160.4780  206.2600  147.7870 O   0  0  0  0  0  1  0  0  0  0  0  0
  160.4770  205.6230  149.0280 C   0  0  1  0  0  3  0  0  0  0  0  0
  161.2710  204.3350  148.9410 C   0  0  0  0  0  1  0  0  0  0  0  0
  2 23  1  0  0  0  0
  3 20  1  0  0  0  0
  3 17  1  0  0  0  0
  4  5  1  0  0  0  0
  4  2  2  0  0  0  0
  5 14  2  0  0  0  0
  6 16  2  0  0  0  0
  7 13  1  0  0  0  0
  8 24  1  0  0  0  0
  8 11  2  0  0  0  0
  9  8  1  0  0  0  0
 10  7  2  0  0  0  0
 12  5  1  0  0  0  0
 13 24  2  0  0  0  0
 15 12  1  0  0  0  0
 16 11  1  0  0  0  0
 17 18  2  0  0  0  0
 18  7  1  0  0  0  0
 18  9  1  0  0  0  0
 19  9  2  0  0  0  0
 19  6  1  0  0  0  0
 20 14  1  6  0  0  0
 20 10  1  0  0  0  0
 21  1  1  1  0  0  0
 21  4  1  0  0  0  0
 22 15  1  0  0  0  0
 22 21  1  0  0  0  0
 23  3  2  0  0  0  0
 25 28  1  0  0  0  0
 26 29  2  0  0  0  0
 27 26  1  0  0  0  0
 27 25  2  0  0  0  0
 28 19  1  0  0  0  0
 29 28  1  0  0  0  0
 30 27  1  0  0  0  0
 31 32  1  0  0  0  0
 32 33  1  6  0  0  0
 32 26  1  0  0  0  0
M  END
>  <MODEL>
2

>  <REMARK>
 VINA RESULT:      -6.8      1.943      6.246
  Name = 
  2 active torsions:
  status: ('A' for Active; 'I' for Inactive)
    1  A    between atoms: C_11  and  C_24
    2  A    between atoms: N_17  and  C_27
                            x       y       z     vdW  Elec       q    Type
                         _______ _______ _______ _____ _____    ______ ____

>  <TORSDO>
F 2

$$$$
=
 OpenBabel11072412293D

 33 38  0  0  1  0  0  0  0  0999 V2000
  160.6150  214.4490  147.2570 O   0  0  0  0  0  1  0  0  0  0  0  0
  160.5100  213.2240  149.7900 C   0  0  0  0  0  3  0  0  0  0  0  0
  159.3960  211.8220  151.5030 C   0  0  0  0  0  0  0  0  0  0  0  0
  159.2740  213.5970  149.0580 C   0  0  0  0  0  0  0  0  0  0  0  0
  158.0560  213.7590  149.6520 C   0  0  0  0  0  0  0  0  0  0  0  0
  161.2750  208.3250  155.7420 N   0  0  0  0  0  0  0  0  0  0  0  0
  158.5800  212.0890  154.2770 C   0  0  0  0  0  0  0  0  0  0  0  0
  159.5670  210.4010  156.2550 C   0  0  0  0  0  0  0  0  0  0  0  0
  159.9480  210.1540  154.9110 C   0  0  0  0  0  0  0  0  0  0  0  0
  158.0750  212.9490  153.3880 C   0  0  0  0  0  3  0  0  0  0  0  0
  160.0540  209.6300  157.2610 N   0  0  0  0  0  0  0  0  0  0  0  0
  156.8700  214.2540  148.8670 C   0  0  0  0  0  2  0  0  0  0  0  0
  158.2220  212.2450  155.6120 C   0  0  0  0  0  3  0  0  0  0  0  0
  157.8190  213.6860  151.1100 C   0  0  0  0  0  3  0  0  0  0  0  0
  156.9640  213.8980  147.3930 C   0  0  0  0  0  2  0  0  0  0  0  0
  160.9060  208.6080  157.0130 C   0  0  0  0  0  3  0  0  0  0  0  0
  159.8490  210.9230  152.6200 C   0  0  0  0  0  3  0  0  0  0  0  0
  159.4640  211.0420  153.9040 C   0  0  0  0  0  0  0  0  0  0  0  0
  160.8160  209.0450  154.6840 C   0  0  0  0  0  0  0  0  0  0  0  0
  158.4240  212.8650  151.9670 C   0  0  2  0  0  3  0  0  0  0  0  0
  159.4400  213.7560  147.5550 C   0  0  1  0  0  3  0  0  0  0  0  0
  158.2690  214.4450  146.8610 C   0  0  0  0  0  2  0  0  0  0  0  0
  160.5850  212.4640  150.8800 C   0  0  0  0  0  3  0  0  0  0  0  0
  158.7200  211.4160  156.5590 N   0  0  0  0  0  0  0  0  0  0  0  0
  161.6710  209.4370  152.4430 N   0  0  0  0  0  0  0  0  0  0  0  0
  161.4390  207.4070  151.5650 C   0  0  0  0  0  0  0  0  0  0  0  0
  161.8350  208.7080  151.3270 C   0  0  0  0  0  0  0  0  0  0  0  0
  161.1990  208.6190  153.3740 N   0  0  0  0  0  0  0  0  0  0  0  0
  161.0130  207.3780  152.8810 C   0  0  0  0  0  3  0  0  0  0  0  0
  162.3480  209.2570  150.0420 C   0  0  0  0  0  1  0  0  0  0  0  0
  161.2330  205.0690  151.2470 O   0  0  0  0  0  1  0  0  0  0  0  0
  161.4120  206.2820  150.5810 C   0  0  1  0  0  3  0  0  0  0  0  0
  160.2910  206.4860  149.5820 C   0  0  0  0  0  1  0  0  0  0  0  0
  2 23  1  0  0  0  0
  3 20  1  0  0  0  0
  3 17  1  0  0  0  0
  4  5  1  0  0  0  0
  4  2  2  0  0  0  0
  5 14  2  0  0  0  0
  6 16  2  0  0  0  0
  7 13  1  0  0  0  0
  8 24  1  0  0  0  0
  8 11  2  0  0  0  0
  9  8  1  0  0  0  0
 10  7  2  0  0  0  0
 12  5  1  0  0  0  0
 13 24  2  0  0  0  0
 15 12  1  0  0  0  0
 16 11  1  0  0  0  0
 17 18  2  0  0  0  0
 18  7  1  0  0  0  0
 18  9  1  0  0  0  0
 19  9  2  0  0  0  0
 19  6  1  0  0  0  0
 20 14  1  6  0  0  0
 20 10  1  0  0  0  0
 21  1  1  1  0  0  0
 21  4  1  0  0  0  0
 22 15  1  0  0  0  0
 22 21  1  0  0  0  0
 23  3  2  0  0  0  0
 25 28  1  0  0  0  0
 26 29  2  0  0  0  0
 27 26  1  0  0  0  0
 27 25  2  0  0  0  0
 28 19  1  0  0  0  0
 29 28  1  0  0  0  0
 30 27  1  0  0  0  0
 32 33  1  6  0  0  0
 32 31  1  0  0  0  0
 32 26  1  0  0  0  0
M  END
>  <MODEL>
3

>  <REMARK>
 VINA RESULT:      -6.5      2.556      6.809
  Name = 
  2 active torsions:
  status: ('A' for Active; 'I' for Inactive)
    1  A    between atoms: C_11  and  C_24
    2  A    between atoms: N_17  and  C_27
                            x       y       z     vdW  Elec       q    Type
                         _______ _______ _______ _____ _____    ______ ____

>  <TORSDO>
F 2

$$$$
=
 OpenBabel11072412293D

 33 38  0  0  1  0  0  0  0  0999 V2000
  160.6300  214.4240  146.5600 O   0  0  0  0  0  1  0  0  0  0  0  0
  160.1520  213.7230  149.2440 C   0  0  0  0  0  3  0  0  0  0  0  0
  158.8540  212.5670  151.0100 C   0  0  0  0  0  0  0  0  0  0  0  0
  159.0480  213.7940  148.2540 C   0  0  0  0  0  0  0  0  0  0  0  0
  157.7320  213.9260  148.5880 C   0  0  0  0  0  0  0  0  0  0  0  0
  160.1820  210.2270  156.1580 N   0  0  0  0  0  0  0  0  0  0  0  0
  157.5140  213.2800  153.4860 C   0  0  0  0  0  0  0  0  0  0  0  0
  158.2470  212.1470  155.9190 C   0  0  0  0  0  0  0  0  0  0  0  0
  158.8910  211.6860  154.7420 C   0  0  0  0  0  0  0  0  0  0  0  0
  157.1170  213.8820  152.3610 C   0  0  0  0  0  3  0  0  0  0  0  0
  158.5970  211.6540  157.1340 N   0  0  0  0  0  0  0  0  0  0  0  0
  156.6780  214.1120  147.5290 C   0  0  0  0  0  2  0  0  0  0  0  0
  156.9010  213.6550  154.6780 C   0  0  0  0  0  3  0  0  0  0  0  0
  157.2330  214.1160  149.9680 C   0  0  0  0  0  3  0  0  0  0  0  0
  157.0730  213.4840  146.2040 C   0  0  0  0  0  2  0  0  0  0  0  0
  159.5600  210.7110  157.2580 C   0  0  0  0  0  3  0  0  0  0  0  0
  159.1600  211.9670  152.3550 C   0  0  0  0  0  3  0  0  0  0  0  0
  158.5340  212.2930  153.5000 C   0  0  0  0  0  0  0  0  0  0  0  0
  159.8720  210.6640  154.9080 C   0  0  0  0  0  0  0  0  0  0  0  0
  157.7310  213.5590  151.0700 C   0  0  2  0  0  3  0  0  0  0  0  0
  159.4800  213.6700  146.8020 C   0  0  1  0  0  3  0  0  0  0  0  0
  158.4070  214.0650  145.7900 C   0  0  0  0  0  2  0  0  0  0  0  0
  160.0820  213.2080  150.4700 C   0  0  0  0  0  3  0  0  0  0  0  0
  157.2790  213.0960  155.8510 N   0  0  0  0  0  0  0  0  0  0  0  0
  161.1660  210.7000  152.8510 N   0  0  0  0  0  0  0  0  0  0  0  0
  161.1590  208.5360  152.3350 C   0  0  0  0  0  0  0  0  0  0  0  0
  161.5720  209.7940  151.9450 C   0  0  0  0  0  0  0  0  0  0  0  0
  160.5260  210.0350  153.8030 N   0  0  0  0  0  0  0  0  0  0  0  0
  160.4700  208.7170  153.5210 C   0  0  0  0  0  3  0  0  0  0  0  0
  162.3310  210.1350  150.7110 C   0  0  0  0  0  1  0  0  0  0  0  0
  162.6240  207.2310  151.0080 O   0  0  0  0  0  1  0  0  0  0  0  0
  161.3570  207.2550  151.5910 C   0  0  1  0  0  3  0  0  0  0  0  0
  161.2030  206.0740  152.5290 C   0  0  0  0  0  1  0  0  0  0  0  0
  2 23  1  0  0  0  0
  3 20  1  0  0  0  0
  3 17  1  0  0  0  0
  4  5  1  0  0  0  0
  4  2  2  0  0  0  0
  5 14  2  0  0  0  0
  6 16  2  0  0  0  0
  7 18  1  0  0  0  0
  7 13  1  0  0  0  0
  8 11  2  0  0  0  0
  9 19  2  0  0  0  0
  9  8  1  0  0  0  0
 10  7  2  0  0  0  0
 11 16  1  0  0  0  0
 12  5  1  0  0  0  0
 13 24  2  0  0  0  0
 15 12  1  0  0  0  0
 17 18  2  0  0  0  0
 18  9  1  0  0  0  0
 19  6  1  0  0  0  0
 20 14  1  6  0  0  0
 20 10  1  0  0  0  0
 21  1  1  1  0  0  0
 21  4  1  0  0  0  0
 22 15  1  0  0  0  0
 22 21  1  0  0  0  0
 23  3  2  0  0  0  0
 24  8  1  0  0  0  0
 25 28  1  0  0  0  0
 26 29  2  0  0  0  0
 27 26  1  0  0  0  0
 27 25  2  0  0  0  0
 28 19  1  0  0  0  0
 29 28  1  0  0  0  0
 30 27  1  0  0  0  0
 31 32  1  0  0  0  0
 32 26  1  0  0  0  0
 32 33  1  1  0  0  0
M  END
>  <MODEL>
4

>  <REMARK>
 VINA RESULT:      -6.4      3.362      7.079
  Name = 
  2 active torsions:
  status: ('A' for Active; 'I' for Inactive)
    1  A    between atoms: C_11  and  C_24
    2  A    between atoms: N_17  and  C_27
                            x       y       z     vdW  Elec       q    Type
                         _______ _______ _______ _____ _____    ______ ____

>  <TORSDO>
F 2

$$$$
=
 OpenBabel11072412293D

 33 38  0  0  1  0  0  0  0  0999 V2000
  163.5060  213.2010  147.0790 O   0  0  0  0  0  1  0  0  0  0  0  0
  162.9520  210.8600  148.5400 C   0  0  0  0  0  3  0  0  0  0  0  0
  161.3940  209.2900  149.6590 C   0  0  0  0  0  0  0  0  0  0  0  0
  162.0650  212.0470  148.6150 C   0  0  0  0  0  0  0  0  0  0  0  0
  161.1840  212.2780  149.6320 C   0  0  0  0  0  0  0  0  0  0  0  0
  161.3940  203.5630  150.6250 N   0  0  0  0  0  0  0  0  0  0  0  0
  161.0790  208.1120  152.2940 C   0  0  0  0  0  0  0  0  0  0  0  0
  161.1410  205.3570  152.6760 C   0  0  0  0  0  0  0  0  0  0  0  0
  161.2170  205.8530  151.3490 C   0  0  0  0  0  0  0  0  0  0  0  0
  161.0560  209.4440  152.1950 C   0  0  0  0  0  3  0  0  0  0  0  0
  161.2060  204.0230  152.9170 N   0  0  0  0  0  0  0  0  0  0  0  0
  160.4020  213.5620  149.7040 C   0  0  0  0  0  2  0  0  0  0  0  0
  160.9720  207.5500  153.5620 C   0  0  0  0  0  3  0  0  0  0  0  0
  161.0630  211.4350  150.8420 C   0  0  0  0  0  3  0  0  0  0  0  0
  160.1680  214.1740  148.3330 C   0  0  0  0  0  2  0  0  0  0  0  0
  161.3410  203.1320  151.9070 C   0  0  0  0  0  3  0  0  0  0  0  0
  161.3710  207.8130  149.9410 C   0  0  0  0  0  2  0  0  0  0  0  0
  161.2170  207.2680  151.1610 C   0  0  0  0  0  0  0  0  0  0  0  0
  161.3190  204.8820  150.3080 C   0  0  0  0  0  0  0  0  0  0  0  0
  161.1890  210.1110  150.8960 C   0  0  0  0  0  0  0  0  0  0  0  0
  162.1710  213.0030  147.4380 C   0  0  1  0  0  3  0  0  0  0  0  0
  161.5140  214.3610  147.6690 C   0  0  0  0  0  2  0  0  0  0  0  0
  162.6870  209.6430  149.0130 C   0  0  0  0  0  3  0  0  0  0  0  0
  161.0120  206.2070  153.7250 N   0  0  0  0  0  0  0  0  0  0  0  0
  160.2920  205.8590  148.3330 N   0  0  0  0  0  0  0  0  0  0  0  0
  161.8070  205.3330  146.7920 C   0  0  0  0  0  0  0  0  0  0  0  0
  160.5890  205.9390  147.0250 C   0  0  0  0  0  0  0  0  0  0  0  0
  161.3020  205.2330  148.9210 N   0  0  0  0  0  0  0  0  0  0  0  0
  162.2370  204.8670  148.0210 C   0  0  0  0  0  3  0  0  0  0  0  0
  159.7060  206.5740  146.0090 C   0  0  0  0  0  1  0  0  0  0  0  0
  163.6750  204.4470  145.6350 O   0  0  0  0  0  1  0  0  0  0  0  0
  162.4850  205.1570  145.4720 C   0  0  1  0  0  3  0  0  0  0  0  0
  161.5760  204.4160  144.5100 C   0  0  0  0  0  1  0  0  0  0  0  0
  2  4  2  0  0  0  0
  2 23  1  0  0  0  0
  3 17  1  0  0  0  0
  3 20  1  0  0  0  0
  4  5  1  0  0  0  0
  5 12  1  0  0  0  0
  5 14  2  0  0  0  0
  6 16  2  0  0  0  0
  7 13  1  0  0  0  0
  8 11  2  0  0  0  0
  8 24  1  0  0  0  0
  9  8  1  0  0  0  0
 10  7  1  0  0  0  0
 13 24  2  0  0  0  0
 14 20  1  0  0  0  0
 15 12  1  0  0  0  0
 16 11  1  0  0  0  0
 17 18  1  0  0  0  0
 18  9  1  0  0  0  0
 18  7  2  0  0  0  0
 19  6  1  0  0  0  0
 19  9  2  0  0  0  0
 20 10  2  0  0  0  0
 21  1  1  1  0  0  0
 21 22  1  0  0  0  0
 21  4  1  0  0  0  0
 22 15  1  0  0  0  0
 23  3  2  0  0  0  0
 25 28  1  0  0  0  0
 26 27  1  0  0  0  0
 26 29  2  0  0  0  0
 27 25  2  0  0  0  0
 28 19  1  0  0  0  0
 29 28  1  0  0  0  0
 30 27  1  0  0  0  0
 32 33  1  6  0  0  0
 32 31  1  0  0  0  0
 32 26  1  0  0  0  0
M  END
>  <MODEL>
5

>  <REMARK>
 VINA RESULT:      -6.0      2.244      6.680
  Name = 
  2 active torsions:
  status: ('A' for Active; 'I' for Inactive)
    1  A    between atoms: C_11  and  C_24
    2  A    between atoms: N_17  and  C_27
                            x       y       z     vdW  Elec       q    Type
                         _______ _______ _______ _____ _____    ______ ____

>  <TORSDO>
F 2

$$$$
=
 OpenBabel11072412293D

 33 38  0  0  1  0  0  0  0  0999 V2000
  159.3490  214.4520  148.2270 O   0  0  0  0  0  1  0  0  0  0  0  0
  159.6300  212.4900  150.2250 C   0  0  0  0  0  3  0  0  0  0  0  0
  160.9800  211.1860  151.8430 C   0  0  0  0  0  0  0  0  0  0  0  0
  160.7560  212.8480  149.3280 C   0  0  0  0  0  0  0  0  0  0  0  0
  161.8390  212.0480  149.1060 C   0  0  0  0  0  0  0  0  0  0  0  0
  159.8880  208.7090  156.9820 N   0  0  0  0  0  0  0  0  0  0  0  0
  161.5080  208.3880  152.4160 C   0  0  0  0  0  0  0  0  0  0  0  0
  160.9080  207.2680  154.8910 C   0  0  0  0  0  0  0  0  0  0  0  0
  160.6990  208.6610  154.7150 C   0  0  0  0  0  0  0  0  0  0  0  0
  161.8080  208.8470  151.1980 C   0  0  0  0  0  3  0  0  0  0  0  0
  160.5940  206.6680  156.0670 N   0  0  0  0  0  0  0  0  0  0  0  0
  162.8870  212.4230  148.0920 C   0  0  0  0  0  2  0  0  0  0  0  0
  161.7210  207.0380  152.6750 C   0  0  0  0  0  3  0  0  0  0  0  0
  161.9930  210.6780  149.6460 C   0  0  0  0  0  3  0  0  0  0  0  0
  162.9920  213.9260  147.8990 C   0  0  0  0  0  2  0  0  0  0  0  0
  160.0800  207.3740  157.1010 C   0  0  0  0  0  3  0  0  0  0  0  0
  160.7260  210.5180  153.1670 C   0  0  0  0  0  3  0  0  0  0  0  0
  160.9790  209.2240  153.4340 C   0  0  0  0  0  0  0  0  0  0  0  0
  160.1940  209.3790  155.8400 C   0  0  0  0  0  0  0  0  0  0  0  0
  161.5880  210.2520  150.8400 C   0  0  2  0  0  3  0  0  0  0  0  0
  160.6490  214.2180  148.6790 C   0  0  1  0  0  3  0  0  0  0  0  0
  161.6220  214.4470  147.5250 C   0  0  0  0  0  2  0  0  0  0  0  0
  159.7010  211.7410  151.3240 C   0  0  0  0  0  3  0  0  0  0  0  0
  161.4150  206.5130  153.8850 N   0  0  0  0  0  0  0  0  0  0  0  0
  160.7260  211.6210  156.6130 N   0  0  0  0  0  0  0  0  0  0  0  0
  159.2140  212.8020  155.4890 C   0  0  0  0  0  0  0  0  0  0  0  0
  160.2450  212.8580  156.4050 C   0  0  0  0  0  0  0  0  0  0  0  0
  160.0310  210.8000  155.8380 N   0  0  0  0  0  0  0  0  0  0  0  0
  159.0780  211.4670  155.1560 C   0  0  0  0  0  3  0  0  0  0  0  0
  160.7580  214.0760  157.0890 C   0  0  0  0  0  1  0  0  0  0  0  0
  158.4870  214.0780  153.6300 O   0  0  0  0  0  1  0  0  0  0  0  0
  158.3720  213.9420  155.0140 C   0  0  1  0  0  3  0  0  0  0  0  0
  156.9200  213.7140  155.3860 C   0  0  0  0  0  1  0  0  0  0  0  0
  2 23  1  0  0  0  0
  3 17  1  0  0  0  0
  4  2  2  0  0  0  0
  5  4  1  0  0  0  0
  5 14  2  0  0  0  0
  6 16  2  0  0  0  0
  7 13  1  0  0  0  0
  7 18  1  0  0  0  0
  8 11  2  0  0  0  0
  9  8  1  0  0  0  0
  9 19  2  0  0  0  0
 10  7  2  0  0  0  0
 11 16  1  0  0  0  0
 12  5  1  0  0  0  0
 13 24  2  0  0  0  0
 15 12  1  0  0  0  0
 17 18  2  0  0  0  0
 18  9  1  0  0  0  0
 19  6  1  0  0  0  0
 20 14  1  1  0  0  0
 20 10  1  0  0  0  0
 20  3  1  0  0  0  0
 21  1  1  6  0  0  0
 21  4  1  0  0  0  0
 22 15  1  0  0  0  0
 22 21  1  0  0  0  0
 23  3  2  0  0  0  0
 24  8  1  0  0  0  0
 26 27  1  0  0  0  0
 27 25  2  0  0  0  0
 27 30  1  0  0  0  0
 28 19  1  0  0  0  0
 28 25  1  0  0  0  0
 29 26  2  0  0  0  0
 29 28  1  0  0  0  0
 31 32  1  0  0  0  0
 32 33  1  6  0  0  0
 32 26  1  0  0  0  0
M  END
>  <MODEL>
6

>  <REMARK>
 VINA RESULT:      -5.9      3.850      5.941
  Name = 
  2 active torsions:
  status: ('A' for Active; 'I' for Inactive)
    1  A    between atoms: C_11  and  C_24
    2  A    between atoms: N_17  and  C_27
                            x       y       z     vdW  Elec       q    Type
                         _______ _______ _______ _____ _____    ______ ____

>  <TORSDO>
F 2

$$$$
=
 OpenBabel11072412293D

 33 38  0  0  1  0  0  0  0  0999 V2000
  163.0270  212.5100  147.2710 O   0  0  0  0  0  1  0  0  0  0  0  0
  162.3270  211.4960  149.8020 C   0  0  0  0  0  3  0  0  0  0  0  0
  160.6710  210.6820  151.4560 C   0  0  0  0  0  0  0  0  0  0  0  0
  161.3690  212.2930  148.9950 C   0  0  0  0  0  0  0  0  0  0  0  0
  160.2780  212.9270  149.5130 C   0  0  0  0  0  0  0  0  0  0  0  0
  160.8340  206.8620  155.8280 N   0  0  0  0  0  0  0  0  0  0  0  0
  159.8760  211.3250  154.1740 C   0  0  0  0  0  0  0  0  0  0  0  0
  160.0330  209.4490  156.2220 C   0  0  0  0  0  0  0  0  0  0  0  0
  160.3590  209.0350  154.9050 C   0  0  0  0  0  0  0  0  0  0  0  0
  159.7890  212.2860  153.2500 C   0  0  0  0  0  3  0  0  0  0  0  0
  160.1320  208.5810  157.2610 N   0  0  0  0  0  0  0  0  0  0  0  0
  159.4170  213.8160  148.6550 C   0  0  0  0  0  2  0  0  0  0  0  0
  159.5370  211.6470  155.4840 C   0  0  0  0  0  3  0  0  0  0  0  0
  159.9560  212.9950  150.9550 C   0  0  0  0  0  3  0  0  0  0  0  0
  159.4430  213.4070  147.1930 C   0  0  0  0  0  2  0  0  0  0  0  0
  160.5370  207.3030  157.0730 C   0  0  0  0  0  3  0  0  0  0  0  0
  160.6830  209.7120  152.6060 C   0  0  0  0  0  3  0  0  0  0  0  0
  160.3080  210.0090  153.8630 C   0  0  0  0  0  0  0  0  0  0  0  0
  160.7440  207.6710  154.7400 C   0  0  0  0  0  0  0  0  0  0  0  0
  160.1530  212.0320  151.8530 C   0  0  2  0  0  3  0  0  0  0  0  0
  161.6620  212.3290  147.5040 C   0  0  1  0  0  3  0  0  0  0  0  0
  160.8850  213.3940  146.7350 C   0  0  0  0  0  2  0  0  0  0  0  0
  162.0460  210.7990  150.9010 C   0  0  0  0  0  3  0  0  0  0  0  0
  159.6280  210.7200  156.4660 N   0  0  0  0  0  0  0  0  0  0  0  0
  160.9440  207.7680  152.3190 N   0  0  0  0  0  0  0  0  0  0  0  0
  161.3310  205.6260  151.8620 C   0  0  0  0  0  0  0  0  0  0  0  0
  161.1540  206.8860  151.3270 C   0  0  0  0  0  0  0  0  0  0  0  0
  161.0010  207.0910  153.4570 N   0  0  0  0  0  0  0  0  0  0  0  0
  161.2070  205.7780  153.2320 C   0  0  0  0  0  3  0  0  0  0  0  0
  161.1680  207.2460  149.8830 C   0  0  0  0  0  1  0  0  0  0  0  0
  161.5900  203.2750  151.9960 O   0  0  0  0  0  1  0  0  0  0  0  0
  161.5420  204.3520  151.1100 C   0  0  1  0  0  3  0  0  0  0  0  0
  160.4230  204.1420  150.1090 C   0  0  0  0  0  1  0  0  0  0  0  0
  2 23  1  0  0  0  0
  3 20  1  0  0  0  0
  3 17  1  0  0  0  0
  4  5  1  0  0  0  0
  4  2  2  0  0  0  0
  5 14  2  0  0  0  0
  6 16  2  0  0  0  0
  7 13  1  0  0  0  0
  8 24  1  0  0  0  0
  8 11  2  0  0  0  0
  9  8  1  0  0  0  0
 10  7  2  0  0  0  0
 12  5  1  0  0  0  0
 13 24  2  0  0  0  0
 15 12  1  0  0  0  0
 16 11  1  0  0  0  0
 17 18  2  0  0  0  0
 18  7  1  0  0  0  0
 18  9  1  0  0  0  0
 19  9  2  0  0  0  0
 19  6  1  0  0  0  0
 20 14  1  6  0  0  0
 20 10  1  0  0  0  0
 21  1  1  1  0  0  0
 21  4  1  0  0  0  0
 22 15  1  0  0  0  0
 22 21  1  0  0  0  0
 23  3  2  0  0  0  0
 25 28  1  0  0  0  0
 26 29  2  0  0  0  0
 27 26  1  0  0  0  0
 27 25  2  0  0  0  0
 28 19  1  0  0  0  0
 29 28  1  0  0  0  0
 30 27  1  0  0  0  0
 32 33  1  6  0  0  0
 32 26  1  0  0  0  0
 32 31  1  0  0  0  0
M  END
>  <MODEL>
7

>  <REMARK>
 VINA RESULT:      -5.9      2.724      6.480
  Name = 
  2 active torsions:
  status: ('A' for Active; 'I' for Inactive)
    1  A    between atoms: C_11  and  C_24
    2  A    between atoms: N_17  and  C_27
                            x       y       z     vdW  Elec       q    Type
                         _______ _______ _______ _____ _____    ______ ____

>  <TORSDO>
F 2

$$$$
=
 OpenBabel11072412293D

 33 38  0  0  1  0  0  0  0  0999 V2000
  161.8660  214.3270  147.3660 O   0  0  0  0  0  1  0  0  0  0  0  0
  160.2950  214.0930  149.6900 C   0  0  0  0  0  3  0  0  0  0  0  0
  158.4540  213.0740  150.9990 C   0  0  0  0  0  0  0  0  0  0  0  0
  159.7570  213.7390  148.3520 C   0  0  0  0  0  0  0  0  0  0  0  0
  158.4270  213.6630  148.0620 C   0  0  0  0  0  0  0  0  0  0  0  0
  157.5250  212.1320  156.6540 N   0  0  0  0  0  0  0  0  0  0  0  0
  156.0790  213.9800  152.4030 C   0  0  0  0  0  0  0  0  0  0  0  0
  155.7360  213.5300  155.1270 C   0  0  0  0  0  0  0  0  0  0  0  0
  156.8830  212.9840  154.4950 C   0  0  0  0  0  0  0  0  0  0  0  0
  156.1790  214.2500  151.0980 C   0  0  0  0  0  3  0  0  0  0  0  0
  155.5440  213.3710  156.4610 N   0  0  0  0  0  0  0  0  0  0  0  0
  157.9530  213.4150  146.6540 C   0  0  0  0  0  2  0  0  0  0  0  0
  154.9610  214.4520  153.0830 C   0  0  0  0  0  3  0  0  0  0  0  0
  157.3420  214.0200  149.0030 C   0  0  0  0  0  3  0  0  0  0  0  0
  158.9620  212.6290  145.8360 C   0  0  0  0  0  2  0  0  0  0  0  0
  156.4300  212.6890  157.2220 C   0  0  0  0  0  3  0  0  0  0  0  0
  158.1740  212.8310  152.4560 C   0  0  0  0  0  3  0  0  0  0  0  0
  157.0700  213.2440  153.1040 C   0  0  0  0  0  0  0  0  0  0  0  0
  157.7750  212.2380  155.3220 C   0  0  0  0  0  0  0  0  0  0  0  0
  157.3380  213.8080  150.3180 C   0  0  2  0  0  3  0  0  0  0  0  0
  160.8080  213.4180  147.3030 C   0  0  1  0  0  3  0  0  0  0  0  0
  160.2770  213.3750  145.8720 C   0  0  0  0  0  2  0  0  0  0  0  0
  159.7280  213.8310  150.8650 C   0  0  0  0  0  3  0  0  0  0  0  0
  154.8190  214.2270  154.4110 N   0  0  0  0  0  0  0  0  0  0  0  0
  158.8810  210.7840  153.7180 N   0  0  0  0  0  0  0  0  0  0  0  0
  160.9070  210.6550  154.6250 C   0  0  0  0  0  0  0  0  0  0  0  0
  160.1000  210.2360  153.5870 C   0  0  0  0  0  0  0  0  0  0  0  0
  158.9140  211.5470  154.8020 N   0  0  0  0  0  0  0  0  0  0  0  0
  160.1180  211.4800  155.4060 C   0  0  0  0  0  3  0  0  0  0  0  0
  160.4800  209.3060  152.4890 C   0  0  0  0  0  1  0  0  0  0  0  0
  163.1690  210.8200  153.9410 O   0  0  0  0  0  1  0  0  0  0  0  0
  162.3200  210.2450  154.8870 C   0  0  1  0  0  3  0  0  0  0  0  0
  162.7420  210.6720  156.2790 C   0  0  0  0  0  1  0  0  0  0  0  0
  2 23  1  0  0  0  0
  3 17  1  0  0  0  0
  4  2  2  0  0  0  0
  5  4  1  0  0  0  0
  5 14  2  0  0  0  0
  6 16  2  0  0  0  0
  7 13  1  0  0  0  0
  7 18  1  0  0  0  0
  8 11  2  0  0  0  0
  9  8  1  0  0  0  0
  9 19  2  0  0  0  0
 10  7  2  0  0  0  0
 11 16  1  0  0  0  0
 12  5  1  0  0  0  0
 13 24  2  0  0  0  0
 15 22  1  0  0  0  0
 15 12  1  0  0  0  0
 17 18  2  0  0  0  0
 18  9  1  0  0  0  0
 19  6  1  0  0  0  0
 20 14  1  6  0  0  0
 20  3  1  0  0  0  0
 20 10  1  0  0  0  0
 21  1  1  6  0  0  0
 21  4  1  0  0  0  0
 22 21  1  0  0  0  0
 23  3  2  0  0  0  0
 24  8  1  0  0  0  0
 25 28  1  0  0  0  0
 26 32  1  0  0  0  0
 26 29  2  0  0  0  0
 27 25  2  0  0  0  0
 27 26  1  0  0  0  0
 28 19  1  0  0  0  0
 28 29  1  0  0  0  0
 30 27  1  0  0  0  0
 31 32  1  0  0  0  0
 32 33  1  1  0  0  0
M  END
>  <MODEL>
8

>  <REMARK>
 VINA RESULT:      -5.4      4.720      7.632
  Name = 
  2 active torsions:
  status: ('A' for Active; 'I' for Inactive)
    1  A    between atoms: C_11  and  C_24
    2  A    between atoms: N_17  and  C_27
                            x       y       z     vdW  Elec       q    Type
                         _______ _______ _______ _____ _____    ______ ____

>  <TORSDO>
F 2

$$$$
=
 OpenBabel11072412293D

 33 38  0  0  1  0  0  0  0  0999 V2000
  159.8060  205.9050  144.9760 O   0  0  0  0  0  1  0  0  0  0  0  0
  160.0120  206.5780  147.7010 C   0  0  0  0  0  3  0  0  0  0  0  0
  161.3140  206.9290  149.7810 C   0  0  0  0  0  0  0  0  0  0  0  0
  160.9870  205.6660  147.0530 C   0  0  0  0  0  0  0  0  0  0  0  0
  161.7820  204.7920  147.7350 C   0  0  0  0  0  0  0  0  0  0  0  0
  160.7260  210.3890  154.4080 N   0  0  0  0  0  0  0  0  0  0  0  0
  161.2700  205.9520  152.5150 C   0  0  0  0  0  0  0  0  0  0  0  0
  160.9340  207.6740  154.6740 C   0  0  0  0  0  0  0  0  0  0  0  0
  161.0290  208.2360  153.3740 C   0  0  0  0  0  0  0  0  0  0  0  0
  161.4180  205.0600  151.5310 C   0  0  0  0  0  3  0  0  0  0  0  0
  160.7310  208.4690  155.7540 N   0  0  0  0  0  0  0  0  0  0  0  0
  162.6620  203.8120  147.0050 C   0  0  0  0  0  2  0  0  0  0  0  0
  161.2060  205.4770  153.8210 C   0  0  0  0  0  3  0  0  0  0  0  0
  161.7140  204.5600  149.1950 C   0  0  0  0  0  3  0  0  0  0  0  0
  163.0790  204.3190  145.6350 C   0  0  0  0  0  2  0  0  0  0  0  0
  160.6180  209.8120  155.6280 C   0  0  0  0  0  3  0  0  0  0  0  0
  161.1820  207.7990  151.0010 C   0  0  0  0  0  3  0  0  0  0  0  0
  161.1700  207.3460  152.2670 C   0  0  0  0  0  0  0  0  0  0  0  0
  160.9450  209.6570  153.2840 C   0  0  0  0  0  0  0  0  0  0  0  0
  161.4690  205.4790  150.1270 C   0  0  2  0  0  3  0  0  0  0  0  0
  161.0780  205.7930  145.5410 C   0  0  1  0  0  3  0  0  0  0  0  0
  161.8240  204.6500  144.8570 C   0  0  0  0  0  2  0  0  0  0  0  0
  160.1240  207.1270  148.9090 C   0  0  0  0  0  3  0  0  0  0  0  0
  161.0350  206.3330  154.8560 N   0  0  0  0  0  0  0  0  0  0  0  0
  160.4750  211.4770  151.7430 N   0  0  0  0  0  0  0  0  0  0  0  0
  161.7140  210.8590  150.0020 C   0  0  0  0  0  0  0  0  0  0  0  0
  160.8310  211.8020  150.4890 C   0  0  0  0  0  0  0  0  0  0  0  0
  161.1250  210.3650  152.0540 N   0  0  0  0  0  0  0  0  0  0  0  0
  161.8710  209.9320  151.0170 C   0  0  0  0  0  3  0  0  0  0  0  0
  160.3170  212.9940  149.7610 C   0  0  0  0  0  1  0  0  0  0  0  0
  163.3860  211.7050  148.5540 O   0  0  0  0  0  1  0  0  0  0  0  0
  162.3160  210.8130  148.6360 C   0  0  1  0  0  3  0  0  0  0  0  0
  162.7960  209.4100  148.3200 C   0  0  0  0  0  1  0  0  0  0  0  0
  2 23  1  0  0  0  0
  3 20  1  0  0  0  0
  3 17  1  0  0  0  0
  4  2  2  0  0  0  0
  4  5  1  0  0  0  0
  5 14  2  0  0  0  0
  6 16  2  0  0  0  0
  7 13  1  0  0  0  0
  8 24  1  0  0  0  0
  8 11  2  0  0  0  0
  9  8  1  0  0  0  0
 10  7  2  0  0  0  0
 12  5  1  0  0  0  0
 13 24  2  0  0  0  0
 15 12  1  0  0  0  0
 16 11  1  0  0  0  0
 17 18  2  0  0  0  0
 18  7  1  0  0  0  0
 18  9  1  0  0  0  0
 19  9  2  0  0  0  0
 19  6  1  0  0  0  0
 20 14  1  1  0  0  0
 20 10  1  0  0  0  0
 21  1  1  6  0  0  0
 21  4  1  0  0  0  0
 22 21  1  0  0  0  0
 22 15  1  0  0  0  0
 23  3  2  0  0  0  0
 25 28  1  0  0  0  0
 26 27  1  0  0  0  0
 26 29  2  0  0  0  0
 27 25  2  0  0  0  0
 28 19  1  0  0  0  0
 29 28  1  0  0  0  0
 30 27  1  0  0  0  0
 31 32  1  0  0  0  0
 32 33  1  1  0  0  0
 32 26  1  0  0  0  0
M  END
>  <MODEL>
9

>  <REMARK>
 VINA RESULT:      -5.2      0.871      1.603
  Name = 
  2 active torsions:
  status: ('A' for Active; 'I' for Inactive)
    1  A    between atoms: C_11  and  C_24
    2  A    between atoms: N_17  and  C_27
                            x       y       z     vdW  Elec       q    Type
                         _______ _______ _______ _____ _____    ______ ____

>  <TORSDO>
F 2

$$$$
