=
 OpenBabel11072412053D

 45 49  0  0  1  0  0  0  0  0999 V2000
  162.0340  208.7050  148.8340 O   0  0  0  0  0  0  0  0  0  0  0  0
  161.7650  208.8070  150.0640 C   0  0  0  0  0  0  0  0  0  0  0  0
  161.8240  210.0970  150.7050 N   0  0  0  0  0  0  0  0  0  0  0  0
  160.0510  210.5760  152.3750 C   0  0  0  0  0  3  0  0  0  0  0  0
  159.6540  210.8290  153.6910 C   0  0  0  0  0  3  0  0  0  0  0  0
  162.8600  210.5700  155.4220 F   0  0  0  0  0  0  0  0  0  0  0  0
  162.3360  210.3130  153.1120 C   0  0  0  0  0  3  0  0  0  0  0  0
  161.3950  210.3070  152.0680 C   0  0  0  0  0  0  0  0  0  0  0  0
  160.6000  210.8260  154.7180 C   0  0  0  0  0  3  0  0  0  0  0  0
  161.9410  210.5640  154.4290 C   0  0  0  0  0  0  0  0  0  0  0  0
  162.2510  211.2530  149.9130 C   0  0  0  0  0  2  0  0  0  0  0  0
  159.1960  213.3820  147.8850 N   0  0  0  0  0  2  0  0  0  0  0  0
  160.3160  212.9340  147.0540 C   0  0  0  0  0  2  0  0  0  0  0  0
  159.6840  214.0370  149.1170 C   0  0  2  0  0  3  0  0  0  0  0  0
  161.0450  211.9310  149.2750 C   0  0  1  0  0  3  0  0  0  0  0  0
  160.9660  213.3990  149.6800 C   0  0  0  0  0  2  0  0  0  0  0  0
  161.1020  211.8090  147.7520 C   0  0  0  0  0  2  0  0  0  0  0  0
  158.9560  214.1130  151.5450 C   0  0  0  0  0  3  0  0  0  0  0  0
  158.6230  214.0460  150.1820 C   0  0  0  0  0  0  0  0  0  0  0  0
  156.6380  214.2030  152.1050 N   0  0  0  0  0  0  0  0  0  0  0  0
  156.2880  214.1500  150.7880 C   0  0  0  0  0  3  0  0  0  0  0  0
  157.9400  214.1800  152.5000 C   0  0  0  0  0  0  0  0  0  0  0  0
  157.2720  214.0690  149.8040 C   0  0  0  0  0  3  0  0  0  0  0  0
  158.2840  214.2320  153.9560 C   0  0  0  0  0  2  0  0  0  0  0  0
  157.2910  213.4660  154.8330 C   0  0  0  0  0  3  0  0  0  0  0  0
  156.9380  212.0950  154.2500 C   0  0  0  0  0  2  0  0  0  0  0  0
  157.7650  213.3800  156.2980 C   0  0  0  0  0  2  0  0  0  0  0  0
  157.2290  212.1470  157.0390 C   0  0  0  0  0  2  0  0  0  0  0  0
  155.8280  211.7840  156.5560 C   0  0  0  0  0  2  0  0  0  0  0  0
  155.8380  211.3970  155.0730 C   0  0  0  0  0  2  0  0  0  0  0  0
  161.4230  207.6650  150.8030 O   0  0  0  0  0  0  0  0  0  0  0  0
  162.3690  206.7320  151.3360 C   0  0  1  0  0  3  0  0  0  0  0  0
  160.7910  206.9930  153.2490 C   0  0  0  0  0  1  0  0  0  0  0  0
  162.1720  206.5260  152.8310 C   0  0  0  0  0  2  0  0  0  0  0  0
  162.3120  205.3990  150.6040 C   0  0  0  0  0  2  0  0  0  0  0  0
  160.8130  204.6950  148.6590 C   0  0  1  0  0  3  0  0  0  0  0  0
  161.4300  203.3130  148.4210 C   0  0  0  0  0  2  0  0  0  0  0  0
  160.8500  202.6370  150.7550 C   0  0  0  0  0  2  0  0  0  0  0  0
  161.2590  201.0110  149.0450 O   0  0  0  0  0  1  0  0  0  0  0  0
  160.7140  202.2750  149.2790 C   0  0  2  0  0  3  0  0  0  0  0  0
  160.2340  204.0150  151.0170 C   0  0  0  0  0  2  0  0  0  0  0  0
  160.8870  205.0950  150.1420 C   0  0  1  0  0  3  0  0  0  0  0  0
  161.4490  205.7450  147.7570 C   0  0  0  0  0  2  0  0  0  0  0  0
  161.0810  205.5220  146.4330 O   0  0  0  0  0  0  0  0  0  0  0  0
  162.2530  205.7340  145.7070 C   0  0  0  0  0  1  0  0  0  0  0  0
  1  2  2  0  0  0  0
  2  3  1  0  0  0  0
  2 31  1  0  0  0  0
  3  8  1  0  0  0  0
  4  5  1  0  0  0  0
  5  9  2  0  0  0  0
  7 10  2  0  0  0  0
  8  4  2  0  0  0  0
  8  7  1  0  0  0  0
 10  9  1  0  0  0  0
 10  6  1  0  0  0  0
 11  3  1  0  0  0  0
 12 14  1  0  0  0  0
 13 17  1  0  0  0  0
 13 12  1  0  0  0  0
 14 16  1  0  0  0  0
 14 19  1  1  0  0  0
 15 16  1  0  0  0  0
 15 11  1  1  0  0  0
 17 15  1  0  0  0  0
 18 22  1  0  0  0  0
 19 18  2  0  0  0  0
 20 22  2  0  0  0  0
 21 20  1  0  0  0  0
 22 24  1  0  0  0  0
 23 19  1  0  0  0  0
 23 21  2  0  0  0  0
 24 25  1  0  0  0  0
 25 27  1  0  0  0  0
 26 25  1  0  0  0  0
 26 30  1  0  0  0  0
 27 28  1  0  0  0  0
 29 28  1  0  0  0  0
 30 29  1  0  0  0  0
 31 32  1  0  0  0  0
 32 35  1  6  0  0  0
 32 34  1  0  0  0  0
 34 33  1  0  0  0  0
 36 43  1  6  0  0  0
 36 42  1  0  0  0  0
 37 36  1  0  0  0  0
 37 40  1  0  0  0  0
 38 41  1  0  0  0  0
 40 39  1  1  0  0  0
 40 38  1  0  0  0  0
 42 35  1  1  0  0  0
 42 41  1  0  0  0  0
 44 43  1  0  0  0  0
 45 44  1  0  0  0  0
M  END
>  <MODEL>
1

>  <REMARK>
 VINA RESULT:      -7.3      0.000      0.000
  Name = 
  13 active torsions:
  status: ('A' for Active; 'I' for Inactive)
    1  A    between atoms: C_2  and  C_17
    2  A    between atoms: C_3  and  C_36
    3  A    between atoms: C_4  and  C_18
    4  A    between atoms: C_4  and  N_23
    5  A    between atoms: C_10  and  C_14
    6  A    between atoms: C_10  and  C_15
    7  A    between atoms: C_11  and  O_42
    8  A    between atoms: C_16  and  C_35
    9  A    between atoms: C_16  and  C_43
   10  A    between atoms: N_23  and  C_33
   11  A    between atoms: O_25  and  C_36
   12  A    between atoms: C_35  and  C_41
   13  A    between atoms: C_35  and  O_42
                            x       y       z     vdW  Elec       q    Type
                         _______ _______ _______ _____ _____    ______ ____

>  <TORSDO>
F 13

$$$$
=
 OpenBabel11072412053D

 45 49  0  0  1  0  0  0  0  0999 V2000
  161.7700  208.2990  148.1430 O   0  0  0  0  0  0  0  0  0  0  0  0
  161.4520  208.1590  149.3580 C   0  0  0  0  0  0  0  0  0  0  0  0
  161.7120  209.2250  150.2930 N   0  0  0  0  0  0  0  0  0  0  0  0
  160.6520  210.3100  152.2590 C   0  0  0  0  0  3  0  0  0  0  0  0
  160.2550  210.2810  153.5980 C   0  0  0  0  0  3  0  0  0  0  0  0
  161.2600  206.8940  154.5250 F   0  0  0  0  0  0  0  0  0  0  0  0
  161.4520  208.0380  152.4440 C   0  0  0  0  0  3  0  0  0  0  0  0
  161.2490  209.1880  151.6610 C   0  0  0  0  0  0  0  0  0  0  0  0
  160.4590  209.1300  154.3620 C   0  0  0  0  0  3  0  0  0  0  0  0
  161.0540  208.0070  153.7830 C   0  0  0  0  0  0  0  0  0  0  0  0
  162.3940  210.4290  149.8110 C   0  0  0  0  0  2  0  0  0  0  0  0
  159.9980  213.2340  147.7190 N   0  0  0  0  0  2  0  0  0  0  0  0
  161.1640  212.7280  146.9920 C   0  0  0  0  0  2  0  0  0  0  0  0
  160.3720  213.6490  149.0880 C   0  0  2  0  0  3  0  0  0  0  0  0
  161.4010  211.3560  149.1210 C   0  0  1  0  0  3  0  0  0  0  0  0
  161.4550  212.7580  149.7210 C   0  0  0  0  0  2  0  0  0  0  0  0
  161.6770  211.4180  147.6180 C   0  0  0  0  0  2  0  0  0  0  0  0
  159.2980  213.9000  151.3720 C   0  0  0  0  0  3  0  0  0  0  0  0
  159.1690  213.6860  149.9900 C   0  0  0  0  0  0  0  0  0  0  0  0
  156.9220  213.8890  151.5930 N   0  0  0  0  0  0  0  0  0  0  0  0
  156.7690  213.6910  150.2520 C   0  0  0  0  0  3  0  0  0  0  0  0
  158.1520  213.9880  152.1650 C   0  0  0  0  0  0  0  0  0  0  0  0
  157.8880  213.5840  149.4280 C   0  0  0  0  0  3  0  0  0  0  0  0
  158.2800  214.1970  153.6420 C   0  0  0  0  0  2  0  0  0  0  0  0
  157.4320  213.2200  154.4600 C   0  0  0  0  0  3  0  0  0  0  0  0
  158.2470  212.5130  155.5470 C   0  0  0  0  0  2  0  0  0  0  0  0
  156.1600  213.8900  155.0180 C   0  0  0  0  0  2  0  0  0  0  0  0
  155.6490  213.2390  156.3120 C   0  0  0  0  0  2  0  0  0  0  0  0
  155.9100  211.7370  156.3100 C   0  0  0  0  0  2  0  0  0  0  0  0
  157.4120  211.4380  156.2690 C   0  0  0  0  0  2  0  0  0  0  0  0
  160.8600  206.9650  149.7940 O   0  0  0  0  0  0  0  0  0  0  0  0
  161.4510  205.6690  149.6510 C   0  0  1  0  0  3  0  0  0  0  0  0
  160.4280  203.6120  150.6190 C   0  0  0  0  0  1  0  0  0  0  0  0
  161.2800  204.8330  150.9110 C   0  0  0  0  0  2  0  0  0  0  0  0
  160.8930  204.9300  148.4430 C   0  0  0  0  0  2  0  0  0  0  0  0
  161.4770  203.1920  146.6650 C   0  0  1  0  0  3  0  0  0  0  0  0
  160.8000  203.8840  145.4790 C   0  0  0  0  0  2  0  0  0  0  0  0
  162.2600  205.8860  145.7960 C   0  0  0  0  0  2  0  0  0  0  0  0
  161.1800  205.4420  143.7050 O   0  0  0  0  0  1  0  0  0  0  0  0
  161.7880  204.8290  144.8020 C   0  0  2  0  0  3  0  0  0  0  0  0
  162.9450  205.2150  146.9910 C   0  0  0  0  0  2  0  0  0  0  0  0
  162.0090  204.2140  147.6830 C   0  0  1  0  0  3  0  0  0  0  0  0
  160.5450  202.1770  147.3170 C   0  0  0  0  0  2  0  0  0  0  0  0
  161.0970  200.9010  147.2340 O   0  0  0  0  0  0  0  0  0  0  0  0
  161.4000  200.5680  148.5530 C   0  0  0  0  0  1  0  0  0  0  0  0
  1  2  2  0  0  0  0
  2 31  1  0  0  0  0
  2  3  1  0  0  0  0
  3  8  1  0  0  0  0
  4  5  1  0  0  0  0
  5  9  2  0  0  0  0
  7 10  2  0  0  0  0
  8  4  2  0  0  0  0
  8  7  1  0  0  0  0
 10  9  1  0  0  0  0
 10  6  1  0  0  0  0
 11  3  1  0  0  0  0
 12 14  1  0  0  0  0
 13 17  1  0  0  0  0
 13 12  1  0  0  0  0
 14 16  1  0  0  0  0
 14 19  1  1  0  0  0
 15 16  1  0  0  0  0
 15 11  1  1  0  0  0
 17 15  1  0  0  0  0
 18 22  1  0  0  0  0
 19 18  2  0  0  0  0
 20 22  2  0  0  0  0
 21 20  1  0  0  0  0
 22 24  1  0  0  0  0
 23 19  1  0  0  0  0
 23 21  2  0  0  0  0
 24 25  1  0  0  0  0
 25 27  1  0  0  0  0
 25 26  1  0  0  0  0
 26 30  1  0  0  0  0
 27 28  1  0  0  0  0
 29 28  1  0  0  0  0
 30 29  1  0  0  0  0
 32 35  1  6  0  0  0
 32 31  1  0  0  0  0
 32 34  1  0  0  0  0
 33 34  1  0  0  0  0
 36 43  1  1  0  0  0
 36 42  1  0  0  0  0
 37 36  1  0  0  0  0
 38 41  1  0  0  0  0
 40 39  1  6  0  0  0
 40 37  1  0  0  0  0
 40 38  1  0  0  0  0
 41 42  1  0  0  0  0
 42 35  1  6  0  0  0
 44 43  1  0  0  0  0
 44 45  1  0  0  0  0
M  END
>  <MODEL>
2

>  <REMARK>
 VINA RESULT:      -6.7      1.326      2.732
  Name = 
  13 active torsions:
  status: ('A' for Active; 'I' for Inactive)
    1  A    between atoms: C_2  and  C_17
    2  A    between atoms: C_3  and  C_36
    3  A    between atoms: C_4  and  C_18
    4  A    between atoms: C_4  and  N_23
    5  A    between atoms: C_10  and  C_14
    6  A    between atoms: C_10  and  C_15
    7  A    between atoms: C_11  and  O_42
    8  A    between atoms: C_16  and  C_35
    9  A    between atoms: C_16  and  C_43
   10  A    between atoms: N_23  and  C_33
   11  A    between atoms: O_25  and  C_36
   12  A    between atoms: C_35  and  C_41
   13  A    between atoms: C_35  and  O_42
                            x       y       z     vdW  Elec       q    Type
                         _______ _______ _______ _____ _____    ______ ____

>  <TORSDO>
F 13

$$$$
=
 OpenBabel11072412053D

 45 49  0  0  1  0  0  0  0  0999 V2000
  160.0660  210.7570  151.6540 O   0  0  0  0  0  0  0  0  0  0  0  0
  159.4140  211.3050  152.5870 C   0  0  0  0  0  0  0  0  0  0  0  0
  159.8780  211.1920  153.9470 N   0  0  0  0  0  0  0  0  0  0  0  0
  159.8990  213.0070  155.6410 C   0  0  0  0  0  3  0  0  0  0  0  0
  159.3200  213.6620  156.7300 C   0  0  0  0  0  3  0  0  0  0  0  0
  156.2740  211.6920  157.1570 F   0  0  0  0  0  0  0  0  0  0  0  0
  158.0350  211.4720  155.5690 C   0  0  0  0  0  3  0  0  0  0  0  0
  159.2620  211.9090  155.0400 C   0  0  0  0  0  0  0  0  0  0  0  0
  158.0980  213.2200  157.2410 C   0  0  0  0  0  3  0  0  0  0  0  0
  157.4540  212.1270  156.6570 C   0  0  0  0  0  0  0  0  0  0  0  0
  161.0740  210.3890  154.2140 C   0  0  0  0  0  2  0  0  0  0  0  0
  160.3980  206.2090  154.4390 N   0  0  0  0  0  2  0  0  0  0  0  0
  160.3770  206.9240  155.7160 C   0  0  0  0  0  2  0  0  0  0  0  0
  161.5800  206.5950  153.6390 C   0  0  2  0  0  3  0  0  0  0  0  0
  160.7360  208.9040  154.1600 C   0  0  1  0  0  3  0  0  0  0  0  0
  161.9640  208.0760  153.7960 C   0  0  0  0  0  2  0  0  0  0  0  0
  160.1630  208.4330  155.4980 C   0  0  0  0  0  2  0  0  0  0  0  0
  161.5220  204.9830  151.6820 C   0  0  0  0  0  3  0  0  0  0  0  0
  161.3710  206.2870  152.1820 C   0  0  0  0  0  0  0  0  0  0  0  0
  160.8390  205.7350  149.5220 N   0  0  0  0  0  0  0  0  0  0  0  0
  160.6750  207.0070  149.9850 C   0  0  0  0  0  3  0  0  0  0  0  0
  161.2600  204.7280  150.3350 C   0  0  0  0  0  0  0  0  0  0  0  0
  160.9390  207.3060  151.3200 C   0  0  0  0  0  3  0  0  0  0  0  0
  161.4360  203.3450  149.7880 C   0  0  0  0  0  2  0  0  0  0  0  0
  161.0280  203.2270  148.3170 C   0  0  0  0  0  3  0  0  0  0  0  0
  162.1250  203.7190  147.3690 C   0  0  0  0  0  2  0  0  0  0  0  0
  160.5400  201.8070  147.9680 C   0  0  0  0  0  2  0  0  0  0  0  0
  160.7510  201.4380  146.4930 C   0  0  0  0  0  2  0  0  0  0  0  0
  160.5860  202.6590  145.5940 C   0  0  0  0  0  2  0  0  0  0  0  0
  161.6470  203.7200  145.9040 C   0  0  0  0  0  2  0  0  0  0  0  0
  158.2380  212.0120  152.2980 O   0  0  0  0  0  0  0  0  0  0  0  0
  158.1710  213.1570  151.4410 C   0  0  1  0  0  3  0  0  0  0  0  0
  157.1200  214.3440  153.3650 C   0  0  0  0  0  1  0  0  0  0  0  0
  158.1300  214.4520  152.2380 C   0  0  0  0  0  2  0  0  0  0  0  0
  159.3240  213.1800  150.4480 C   0  0  0  0  0  2  0  0  0  0  0  0
  160.1180  214.2260  148.2570 C   0  0  1  0  0  3  0  0  0  0  0  0
  159.7270  213.0710  147.3310 C   0  0  0  0  0  2  0  0  0  0  0  0
  157.3400  213.3000  148.0320 C   0  0  0  0  0  2  0  0  0  0  0  0
  157.9450  212.2260  145.9790 O   0  0  0  0  0  1  0  0  0  0  0  0
  158.2950  213.2650  146.8430 C   0  0  2  0  0  3  0  0  0  0  0  0
  157.7110  214.4520  148.9710 C   0  0  0  0  0  2  0  0  0  0  0  0
  159.1620  214.3330  149.4570 C   0  0  1  0  0  3  0  0  0  0  0  0
  161.5720  214.1090  148.7000 C   0  0  0  0  0  2  0  0  0  0  0  0
  162.3910  213.8950  147.5950 O   0  0  0  0  0  0  0  0  0  0  0  0
  163.0510  212.7010  147.8780 C   0  0  0  0  0  1  0  0  0  0  0  0
  1  2  2  0  0  0  0
  2  3  1  0  0  0  0
  3 11  1  0  0  0  0
  3  8  1  0  0  0  0
  4  5  1  0  0  0  0
  5  9  2  0  0  0  0
  7 10  2  0  0  0  0
  8  7  1  0  0  0  0
  8  4  2  0  0  0  0
 10  6  1  0  0  0  0
 10  9  1  0  0  0  0
 12 13  1  0  0  0  0
 14 19  1  6  0  0  0
 14 16  1  0  0  0  0
 14 12  1  0  0  0  0
 15 11  1  1  0  0  0
 15 17  1  0  0  0  0
 16 15  1  0  0  0  0
 17 13  1  0  0  0  0
 18 19  1  0  0  0  0
 20 21  2  0  0  0  0
 20 22  1  0  0  0  0
 21 23  1  0  0  0  0
 22 18  2  0  0  0  0
 23 19  2  0  0  0  0
 24 22  1  0  0  0  0
 25 24  1  0  0  0  0
 26 25  1  0  0  0  0
 27 25  1  0  0  0  0
 28 27  1  0  0  0  0
 29 30  1  0  0  0  0
 29 28  1  0  0  0  0
 30 26  1  0  0  0  0
 31  2  1  0  0  0  0
 32 35  1  6  0  0  0
 32 34  1  0  0  0  0
 32 31  1  0  0  0  0
 34 33  1  0  0  0  0
 36 43  1  1  0  0  0
 36 42  1  0  0  0  0
 37 36  1  0  0  0  0
 38 41  1  0  0  0  0
 40 39  1  6  0  0  0
 40 37  1  0  0  0  0
 40 38  1  0  0  0  0
 41 42  1  0  0  0  0
 42 35  1  1  0  0  0
 44 45  1  0  0  0  0
 44 43  1  0  0  0  0
M  END
>  <MODEL>
3

>  <REMARK>
 VINA RESULT:      -5.6      2.973      9.180
  Name = 
  13 active torsions:
  status: ('A' for Active; 'I' for Inactive)
    1  A    between atoms: C_2  and  C_17
    2  A    between atoms: C_3  and  C_36
    3  A    between atoms: C_4  and  C_18
    4  A    between atoms: C_4  and  N_23
    5  A    between atoms: C_10  and  C_14
    6  A    between atoms: C_10  and  C_15
    7  A    between atoms: C_11  and  O_42
    8  A    between atoms: C_16  and  C_35
    9  A    between atoms: C_16  and  C_43
   10  A    between atoms: N_23  and  C_33
   11  A    between atoms: O_25  and  C_36
   12  A    between atoms: C_35  and  C_41
   13  A    between atoms: C_35  and  O_42
                            x       y       z     vdW  Elec       q    Type
                         _______ _______ _______ _____ _____    ______ ____

>  <TORSDO>
F 13

$$$$
=
 OpenBabel11072412053D

 45 49  0  0  1  0  0  0  0  0999 V2000
  162.4700  208.7700  147.9900 O   0  0  0  0  0  0  0  0  0  0  0  0
  162.0780  208.5050  149.1610 C   0  0  0  0  0  0  0  0  0  0  0  0
  161.9810  209.5610  150.1390 N   0  0  0  0  0  0  0  0  0  0  0  0
  160.9660  210.4360  152.2290 C   0  0  0  0  0  3  0  0  0  0  0  0
  160.4630  210.2310  153.5160 C   0  0  0  0  0  3  0  0  0  0  0  0
  160.7960  206.6050  153.8000 F   0  0  0  0  0  0  0  0  0  0  0  0
  161.3490  208.0620  151.9980 C   0  0  0  0  0  3  0  0  0  0  0  0
  161.4090  209.3550  151.4490 C   0  0  0  0  0  0  0  0  0  0  0  0
  160.4040  208.9410  154.0450 C   0  0  0  0  0  3  0  0  0  0  0  0
  160.8440  207.8560  153.2840 C   0  0  0  0  0  0  0  0  0  0  0  0
  162.3960  210.9120  149.7530 C   0  0  0  0  0  2  0  0  0  0  0  0
  159.4080  213.3150  147.9440 N   0  0  0  0  0  2  0  0  0  0  0  0
  160.4860  212.8710  147.0590 C   0  0  0  0  0  2  0  0  0  0  0  0
  159.9530  213.8630  149.2040 C   0  0  2  0  0  3  0  0  0  0  0  0
  161.2120  211.6880  149.1910 C   0  0  1  0  0  3  0  0  0  0  0  0
  161.2130  213.1280  149.6940 C   0  0  0  0  0  2  0  0  0  0  0  0
  161.2310  211.6650  147.6620 C   0  0  0  0  0  2  0  0  0  0  0  0
  159.2710  213.6600  151.6380 C   0  0  0  0  0  3  0  0  0  0  0  0
  158.9160  213.8510  150.2930 C   0  0  0  0  0  0  0  0  0  0  0  0
  156.9950  213.9770  152.2820 N   0  0  0  0  0  0  0  0  0  0  0  0
  156.6260  214.1760  150.9840 C   0  0  0  0  0  3  0  0  0  0  0  0
  158.2850  213.7160  152.6260 C   0  0  0  0  0  0  0  0  0  0  0  0
  157.5770  214.1150  149.9680 C   0  0  0  0  0  3  0  0  0  0  0  0
  158.6510  213.4950  154.0610 C   0  0  0  0  0  2  0  0  0  0  0  0
  157.4990  212.9210  154.8890 C   0  0  0  0  0  3  0  0  0  0  0  0
  157.1640  211.4790  154.4980 C   0  0  0  0  0  2  0  0  0  0  0  0
  157.7460  213.0790  156.4030 C   0  0  0  0  0  2  0  0  0  0  0  0
  157.0400  212.0080  157.2480 C   0  0  0  0  0  2  0  0  0  0  0  0
  155.7090  211.6050  156.6220 C   0  0  0  0  0  2  0  0  0  0  0  0
  155.9180  210.9660  155.2460 C   0  0  0  0  0  2  0  0  0  0  0  0
  161.7510  207.1870  149.5090 O   0  0  0  0  0  0  0  0  0  0  0  0
  161.0530  206.2730  148.6560 C   0  0  1  0  0  3  0  0  0  0  0  0
  161.2300  205.3460  146.3490 C   0  0  0  0  0  1  0  0  0  0  0  0
  161.2580  206.6100  147.1870 C   0  0  0  0  0  2  0  0  0  0  0  0
  161.4560  204.8320  148.9320 C   0  0  0  0  0  2  0  0  0  0  0  0
  160.3680  202.5770  149.4390 C   0  0  1  0  0  3  0  0  0  0  0  0
  161.5780  201.9170  150.1070 C   0  0  0  0  0  2  0  0  0  0  0  0
  161.6120  203.7080  151.8480 C   0  0  0  0  0  2  0  0  0  0  0  0
  162.6480  201.5810  152.2180 O   0  0  0  0  0  1  0  0  0  0  0  0
  161.5590  202.2030  151.6050 C   0  0  2  0  0  3  0  0  0  0  0  0
  160.4070  204.3890  151.1920 C   0  0  0  0  0  2  0  0  0  0  0  0
  160.3490  204.0950  149.6860 C   0  0  1  0  0  3  0  0  0  0  0  0
  160.3080  202.2450  147.9540 C   0  0  0  0  0  2  0  0  0  0  0  0
  161.0860  201.1210  147.6840 O   0  0  0  0  0  0  0  0  0  0  0  0
  160.8880  200.8800  146.3260 C   0  0  0  0  0  1  0  0  0  0  0  0
  1  2  2  0  0  0  0
  2 31  1  0  0  0  0
  2  3  1  0  0  0  0
  3  8  1  0  0  0  0
  4  5  1  0  0  0  0
  5  9  2  0  0  0  0
  7 10  2  0  0  0  0
  8  7  1  0  0  0  0
  8  4  2  0  0  0  0
 10  6  1  0  0  0  0
 10  9  1  0  0  0  0
 11  3  1  0  0  0  0
 12 14  1  0  0  0  0
 13 17  1  0  0  0  0
 13 12  1  0  0  0  0
 14 16  1  0  0  0  0
 14 19  1  1  0  0  0
 15 16  1  0  0  0  0
 15 11  1  1  0  0  0
 17 15  1  0  0  0  0
 18 22  1  0  0  0  0
 19 18  2  0  0  0  0
 20 22  2  0  0  0  0
 21 20  1  0  0  0  0
 22 24  1  0  0  0  0
 23 19  1  0  0  0  0
 23 21  2  0  0  0  0
 24 25  1  0  0  0  0
 25 27  1  0  0  0  0
 26 25  1  0  0  0  0
 26 30  1  0  0  0  0
 27 28  1  0  0  0  0
 29 28  1  0  0  0  0
 30 29  1  0  0  0  0
 32 34  1  6  0  0  0
 32 35  1  0  0  0  0
 32 31  1  0  0  0  0
 33 34  1  0  0  0  0
 36 43  1  6  0  0  0
 36 42  1  0  0  0  0
 36 37  1  0  0  0  0
 37 40  1  0  0  0  0
 40 38  1  0  0  0  0
 40 39  1  1  0  0  0
 41 38  1  0  0  0  0
 42 35  1  6  0  0  0
 42 41  1  0  0  0  0
 44 43  1  0  0  0  0
 45 44  1  0  0  0  0
M  END
>  <MODEL>
4

>  <REMARK>
 VINA RESULT:      -5.6      1.335      2.334
  Name = 
  13 active torsions:
  status: ('A' for Active; 'I' for Inactive)
    1  A    between atoms: C_2  and  C_17
    2  A    between atoms: C_3  and  C_36
    3  A    between atoms: C_4  and  C_18
    4  A    between atoms: C_4  and  N_23
    5  A    between atoms: C_10  and  C_14
    6  A    between atoms: C_10  and  C_15
    7  A    between atoms: C_11  and  O_42
    8  A    between atoms: C_16  and  C_35
    9  A    between atoms: C_16  and  C_43
   10  A    between atoms: N_23  and  C_33
   11  A    between atoms: O_25  and  C_36
   12  A    between atoms: C_35  and  C_41
   13  A    between atoms: C_35  and  O_42
                            x       y       z     vdW  Elec       q    Type
                         _______ _______ _______ _____ _____    ______ ____

>  <TORSDO>
F 13

$$$$
=
 OpenBabel11072412053D

 45 49  0  0  1  0  0  0  0  0999 V2000
  162.2710  210.8580  150.3910 O   0  0  0  0  0  0  0  0  0  0  0  0
  161.9770  210.0720  149.4460 C   0  0  0  0  0  0  0  0  0  0  0  0
  162.2000  208.6550  149.5990 N   0  0  0  0  0  0  0  0  0  0  0  0
  160.4960  207.0810  148.7130 C   0  0  0  0  0  3  0  0  0  0  0  0
  160.0990  206.1110  147.7900 C   0  0  0  0  0  3  0  0  0  0  0  0
  163.0660  205.9480  145.6660 F   0  0  0  0  0  0  0  0  0  0  0  0
  162.6200  207.2920  147.5810 C   0  0  0  0  0  3  0  0  0  0  0  0
  161.7580  207.6910  148.6180 C   0  0  0  0  0  0  0  0  0  0  0  0
  160.9630  205.7300  146.7630 C   0  0  0  0  0  3  0  0  0  0  0  0
  162.2230  206.3230  146.6560 C   0  0  0  0  0  0  0  0  0  0  0  0
  162.8170  208.1730  150.8360 C   0  0  0  0  0  2  0  0  0  0  0  0
  160.3770  205.7380  153.3050 N   0  0  0  0  0  2  0  0  0  0  0  0
  160.7590  207.0330  153.8710 C   0  0  0  0  0  2  0  0  0  0  0  0
  161.5520  205.0460  152.7340 C   0  0  2  0  0  3  0  0  0  0  0  0
  161.8540  207.2620  151.5860 C   0  0  1  0  0  3  0  0  0  0  0  0
  162.5620  206.0020  152.0760 C   0  0  0  0  0  2  0  0  0  0  0  0
  161.2210  208.0010  152.7660 C   0  0  0  0  0  2  0  0  0  0  0  0
  161.6000  204.0280  150.4110 C   0  0  0  0  0  3  0  0  0  0  0  0
  161.1320  204.0030  151.7360 C   0  0  0  0  0  0  0  0  0  0  0  0
  160.4510  201.9840  149.9680 N   0  0  0  0  0  0  0  0  0  0  0  0
  159.9920  201.9300  151.2510 C   0  0  0  0  0  3  0  0  0  0  0  0
  161.2350  203.0070  149.5320 C   0  0  0  0  0  0  0  0  0  0  0  0
  160.3230  202.9370  152.1560 C   0  0  0  0  0  3  0  0  0  0  0  0
  161.7130  203.0350  148.1130 C   0  0  0  0  0  2  0  0  0  0  0  0
  160.9290  202.0910  147.2000 C   0  0  0  0  0  3  0  0  0  0  0  0
  160.8480  202.6080  145.7600 C   0  0  0  0  0  2  0  0  0  0  0  0
  161.4580  200.6440  147.2780 C   0  0  0  0  0  2  0  0  0  0  0  0
  161.2130  199.8380  145.9950 C   0  0  0  0  0  2  0  0  0  0  0  0
  159.9030  200.2490  145.3310 C   0  0  0  0  0  2  0  0  0  0  0  0
  159.9440  201.7150  144.8890 C   0  0  0  0  0  2  0  0  0  0  0  0
  161.4480  210.5800  148.2510 O   0  0  0  0  0  0  0  0  0  0  0  0
  161.4730  211.9620  147.8780 C   0  0  1  0  0  3  0  0  0  0  0  0
  163.3630  213.5410  148.2670 C   0  0  0  0  0  1  0  0  0  0  0  0
  162.8570  212.3920  147.4140 C   0  0  0  0  0  2  0  0  0  0  0  0
  160.4350  212.2710  146.8080 C   0  0  0  0  0  2  0  0  0  0  0  0
  159.8370  214.1840  145.2250 C   0  0  1  0  0  3  0  0  0  0  0  0
  158.4020  213.7480  144.9180 C   0  0  0  0  0  2  0  0  0  0  0  0
  157.8210  213.9040  147.3430 C   0  0  0  0  0  2  0  0  0  0  0  0
  156.1360  213.9880  145.6430 O   0  0  0  0  0  1  0  0  0  0  0  0
  157.4480  214.3640  145.9360 C   0  0  2  0  0  3  0  0  0  0  0  0
  159.2540  214.3340  147.6730 C   0  0  0  0  0  2  0  0  0  0  0  0
  160.2540  213.7800  146.6490 C   0  0  1  0  0  3  0  0  0  0  0  0
  160.8100  213.6540  144.1790 C   0  0  0  0  0  2  0  0  0  0  0  0
  162.0450  214.2830  144.3140 O   0  0  0  0  0  0  0  0  0  0  0  0
  162.9730  213.3040  143.9640 C   0  0  0  0  0  1  0  0  0  0  0  0
  2  3  1  0  0  0  0
  2  1  2  0  0  0  0
  3 11  1  0  0  0  0
  5  4  2  0  0  0  0
  6 10  1  0  0  0  0
  7  8  2  0  0  0  0
  8  4  1  0  0  0  0
  8  3  1  0  0  0  0
  9  5  1  0  0  0  0
 10  9  2  0  0  0  0
 10  7  1  0  0  0  0
 12 13  1  0  0  0  0
 14 19  1  6  0  0  0
 14 12  1  0  0  0  0
 15 11  1  1  0  0  0
 15 16  1  0  0  0  0
 15 17  1  0  0  0  0
 16 14  1  0  0  0  0
 17 13  1  0  0  0  0
 18 19  1  0  0  0  0
 19 23  2  0  0  0  0
 20 21  2  0  0  0  0
 21 23  1  0  0  0  0
 22 20  1  0  0  0  0
 22 18  2  0  0  0  0
 24 22  1  0  0  0  0
 25 27  1  0  0  0  0
 25 24  1  0  0  0  0
 26 25  1  0  0  0  0
 28 27  1  0  0  0  0
 29 28  1  0  0  0  0
 30 29  1  0  0  0  0
 30 26  1  0  0  0  0
 31  2  1  0  0  0  0
 32 35  1  6  0  0  0
 32 31  1  0  0  0  0
 34 32  1  0  0  0  0
 34 33  1  0  0  0  0
 36 43  1  6  0  0  0
 36 42  1  0  0  0  0
 37 36  1  0  0  0  0
 37 40  1  0  0  0  0
 38 41  1  0  0  0  0
 40 39  1  6  0  0  0
 40 38  1  0  0  0  0
 42 35  1  6  0  0  0
 42 41  1  0  0  0  0
 43 44  1  0  0  0  0
 45 44  1  0  0  0  0
M  END
>  <MODEL>
5

>  <REMARK>
 VINA RESULT:      -5.5      4.318     10.228
  Name = 
  13 active torsions:
  status: ('A' for Active; 'I' for Inactive)
    1  A    between atoms: C_2  and  C_17
    2  A    between atoms: C_3  and  C_36
    3  A    between atoms: C_4  and  C_18
    4  A    between atoms: C_4  and  N_23
    5  A    between atoms: C_10  and  C_14
    6  A    between atoms: C_10  and  C_15
    7  A    between atoms: C_11  and  O_42
    8  A    between atoms: C_16  and  C_35
    9  A    between atoms: C_16  and  C_43
   10  A    between atoms: N_23  and  C_33
   11  A    between atoms: O_25  and  C_36
   12  A    between atoms: C_35  and  C_41
   13  A    between atoms: C_35  and  O_42
                            x       y       z     vdW  Elec       q    Type
                         _______ _______ _______ _____ _____    ______ ____

>  <TORSDO>
F 13

$$$$
=
 OpenBabel11072412053D

 45 49  0  0  1  0  0  0  0  0999 V2000
  161.9480  211.0550  150.5990 O   0  0  0  0  0  0  0  0  0  0  0  0
  161.7960  211.0420  149.3450 C   0  0  0  0  0  0  0  0  0  0  0  0
  161.4060  212.2500  148.6590 N   0  0  0  0  0  0  0  0  0  0  0  0
  162.4460  212.8210  146.4780 C   0  0  0  0  0  3  0  0  0  0  0  0
  162.3660  212.9550  145.0900 C   0  0  0  0  0  3  0  0  0  0  0  0
  158.9430  211.8270  144.5000 F   0  0  0  0  0  0  0  0  0  0  0  0
  160.1700  212.0120  146.5330 C   0  0  0  0  0  3  0  0  0  0  0  0
  161.3530  212.3410  147.2180 C   0  0  0  0  0  0  0  0  0  0  0  0
  161.1870  212.6200  144.4230 C   0  0  0  0  0  3  0  0  0  0  0  0
  160.0900  212.1440  145.1440 C   0  0  0  0  0  0  0  0  0  0  0  0
  161.1420  213.4510  149.4540 C   0  0  0  0  0  2  0  0  0  0  0  0
  157.1270  213.8490  150.7590 N   0  0  0  0  0  2  0  0  0  0  0  0
  157.4350  214.4530  149.4620 C   0  0  0  0  0  2  0  0  0  0  0  0
  158.1390  214.2270  151.7690 C   0  0  2  0  0  3  0  0  0  0  0  0
  159.7100  213.4360  149.9730 C   0  0  1  0  0  3  0  0  0  0  0  0
  159.5620  214.3400  151.1930 C   0  0  0  0  0  2  0  0  0  0  0  0
  158.7350  213.8690  148.8780 C   0  0  0  0  0  2  0  0  0  0  0  0
  159.3420  212.7260  153.4210 C   0  0  0  0  0  3  0  0  0  0  0  0
  158.1430  213.2590  152.9190 C   0  0  0  0  0  0  0  0  0  0  0  0
  158.1200  211.5920  155.1290 N   0  0  0  0  0  0  0  0  0  0  0  0
  156.9430  212.1050  154.6680 C   0  0  0  0  0  3  0  0  0  0  0  0
  159.3070  211.8770  154.5290 C   0  0  0  0  0  0  0  0  0  0  0  0
  156.9340  212.9450  153.5560 C   0  0  0  0  0  3  0  0  0  0  0  0
  160.5770  211.2880  155.0600 C   0  0  0  0  0  2  0  0  0  0  0  0
  160.3780  209.9090  155.6930 C   0  0  0  0  0  3  0  0  0  0  0  0
  160.4500  208.7810  154.6600 C   0  0  0  0  0  2  0  0  0  0  0  0
  161.3310  209.6800  156.8830 C   0  0  0  0  0  2  0  0  0  0  0  0
  161.6610  208.1990  157.1210 C   0  0  0  0  0  2  0  0  0  0  0  0
  160.4700  207.3100  156.7770 C   0  0  0  0  0  2  0  0  0  0  0  0
  160.1140  207.4150  155.2900 C   0  0  0  0  0  2  0  0  0  0  0  0
  161.9960  209.8540  148.6270 O   0  0  0  0  0  0  0  0  0  0  0  0
  162.3100  208.5910  149.2220 C   0  0  1  0  0  3  0  0  0  0  0  0
  162.3290  207.9960  151.6440 C   0  0  0  0  0  1  0  0  0  0  0  0
  161.4520  208.3210  150.4490 C   0  0  0  0  0  2  0  0  0  0  0  0
  162.1790  207.4530  148.2210 C   0  0  0  0  0  2  0  0  0  0  0  0
  160.5330  205.8230  147.1450 C   0  0  1  0  0  3  0  0  0  0  0  0
  161.3240  204.5380  147.4070 C   0  0  0  0  0  2  0  0  0  0  0  0
  161.2310  204.9660  149.8660 C   0  0  0  0  0  2  0  0  0  0  0  0
  161.6310  202.7730  148.9910 O   0  0  0  0  0  1  0  0  0  0  0  0
  160.9290  203.9580  148.7610 C   0  0  2  0  0  3  0  0  0  0  0  0
  160.4460  206.2600  149.6260 C   0  0  0  0  0  2  0  0  0  0  0  0
  160.7690  206.8630  148.2520 C   0  0  1  0  0  3  0  0  0  0  0  0
  160.8410  206.3870  145.7630 C   0  0  0  0  0  2  0  0  0  0  0  0
  161.7360  205.5550  145.0960 O   0  0  0  0  0  0  0  0  0  0  0  0
  161.3600  205.6420  143.7570 C   0  0  0  0  0  1  0  0  0  0  0  0
  2  1  2  0  0  0  0
  3  2  1  0  0  0  0
  3 11  1  0  0  0  0
  4  8  1  0  0  0  0
  5  4  2  0  0  0  0
  6 10  1  0  0  0  0
  7  8  2  0  0  0  0
  8  3  1  0  0  0  0
  9  5  1  0  0  0  0
  9 10  2  0  0  0  0
 10  7  1  0  0  0  0
 12 14  1  0  0  0  0
 13 12  1  0  0  0  0
 14 19  1  1  0  0  0
 15 11  1  6  0  0  0
 15 16  1  0  0  0  0
 16 14  1  0  0  0  0
 17 13  1  0  0  0  0
 17 15  1  0  0  0  0
 18 22  1  0  0  0  0
 19 18  2  0  0  0  0
 19 23  1  0  0  0  0
 21 20  1  0  0  0  0
 22 24  1  0  0  0  0
 22 20  2  0  0  0  0
 23 21  2  0  0  0  0
 24 25  1  0  0  0  0
 25 27  1  0  0  0  0
 26 30  1  0  0  0  0
 26 25  1  0  0  0  0
 27 28  1  0  0  0  0
 29 28  1  0  0  0  0
 30 29  1  0  0  0  0
 31 32  1  0  0  0  0
 31  2  1  0  0  0  0
 32 35  1  6  0  0  0
 32 34  1  0  0  0  0
 34 33  1  0  0  0  0
 36 43  1  6  0  0  0
 36 37  1  0  0  0  0
 36 42  1  0  0  0  0
 37 40  1  0  0  0  0
 40 39  1  1  0  0  0
 40 38  1  0  0  0  0
 41 38  1  0  0  0  0
 42 35  1  1  0  0  0
 42 41  1  0  0  0  0
 44 43  1  0  0  0  0
 45 44  1  0  0  0  0
M  END
>  <MODEL>
6

>  <REMARK>
 VINA RESULT:      -5.3      2.503      4.718
  Name = 
  13 active torsions:
  status: ('A' for Active; 'I' for Inactive)
    1  A    between atoms: C_2  and  C_17
    2  A    between atoms: C_3  and  C_36
    3  A    between atoms: C_4  and  C_18
    4  A    between atoms: C_4  and  N_23
    5  A    between atoms: C_10  and  C_14
    6  A    between atoms: C_10  and  C_15
    7  A    between atoms: C_11  and  O_42
    8  A    between atoms: C_16  and  C_35
    9  A    between atoms: C_16  and  C_43
   10  A    between atoms: N_23  and  C_33
   11  A    between atoms: O_25  and  C_36
   12  A    between atoms: C_35  and  C_41
   13  A    between atoms: C_35  and  O_42
                            x       y       z     vdW  Elec       q    Type
                         _______ _______ _______ _____ _____    ______ ____

>  <TORSDO>
F 13

$$$$
=
 OpenBabel11072412053D

 45 49  0  0  1  0  0  0  0  0999 V2000
  161.9530  211.1300  149.8010 O   0  0  0  0  0  0  0  0  0  0  0  0
  160.9900  211.5480  150.5030 C   0  0  0  0  0  0  0  0  0  0  0  0
  160.9120  211.1890  151.8980 N   0  0  0  0  0  0  0  0  0  0  0  0
  158.5740  211.8600  152.3980 C   0  0  0  0  0  3  0  0  0  0  0  0
  157.6320  212.4460  153.2450 C   0  0  0  0  0  3  0  0  0  0  0  0
  159.7390  213.3140  156.0990 F   0  0  0  0  0  0  0  0  0  0  0  0
  160.2990  212.2470  154.0440 C   0  0  0  0  0  3  0  0  0  0  0  0
  159.9190  211.7450  152.7880 C   0  0  0  0  0  0  0  0  0  0  0  0
  158.0230  212.9360  154.4920 C   0  0  0  0  0  3  0  0  0  0  0  0
  159.3560  212.8320  154.8940 C   0  0  0  0  0  0  0  0  0  0  0  0
  161.9360  210.2980  152.4490 C   0  0  0  0  0  2  0  0  0  0  0  0
  160.4550  206.7040  154.1430 N   0  0  0  0  0  2  0  0  0  0  0  0
  160.6960  207.7970  155.0860 C   0  0  0  0  0  2  0  0  0  0  0  0
  161.6110  206.5230  153.2400 C   0  0  2  0  0  3  0  0  0  0  0  0
  161.3010  208.9980  152.9270 C   0  0  1  0  0  3  0  0  0  0  0  0
  162.2990  207.8450  152.8580 C   0  0  0  0  0  2  0  0  0  0  0  0
  160.7710  209.1490  154.3530 C   0  0  0  0  0  2  0  0  0  0  0  0
  161.1140  206.4550  150.7540 C   0  0  0  0  0  3  0  0  0  0  0  0
  161.2100  205.7920  151.9880 C   0  0  0  0  0  0  0  0  0  0  0  0
  160.6080  204.3830  149.6830 N   0  0  0  0  0  0  0  0  0  0  0  0
  160.7060  203.7140  150.8670 C   0  0  0  0  0  3  0  0  0  0  0  0
  160.7970  205.7280  149.6040 C   0  0  0  0  0  0  0  0  0  0  0  0
  161.0070  204.4050  152.0390 C   0  0  0  0  0  3  0  0  0  0  0  0
  160.6740  206.4290  148.2870 C   0  0  0  0  0  2  0  0  0  0  0  0
  160.9960  205.5230  147.0960 C   0  0  0  0  0  3  0  0  0  0  0  0
  160.6260  206.1700  145.7580 C   0  0  0  0  0  2  0  0  0  0  0  0
  162.4570  205.0300  147.1280 C   0  0  0  0  0  2  0  0  0  0  0  0
  163.0220  204.7130  145.7350 C   0  0  0  0  0  2  0  0  0  0  0  0
  161.9370  204.1600  144.8170 C   0  0  0  0  0  2  0  0  0  0  0  0
  160.8310  205.1940  144.5830 C   0  0  0  0  0  2  0  0  0  0  0  0
  159.9940  212.3470  149.9220 O   0  0  0  0  0  0  0  0  0  0  0  0
  160.1490  213.7350  149.6130 C   0  0  1  0  0  3  0  0  0  0  0  0
  162.2350  214.4530  148.4500 C   0  0  0  0  0  1  0  0  0  0  0  0
  161.5880  214.1940  149.7980 C   0  0  0  0  0  2  0  0  0  0  0  0
  159.6680  214.0520  148.2040 C   0  0  0  0  0  2  0  0  0  0  0  0
  157.7240  213.0820  146.8620 C   0  0  1  0  0  3  0  0  0  0  0  0
  157.8920  213.9480  145.6100 C   0  0  0  0  0  2  0  0  0  0  0  0
  160.2030  213.0550  145.2870 C   0  0  0  0  0  2  0  0  0  0  0  0
  158.9760  214.0380  143.4800 O   0  0  0  0  0  1  0  0  0  0  0  0
  158.8400  213.2610  144.6320 C   0  0  2  0  0  3  0  0  0  0  0  0
  160.0580  212.1860  146.5400 C   0  0  0  0  0  2  0  0  0  0  0  0
  159.0750  212.8080  147.5420 C   0  0  1  0  0  3  0  0  0  0  0  0
  156.7180  213.6970  147.8270 C   0  0  0  0  0  2  0  0  0  0  0  0
  156.7060  212.9830  149.0230 O   0  0  0  0  0  0  0  0  0  0  0  0
  156.2110  213.8870  149.9610 C   0  0  0  0  0  1  0  0  0  0  0  0
  1  2  2  0  0  0  0
  2  3  1  0  0  0  0
  3 11  1  0  0  0  0
  3  8  1  0  0  0  0
  4  8  2  0  0  0  0
  4  5  1  0  0  0  0
  5  9  2  0  0  0  0
  7 10  2  0  0  0  0
  8  7  1  0  0  0  0
  9 10  1  0  0  0  0
 10  6  1  0  0  0  0
 12 13  1  0  0  0  0
 14 19  1  6  0  0  0
 14 12  1  0  0  0  0
 15 11  1  1  0  0  0
 15 17  1  0  0  0  0
 16 15  1  0  0  0  0
 16 14  1  0  0  0  0
 17 13  1  0  0  0  0
 18 19  1  0  0  0  0
 19 23  2  0  0  0  0
 20 21  2  0  0  0  0
 21 23  1  0  0  0  0
 22 20  1  0  0  0  0
 22 18  2  0  0  0  0
 24 22  1  0  0  0  0
 25 27  1  0  0  0  0
 25 24  1  0  0  0  0
 26 25  1  0  0  0  0
 28 27  1  0  0  0  0
 29 28  1  0  0  0  0
 30 29  1  0  0  0  0
 30 26  1  0  0  0  0
 31  2  1  0  0  0  0
 32 35  1  6  0  0  0
 32 34  1  0  0  0  0
 32 31  1  0  0  0  0
 33 34  1  0  0  0  0
 36 42  1  0  0  0  0
 36 43  1  1  0  0  0
 37 36  1  0  0  0  0
 38 41  1  0  0  0  0
 40 39  1  6  0  0  0
 40 38  1  0  0  0  0
 40 37  1  0  0  0  0
 41 42  1  0  0  0  0
 42 35  1  6  0  0  0
 43 44  1  0  0  0  0
 44 45  1  0  0  0  0
M  END
>  <MODEL>
7

>  <REMARK>
 VINA RESULT:      -5.2      2.728      9.036
  Name = 
  13 active torsions:
  status: ('A' for Active; 'I' for Inactive)
    1  A    between atoms: C_2  and  C_17
    2  A    between atoms: C_3  and  C_36
    3  A    between atoms: C_4  and  C_18
    4  A    between atoms: C_4  and  N_23
    5  A    between atoms: C_10  and  C_14
    6  A    between atoms: C_10  and  C_15
    7  A    between atoms: C_11  and  O_42
    8  A    between atoms: C_16  and  C_35
    9  A    between atoms: C_16  and  C_43
   10  A    between atoms: N_23  and  C_33
   11  A    between atoms: O_25  and  C_36
   12  A    between atoms: C_35  and  C_41
   13  A    between atoms: C_35  and  O_42
                            x       y       z     vdW  Elec       q    Type
                         _______ _______ _______ _____ _____    ______ ____

>  <TORSDO>
F 13

$$$$
=
 OpenBabel11072412053D

 45 49  0  0  1  0  0  0  0  0999 V2000
  161.4820  206.6980  153.1630 O   0  0  0  0  0  0  0  0  0  0  0  0
  161.3510  207.3090  152.0660 C   0  0  0  0  0  0  0  0  0  0  0  0
  161.8100  208.6710  151.9460 N   0  0  0  0  0  0  0  0  0  0  0  0
  161.9360  208.6930  149.4660 C   0  0  0  0  0  3  0  0  0  0  0  0
  161.9970  209.3900  148.2570 C   0  0  0  0  0  3  0  0  0  0  0  0
  161.8050  212.8360  149.4550 F   0  0  0  0  0  0  0  0  0  0  0  0
  161.7810  210.7840  150.6660 C   0  0  0  0  0  3  0  0  0  0  0  0
  161.8200  209.3800  150.6870 C   0  0  0  0  0  0  0  0  0  0  0  0
  161.9520  210.7860  148.2530 C   0  0  0  0  0  3  0  0  0  0  0  0
  161.8400  211.4820  149.4580 C   0  0  0  0  0  0  0  0  0  0  0  0
  162.3710  209.3270  153.1300 C   0  0  0  0  0  2  0  0  0  0  0  0
  159.1150  209.9840  155.7640 N   0  0  0  0  0  2  0  0  0  0  0  0
  159.7960  208.6960  155.9070 C   0  0  0  0  0  2  0  0  0  0  0  0
  158.8200  210.2690  154.3440 C   0  0  2  0  0  3  0  0  0  0  0  0
  161.2590  209.7180  154.0940 C   0  0  1  0  0  3  0  0  0  0  0  0
  159.9110  209.7670  153.3820 C   0  0  0  0  0  2  0  0  0  0  0  0
  161.1960  208.7410  155.2690 C   0  0  0  0  0  2  0  0  0  0  0  0
  157.6560  212.2040  153.1900 C   0  0  0  0  0  3  0  0  0  0  0  0
  158.5990  211.7400  154.1220 C   0  0  0  0  0  0  0  0  0  0  0  0
  158.1210  214.4520  153.8440 N   0  0  0  0  0  0  0  0  0  0  0  0
  159.0340  214.0260  154.7630 C   0  0  0  0  0  3  0  0  0  0  0  0
  157.4380  213.5770  153.0570 C   0  0  0  0  0  0  0  0  0  0  0  0
  159.2900  212.6650  154.9170 C   0  0  0  0  0  3  0  0  0  0  0  0
  156.4490  214.0830  152.0530 C   0  0  0  0  0  2  0  0  0  0  0  0
  157.0620  214.3050  150.6690 C   0  0  0  0  0  3  0  0  0  0  0  0
  158.5460  213.9300  150.6240 C   0  0  0  0  0  2  0  0  0  0  0  0
  156.2450  213.6120  149.5600 C   0  0  0  0  0  2  0  0  0  0  0  0
  157.0870  213.2280  148.3350 C   0  0  0  0  0  2  0  0  0  0  0  0
  158.1950  214.2470  148.0900 C   0  0  0  0  0  2  0  0  0  0  0  0
  159.1780  214.2870  149.2640 C   0  0  0  0  0  2  0  0  0  0  0  0
  160.7490  206.6680  150.9730 O   0  0  0  0  0  0  0  0  0  0  0  0
  161.1180  205.3720  150.4910 C   0  0  1  0  0  3  0  0  0  0  0  0
  161.5290  203.2100  151.6640 C   0  0  0  0  0  1  0  0  0  0  0  0
  160.4910  204.2640  151.3250 C   0  0  0  0  0  2  0  0  0  0  0  0
  160.7600  205.1990  149.0220 C   0  0  0  0  0  2  0  0  0  0  0  0
  161.8650  203.5840  147.3800 C   0  0  1  0  0  3  0  0  0  0  0  0
  160.8650  203.7510  146.2320 C   0  0  0  0  0  2  0  0  0  0  0  0
  161.3790  206.1930  146.1210 C   0  0  0  0  0  2  0  0  0  0  0  0
  160.4120  205.0310  144.2640 O   0  0  0  0  0  1  0  0  0  0  0  0
  161.3090  204.8930  145.3250 C   0  0  2  0  0  3  0  0  0  0  0  0
  162.3780  206.0500  147.2740 C   0  0  0  0  0  2  0  0  0  0  0  0
  162.0060  204.8800  148.1950 C   0  0  1  0  0  3  0  0  0  0  0  0
  161.4980  202.3970  148.2630 C   0  0  0  0  0  2  0  0  0  0  0  0
  160.9320  201.3860  147.4910 O   0  0  0  0  0  0  0  0  0  0  0  0
  161.3380  200.2070  148.1130 C   0  0  0  0  0  1  0  0  0  0  0  0
  2  1  2  0  0  0  0
  3  2  1  0  0  0  0
  3 11  1  0  0  0  0
  4  8  1  0  0  0  0
  5  4  2  0  0  0  0
  6 10  1  0  0  0  0
  7  8  2  0  0  0  0
  8  3  1  0  0  0  0
  9  5  1  0  0  0  0
  9 10  2  0  0  0  0
 10  7  1  0  0  0  0
 12 13  1  0  0  0  0
 14 19  1  1  0  0  0
 14 12  1  0  0  0  0
 15 11  1  6  0  0  0
 15 17  1  0  0  0  0
 16 15  1  0  0  0  0
 16 14  1  0  0  0  0
 17 13  1  0  0  0  0
 18 19  1  0  0  0  0
 19 23  2  0  0  0  0
 20 21  2  0  0  0  0
 21 23  1  0  0  0  0
 22 18  2  0  0  0  0
 22 20  1  0  0  0  0
 24 22  1  0  0  0  0
 25 24  1  0  0  0  0
 26 25  1  0  0  0  0
 27 25  1  0  0  0  0
 28 27  1  0  0  0  0
 29 28  1  0  0  0  0
 29 30  1  0  0  0  0
 30 26  1  0  0  0  0
 31  2  1  0  0  0  0
 32 35  1  6  0  0  0
 32 31  1  0  0  0  0
 32 34  1  0  0  0  0
 34 33  1  0  0  0  0
 36 42  1  0  0  0  0
 36 43  1  1  0  0  0
 37 36  1  0  0  0  0
 38 41  1  0  0  0  0
 40 39  1  6  0  0  0
 40 38  1  0  0  0  0
 40 37  1  0  0  0  0
 41 42  1  0  0  0  0
 42 35  1  6  0  0  0
 44 45  1  0  0  0  0
 44 43  1  0  0  0  0
M  END
>  <MODEL>
8

>  <REMARK>
 VINA RESULT:      -5.1      2.067      5.143
  Name = 
  13 active torsions:
  status: ('A' for Active; 'I' for Inactive)
    1  A    between atoms: C_2  and  C_17
    2  A    between atoms: C_3  and  C_36
    3  A    between atoms: C_4  and  C_18
    4  A    between atoms: C_4  and  N_23
    5  A    between atoms: C_10  and  C_14
    6  A    between atoms: C_10  and  C_15
    7  A    between atoms: C_11  and  O_42
    8  A    between atoms: C_16  and  C_35
    9  A    between atoms: C_16  and  C_43
   10  A    between atoms: N_23  and  C_33
   11  A    between atoms: O_25  and  C_36
   12  A    between atoms: C_35  and  C_41
   13  A    between atoms: C_35  and  O_42
                            x       y       z     vdW  Elec       q    Type
                         _______ _______ _______ _____ _____    ______ ____

>  <TORSDO>
F 13

$$$$
=
 OpenBabel11072412053D

 45 49  0  0  1  0  0  0  0  0999 V2000
  161.5510  209.6670  147.7480 O   0  0  0  0  0  0  0  0  0  0  0  0
  161.7120  208.7990  148.6520 C   0  0  0  0  0  0  0  0  0  0  0  0
  161.8300  209.2130  150.0280 N   0  0  0  0  0  0  0  0  0  0  0  0
  162.7050  207.1370  151.0730 C   0  0  0  0  0  3  0  0  0  0  0  0
  162.7010  206.2020  152.1110 C   0  0  0  0  0  3  0  0  0  0  0  0
  160.1990  207.6700  154.3300 F   0  0  0  0  0  0  0  0  0  0  0  0
  161.0260  208.4320  152.2310 C   0  0  0  0  0  3  0  0  0  0  0  0
  161.8740  208.2680  151.1210 C   0  0  0  0  0  0  0  0  0  0  0  0
  161.8580  206.3810  153.2090 C   0  0  0  0  0  3  0  0  0  0  0  0
  161.0230  207.4990  153.2700 C   0  0  0  0  0  0  0  0  0  0  0  0
  161.8140  210.6450  150.3330 C   0  0  0  0  0  2  0  0  0  0  0  0
  162.4800  213.2050  147.0180 N   0  0  0  0  0  2  0  0  0  0  0  0
  163.6380  212.9720  147.8820 C   0  0  0  0  0  2  0  0  0  0  0  0
  161.2840  213.5410  147.8200 C   0  0  2  0  0  3  0  0  0  0  0  0
  161.9620  211.4580  149.0530 C   0  0  1  0  0  3  0  0  0  0  0  0
  161.2150  212.7840  149.1580 C   0  0  0  0  0  2  0  0  0  0  0  0
  163.4380  211.7100  148.7420 C   0  0  0  0  0  2  0  0  0  0  0  0
  159.9990  213.3770  145.6400 C   0  0  0  0  0  3  0  0  0  0  0  0
  160.0220  213.2910  147.0420 C   0  0  0  0  0  0  0  0  0  0  0  0
  157.7150  212.6850  145.6370 N   0  0  0  0  0  0  0  0  0  0  0  0
  157.7140  212.5830  146.9970 C   0  0  0  0  0  3  0  0  0  0  0  0
  158.8220  213.0790  144.9510 C   0  0  0  0  0  0  0  0  0  0  0  0
  158.8650  212.8850  147.7220 C   0  0  0  0  0  3  0  0  0  0  0  0
  158.7820  213.1860  143.4580 C   0  0  0  0  0  2  0  0  0  0  0  0
  160.1530  212.9830  142.8070 C   0  0  0  0  0  3  0  0  0  0  0  0
  160.2050  211.7170  141.9470 C   0  0  0  0  0  2  0  0  0  0  0  0
  160.6160  214.2370  142.0390 C   0  0  0  0  0  2  0  0  0  0  0  0
  161.5700  213.9200  140.8780 C   0  0  0  0  0  2  0  0  0  0  0  0
  162.4590  212.7260  141.2090 C   0  0  0  0  0  2  0  0  0  0  0  0
  161.6260  211.4570  141.4110 C   0  0  0  0  0  2  0  0  0  0  0  0
  161.7870  207.4400  148.3130 O   0  0  0  0  0  0  0  0  0  0  0  0
  160.8430  206.7610  147.4780 C   0  0  1  0  0  3  0  0  0  0  0  0
  160.3300  205.9320  145.1830 C   0  0  0  0  0  1  0  0  0  0  0  0
  161.4020  206.5170  146.0830 C   0  0  0  0  0  2  0  0  0  0  0  0
  160.3850  205.4510  148.1030 C   0  0  0  0  0  2  0  0  0  0  0  0
  161.1910  203.5740  149.6350 C   0  0  1  0  0  3  0  0  0  0  0  0
  160.3910  202.4360  148.9950 C   0  0  0  0  0  2  0  0  0  0  0  0
  161.5320  202.8430  146.8100 C   0  0  0  0  0  2  0  0  0  0  0  0
  160.4880  200.7460  147.3060 O   0  0  0  0  0  1  0  0  0  0  0  0
  161.2060  201.7990  147.8740 C   0  0  2  0  0  3  0  0  0  0  0  0
  162.3370  203.9910  147.4280 C   0  0  0  0  0  2  0  0  0  0  0  0
  161.5820  204.6390  148.5970 C   0  0  1  0  0  3  0  0  0  0  0  0
  160.4410  204.1800  150.8140 C   0  0  0  0  0  2  0  0  0  0  0  0
  160.5170  203.3310  151.9150 O   0  0  0  0  0  0  0  0  0  0  0  0
  161.7470  202.6910  151.7760 C   0  0  0  0  0  1  0  0  0  0  0  0
  1  2  2  0  0  0  0
  2  3  1  0  0  0  0
  3 11  1  0  0  0  0
  3  8  1  0  0  0  0
  4  8  2  0  0  0  0
  4  5  1  0  0  0  0
  5  9  2  0  0  0  0
  7 10  2  0  0  0  0
  8  7  1  0  0  0  0
  9 10  1  0  0  0  0
 10  6  1  0  0  0  0
 12 14  1  0  0  0  0
 12 13  1  0  0  0  0
 13 17  1  0  0  0  0
 14 19  1  6  0  0  0
 14 16  1  0  0  0  0
 15 16  1  0  0  0  0
 15 11  1  1  0  0  0
 17 15  1  0  0  0  0
 18 19  1  0  0  0  0
 19 23  2  0  0  0  0
 20 21  2  0  0  0  0
 21 23  1  0  0  0  0
 22 20  1  0  0  0  0
 22 18  2  0  0  0  0
 24 22  1  0  0  0  0
 25 24  1  0  0  0  0
 26 25  1  0  0  0  0
 27 25  1  0  0  0  0
 28 29  1  0  0  0  0
 28 27  1  0  0  0  0
 29 30  1  0  0  0  0
 30 26  1  0  0  0  0
 31  2  1  0  0  0  0
 32 34  1  6  0  0  0
 32 35  1  0  0  0  0
 32 31  1  0  0  0  0
 33 34  1  0  0  0  0
 36 43  1  1  0  0  0
 37 36  1  0  0  0  0
 38 41  1  0  0  0  0
 38 40  1  0  0  0  0
 40 39  1  6  0  0  0
 40 37  1  0  0  0  0
 41 42  1  0  0  0  0
 42 35  1  6  0  0  0
 42 36  1  0  0  0  0
 43 44  1  0  0  0  0
 45 44  1  0  0  0  0
M  END
>  <MODEL>
9

>  <REMARK>
 VINA RESULT:      -4.9      3.484      6.749
  Name = 
  13 active torsions:
  status: ('A' for Active; 'I' for Inactive)
    1  A    between atoms: C_2  and  C_17
    2  A    between atoms: C_3  and  C_36
    3  A    between atoms: C_4  and  C_18
    4  A    between atoms: C_4  and  N_23
    5  A    between atoms: C_10  and  C_14
    6  A    between atoms: C_10  and  C_15
    7  A    between atoms: C_11  and  O_42
    8  A    between atoms: C_16  and  C_35
    9  A    between atoms: C_16  and  C_43
   10  A    between atoms: N_23  and  C_33
   11  A    between atoms: O_25  and  C_36
   12  A    between atoms: C_35  and  C_41
   13  A    between atoms: C_35  and  O_42
                            x       y       z     vdW  Elec       q    Type
                         _______ _______ _______ _____ _____    ______ ____

>  <TORSDO>
F 13

$$$$
