=
 OpenBabel11072412403D

 31 33  0  0  1  0  0  0  0  0999 V2000
  160.7880  205.3180  152.9820 C   0  0  0  0  0  2  0  0  0  0  0  0
  162.0130  208.9340  152.3820 C   0  0  2  0  0  3  0  0  0  0  0  0
  160.4600  206.6770  155.4830 O   0  0  0  0  0  0  0  0  0  0  0  0
  161.1800  206.7470  153.2210 C   0  0  0  0  0  0  0  0  0  0  0  0
  161.9150  209.6190  151.1690 O   0  0  0  0  0  1  0  0  0  0  0  0
  160.9360  207.3630  154.5410 C   0  0  0  0  0  0  0  0  0  0  0  0
  161.6090  207.4980  152.2000 C   0  0  0  0  0  3  0  0  0  0  0  0
  161.9080  210.8500  153.7820 O   0  0  0  0  0  1  0  0  0  0  0  0
  161.2410  209.6570  153.5050 C   0  0  2  0  0  0  0  0  0  0  0  0
  161.2580  208.8110  154.7870 C   0  0  0  0  0  2  0  0  0  0  0  0
  159.8040  210.0160  153.1000 C   0  0  0  0  0  2  0  0  0  0  0  0
  159.0720  210.5480  154.1660 O   0  0  0  0  0  0  0  0  0  0  0  0
  158.5160  212.0530  153.6230 P   0  0  0  0  0  0  0  0  0  0  0  0
  158.6750  212.1560  151.9420 O   0  0  0  0  0  0  0  0  0  0  0  0
  159.3370  213.1460  154.2690 O   0  0  0  0  0  1  0  0  0  0  0  0
  156.8910  212.2560  154.0510 O   0  0  0  0  0  1  0  0  0  0  0  0
  161.5630  204.6850  151.8300 C   0  0  0  0  0  2  0  0  0  0  0  0
  160.6340  204.0990  150.7730 C   0  0  0  0  0  2  0  0  0  0  0  0
  161.4070  203.4190  149.6420 C   0  0  1  0  0  3  0  0  0  0  0  0
  161.5500  201.0990  148.7300 O   0  0  0  0  0  0  0  0  0  0  0  0
  160.7800  202.0960  149.3100 C   0  0  0  0  0  0  0  0  0  0  0  0
  159.5610  201.8850  149.5510 O   0  0  0  0  0  1  0  0  0  0  0  0
  161.4670  204.3370  148.4090 C   0  0  1  0  0  3  0  0  0  0  0  0
  160.7610  203.0220  144.9070 O   0  0  0  0  0  0  0  0  0  0  0  0
  160.8500  203.6960  147.2470 N   0  0  0  0  0  2  0  0  0  0  0  0
  162.6040  204.0870  145.7480 O   0  0  0  0  0  1  0  0  0  0  0  0
  161.4530  203.6190  145.9500 C   0  0  0  0  0  0  0  0  0  0  0  0
  160.8230  205.6990  148.6710 C   0  0  2  0  0  3  0  0  0  0  0  0
  161.4710  208.0250  148.1980 C   0  0  0  0  0  2  0  0  0  0  0  0
  161.1910  206.6750  147.5670 C   0  0  1  0  0  3  0  0  0  0  0  0
  161.8980  206.7470  148.8920 C   0  0  2  0  0  3  0  0  0  0  0  0
  1  4  1  0  0  0  0
  2  5  1  6  0  0  0
  2  9  1  0  0  0  0
  4  6  1  0  0  0  0
  6 10  1  0  0  0  0
  6  3  2  0  0  0  0
  7  2  1  0  0  0  0
  7  4  2  0  0  0  0
  9  8  1  1  0  0  0
  9 10  1  0  0  0  0
 11  9  1  0  0  0  0
 11 12  1  0  0  0  0
 13 16  1  0  0  0  0
 13 12  1  0  0  0  0
 13 15  1  0  0  0  0
 14 13  2  0  0  0  0
 17  1  1  0  0  0  0
 18 17  1  0  0  0  0
 19 18  1  1  0  0  0
 20 21  2  0  0  0  0
 21 22  1  0  0  0  0
 21 19  1  0  0  0  0
 23 25  1  6  0  0  0
 23 19  1  0  0  0  0
 24 27  2  0  0  0  0
 26 27  1  0  0  0  0
 27 25  1  0  0  0  0
 28 23  1  6  0  0  0
 28 31  1  0  0  0  0
 30 29  1  1  0  0  0
 30 28  1  0  0  0  0
 30 31  1  0  0  0  0
 31 29  1  1  0  0  0
M  END
>  <MODEL>
1

>  <REMARK>
 VINA RESULT:      -6.9      0.000      0.000
  Name = 
  11 active torsions:
  status: ('A' for Active; 'I' for Inactive)
    1  A    between atoms: P_2  and  O_28
    2  A    between atoms: N_3  and  C_27
    3  A    between atoms: C_6  and  C_26
    4  A    between atoms: C_11  and  C_13
    5  A    between atoms: C_11  and  C_25
    6  A    between atoms: C_11  and  C_27
    7  A    between atoms: C_13  and  C_15
    8  A    between atoms: C_15  and  C_26
    9  A    between atoms: C_18  and  C_27
   10  A    between atoms: C_23  and  C_24
   11  A    between atoms: C_23  and  O_28
                            x       y       z     vdW  Elec       q    Type
                         _______ _______ _______ _____ _____    ______ ____

>  <TORSDO>
F 11

$$$$
=
 OpenBabel11072412403D

 31 33  0  0  1  0  0  0  0  0999 V2000
  161.1570  207.1180  153.2290 C   0  0  0  0  0  2  0  0  0  0  0  0
  160.2400  210.8720  153.1770 C   0  0  2  0  0  3  0  0  0  0  0  0
  161.6740  208.0820  155.8760 O   0  0  0  0  0  0  0  0  0  0  0  0
  160.9790  208.5470  153.6530 C   0  0  0  0  0  0  0  0  0  0  0  0
  159.2410  211.4390  152.3830 O   0  0  0  0  0  1  0  0  0  0  0  0
  161.2420  208.9330  155.0550 C   0  0  0  0  0  0  0  0  0  0  0  0
  160.4430  209.4300  152.8040 C   0  0  0  0  0  3  0  0  0  0  0  0
  160.1070  212.4520  154.9470 O   0  0  0  0  0  1  0  0  0  0  0  0
  159.9640  211.0910  154.6790 C   0  0  2  0  0  0  0  0  0  0  0  0
  161.0080  210.3420  155.5220 C   0  0  0  0  0  2  0  0  0  0  0  0
  158.5380  210.6900  155.0830 C   0  0  0  0  0  2  0  0  0  0  0  0
  157.9860  211.5740  156.0150 O   0  0  0  0  0  0  0  0  0  0  0  0
  156.4250  211.9080  155.4470 P   0  0  0  0  0  0  0  0  0  0  0  0
  156.5110  212.7990  154.0120 O   0  0  0  0  0  0  0  0  0  0  0  0
  155.6820  212.7140  156.4890 O   0  0  0  0  0  1  0  0  0  0  0  0
  155.5910  210.4630  155.1660 O   0  0  0  0  0  1  0  0  0  0  0  0
  161.6470  206.9940  151.7890 C   0  0  0  0  0  2  0  0  0  0  0  0
  160.8460  205.9630  151.0020 C   0  0  0  0  0  2  0  0  0  0  0  0
  161.6580  204.6980  150.7200 C   0  0  1  0  0  3  0  0  0  0  0  0
  162.1740  202.5140  151.8170 O   0  0  0  0  0  0  0  0  0  0  0  0
  161.4360  203.6900  151.8090 C   0  0  0  0  0  0  0  0  0  0  0  0
  160.5850  203.8980  152.7150 O   0  0  0  0  0  1  0  0  0  0  0  0
  161.2930  204.1240  149.3410 C   0  0  1  0  0  3  0  0  0  0  0  0
  159.0200  201.0800  149.0930 O   0  0  0  0  0  1  0  0  0  0  0  0
  160.1540  203.2080  149.4380 N   0  0  0  0  0  2  0  0  0  0  0  0
  161.2160  201.3440  148.5030 O   0  0  0  0  0  0  0  0  0  0  0  0
  160.1700  201.8490  148.9890 C   0  0  0  0  0  0  0  0  0  0  0  0
  161.0070  205.2220  148.3160 C   0  0  2  0  0  3  0  0  0  0  0  0
  162.1190  205.9810  146.2560 C   0  0  0  0  0  2  0  0  0  0  0  0
  161.4760  204.7890  146.9370 C   0  0  1  0  0  3  0  0  0  0  0  0
  162.3110  205.7470  147.7420 C   0  0  2  0  0  3  0  0  0  0  0  0
  1  4  1  0  0  0  0
  2  5  1  6  0  0  0
  2  9  1  0  0  0  0
  4  6  1  0  0  0  0
  6 10  1  0  0  0  0
  6  3  2  0  0  0  0
  7  2  1  0  0  0  0
  7  4  2  0  0  0  0
  9  8  1  1  0  0  0
  9 11  1  0  0  0  0
  9 10  1  0  0  0  0
 11 12  1  0  0  0  0
 13 12  1  0  0  0  0
 13 15  1  0  0  0  0
 14 13  2  0  0  0  0
 16 13  1  0  0  0  0
 17  1  1  0  0  0  0
 18 17  1  0  0  0  0
 19 18  1  1  0  0  0
 19 21  1  0  0  0  0
 21 20  2  0  0  0  0
 21 22  1  0  0  0  0
 23 25  1  1  0  0  0
 23 19  1  0  0  0  0
 26 27  2  0  0  0  0
 27 24  1  0  0  0  0
 27 25  1  0  0  0  0
 28 23  1  1  0  0  0
 30 29  1  6  0  0  0
 30 31  1  0  0  0  0
 30 28  1  0  0  0  0
 31 29  1  6  0  0  0
 31 28  1  0  0  0  0
M  END
>  <MODEL>
2

>  <REMARK>
 VINA RESULT:      -6.8      1.850      2.735
  Name = 
  11 active torsions:
  status: ('A' for Active; 'I' for Inactive)
    1  A    between atoms: P_2  and  O_28
    2  A    between atoms: N_3  and  C_27
    3  A    between atoms: C_6  and  C_26
    4  A    between atoms: C_11  and  C_13
    5  A    between atoms: C_11  and  C_25
    6  A    between atoms: C_11  and  C_27
    7  A    between atoms: C_13  and  C_15
    8  A    between atoms: C_15  and  C_26
    9  A    between atoms: C_18  and  C_27
   10  A    between atoms: C_23  and  C_24
   11  A    between atoms: C_23  and  O_28
                            x       y       z     vdW  Elec       q    Type
                         _______ _______ _______ _____ _____    ______ ____

>  <TORSDO>
F 11

$$$$
=
 OpenBabel11072412403D

 31 33  0  0  1  0  0  0  0  0999 V2000
  160.9050  207.0870  152.8840 C   0  0  0  0  0  2  0  0  0  0  0  0
  160.9190  210.9080  153.4670 C   0  0  2  0  0  3  0  0  0  0  0  0
  160.5110  207.4460  155.6980 O   0  0  0  0  0  0  0  0  0  0  0  0
  160.8840  208.4240  153.5660 C   0  0  0  0  0  0  0  0  0  0  0  0
  160.4700  211.8570  152.5480 O   0  0  0  0  0  1  0  0  0  0  0  0
  160.6390  208.5000  155.0210 C   0  0  0  0  0  0  0  0  0  0  0  0
  160.9380  209.5430  152.8370 C   0  0  0  0  0  3  0  0  0  0  0  0
  160.4310  212.1710  155.4200 O   0  0  0  0  0  1  0  0  0  0  0  0
  160.1180  210.9700  154.7840 C   0  0  2  0  0  0  0  0  0  0  0  0
  160.5480  209.8280  155.7180 C   0  0  0  0  0  2  0  0  0  0  0  0
  158.5990  210.9530  154.5550 C   0  0  0  0  0  2  0  0  0  0  0  0
  157.8870  210.7990  155.7490 O   0  0  0  0  0  0  0  0  0  0  0  0
  156.3430  211.4210  155.4340 P   0  0  0  0  0  0  0  0  0  0  0  0
  156.4210  212.5550  154.1810 O   0  0  0  0  0  0  0  0  0  0  0  0
  155.8170  212.0920  156.6810 O   0  0  0  0  0  1  0  0  0  0  0  0
  155.2950  210.1660  154.9960 O   0  0  0  0  0  1  0  0  0  0  0  0
  161.6220  207.1310  151.5370 C   0  0  0  0  0  2  0  0  0  0  0  0
  161.3250  205.8960  150.6940 C   0  0  0  0  0  2  0  0  0  0  0  0
  160.9360  206.2600  149.2600 C   0  0  1  0  0  3  0  0  0  0  0  0
  161.3760  208.5110  148.2720 O   0  0  0  0  0  0  0  0  0  0  0  0
  161.8770  207.2960  148.7170 C   0  0  0  0  0  0  0  0  0  0  0  0
  163.1150  207.0710  148.6590 O   0  0  0  0  0  1  0  0  0  0  0  0
  160.9150  205.0020  148.3760 C   0  0  1  0  0  3  0  0  0  0  0  0
  161.9590  205.8350  144.8110 O   0  0  0  0  0  0  0  0  0  0  0  0
  161.6880  205.2090  147.1500 N   0  0  0  0  0  2  0  0  0  0  0  0
  159.9330  206.0530  145.8530 O   0  0  0  0  0  1  0  0  0  0  0  0
  161.1430  205.7150  145.9260 C   0  0  0  0  0  0  0  0  0  0  0  0
  161.4180  203.7650  149.1200 C   0  0  2  0  0  3  0  0  0  0  0  0
  160.6310  201.4420  149.3210 C   0  0  0  0  0  2  0  0  0  0  0  0
  161.0790  202.5070  148.3390 C   0  0  1  0  0  3  0  0  0  0  0  0
  160.2450  202.8930  149.5290 C   0  0  2  0  0  3  0  0  0  0  0  0
  1  4  1  0  0  0  0
  2  5  1  6  0  0  0
  2  9  1  0  0  0  0
  4  6  1  0  0  0  0
  6  3  2  0  0  0  0
  6 10  1  0  0  0  0
  7  2  1  0  0  0  0
  7  4  2  0  0  0  0
  9  8  1  1  0  0  0
  9 10  1  0  0  0  0
 11  9  1  0  0  0  0
 11 12  1  0  0  0  0
 13 12  1  0  0  0  0
 13 15  1  0  0  0  0
 14 13  2  0  0  0  0
 16 13  1  0  0  0  0
 17  1  1  0  0  0  0
 18 17  1  0  0  0  0
 19 18  1  1  0  0  0
 20 21  2  0  0  0  0
 21 19  1  0  0  0  0
 22 21  1  0  0  0  0
 23 25  1  6  0  0  0
 23 19  1  0  0  0  0
 24 27  2  0  0  0  0
 26 27  1  0  0  0  0
 27 25  1  0  0  0  0
 28 23  1  6  0  0  0
 28 31  1  0  0  0  0
 30 28  1  0  0  0  0
 30 29  1  1  0  0  0
 30 31  1  0  0  0  0
 31 29  1  1  0  0  0
M  END
>  <MODEL>
3

>  <REMARK>
 VINA RESULT:      -6.8      2.152      3.375
  Name = 
  11 active torsions:
  status: ('A' for Active; 'I' for Inactive)
    1  A    between atoms: P_2  and  O_28
    2  A    between atoms: N_3  and  C_27
    3  A    between atoms: C_6  and  C_26
    4  A    between atoms: C_11  and  C_13
    5  A    between atoms: C_11  and  C_25
    6  A    between atoms: C_11  and  C_27
    7  A    between atoms: C_13  and  C_15
    8  A    between atoms: C_15  and  C_26
    9  A    between atoms: C_18  and  C_27
   10  A    between atoms: C_23  and  C_24
   11  A    between atoms: C_23  and  O_28
                            x       y       z     vdW  Elec       q    Type
                         _______ _______ _______ _____ _____    ______ ____

>  <TORSDO>
F 11

$$$$
=
 OpenBabel11072412403D

 31 33  0  0  1  0  0  0  0  0999 V2000
  162.0900  206.1050  152.6230 C   0  0  0  0  0  2  0  0  0  0  0  0
  161.3220  207.8250  149.2490 C   0  0  2  0  0  3  0  0  0  0  0  0
  160.5360  204.2210  151.1250 O   0  0  0  0  0  0  0  0  0  0  0  0
  161.5320  206.3740  151.2560 C   0  0  0  0  0  0  0  0  0  0  0  0
  162.1610  208.7410  148.6100 O   0  0  0  0  0  1  0  0  0  0  0  0
  160.7710  205.3190  150.5550 C   0  0  0  0  0  0  0  0  0  0  0  0
  161.8500  207.5060  150.6190 C   0  0  0  0  0  3  0  0  0  0  0  0
  160.3060  206.9710  147.2790 O   0  0  0  0  0  1  0  0  0  0  0  0
  161.0730  206.5790  148.3750 C   0  0  2  0  0  0  0  0  0  0  0  0
  160.2580  205.5380  149.1590 C   0  0  0  0  0  2  0  0  0  0  0  0
  162.3730  205.9670  147.8320 C   0  0  0  0  0  2  0  0  0  0  0  0
  162.5050  206.1470  146.4520 O   0  0  0  0  0  0  0  0  0  0  0  0
  162.2790  204.6100  145.7740 P   0  0  0  0  0  0  0  0  0  0  0  0
  161.1600  204.6960  144.5080 O   0  0  0  0  0  0  0  0  0  0  0  0
  161.7550  203.6730  146.8380 O   0  0  0  0  0  1  0  0  0  0  0  0
  163.7510  204.0170  145.1880 O   0  0  0  0  0  1  0  0  0  0  0  0
  161.0980  206.4400  153.7340 C   0  0  0  0  0  2  0  0  0  0  0  0
  161.5970  207.5770  154.6190 C   0  0  0  0  0  2  0  0  0  0  0  0
  160.4730  208.5390  155.0070 C   0  0  1  0  0  3  0  0  0  0  0  0
  159.7430  206.9100  156.7540 O   0  0  0  0  0  0  0  0  0  0  0  0
  159.9820  208.2280  156.3910 C   0  0  0  0  0  0  0  0  0  0  0  0
  159.7820  209.1520  157.2240 O   0  0  0  0  0  1  0  0  0  0  0  0
  160.9530  209.9950  154.8960 C   0  0  1  0  0  3  0  0  0  0  0  0
  163.9700  211.0990  156.9390 O   0  0  0  0  0  0  0  0  0  0  0  0
  162.3050  210.1450  155.4370 N   0  0  0  0  0  2  0  0  0  0  0  0
  161.7620  211.6700  157.1270 O   0  0  0  0  0  1  0  0  0  0  0  0
  162.6480  211.0040  156.5310 C   0  0  0  0  0  0  0  0  0  0  0  0
  160.8940  210.5150  153.4590 C   0  0  2  0  0  3  0  0  0  0  0  0
  159.3630  211.9990  152.2300 C   0  0  0  0  0  2  0  0  0  0  0  0
  160.2890  211.9080  153.4280 C   0  0  1  0  0  3  0  0  0  0  0  0
  159.4490  210.7220  153.0410 C   0  0  2  0  0  3  0  0  0  0  0  0
  1 17  1  0  0  0  0
  2  5  1  6  0  0  0
  2  7  1  0  0  0  0
  4  1  1  0  0  0  0
  6  3  2  0  0  0  0
  6  4  1  0  0  0  0
  7  4  2  0  0  0  0
  9  8  1  6  0  0  0
  9 10  1  0  0  0  0
  9  2  1  0  0  0  0
 10  6  1  0  0  0  0
 11  9  1  0  0  0  0
 12 11  1  0  0  0  0
 13 12  1  0  0  0  0
 13 15  1  0  0  0  0
 14 13  2  0  0  0  0
 16 13  1  0  0  0  0
 17 18  1  0  0  0  0
 19 18  1  1  0  0  0
 19 21  1  0  0  0  0
 21 20  2  0  0  0  0
 21 22  1  0  0  0  0
 23 19  1  0  0  0  0
 23 25  1  6  0  0  0
 25 27  1  0  0  0  0
 27 24  2  0  0  0  0
 27 26  1  0  0  0  0
 28 23  1  1  0  0  0
 30 29  1  6  0  0  0
 30 28  1  0  0  0  0
 31 29  1  6  0  0  0
 31 30  1  0  0  0  0
 31 28  1  0  0  0  0
M  END
>  <MODEL>
4

>  <REMARK>
 VINA RESULT:      -6.5      3.716      8.583
  Name = 
  11 active torsions:
  status: ('A' for Active; 'I' for Inactive)
    1  A    between atoms: P_2  and  O_28
    2  A    between atoms: N_3  and  C_27
    3  A    between atoms: C_6  and  C_26
    4  A    between atoms: C_11  and  C_13
    5  A    between atoms: C_11  and  C_25
    6  A    between atoms: C_11  and  C_27
    7  A    between atoms: C_13  and  C_15
    8  A    between atoms: C_15  and  C_26
    9  A    between atoms: C_18  and  C_27
   10  A    between atoms: C_23  and  C_24
   11  A    between atoms: C_23  and  O_28
                            x       y       z     vdW  Elec       q    Type
                         _______ _______ _______ _____ _____    ______ ____

>  <TORSDO>
F 11

$$$$
=
 OpenBabel11072412403D

 31 33  0  0  1  0  0  0  0  0999 V2000
  160.6690  205.8100  150.2950 C   0  0  0  0  0  2  0  0  0  0  0  0
  162.1350  209.2790  151.1590 C   0  0  2  0  0  3  0  0  0  0  0  0
  160.7150  205.9440  153.1560 O   0  0  0  0  0  0  0  0  0  0  0  0
  161.2060  206.9750  151.0730 C   0  0  0  0  0  0  0  0  0  0  0  0
  161.9750  210.4290  150.3840 O   0  0  0  0  0  1  0  0  0  0  0  0
  161.1510  206.9580  152.5500 C   0  0  0  0  0  0  0  0  0  0  0  0
  161.5920  208.0820  150.4300 C   0  0  0  0  0  3  0  0  0  0  0  0
  162.3390  210.3900  153.2500 O   0  0  0  0  0  1  0  0  0  0  0  0
  161.5470  209.4620  152.5730 C   0  0  2  0  0  0  0  0  0  0  0  0
  161.6210  208.1390  153.3520 C   0  0  0  0  0  2  0  0  0  0  0  0
  160.1130  210.0110  152.5520 C   0  0  0  0  0  2  0  0  0  0  0  0
  160.0700  211.3860  152.7990 O   0  0  0  0  0  0  0  0  0  0  0  0
  159.1620  211.5600  154.2190 P   0  0  0  0  0  0  0  0  0  0  0  0
  159.8040  212.8060  155.1660 O   0  0  0  0  0  1  0  0  0  0  0  0
  159.2120  210.2660  154.9990 O   0  0  0  0  0  1  0  0  0  0  0  0
  157.5530  211.9140  153.8340 O   0  0  0  0  0  0  0  0  0  0  0  0
  160.5480  206.1100  148.8040 C   0  0  0  0  0  2  0  0  0  0  0  0
  161.6600  205.4480  147.9970 C   0  0  0  0  0  2  0  0  0  0  0  0
  161.1220  204.7330  146.7570 C   0  0  1  0  0  3  0  0  0  0  0  0
  163.4780  204.6360  145.9340 O   0  0  0  0  0  1  0  0  0  0  0  0
  162.1300  204.7950  145.6470 C   0  0  0  0  0  0  0  0  0  0  0  0
  161.7640  204.9930  144.4570 O   0  0  0  0  0  0  0  0  0  0  0  0
  160.7500  203.2800  147.0970 C   0  0  1  0  0  3  0  0  0  0  0  0
  160.2930  200.7500  144.2890 O   0  0  0  0  0  0  0  0  0  0  0  0
  160.9730  202.3980  145.9500 N   0  0  0  0  0  2  0  0  0  0  0  0
  158.7780  201.6060  145.7760 O   0  0  0  0  0  1  0  0  0  0  0  0
  159.9630  201.5800  145.3510 C   0  0  0  0  0  0  0  0  0  0  0  0
  161.5060  202.7620  148.3220 C   0  0  2  0  0  3  0  0  0  0  0  0
  160.9900  201.1450  150.1030 C   0  0  0  0  0  2  0  0  0  0  0  0
  161.1260  201.3190  148.6030 C   0  0  1  0  0  3  0  0  0  0  0  0
  160.5270  202.4230  149.4310 C   0  0  2  0  0  3  0  0  0  0  0  0
  1  4  1  0  0  0  0
  2  5  1  6  0  0  0
  2  9  1  0  0  0  0
  4  6  1  0  0  0  0
  6  3  2  0  0  0  0
  6 10  1  0  0  0  0
  7  4  2  0  0  0  0
  7  2  1  0  0  0  0
  9  8  1  1  0  0  0
  9 10  1  0  0  0  0
 11  9  1  0  0  0  0
 11 12  1  0  0  0  0
 12 13  1  0  0  0  0
 13 15  1  0  0  0  0
 13 14  1  0  0  0  0
 16 13  2  0  0  0  0
 17  1  1  0  0  0  0
 18 17  1  0  0  0  0
 19 23  1  0  0  0  0
 19 18  1  1  0  0  0
 21 20  1  0  0  0  0
 21 19  1  0  0  0  0
 22 21  2  0  0  0  0
 23 25  1  6  0  0  0
 24 27  2  0  0  0  0
 27 26  1  0  0  0  0
 27 25  1  0  0  0  0
 28 23  1  6  0  0  0
 28 30  1  0  0  0  0
 28 31  1  0  0  0  0
 30 31  1  0  0  0  0
 30 29  1  1  0  0  0
 31 29  1  1  0  0  0
M  END
>  <MODEL>
5

>  <REMARK>
 VINA RESULT:      -6.5      1.698      3.265
  Name = 
  11 active torsions:
  status: ('A' for Active; 'I' for Inactive)
    1  A    between atoms: P_2  and  O_28
    2  A    between atoms: N_3  and  C_27
    3  A    between atoms: C_6  and  C_26
    4  A    between atoms: C_11  and  C_13
    5  A    between atoms: C_11  and  C_25
    6  A    between atoms: C_11  and  C_27
    7  A    between atoms: C_13  and  C_15
    8  A    between atoms: C_15  and  C_26
    9  A    between atoms: C_18  and  C_27
   10  A    between atoms: C_23  and  C_24
   11  A    between atoms: C_23  and  O_28
                            x       y       z     vdW  Elec       q    Type
                         _______ _______ _______ _____ _____    ______ ____

>  <TORSDO>
F 11

$$$$
=
 OpenBabel11072412403D

 31 33  0  0  1  0  0  0  0  0999 V2000
  160.5860  206.4140  154.1830 C   0  0  0  0  0  2  0  0  0  0  0  0
  161.1200  210.2010  154.7400 C   0  0  2  0  0  3  0  0  0  0  0  0
  159.9700  206.8900  156.9390 O   0  0  0  0  0  0  0  0  0  0  0  0
  160.6990  207.7540  154.8500 C   0  0  0  0  0  0  0  0  0  0  0  0
  160.9140  211.1870  153.7720 O   0  0  0  0  0  1  0  0  0  0  0  0
  160.3240  207.8970  156.2720 C   0  0  0  0  0  0  0  0  0  0  0  0
  160.9950  208.8360  154.1230 C   0  0  0  0  0  3  0  0  0  0  0  0
  160.6350  211.5660  156.6230 O   0  0  0  0  0  1  0  0  0  0  0  0
  160.2090  210.4110  155.9670 C   0  0  2  0  0  0  0  0  0  0  0  0
  160.3650  209.2390  156.9480 C   0  0  0  0  0  2  0  0  0  0  0  0
  158.7360  210.6180  155.5830 C   0  0  0  0  0  2  0  0  0  0  0  0
  158.2490  211.8580  156.0070 O   0  0  0  0  0  0  0  0  0  0  0  0
  157.0670  212.2890  154.8730 P   0  0  0  0  0  0  0  0  0  0  0  0
  157.7790  212.5200  153.3550 O   0  0  0  0  0  0  0  0  0  0  0  0
  156.4050  213.5740  155.3130 O   0  0  0  0  0  1  0  0  0  0  0  0
  155.8970  211.0700  154.7680 O   0  0  0  0  0  1  0  0  0  0  0  0
  161.8000  206.0900  153.3160 C   0  0  0  0  0  2  0  0  0  0  0  0
  161.4470  205.1430  152.1740 C   0  0  0  0  0  2  0  0  0  0  0  0
  160.9430  205.8950  150.9410 C   0  0  1  0  0  3  0  0  0  0  0  0
  163.0820  207.1660  150.7270 O   0  0  0  0  0  1  0  0  0  0  0  0
  161.6960  207.1830  150.7780 C   0  0  0  0  0  0  0  0  0  0  0  0
  161.0810  208.2800  150.6910 O   0  0  0  0  0  0  0  0  0  0  0  0
  161.0670  205.0110  149.6890 C   0  0  1  0  0  3  0  0  0  0  0  0
  159.7340  201.4530  149.4390 O   0  0  0  0  0  1  0  0  0  0  0  0
  160.2430  203.8060  149.8120 N   0  0  0  0  0  2  0  0  0  0  0  0
  161.7170  202.3480  148.7270 O   0  0  0  0  0  0  0  0  0  0  0  0
  160.6090  202.5200  149.3000 C   0  0  0  0  0  0  0  0  0  0  0  0
  160.7120  205.7690  148.4090 C   0  0  2  0  0  3  0  0  0  0  0  0
  161.8160  206.0770  146.2320 C   0  0  0  0  0  2  0  0  0  0  0  0
  161.2670  205.0430  147.1960 C   0  0  1  0  0  3  0  0  0  0  0  0
  161.9770  206.2580  147.7280 C   0  0  2  0  0  3  0  0  0  0  0  0
  1  4  1  0  0  0  0
  2  5  1  6  0  0  0
  2  9  1  0  0  0  0
  4  6  1  0  0  0  0
  6  3  2  0  0  0  0
  6 10  1  0  0  0  0
  7  2  1  0  0  0  0
  7  4  2  0  0  0  0
  9  8  1  1  0  0  0
  9 10  1  0  0  0  0
 11  9  1  0  0  0  0
 11 12  1  0  0  0  0
 13 15  1  0  0  0  0
 13 12  1  0  0  0  0
 14 13  2  0  0  0  0
 16 13  1  0  0  0  0
 17  1  1  0  0  0  0
 18 17  1  0  0  0  0
 19 18  1  1  0  0  0
 20 21  1  0  0  0  0
 21 19  1  0  0  0  0
 22 21  2  0  0  0  0
 23 25  1  1  0  0  0
 23 19  1  0  0  0  0
 26 27  2  0  0  0  0
 27 24  1  0  0  0  0
 27 25  1  0  0  0  0
 28 23  1  1  0  0  0
 30 29  1  6  0  0  0
 30 31  1  0  0  0  0
 30 28  1  0  0  0  0
 31 29  1  6  0  0  0
 31 28  1  0  0  0  0
M  END
>  <MODEL>
6

>  <REMARK>
 VINA RESULT:      -6.4      1.697      3.095
  Name = 
  11 active torsions:
  status: ('A' for Active; 'I' for Inactive)
    1  A    between atoms: P_2  and  O_28
    2  A    between atoms: N_3  and  C_27
    3  A    between atoms: C_6  and  C_26
    4  A    between atoms: C_11  and  C_13
    5  A    between atoms: C_11  and  C_25
    6  A    between atoms: C_11  and  C_27
    7  A    between atoms: C_13  and  C_15
    8  A    between atoms: C_15  and  C_26
    9  A    between atoms: C_18  and  C_27
   10  A    between atoms: C_23  and  C_24
   11  A    between atoms: C_23  and  O_28
                            x       y       z     vdW  Elec       q    Type
                         _______ _______ _______ _____ _____    ______ ____

>  <TORSDO>
F 11

$$$$
=
 OpenBabel11072412403D

 31 33  0  0  1  0  0  0  0  0999 V2000
  160.7660  206.3430  152.2700 C   0  0  0  0  0  2  0  0  0  0  0  0
  161.3470  210.1270  152.8030 C   0  0  2  0  0  3  0  0  0  0  0  0
  160.7680  206.7390  155.1070 O   0  0  0  0  0  0  0  0  0  0  0  0
  161.0020  207.6690  152.9340 C   0  0  0  0  0  0  0  0  0  0  0  0
  160.9170  211.1310  151.9330 O   0  0  0  0  0  1  0  0  0  0  0  0
  160.9480  207.7700  154.4070 C   0  0  0  0  0  0  0  0  0  0  0  0
  161.1120  208.7740  152.1900 C   0  0  0  0  0  3  0  0  0  0  0  0
  161.2700  211.4350  154.7840 O   0  0  0  0  0  1  0  0  0  0  0  0
  160.7280  210.2870  154.2060 C   0  0  2  0  0  0  0  0  0  0  0  0
  161.1160  209.0960  155.0950 C   0  0  0  0  0  2  0  0  0  0  0  0
  159.2030  210.4700  154.1630 C   0  0  0  0  0  2  0  0  0  0  0  0
  158.7380  211.2700  155.2120 O   0  0  0  0  0  0  0  0  0  0  0  0
  157.5880  212.3010  154.5140 P   0  0  0  0  0  0  0  0  0  0  0  0
  157.5570  213.7750  155.3430 O   0  0  0  0  0  1  0  0  0  0  0  0
  156.2260  211.6520  154.6020 O   0  0  0  0  0  1  0  0  0  0  0  0
  157.9690  212.5740  152.8880 O   0  0  0  0  0  0  0  0  0  0  0  0
  161.4370  206.2480  150.9030 C   0  0  0  0  0  2  0  0  0  0  0  0
  160.5910  205.4640  149.9060 C   0  0  0  0  0  2  0  0  0  0  0  0
  160.9530  205.7970  148.4580 C   0  0  1  0  0  3  0  0  0  0  0  0
  161.2790  208.2730  148.4930 O   0  0  0  0  0  1  0  0  0  0  0  0
  161.8410  207.0060  148.4140 C   0  0  0  0  0  0  0  0  0  0  0  0
  163.0900  206.8830  148.3020 O   0  0  0  0  0  0  0  0  0  0  0  0
  161.6190  204.5870  147.7820 C   0  0  1  0  0  3  0  0  0  0  0  0
  160.9250  201.0300  148.9490 O   0  0  0  0  0  1  0  0  0  0  0  0
  161.4650  203.3790  148.5960 N   0  0  0  0  0  2  0  0  0  0  0  0
  160.8800  201.9380  146.8480 O   0  0  0  0  0  0  0  0  0  0  0  0
  161.0790  202.1010  148.0800 C   0  0  0  0  0  0  0  0  0  0  0  0
  161.0840  204.3490  146.3690 C   0  0  2  0  0  3  0  0  0  0  0  0
  161.4060  205.4640  144.1990 C   0  0  0  0  0  2  0  0  0  0  0  0
  162.1210  204.7620  145.3380 C   0  0  1  0  0  3  0  0  0  0  0  0
  160.9580  205.6700  145.6320 C   0  0  2  0  0  3  0  0  0  0  0  0
  1  4  1  0  0  0  0
  2  5  1  6  0  0  0
  2  9  1  0  0  0  0
  4  6  1  0  0  0  0
  6 10  1  0  0  0  0
  6  3  2  0  0  0  0
  7  2  1  0  0  0  0
  7  4  2  0  0  0  0
  9  8  1  1  0  0  0
  9 10  1  0  0  0  0
 11  9  1  0  0  0  0
 11 12  1  0  0  0  0
 13 15  1  0  0  0  0
 13 12  1  0  0  0  0
 13 14  1  0  0  0  0
 16 13  2  0  0  0  0
 17  1  1  0  0  0  0
 18 17  1  0  0  0  0
 19 18  1  1  0  0  0
 21 19  1  0  0  0  0
 21 20  1  0  0  0  0
 22 21  2  0  0  0  0
 23 19  1  0  0  0  0
 23 25  1  1  0  0  0
 26 27  2  0  0  0  0
 27 25  1  0  0  0  0
 27 24  1  0  0  0  0
 28 23  1  1  0  0  0
 30 29  1  6  0  0  0
 30 31  1  0  0  0  0
 30 28  1  0  0  0  0
 31 29  1  6  0  0  0
 31 28  1  0  0  0  0
M  END
>  <MODEL>
7

>  <REMARK>
 VINA RESULT:      -6.3      1.567      2.949
  Name = 
  11 active torsions:
  status: ('A' for Active; 'I' for Inactive)
    1  A    between atoms: P_2  and  O_28
    2  A    between atoms: N_3  and  C_27
    3  A    between atoms: C_6  and  C_26
    4  A    between atoms: C_11  and  C_13
    5  A    between atoms: C_11  and  C_25
    6  A    between atoms: C_11  and  C_27
    7  A    between atoms: C_13  and  C_15
    8  A    between atoms: C_15  and  C_26
    9  A    between atoms: C_18  and  C_27
   10  A    between atoms: C_23  and  C_24
   11  A    between atoms: C_23  and  O_28
                            x       y       z     vdW  Elec       q    Type
                         _______ _______ _______ _____ _____    ______ ____

>  <TORSDO>
F 11

$$$$
=
 OpenBabel11072412403D

 31 33  0  0  1  0  0  0  0  0999 V2000
  160.6160  206.2220  154.0110 C   0  0  0  0  0  2  0  0  0  0  0  0
  161.2580  210.0310  154.1400 C   0  0  2  0  0  3  0  0  0  0  0  0
  160.4660  206.9440  156.7790 O   0  0  0  0  0  0  0  0  0  0  0  0
  160.8460  207.6110  154.5320 C   0  0  0  0  0  0  0  0  0  0  0  0
  160.9030  210.9350  153.1370 O   0  0  0  0  0  1  0  0  0  0  0  0
  160.7110  207.8830  155.9780 C   0  0  0  0  0  0  0  0  0  0  0  0
  161.0250  208.6210  153.6740 C   0  0  0  0  0  3  0  0  0  0  0  0
  161.1000  211.5610  155.9510 O   0  0  0  0  0  1  0  0  0  0  0  0
  160.5640  210.3640  155.4760 C   0  0  2  0  0  0  0  0  0  0  0  0
  160.8720  209.2770  156.5170 C   0  0  0  0  0  2  0  0  0  0  0  0
  159.0500  210.5680  155.3220 C   0  0  0  0  0  2  0  0  0  0  0  0
  158.6350  211.8180  155.7920 O   0  0  0  0  0  0  0  0  0  0  0  0
  157.3740  212.2890  154.7620 P   0  0  0  0  0  0  0  0  0  0  0  0
  156.0140  211.3200  155.0330 O   0  0  0  0  0  1  0  0  0  0  0  0
  157.8220  212.1280  153.3270 O   0  0  0  0  0  0  0  0  0  0  0  0
  156.9780  213.9110  155.0400 O   0  0  0  0  0  1  0  0  0  0  0  0
  161.5720  205.8580  152.8790 C   0  0  0  0  0  2  0  0  0  0  0  0
  160.8270  205.5110  151.5940 C   0  0  0  0  0  2  0  0  0  0  0  0
  161.6670  204.6380  150.6620 C   0  0  1  0  0  3  0  0  0  0  0  0
  161.6190  202.2250  151.3040 O   0  0  0  0  0  1  0  0  0  0  0  0
  161.0720  203.2640  150.5650 C   0  0  0  0  0  0  0  0  0  0  0  0
  160.0820  203.0440  149.8160 O   0  0  0  0  0  0  0  0  0  0  0  0
  161.7870  205.2970  149.2770 C   0  0  1  0  0  3  0  0  0  0  0  0
  161.2170  203.3840  146.0350 O   0  0  0  0  0  0  0  0  0  0  0  0
  161.2310  204.4320  148.2340 N   0  0  0  0  0  2  0  0  0  0  0  0
  162.9690  204.7020  146.6910 O   0  0  0  0  0  1  0  0  0  0  0  0
  161.8520  204.1910  146.9670 C   0  0  0  0  0  0  0  0  0  0  0  0
  161.1280  206.6760  149.2340 C   0  0  2  0  0  3  0  0  0  0  0  0
  161.9550  208.9660  148.8770 C   0  0  0  0  0  2  0  0  0  0  0  0
  161.8660  207.5820  148.2640 C   0  0  1  0  0  3  0  0  0  0  0  0
  162.0950  207.7290  149.7430 C   0  0  2  0  0  3  0  0  0  0  0  0
  1  4  1  0  0  0  0
  2  5  1  6  0  0  0
  2  9  1  0  0  0  0
  4  6  1  0  0  0  0
  6 10  1  0  0  0  0
  6  3  2  0  0  0  0
  7  2  1  0  0  0  0
  7  4  2  0  0  0  0
  9  8  1  1  0  0  0
  9 10  1  0  0  0  0
 11  9  1  0  0  0  0
 11 12  1  0  0  0  0
 13 14  1  0  0  0  0
 13 16  1  0  0  0  0
 13 12  1  0  0  0  0
 15 13  2  0  0  0  0
 17  1  1  0  0  0  0
 18 17  1  0  0  0  0
 19 18  1  1  0  0  0
 21 19  1  0  0  0  0
 21 20  1  0  0  0  0
 22 21  2  0  0  0  0
 23 25  1  6  0  0  0
 23 19  1  0  0  0  0
 24 27  2  0  0  0  0
 26 27  1  0  0  0  0
 27 25  1  0  0  0  0
 28 23  1  6  0  0  0
 28 31  1  0  0  0  0
 30 29  1  1  0  0  0
 30 28  1  0  0  0  0
 30 31  1  0  0  0  0
 31 29  1  1  0  0  0
M  END
>  <MODEL>
8

>  <REMARK>
 VINA RESULT:      -6.1      1.475      1.892
  Name = 
  11 active torsions:
  status: ('A' for Active; 'I' for Inactive)
    1  A    between atoms: P_2  and  O_28
    2  A    between atoms: N_3  and  C_27
    3  A    between atoms: C_6  and  C_26
    4  A    between atoms: C_11  and  C_13
    5  A    between atoms: C_11  and  C_25
    6  A    between atoms: C_11  and  C_27
    7  A    between atoms: C_13  and  C_15
    8  A    between atoms: C_15  and  C_26
    9  A    between atoms: C_18  and  C_27
   10  A    between atoms: C_23  and  C_24
   11  A    between atoms: C_23  and  O_28
                            x       y       z     vdW  Elec       q    Type
                         _______ _______ _______ _____ _____    ______ ____

>  <TORSDO>
F 11

$$$$
=
 OpenBabel11072412403D

 31 33  0  0  1  0  0  0  0  0999 V2000
  160.8350  205.4900  152.4270 C   0  0  0  0  0  2  0  0  0  0  0  0
  161.9570  209.1790  152.1680 C   0  0  2  0  0  3  0  0  0  0  0  0
  160.4670  206.6010  155.0420 O   0  0  0  0  0  0  0  0  0  0  0  0
  161.1860  206.9020  152.7980 C   0  0  0  0  0  0  0  0  0  0  0  0
  161.8410  209.9710  151.0230 O   0  0  0  0  0  1  0  0  0  0  0  0
  160.9250  207.3860  154.1690 C   0  0  0  0  0  0  0  0  0  0  0  0
  161.5940  207.7550  151.8530 C   0  0  0  0  0  3  0  0  0  0  0  0
  161.7980  210.9540  153.7390 O   0  0  0  0  0  1  0  0  0  0  0  0
  161.1660  209.7730  153.3510 C   0  0  2  0  0  0  0  0  0  0  0  0
  161.2060  208.8120  154.5490 C   0  0  0  0  0  2  0  0  0  0  0  0
  159.7190  210.1280  152.9760 C   0  0  0  0  0  2  0  0  0  0  0  0
  159.5380  211.5050  152.8160 O   0  0  0  0  0  0  0  0  0  0  0  0
  158.5720  211.9870  154.1210 P   0  0  0  0  0  0  0  0  0  0  0  0
  157.1050  212.6120  153.5550 O   0  0  0  0  0  0  0  0  0  0  0  0
  159.2980  213.0560  154.9050 O   0  0  0  0  0  1  0  0  0  0  0  0
  158.2690  210.6660  155.1340 O   0  0  0  0  0  1  0  0  0  0  0  0
  161.0340  205.2110  150.9400 C   0  0  0  0  0  2  0  0  0  0  0  0
  160.2840  203.9620  150.4890 C   0  0  0  0  0  2  0  0  0  0  0  0
  161.1340  203.0810  149.5740 C   0  0  1  0  0  3  0  0  0  0  0  0
  159.3670  201.3280  149.7780 O   0  0  0  0  0  1  0  0  0  0  0  0
  160.7160  201.6450  149.7050 C   0  0  0  0  0  0  0  0  0  0  0  0
  161.5780  200.7270  149.7520 O   0  0  0  0  0  0  0  0  0  0  0  0
  161.0300  203.5650  148.1180 C   0  0  1  0  0  3  0  0  0  0  0  0
  162.3320  207.0030  147.1300 O   0  0  0  0  0  1  0  0  0  0  0  0
  161.8840  204.7330  147.8900 N   0  0  0  0  0  2  0  0  0  0  0  0
  160.2140  206.1390  147.0470 O   0  0  0  0  0  0  0  0  0  0  0  0
  161.4270  205.9730  147.3400 C   0  0  0  0  0  0  0  0  0  0  0  0
  161.3630  202.4580  147.1160 C   0  0  2  0  0  3  0  0  0  0  0  0
  160.2510  201.5650  145.1110 C   0  0  0  0  0  2  0  0  0  0  0  0
  160.8300  202.8180  145.7400 C   0  0  1  0  0  3  0  0  0  0  0  0
  160.0830  201.8300  146.5940 C   0  0  2  0  0  3  0  0  0  0  0  0
  1  4  1  0  0  0  0
  2  5  1  6  0  0  0
  2  9  1  0  0  0  0
  4  6  1  0  0  0  0
  6 10  1  0  0  0  0
  6  3  2  0  0  0  0
  7  2  1  0  0  0  0
  7  4  2  0  0  0  0
  9  8  1  1  0  0  0
  9 10  1  0  0  0  0
 11  9  1  0  0  0  0
 12 11  1  0  0  0  0
 12 13  1  0  0  0  0
 13 15  1  0  0  0  0
 13 16  1  0  0  0  0
 14 13  2  0  0  0  0
 17  1  1  0  0  0  0
 18 17  1  0  0  0  0
 19 21  1  0  0  0  0
 19 18  1  1  0  0  0
 21 22  2  0  0  0  0
 21 20  1  0  0  0  0
 23 25  1  1  0  0  0
 23 19  1  0  0  0  0
 24 27  1  0  0  0  0
 26 27  2  0  0  0  0
 27 25  1  0  0  0  0
 28 23  1  1  0  0  0
 30 29  1  6  0  0  0
 30 31  1  0  0  0  0
 30 28  1  0  0  0  0
 31 29  1  6  0  0  0
 31 28  1  0  0  0  0
M  END
>  <MODEL>
9

>  <REMARK>
 VINA RESULT:      -6.1      1.290      2.491
  Name = 
  11 active torsions:
  status: ('A' for Active; 'I' for Inactive)
    1  A    between atoms: P_2  and  O_28
    2  A    between atoms: N_3  and  C_27
    3  A    between atoms: C_6  and  C_26
    4  A    between atoms: C_11  and  C_13
    5  A    between atoms: C_11  and  C_25
    6  A    between atoms: C_11  and  C_27
    7  A    between atoms: C_13  and  C_15
    8  A    between atoms: C_15  and  C_26
    9  A    between atoms: C_18  and  C_27
   10  A    between atoms: C_23  and  C_24
   11  A    between atoms: C_23  and  O_28
                            x       y       z     vdW  Elec       q    Type
                         _______ _______ _______ _____ _____    ______ ____

>  <TORSDO>
F 11

$$$$
