=
 OpenBabel11072412253D

 33 40  0  0  1  0  0  0  0  0999 V2000
  162.0340  208.8000  151.6450 C   0  0  0  0  0  2  0  0  0  0  0  0
  162.5900  206.8620  149.0760 C   0  0  0  0  0  2  0  0  0  0  0  0
  161.3710  207.2080  149.8230 C   0  0  2  0  0  0  0  0  0  0  0  0
  161.7110  206.3820  152.1750 C   0  0  0  0  0  2  0  0  0  0  0  0
  161.1560  205.6140  147.5760 C   0  0  2  0  0  0  0  0  0  0  0  0
  159.9530  206.1970  148.2200 C   0  0  0  0  0  2  0  0  0  0  0  0
  161.5470  207.7780  152.5730 N   0  0  0  0  0  0  0  0  0  0  0  0
  161.2640  207.0090  148.2850 C   0  0  2  0  0  0  0  0  0  0  0  0
  161.3370  208.6580  150.2940 C   0  0  0  0  0  2  0  0  0  0  0  0
  160.9990  206.1250  150.8510 C   0  0  0  0  0  2  0  0  0  0  0  0
  160.4580  209.3920  154.2290 C   0  0  0  0  0  0  0  0  0  0  0  0
  161.5490  207.3280  154.9350 C   0  0  0  0  0  3  0  0  0  0  0  0
  161.1780  208.1250  153.9240 C   0  0  0  0  0  0  0  0  0  0  0  0
  161.1440  207.5940  156.3530 C   0  0  0  0  0  2  0  0  0  0  0  0
  159.9950  210.2350  153.1660 N   0  0  0  0  0  2  0  0  0  0  0  0
  160.3290  209.7800  155.4650 N   0  0  0  0  0  0  0  0  0  0  0  0
  160.7940  208.9980  156.5360 N   0  0  0  0  0  2  0  0  0  0  0  0
  159.2010  212.2680  152.0100 C   0  0  0  0  0  2  0  0  0  0  0  0
  157.7460  211.3230  154.2570 S   0  0  0  0  0  0  0  0  0  0  0  0
  157.1180  213.0060  153.8990 C   0  0  2  0  0  0  0  0  0  0  0  0
  155.7440  213.1780  154.5130 C   0  0  0  0  0  1  0  0  0  0  0  0
  158.3490  213.5380  152.1410 C   0  0  1  0  0  3  0  0  0  0  0  0
  157.0450  213.1730  152.5090 O   0  0  0  0  0  0  0  0  0  0  0  0
  159.3330  211.5230  153.3470 C   0  0  1  0  0  3  0  0  0  0  0  0
  158.8830  214.4480  153.2330 C   0  0  0  0  0  2  0  0  0  0  0  0
  158.0630  214.0650  154.4380 C   0  0  0  0  0  2  0  0  0  0  0  0
  162.6470  205.3060  145.4500 C   0  0  1  0  0  3  0  0  0  0  0  0
  161.4820  204.5160  145.4080 O   0  0  0  0  0  0  0  0  0  0  0  0
  161.3510  205.7680  146.0470 C   0  0  1  0  0  3  0  0  0  0  0  0
  163.6440  204.6680  146.4060 C   0  0  0  0  0  1  0  0  0  0  0  0
  160.9680  203.1120  147.9320 C   0  0  0  0  0  2  0  0  0  0  0  0
  161.7020  204.3500  148.2880 C   0  0  2  0  0  3  0  0  0  0  0  0
  160.7070  203.8060  149.1250 O   0  0  0  0  0  0  0  0  0  0  0  0
  1  7  1  0  0  0  0
  3  2  1  1  0  0  0
  3  9  1  0  0  0  0
  3 10  1  0  0  0  0
  4  7  1  0  0  0  0
  5  6  1  1  0  0  0
  5  8  1  0  0  0  0
  5 32  1  0  0  0  0
  7 13  1  0  0  0  0
  8  6  1  6  0  0  0
  8  2  1  0  0  0  0
  8  3  1  0  0  0  0
  9  1  1  0  0  0  0
 10  4  1  0  0  0  0
 11 16  2  0  0  0  0
 12 14  1  0  0  0  0
 13 11  1  0  0  0  0
 13 12  2  0  0  0  0
 14 17  1  0  0  0  0
 15 11  1  0  0  0  0
 16 17  1  0  0  0  0
 18 24  1  0  0  0  0
 20 19  1  0  0  0  0
 20 26  1  0  0  0  0
 20 21  1  1  0  0  0
 22 18  1  1  0  0  0
 22 23  1  0  0  0  0
 22 25  1  0  0  0  0
 23 20  1  0  0  0  0
 24 15  1  6  0  0  0
 24 19  1  0  0  0  0
 25 26  1  0  0  0  0
 27 29  1  0  0  0  0
 27 30  1  1  0  0  0
 28 27  1  0  0  0  0
 29 28  1  6  0  0  0
 29  5  1  0  0  0  0
 31 33  1  0  0  0  0
 32 31  1  6  0  0  0
 32 33  1  0  0  0  0
M  END
>  <MODEL>
1

>  <REMARK>
 VINA RESULT:      -7.4      0.000      0.000
  Name = 
  4 active torsions:
  status: ('A' for Active; 'I' for Inactive)
    1  A    between atoms: C_10  and  C_15
    2  A    between atoms: C_10  and  C_32
    3  A    between atoms: C_16  and  N_20
    4  A    between atoms: N_24  and  C_25
                            x       y       z     vdW  Elec       q    Type
                         _______ _______ _______ _____ _____    ______ ____

>  <TORSDO>
F 4

$$$$
=
 OpenBabel11072412253D

 33 40  0  0  1  0  0  0  0  0999 V2000
  160.5120  206.1730  153.8840 C   0  0  0  0  0  2  0  0  0  0  0  0
  159.8500  205.3620  150.7910 C   0  0  0  0  0  2  0  0  0  0  0  0
  161.0580  205.8790  151.4530 C   0  0  2  0  0  0  0  0  0  0  0  0
  160.4630  208.1490  152.3590 C   0  0  0  0  0  2  0  0  0  0  0  0
  161.1860  205.2010  148.7770 C   0  0  2  0  0  0  0  0  0  0  0  0
  162.4170  205.4870  149.5550 C   0  0  0  0  0  2  0  0  0  0  0  0
  160.7950  207.5930  153.6690 N   0  0  0  0  0  0  0  0  0  0  0  0
  161.2300  204.8460  150.3040 C   0  0  2  0  0  0  0  0  0  0  0  0
  161.2630  205.3260  152.8590 C   0  0  0  0  0  2  0  0  0  0  0  0
  161.2120  207.3980  151.2630 C   0  0  0  0  0  2  0  0  0  0  0  0
  160.5610  209.8290  154.8840 C   0  0  0  0  0  0  0  0  0  0  0  0
  162.0080  208.0410  155.6950 C   0  0  0  0  0  3  0  0  0  0  0  0
  161.1240  208.4550  154.7770 C   0  0  0  0  0  0  0  0  0  0  0  0
  162.3450  208.8580  156.9060 C   0  0  0  0  0  2  0  0  0  0  0  0
  159.5690  210.2790  153.9520 N   0  0  0  0  0  2  0  0  0  0  0  0
  161.0380  210.6560  155.7700 N   0  0  0  0  0  0  0  0  0  0  0  0
  162.0300  210.2650  156.6840 N   0  0  0  0  0  2  0  0  0  0  0  0
  158.6020  212.0230  152.4940 C   0  0  0  0  0  2  0  0  0  0  0  0
  157.6280  211.7720  155.1480 S   0  0  0  0  0  0  0  0  0  0  0  0
  156.9810  213.3600  154.5040 C   0  0  2  0  0  0  0  0  0  0  0  0
  155.7710  213.7820  155.3110 C   0  0  0  0  0  1  0  0  0  0  0  0
  157.8290  213.3480  152.4620 C   0  0  1  0  0  3  0  0  0  0  0  0
  156.6220  213.1860  153.1590 O   0  0  0  0  0  0  0  0  0  0  0  0
  158.9920  211.6190  153.9240 C   0  0  1  0  0  3  0  0  0  0  0  0
  158.6030  214.4530  153.1580 C   0  0  0  0  0  2  0  0  0  0  0  0
  158.0440  214.4420  154.5580 C   0  0  0  0  0  2  0  0  0  0  0  0
  162.0510  203.7700  146.7660 C   0  0  1  0  0  3  0  0  0  0  0  0
  162.2970  203.1540  148.0090 O   0  0  0  0  0  0  0  0  0  0  0  0
  161.1080  203.9100  147.9240 C   0  0  1  0  0  3  0  0  0  0  0  0
  163.0510  204.8990  146.5660 C   0  0  0  0  0  1  0  0  0  0  0  0
  160.5210  206.7010  146.8470 C   0  0  0  0  0  2  0  0  0  0  0  0
  160.4280  206.4680  148.3080 C   0  0  2  0  0  3  0  0  0  0  0  0
  161.3380  207.3930  147.7570 O   0  0  0  0  0  0  0  0  0  0  0  0
  3  2  1  1  0  0  0
  3  9  1  0  0  0  0
  4  7  1  0  0  0  0
  5  6  1  6  0  0  0
  5  8  1  0  0  0  0
  7  1  1  0  0  0  0
  7 13  1  0  0  0  0
  8  6  1  1  0  0  0
  8  2  1  0  0  0  0
  8  3  1  0  0  0  0
  9  1  1  0  0  0  0
 10  3  1  0  0  0  0
 10  4  1  0  0  0  0
 11 16  2  0  0  0  0
 12 14  1  0  0  0  0
 13 11  1  0  0  0  0
 13 12  2  0  0  0  0
 15 11  1  0  0  0  0
 16 17  1  0  0  0  0
 17 14  1  0  0  0  0
 18 24  1  0  0  0  0
 20 26  1  0  0  0  0
 20 19  1  0  0  0  0
 20 21  1  1  0  0  0
 22 18  1  1  0  0  0
 22 25  1  0  0  0  0
 22 23  1  0  0  0  0
 23 20  1  0  0  0  0
 24 15  1  6  0  0  0
 24 19  1  0  0  0  0
 25 26  1  0  0  0  0
 27 30  1  1  0  0  0
 27 29  1  0  0  0  0
 27 28  1  0  0  0  0
 29 28  1  1  0  0  0
 29  5  1  0  0  0  0
 31 33  1  0  0  0  0
 32 31  1  6  0  0  0
 32  5  1  0  0  0  0
 33 32  1  0  0  0  0
M  END
>  <MODEL>
2

>  <REMARK>
 VINA RESULT:      -5.7      1.351      2.127
  Name = 
  4 active torsions:
  status: ('A' for Active; 'I' for Inactive)
    1  A    between atoms: C_10  and  C_15
    2  A    between atoms: C_10  and  C_32
    3  A    between atoms: C_16  and  N_20
    4  A    between atoms: N_24  and  C_25
                            x       y       z     vdW  Elec       q    Type
                         _______ _______ _______ _____ _____    ______ ____

>  <TORSDO>
F 4

$$$$
=
 OpenBabel11072412253D

 33 40  0  0  1  0  0  0  0  0999 V2000
  161.8830  207.0280  153.7620 C   0  0  0  0  0  2  0  0  0  0  0  0
  161.6430  210.2810  153.6000 C   0  0  0  0  0  2  0  0  0  0  0  0
  160.6430  209.2020  153.5880 C   0  0  2  0  0  0  0  0  0  0  0  0
  161.0960  207.8260  151.5310 C   0  0  0  0  0  2  0  0  0  0  0  0
  159.7790  211.8270  153.6050 C   0  0  2  0  0  0  0  0  0  0  0  0
  158.8340  210.7080  153.8430 C   0  0  0  0  0  2  0  0  0  0  0  0
  161.3050  206.7130  152.4540 N   0  0  0  0  0  0  0  0  0  0  0  0
  160.2910  210.5280  154.3190 C   0  0  2  0  0  0  0  0  0  0  0  0
  160.9990  208.0320  154.4990 C   0  0  0  0  0  2  0  0  0  0  0  0
  160.1760  208.8670  152.1610 C   0  0  0  0  0  2  0  0  0  0  0  0
  161.1100  205.0160  150.5540 C   0  0  0  0  0  0  0  0  0  0  0  0
  161.1290  204.3580  152.9020 C   0  0  0  0  0  3  0  0  0  0  0  0
  161.2060  205.3470  152.0020 C   0  0  0  0  0  0  0  0  0  0  0  0
  161.0900  202.9140  152.5010 C   0  0  0  0  0  2  0  0  0  0  0  0
  161.2500  206.0460  149.5650 N   0  0  0  0  0  2  0  0  0  0  0  0
  160.8080  203.8040  150.1860 N   0  0  0  0  0  0  0  0  0  0  0  0
  160.6340  202.7720  151.1230 N   0  0  0  0  0  2  0  0  0  0  0  0
  162.2300  206.5780  147.3620 C   0  0  0  0  0  2  0  0  0  0  0  0
  160.9720  204.0590  147.7190 S   0  0  0  0  0  0  0  0  0  0  0  0
  161.2350  204.2600  145.9180 C   0  0  2  0  0  0  0  0  0  0  0  0
  161.2040  202.9030  145.2440 C   0  0  0  0  0  1  0  0  0  0  0  0
  162.2200  206.2380  145.8660 C   0  0  1  0  0  3  0  0  0  0  0  0
  162.4810  204.8680  145.7100 O   0  0  0  0  0  0  0  0  0  0  0  0
  161.1160  205.8480  148.1260 C   0  0  1  0  0  3  0  0  0  0  0  0
  160.8590  206.5060  145.2490 C   0  0  0  0  0  2  0  0  0  0  0  0
  160.1770  205.1640  145.3110 C   0  0  0  0  0  2  0  0  0  0  0  0
  158.5090  213.7390  154.8590 C   0  0  1  0  0  3  0  0  0  0  0  0
  159.0290  212.7720  155.7400 O   0  0  0  0  0  0  0  0  0  0  0  0
  159.8000  213.0270  154.5860 C   0  0  1  0  0  3  0  0  0  0  0  0
  157.2680  213.1760  154.1820 C   0  0  0  0  0  1  0  0  0  0  0  0
  159.7610  213.4200  151.6350 C   0  0  0  0  0  2  0  0  0  0  0  0
  160.1160  212.0610  152.1110 C   0  0  2  0  0  3  0  0  0  0  0  0
  158.9320  212.3130  151.3890 O   0  0  0  0  0  0  0  0  0  0  0  0
  1  9  1  0  0  0  0
  3 10  1  6  0  0  0
  3  2  1  0  0  0  0
  3  8  1  0  0  0  0
  3  9  1  0  0  0  0
  4 10  1  0  0  0  0
  4  7  1  0  0  0  0
  5  6  1  6  0  0  0
  5  8  1  0  0  0  0
  5 29  1  0  0  0  0
  6  8  1  0  0  0  0
  7  1  1  0  0  0  0
  8  2  1  1  0  0  0
 11 13  1  0  0  0  0
 13  7  1  0  0  0  0
 13 12  2  0  0  0  0
 14 12  1  0  0  0  0
 15 11  1  0  0  0  0
 16 11  2  0  0  0  0
 16 17  1  0  0  0  0
 17 14  1  0  0  0  0
 18 24  1  0  0  0  0
 19 24  1  0  0  0  0
 20 21  1  6  0  0  0
 20 19  1  0  0  0  0
 22 25  1  1  0  0  0
 22 18  1  0  0  0  0
 23 22  1  0  0  0  0
 23 20  1  0  0  0  0
 24 15  1  1  0  0  0
 25 26  1  0  0  0  0
 26 20  1  0  0  0  0
 27 30  1  6  0  0  0
 27 28  1  0  0  0  0
 29 27  1  0  0  0  0
 29 28  1  1  0  0  0
 32 31  1  1  0  0  0
 32  5  1  0  0  0  0
 33 31  1  0  0  0  0
 33 32  1  0  0  0  0
M  END
>  <MODEL>
3

>  <REMARK>
 VINA RESULT:      -5.5      2.742      8.924
  Name = 
  4 active torsions:
  status: ('A' for Active; 'I' for Inactive)
    1  A    between atoms: C_10  and  C_15
    2  A    between atoms: C_10  and  C_32
    3  A    between atoms: C_16  and  N_20
    4  A    between atoms: N_24  and  C_25
                            x       y       z     vdW  Elec       q    Type
                         _______ _______ _______ _____ _____    ______ ____

>  <TORSDO>
F 4

$$$$
=
 OpenBabel11072412253D

 33 40  0  0  1  0  0  0  0  0999 V2000
  161.5340  207.7220  147.8860 C   0  0  0  0  0  2  0  0  0  0  0  0
  161.9100  204.5480  148.5560 C   0  0  0  0  0  2  0  0  0  0  0  0
  161.0120  205.5840  149.0900 C   0  0  2  0  0  0  0  0  0  0  0  0
  162.4800  207.3240  150.1620 C   0  0  0  0  0  2  0  0  0  0  0  0
  160.7140  202.9770  149.9600 C   0  0  2  0  0  0  0  0  0  0  0  0
  159.6920  204.0090  150.2660 C   0  0  0  0  0  2  0  0  0  0  0  0
  161.8910  208.2540  149.2020 N   0  0  0  0  0  0  0  0  0  0  0  0
  160.4620  204.1380  148.9350 C   0  0  2  0  0  0  0  0  0  0  0  0
  160.5350  206.5770  148.0360 C   0  0  0  0  0  2  0  0  0  0  0  0
  161.5270  206.1610  150.4200 C   0  0  0  0  0  2  0  0  0  0  0  0
  161.6400  210.2410  150.7890 C   0  0  0  0  0  0  0  0  0  0  0  0
  162.1220  210.5140  148.4140 C   0  0  0  0  0  3  0  0  0  0  0  0
  161.9160  209.6760  149.4390 C   0  0  0  0  0  0  0  0  0  0  0  0
  162.2250  211.9970  148.6010 C   0  0  0  0  0  2  0  0  0  0  0  0
  161.4750  209.3720  151.9170 N   0  0  0  0  0  2  0  0  0  0  0  0
  161.4580  211.5230  150.9280 N   0  0  0  0  0  0  0  0  0  0  0  0
  161.5820  212.4070  149.8440 N   0  0  0  0  0  2  0  0  0  0  0  0
  159.8210  210.5880  153.2900 C   0  0  0  0  0  2  0  0  0  0  0  0
  161.2070  208.3990  154.4490 S   0  0  0  0  0  0  0  0  0  0  0  0
  160.3720  209.2740  155.8250 C   0  0  2  0  0  0  0  0  0  0  0  0
  160.2280  208.3420  157.0090 C   0  0  0  0  0  1  0  0  0  0  0  0
  159.3590  210.9000  154.7200 C   0  0  1  0  0  3  0  0  0  0  0  0
  159.1060  209.6920  155.3890 O   0  0  0  0  0  0  0  0  0  0  0  0
  161.1450  209.8090  153.2700 C   0  0  1  0  0  3  0  0  0  0  0  0
  160.4400  211.6250  155.5010 C   0  0  0  0  0  2  0  0  0  0  0  0
  161.1490  210.5140  156.2320 C   0  0  0  0  0  2  0  0  0  0  0  0
  160.6920  201.2940  147.9590 C   0  0  1  0  0  3  0  0  0  0  0  0
  161.3720  200.7850  149.0820 O   0  0  0  0  0  0  0  0  0  0  0  0
  160.2690  201.6200  149.3600 C   0  0  1  0  0  3  0  0  0  0  0  0
  161.5800  202.3160  147.2640 C   0  0  0  0  0  1  0  0  0  0  0  0
  161.8920  202.0690  152.0110 C   0  0  0  0  0  2  0  0  0  0  0  0
  161.9580  203.0290  150.8820 C   0  0  2  0  0  3  0  0  0  0  0  0
  161.5750  203.4270  152.1790 O   0  0  0  0  0  0  0  0  0  0  0  0
  1  9  1  0  0  0  0
  1  7  1  0  0  0  0
  2  3  1  0  0  0  0
  3  9  1  6  0  0  0
  3 10  1  0  0  0  0
  4 10  1  0  0  0  0
  5  6  1  1  0  0  0
  5 32  1  0  0  0  0
  7 13  1  0  0  0  0
  7  4  1  0  0  0  0
  8  2  1  6  0  0  0
  8  3  1  0  0  0  0
  8  5  1  0  0  0  0
  8  6  1  0  0  0  0
 11 16  2  0  0  0  0
 11 15  1  0  0  0  0
 12 14  1  0  0  0  0
 12 13  2  0  0  0  0
 13 11  1  0  0  0  0
 14 17  1  0  0  0  0
 17 16  1  0  0  0  0
 19 20  1  0  0  0  0
 20 26  1  0  0  0  0
 20 21  1  1  0  0  0
 22 18  1  6  0  0  0
 22 23  1  0  0  0  0
 22 25  1  0  0  0  0
 23 20  1  0  0  0  0
 24 15  1  6  0  0  0
 24 18  1  0  0  0  0
 24 19  1  0  0  0  0
 25 26  1  0  0  0  0
 27 30  1  6  0  0  0
 27 28  1  0  0  0  0
 27 29  1  0  0  0  0
 29 28  1  1  0  0  0
 29  5  1  0  0  0  0
 31 33  1  0  0  0  0
 32 31  1  1  0  0  0
 32 33  1  0  0  0  0
M  END
>  <MODEL>
4

>  <REMARK>
 VINA RESULT:      -5.2      2.759      4.478
  Name = 
  4 active torsions:
  status: ('A' for Active; 'I' for Inactive)
    1  A    between atoms: C_10  and  C_15
    2  A    between atoms: C_10  and  C_32
    3  A    between atoms: C_16  and  N_20
    4  A    between atoms: N_24  and  C_25
                            x       y       z     vdW  Elec       q    Type
                         _______ _______ _______ _____ _____    ______ ____

>  <TORSDO>
F 4

$$$$
=
 OpenBabel11072412253D

 33 40  0  0  1  0  0  0  0  0999 V2000
  161.0540  206.1730  154.0150 C   0  0  0  0  0  2  0  0  0  0  0  0
  160.4490  205.2580  150.9390 C   0  0  0  0  0  2  0  0  0  0  0  0
  161.5240  206.0530  151.5530 C   0  0  2  0  0  0  0  0  0  0  0  0
  160.4320  208.0920  152.5430 C   0  0  0  0  0  2  0  0  0  0  0  0
  161.6720  205.4590  148.8580 C   0  0  2  0  0  0  0  0  0  0  0  0
  162.8330  206.0350  149.5810 C   0  0  0  0  0  2  0  0  0  0  0  0
  160.9620  207.6210  153.8210 N   0  0  0  0  0  0  0  0  0  0  0  0
  161.8860  205.1090  150.3720 C   0  0  2  0  0  0  0  0  0  0  0  0
  161.9360  205.5530  152.9340 C   0  0  0  0  0  2  0  0  0  0  0  0
  161.2850  207.5640  151.3940 C   0  0  0  0  0  2  0  0  0  0  0  0
  160.5450  209.8950  154.9090 C   0  0  0  0  0  0  0  0  0  0  0  0
  161.8740  208.1540  155.9810 C   0  0  0  0  0  3  0  0  0  0  0  0
  161.1260  208.5250  154.9320 C   0  0  0  0  0  0  0  0  0  0  0  0
  162.0310  209.0170  157.1960 C   0  0  0  0  0  2  0  0  0  0  0  0
  159.6910  210.3000  153.8300 N   0  0  0  0  0  2  0  0  0  0  0  0
  160.8860  210.7580  155.8230 N   0  0  0  0  0  0  0  0  0  0  0  0
  161.7420  210.4110  156.8810 N   0  0  0  0  0  2  0  0  0  0  0  0
  159.0060  212.0140  152.1890 C   0  0  0  0  0  2  0  0  0  0  0  0
  157.5370  211.7790  154.6070 S   0  0  0  0  0  0  0  0  0  0  0  0
  157.0100  213.3510  153.8280 C   0  0  2  0  0  0  0  0  0  0  0  0
  155.6620  213.7660  154.3790 C   0  0  0  0  0  1  0  0  0  0  0  0
  158.2380  213.3280  151.9890 C   0  0  1  0  0  3  0  0  0  0  0  0
  156.9210  213.1570  152.4420 O   0  0  0  0  0  0  0  0  0  0  0  0
  159.1150  211.6320  153.6730 C   0  0  1  0  0  3  0  0  0  0  0  0
  158.8490  214.4520  152.8070 C   0  0  0  0  0  2  0  0  0  0  0  0
  158.0300  214.4480  154.0720 C   0  0  0  0  0  2  0  0  0  0  0  0
  161.2280  202.9200  148.4200 C   0  0  1  0  0  3  0  0  0  0  0  0
  160.6530  203.7440  147.4330 O   0  0  0  0  0  0  0  0  0  0  0  0
  161.8720  204.2000  147.9780 C   0  0  1  0  0  3  0  0  0  0  0  0
  160.3780  202.9880  149.6800 C   0  0  0  0  0  1  0  0  0  0  0  0
  160.7340  206.9800  147.0620 C   0  0  0  0  0  2  0  0  0  0  0  0
  160.5980  206.5020  148.4590 C   0  0  2  0  0  3  0  0  0  0  0  0
  161.2170  207.7300  148.1480 O   0  0  0  0  0  0  0  0  0  0  0  0
  3  2  1  1  0  0  0
  3  9  1  0  0  0  0
  4  7  1  0  0  0  0
  5  6  1  6  0  0  0
  5  8  1  0  0  0  0
  7  1  1  0  0  0  0
  7 13  1  0  0  0  0
  8  6  1  1  0  0  0
  8  2  1  0  0  0  0
  8  3  1  0  0  0  0
  9  1  1  0  0  0  0
 10  3  1  0  0  0  0
 10  4  1  0  0  0  0
 11 13  1  0  0  0  0
 11 16  2  0  0  0  0
 12 14  1  0  0  0  0
 13 12  2  0  0  0  0
 15 11  1  0  0  0  0
 16 17  1  0  0  0  0
 17 14  1  0  0  0  0
 18 24  1  0  0  0  0
 20 26  1  0  0  0  0
 20 21  1  1  0  0  0
 20 19  1  0  0  0  0
 22 18  1  1  0  0  0
 22 23  1  0  0  0  0
 22 25  1  0  0  0  0
 23 20  1  0  0  0  0
 24 15  1  6  0  0  0
 24 19  1  0  0  0  0
 25 26  1  0  0  0  0
 27 30  1  1  0  0  0
 28 27  1  0  0  0  0
 29 28  1  6  0  0  0
 29 27  1  0  0  0  0
 29  5  1  0  0  0  0
 31 33  1  0  0  0  0
 32 31  1  6  0  0  0
 32  5  1  0  0  0  0
 33 32  1  0  0  0  0
M  END
>  <MODEL>
5

>  <REMARK>
 VINA RESULT:      -5.2      1.295      2.334
  Name = 
  4 active torsions:
  status: ('A' for Active; 'I' for Inactive)
    1  A    between atoms: C_10  and  C_15
    2  A    between atoms: C_10  and  C_32
    3  A    between atoms: C_16  and  N_20
    4  A    between atoms: N_24  and  C_25
                            x       y       z     vdW  Elec       q    Type
                         _______ _______ _______ _____ _____    ______ ____

>  <TORSDO>
F 4

$$$$
=
 OpenBabel11072412253D

 33 40  0  0  1  0  0  0  0  0999 V2000
  162.3340  209.8780  148.6340 C   0  0  0  0  0  2  0  0  0  0  0  0
  163.0210  207.0790  150.1690 C   0  0  0  0  0  2  0  0  0  0  0  0
  161.7630  207.7980  149.9150 C   0  0  2  0  0  0  0  0  0  0  0  0
  161.9510  210.0120  151.0970 C   0  0  0  0  0  2  0  0  0  0  0  0
  161.6650  205.3250  151.1440 C   0  0  2  0  0  0  0  0  0  0  0  0
  160.4320  205.9800  150.6400 C   0  0  0  0  0  2  0  0  0  0  0  0
  161.7790  210.6090  149.7750 N   0  0  0  0  0  0  0  0  0  0  0  0
  161.7460  206.2440  149.8760 C   0  0  2  0  0  0  0  0  0  0  0  0
  161.7180  208.4830  148.5530 C   0  0  0  0  0  2  0  0  0  0  0  0
  161.3170  208.6240  151.1340 C   0  0  0  0  0  2  0  0  0  0  0  0
  160.5450  212.6470  150.6980 C   0  0  0  0  0  0  0  0  0  0  0  0
  161.5740  212.6280  148.4870 C   0  0  0  0  0  3  0  0  0  0  0  0
  161.3340  211.9730  149.6300 C   0  0  0  0  0  0  0  0  0  0  0  0
  161.1980  214.0660  148.2960 C   0  0  0  0  0  2  0  0  0  0  0  0
  160.3240  211.9950  151.9550 N   0  0  0  0  0  2  0  0  0  0  0  0
  159.9770  213.7930  150.4550 N   0  0  0  0  0  0  0  0  0  0  0  0
  160.1440  214.4530  149.2260 N   0  0  0  0  0  2  0  0  0  0  0  0
  158.0190  212.3480  152.7710 C   0  0  0  0  0  2  0  0  0  0  0  0
  160.0750  211.8590  154.6660 S   0  0  0  0  0  0  0  0  0  0  0  0
  158.6180  212.4380  155.6150 C   0  0  2  0  0  0  0  0  0  0  0  0
  158.7470  212.0040  157.0600 C   0  0  0  0  0  1  0  0  0  0  0  0
  157.1590  212.7370  153.9810 C   0  0  1  0  0  3  0  0  0  0  0  0
  157.4630  211.8790  155.0490 O   0  0  0  0  0  0  0  0  0  0  0  0
  159.5190  212.5330  153.0470 C   0  0  1  0  0  3  0  0  0  0  0  0
  157.4670  214.1510  154.4420 C   0  0  0  0  0  2  0  0  0  0  0  0
  158.4830  213.9470  155.5360 C   0  0  0  0  0  2  0  0  0  0  0  0
  161.1420  202.7780  151.4250 C   0  0  1  0  0  3  0  0  0  0  0  0
  160.8450  203.2480  150.1310 O   0  0  0  0  0  0  0  0  0  0  0  0
  161.9540  203.8510  150.7630 C   0  0  1  0  0  3  0  0  0  0  0  0
  160.0560  203.2430  152.3830 C   0  0  0  0  0  1  0  0  0  0  0  0
  161.2890  205.4540  153.6460 C   0  0  0  0  0  2  0  0  0  0  0  0
  162.1520  205.8650  152.5120 C   0  0  2  0  0  3  0  0  0  0  0  0
  161.1790  206.7250  153.0590 O   0  0  0  0  0  0  0  0  0  0  0  0
  1  7  1  0  0  0  0
  3  9  1  6  0  0  0
  3  2  1  0  0  0  0
  3 10  1  0  0  0  0
  4 10  1  0  0  0  0
  5  6  1  1  0  0  0
  5 32  1  0  0  0  0
  7  4  1  0  0  0  0
  8  3  1  0  0  0  0
  8  2  1  6  0  0  0
  8  6  1  0  0  0  0
  8  5  1  0  0  0  0
  9  1  1  0  0  0  0
 11 15  1  0  0  0  0
 12 13  2  0  0  0  0
 13  7  1  0  0  0  0
 13 11  1  0  0  0  0
 14 12  1  0  0  0  0
 14 17  1  0  0  0  0
 16 11  2  0  0  0  0
 17 16  1  0  0  0  0
 18 24  1  0  0  0  0
 19 20  1  0  0  0  0
 20 21  1  1  0  0  0
 22 18  1  6  0  0  0
 22 25  1  0  0  0  0
 22 23  1  0  0  0  0
 23 20  1  0  0  0  0
 24 15  1  6  0  0  0
 24 19  1  0  0  0  0
 25 26  1  0  0  0  0
 26 20  1  0  0  0  0
 27 30  1  1  0  0  0
 28 27  1  0  0  0  0
 29 28  1  6  0  0  0
 29  5  1  0  0  0  0
 29 27  1  0  0  0  0
 32 33  1  0  0  0  0
 32 31  1  1  0  0  0
 33 31  1  0  0  0  0
M  END
>  <MODEL>
6

>  <REMARK>
 VINA RESULT:      -5.1      2.702      4.657
  Name = 
  4 active torsions:
  status: ('A' for Active; 'I' for Inactive)
    1  A    between atoms: C_10  and  C_15
    2  A    between atoms: C_10  and  C_32
    3  A    between atoms: C_16  and  N_20
    4  A    between atoms: N_24  and  C_25
                            x       y       z     vdW  Elec       q    Type
                         _______ _______ _______ _____ _____    ______ ____

>  <TORSDO>
F 4

$$$$
=
 OpenBabel11072412253D

 33 40  0  0  1  0  0  0  0  0999 V2000
  161.5800  207.7270  147.8710 C   0  0  0  0  0  2  0  0  0  0  0  0
  161.9520  204.5560  148.5570 C   0  0  0  0  0  2  0  0  0  0  0  0
  161.0400  205.5900  149.0700 C   0  0  2  0  0  0  0  0  0  0  0  0
  162.4800  207.3370  150.1670 C   0  0  0  0  0  2  0  0  0  0  0  0
  160.7320  202.9840  149.9390 C   0  0  2  0  0  0  0  0  0  0  0  0
  159.7010  204.0130  150.2210 C   0  0  0  0  0  2  0  0  0  0  0  0
  161.9080  208.2640  149.1930 N   0  0  0  0  0  0  0  0  0  0  0  0
  160.4980  204.1420  148.9060 C   0  0  2  0  0  0  0  0  0  0  0  0
  160.5810  206.5790  148.0030 C   0  0  0  0  0  2  0  0  0  0  0  0
  161.5250  206.1720  150.4090 C   0  0  0  0  0  2  0  0  0  0  0  0
  161.4660  210.2630  150.7220 C   0  0  0  0  0  0  0  0  0  0  0  0
  162.2880  210.5150  148.4400 C   0  0  0  0  0  3  0  0  0  0  0  0
  161.9220  209.6860  149.4270 C   0  0  0  0  0  0  0  0  0  0  0  0
  162.3890  211.9970  148.6360 C   0  0  0  0  0  2  0  0  0  0  0  0
  161.1260  209.4020  151.8170 N   0  0  0  0  0  2  0  0  0  0  0  0
  161.2880  211.5480  150.8300 N   0  0  0  0  0  0  0  0  0  0  0  0
  161.5810  212.4250  149.7720 N   0  0  0  0  0  2  0  0  0  0  0  0
  161.7490  210.3660  154.0050 C   0  0  0  0  0  2  0  0  0  0  0  0
  159.2320  211.0470  152.8840 S   0  0  0  0  0  0  0  0  0  0  0  0
  159.1980  211.6140  154.6250 C   0  0  2  0  0  0  0  0  0  0  0  0
  158.1340  212.6790  154.7930 C   0  0  0  0  0  1  0  0  0  0  0  0
  161.2180  211.0120  155.2910 C   0  0  1  0  0  3  0  0  0  0  0  0
  160.4560  212.1400  154.9510 O   0  0  0  0  0  0  0  0  0  0  0  0
  160.6130  209.8520  153.1070 C   0  0  1  0  0  3  0  0  0  0  0  0
  160.3020  210.0650  156.0450 C   0  0  0  0  0  2  0  0  0  0  0  0
  158.9270  210.4570  155.5690 C   0  0  0  0  0  2  0  0  0  0  0  0
  160.7190  201.3160  147.9250 C   0  0  1  0  0  3  0  0  0  0  0  0
  161.4190  200.8100  149.0370 O   0  0  0  0  0  0  0  0  0  0  0  0
  160.3040  201.6240  149.3330 C   0  0  1  0  0  3  0  0  0  0  0  0
  161.5810  202.3590  147.2290 C   0  0  0  0  0  1  0  0  0  0  0  0
  161.8750  202.0780  152.0110 C   0  0  0  0  0  2  0  0  0  0  0  0
  161.9560  203.0420  150.8870 C   0  0  2  0  0  3  0  0  0  0  0  0
  161.5430  203.4330  152.1770 O   0  0  0  0  0  0  0  0  0  0  0  0
  1  9  1  0  0  0  0
  1  7  1  0  0  0  0
  2  3  1  0  0  0  0
  3  9  1  6  0  0  0
  3 10  1  0  0  0  0
  4 10  1  0  0  0  0
  5  6  1  1  0  0  0
  5 32  1  0  0  0  0
  7 13  1  0  0  0  0
  7  4  1  0  0  0  0
  8  2  1  6  0  0  0
  8  3  1  0  0  0  0
  8  5  1  0  0  0  0
  8  6  1  0  0  0  0
 11 16  2  0  0  0  0
 11 15  1  0  0  0  0
 12 14  1  0  0  0  0
 12 13  2  0  0  0  0
 13 11  1  0  0  0  0
 14 17  1  0  0  0  0
 17 16  1  0  0  0  0
 19 24  1  0  0  0  0
 19 20  1  0  0  0  0
 20 21  1  1  0  0  0
 20 23  1  0  0  0  0
 20 26  1  0  0  0  0
 22 18  1  6  0  0  0
 22 25  1  0  0  0  0
 23 22  1  0  0  0  0
 24 15  1  6  0  0  0
 24 18  1  0  0  0  0
 26 25  1  0  0  0  0
 27 30  1  6  0  0  0
 27 28  1  0  0  0  0
 27 29  1  0  0  0  0
 29 28  1  1  0  0  0
 29  5  1  0  0  0  0
 31 33  1  0  0  0  0
 32 31  1  1  0  0  0
 32 33  1  0  0  0  0
M  END
>  <MODEL>
7

>  <REMARK>
 VINA RESULT:      -5.1      2.450      4.242
  Name = 
  4 active torsions:
  status: ('A' for Active; 'I' for Inactive)
    1  A    between atoms: C_10  and  C_15
    2  A    between atoms: C_10  and  C_32
    3  A    between atoms: C_16  and  N_20
    4  A    between atoms: N_24  and  C_25
                            x       y       z     vdW  Elec       q    Type
                         _______ _______ _______ _____ _____    ______ ____

>  <TORSDO>
F 4

$$$$
=
 OpenBabel11072412253D

 33 40  0  0  1  0  0  0  0  0999 V2000
  159.5330  213.9200  150.3100 C   0  0  0  0  0  2  0  0  0  0  0  0
  160.7130  214.4510  147.3110 C   0  0  0  0  0  2  0  0  0  0  0  0
  160.0160  213.3090  147.9250 C   0  0  2  0  0  0  0  0  0  0  0  0
  161.5000  212.4760  149.7790 C   0  0  0  0  0  2  0  0  0  0  0  0
  160.6120  213.2200  145.2280 C   0  0  2  0  0  0  0  0  0  0  0  0
  159.7020  212.2240  145.8450 C   0  0  0  0  0  2  0  0  0  0  0  0
  160.3770  212.7780  150.6650 N   0  0  0  0  0  0  0  0  0  0  0  0
  159.7120  213.6490  146.4390 C   0  0  2  0  0  0  0  0  0  0  0  0
  158.9350  213.7200  148.9190 C   0  0  0  0  0  2  0  0  0  0  0  0
  160.9950  212.2070  148.3640 C   0  0  0  0  0  2  0  0  0  0  0  0
  160.6480  210.7330  152.1730 C   0  0  0  0  0  0  0  0  0  0  0  0
  159.7590  212.8530  152.9860 C   0  0  0  0  0  3  0  0  0  0  0  0
  160.2710  212.1580  151.9620 C   0  0  0  0  0  0  0  0  0  0  0  0
  159.6820  212.2920  154.3740 C   0  0  0  0  0  2  0  0  0  0  0  0
  161.2540  209.9810  151.1130 N   0  0  0  0  0  2  0  0  0  0  0  0
  160.3430  210.1420  153.2930 N   0  0  0  0  0  0  0  0  0  0  0  0
  159.7230  210.8350  154.3460 N   0  0  0  0  0  2  0  0  0  0  0  0
  160.8310  207.8600  152.3080 C   0  0  0  0  0  2  0  0  0  0  0  0
  161.4530  207.7640  149.5400 S   0  0  0  0  0  0  0  0  0  0  0  0
  161.5770  206.0450  150.1620 C   0  0  2  0  0  0  0  0  0  0  0  0
  161.4510  205.0750  149.0060 C   0  0  0  0  0  1  0  0  0  0  0  0
  161.0480  206.3410  152.2880 C   0  0  1  0  0  3  0  0  0  0  0  0
  160.5440  205.8260  151.0840 O   0  0  0  0  0  0  0  0  0  0  0  0
  161.6100  208.5670  151.1870 C   0  0  1  0  0  3  0  0  0  0  0  0
  162.5250  205.9960  152.3380 C   0  0  0  0  0  2  0  0  0  0  0  0
  162.8920  205.8220  150.8860 C   0  0  0  0  0  2  0  0  0  0  0  0
  160.0790  213.1670  142.6680 C   0  0  1  0  0  3  0  0  0  0  0  0
  158.9440  213.4650  143.4480 O   0  0  0  0  0  0  0  0  0  0  0  0
  160.1720  213.9580  143.9390 C   0  0  1  0  0  3  0  0  0  0  0  0
  160.3760  211.6790  142.7730 C   0  0  0  0  0  1  0  0  0  0  0  0
  162.9990  214.0600  145.0880 C   0  0  0  0  0  2  0  0  0  0  0  0
  162.1160  212.9280  145.4600 C   0  0  2  0  0  3  0  0  0  0  0  0
  162.8050  212.9630  144.2310 O   0  0  0  0  0  0  0  0  0  0  0  0
  1  7  1  0  0  0  0
  3  2  1  1  0  0  0
  3 10  1  0  0  0  0
  3  9  1  0  0  0  0
  4  7  1  0  0  0  0
  5 32  1  0  0  0  0
  5  6  1  6  0  0  0
  5  8  1  0  0  0  0
  7 13  1  0  0  0  0
  8  6  1  6  0  0  0
  8  2  1  0  0  0  0
  8  3  1  0  0  0  0
  9  1  1  0  0  0  0
 10  4  1  0  0  0  0
 11 16  2  0  0  0  0
 12 14  1  0  0  0  0
 13 11  1  0  0  0  0
 13 12  2  0  0  0  0
 15 11  1  0  0  0  0
 16 17  1  0  0  0  0
 17 14  1  0  0  0  0
 19 20  1  0  0  0  0
 19 24  1  0  0  0  0
 20 21  1  6  0  0  0
 20 26  1  0  0  0  0
 20 23  1  0  0  0  0
 22 18  1  6  0  0  0
 22 25  1  0  0  0  0
 23 22  1  0  0  0  0
 24 15  1  6  0  0  0
 24 18  1  0  0  0  0
 26 25  1  0  0  0  0
 27 30  1  1  0  0  0
 27 28  1  0  0  0  0
 27 29  1  0  0  0  0
 29 28  1  1  0  0  0
 29  5  1  0  0  0  0
 32 31  1  1  0  0  0
 33 31  1  0  0  0  0
 33 32  1  0  0  0  0
M  END
>  <MODEL>
8

>  <REMARK>
 VINA RESULT:      -5.1      4.751      7.415
  Name = 
  4 active torsions:
  status: ('A' for Active; 'I' for Inactive)
    1  A    between atoms: C_10  and  C_15
    2  A    between atoms: C_10  and  C_32
    3  A    between atoms: C_16  and  N_20
    4  A    between atoms: N_24  and  C_25
                            x       y       z     vdW  Elec       q    Type
                         _______ _______ _______ _____ _____    ______ ____

>  <TORSDO>
F 4

$$$$
=
 OpenBabel11072412253D

 33 40  0  0  1  0  0  0  0  0999 V2000
  160.7700  212.9150  150.0780 C   0  0  0  0  0  2  0  0  0  0  0  0
  161.5460  213.9760  147.0890 C   0  0  0  0  0  2  0  0  0  0  0  0
  160.7260  212.8530  147.5700 C   0  0  2  0  0  0  0  0  0  0  0  0
  162.2700  211.3380  148.8550 C   0  0  0  0  0  2  0  0  0  0  0  0
  160.8550  213.3480  144.8540 C   0  0  2  0  0  0  0  0  0  0  0  0
  159.8610  212.3990  145.4140 C   0  0  0  0  0  2  0  0  0  0  0  0
  161.3940  211.5930  149.9960 N   0  0  0  0  0  0  0  0  0  0  0  0
  160.2710  213.6040  146.2870 C   0  0  2  0  0  0  0  0  0  0  0  0
  159.9300  213.1780  148.8300 C   0  0  0  0  0  2  0  0  0  0  0  0
  161.5030  211.5250  147.5500 C   0  0  0  0  0  2  0  0  0  0  0  0
  160.6120  211.0300  152.3630 C   0  0  0  0  0  0  0  0  0  0  0  0
  162.0800  209.5620  151.0840 C   0  0  0  0  0  3  0  0  0  0  0  0
  161.3630  210.6930  151.1230 C   0  0  0  0  0  0  0  0  0  0  0  0
  162.0410  208.5530  152.1910 C   0  0  0  0  0  2  0  0  0  0  0  0
  159.7880  212.2030  152.4140 N   0  0  0  0  0  2  0  0  0  0  0  0
  160.7750  210.3080  153.4340 N   0  0  0  0  0  0  0  0  0  0  0  0
  161.5950  209.1680  153.4360 N   0  0  0  0  0  2  0  0  0  0  0  0
  158.3310  213.9860  153.3070 C   0  0  0  0  0  2  0  0  0  0  0  0
  157.9660  211.3320  154.2450 S   0  0  0  0  0  0  0  0  0  0  0  0
  157.0070  212.4180  155.3670 C   0  0  2  0  0  0  0  0  0  0  0  0
  155.9480  211.6040  156.0800 C   0  0  0  0  0  1  0  0  0  0  0  0
  157.4090  214.3950  154.4640 C   0  0  1  0  0  3  0  0  0  0  0  0
  156.4020  213.4280  154.6060 O   0  0  0  0  0  0  0  0  0  0  0  0
  159.0560  212.6610  153.5900 C   0  0  1  0  0  3  0  0  0  0  0  0
  158.1670  214.4480  155.7790 C   0  0  0  0  0  2  0  0  0  0  0  0
  157.9160  213.0890  156.3810 C   0  0  0  0  0  2  0  0  0  0  0  0
  159.8400  214.0290  142.5430 C   0  0  1  0  0  3  0  0  0  0  0  0
  158.9990  214.3700  143.6200 O   0  0  0  0  0  0  0  0  0  0  0  0
  160.3860  214.4520  143.8740 C   0  0  1  0  0  3  0  0  0  0  0  0
  159.7430  212.5310  142.2950 C   0  0  0  0  0  1  0  0  0  0  0  0
  163.2670  213.7230  144.1740 C   0  0  0  0  0  2  0  0  0  0  0  0
  162.2780  212.7530  144.7040 C   0  0  2  0  0  3  0  0  0  0  0  0
  162.6590  212.7640  143.3470 O   0  0  0  0  0  0  0  0  0  0  0  0
  3  2  1  1  0  0  0
  3  9  1  0  0  0  0
  4  7  1  0  0  0  0
  5  6  1  6  0  0  0
  5  8  1  0  0  0  0
  7  1  1  0  0  0  0
  7 13  1  0  0  0  0
  8  6  1  1  0  0  0
  8  2  1  0  0  0  0
  8  3  1  0  0  0  0
  9  1  1  0  0  0  0
 10  3  1  0  0  0  0
 10  4  1  0  0  0  0
 11 15  1  0  0  0  0
 11 16  2  0  0  0  0
 12 13  2  0  0  0  0
 12 14  1  0  0  0  0
 13 11  1  0  0  0  0
 14 17  1  0  0  0  0
 16 17  1  0  0  0  0
 18 24  1  0  0  0  0
 19 20  1  0  0  0  0
 20 21  1  1  0  0  0
 20 26  1  0  0  0  0
 22 18  1  6  0  0  0
 22 23  1  0  0  0  0
 22 25  1  0  0  0  0
 23 20  1  0  0  0  0
 24 15  1  6  0  0  0
 24 19  1  0  0  0  0
 25 26  1  0  0  0  0
 27 30  1  1  0  0  0
 27 28  1  0  0  0  0
 27 29  1  0  0  0  0
 29 28  1  1  0  0  0
 29  5  1  0  0  0  0
 32 31  1  1  0  0  0
 32  5  1  0  0  0  0
 33 31  1  0  0  0  0
 33 32  1  0  0  0  0
M  END
>  <MODEL>
9

>  <REMARK>
 VINA RESULT:      -4.8      4.817      6.086
  Name = 
  4 active torsions:
  status: ('A' for Active; 'I' for Inactive)
    1  A    between atoms: C_10  and  C_15
    2  A    between atoms: C_10  and  C_32
    3  A    between atoms: C_16  and  N_20
    4  A    between atoms: N_24  and  C_25
                            x       y       z     vdW  Elec       q    Type
                         _______ _______ _______ _____ _____    ______ ____

>  <TORSDO>
F 4

$$$$
