=
 OpenBabel11072414473D

 45 49  0  0  1  0  0  0  0  0999 V2000
  161.2760  207.3700  156.6200 N   0  0  0  0  0  0  0  0  0  0  0  0
  160.5490  207.0420  155.5510 C   0  0  0  0  0  3  0  0  0  0  0  0
  160.6970  209.3520  154.7610 C   0  0  0  0  0  0  0  0  0  0  0  0
  161.4890  209.6200  155.9090 C   0  0  0  0  0  3  0  0  0  0  0  0
  161.8050  208.6120  156.8040 C   0  0  0  0  0  3  0  0  0  0  0  0
  160.4190  207.9780  154.4490 C   0  0  0  0  0  0  0  0  0  0  0  0
  161.4700  211.4880  154.0930 O   0  0  0  0  0  0  0  0  0  0  0  0
  160.5810  210.6400  153.9610 C   0  0  0  0  0  0  0  0  0  0  0  0
  159.3360  210.9320  153.0950 C   0  0  0  0  0  2  0  0  0  0  0  0
  159.3350  212.0080  152.1400 O   0  0  0  0  0  0  0  0  0  0  0  0
  157.7350  213.2600  153.3700 C   0  0  0  0  0  3  0  0  0  0  0  0
  158.1950  213.9130  151.1900 C   0  0  2  0  0  3  0  0  0  0  0  0
  158.1150  212.6740  152.0710 C   0  0  1  0  0  3  0  0  0  0  0  0
  156.7930  214.4420  150.9060 C   0  0  0  0  0  2  0  0  0  0  0  0
  155.9040  214.4310  152.1530 C   0  0  0  0  0  2  0  0  0  0  0  0
  156.6940  214.1380  153.4040 C   0  0  0  0  0  3  0  0  0  0  0  0
  159.1430  213.9520  150.0460 C   0  0  0  0  0  0  0  0  0  0  0  0
  158.6910  213.4060  148.8330 N   0  0  0  0  0  2  0  0  0  0  0  0
  160.2790  214.4530  150.1580 O   0  0  0  0  0  0  0  0  0  0  0  0
  160.5040  212.8270  147.2610 C   0  0  0  0  0  2  0  0  0  0  0  0
  158.1180  213.7140  146.4910 C   0  0  0  0  0  2  0  0  0  0  0  0
  159.2680  213.7140  147.5340 C   0  0  1  0  0  3  0  0  0  0  0  0
  159.8470  212.7070  145.0170 C   0  0  0  0  0  2  0  0  0  0  0  0
  158.3600  212.8730  145.2510 C   0  0  0  0  0  2  0  0  0  0  0  0
  160.3510  211.9330  146.1290 N   0  0  0  0  0  2  0  0  0  0  0  0
  160.5200  207.3340  153.2090 O   0  0  0  0  0  0  0  0  0  0  0  0
  161.7340  207.3960  152.3590 C   0  0  1  0  0  3  0  0  0  0  0  0
  161.7360  209.3110  150.3320 C   0  0  1  0  0  3  0  0  0  0  0  0
  161.7620  206.9490  148.9100 C   0  0  1  0  0  3  0  0  0  0  0  0
  161.2840  209.0630  147.9960 O   0  0  0  0  0  0  0  0  0  0  0  0
  162.3720  210.5970  150.0280 O   0  0  0  0  0  1  0  0  0  0  0  0
  162.4430  206.3490  150.0980 C   0  0  0  0  0  2  0  0  0  0  0  0
  161.4920  206.2600  151.2290 C   0  0  1  0  0  3  0  0  0  0  0  0
  161.5900  208.4320  148.9870 C   0  0  0  0  0  0  0  0  0  0  0  0
  162.1930  208.7500  151.6440 C   0  0  0  0  0  2  0  0  0  0  0  0
  162.7340  205.3460  146.7010 C   0  0  0  0  0  2  0  0  0  0  0  0
  161.4880  206.1460  146.6760 C   0  0  0  0  0  2  0  0  0  0  0  0
  162.6050  206.5010  147.6300 C   0  0  0  0  0  3  0  0  0  0  0  0
  161.5330  204.9170  151.8470 O   0  0  0  0  0  0  0  0  0  0  0  0
  161.5190  202.5260  151.5580 C   0  0  0  0  0  2  0  0  0  0  0  0
  160.9600  203.7460  151.3460 C   0  0  0  0  0  0  0  0  0  0  0  0
  160.3130  203.8830  150.0140 C   0  0  0  0  0  2  0  0  0  0  0  0
  160.5470  202.4440  149.4420 C   0  0  0  0  0  3  0  0  0  0  0  0
  161.4420  202.4270  148.2310 C   0  0  0  0  0  1  0  0  0  0  0  0
  159.3950  201.4630  149.2590 C   0  0  0  0  0  1  0  0  0  0  0  0
  1  5  1  0  0  0  0
  2  1  2  0  0  0  0
  3  4  1  0  0  0  0
  4  5  2  0  0  0  0
  6  3  2  0  0  0  0
  6  2  1  0  0  0  0
  8  7  2  0  0  0  0
  8  3  1  0  0  0  0
  9  8  1  0  0  0  0
 10  9  1  0  0  0  0
 11 16  2  0  0  0  0
 12 17  1  6  0  0  0
 12 13  1  0  0  0  0
 13 10  1  1  0  0  0
 13 11  1  0  0  0  0
 14 12  1  0  0  0  0
 14 15  1  0  0  0  0
 15 16  1  0  0  0  0
 17 19  2  0  0  0  0
 18 17  1  0  0  0  0
 20 22  1  0  0  0  0
 21 22  1  0  0  0  0
 22 18  1  1  0  0  0
 23 24  1  0  0  0  0
 23 25  1  0  0  0  0
 24 21  1  0  0  0  0
 25 20  1  0  0  0  0
 26  6  1  0  0  0  0
 27 26  1  6  0  0  0
 28 31  1  6  0  0  0
 28 35  1  0  0  0  0
 29 38  1  6  0  0  0
 29 34  1  0  0  0  0
 29 32  1  0  0  0  0
 30 34  2  0  0  0  0
 32 33  1  0  0  0  0
 33 39  1  1  0  0  0
 33 27  1  0  0  0  0
 34 28  1  0  0  0  0
 35 27  1  0  0  0  0
 36 38  1  0  0  0  0
 37 36  1  0  0  0  0
 37 38  1  0  0  0  0
 41 40  2  0  0  0  0
 41 39  1  0  0  0  0
 42 41  1  0  0  0  0
 43 42  1  0  0  0  0
 44 43  1  0  0  0  0
 45 43  1  0  0  0  0
M  END
>  <MODEL>
1

>  <REMARK>
 VINA RESULT:      -6.8      0.000      0.000
  Name = 
  13 active torsions:
  status: ('A' for Active; 'I' for Inactive)
    1  A    between atoms: C_1  and  O_14
    2  A    between atoms: C_1  and  C_39
    3  A    between atoms: C_2  and  O_25
    4  A    between atoms: C_6  and  C_26
    5  A    between atoms: C_7  and  N_27
    6  A    between atoms: C_10  and  C_22
    7  A    between atoms: C_13  and  C_31
    8  A    between atoms: O_14  and  C_36
    9  A    between atoms: C_23  and  C_39
   10  A    between atoms: C_24  and  O_37
   11  A    between atoms: O_25  and  C_40
   12  A    between atoms: C_31  and  C_41
   13  A    between atoms: O_37  and  C_41
                            x       y       z     vdW  Elec       q    Type
                         _______ _______ _______ _____ _____    ______ ____

>  <TORSDO>
F 13

$$$$
=
 OpenBabel11072414473D

 45 49  0  0  1  0  0  0  0  0999 V2000
  161.5700  209.0320  153.3910 N   0  0  0  0  0  0  0  0  0  0  0  0
  161.0870  208.0610  152.6150 C   0  0  0  0  0  3  0  0  0  0  0  0
  161.7580  209.3310  150.6350 C   0  0  0  0  0  0  0  0  0  0  0  0
  162.2750  210.3100  151.5260 C   0  0  0  0  0  3  0  0  0  0  0  0
  162.2120  210.1270  152.8960 C   0  0  0  0  0  3  0  0  0  0  0  0
  161.3690  208.0650  151.1910 C   0  0  0  0  0  0  0  0  0  0  0  0
  162.0620  208.9520  148.3180 O   0  0  0  0  0  0  0  0  0  0  0  0
  162.0300  209.8010  149.2150 C   0  0  0  0  0  0  0  0  0  0  0  0
  162.3680  211.2780  148.9140 C   0  0  0  0  0  2  0  0  0  0  0  0
  161.9310  211.9030  147.6950 O   0  0  0  0  0  0  0  0  0  0  0  0
  160.6610  213.3010  149.1360 C   0  0  0  0  0  3  0  0  0  0  0  0
  160.6390  213.7650  146.8610 C   0  0  2  0  0  3  0  0  0  0  0  0
  160.7360  212.6030  147.8390 C   0  0  1  0  0  3  0  0  0  0  0  0
  159.2160  214.3160  146.8480 C   0  0  0  0  0  2  0  0  0  0  0  0
  158.6250  214.4320  148.2550 C   0  0  0  0  0  2  0  0  0  0  0  0
  159.6670  214.2130  149.3230 C   0  0  0  0  0  3  0  0  0  0  0  0
  161.3110  213.6820  145.5380 C   0  0  0  0  0  0  0  0  0  0  0  0
  160.5770  213.0970  144.4930 N   0  0  0  0  0  2  0  0  0  0  0  0
  162.4650  214.1200  145.3650 O   0  0  0  0  0  0  0  0  0  0  0  0
  161.8310  212.2060  142.5620 C   0  0  0  0  0  2  0  0  0  0  0  0
  159.5140  213.4940  142.3430 C   0  0  0  0  0  2  0  0  0  0  0  0
  160.8650  213.2960  143.0810 C   0  0  1  0  0  3  0  0  0  0  0  0
  160.6400  212.1960  140.5470 C   0  0  0  0  0  2  0  0  0  0  0  0
  159.3030  212.6200  141.1200 C   0  0  0  0  0  2  0  0  0  0  0  0
  161.2590  211.3490  141.5410 N   0  0  0  0  0  2  0  0  0  0  0  0
  161.6750  206.7820  150.7200 O   0  0  0  0  0  0  0  0  0  0  0  0
  160.6490  205.7400  150.4790 C   0  0  1  0  0  3  0  0  0  0  0  0
  160.9210  203.3700  151.9250 C   0  0  1  0  0  3  0  0  0  0  0  0
  161.3220  202.5260  149.3320 C   0  0  1  0  0  3  0  0  0  0  0  0
  161.8340  201.2650  151.2500 O   0  0  0  0  0  0  0  0  0  0  0  0
  160.2770  202.6820  153.0490 O   0  0  0  0  0  1  0  0  0  0  0  0
  160.4610  203.6780  148.9220 C   0  0  0  0  0  2  0  0  0  0  0  0
  161.1780  204.9500  149.1670 C   0  0  1  0  0  3  0  0  0  0  0  0
  161.3820  202.3020  150.8090 C   0  0  0  0  0  0  0  0  0  0  0  0
  160.2540  204.6720  151.6030 C   0  0  0  0  0  2  0  0  0  0  0  0
  160.7400  200.6920  147.1660 C   0  0  0  0  0  2  0  0  0  0  0  0
  162.0410  200.7790  147.8680 C   0  0  0  0  0  2  0  0  0  0  0  0
  160.7750  201.2490  148.5440 C   0  0  0  0  0  3  0  0  0  0  0  0
  161.1020  205.8330  147.9830 O   0  0  0  0  0  0  0  0  0  0  0  0
  162.8860  205.4510  146.4120 C   0  0  0  0  0  2  0  0  0  0  0  0
  161.5620  205.5500  146.6950 C   0  0  0  0  0  0  0  0  0  0  0  0
  160.7600  206.1500  145.5940 C   0  0  0  0  0  2  0  0  0  0  0  0
  160.9400  205.0560  144.4900 C   0  0  0  0  0  3  0  0  0  0  0  0
  161.3570  205.6220  143.1580 C   0  0  0  0  0  1  0  0  0  0  0  0
  159.9140  203.9470  144.2930 C   0  0  0  0  0  1  0  0  0  0  0  0
  2  1  2  0  0  0  0
  3  6  2  0  0  0  0
  3  4  1  0  0  0  0
  4  5  2  0  0  0  0
  5  1  1  0  0  0  0
  6  2  1  0  0  0  0
  7  8  2  0  0  0  0
  8  3  1  0  0  0  0
  9  8  1  0  0  0  0
 10  9  1  0  0  0  0
 11 16  2  0  0  0  0
 12 17  1  6  0  0  0
 12 13  1  0  0  0  0
 13 10  1  1  0  0  0
 13 11  1  0  0  0  0
 14 12  1  0  0  0  0
 14 15  1  0  0  0  0
 15 16  1  0  0  0  0
 18 17  1  0  0  0  0
 19 17  2  0  0  0  0
 20 22  1  0  0  0  0
 21 22  1  0  0  0  0
 22 18  1  1  0  0  0
 23 24  1  0  0  0  0
 23 25  1  0  0  0  0
 24 21  1  0  0  0  0
 25 20  1  0  0  0  0
 26  6  1  0  0  0  0
 27 26  1  1  0  0  0
 27 35  1  0  0  0  0
 28 31  1  1  0  0  0
 29 38  1  6  0  0  0
 29 34  1  0  0  0  0
 32 33  1  0  0  0  0
 32 29  1  0  0  0  0
 33 39  1  6  0  0  0
 33 27  1  0  0  0  0
 34 30  2  0  0  0  0
 34 28  1  0  0  0  0
 35 28  1  0  0  0  0
 36 37  1  0  0  0  0
 36 38  1  0  0  0  0
 37 38  1  0  0  0  0
 40 41  2  0  0  0  0
 41 39  1  0  0  0  0
 42 41  1  0  0  0  0
 43 42  1  0  0  0  0
 44 43  1  0  0  0  0
 45 43  1  0  0  0  0
M  END
>  <MODEL>
2

>  <REMARK>
 VINA RESULT:      -6.4      2.703      5.055
  Name = 
  13 active torsions:
  status: ('A' for Active; 'I' for Inactive)
    1  A    between atoms: C_1  and  O_14
    2  A    between atoms: C_1  and  C_39
    3  A    between atoms: C_2  and  O_25
    4  A    between atoms: C_6  and  C_26
    5  A    between atoms: C_7  and  N_27
    6  A    between atoms: C_10  and  C_22
    7  A    between atoms: C_13  and  C_31
    8  A    between atoms: O_14  and  C_36
    9  A    between atoms: C_23  and  C_39
   10  A    between atoms: C_24  and  O_37
   11  A    between atoms: O_25  and  C_40
   12  A    between atoms: C_31  and  C_41
   13  A    between atoms: O_37  and  C_41
                            x       y       z     vdW  Elec       q    Type
                         _______ _______ _______ _____ _____    ______ ____

>  <TORSDO>
F 13

$$$$
=
 OpenBabel11072414473D

 45 49  0  0  1  0  0  0  0  0999 V2000
  160.1950  211.1470  156.2770 N   0  0  0  0  0  0  0  0  0  0  0  0
  161.2410  211.2640  155.4590 C   0  0  0  0  0  3  0  0  0  0  0  0
  161.0460  208.8920  154.8930 C   0  0  0  0  0  0  0  0  0  0  0  0
  159.9210  208.8510  155.7610 C   0  0  0  0  0  3  0  0  0  0  0  0
  159.4840  209.9920  156.4100 C   0  0  0  0  0  3  0  0  0  0  0  0
  161.5740  210.1830  154.5480 C   0  0  0  0  0  0  0  0  0  0  0  0
  161.7190  206.6260  155.0170 O   0  0  0  0  0  0  0  0  0  0  0  0
  161.2300  207.5050  154.3000 C   0  0  0  0  0  0  0  0  0  0  0  0
  160.9220  207.2270  152.8110 C   0  0  0  0  0  2  0  0  0  0  0  0
  161.9360  206.7140  151.9300 O   0  0  0  0  0  0  0  0  0  0  0  0
  160.9250  204.7010  152.6830 C   0  0  0  0  0  3  0  0  0  0  0  0
  161.1080  205.0440  150.3950 C   0  0  2  0  0  3  0  0  0  0  0  0
  161.8210  205.3450  151.7050 C   0  0  1  0  0  3  0  0  0  0  0  0
  161.2600  203.5660  150.0460 C   0  0  0  0  0  2  0  0  0  0  0  0
  161.0650  202.6590  151.2640 C   0  0  0  0  0  2  0  0  0  0  0  0
  160.5280  203.4190  152.4500 C   0  0  0  0  0  3  0  0  0  0  0  0
  161.2190  205.9900  149.2530 C   0  0  0  0  0  0  0  0  0  0  0  0
  162.0620  205.6100  148.1970 N   0  0  0  0  0  2  0  0  0  0  0  0
  160.5840  207.0630  149.2340 O   0  0  0  0  0  0  0  0  0  0  0  0
  162.8210  205.3090  145.8670 C   0  0  0  0  0  2  0  0  0  0  0  0
  160.4890  206.4070  146.5250 C   0  0  0  0  0  2  0  0  0  0  0  0
  161.9860  206.1590  146.8520 C   0  0  1  0  0  3  0  0  0  0  0  0
  161.1680  205.6700  144.2500 C   0  0  0  0  0  2  0  0  0  0  0  0
  160.0040  205.8290  145.2070 C   0  0  0  0  0  2  0  0  0  0  0  0
  162.0370  204.6710  144.8280 N   0  0  0  0  0  2  0  0  0  0  0  0
  161.9260  210.6640  153.2800 O   0  0  0  0  0  0  0  0  0  0  0  0
  161.0090  210.6290  152.1160 C   0  0  1  0  0  3  0  0  0  0  0  0
  162.2010  210.4910  149.5980 C   0  0  1  0  0  3  0  0  0  0  0  0
  160.9900  212.9680  149.5410 C   0  0  1  0  0  3  0  0  0  0  0  0
  162.6100  212.2280  148.0050 O   0  0  0  0  0  0  0  0  0  0  0  0
  162.3960  209.5160  148.5210 O   0  0  0  0  0  1  0  0  0  0  0  0
  160.0080  212.4070  150.5190 C   0  0  0  0  0  2  0  0  0  0  0  0
  160.6710  212.1870  151.8240 C   0  0  1  0  0  3  0  0  0  0  0  0
  161.9390  211.9580  148.9800 C   0  0  0  0  0  0  0  0  0  0  0  0
  161.4190  209.9210  150.7420 C   0  0  0  0  0  2  0  0  0  0  0  0
  158.7210  213.8360  147.9630 C   0  0  0  0  0  2  0  0  0  0  0  0
  159.1290  214.4390  149.2520 C   0  0  0  0  0  2  0  0  0  0  0  0
  160.1340  213.6940  148.4050 C   0  0  0  0  0  3  0  0  0  0  0  0
  159.8570  212.7410  152.9280 O   0  0  0  0  0  0  0  0  0  0  0  0
  158.1540  214.4390  152.8110 C   0  0  0  0  0  2  0  0  0  0  0  0
  158.5180  213.1320  152.8680 C   0  0  0  0  0  0  0  0  0  0  0  0
  157.5790  212.2840  153.6530 C   0  0  0  0  0  2  0  0  0  0  0  0
  156.8600  213.3830  154.5050 C   0  0  0  0  0  3  0  0  0  0  0  0
  157.1290  213.2570  155.9820 C   0  0  0  0  0  1  0  0  0  0  0  0
  155.4000  213.7460  154.2650 C   0  0  0  0  0  1  0  0  0  0  0  0
  1  5  1  0  0  0  0
  2  1  2  0  0  0  0
  3  4  1  0  0  0  0
  4  5  2  0  0  0  0
  6  3  2  0  0  0  0
  6  2  1  0  0  0  0
  8  3  1  0  0  0  0
  8  7  2  0  0  0  0
  9  8  1  0  0  0  0
 10  9  1  0  0  0  0
 12 17  1  6  0  0  0
 12 13  1  0  0  0  0
 13 10  1  1  0  0  0
 13 11  1  0  0  0  0
 14 12  1  0  0  0  0
 14 15  1  0  0  0  0
 15 16  1  0  0  0  0
 16 11  2  0  0  0  0
 18 17  1  0  0  0  0
 19 17  2  0  0  0  0
 20 22  1  0  0  0  0
 21 22  1  0  0  0  0
 22 18  1  1  0  0  0
 23 25  1  0  0  0  0
 23 24  1  0  0  0  0
 24 21  1  0  0  0  0
 25 20  1  0  0  0  0
 26  6  1  0  0  0  0
 27 26  1  1  0  0  0
 28 31  1  6  0  0  0
 28 35  1  0  0  0  0
 29 38  1  6  0  0  0
 29 32  1  0  0  0  0
 30 34  2  0  0  0  0
 32 33  1  0  0  0  0
 33 27  1  0  0  0  0
 33 39  1  1  0  0  0
 34 29  1  0  0  0  0
 34 28  1  0  0  0  0
 35 27  1  0  0  0  0
 36 38  1  0  0  0  0
 36 37  1  0  0  0  0
 38 37  1  0  0  0  0
 40 41  2  0  0  0  0
 41 39  1  0  0  0  0
 41 42  1  0  0  0  0
 42 43  1  0  0  0  0
 43 44  1  0  0  0  0
 45 43  1  0  0  0  0
M  END
>  <MODEL>
3

>  <REMARK>
 VINA RESULT:      -6.1      2.327      7.766
  Name = 
  13 active torsions:
  status: ('A' for Active; 'I' for Inactive)
    1  A    between atoms: C_1  and  O_14
    2  A    between atoms: C_1  and  C_39
    3  A    between atoms: C_2  and  O_25
    4  A    between atoms: C_6  and  C_26
    5  A    between atoms: C_7  and  N_27
    6  A    between atoms: C_10  and  C_22
    7  A    between atoms: C_13  and  C_31
    8  A    between atoms: O_14  and  C_36
    9  A    between atoms: C_23  and  C_39
   10  A    between atoms: C_24  and  O_37
   11  A    between atoms: O_25  and  C_40
   12  A    between atoms: C_31  and  C_41
   13  A    between atoms: O_37  and  C_41
                            x       y       z     vdW  Elec       q    Type
                         _______ _______ _______ _____ _____    ______ ____

>  <TORSDO>
F 13

$$$$
=
 OpenBabel11072414473D

 45 49  0  0  1  0  0  0  0  0999 V2000
  160.4770  209.2130  156.9880 N   0  0  0  0  0  0  0  0  0  0  0  0
  161.0880  210.0820  156.1830 C   0  0  0  0  0  3  0  0  0  0  0  0
  160.9970  208.4450  154.3680 C   0  0  0  0  0  0  0  0  0  0  0  0
  160.3240  207.5830  155.2760 C   0  0  0  0  0  3  0  0  0  0  0  0
  160.0350  207.9950  156.5650 C   0  0  0  0  0  3  0  0  0  0  0  0
  161.1710  209.8160  154.7580 C   0  0  0  0  0  0  0  0  0  0  0  0
  160.4110  208.1210  152.0970 O   0  0  0  0  0  0  0  0  0  0  0  0
  161.1110  207.7240  153.0350 C   0  0  0  0  0  0  0  0  0  0  0  0
  161.9900  206.4620  152.8830 C   0  0  0  0  0  2  0  0  0  0  0  0
  162.3970  205.9970  151.5840 O   0  0  0  0  0  0  0  0  0  0  0  0
  161.1390  204.1550  152.4020 C   0  0  0  0  0  3  0  0  0  0  0  0
  160.9950  204.6620  150.1410 C   0  0  2  0  0  3  0  0  0  0  0  0
  161.9680  204.7010  151.3110 C   0  0  1  0  0  3  0  0  0  0  0  0
  160.7800  203.2210  149.6900 C   0  0  0  0  0  2  0  0  0  0  0  0
  160.6140  202.2610  150.8720 C   0  0  0  0  0  2  0  0  0  0  0  0
  160.4550  202.9990  152.1770 C   0  0  0  0  0  3  0  0  0  0  0  0
  161.1000  205.6690  149.0520 C   0  0  0  0  0  0  0  0  0  0  0  0
  162.0650  205.4290  148.0610 N   0  0  0  0  0  2  0  0  0  0  0  0
  160.3580  206.6710  149.0190 O   0  0  0  0  0  0  0  0  0  0  0  0
  162.8550  205.1800  145.7350 C   0  0  0  0  0  2  0  0  0  0  0  0
  160.5690  206.3700  146.3920 C   0  0  0  0  0  2  0  0  0  0  0  0
  162.0440  206.0330  146.7380 C   0  0  1  0  0  3  0  0  0  0  0  0
  161.2560  205.6870  144.1030 C   0  0  0  0  0  2  0  0  0  0  0  0
  160.0830  205.8690  145.0440 C   0  0  0  0  0  2  0  0  0  0  0  0
  162.0610  204.6220  144.6570 N   0  0  0  0  0  2  0  0  0  0  0  0
  160.9260  210.9700  154.0010 O   0  0  0  0  0  0  0  0  0  0  0  0
  160.0990  212.0980  154.4880 C   0  0  1  0  0  3  0  0  0  0  0  0
  157.7780  211.4280  155.8820 C   0  0  1  0  0  3  0  0  0  0  0  0
  156.7750  212.6380  153.6170 C   0  0  1  0  0  3  0  0  0  0  0  0
  155.5100  211.3500  155.1250 O   0  0  0  0  0  0  0  0  0  0  0  0
  157.2720  211.4460  157.2590 O   0  0  0  0  0  1  0  0  0  0  0  0
  158.0570  213.4040  153.5710 C   0  0  0  0  0  2  0  0  0  0  0  0
  159.1720  212.4950  153.2200 C   0  0  1  0  0  3  0  0  0  0  0  0
  156.5980  211.8140  154.8520 C   0  0  0  0  0  0  0  0  0  0  0  0
  159.1720  211.9660  155.7860 C   0  0  0  0  0  2  0  0  0  0  0  0
  154.3680  214.1730  154.1120 C   0  0  0  0  0  2  0  0  0  0  0  0
  155.6810  214.4400  154.7420 C   0  0  0  0  0  2  0  0  0  0  0  0
  155.6020  213.7050  153.4250 C   0  0  0  0  0  3  0  0  0  0  0  0
  160.0080  213.0760  152.1470 O   0  0  0  0  0  0  0  0  0  0  0  0
  158.4400  213.2670  150.3290 C   0  0  0  0  0  2  0  0  0  0  0  0
  159.5600  213.6870  150.9730 C   0  0  0  0  0  0  0  0  0  0  0  0
  160.6360  214.1530  150.0570 C   0  0  0  0  0  2  0  0  0  0  0  0
  160.4050  213.1920  148.8440 C   0  0  0  0  0  3  0  0  0  0  0  0
  161.5970  212.3220  148.5420 C   0  0  0  0  0  1  0  0  0  0  0  0
  159.7710  213.6830  147.5480 C   0  0  0  0  0  1  0  0  0  0  0  0
  2  1  2  0  0  0  0
  3  6  2  0  0  0  0
  3  4  1  0  0  0  0
  4  5  2  0  0  0  0
  5  1  1  0  0  0  0
  6  2  1  0  0  0  0
  7  8  2  0  0  0  0
  8  3  1  0  0  0  0
  9  8  1  0  0  0  0
 10  9  1  0  0  0  0
 12 17  1  6  0  0  0
 12 13  1  0  0  0  0
 13 10  1  1  0  0  0
 13 11  1  0  0  0  0
 14 12  1  0  0  0  0
 14 15  1  0  0  0  0
 15 16  1  0  0  0  0
 16 11  2  0  0  0  0
 18 17  1  0  0  0  0
 19 17  2  0  0  0  0
 20 22  1  0  0  0  0
 21 22  1  0  0  0  0
 22 18  1  1  0  0  0
 23 25  1  0  0  0  0
 23 24  1  0  0  0  0
 24 21  1  0  0  0  0
 25 20  1  0  0  0  0
 26  6  1  0  0  0  0
 27 26  1  6  0  0  0
 27 35  1  0  0  0  0
 28 31  1  1  0  0  0
 29 38  1  1  0  0  0
 29 34  1  0  0  0  0
 32 29  1  0  0  0  0
 33 39  1  6  0  0  0
 33 32  1  0  0  0  0
 33 27  1  0  0  0  0
 34 30  2  0  0  0  0
 34 28  1  0  0  0  0
 35 28  1  0  0  0  0
 36 37  1  0  0  0  0
 38 36  1  0  0  0  0
 38 37  1  0  0  0  0
 40 41  2  0  0  0  0
 41 39  1  0  0  0  0
 42 41  1  0  0  0  0
 43 42  1  0  0  0  0
 44 43  1  0  0  0  0
 45 43  1  0  0  0  0
M  END
>  <MODEL>
4

>  <REMARK>
 VINA RESULT:      -5.8      2.388      8.525
  Name = 
  13 active torsions:
  status: ('A' for Active; 'I' for Inactive)
    1  A    between atoms: C_1  and  O_14
    2  A    between atoms: C_1  and  C_39
    3  A    between atoms: C_2  and  O_25
    4  A    between atoms: C_6  and  C_26
    5  A    between atoms: C_7  and  N_27
    6  A    between atoms: C_10  and  C_22
    7  A    between atoms: C_13  and  C_31
    8  A    between atoms: O_14  and  C_36
    9  A    between atoms: C_23  and  C_39
   10  A    between atoms: C_24  and  O_37
   11  A    between atoms: O_25  and  C_40
   12  A    between atoms: C_31  and  C_41
   13  A    between atoms: O_37  and  C_41
                            x       y       z     vdW  Elec       q    Type
                         _______ _______ _______ _____ _____    ______ ____

>  <TORSDO>
F 13

$$$$
=
 OpenBabel11072414473D

 45 49  0  0  1  0  0  0  0  0999 V2000
  161.4980  208.9890  153.2090 N   0  0  0  0  0  0  0  0  0  0  0  0
  161.0420  207.9610  152.4930 C   0  0  0  0  0  3  0  0  0  0  0  0
  161.9110  209.0110  150.4620 C   0  0  0  0  0  0  0  0  0  0  0  0
  162.3930  210.0580  151.2940 C   0  0  0  0  0  3  0  0  0  0  0  0
  162.2160  210.0110  152.6660 C   0  0  0  0  0  3  0  0  0  0  0  0
  161.4330  207.8180  151.1020 C   0  0  0  0  0  0  0  0  0  0  0  0
  162.5670  208.3890  148.2730 O   0  0  0  0  0  0  0  0  0  0  0  0
  162.3100  209.3310  149.0300 C   0  0  0  0  0  0  0  0  0  0  0  0
  162.5020  210.7910  148.5630 C   0  0  0  0  0  2  0  0  0  0  0  0
  161.6930  211.8520  149.1000 O   0  0  0  0  0  0  0  0  0  0  0  0
  160.4490  211.8000  147.0770 C   0  0  0  0  0  3  0  0  0  0  0  0
  159.8990  213.4070  148.6600 C   0  0  2  0  0  3  0  0  0  0  0  0
  161.0880  212.6290  148.1160 C   0  0  1  0  0  3  0  0  0  0  0  0
  159.4520  214.4530  147.6440 C   0  0  0  0  0  2  0  0  0  0  0  0
  159.4350  213.9040  146.2140 C   0  0  0  0  0  2  0  0  0  0  0  0
  159.6200  212.4080  146.1840 C   0  0  0  0  0  3  0  0  0  0  0  0
  159.8800  213.8400  150.0820 C   0  0  0  0  0  0  0  0  0  0  0  0
  158.7250  213.5340  150.8200 N   0  0  0  0  0  2  0  0  0  0  0  0
  160.8470  214.4370  150.5930 O   0  0  0  0  0  0  0  0  0  0  0  0
  157.3030  213.9860  152.7870 C   0  0  0  0  0  2  0  0  0  0  0  0
  159.1580  212.0800  152.7190 C   0  0  0  0  0  2  0  0  0  0  0  0
  158.6730  213.4860  152.2720 C   0  0  1  0  0  3  0  0  0  0  0  0
  157.4000  212.3480  154.4560 C   0  0  0  0  0  2  0  0  0  0  0  0
  158.2450  211.3520  153.6890 C   0  0  0  0  0  2  0  0  0  0  0  0
  156.5320  212.9770  153.4880 N   0  0  0  0  0  2  0  0  0  0  0  0
  161.7290  206.4860  150.7820 O   0  0  0  0  0  0  0  0  0  0  0  0
  160.6930  205.4910  150.4150 C   0  0  1  0  0  3  0  0  0  0  0  0
  160.7840  203.0480  151.7560 C   0  0  1  0  0  3  0  0  0  0  0  0
  161.3550  202.3160  149.1600 C   0  0  1  0  0  3  0  0  0  0  0  0
  161.6830  200.9480  151.0450 O   0  0  0  0  0  0  0  0  0  0  0  0
  160.0370  202.3280  152.7930 O   0  0  0  0  0  1  0  0  0  0  0  0
  160.5620  203.5130  148.7470 C   0  0  0  0  0  2  0  0  0  0  0  0
  161.2950  204.7480  149.1070 C   0  0  1  0  0  3  0  0  0  0  0  0
  161.2960  202.0190  150.6250 C   0  0  0  0  0  0  0  0  0  0  0  0
  160.1830  204.3850  151.4510 C   0  0  0  0  0  2  0  0  0  0  0  0
  161.2800  200.2340  147.1470 C   0  0  0  0  0  2  0  0  0  0  0  0
  161.9640  200.1150  148.4550 C   0  0  0  0  0  2  0  0  0  0  0  0
  160.8300  201.0960  148.2720 C   0  0  0  0  0  3  0  0  0  0  0  0
  161.3350  205.6890  147.9670 O   0  0  0  0  0  0  0  0  0  0  0  0
  163.0850  205.1210  146.4130 C   0  0  0  0  0  2  0  0  0  0  0  0
  161.7860  205.4180  146.6720 C   0  0  0  0  0  0  0  0  0  0  0  0
  161.1300  206.2140  145.5990 C   0  0  0  0  0  2  0  0  0  0  0  0
  161.1410  205.1700  144.4330 C   0  0  0  0  0  3  0  0  0  0  0  0
  161.2160  205.8060  143.0690 C   0  0  0  0  0  1  0  0  0  0  0  0
  160.1780  203.9900  144.4110 C   0  0  0  0  0  1  0  0  0  0  0  0
  2  1  2  0  0  0  0
  3  6  2  0  0  0  0
  3  4  1  0  0  0  0
  4  5  2  0  0  0  0
  5  1  1  0  0  0  0
  6  2  1  0  0  0  0
  7  8  2  0  0  0  0
  8  3  1  0  0  0  0
  9  8  1  0  0  0  0
  9 10  1  0  0  0  0
 11 13  1  0  0  0  0
 12 17  1  1  0  0  0
 13 12  1  0  0  0  0
 13 10  1  1  0  0  0
 14 12  1  0  0  0  0
 15 14  1  0  0  0  0
 16 15  1  0  0  0  0
 16 11  2  0  0  0  0
 17 19  2  0  0  0  0
 17 18  1  0  0  0  0
 20 25  1  0  0  0  0
 21 24  1  0  0  0  0
 22 18  1  6  0  0  0
 22 21  1  0  0  0  0
 22 20  1  0  0  0  0
 24 23  1  0  0  0  0
 25 23  1  0  0  0  0
 26  6  1  0  0  0  0
 27 26  1  1  0  0  0
 27 35  1  0  0  0  0
 28 31  1  6  0  0  0
 29 38  1  6  0  0  0
 29 34  1  0  0  0  0
 32 33  1  0  0  0  0
 32 29  1  0  0  0  0
 33 39  1  6  0  0  0
 33 27  1  0  0  0  0
 34 30  2  0  0  0  0
 34 28  1  0  0  0  0
 35 28  1  0  0  0  0
 36 38  1  0  0  0  0
 36 37  1  0  0  0  0
 38 37  1  0  0  0  0
 40 41  2  0  0  0  0
 41 39  1  0  0  0  0
 42 41  1  0  0  0  0
 43 42  1  0  0  0  0
 44 43  1  0  0  0  0
 45 43  1  0  0  0  0
M  END
>  <MODEL>
5

>  <REMARK>
 VINA RESULT:      -5.4      2.102      5.599
  Name = 
  13 active torsions:
  status: ('A' for Active; 'I' for Inactive)
    1  A    between atoms: C_1  and  O_14
    2  A    between atoms: C_1  and  C_39
    3  A    between atoms: C_2  and  O_25
    4  A    between atoms: C_6  and  C_26
    5  A    between atoms: C_7  and  N_27
    6  A    between atoms: C_10  and  C_22
    7  A    between atoms: C_13  and  C_31
    8  A    between atoms: O_14  and  C_36
    9  A    between atoms: C_23  and  C_39
   10  A    between atoms: C_24  and  O_37
   11  A    between atoms: O_25  and  C_40
   12  A    between atoms: C_31  and  C_41
   13  A    between atoms: O_37  and  C_41
                            x       y       z     vdW  Elec       q    Type
                         _______ _______ _______ _____ _____    ______ ____

>  <TORSDO>
F 13

$$$$
=
 OpenBabel11072414473D

 45 49  0  0  1  0  0  0  0  0999 V2000
  161.9510  214.2140  147.9640 N   0  0  0  0  0  0  0  0  0  0  0  0
  160.7950  213.6270  148.2730 C   0  0  0  0  0  3  0  0  0  0  0  0
  161.9560  211.4830  148.4760 C   0  0  0  0  0  0  0  0  0  0  0  0
  163.1530  212.1830  148.1670 C   0  0  0  0  0  3  0  0  0  0  0  0
  163.1420  213.5510  147.9560 C   0  0  0  0  0  3  0  0  0  0  0  0
  160.7860  212.2630  148.7710 C   0  0  0  0  0  0  0  0  0  0  0  0
  162.8500  209.4050  147.7780 O   0  0  0  0  0  0  0  0  0  0  0  0
  162.3130  210.0230  148.7030 C   0  0  0  0  0  0  0  0  0  0  0  0
  161.9150  209.2980  150.0080 C   0  0  0  0  0  2  0  0  0  0  0  0
  162.4490  208.0010  150.3260 O   0  0  0  0  0  0  0  0  0  0  0  0
  161.4940  208.6570  152.4000 C   0  0  0  0  0  3  0  0  0  0  0  0
  161.0510  206.5160  151.6190 C   0  0  2  0  0  3  0  0  0  0  0  0
  162.1350  207.5840  151.6160 C   0  0  1  0  0  3  0  0  0  0  0  0
  160.9450  205.8830  153.0030 C   0  0  0  0  0  2  0  0  0  0  0  0
  161.0130  206.9240  154.1230 C   0  0  0  0  0  2  0  0  0  0  0  0
  160.9180  208.3310  153.5910 C   0  0  0  0  0  3  0  0  0  0  0  0
  160.9270  205.5790  150.4710 C   0  0  0  0  0  0  0  0  0  0  0  0
  160.3260  206.0840  149.3060 N   0  0  0  0  0  2  0  0  0  0  0  0
  161.3460  204.4070  150.5390 O   0  0  0  0  0  0  0  0  0  0  0  0
  161.1580  206.5020  147.0190 C   0  0  0  0  0  2  0  0  0  0  0  0
  161.1360  204.1000  148.1610 C   0  0  0  0  0  2  0  0  0  0  0  0
  160.4870  205.4980  147.9840 C   0  0  1  0  0  3  0  0  0  0  0  0
  162.3230  204.7110  146.0640 C   0  0  0  0  0  2  0  0  0  0  0  0
  162.3570  203.8330  147.2980 C   0  0  0  0  0  2  0  0  0  0  0  0
  162.4540  206.0730  146.5300 N   0  0  0  0  0  2  0  0  0  0  0  0
  159.8860  212.1050  149.8330 O   0  0  0  0  0  0  0  0  0  0  0  0
  159.8410  213.0170  151.0000 C   0  0  1  0  0  3  0  0  0  0  0  0
  159.5550  211.8210  153.5030 C   0  0  1  0  0  3  0  0  0  0  0  0
  157.1960  213.2260  153.2500 C   0  0  1  0  0  3  0  0  0  0  0  0
  157.5990  211.5530  154.8540 O   0  0  0  0  0  0  0  0  0  0  0  0
  160.3640  211.5490  154.6960 O   0  0  0  0  0  1  0  0  0  0  0  0
  157.9560  214.1590  152.3630 C   0  0  0  0  0  2  0  0  0  0  0  0
  158.2900  213.4790  151.0910 C   0  0  1  0  0  3  0  0  0  0  0  0
  158.0460  212.1990  153.9290 C   0  0  0  0  0  0  0  0  0  0  0  0
  160.3290  212.5540  152.4510 C   0  0  0  0  0  2  0  0  0  0  0  0
  155.0000  214.4510  154.6870 C   0  0  0  0  0  2  0  0  0  0  0  0
  155.5340  213.0970  154.9610 C   0  0  0  0  0  2  0  0  0  0  0  0
  156.3980  214.1380  154.2900 C   0  0  0  0  0  3  0  0  0  0  0  0
  157.9510  214.3330  149.9320 O   0  0  0  0  0  0  0  0  0  0  0  0
  155.5850  214.1670  149.5110 C   0  0  0  0  0  2  0  0  0  0  0  0
  156.8680  214.1770  149.0640 C   0  0  0  0  0  0  0  0  0  0  0  0
  157.1070  213.2560  147.9190 C   0  0  0  0  0  2  0  0  0  0  0  0
  157.1560  214.2850  146.7410 C   0  0  0  0  0  3  0  0  0  0  0  0
  155.9120  214.2710  145.8910 C   0  0  0  0  0  1  0  0  0  0  0  0
  158.3920  214.4310  145.8620 C   0  0  0  0  0  1  0  0  0  0  0  0
  1  2  1  0  0  0  0
  2  6  2  0  0  0  0
  3  8  1  0  0  0  0
  3  6  1  0  0  0  0
  4  3  2  0  0  0  0
  5  1  2  0  0  0  0
  5  4  1  0  0  0  0
  6 26  1  0  0  0  0
  7  8  2  0  0  0  0
  8  9  1  0  0  0  0
  9 10  1  0  0  0  0
 11 16  2  0  0  0  0
 12 17  1  6  0  0  0
 12 14  1  0  0  0  0
 13 10  1  6  0  0  0
 13 12  1  0  0  0  0
 13 11  1  0  0  0  0
 14 15  1  0  0  0  0
 16 15  1  0  0  0  0
 17 19  2  0  0  0  0
 18 17  1  0  0  0  0
 20 22  1  0  0  0  0
 22 21  1  0  0  0  0
 22 18  1  1  0  0  0
 23 25  1  0  0  0  0
 23 24  1  0  0  0  0
 24 21  1  0  0  0  0
 25 20  1  0  0  0  0
 27 26  1  6  0  0  0
 27 33  1  0  0  0  0
 27 35  1  0  0  0  0
 28 34  1  0  0  0  0
 28 31  1  1  0  0  0
 29 34  1  0  0  0  0
 29 38  1  1  0  0  0
 32 29  1  0  0  0  0
 33 39  1  6  0  0  0
 33 32  1  0  0  0  0
 34 30  2  0  0  0  0
 35 28  1  0  0  0  0
 36 37  1  0  0  0  0
 38 36  1  0  0  0  0
 38 37  1  0  0  0  0
 41 40  2  0  0  0  0
 41 39  1  0  0  0  0
 42 41  1  0  0  0  0
 43 42  1  0  0  0  0
 44 43  1  0  0  0  0
 45 43  1  0  0  0  0
M  END
>  <MODEL>
6

>  <REMARK>
 VINA RESULT:      -5.0      2.224      9.018
  Name = 
  13 active torsions:
  status: ('A' for Active; 'I' for Inactive)
    1  A    between atoms: C_1  and  O_14
    2  A    between atoms: C_1  and  C_39
    3  A    between atoms: C_2  and  O_25
    4  A    between atoms: C_6  and  C_26
    5  A    between atoms: C_7  and  N_27
    6  A    between atoms: C_10  and  C_22
    7  A    between atoms: C_13  and  C_31
    8  A    between atoms: O_14  and  C_36
    9  A    between atoms: C_23  and  C_39
   10  A    between atoms: C_24  and  O_37
   11  A    between atoms: O_25  and  C_40
   12  A    between atoms: C_31  and  C_41
   13  A    between atoms: O_37  and  C_41
                            x       y       z     vdW  Elec       q    Type
                         _______ _______ _______ _____ _____    ______ ____

>  <TORSDO>
F 13

$$$$
=
 OpenBabel11072414473D

 45 49  0  0  1  0  0  0  0  0999 V2000
  161.7660  208.1970  148.7310 N   0  0  0  0  0  0  0  0  0  0  0  0
  162.3360  208.7470  149.8030 C   0  0  0  0  0  3  0  0  0  0  0  0
  161.9480  210.9670  148.8520 C   0  0  0  0  0  0  0  0  0  0  0  0
  161.3290  210.3110  147.7550 C   0  0  0  0  0  3  0  0  0  0  0  0
  161.2080  208.9320  147.7280 C   0  0  0  0  0  3  0  0  0  0  0  0
  162.2460  210.1800  150.0170 C   0  0  0  0  0  0  0  0  0  0  0  0
  161.3200  213.1680  149.4580 O   0  0  0  0  0  0  0  0  0  0  0  0
  161.8720  212.4650  148.6060 C   0  0  0  0  0  0  0  0  0  0  0  0
  162.3680  213.0810  147.2780 C   0  0  0  0  0  2  0  0  0  0  0  0
  161.4920  213.8740  146.4580 O   0  0  0  0  0  0  0  0  0  0  0  0
  159.2280  214.1980  147.1030 C   0  0  0  0  0  3  0  0  0  0  0  0
  159.6550  213.4080  144.9620 C   0  0  2  0  0  3  0  0  0  0  0  0
  160.2020  213.3570  146.3810 C   0  0  1  0  0  3  0  0  0  0  0  0
  158.3790  212.5780  144.8640 C   0  0  0  0  0  2  0  0  0  0  0  0
  157.4520  212.7960  146.0630 C   0  0  0  0  0  2  0  0  0  0  0  0
  157.9010  213.9530  146.9190 C   0  0  0  0  0  3  0  0  0  0  0  0
  160.5810  213.3040  143.8030 C   0  0  0  0  0  0  0  0  0  0  0  0
  160.2570  212.3560  142.8190 N   0  0  0  0  0  2  0  0  0  0  0  0
  161.5900  214.0310  143.7090 O   0  0  0  0  0  0  0  0  0  0  0  0
  161.9870  211.4490  141.3090 C   0  0  0  0  0  2  0  0  0  0  0  0
  159.5640  212.1850  140.4960 C   0  0  0  0  0  2  0  0  0  0  0  0
  160.7660  212.3860  141.4570 C   0  0  1  0  0  3  0  0  0  0  0  0
  161.2150  210.8810  139.1730 C   0  0  0  0  0  2  0  0  0  0  0  0
  159.7410  211.1060  139.4430 C   0  0  0  0  0  2  0  0  0  0  0  0
  161.7750  210.3450  140.3930 N   0  0  0  0  0  2  0  0  0  0  0  0
  161.9890  210.4890  151.3590 O   0  0  0  0  0  0  0  0  0  0  0  0
  160.8280  209.9510  152.1060 C   0  0  1  0  0  3  0  0  0  0  0  0
  159.8110  211.5560  154.1480 C   0  0  1  0  0  3  0  0  0  0  0  0
  160.7740  209.3780  155.5370 C   0  0  1  0  0  3  0  0  0  0  0  0
  160.1670  211.4310  156.5100 O   0  0  0  0  0  0  0  0  0  0  0  0
  158.6380  212.3960  154.4120 O   0  0  0  0  0  1  0  0  0  0  0  0
  160.5240  208.5900  154.2910 C   0  0  0  0  0  2  0  0  0  0  0  0
  161.4850  208.9980  153.2400 C   0  0  1  0  0  3  0  0  0  0  0  0
  160.2520  210.7780  155.4900 C   0  0  0  0  0  0  0  0  0  0  0  0
  159.7510  210.9120  152.7970 C   0  0  0  0  0  2  0  0  0  0  0  0
  160.0770  207.1330  157.2300 C   0  0  0  0  0  2  0  0  0  0  0  0
  161.3790  207.8380  157.2610 C   0  0  0  0  0  2  0  0  0  0  0  0
  160.1450  208.5350  156.7390 C   0  0  0  0  0  3  0  0  0  0  0  0
  162.1050  207.8150  152.6060 O   0  0  0  0  0  0  0  0  0  0  0  0
  160.9710  205.9530  153.6300 C   0  0  0  0  0  2  0  0  0  0  0  0
  161.5840  206.5190  152.5580 C   0  0  0  0  0  0  0  0  0  0  0  0
  162.3700  205.5550  151.7420 C   0  0  0  0  0  2  0  0  0  0  0  0
  161.2100  204.7120  151.1150 C   0  0  0  0  0  3  0  0  0  0  0  0
  161.2740  203.2520  151.4810 C   0  0  0  0  0  1  0  0  0  0  0  0
  160.8120  204.8700  149.6530 C   0  0  0  0  0  1  0  0  0  0  0  0
  1  2  1  0  0  0  0
  2  6  2  0  0  0  0
  3  6  1  0  0  0  0
  4  3  2  0  0  0  0
  5  4  1  0  0  0  0
  5  1  2  0  0  0  0
  6 26  1  0  0  0  0
  8  3  1  0  0  0  0
  8  7  2  0  0  0  0
  9  8  1  0  0  0  0
 10  9  1  0  0  0  0
 12 17  1  6  0  0  0
 12 13  1  0  0  0  0
 13 10  1  6  0  0  0
 13 11  1  0  0  0  0
 14 12  1  0  0  0  0
 14 15  1  0  0  0  0
 15 16  1  0  0  0  0
 16 11  2  0  0  0  0
 18 17  1  0  0  0  0
 19 17  2  0  0  0  0
 20 22  1  0  0  0  0
 21 22  1  0  0  0  0
 22 18  1  1  0  0  0
 23 24  1  0  0  0  0
 23 25  1  0  0  0  0
 24 21  1  0  0  0  0
 25 20  1  0  0  0  0
 27 26  1  1  0  0  0
 27 35  1  0  0  0  0
 27 33  1  0  0  0  0
 28 31  1  1  0  0  0
 28 34  1  0  0  0  0
 29 38  1  1  0  0  0
 32 29  1  0  0  0  0
 33 39  1  6  0  0  0
 33 32  1  0  0  0  0
 34 29  1  0  0  0  0
 34 30  2  0  0  0  0
 35 28  1  0  0  0  0
 36 37  1  0  0  0  0
 38 36  1  0  0  0  0
 38 37  1  0  0  0  0
 41 39  1  0  0  0  0
 41 40  2  0  0  0  0
 42 41  1  0  0  0  0
 43 44  1  0  0  0  0
 43 42  1  0  0  0  0
 45 43  1  0  0  0  0
M  END
>  <MODEL>
7

>  <REMARK>
 VINA RESULT:      -4.9      2.737      6.316
  Name = 
  13 active torsions:
  status: ('A' for Active; 'I' for Inactive)
    1  A    between atoms: C_1  and  O_14
    2  A    between atoms: C_1  and  C_39
    3  A    between atoms: C_2  and  O_25
    4  A    between atoms: C_6  and  C_26
    5  A    between atoms: C_7  and  N_27
    6  A    between atoms: C_10  and  C_22
    7  A    between atoms: C_13  and  C_31
    8  A    between atoms: O_14  and  C_36
    9  A    between atoms: C_23  and  C_39
   10  A    between atoms: C_24  and  O_37
   11  A    between atoms: O_25  and  C_40
   12  A    between atoms: C_31  and  C_41
   13  A    between atoms: O_37  and  C_41
                            x       y       z     vdW  Elec       q    Type
                         _______ _______ _______ _____ _____    ______ ____

>  <TORSDO>
F 13

$$$$
=
 OpenBabel11072414473D

 45 49  0  0  1  0  0  0  0  0999 V2000
  161.1960  205.8130  154.2870 N   0  0  0  0  0  0  0  0  0  0  0  0
  160.7670  205.2820  153.1420 C   0  0  0  0  0  3  0  0  0  0  0  0
  161.2330  207.3970  152.0050 C   0  0  0  0  0  0  0  0  0  0  0  0
  161.7020  207.8840  153.2550 C   0  0  0  0  0  3  0  0  0  0  0  0
  161.7160  207.0690  154.3740 C   0  0  0  0  0  3  0  0  0  0  0  0
  160.9830  205.9880  151.8910 C   0  0  0  0  0  0  0  0  0  0  0  0
  161.2390  208.2260  149.7870 O   0  0  0  0  0  0  0  0  0  0  0  0
  161.4000  208.5070  150.9790 C   0  0  0  0  0  0  0  0  0  0  0  0
  161.8660  209.9190  151.3990 C   0  0  0  0  0  2  0  0  0  0  0  0
  161.0280  211.0680  151.1880 O   0  0  0  0  0  0  0  0  0  0  0  0
  160.8160  211.3360  153.5390 C   0  0  0  0  0  3  0  0  0  0  0  0
  159.5160  212.6790  152.1620 C   0  0  2  0  0  3  0  0  0  0  0  0
  160.1340  211.2900  152.2320 C   0  0  1  0  0  3  0  0  0  0  0  0
  158.3440  212.7780  153.1330 C   0  0  0  0  0  2  0  0  0  0  0  0
  158.6550  212.1320  154.4860 C   0  0  0  0  0  2  0  0  0  0  0  0
  160.1150  211.7790  154.6190 C   0  0  0  0  0  3  0  0  0  0  0  0
  159.3200  213.3410  150.8450 C   0  0  0  0  0  0  0  0  0  0  0  0
  160.4660  213.8590  150.2220 N   0  0  0  0  0  2  0  0  0  0  0  0
  158.1920  213.4220  150.3190 O   0  0  0  0  0  0  0  0  0  0  0  0
  162.0240  214.4530  148.4010 C   0  0  0  0  0  2  0  0  0  0  0  0
  159.8070  213.0300  148.0340 C   0  0  0  0  0  2  0  0  0  0  0  0
  160.5620  214.1500  148.8000 C   0  0  1  0  0  3  0  0  0  0  0  0
  161.6450  213.3230  146.3870 C   0  0  0  0  0  2  0  0  0  0  0  0
  160.5800  212.3770  146.9030 C   0  0  0  0  0  2  0  0  0  0  0  0
  162.5900  213.5000  147.4660 N   0  0  0  0  0  2  0  0  0  0  0  0
  161.3810  205.1170  150.8680 O   0  0  0  0  0  0  0  0  0  0  0  0
  160.4480  204.1910  150.1830 C   0  0  1  0  0  3  0  0  0  0  0  0
  161.1040  201.4820  150.2610 C   0  0  1  0  0  3  0  0  0  0  0  0
  161.3280  202.0640  147.5760 C   0  0  1  0  0  3  0  0  0  0  0  0
  162.1550  200.1160  148.6020 O   0  0  0  0  0  0  0  0  0  0  0  0
  160.6500  200.2540  150.9220 O   0  0  0  0  0  1  0  0  0  0  0  0
  160.3170  203.1380  147.8200 C   0  0  0  0  0  2  0  0  0  0  0  0
  160.9200  204.2180  148.6330 C   0  0  1  0  0  3  0  0  0  0  0  0
  161.5580  201.1630  148.7470 C   0  0  0  0  0  0  0  0  0  0  0  0
  160.2780  202.6700  150.6480 C   0  0  0  0  0  2  0  0  0  0  0  0
  159.7780  201.3300  145.2400 C   0  0  0  0  0  2  0  0  0  0  0  0
  160.8240  202.3780  145.2610 C   0  0  0  0  0  2  0  0  0  0  0  0
  160.8380  201.2650  146.2820 C   0  0  0  0  0  3  0  0  0  0  0  0
  160.6350  205.5430  148.0430 O   0  0  0  0  0  0  0  0  0  0  0  0
  162.3270  207.1870  147.5560 C   0  0  0  0  0  2  0  0  0  0  0  0
  161.4370  206.2490  147.1420 C   0  0  0  0  0  0  0  0  0  0  0  0
  160.7860  206.5760  145.8440 C   0  0  0  0  0  2  0  0  0  0  0  0
  161.3640  205.4310  144.9470 C   0  0  0  0  0  3  0  0  0  0  0  0
  162.7320  204.9730  145.3810 C   0  0  0  0  0  1  0  0  0  0  0  0
  161.2890  205.4960  143.4270 C   0  0  0  0  0  1  0  0  0  0  0  0
  1  5  1  0  0  0  0
  2  1  2  0  0  0  0
  3  4  1  0  0  0  0
  4  5  2  0  0  0  0
  6  3  2  0  0  0  0
  6  2  1  0  0  0  0
  7  8  2  0  0  0  0
  8  9  1  0  0  0  0
  8  3  1  0  0  0  0
 10  9  1  0  0  0  0
 11 16  2  0  0  0  0
 12 17  1  6  0  0  0
 12 13  1  0  0  0  0
 12 14  1  0  0  0  0
 13 10  1  6  0  0  0
 13 11  1  0  0  0  0
 14 15  1  0  0  0  0
 15 16  1  0  0  0  0
 18 17  1  0  0  0  0
 19 17  2  0  0  0  0
 20 22  1  0  0  0  0
 21 22  1  0  0  0  0
 22 18  1  1  0  0  0
 23 24  1  0  0  0  0
 23 25  1  0  0  0  0
 24 21  1  0  0  0  0
 25 20  1  0  0  0  0
 26  6  1  0  0  0  0
 27 35  1  0  0  0  0
 27 26  1  1  0  0  0
 28 35  1  0  0  0  0
 28 31  1  6  0  0  0
 29 38  1  6  0  0  0
 29 32  1  0  0  0  0
 29 34  1  0  0  0  0
 30 34  2  0  0  0  0
 32 33  1  0  0  0  0
 33 39  1  6  0  0  0
 33 27  1  0  0  0  0
 34 28  1  0  0  0  0
 36 37  1  0  0  0  0
 36 38  1  0  0  0  0
 37 38  1  0  0  0  0
 41 40  2  0  0  0  0
 41 39  1  0  0  0  0
 42 41  1  0  0  0  0
 43 44  1  0  0  0  0
 43 42  1  0  0  0  0
 45 43  1  0  0  0  0
M  END
>  <MODEL>
8

>  <REMARK>
 VINA RESULT:      -4.8      2.108      4.591
  Name = 
  13 active torsions:
  status: ('A' for Active; 'I' for Inactive)
    1  A    between atoms: C_1  and  O_14
    2  A    between atoms: C_1  and  C_39
    3  A    between atoms: C_2  and  O_25
    4  A    between atoms: C_6  and  C_26
    5  A    between atoms: C_7  and  N_27
    6  A    between atoms: C_10  and  C_22
    7  A    between atoms: C_13  and  C_31
    8  A    between atoms: O_14  and  C_36
    9  A    between atoms: C_23  and  C_39
   10  A    between atoms: C_24  and  O_37
   11  A    between atoms: O_25  and  C_40
   12  A    between atoms: C_31  and  C_41
   13  A    between atoms: O_37  and  C_41
                            x       y       z     vdW  Elec       q    Type
                         _______ _______ _______ _____ _____    ______ ____

>  <TORSDO>
F 13

$$$$
=
 OpenBabel11072414473D

 45 49  0  0  1  0  0  0  0  0999 V2000
  161.4400  213.2380  149.3720 N   0  0  0  0  0  0  0  0  0  0  0  0
  160.5620  212.5400  150.0930 C   0  0  0  0  0  3  0  0  0  0  0  0
  161.6000  210.4640  149.3220 C   0  0  0  0  0  0  0  0  0  0  0  0
  162.5190  211.2750  148.6020 C   0  0  0  0  0  3  0  0  0  0  0  0
  162.4530  212.6550  148.6710 C   0  0  0  0  0  3  0  0  0  0  0  0
  160.7500  211.1120  150.2800 C   0  0  0  0  0  0  0  0  0  0  0  0
  161.6010  208.4790  148.0310 O   0  0  0  0  0  0  0  0  0  0  0  0
  161.9730  209.0100  149.0830 C   0  0  0  0  0  0  0  0  0  0  0  0
  162.6970  208.1830  150.1690 C   0  0  0  0  0  2  0  0  0  0  0  0
  162.7070  206.7460  150.1210 O   0  0  0  0  0  0  0  0  0  0  0  0
  161.5190  207.1190  152.1450 C   0  0  0  0  0  3  0  0  0  0  0  0
  161.1810  205.1100  151.0300 C   0  0  2  0  0  3  0  0  0  0  0  0
  162.2510  206.1580  151.2980 C   0  0  1  0  0  3  0  0  0  0  0  0
  160.9230  204.2950  152.2930 C   0  0  0  0  0  2  0  0  0  0  0  0
  160.8580  205.1710  153.5470 C   0  0  0  0  0  2  0  0  0  0  0  0
  160.8140  206.6390  153.2060 C   0  0  0  0  0  3  0  0  0  0  0  0
  161.1940  204.3420  149.7580 C   0  0  0  0  0  0  0  0  0  0  0  0
  161.4300  205.0720  148.5820 N   0  0  0  0  0  2  0  0  0  0  0  0
  161.0130  203.1080  149.7410 O   0  0  0  0  0  0  0  0  0  0  0  0
  160.7210  203.8030  146.5860 C   0  0  0  0  0  2  0  0  0  0  0  0
  162.7200  205.5570  146.5800 C   0  0  0  0  0  2  0  0  0  0  0  0
  161.8900  204.4840  147.3340 C   0  0  1  0  0  3  0  0  0  0  0  0
  161.6520  204.5530  144.5730 C   0  0  0  0  0  2  0  0  0  0  0  0
  162.3290  205.7880  145.1320 C   0  0  0  0  0  2  0  0  0  0  0  0
  160.4130  204.4040  145.3020 N   0  0  0  0  0  2  0  0  0  0  0  0
  160.4750  210.7230  151.5980 O   0  0  0  0  0  0  0  0  0  0  0  0
  160.4250  211.6760  152.7310 C   0  0  1  0  0  3  0  0  0  0  0  0
  160.9410  210.6250  155.2630 C   0  0  1  0  0  3  0  0  0  0  0  0
  158.2990  211.3860  155.4690 C   0  0  1  0  0  3  0  0  0  0  0  0
  159.4160  209.9810  156.9890 O   0  0  0  0  0  0  0  0  0  0  0  0
  162.0060  210.6450  156.2710 O   0  0  0  0  0  1  0  0  0  0  0  0
  158.6100  212.4120  154.4280 C   0  0  0  0  0  2  0  0  0  0  0  0
  158.8550  211.7480  153.1280 C   0  0  1  0  0  3  0  0  0  0  0  0
  159.4960  210.6500  155.9800 C   0  0  0  0  0  0  0  0  0  0  0  0
  161.2850  211.4500  154.0610 C   0  0  0  0  0  2  0  0  0  0  0  0
  156.2660  212.9340  156.8350 C   0  0  0  0  0  2  0  0  0  0  0  0
  156.1540  211.4920  156.5160 C   0  0  0  0  0  2  0  0  0  0  0  0
  157.5110  212.1450  156.6320 C   0  0  0  0  0  3  0  0  0  0  0  0
  158.0930  212.4080  152.0460 O   0  0  0  0  0  0  0  0  0  0  0  0
  156.4170  213.9730  152.7830 C   0  0  0  0  0  2  0  0  0  0  0  0
  157.5400  213.6910  152.0730 C   0  0  0  0  0  0  0  0  0  0  0  0
  157.6450  214.4480  150.7970 C   0  0  0  0  0  2  0  0  0  0  0  0
  156.5770  213.6930  149.9370 C   0  0  0  0  0  3  0  0  0  0  0  0
  157.1270  213.1660  148.6370 C   0  0  0  0  0  1  0  0  0  0  0  0
  155.1800  214.2630  149.7240 C   0  0  0  0  0  1  0  0  0  0  0  0
  1  2  1  0  0  0  0
  2  6  2  0  0  0  0
  3  6  1  0  0  0  0
  4  5  1  0  0  0  0
  4  3  2  0  0  0  0
  5  1  2  0  0  0  0
  6 26  1  0  0  0  0
  7  8  2  0  0  0  0
  8  3  1  0  0  0  0
  8  9  1  0  0  0  0
 10  9  1  0  0  0  0
 11 16  2  0  0  0  0
 12 17  1  6  0  0  0
 12 13  1  0  0  0  0
 12 14  1  0  0  0  0
 13 10  1  6  0  0  0
 13 11  1  0  0  0  0
 14 15  1  0  0  0  0
 16 15  1  0  0  0  0
 18 17  1  0  0  0  0
 19 17  2  0  0  0  0
 20 22  1  0  0  0  0
 21 22  1  0  0  0  0
 22 18  1  1  0  0  0
 23 24  1  0  0  0  0
 23 25  1  0  0  0  0
 24 21  1  0  0  0  0
 25 20  1  0  0  0  0
 27 26  1  6  0  0  0
 27 33  1  0  0  0  0
 27 35  1  0  0  0  0
 28 34  1  0  0  0  0
 28 31  1  1  0  0  0
 29 34  1  0  0  0  0
 29 38  1  1  0  0  0
 32 29  1  0  0  0  0
 33 39  1  6  0  0  0
 33 32  1  0  0  0  0
 34 30  2  0  0  0  0
 35 28  1  0  0  0  0
 37 38  1  0  0  0  0
 37 36  1  0  0  0  0
 38 36  1  0  0  0  0
 39 41  1  0  0  0  0
 41 40  2  0  0  0  0
 42 41  1  0  0  0  0
 43 42  1  0  0  0  0
 44 43  1  0  0  0  0
 45 43  1  0  0  0  0
M  END
>  <MODEL>
9

>  <REMARK>
 VINA RESULT:      -4.6      2.548      8.957
  Name = 
  13 active torsions:
  status: ('A' for Active; 'I' for Inactive)
    1  A    between atoms: C_1  and  O_14
    2  A    between atoms: C_1  and  C_39
    3  A    between atoms: C_2  and  O_25
    4  A    between atoms: C_6  and  C_26
    5  A    between atoms: C_7  and  N_27
    6  A    between atoms: C_10  and  C_22
    7  A    between atoms: C_13  and  C_31
    8  A    between atoms: O_14  and  C_36
    9  A    between atoms: C_23  and  C_39
   10  A    between atoms: C_24  and  O_37
   11  A    between atoms: O_25  and  C_40
   12  A    between atoms: C_31  and  C_41
   13  A    between atoms: O_37  and  C_41
                            x       y       z     vdW  Elec       q    Type
                         _______ _______ _______ _____ _____    ______ ____

>  <TORSDO>
F 13

$$$$
