=
 OpenBabel11072410533D

 40 41  0  0  1  0  0  0  0  0999 V2000
  161.5170  205.8990  153.2030 C   0  0  0  0  0  0  0  0  0  0  0  0
  160.8330  204.8910  153.5150 O   0  0  0  0  0  0  0  0  0  0  0  0
  161.9910  206.0360  151.8620 N   0  0  0  0  0  2  0  0  0  0  0  0
  162.8360  207.1350  151.4350 C   0  0  0  0  0  2  0  0  0  0  0  0
  161.8330  208.5100  150.9090 S   0  0  0  0  0  0  0  0  0  0  0  0
  160.4480  208.3630  151.4710 O   0  0  0  0  0  0  0  0  0  0  0  0
  162.4420  209.7790  151.4340 O   0  0  0  0  0  0  0  0  0  0  0  0
  161.7710  208.6010  149.1280 C   0  0  0  0  0  2  0  0  0  0  0  0
  162.9250  206.9420  147.8730 O   0  0  0  0  0  0  0  0  0  0  0  0
  160.8490  206.2850  148.7380 N   0  0  0  0  0  2  0  0  0  0  0  0
  161.8860  207.2480  148.5170 C   0  0  0  0  0  0  0  0  0  0  0  0
  160.8010  205.0210  148.1170 N   0  0  0  0  0  2  0  0  0  0  0  0
  160.9360  202.5000  150.8860 C   0  0  0  0  0  3  0  0  0  0  0  0
  160.8770  203.7680  148.8120 C   0  0  0  0  0  0  0  0  0  0  0  0
  161.2050  201.3600  148.7700 C   0  0  0  0  0  3  0  0  0  0  0  0
  160.8220  203.7200  150.2150 C   0  0  0  0  0  3  0  0  0  0  0  0
  161.0880  202.5770  148.0890 C   0  0  0  0  0  0  0  0  0  0  0  0
  161.1230  201.3190  150.1650 C   0  0  0  0  0  3  0  0  0  0  0  0
  161.2080  202.5850  146.6000 C   0  0  0  0  0  2  0  0  0  0  0  0
  159.8620  201.7690  144.6900 C   0  0  0  0  0  1  0  0  0  0  0  0
  160.4880  201.3870  146.0110 C   0  0  0  0  0  2  0  0  0  0  0  0
  161.8060  206.9440  154.2340 C   0  0  0  0  0  2  0  0  0  0  0  0
  160.5710  207.4310  154.8330 N   0  0  0  0  0  2  0  0  0  0  0  0
  161.7710  208.7940  156.8020 S   0  0  0  0  0  0  0  0  0  0  0  0
  160.4920  208.4520  155.8400 C   0  0  0  0  0  0  0  0  0  0  0  0
  159.3240  209.1990  156.0030 O   0  0  0  0  0  0  0  0  0  0  0  0
  160.1210  211.6310  156.6670 O   0  0  0  0  0  0  0  0  0  0  0  0
  157.3940  212.7510  154.9890 C   0  0  1  0  0  3  0  0  0  0  0  0
  158.8340  212.9850  153.2030 C   0  0  2  0  0  0  0  0  0  0  0  0
  159.2550  210.8850  155.6760 P   0  0  2  0  0  0  0  0  0  0  0  0
  157.5430  211.4720  155.8140 C   0  0  2  0  0  3  0  0  0  0  0  0
  157.5740  212.4810  153.6160 O   0  0  0  0  0  0  0  0  0  0  0  0
  159.7850  211.1880  154.0900 O   0  0  0  0  0  0  0  0  0  0  0  0
  159.8980  212.5050  154.0110 O   0  0  0  0  0  0  0  0  0  0  0  0
  156.6750  210.4830  155.3440 O   0  0  0  0  0  1  0  0  0  0  0  0
  158.8170  214.3840  153.2610 O   0  0  0  0  0  1  0  0  0  0  0  0
  159.8180  213.5330  151.0790 O   0  0  0  0  0  1  0  0  0  0  0  0
  159.0590  212.5730  151.7500 C   0  0  0  0  0  2  0  0  0  0  0  0
  156.0630  213.4530  155.2360 C   0  0  0  0  0  2  0  0  0  0  0  0
  155.5040  213.9050  154.0380 O   0  0  0  0  0  1  0  0  0  0  0  0
  1  2  2  0  0  0  0
  1 22  1  0  0  0  0
  3  1  1  0  0  0  0
  4  3  1  0  0  0  0
  5  7  2  0  0  0  0
  5  4  1  0  0  0  0
  5  6  2  0  0  0  0
  8  5  1  0  0  0  0
  9 11  2  0  0  0  0
 11 10  1  0  0  0  0
 11  8  1  0  0  0  0
 12 10  1  0  0  0  0
 12 14  1  0  0  0  0
 14 16  2  0  0  0  0
 15 18  1  0  0  0  0
 16 13  1  0  0  0  0
 17 15  2  0  0  0  0
 17 14  1  0  0  0  0
 18 13  2  0  0  0  0
 19 17  1  0  0  0  0
 20 21  1  0  0  0  0
 21 19  1  0  0  0  0
 22 23  1  0  0  0  0
 23 25  1  0  0  0  0
 25 26  1  0  0  0  0
 25 24  2  0  0  0  0
 28 39  1  6  0  0  0
 28 31  1  0  0  0  0
 29 36  1  1  0  0  0
 29 32  1  0  0  0  0
 29 34  1  0  0  0  0
 30 31  1  0  0  0  0
 30 26  1  0  0  0  0
 30 27  2  1  0  0  0
 31 35  1  6  0  0  0
 32 28  1  0  0  0  0
 33 30  1  0  0  0  0
 34 33  1  0  0  0  0
 37 38  1  0  0  0  0
 38 29  1  0  0  0  0
 40 39  1  0  0  0  0
M  END
>  <MODEL>
1

>  <REMARK>
 VINA RESULT:      -7.0      0.000      0.000
  Name = 
  15 active torsions:
  status: ('A' for Active; 'I' for Inactive)
    1  A    between atoms: C_1  and  S_6
    2  A    between atoms: C_1  and  N_39
    3  A    between atoms: S_6  and  C_15
    4  A    between atoms: C_8  and  C_11
    5  A    between atoms: C_8  and  N_24
    6  A    between atoms: C_9  and  C_18
    7  A    between atoms: N_10  and  C_13
    8  A    between atoms: N_10  and  N_25
    9  A    between atoms: C_14  and  C_28
   10  A    between atoms: C_15  and  C_37
   11  A    between atoms: P_16  and  O_34
   12  A    between atoms: C_22  and  C_40
   13  A    between atoms: N_24  and  C_35
   14  A    between atoms: C_26  and  C_40
   15  A    between atoms: O_34  and  C_35
                            x       y       z     vdW  Elec       q    Type
                         _______ _______ _______ _____ _____    ______ ____

>  <TORSDO>
F 15

$$$$
=
 OpenBabel11072410533D

 40 41  0  0  1  0  0  0  0  0999 V2000
  161.3840  205.6570  152.9170 C   0  0  0  0  0  0  0  0  0  0  0  0
  160.6630  204.6280  152.8610 O   0  0  0  0  0  0  0  0  0  0  0  0
  161.9660  206.1700  151.7170 N   0  0  0  0  0  2  0  0  0  0  0  0
  162.8590  207.3130  151.7030 C   0  0  0  0  0  2  0  0  0  0  0  0
  161.9660  208.7810  151.2320 S   0  0  0  0  0  0  0  0  0  0  0  0
  160.5340  208.6570  151.6680 O   0  0  0  0  0  0  0  0  0  0  0  0
  162.5870  209.9630  151.9180 O   0  0  0  0  0  0  0  0  0  0  0  0
  162.0540  209.0340  149.4670 C   0  0  0  0  0  2  0  0  0  0  0  0
  162.6980  207.3210  147.9460 O   0  0  0  0  0  0  0  0  0  0  0  0
  160.6180  207.0170  148.9820 N   0  0  0  0  0  2  0  0  0  0  0  0
  161.8150  207.7630  148.7290 C   0  0  0  0  0  0  0  0  0  0  0  0
  160.2390  205.8680  148.2600 N   0  0  0  0  0  2  0  0  0  0  0  0
  160.8510  205.9160  144.5630 C   0  0  0  0  0  3  0  0  0  0  0  0
  160.7380  205.5210  146.9600 C   0  0  0  0  0  0  0  0  0  0  0  0
  161.9700  203.9980  145.5210 C   0  0  0  0  0  3  0  0  0  0  0  0
  160.3930  206.2820  145.8310 C   0  0  0  0  0  3  0  0  0  0  0  0
  161.5190  204.3590  146.7960 C   0  0  0  0  0  0  0  0  0  0  0  0
  161.6430  204.7760  144.4070 C   0  0  0  0  0  3  0  0  0  0  0  0
  161.8660  203.4880  147.9580 C   0  0  0  0  0  2  0  0  0  0  0  0
  160.2750  202.0210  149.1580 C   0  0  0  0  0  1  0  0  0  0  0  0
  161.0810  202.1910  147.8930 C   0  0  0  0  0  2  0  0  0  0  0  0
  161.6040  206.3350  154.2320 C   0  0  0  0  0  2  0  0  0  0  0  0
  160.5050  207.2420  154.5330 N   0  0  0  0  0  2  0  0  0  0  0  0
  161.7610  208.3220  156.6390 S   0  0  0  0  0  0  0  0  0  0  0  0
  160.4840  208.1750  155.6250 C   0  0  0  0  0  0  0  0  0  0  0  0
  159.3780  209.0010  155.8300 O   0  0  0  0  0  0  0  0  0  0  0  0
  160.4730  211.3380  156.4050 O   0  0  0  0  0  0  0  0  0  0  0  0
  157.6670  212.7310  155.1060 C   0  0  1  0  0  3  0  0  0  0  0  0
  158.8790  212.8710  153.1490 C   0  0  2  0  0  0  0  0  0  0  0  0
  159.4220  210.6930  155.5290 P   0  0  2  0  0  0  0  0  0  0  0  0
  157.8030  211.4280  155.8940 C   0  0  2  0  0  3  0  0  0  0  0  0
  157.6430  212.4740  153.7190 O   0  0  0  0  0  0  0  0  0  0  0  0
  159.7680  210.9790  153.8900 O   0  0  0  0  0  0  0  0  0  0  0  0
  159.9900  212.2810  153.8070 O   0  0  0  0  0  0  0  0  0  0  0  0
  156.7950  210.5310  155.5330 O   0  0  0  0  0  1  0  0  0  0  0  0
  158.9990  214.2650  153.2200 O   0  0  0  0  0  1  0  0  0  0  0  0
  159.7070  213.3120  150.9350 O   0  0  0  0  0  1  0  0  0  0  0  0
  158.8770  212.4690  151.6750 C   0  0  0  0  0  2  0  0  0  0  0  0
  156.4490  213.5450  155.5300 C   0  0  0  0  0  2  0  0  0  0  0  0
  155.4840  213.5680  154.5200 O   0  0  0  0  0  1  0  0  0  0  0  0
  1 22  1  0  0  0  0
  2  1  2  0  0  0  0
  3  1  1  0  0  0  0
  4  3  1  0  0  0  0
  5  6  2  0  0  0  0
  5  4  1  0  0  0  0
  5  7  2  0  0  0  0
  8  5  1  0  0  0  0
  9 11  2  0  0  0  0
 11 10  1  0  0  0  0
 11  8  1  0  0  0  0
 12 10  1  0  0  0  0
 13 16  1  0  0  0  0
 14 12  1  0  0  0  0
 15 17  2  0  0  0  0
 16 14  2  0  0  0  0
 17 14  1  0  0  0  0
 17 19  1  0  0  0  0
 18 13  2  0  0  0  0
 18 15  1  0  0  0  0
 21 19  1  0  0  0  0
 21 20  1  0  0  0  0
 22 23  1  0  0  0  0
 23 25  1  0  0  0  0
 25 26  1  0  0  0  0
 25 24  2  0  0  0  0
 28 39  1  1  0  0  0
 28 31  1  0  0  0  0
 29 36  1  1  0  0  0
 29 32  1  0  0  0  0
 29 34  1  0  0  0  0
 30 26  1  0  0  0  0
 30 31  1  0  0  0  0
 30 27  2  1  0  0  0
 31 35  1  6  0  0  0
 32 28  1  0  0  0  0
 33 30  1  0  0  0  0
 34 33  1  0  0  0  0
 37 38  1  0  0  0  0
 38 29  1  0  0  0  0
 40 39  1  0  0  0  0
M  END
>  <MODEL>
2

>  <REMARK>
 VINA RESULT:      -6.5      1.209      2.163
  Name = 
  15 active torsions:
  status: ('A' for Active; 'I' for Inactive)
    1  A    between atoms: C_1  and  S_6
    2  A    between atoms: C_1  and  N_39
    3  A    between atoms: S_6  and  C_15
    4  A    between atoms: C_8  and  C_11
    5  A    between atoms: C_8  and  N_24
    6  A    between atoms: C_9  and  C_18
    7  A    between atoms: N_10  and  C_13
    8  A    between atoms: N_10  and  N_25
    9  A    between atoms: C_14  and  C_28
   10  A    between atoms: C_15  and  C_37
   11  A    between atoms: P_16  and  O_34
   12  A    between atoms: C_22  and  C_40
   13  A    between atoms: N_24  and  C_35
   14  A    between atoms: C_26  and  C_40
   15  A    between atoms: O_34  and  C_35
                            x       y       z     vdW  Elec       q    Type
                         _______ _______ _______ _____ _____    ______ ____

>  <TORSDO>
F 15

$$$$
=
 OpenBabel11072410533D

 40 41  0  0  1  0  0  0  0  0999 V2000
  160.3320  208.1660  155.5250 C   0  0  0  0  0  0  0  0  0  0  0  0
  159.7840  207.0550  155.7420 O   0  0  0  0  0  0  0  0  0  0  0  0
  160.0220  209.2750  156.3710 N   0  0  0  0  0  2  0  0  0  0  0  0
  160.5610  210.6050  156.1520 C   0  0  0  0  0  2  0  0  0  0  0  0
  159.3520  211.6280  155.3370 S   0  0  0  0  0  0  0  0  0  0  0  0
  158.0350  211.5120  156.0500 O   0  0  0  0  0  0  0  0  0  0  0  0
  159.8140  213.0560  155.3940 O   0  0  0  0  0  0  0  0  0  0  0  0
  159.1730  211.1530  153.6260 C   0  0  0  0  0  2  0  0  0  0  0  0
  157.6760  212.8740  152.9520 O   0  0  0  0  0  0  0  0  0  0  0  0
  159.7400  212.8450  151.8420 N   0  0  0  0  0  2  0  0  0  0  0  0
  158.7940  212.3190  152.7820 C   0  0  0  0  0  0  0  0  0  0  0  0
  159.4460  213.8660  150.9170 N   0  0  0  0  0  2  0  0  0  0  0  0
  157.0400  213.1880  148.1260 C   0  0  0  0  0  3  0  0  0  0  0  0
  158.9170  213.6470  149.6010 C   0  0  0  0  0  0  0  0  0  0  0  0
  159.2810  213.3030  147.2230 C   0  0  0  0  0  3  0  0  0  0  0  0
  157.5420  213.4400  149.4050 C   0  0  0  0  0  3  0  0  0  0  0  0
  159.7930  213.5590  148.5000 C   0  0  0  0  0  0  0  0  0  0  0  0
  157.9080  213.1240  147.0330 C   0  0  0  0  0  3  0  0  0  0  0  0
  161.2680  213.7190  148.6680 C   0  0  0  0  0  2  0  0  0  0  0  0
  162.3240  211.4900  148.4640 C   0  0  0  0  0  1  0  0  0  0  0  0
  162.0060  212.7750  147.7370 C   0  0  0  0  0  2  0  0  0  0  0  0
  161.3080  208.3010  154.4010 C   0  0  0  0  0  2  0  0  0  0  0  0
  160.8310  207.5990  153.2170 N   0  0  0  0  0  2  0  0  0  0  0  0
  161.9230  208.9240  151.1610 S   0  0  0  0  0  0  0  0  0  0  0  0
  161.5170  207.5520  151.9560 C   0  0  0  0  0  0  0  0  0  0  0  0
  161.8790  206.3280  151.3910 O   0  0  0  0  0  0  0  0  0  0  0  0
  159.7300  206.3290  149.8500 O   0  0  0  0  0  0  0  0  0  0  0  0
  160.7320  203.2560  148.8200 C   0  0  1  0  0  3  0  0  0  0  0  0
  161.7360  204.3850  147.0770 C   0  0  2  0  0  0  0  0  0  0  0  0
  161.0870  205.6800  150.0100 P   0  0  2  0  0  0  0  0  0  0  0  0
  160.8760  203.8870  150.2050 C   0  0  2  0  0  3  0  0  0  0  0  0
  161.9250  203.4010  148.0810 O   0  0  0  0  0  0  0  0  0  0  0  0
  162.0330  205.9460  148.6240 O   0  0  0  0  0  0  0  0  0  0  0  0
  161.2550  205.6110  147.6070 O   0  0  0  0  0  0  0  0  0  0  0  0
  161.9850  203.3590  150.8700 O   0  0  0  0  0  1  0  0  0  0  0  0
  160.8200  203.9120  146.1280 O   0  0  0  0  0  1  0  0  0  0  0  0
  162.9380  205.5620  145.3590 O   0  0  0  0  0  1  0  0  0  0  0  0
  163.0730  204.6130  146.3740 C   0  0  0  0  0  2  0  0  0  0  0  0
  160.3070  201.7930  148.8860 C   0  0  0  0  0  2  0  0  0  0  0  0
  161.3490  200.9500  148.4940 O   0  0  0  0  0  1  0  0  0  0  0  0
  1  2  2  0  0  0  0
  1  3  1  0  0  0  0
  4  3  1  0  0  0  0
  5  7  2  0  0  0  0
  5  6  2  0  0  0  0
  5  4  1  0  0  0  0
  8  5  1  0  0  0  0
 10 11  1  0  0  0  0
 11  9  2  0  0  0  0
 11  8  1  0  0  0  0
 12 10  1  0  0  0  0
 13 16  1  0  0  0  0
 14 12  1  0  0  0  0
 15 17  2  0  0  0  0
 16 14  2  0  0  0  0
 17 19  1  0  0  0  0
 17 14  1  0  0  0  0
 18 15  1  0  0  0  0
 18 13  2  0  0  0  0
 21 20  1  0  0  0  0
 21 19  1  0  0  0  0
 22  1  1  0  0  0  0
 23 22  1  0  0  0  0
 24 25  2  0  0  0  0
 25 23  1  0  0  0  0
 26 25  1  0  0  0  0
 28 39  1  1  0  0  0
 28 31  1  0  0  0  0
 29 36  1  6  0  0  0
 29 34  1  0  0  0  0
 29 32  1  0  0  0  0
 30 27  2  6  0  0  0
 30 31  1  0  0  0  0
 30 26  1  0  0  0  0
 31 35  1  6  0  0  0
 32 28  1  0  0  0  0
 33 30  1  0  0  0  0
 34 33  1  0  0  0  0
 37 38  1  0  0  0  0
 38 29  1  0  0  0  0
 40 39  1  0  0  0  0
M  END
>  <MODEL>
3

>  <REMARK>
 VINA RESULT:      -6.5      3.404      9.286
  Name = 
  15 active torsions:
  status: ('A' for Active; 'I' for Inactive)
    1  A    between atoms: C_1  and  S_6
    2  A    between atoms: C_1  and  N_39
    3  A    between atoms: S_6  and  C_15
    4  A    between atoms: C_8  and  C_11
    5  A    between atoms: C_8  and  N_24
    6  A    between atoms: C_9  and  C_18
    7  A    between atoms: N_10  and  C_13
    8  A    between atoms: N_10  and  N_25
    9  A    between atoms: C_14  and  C_28
   10  A    between atoms: C_15  and  C_37
   11  A    between atoms: P_16  and  O_34
   12  A    between atoms: C_22  and  C_40
   13  A    between atoms: N_24  and  C_35
   14  A    between atoms: C_26  and  C_40
   15  A    between atoms: O_34  and  C_35
                            x       y       z     vdW  Elec       q    Type
                         _______ _______ _______ _____ _____    ______ ____

>  <TORSDO>
F 15

$$$$
=
 OpenBabel11072410533D

 40 41  0  0  1  0  0  0  0  0999 V2000
  160.1260  208.6290  155.8430 C   0  0  0  0  0  0  0  0  0  0  0  0
  159.5670  207.5260  156.0700 O   0  0  0  0  0  0  0  0  0  0  0  0
  159.7230  209.7840  156.5830 N   0  0  0  0  0  2  0  0  0  0  0  0
  160.2730  211.1040  156.3390 C   0  0  0  0  0  2  0  0  0  0  0  0
  159.1210  212.0820  155.3960 S   0  0  0  0  0  0  0  0  0  0  0  0
  157.7590  211.9940  156.0220 O   0  0  0  0  0  0  0  0  0  0  0  0
  159.5760  213.5130  155.4130 O   0  0  0  0  0  0  0  0  0  0  0  0
  159.0590  211.5230  153.7020 C   0  0  0  0  0  2  0  0  0  0  0  0
  157.6530  213.2890  152.9490 O   0  0  0  0  0  0  0  0  0  0  0  0
  159.6560  213.0210  151.7610 N   0  0  0  0  0  2  0  0  0  0  0  0
  158.7220  212.6420  152.7790 C   0  0  0  0  0  0  0  0  0  0  0  0
  159.3900  213.9840  150.7670 N   0  0  0  0  0  2  0  0  0  0  0  0
  156.9880  213.1120  148.0260 C   0  0  0  0  0  3  0  0  0  0  0  0
  158.8610  213.6880  149.4660 C   0  0  0  0  0  0  0  0  0  0  0  0
  159.2210  213.2370  147.1050 C   0  0  0  0  0  3  0  0  0  0  0  0
  157.4900  213.4380  149.2880 C   0  0  0  0  0  3  0  0  0  0  0  0
  159.7330  213.5680  148.3660 C   0  0  0  0  0  0  0  0  0  0  0  0
  157.8520  213.0160  146.9330 C   0  0  0  0  0  3  0  0  0  0  0  0
  161.2040  213.7710  148.5170 C   0  0  0  0  0  2  0  0  0  0  0  0
  162.3980  211.6070  148.6530 C   0  0  0  0  0  1  0  0  0  0  0  0
  161.9620  212.7190  147.7280 C   0  0  0  0  0  2  0  0  0  0  0  0
  161.2130  208.7090  154.8190 C   0  0  0  0  0  2  0  0  0  0  0  0
  161.1060  207.6100  153.8690 N   0  0  0  0  0  2  0  0  0  0  0  0
  161.7620  209.0360  151.6980 S   0  0  0  0  0  0  0  0  0  0  0  0
  161.0590  207.7580  152.4410 C   0  0  0  0  0  0  0  0  0  0  0  0
  160.4350  206.7940  151.6480 O   0  0  0  0  0  0  0  0  0  0  0  0
  162.6960  205.4410  151.4300 O   0  0  0  0  0  0  0  0  0  0  0  0
  161.6850  204.6790  148.2830 C   0  0  1  0  0  3  0  0  0  0  0  0
  160.8550  202.7470  149.2300 C   0  0  2  0  0  0  0  0  0  0  0  0
  161.3120  205.5620  150.8320 P   0  0  2  0  0  0  0  0  0  0  0  0
  161.4530  205.9700  149.0680 C   0  0  2  0  0  3  0  0  0  0  0  0
  160.5590  203.8340  148.3690 O   0  0  0  0  0  0  0  0  0  0  0  0
  160.4860  204.0830  150.9610 O   0  0  0  0  0  0  0  0  0  0  0  0
  161.3300  203.1750  150.4960 O   0  0  0  0  0  0  0  0  0  0  0  0
  160.2800  206.5970  148.6420 O   0  0  0  0  0  1  0  0  0  0  0  0
  161.8280  201.9330  148.6330 O   0  0  0  0  0  1  0  0  0  0  0  0
  159.8940  200.6380  149.8750 O   0  0  0  0  0  1  0  0  0  0  0  0
  159.5850  201.9170  149.4060 C   0  0  0  0  0  2  0  0  0  0  0  0
  162.0600  204.9400  146.8280 C   0  0  0  0  0  2  0  0  0  0  0  0
  161.4100  204.0450  145.9740 O   0  0  0  0  0  1  0  0  0  0  0  0
  1  2  2  0  0  0  0
  1  3  1  0  0  0  0
  4  3  1  0  0  0  0
  5  7  2  0  0  0  0
  5  6  2  0  0  0  0
  5  4  1  0  0  0  0
  8  5  1  0  0  0  0
 10 11  1  0  0  0  0
 11  9  2  0  0  0  0
 11  8  1  0  0  0  0
 12 10  1  0  0  0  0
 13 16  1  0  0  0  0
 14 12  1  0  0  0  0
 15 17  2  0  0  0  0
 16 14  2  0  0  0  0
 17 19  1  0  0  0  0
 17 14  1  0  0  0  0
 18 15  1  0  0  0  0
 18 13  2  0  0  0  0
 21 19  1  0  0  0  0
 21 20  1  0  0  0  0
 22  1  1  0  0  0  0
 23 22  1  0  0  0  0
 24 25  2  0  0  0  0
 25 23  1  0  0  0  0
 26 25  1  0  0  0  0
 28 39  1  6  0  0  0
 28 32  1  0  0  0  0
 28 31  1  0  0  0  0
 29 36  1  6  0  0  0
 29 38  1  0  0  0  0
 29 34  1  0  0  0  0
 30 33  1  0  0  0  0
 30 27  2  1  0  0  0
 30 26  1  0  0  0  0
 31 35  1  6  0  0  0
 31 30  1  0  0  0  0
 32 29  1  0  0  0  0
 34 33  1  0  0  0  0
 38 37  1  0  0  0  0
 40 39  1  0  0  0  0
M  END
>  <MODEL>
4

>  <REMARK>
 VINA RESULT:      -6.0      3.526      9.307
  Name = 
  15 active torsions:
  status: ('A' for Active; 'I' for Inactive)
    1  A    between atoms: C_1  and  S_6
    2  A    between atoms: C_1  and  N_39
    3  A    between atoms: S_6  and  C_15
    4  A    between atoms: C_8  and  C_11
    5  A    between atoms: C_8  and  N_24
    6  A    between atoms: C_9  and  C_18
    7  A    between atoms: N_10  and  C_13
    8  A    between atoms: N_10  and  N_25
    9  A    between atoms: C_14  and  C_28
   10  A    between atoms: C_15  and  C_37
   11  A    between atoms: P_16  and  O_34
   12  A    between atoms: C_22  and  C_40
   13  A    between atoms: N_24  and  C_35
   14  A    between atoms: C_26  and  C_40
   15  A    between atoms: O_34  and  C_35
                            x       y       z     vdW  Elec       q    Type
                         _______ _______ _______ _____ _____    ______ ____

>  <TORSDO>
F 15

$$$$
=
 OpenBabel11072410533D

 40 41  0  0  1  0  0  0  0  0999 V2000
  157.6620  213.8020  149.7000 C   0  0  0  0  0  0  0  0  0  0  0  0
  156.5000  213.5290  149.3030 O   0  0  0  0  0  0  0  0  0  0  0  0
  158.7670  213.6030  148.8170 N   0  0  0  0  0  2  0  0  0  0  0  0
  160.1430  213.8340  149.2160 C   0  0  0  0  0  2  0  0  0  0  0  0
  161.2430  213.4480  147.8690 S   0  0  0  0  0  0  0  0  0  0  0  0
  160.9330  214.3360  146.6980 O   0  0  0  0  0  0  0  0  0  0  0  0
  162.6550  213.7000  148.3130 O   0  0  0  0  0  0  0  0  0  0  0  0
  161.0890  211.7320  147.4000 C   0  0  0  0  0  2  0  0  0  0  0  0
  162.1820  211.3370  149.4760 O   0  0  0  0  0  0  0  0  0  0  0  0
  161.6310  209.4180  148.2490 N   0  0  0  0  0  2  0  0  0  0  0  0
  161.6910  210.8390  148.4280 C   0  0  0  0  0  0  0  0  0  0  0  0
  162.2660  208.4900  149.0970 N   0  0  0  0  0  2  0  0  0  0  0  0
  160.8460  205.6650  151.1110 C   0  0  0  0  0  3  0  0  0  0  0  0
  161.7270  207.2060  149.4490 C   0  0  0  0  0  0  0  0  0  0  0  0
  161.1750  204.9210  148.8330 C   0  0  0  0  0  3  0  0  0  0  0  0
  161.3340  206.9290  150.7680 C   0  0  0  0  0  3  0  0  0  0  0  0
  161.6620  206.1850  148.4800 C   0  0  0  0  0  0  0  0  0  0  0  0
  160.7630  204.6610  150.1430 C   0  0  0  0  0  3  0  0  0  0  0  0
  162.1180  206.4170  147.0770 C   0  0  0  0  0  2  0  0  0  0  0  0
  162.4680  204.5210  145.5250 C   0  0  0  0  0  1  0  0  0  0  0  0
  161.4370  205.4400  146.1370 C   0  0  0  0  0  2  0  0  0  0  0  0
  157.8620  214.3460  151.0780 C   0  0  0  0  0  2  0  0  0  0  0  0
  158.0530  213.2650  152.0360 N   0  0  0  0  0  2  0  0  0  0  0  0
  156.2900  214.2810  153.7790 S   0  0  0  0  0  0  0  0  0  0  0  0
  157.3520  213.1390  153.2830 C   0  0  0  0  0  0  0  0  0  0  0  0
  157.5420  212.0170  154.0920 O   0  0  0  0  0  0  0  0  0  0  0  0
  159.4570  212.9220  155.6750 O   0  0  0  0  0  0  0  0  0  0  0  0
  161.4000  210.4670  154.3710 C   0  0  1  0  0  3  0  0  0  0  0  0
  160.7390  209.2390  156.2070 C   0  0  2  0  0  0  0  0  0  0  0  0
  159.0290  211.7000  154.8940 P   0  0  2  0  0  0  0  0  0  0  0  0
  160.3110  211.2850  153.6770 C   0  0  2  0  0  3  0  0  0  0  0  0
  160.8920  209.2220  154.7970 O   0  0  0  0  0  0  0  0  0  0  0  0
  158.8500  210.3700  155.9370 O   0  0  0  0  0  0  0  0  0  0  0  0
  159.9640  210.3410  156.6520 O   0  0  0  0  0  0  0  0  0  0  0  0
  159.7400  210.5540  152.6330 O   0  0  0  0  0  1  0  0  0  0  0  0
  162.0010  209.3000  156.8120 O   0  0  0  0  0  1  0  0  0  0  0  0
  159.9120  207.0830  155.5340 O   0  0  0  0  0  1  0  0  0  0  0  0
  160.0730  207.9320  156.6310 C   0  0  0  0  0  2  0  0  0  0  0  0
  162.6350  210.2790  153.4960 C   0  0  0  0  0  2  0  0  0  0  0  0
  162.2950  209.7350  152.2560 O   0  0  0  0  0  1  0  0  0  0  0  0
  1 22  1  0  0  0  0
  2  1  2  0  0  0  0
  3  4  1  0  0  0  0
  3  1  1  0  0  0  0
  5  7  2  0  0  0  0
  5  4  1  0  0  0  0
  6  5  2  0  0  0  0
  8  5  1  0  0  0  0
  8 11  1  0  0  0  0
 10 11  1  0  0  0  0
 10 12  1  0  0  0  0
 11  9  2  0  0  0  0
 12 14  1  0  0  0  0
 14 16  2  0  0  0  0
 15 18  1  0  0  0  0
 16 13  1  0  0  0  0
 17 15  2  0  0  0  0
 17 14  1  0  0  0  0
 18 13  2  0  0  0  0
 19 17  1  0  0  0  0
 20 21  1  0  0  0  0
 21 19  1  0  0  0  0
 22 23  1  0  0  0  0
 23 25  1  0  0  0  0
 25 24  2  0  0  0  0
 25 26  1  0  0  0  0
 26 30  1  0  0  0  0
 28 39  1  6  0  0  0
 28 32  1  0  0  0  0
 29 38  1  0  0  0  0
 29 34  1  0  0  0  0
 29 36  1  1  0  0  0
 30 27  2  1  0  0  0
 30 33  1  0  0  0  0
 31 35  1  6  0  0  0
 31 28  1  0  0  0  0
 31 30  1  0  0  0  0
 32 29  1  0  0  0  0
 33 34  1  0  0  0  0
 37 38  1  0  0  0  0
 40 39  1  0  0  0  0
M  END
>  <MODEL>
5

>  <REMARK>
 VINA RESULT:      -6.0      3.207      5.697
  Name = 
  15 active torsions:
  status: ('A' for Active; 'I' for Inactive)
    1  A    between atoms: C_1  and  S_6
    2  A    between atoms: C_1  and  N_39
    3  A    between atoms: S_6  and  C_15
    4  A    between atoms: C_8  and  C_11
    5  A    between atoms: C_8  and  N_24
    6  A    between atoms: C_9  and  C_18
    7  A    between atoms: N_10  and  C_13
    8  A    between atoms: N_10  and  N_25
    9  A    between atoms: C_14  and  C_28
   10  A    between atoms: C_15  and  C_37
   11  A    between atoms: P_16  and  O_34
   12  A    between atoms: C_22  and  C_40
   13  A    between atoms: N_24  and  C_35
   14  A    between atoms: C_26  and  C_40
   15  A    between atoms: O_34  and  C_35
                            x       y       z     vdW  Elec       q    Type
                         _______ _______ _______ _____ _____    ______ ____

>  <TORSDO>
F 15

$$$$
=
 OpenBabel11072410533D

 40 41  0  0  1  0  0  0  0  0999 V2000
  160.9570  209.7990  154.3730 C   0  0  0  0  0  0  0  0  0  0  0  0
  161.4840  209.1110  155.2850 O   0  0  0  0  0  0  0  0  0  0  0  0
  159.9070  210.7100  154.7010 N   0  0  0  0  0  2  0  0  0  0  0  0
  159.2050  211.4930  153.7010 C   0  0  0  0  0  2  0  0  0  0  0  0
  157.9680  212.5120  154.4810 S   0  0  0  0  0  0  0  0  0  0  0  0
  156.6110  211.9030  154.2700 O   0  0  0  0  0  0  0  0  0  0  0  0
  158.2540  212.5730  155.9540 O   0  0  0  0  0  0  0  0  0  0  0  0
  158.0100  214.1700  153.8220 C   0  0  0  0  0  2  0  0  0  0  0  0
  156.6940  214.0940  151.8410 O   0  0  0  0  0  0  0  0  0  0  0  0
  159.0030  214.3200  151.5070 N   0  0  0  0  0  2  0  0  0  0  0  0
  157.8490  214.1640  152.3420 C   0  0  0  0  0  0  0  0  0  0  0  0
  158.9790  214.2150  150.1020 N   0  0  0  0  0  2  0  0  0  0  0  0
  161.7800  211.8950  149.1970 C   0  0  0  0  0  3  0  0  0  0  0  0
  159.9050  213.4370  149.3280 C   0  0  0  0  0  0  0  0  0  0  0  0
  160.8440  212.8270  147.1710 C   0  0  0  0  0  3  0  0  0  0  0  0
  160.8570  212.6180  149.9560 C   0  0  0  0  0  3  0  0  0  0  0  0
  159.9130  213.5530  147.9230 C   0  0  0  0  0  0  0  0  0  0  0  0
  161.7710  211.9950  147.8040 C   0  0  0  0  0  3  0  0  0  0  0  0
  158.9550  214.4520  147.2140 C   0  0  0  0  0  2  0  0  0  0  0  0
  157.3010  213.7050  145.5320 C   0  0  0  0  0  1  0  0  0  0  0  0
  158.7640  213.9870  145.7820 C   0  0  0  0  0  2  0  0  0  0  0  0
  161.4520  209.6640  152.9680 C   0  0  0  0  0  2  0  0  0  0  0  0
  160.8150  208.5350  152.3040 N   0  0  0  0  0  2  0  0  0  0  0  0
  161.1930  206.1660  153.4960 S   0  0  0  0  0  0  0  0  0  0  0  0
  161.3550  207.2060  152.2430 C   0  0  0  0  0  0  0  0  0  0  0  0
  162.0090  206.7590  151.0930 O   0  0  0  0  0  0  0  0  0  0  0  0
  159.8100  206.5710  149.6360 O   0  0  0  0  0  0  0  0  0  0  0  0
  160.8320  203.4240  148.8880 C   0  0  1  0  0  3  0  0  0  0  0  0
  161.7570  204.3830  147.0060 C   0  0  2  0  0  0  0  0  0  0  0  0
  161.1830  205.9610  149.8140 P   0  0  2  0  0  0  0  0  0  0  0  0
  161.0110  204.1950  150.1970 C   0  0  2  0  0  3  0  0  0  0  0  0
  161.9970  203.5100  148.0970 O   0  0  0  0  0  0  0  0  0  0  0  0
  162.0770  206.0980  148.3750 O   0  0  0  0  0  0  0  0  0  0  0  0
  161.2720  205.6500  147.4250 O   0  0  0  0  0  0  0  0  0  0  0  0
  162.1510  203.7530  150.8730 O   0  0  0  0  0  1  0  0  0  0  0  0
  160.8180  203.8030  146.1430 O   0  0  0  0  0  1  0  0  0  0  0  0
  162.9160  205.5060  145.2230 O   0  0  0  0  0  1  0  0  0  0  0  0
  163.0650  204.5580  146.2370 C   0  0  0  0  0  2  0  0  0  0  0  0
  160.4360  201.9690  149.1170 C   0  0  0  0  0  2  0  0  0  0  0  0
  161.1470  201.1160  148.2700 O   0  0  0  0  0  1  0  0  0  0  0  0
  1  3  1  0  0  0  0
  1  2  2  0  0  0  0
  4  5  1  0  0  0  0
  4  3  1  0  0  0  0
  5  7  2  0  0  0  0
  6  5  2  0  0  0  0
  8  5  1  0  0  0  0
  9 11  2  0  0  0  0
 10 11  1  0  0  0  0
 11  8  1  0  0  0  0
 12 10  1  0  0  0  0
 13 16  1  0  0  0  0
 14 16  2  0  0  0  0
 14 12  1  0  0  0  0
 15 18  1  0  0  0  0
 15 17  2  0  0  0  0
 17 14  1  0  0  0  0
 18 13  2  0  0  0  0
 19 17  1  0  0  0  0
 20 21  1  0  0  0  0
 21 19  1  0  0  0  0
 22  1  1  0  0  0  0
 23 22  1  0  0  0  0
 25 23  1  0  0  0  0
 25 24  2  0  0  0  0
 26 25  1  0  0  0  0
 28 39  1  1  0  0  0
 28 31  1  0  0  0  0
 29 36  1  6  0  0  0
 29 34  1  0  0  0  0
 29 32  1  0  0  0  0
 30 27  2  6  0  0  0
 30 31  1  0  0  0  0
 30 26  1  0  0  0  0
 31 35  1  6  0  0  0
 32 28  1  0  0  0  0
 33 30  1  0  0  0  0
 34 33  1  0  0  0  0
 37 38  1  0  0  0  0
 38 29  1  0  0  0  0
 40 39  1  0  0  0  0
M  END
>  <MODEL>
6

>  <REMARK>
 VINA RESULT:      -5.8      3.866      9.376
  Name = 
  15 active torsions:
  status: ('A' for Active; 'I' for Inactive)
    1  A    between atoms: C_1  and  S_6
    2  A    between atoms: C_1  and  N_39
    3  A    between atoms: S_6  and  C_15
    4  A    between atoms: C_8  and  C_11
    5  A    between atoms: C_8  and  N_24
    6  A    between atoms: C_9  and  C_18
    7  A    between atoms: N_10  and  C_13
    8  A    between atoms: N_10  and  N_25
    9  A    between atoms: C_14  and  C_28
   10  A    between atoms: C_15  and  C_37
   11  A    between atoms: P_16  and  O_34
   12  A    between atoms: C_22  and  C_40
   13  A    between atoms: N_24  and  C_35
   14  A    between atoms: C_26  and  C_40
   15  A    between atoms: O_34  and  C_35
                            x       y       z     vdW  Elec       q    Type
                         _______ _______ _______ _____ _____    ______ ____

>  <TORSDO>
F 15

$$$$
=
 OpenBabel11072410533D

 40 41  0  0  1  0  0  0  0  0999 V2000
  158.2080  213.6270  149.8950 C   0  0  0  0  0  0  0  0  0  0  0  0
  157.0870  213.0880  149.7100 O   0  0  0  0  0  0  0  0  0  0  0  0
  159.2360  213.4570  148.9180 N   0  0  0  0  0  2  0  0  0  0  0  0
  160.5750  213.9930  149.0840 C   0  0  0  0  0  2  0  0  0  0  0  0
  161.6160  213.4670  147.7380 S   0  0  0  0  0  0  0  0  0  0  0  0
  161.4580  214.4130  146.5820 O   0  0  0  0  0  0  0  0  0  0  0  0
  163.0450  213.4900  148.1980 O   0  0  0  0  0  0  0  0  0  0  0  0
  161.2050  211.8040  147.2360 C   0  0  0  0  0  2  0  0  0  0  0  0
  162.9570  211.1290  148.6960 O   0  0  0  0  0  0  0  0  0  0  0  0
  161.3440  209.4920  148.2370 N   0  0  0  0  0  2  0  0  0  0  0  0
  161.9100  210.7990  148.0770 C   0  0  0  0  0  0  0  0  0  0  0  0
  161.9820  208.4340  148.9140 N   0  0  0  0  0  2  0  0  0  0  0  0
  162.0950  205.3170  146.8360 C   0  0  0  0  0  3  0  0  0  0  0  0
  161.9020  207.0540  148.5270 C   0  0  0  0  0  0  0  0  0  0  0  0
  161.3160  204.7560  149.0570 C   0  0  0  0  0  3  0  0  0  0  0  0
  162.2120  206.6560  147.2160 C   0  0  0  0  0  3  0  0  0  0  0  0
  161.4340  206.0950  149.4470 C   0  0  0  0  0  0  0  0  0  0  0  0
  161.6510  204.3650  147.7570 C   0  0  0  0  0  3  0  0  0  0  0  0
  161.0420  206.4790  150.8350 C   0  0  0  0  0  2  0  0  0  0  0  0
  161.3410  205.6500  153.1480 C   0  0  0  0  0  1  0  0  0  0  0  0
  161.0090  205.2530  151.7280 C   0  0  0  0  0  2  0  0  0  0  0  0
  158.4360  214.4520  151.1220 C   0  0  0  0  0  2  0  0  0  0  0  0
  158.6770  213.5980  152.2770 N   0  0  0  0  0  2  0  0  0  0  0  0
  156.4160  214.2500  153.5580 S   0  0  0  0  0  0  0  0  0  0  0  0
  157.6990  213.2730  153.2770 C   0  0  0  0  0  0  0  0  0  0  0  0
  157.8060  212.0940  154.0170 O   0  0  0  0  0  0  0  0  0  0  0  0
  160.0990  212.6630  155.2060 O   0  0  0  0  0  0  0  0  0  0  0  0
  161.2640  209.7730  153.8660 C   0  0  1  0  0  3  0  0  0  0  0  0
  160.6800  208.8300  155.8880 C   0  0  2  0  0  0  0  0  0  0  0  0
  159.3100  211.5150  154.6160 P   0  0  2  0  0  0  0  0  0  0  0  0
  160.2630  210.7610  153.2670 C   0  0  2  0  0  3  0  0  0  0  0  0
  160.5930  208.6950  154.4790 O   0  0  0  0  0  0  0  0  0  0  0  0
  159.0410  210.3210  155.7940 O   0  0  0  0  0  0  0  0  0  0  0  0
  160.2270  210.0980  156.3370 O   0  0  0  0  0  0  0  0  0  0  0  0
  159.3930  210.1070  152.3930 O   0  0  0  0  0  1  0  0  0  0  0  0
  162.0110  208.6560  156.2900 O   0  0  0  0  0  1  0  0  0  0  0  0
  160.6570  206.8390  157.2360 O   0  0  0  0  0  1  0  0  0  0  0  0
  159.8430  207.7240  156.5270 C   0  0  0  0  0  2  0  0  0  0  0  0
  162.2750  209.2710  152.8390 C   0  0  0  0  0  2  0  0  0  0  0  0
  162.7460  210.3190  152.0450 O   0  0  0  0  0  1  0  0  0  0  0  0
  1 22  1  0  0  0  0
  2  1  2  0  0  0  0
  3  4  1  0  0  0  0
  3  1  1  0  0  0  0
  5  7  2  0  0  0  0
  5  4  1  0  0  0  0
  6  5  2  0  0  0  0
  8  5  1  0  0  0  0
  8 11  1  0  0  0  0
 10 12  1  0  0  0  0
 11 10  1  0  0  0  0
 11  9  2  0  0  0  0
 13 16  2  0  0  0  0
 13 18  1  0  0  0  0
 14 12  1  0  0  0  0
 14 17  2  0  0  0  0
 15 17  1  0  0  0  0
 16 14  1  0  0  0  0
 17 19  1  0  0  0  0
 18 15  2  0  0  0  0
 19 21  1  0  0  0  0
 21 20  1  0  0  0  0
 22 23  1  0  0  0  0
 23 25  1  0  0  0  0
 25 24  2  0  0  0  0
 25 26  1  0  0  0  0
 26 30  1  0  0  0  0
 28 39  1  6  0  0  0
 28 32  1  0  0  0  0
 29 36  1  1  0  0  0
 29 34  1  0  0  0  0
 29 38  1  0  0  0  0
 30 27  2  1  0  0  0
 30 33  1  0  0  0  0
 31 35  1  6  0  0  0
 31 28  1  0  0  0  0
 31 30  1  0  0  0  0
 32 29  1  0  0  0  0
 33 34  1  0  0  0  0
 38 37  1  0  0  0  0
 40 39  1  0  0  0  0
M  END
>  <MODEL>
7

>  <REMARK>
 VINA RESULT:      -5.6      3.169      6.028
  Name = 
  15 active torsions:
  status: ('A' for Active; 'I' for Inactive)
    1  A    between atoms: C_1  and  S_6
    2  A    between atoms: C_1  and  N_39
    3  A    between atoms: S_6  and  C_15
    4  A    between atoms: C_8  and  C_11
    5  A    between atoms: C_8  and  N_24
    6  A    between atoms: C_9  and  C_18
    7  A    between atoms: N_10  and  C_13
    8  A    between atoms: N_10  and  N_25
    9  A    between atoms: C_14  and  C_28
   10  A    between atoms: C_15  and  C_37
   11  A    between atoms: P_16  and  O_34
   12  A    between atoms: C_22  and  C_40
   13  A    between atoms: N_24  and  C_35
   14  A    between atoms: C_26  and  C_40
   15  A    between atoms: O_34  and  C_35
                            x       y       z     vdW  Elec       q    Type
                         _______ _______ _______ _____ _____    ______ ____

>  <TORSDO>
F 15

$$$$
=
 OpenBabel11072410533D

 40 41  0  0  1  0  0  0  0  0999 V2000
  160.7200  210.6110  153.3500 C   0  0  0  0  0  0  0  0  0  0  0  0
  161.8520  210.6290  153.8970 O   0  0  0  0  0  0  0  0  0  0  0  0
  159.9550  211.8160  153.2840 N   0  0  0  0  0  2  0  0  0  0  0  0
  158.6160  211.8680  152.7270 C   0  0  0  0  0  2  0  0  0  0  0  0
  157.9490  213.5110  152.8930 S   0  0  0  0  0  0  0  0  0  0  0  0
  156.4820  213.4270  153.2060 O   0  0  0  0  0  0  0  0  0  0  0  0
  158.6510  214.2040  154.0260 O   0  0  0  0  0  0  0  0  0  0  0  0
  158.2080  214.4520  151.3990 C   0  0  0  0  0  2  0  0  0  0  0  0
  156.6500  213.1580  150.1520 O   0  0  0  0  0  0  0  0  0  0  0  0
  158.6840  213.5940  149.0740 N   0  0  0  0  0  2  0  0  0  0  0  0
  157.7980  213.6750  150.1970 C   0  0  0  0  0  0  0  0  0  0  0  0
  158.4460  212.7950  147.9380 N   0  0  0  0  0  2  0  0  0  0  0  0
  157.7640  214.2550  144.5550 C   0  0  0  0  0  3  0  0  0  0  0  0
  158.6300  213.2310  146.5830 C   0  0  0  0  0  0  0  0  0  0  0  0
  160.0020  213.3360  144.5790 C   0  0  0  0  0  3  0  0  0  0  0  0
  157.5910  213.8690  145.8860 C   0  0  0  0  0  3  0  0  0  0  0  0
  159.8380  212.9490  145.9150 C   0  0  0  0  0  0  0  0  0  0  0  0
  158.9710  213.9930  143.9010 C   0  0  0  0  0  3  0  0  0  0  0  0
  160.9520  212.2260  146.5980 C   0  0  0  0  0  2  0  0  0  0  0  0
  162.9310  212.5030  148.0570 C   0  0  0  0  0  1  0  0  0  0  0  0
  161.9630  213.2170  147.1420 C   0  0  0  0  0  2  0  0  0  0  0  0
  160.2030  209.3350  152.7650 C   0  0  0  0  0  2  0  0  0  0  0  0
  161.2910  208.3940  152.5390 N   0  0  0  0  0  2  0  0  0  0  0  0
  162.2530  209.2600  150.1930 S   0  0  0  0  0  0  0  0  0  0  0  0
  161.8540  208.0810  151.2550 C   0  0  0  0  0  0  0  0  0  0  0  0
  162.1000  206.7550  150.8940 O   0  0  0  0  0  0  0  0  0  0  0  0
  159.8770  206.6120  149.4700 O   0  0  0  0  0  0  0  0  0  0  0  0
  160.7980  203.4280  148.7480 C   0  0  1  0  0  3  0  0  0  0  0  0
  161.7230  204.3380  146.8410 C   0  0  2  0  0  0  0  0  0  0  0  0
  161.2340  205.9650  149.6360 P   0  0  2  0  0  0  0  0  0  0  0  0
  161.0170  204.2100  150.0440 C   0  0  2  0  0  3  0  0  0  0  0  0
  161.9540  203.4710  147.9400 O   0  0  0  0  0  0  0  0  0  0  0  0
  162.1110  206.0600  148.1840 O   0  0  0  0  0  0  0  0  0  0  0  0
  161.2800  205.6220  147.2510 O   0  0  0  0  0  0  0  0  0  0  0  0
  162.1540  203.7440  150.7090 O   0  0  0  0  0  1  0  0  0  0  0  0
  160.7570  203.7730  145.9980 O   0  0  0  0  0  1  0  0  0  0  0  0
  162.9230  205.4790  145.0980 O   0  0  0  0  0  1  0  0  0  0  0  0
  163.0240  204.4660  146.0520 C   0  0  0  0  0  2  0  0  0  0  0  0
  160.3650  201.9880  149.0010 C   0  0  0  0  0  2  0  0  0  0  0  0
  160.7670  201.1520  147.9570 O   0  0  0  0  0  1  0  0  0  0  0  0
  1  2  2  0  0  0  0
  3  1  1  0  0  0  0
  4  5  1  0  0  0  0
  4  3  1  0  0  0  0
  5  6  2  0  0  0  0
  5  7  2  0  0  0  0
  8  5  1  0  0  0  0
  9 11  2  0  0  0  0
 10 11  1  0  0  0  0
 11  8  1  0  0  0  0
 12 10  1  0  0  0  0
 13 16  1  0  0  0  0
 14 12  1  0  0  0  0
 15 17  2  0  0  0  0
 16 14  2  0  0  0  0
 17 14  1  0  0  0  0
 17 19  1  0  0  0  0
 18 13  2  0  0  0  0
 18 15  1  0  0  0  0
 19 21  1  0  0  0  0
 21 20  1  0  0  0  0
 22  1  1  0  0  0  0
 23 22  1  0  0  0  0
 24 25  2  0  0  0  0
 25 23  1  0  0  0  0
 26 25  1  0  0  0  0
 28 39  1  1  0  0  0
 28 31  1  0  0  0  0
 29 36  1  6  0  0  0
 29 34  1  0  0  0  0
 29 32  1  0  0  0  0
 30 27  2  6  0  0  0
 30 31  1  0  0  0  0
 30 26  1  0  0  0  0
 31 35  1  6  0  0  0
 32 28  1  0  0  0  0
 33 30  1  0  0  0  0
 34 33  1  0  0  0  0
 37 38  1  0  0  0  0
 38 29  1  0  0  0  0
 40 39  1  0  0  0  0
M  END
>  <MODEL>
8

>  <REMARK>
 VINA RESULT:      -5.4      4.318      9.600
  Name = 
  15 active torsions:
  status: ('A' for Active; 'I' for Inactive)
    1  A    between atoms: C_1  and  S_6
    2  A    between atoms: C_1  and  N_39
    3  A    between atoms: S_6  and  C_15
    4  A    between atoms: C_8  and  C_11
    5  A    between atoms: C_8  and  N_24
    6  A    between atoms: C_9  and  C_18
    7  A    between atoms: N_10  and  C_13
    8  A    between atoms: N_10  and  N_25
    9  A    between atoms: C_14  and  C_28
   10  A    between atoms: C_15  and  C_37
   11  A    between atoms: P_16  and  O_34
   12  A    between atoms: C_22  and  C_40
   13  A    between atoms: N_24  and  C_35
   14  A    between atoms: C_26  and  C_40
   15  A    between atoms: O_34  and  C_35
                            x       y       z     vdW  Elec       q    Type
                         _______ _______ _______ _____ _____    ______ ____

>  <TORSDO>
F 15

$$$$
=
 OpenBabel11072410533D

 40 41  0  0  1  0  0  0  0  0999 V2000
  161.8510  206.8590  152.4000 C   0  0  0  0  0  0  0  0  0  0  0  0
  161.8400  208.0390  151.9630 O   0  0  0  0  0  0  0  0  0  0  0  0
  162.3410  205.8080  151.5660 N   0  0  0  0  0  2  0  0  0  0  0  0
  162.3300  204.4140  151.9690 C   0  0  0  0  0  2  0  0  0  0  0  0
  160.7470  203.6840  151.6030 S   0  0  0  0  0  0  0  0  0  0  0  0
  159.8960  203.6850  152.8410 O   0  0  0  0  0  0  0  0  0  0  0  0
  160.0710  204.5070  150.5440 O   0  0  0  0  0  0  0  0  0  0  0  0
  160.9470  202.0190  150.9910 C   0  0  0  0  0  2  0  0  0  0  0  0
  160.8640  201.0090  148.8390 O   0  0  0  0  0  0  0  0  0  0  0  0
  161.7410  203.1810  148.8970 N   0  0  0  0  0  2  0  0  0  0  0  0
  161.1980  202.0130  149.5240 C   0  0  0  0  0  0  0  0  0  0  0  0
  162.1230  203.2430  147.5420 N   0  0  0  0  0  2  0  0  0  0  0  0
  160.6470  204.4730  144.3250 C   0  0  0  0  0  3  0  0  0  0  0  0
  161.5190  204.1030  146.5640 C   0  0  0  0  0  0  0  0  0  0  0  0
  160.7660  206.3130  145.8910 C   0  0  0  0  0  3  0  0  0  0  0  0
  161.1980  203.6210  145.2840 C   0  0  0  0  0  3  0  0  0  0  0  0
  161.3160  205.4650  146.8590 C   0  0  0  0  0  0  0  0  0  0  0  0
  160.4260  205.8190  144.6280 C   0  0  0  0  0  3  0  0  0  0  0  0
  161.6910  206.0350  148.1880 C   0  0  0  0  0  2  0  0  0  0  0  0
  162.3610  208.3670  148.6740 C   0  0  0  0  0  1  0  0  0  0  0  0
  161.2060  207.4680  148.2980 C   0  0  0  0  0  2  0  0  0  0  0  0
  161.3680  206.5820  153.7880 C   0  0  0  0  0  2  0  0  0  0  0  0
  160.3610  207.5560  154.1870 N   0  0  0  0  0  2  0  0  0  0  0  0
  161.6860  208.2680  156.4050 S   0  0  0  0  0  0  0  0  0  0  0  0
  160.3900  208.3170  155.4050 C   0  0  0  0  0  0  0  0  0  0  0  0
  159.3190  209.1430  155.7500 O   0  0  0  0  0  0  0  0  0  0  0  0
  160.3450  211.5090  156.3370 O   0  0  0  0  0  0  0  0  0  0  0  0
  157.5230  212.8260  154.9940 C   0  0  1  0  0  3  0  0  0  0  0  0
  158.7600  212.9940  153.0550 C   0  0  2  0  0  0  0  0  0  0  0  0
  159.3240  210.8350  155.4470 P   0  0  2  0  0  0  0  0  0  0  0  0
  157.6810  211.5280  155.7860 C   0  0  2  0  0  3  0  0  0  0  0  0
  157.5260  212.5670  153.6080 O   0  0  0  0  0  0  0  0  0  0  0  0
  159.6870  211.1270  153.8130 O   0  0  0  0  0  0  0  0  0  0  0  0
  159.8760  212.4350  153.7310 O   0  0  0  0  0  0  0  0  0  0  0  0
  156.7020  210.6050  155.4120 O   0  0  0  0  0  1  0  0  0  0  0  0
  158.8420  214.3910  153.1260 O   0  0  0  0  0  1  0  0  0  0  0  0
  160.0380  212.8680  151.0220 O   0  0  0  0  0  1  0  0  0  0  0  0
  158.7900  212.5910  151.5820 C   0  0  0  0  0  2  0  0  0  0  0  0
  156.2780  213.6090  155.3990 C   0  0  0  0  0  2  0  0  0  0  0  0
  155.2430  213.4170  154.4800 O   0  0  0  0  0  1  0  0  0  0  0  0
  1 22  1  0  0  0  0
  2  1  2  0  0  0  0
  3  4  1  0  0  0  0
  3  1  1  0  0  0  0
  5  4  1  0  0  0  0
  5  6  2  0  0  0  0
  7  5  2  0  0  0  0
  8  5  1  0  0  0  0
  9 11  2  0  0  0  0
 10 11  1  0  0  0  0
 11  8  1  0  0  0  0
 12 10  1  0  0  0  0
 13 18  2  0  0  0  0
 13 16  1  0  0  0  0
 14 17  1  0  0  0  0
 14 12  1  0  0  0  0
 15 17  2  0  0  0  0
 16 14  2  0  0  0  0
 17 19  1  0  0  0  0
 18 15  1  0  0  0  0
 19 21  1  0  0  0  0
 21 20  1  0  0  0  0
 22 23  1  0  0  0  0
 23 25  1  0  0  0  0
 25 26  1  0  0  0  0
 25 24  2  0  0  0  0
 28 39  1  1  0  0  0
 28 31  1  0  0  0  0
 29 36  1  1  0  0  0
 29 32  1  0  0  0  0
 29 34  1  0  0  0  0
 30 26  1  0  0  0  0
 30 31  1  0  0  0  0
 30 27  2  1  0  0  0
 31 35  1  6  0  0  0
 32 28  1  0  0  0  0
 33 30  1  0  0  0  0
 34 33  1  0  0  0  0
 37 38  1  0  0  0  0
 38 29  1  0  0  0  0
 40 39  1  0  0  0  0
M  END
>  <MODEL>
9

>  <REMARK>
 VINA RESULT:      -5.2      1.896      3.663
  Name = 
  15 active torsions:
  status: ('A' for Active; 'I' for Inactive)
    1  A    between atoms: C_1  and  S_6
    2  A    between atoms: C_1  and  N_39
    3  A    between atoms: S_6  and  C_15
    4  A    between atoms: C_8  and  C_11
    5  A    between atoms: C_8  and  N_24
    6  A    between atoms: C_9  and  C_18
    7  A    between atoms: N_10  and  C_13
    8  A    between atoms: N_10  and  N_25
    9  A    between atoms: C_14  and  C_28
   10  A    between atoms: C_15  and  C_37
   11  A    between atoms: P_16  and  O_34
   12  A    between atoms: C_22  and  C_40
   13  A    between atoms: N_24  and  C_35
   14  A    between atoms: C_26  and  C_40
   15  A    between atoms: O_34  and  C_35
                            x       y       z     vdW  Elec       q    Type
                         _______ _______ _______ _____ _____    ______ ____

>  <TORSDO>
F 15

$$$$
