=
 OpenBabel11072411333D

 52 54  0  0  1  0  0  0  0  0999 V2000
  161.9840  209.8550  149.4010 O   0  0  0  0  0  0  0  0  0  0  0  0
  161.6360  208.8750  150.2010 C   0  0  0  0  0  0  0  0  0  0  0  0
  161.6770  211.0010  149.9600 C   0  0  0  0  0  3  0  0  0  0  0  0
  161.0710  209.3620  151.3630 C   0  0  0  0  0  3  0  0  0  0  0  0
  161.1080  210.7330  151.1940 C   0  0  0  0  0  0  0  0  0  0  0  0
  159.9340  212.4160  154.4230 C   0  0  1  0  0  3  0  0  0  0  0  0
  160.6040  211.7300  152.1550 C   0  0  0  0  0  0  0  0  0  0  0  0
  160.4330  212.2010  155.7080 O   0  0  0  0  0  1  0  0  0  0  0  0
  160.5450  211.4440  153.4600 C   0  0  0  0  0  3  0  0  0  0  0  0
  160.1050  213.3720  151.5760 S   0  0  0  0  0  0  0  0  0  0  0  0
  157.8680  212.2010  152.9180 C   0  0  0  0  0  2  0  0  0  0  0  0
  158.2930  213.2690  151.9090 C   0  0  2  0  0  3  0  0  0  0  0  0
  158.3770  212.4300  154.3670 C   0  0  1  0  0  3  0  0  0  0  0  0
  156.5310  210.9250  154.7970 C   0  0  0  0  0  1  0  0  0  0  0  0
  157.7860  211.4630  155.3170 N   0  0  0  0  0  0  0  0  0  0  0  0
  157.3990  212.1970  156.5170 C   0  0  0  0  0  2  0  0  0  0  0  0
  155.9460  211.9080  156.8550 C   0  0  0  0  0  1  0  0  0  0  0  0
  157.5470  213.0310  150.6100 C   0  0  0  0  0  2  0  0  0  0  0  0
  158.3230  213.5900  149.4260 C   0  0  0  0  0  2  0  0  0  0  0  0
  157.6510  213.1760  148.1310 C   0  0  0  0  0  2  0  0  0  0  0  0
  158.4110  213.7300  146.9420 C   0  0  0  0  0  2  0  0  0  0  0  0
  159.4130  212.6960  146.4490 C   0  0  0  0  0  2  0  0  0  0  0  0
  159.1660  212.3880  144.9800 C   0  0  0  0  0  2  0  0  0  0  0  0
  160.4420  212.6390  144.1940 C   0  0  0  0  0  2  0  0  0  0  0  0
  160.1750  212.6030  142.7220 C   0  0  0  0  0  3  0  0  0  0  0  0
  160.5060  211.5320  142.0010 C   0  0  0  0  0  2  0  0  0  0  0  0
  161.8520  207.4280  149.9040 C   0  0  2  0  0  3  0  0  0  0  0  0
  160.7250  206.8920  149.2610 O   0  0  0  0  0  0  0  0  0  0  0  0
  161.0350  206.8790  147.8950 C   0  0  1  0  0  3  0  0  0  0  0  0
  163.3230  207.3180  148.3930 F   0  0  0  0  0  0  0  0  0  0  0  0
  162.6910  205.1720  148.1300 F   0  0  0  0  0  0  0  0  0  0  0  0
  162.4940  206.4670  147.6880 C   0  0  0  0  0  0  0  0  0  0  0  0
  162.8230  206.5460  146.3470 F   0  0  0  0  0  0  0  0  0  0  0  0
  160.1020  205.9140  147.1660 C   0  0  0  0  0  2  0  0  0  0  0  0
  161.3320  203.4940  146.1940 O   0  0  0  0  0  1  0  0  0  0  0  0
  160.5260  205.7290  145.7450 C   0  0  0  0  0  0  0  0  0  0  0  0
  160.3320  206.6800  144.8930 N   0  0  0  0  0  2  0  0  0  0  0  0
  161.1350  204.5090  145.3210 N   0  0  0  0  0  2  0  0  0  0  0  0
  162.2230  206.6530  151.1800 C   0  0  0  0  0  2  0  0  0  0  0  0
  161.2870  205.4840  151.5110 C   0  0  1  0  0  3  0  0  0  0  0  0
  160.8710  203.7260  149.7400 C   0  0  0  0  0  2  0  0  0  0  0  0
  161.6800  203.0440  151.9030 C   0  0  0  0  0  2  0  0  0  0  0  0
  160.9690  201.9200  151.1880 C   0  0  0  0  0  2  0  0  0  0  0  0
  161.7670  204.1620  150.8900 C   0  0  2  0  0  3  0  0  0  0  0  0
  160.2100  201.6110  149.0030 C   0  0  0  0  0  1  0  0  0  0  0  0
  160.1650  202.5160  150.1360 N   0  0  0  0  0  0  0  0  0  0  0  0
  161.0530  205.3640  153.0210 C   0  0  0  0  0  2  0  0  0  0  0  0
  160.5640  206.6660  153.6440 C   0  0  0  0  0  2  0  0  0  0  0  0
  161.4370  207.0430  154.8280 C   0  0  0  0  0  2  0  0  0  0  0  0
  161.3120  208.5240  155.1360 C   0  0  0  0  0  2  0  0  0  0  0  0
  161.1560  208.7150  156.6300 C   0  0  0  0  0  2  0  0  0  0  0  0
  159.8730  209.1890  156.9030 O   0  0  0  0  0  1  0  0  0  0  0  0
  1  3  1  0  0  0  0
  1  2  1  0  0  0  0
  2  4  2  0  0  0  0
  3  5  2  0  0  0  0
  5  4  1  0  0  0  0
  5  7  1  0  0  0  0
  6  8  1  1  0  0  0
  7  9  2  0  0  0  0
  9  6  1  0  0  0  0
 10 12  1  0  0  0  0
 10  7  1  0  0  0  0
 11 13  1  0  0  0  0
 12 18  1  6  0  0  0
 12 11  1  0  0  0  0
 13  6  1  0  0  0  0
 13 15  1  1  0  0  0
 14 15  1  0  0  0  0
 15 16  1  0  0  0  0
 16 17  1  0  0  0  0
 19 18  1  0  0  0  0
 20 19  1  0  0  0  0
 21 20  1  0  0  0  0
 22 21  1  0  0  0  0
 23 22  1  0  0  0  0
 24 23  1  0  0  0  0
 25 24  1  0  0  0  0
 26 25  2  0  0  0  0
 27  2  1  0  0  0  0
 27 39  1  1  0  0  0
 28 27  1  0  0  0  0
 29 34  1  6  0  0  0
 29 28  1  0  0  0  0
 32 29  1  0  0  0  0
 32 31  1  0  0  0  0
 32 30  1  0  0  0  0
 33 32  1  0  0  0  0
 36 34  1  0  0  0  0
 37 36  2  0  0  0  0
 38 36  1  0  0  0  0
 38 35  1  0  0  0  0
 40 39  1  1  0  0  0
 40 47  1  0  0  0  0
 41 46  1  0  0  0  0
 41 44  1  0  0  0  0
 43 42  1  0  0  0  0
 44 40  1  1  0  0  0
 44 42  1  0  0  0  0
 45 46  1  0  0  0  0
 46 43  1  0  0  0  0
 47 48  1  0  0  0  0
 48 49  1  0  0  0  0
 49 50  1  0  0  0  0
 50 51  1  0  0  0  0
 51 52  1  0  0  0  0
M  END
>  <MODEL>
1

>  <REMARK>
 VINA RESULT:      -5.2      0.000      0.000
  Name = 
  25 active torsions:
  status: ('A' for Active; 'I' for Inactive)
    1  A    between atoms: O_1  and  C_23
    2  A    between atoms: O_1  and  C_33
    3  A    between atoms: C_3  and  C_7
    4  A    between atoms: C_3  and  C_19
    5  A    between atoms: C_7  and  C_46
    6  A    between atoms: C_11  and  C_35
    7  A    between atoms: C_13  and  N_14
    8  A    between atoms: N_14  and  C_50
    9  A    between atoms: C_15  and  C_23
   10  A    between atoms: C_17  and  C_52
   11  A    between atoms: C_18  and  C_25
   12  A    between atoms: C_19  and  C_52
   13  A    between atoms: C_20  and  C_49
   14  A    between atoms: C_23  and  C_30
   15  A    between atoms: C_25  and  C_33
   16  A    between atoms: C_28  and  C_36
   17  A    between atoms: C_28  and  C_40
   18  A    between atoms: C_30  and  C_46
   19  A    between atoms: C_31  and  C_46
   20  A    between atoms: C_33  and  C_38
   21  A    between atoms: C_35  and  C_47
   22  A    between atoms: C_36  and  C_51
   23  A    between atoms: C_40  and  C_48
   24  A    between atoms: C_44  and  C_48
   25  A    between atoms: C_47  and  C_51
                            x       y       z     vdW  Elec       q    Type
                         _______ _______ _______ _____ _____    ______ ____

>  <TORSDO>
F 25

$$$$
=
 OpenBabel11072411333D

 52 54  0  0  1  0  0  0  0  0999 V2000
  161.1530  206.2470  153.3150 O   0  0  0  0  0  0  0  0  0  0  0  0
  160.9460  206.7280  152.1120 C   0  0  0  0  0  0  0  0  0  0  0  0
  161.1250  207.2280  154.1850 C   0  0  0  0  0  3  0  0  0  0  0  0
  160.7600  208.0950  152.1510 C   0  0  0  0  0  3  0  0  0  0  0  0
  160.8750  208.4020  153.4930 C   0  0  0  0  0  0  0  0  0  0  0  0
  160.0780  211.2980  155.8620 C   0  0  1  0  0  3  0  0  0  0  0  0
  160.7730  209.7510  154.0770 C   0  0  0  0  0  0  0  0  0  0  0  0
  160.0840  211.2640  157.2570 O   0  0  0  0  0  1  0  0  0  0  0  0
  160.2810  209.9200  155.3090 C   0  0  0  0  0  3  0  0  0  0  0  0
  161.3640  211.1870  153.1460 S   0  0  0  0  0  0  0  0  0  0  0  0
  158.6120  211.6300  153.7840 C   0  0  0  0  0  2  0  0  0  0  0  0
  159.7520  212.0340  152.8460 C   0  0  2  0  0  3  0  0  0  0  0  0
  158.8240  212.0110  155.2740 C   0  0  1  0  0  3  0  0  0  0  0  0
  156.4530  211.5310  155.2290 C   0  0  0  0  0  1  0  0  0  0  0  0
  157.6160  211.7510  156.0860 N   0  0  0  0  0  0  0  0  0  0  0  0
  157.3010  212.9730  156.8200 C   0  0  0  0  0  2  0  0  0  0  0  0
  156.1990  213.7380  156.1050 C   0  0  0  0  0  1  0  0  0  0  0  0
  159.3070  211.7970  151.4160 C   0  0  0  0  0  2  0  0  0  0  0  0
  159.2890  213.1010  150.6300 C   0  0  0  0  0  2  0  0  0  0  0  0
  157.8600  213.5830  150.4700 C   0  0  0  0  0  2  0  0  0  0  0  0
  157.7270  214.4340  149.2230 C   0  0  0  0  0  2  0  0  0  0  0  0
  158.1510  213.6270  148.0050 C   0  0  0  0  0  2  0  0  0  0  0  0
  156.9520  212.8910  147.4230 C   0  0  0  0  0  2  0  0  0  0  0  0
  157.2840  212.4300  146.0140 C   0  0  0  0  0  2  0  0  0  0  0  0
  158.7300  212.6580  145.7070 C   0  0  0  0  0  3  0  0  0  0  0  0
  159.1500  212.7240  144.4430 C   0  0  0  0  0  2  0  0  0  0  0  0
  160.8880  205.8980  150.8720 C   0  0  2  0  0  3  0  0  0  0  0  0
  162.0640  205.1430  150.7380 O   0  0  0  0  0  0  0  0  0  0  0  0
  161.6540  203.8060  150.6770 C   0  0  1  0  0  3  0  0  0  0  0  0
  161.5910  201.9600  152.1810 F   0  0  0  0  0  0  0  0  0  0  0  0
  161.9810  204.0060  153.0360 F   0  0  0  0  0  0  0  0  0  0  0  0
  161.2820  203.3020  152.0730 C   0  0  0  0  0  0  0  0  0  0  0  0
  159.9250  203.4580  152.2890 F   0  0  0  0  0  0  0  0  0  0  0  0
  160.4600  203.6780  149.7320 C   0  0  0  0  0  2  0  0  0  0  0  0
  158.8200  201.3250  150.0250 O   0  0  0  0  0  1  0  0  0  0  0  0
  160.5970  202.4750  148.8560 C   0  0  0  0  0  0  0  0  0  0  0  0
  161.4760  202.4710  147.9100 N   0  0  0  0  0  2  0  0  0  0  0  0
  159.7590  201.3350  149.0500 N   0  0  0  0  0  2  0  0  0  0  0  0
  160.6090  206.7730  149.6370 C   0  0  0  0  0  2  0  0  0  0  0  0
  161.6890  206.7040  148.5510 C   0  0  1  0  0  3  0  0  0  0  0  0
  162.5860  205.0200  146.8900 C   0  0  0  0  0  2  0  0  0  0  0  0
  160.7130  206.3990  146.2660 C   0  0  0  0  0  2  0  0  0  0  0  0
  161.4620  205.8880  145.0590 C   0  0  0  0  0  2  0  0  0  0  0  0
  161.3400  205.6930  147.4460 C   0  0  2  0  0  3  0  0  0  0  0  0
  163.1200  204.2770  144.7410 C   0  0  0  0  0  1  0  0  0  0  0  0
  162.7720  205.4550  145.5140 N   0  0  0  0  0  0  0  0  0  0  0  0
  162.0030  208.0940  147.9850 C   0  0  0  0  0  2  0  0  0  0  0  0
  161.5390  209.2190  148.9030 C   0  0  0  0  0  2  0  0  0  0  0  0
  162.6480  210.2380  149.0870 C   0  0  0  0  0  2  0  0  0  0  0  0
  162.0870  211.6490  149.0730 C   0  0  0  0  0  2  0  0  0  0  0  0
  161.5890  211.9770  147.6800 C   0  0  0  0  0  2  0  0  0  0  0  0
  161.6170  213.3580  147.4940 O   0  0  0  0  0  1  0  0  0  0  0  0
  1  3  1  0  0  0  0
  2  4  2  0  0  0  0
  2  1  1  0  0  0  0
  4  5  1  0  0  0  0
  5  7  1  0  0  0  0
  5  3  2  0  0  0  0
  6  8  1  1  0  0  0
  7  9  2  0  0  0  0
  9  6  1  0  0  0  0
 10  7  1  0  0  0  0
 11 13  1  0  0  0  0
 12 18  1  6  0  0  0
 12 10  1  0  0  0  0
 12 11  1  0  0  0  0
 13  6  1  0  0  0  0
 13 15  1  1  0  0  0
 14 15  1  0  0  0  0
 15 16  1  0  0  0  0
 17 16  1  0  0  0  0
 19 18  1  0  0  0  0
 20 19  1  0  0  0  0
 21 20  1  0  0  0  0
 22 21  1  0  0  0  0
 23 22  1  0  0  0  0
 24 23  1  0  0  0  0
 25 24  1  0  0  0  0
 26 25  2  0  0  0  0
 27 39  1  6  0  0  0
 27  2  1  0  0  0  0
 28 27  1  0  0  0  0
 29 34  1  6  0  0  0
 29 28  1  0  0  0  0
 29 32  1  0  0  0  0
 32 30  1  0  0  0  0
 32 33  1  0  0  0  0
 32 31  1  0  0  0  0
 36 38  1  0  0  0  0
 36 34  1  0  0  0  0
 37 36  2  0  0  0  0
 38 35  1  0  0  0  0
 40 47  1  6  0  0  0
 40 39  1  0  0  0  0
 41 44  1  0  0  0  0
 42 44  1  0  0  0  0
 43 46  1  0  0  0  0
 43 42  1  0  0  0  0
 44 40  1  1  0  0  0
 45 46  1  0  0  0  0
 46 41  1  0  0  0  0
 47 48  1  0  0  0  0
 48 49  1  0  0  0  0
 50 49  1  0  0  0  0
 51 50  1  0  0  0  0
 52 51  1  0  0  0  0
M  END
>  <MODEL>
2

>  <REMARK>
 VINA RESULT:      -5.1      2.232      4.509
  Name = 
  25 active torsions:
  status: ('A' for Active; 'I' for Inactive)
    1  A    between atoms: O_1  and  C_23
    2  A    between atoms: O_1  and  C_33
    3  A    between atoms: C_3  and  C_7
    4  A    between atoms: C_3  and  C_19
    5  A    between atoms: C_7  and  C_46
    6  A    between atoms: C_11  and  C_35
    7  A    between atoms: C_13  and  N_14
    8  A    between atoms: N_14  and  C_50
    9  A    between atoms: C_15  and  C_23
   10  A    between atoms: C_17  and  C_52
   11  A    between atoms: C_18  and  C_25
   12  A    between atoms: C_19  and  C_52
   13  A    between atoms: C_20  and  C_49
   14  A    between atoms: C_23  and  C_30
   15  A    between atoms: C_25  and  C_33
   16  A    between atoms: C_28  and  C_36
   17  A    between atoms: C_28  and  C_40
   18  A    between atoms: C_30  and  C_46
   19  A    between atoms: C_31  and  C_46
   20  A    between atoms: C_33  and  C_38
   21  A    between atoms: C_35  and  C_47
   22  A    between atoms: C_36  and  C_51
   23  A    between atoms: C_40  and  C_48
   24  A    between atoms: C_44  and  C_48
   25  A    between atoms: C_47  and  C_51
                            x       y       z     vdW  Elec       q    Type
                         _______ _______ _______ _____ _____    ______ ____

>  <TORSDO>
F 25

$$$$
=
 OpenBabel11072411333D

 52 54  0  0  1  0  0  0  0  0999 V2000
  159.6980  209.6000  153.8250 O   0  0  0  0  0  0  0  0  0  0  0  0
  159.6080  210.5130  152.8860 C   0  0  0  0  0  0  0  0  0  0  0  0
  160.4490  208.6130  153.3990 C   0  0  0  0  0  3  0  0  0  0  0  0
  160.3310  210.1460  151.7690 C   0  0  0  0  0  3  0  0  0  0  0  0
  160.8700  208.9220  152.1160 C   0  0  0  0  0  0  0  0  0  0  0  0
  162.7340  207.5320  149.0780 C   0  0  1  0  0  3  0  0  0  0  0  0
  161.7220  208.0840  151.2540 C   0  0  0  0  0  0  0  0  0  0  0  0
  163.3080  208.2670  148.0400 O   0  0  0  0  0  1  0  0  0  0  0  0
  161.9560  208.4360  149.9850 C   0  0  0  0  0  3  0  0  0  0  0  0
  162.5030  206.5950  151.9270 S   0  0  0  0  0  0  0  0  0  0  0  0
  160.9240  205.8140  149.6740 C   0  0  0  0  0  2  0  0  0  0  0  0
  161.5920  205.3160  150.9570 C   0  0  2  0  0  3  0  0  0  0  0  0
  161.9040  206.3120  148.5770 C   0  0  1  0  0  3  0  0  0  0  0  0
  159.7660  206.3870  147.4440 C   0  0  0  0  0  1  0  0  0  0  0  0
  161.2040  206.6110  147.3090 N   0  0  0  0  0  0  0  0  0  0  0  0
  161.6350  205.6280  146.3200 C   0  0  0  0  0  2  0  0  0  0  0  0
  160.7590  205.7200  145.0820 C   0  0  0  0  0  1  0  0  0  0  0  0
  160.5360  204.6670  151.8300 C   0  0  0  0  0  2  0  0  0  0  0  0
  160.2680  203.2360  151.3860 C   0  0  0  0  0  2  0  0  0  0  0  0
  161.4920  202.3800  151.6470 C   0  0  0  0  0  2  0  0  0  0  0  0
  161.7920  201.5070  150.4450 C   0  0  0  0  0  2  0  0  0  0  0  0
  161.0340  202.0280  149.2330 C   0  0  0  0  0  2  0  0  0  0  0  0
  161.0630  200.9960  148.1150 C   0  0  0  0  0  2  0  0  0  0  0  0
  160.0670  201.3950  147.0390 C   0  0  0  0  0  2  0  0  0  0  0  0
  160.7750  201.8420  145.7990 C   0  0  0  0  0  3  0  0  0  0  0  0
  160.0840  202.2620  144.7390 C   0  0  0  0  0  2  0  0  0  0  0  0
  158.8490  211.7910  153.0250 C   0  0  2  0  0  3  0  0  0  0  0  0
  158.3920  212.2220  151.7690 O   0  0  0  0  0  0  0  0  0  0  0  0
  158.8310  213.5450  151.6380 C   0  0  1  0  0  3  0  0  0  0  0  0
  159.3150  214.2480  149.4140 F   0  0  0  0  0  0  0  0  0  0  0  0
  160.9540  214.4030  150.9520 F   0  0  0  0  0  0  0  0  0  0  0  0
  159.8760  213.6480  150.5250 C   0  0  0  0  0  0  0  0  0  0  0  0
  160.3150  212.3870  150.1680 F   0  0  0  0  0  0  0  0  0  0  0  0
  157.6400  214.4520  151.3320 C   0  0  0  0  0  2  0  0  0  0  0  0
  154.9850  214.1270  152.4080 O   0  0  0  0  0  1  0  0  0  0  0  0
  156.5600  213.7000  150.6250 C   0  0  0  0  0  0  0  0  0  0  0  0
  156.8010  213.1720  149.4710 N   0  0  0  0  0  2  0  0  0  0  0  0
  155.2630  213.5670  151.2080 N   0  0  0  0  0  2  0  0  0  0  0  0
  159.6950  212.8590  153.7400 C   0  0  0  0  0  2  0  0  0  0  0  0
  159.0900  213.3790  155.0500 C   0  0  1  0  0  3  0  0  0  0  0  0
  156.5980  213.8110  155.1260 C   0  0  0  0  0  2  0  0  0  0  0  0
  157.5880  212.3590  156.7730 C   0  0  0  0  0  2  0  0  0  0  0  0
  156.2860  212.9520  157.2550 C   0  0  0  0  0  2  0  0  0  0  0  0
  157.7000  212.7810  155.3260 C   0  0  2  0  0  3  0  0  0  0  0  0
  154.5620  214.1380  156.2220 C   0  0  0  0  0  1  0  0  0  0  0  0
  155.9990  214.1040  156.4190 N   0  0  0  0  0  0  0  0  0  0  0  0
  160.0500  213.1810  156.2280 C   0  0  0  0  0  2  0  0  0  0  0  0
  160.2430  211.7120  156.5860 C   0  0  0  0  0  2  0  0  0  0  0  0
  161.6670  211.2800  156.2850 C   0  0  0  0  0  2  0  0  0  0  0  0
  162.0450  210.0680  157.1170 C   0  0  0  0  0  2  0  0  0  0  0  0
  160.9850  208.9980  156.9590 C   0  0  0  0  0  2  0  0  0  0  0  0
  161.6000  207.7570  156.8080 O   0  0  0  0  0  1  0  0  0  0  0  0
  2 27  1  0  0  0  0
  2  1  1  0  0  0  0
  3  1  1  0  0  0  0
  4  5  1  0  0  0  0
  4  2  2  0  0  0  0
  5  3  2  0  0  0  0
  6  8  1  6  0  0  0
  6  9  1  0  0  0  0
  7 10  1  0  0  0  0
  7  5  1  0  0  0  0
  9  7  2  0  0  0  0
 11 12  1  0  0  0  0
 12 18  1  1  0  0  0
 12 10  1  0  0  0  0
 13 15  1  6  0  0  0
 13  6  1  0  0  0  0
 13 11  1  0  0  0  0
 15 14  1  0  0  0  0
 16 15  1  0  0  0  0
 17 16  1  0  0  0  0
 19 20  1  0  0  0  0
 19 18  1  0  0  0  0
 21 20  1  0  0  0  0
 22 21  1  0  0  0  0
 23 22  1  0  0  0  0
 24 23  1  0  0  0  0
 25 24  1  0  0  0  0
 26 25  2  0  0  0  0
 27 39  1  6  0  0  0
 28 27  1  0  0  0  0
 29 34  1  6  0  0  0
 29 28  1  0  0  0  0
 30 32  1  0  0  0  0
 32 31  1  0  0  0  0
 32 29  1  0  0  0  0
 33 32  1  0  0  0  0
 36 38  1  0  0  0  0
 36 34  1  0  0  0  0
 37 36  2  0  0  0  0
 38 35  1  0  0  0  0
 40 39  1  6  0  0  0
 40 47  1  0  0  0  0
 41 44  1  0  0  0  0
 41 46  1  0  0  0  0
 42 43  1  0  0  0  0
 44 40  1  1  0  0  0
 44 42  1  0  0  0  0
 45 46  1  0  0  0  0
 46 43  1  0  0  0  0
 47 48  1  0  0  0  0
 49 48  1  0  0  0  0
 49 50  1  0  0  0  0
 51 50  1  0  0  0  0
 52 51  1  0  0  0  0
M  END
>  <MODEL>
3

>  <REMARK>
 VINA RESULT:      -4.6      3.369      9.313
  Name = 
  25 active torsions:
  status: ('A' for Active; 'I' for Inactive)
    1  A    between atoms: O_1  and  C_23
    2  A    between atoms: O_1  and  C_33
    3  A    between atoms: C_3  and  C_7
    4  A    between atoms: C_3  and  C_19
    5  A    between atoms: C_7  and  C_46
    6  A    between atoms: C_11  and  C_35
    7  A    between atoms: C_13  and  N_14
    8  A    between atoms: N_14  and  C_50
    9  A    between atoms: C_15  and  C_23
   10  A    between atoms: C_17  and  C_52
   11  A    between atoms: C_18  and  C_25
   12  A    between atoms: C_19  and  C_52
   13  A    between atoms: C_20  and  C_49
   14  A    between atoms: C_23  and  C_30
   15  A    between atoms: C_25  and  C_33
   16  A    between atoms: C_28  and  C_36
   17  A    between atoms: C_28  and  C_40
   18  A    between atoms: C_30  and  C_46
   19  A    between atoms: C_31  and  C_46
   20  A    between atoms: C_33  and  C_38
   21  A    between atoms: C_35  and  C_47
   22  A    between atoms: C_36  and  C_51
   23  A    between atoms: C_40  and  C_48
   24  A    between atoms: C_44  and  C_48
   25  A    between atoms: C_47  and  C_51
                            x       y       z     vdW  Elec       q    Type
                         _______ _______ _______ _____ _____    ______ ____

>  <TORSDO>
F 25

$$$$
=
 OpenBabel11072411333D

 52 54  0  0  1  0  0  0  0  0999 V2000
  160.7550  207.8440  149.7990 O   0  0  0  0  0  0  0  0  0  0  0  0
  161.8610  208.5250  149.6090 C   0  0  0  0  0  0  0  0  0  0  0  0
  160.6690  206.8970  148.8960 C   0  0  0  0  0  3  0  0  0  0  0  0
  162.5710  208.0250  148.5370 C   0  0  0  0  0  3  0  0  0  0  0  0
  161.7930  206.9750  148.0900 C   0  0  0  0  0  0  0  0  0  0  0  0
  161.7200  205.3560  144.6250 C   0  0  1  0  0  3  0  0  0  0  0  0
  162.0990  206.1080  146.9390 C   0  0  0  0  0  0  0  0  0  0  0  0
  161.4560  205.9900  143.4100 O   0  0  0  0  0  1  0  0  0  0  0  0
  161.4890  206.3010  145.7640 C   0  0  0  0  0  3  0  0  0  0  0  0
  163.3460  204.8030  147.0940 S   0  0  0  0  0  0  0  0  0  0  0  0
  160.8930  203.5780  146.2790 C   0  0  0  0  0  2  0  0  0  0  0  0
  162.2520  203.3250  146.9340 C   0  0  2  0  0  3  0  0  0  0  0  0
  160.9560  204.0080  144.7880 C   0  0  1  0  0  3  0  0  0  0  0  0
  158.7450  204.9850  144.9070 C   0  0  0  0  0  1  0  0  0  0  0  0
  159.6110  204.0640  144.1750 N   0  0  0  0  0  0  0  0  0  0  0  0
  158.9860  202.7570  144.3530 C   0  0  0  0  0  2  0  0  0  0  0  0
  160.0330  201.7320  144.7570 C   0  0  0  0  0  1  0  0  0  0  0  0
  162.0220  202.7080  148.3000 C   0  0  0  0  0  2  0  0  0  0  0  0
  160.6680  203.1180  148.8610 C   0  0  0  0  0  2  0  0  0  0  0  0
  160.0060  201.9270  149.5270 C   0  0  0  0  0  2  0  0  0  0  0  0
  160.9280  201.3270  150.5710 C   0  0  0  0  0  2  0  0  0  0  0  0
  161.6170  202.4410  151.3450 C   0  0  0  0  0  2  0  0  0  0  0  0
  160.6730  203.0090  152.3950 C   0  0  0  0  0  2  0  0  0  0  0  0
  160.9560  204.4910  152.5740 C   0  0  0  0  0  2  0  0  0  0  0  0
  161.9620  204.9640  151.5720 C   0  0  0  0  0  3  0  0  0  0  0  0
  162.8680  205.8840  151.9070 C   0  0  0  0  0  2  0  0  0  0  0  0
  162.3030  209.6680  150.4620 C   0  0  2  0  0  3  0  0  0  0  0  0
  162.5750  209.2230  151.7660 O   0  0  0  0  0  0  0  0  0  0  0  0
  161.5430  209.7300  152.5650 C   0  0  1  0  0  3  0  0  0  0  0  0
  160.3670  207.6800  152.2650 F   0  0  0  0  0  0  0  0  0  0  0  0
  161.5790  207.9380  154.1460 F   0  0  0  0  0  0  0  0  0  0  0  0
  160.7740  208.5850  153.2260 C   0  0  0  0  0  0  0  0  0  0  0  0
  159.6510  209.0760  153.8690 F   0  0  0  0  0  0  0  0  0  0  0  0
  162.1260  210.6610  153.6260 C   0  0  0  0  0  2  0  0  0  0  0  0
  161.8580  210.2320  156.4650 O   0  0  0  0  0  1  0  0  0  0  0  0
  161.0430  211.2840  154.4460 C   0  0  0  0  0  0  0  0  0  0  0  0
  160.1830  212.0640  153.8800 N   0  0  0  0  0  2  0  0  0  0  0  0
  160.9570  211.0320  155.8490 N   0  0  0  0  0  2  0  0  0  0  0  0
  161.2700  210.8070  150.4340 C   0  0  0  0  0  2  0  0  0  0  0  0
  161.3030  211.6660  149.1640 C   0  0  1  0  0  3  0  0  0  0  0  0
  160.0640  213.1740  150.7730 C   0  0  0  0  0  2  0  0  0  0  0  0
  159.4920  213.2320  148.4340 C   0  0  0  0  0  2  0  0  0  0  0  0
  158.3570  213.7170  149.3030 C   0  0  0  0  0  2  0  0  0  0  0  0
  160.6580  213.0450  149.3780 C   0  0  2  0  0  3  0  0  0  0  0  0
  158.1710  214.2960  151.5560 C   0  0  0  0  0  1  0  0  0  0  0  0
  158.6150  213.2500  150.6540 N   0  0  0  0  0  0  0  0  0  0  0  0
  162.7240  211.7730  148.5970 C   0  0  0  0  0  2  0  0  0  0  0  0
  162.9810  213.1070  147.9080 C   0  0  0  0  0  2  0  0  0  0  0  0
  162.7420  212.9820  146.4140 C   0  0  0  0  0  2  0  0  0  0  0  0
  162.2330  214.2920  145.8420 C   0  0  0  0  0  2  0  0  0  0  0  0
  160.9200  214.0510  145.1240 C   0  0  0  0  0  2  0  0  0  0  0  0
  160.7520  212.6820  144.9170 O   0  0  0  0  0  1  0  0  0  0  0  0
  2  1  1  0  0  0  0
  2 27  1  0  0  0  0
  3  1  1  0  0  0  0
  4  2  2  0  0  0  0
  5  4  1  0  0  0  0
  5  3  2  0  0  0  0
  6  8  1  6  0  0  0
  6 13  1  0  0  0  0
  6  9  1  0  0  0  0
  7 10  1  0  0  0  0
  7  5  1  0  0  0  0
  9  7  2  0  0  0  0
 11 12  1  0  0  0  0
 12 10  1  0  0  0  0
 12 18  1  1  0  0  0
 13 15  1  1  0  0  0
 13 11  1  0  0  0  0
 15 16  1  0  0  0  0
 15 14  1  0  0  0  0
 16 17  1  0  0  0  0
 18 19  1  0  0  0  0
 19 20  1  0  0  0  0
 20 21  1  0  0  0  0
 21 22  1  0  0  0  0
 22 23  1  0  0  0  0
 23 24  1  0  0  0  0
 25 26  2  0  0  0  0
 25 24  1  0  0  0  0
 27 39  1  1  0  0  0
 27 28  1  0  0  0  0
 28 29  1  0  0  0  0
 29 32  1  0  0  0  0
 29 34  1  1  0  0  0
 30 32  1  0  0  0  0
 32 33  1  0  0  0  0
 32 31  1  0  0  0  0
 34 36  1  0  0  0  0
 36 38  1  0  0  0  0
 37 36  2  0  0  0  0
 38 35  1  0  0  0  0
 40 47  1  1  0  0  0
 40 39  1  0  0  0  0
 42 43  1  0  0  0  0
 42 44  1  0  0  0  0
 43 46  1  0  0  0  0
 44 40  1  1  0  0  0
 44 41  1  0  0  0  0
 46 41  1  0  0  0  0
 46 45  1  0  0  0  0
 48 47  1  0  0  0  0
 49 48  1  0  0  0  0
 50 49  1  0  0  0  0
 51 50  1  0  0  0  0
 52 51  1  0  0  0  0
M  END
>  <MODEL>
4

>  <REMARK>
 VINA RESULT:      -4.3      3.022     10.254
  Name = 
  25 active torsions:
  status: ('A' for Active; 'I' for Inactive)
    1  A    between atoms: O_1  and  C_23
    2  A    between atoms: O_1  and  C_33
    3  A    between atoms: C_3  and  C_7
    4  A    between atoms: C_3  and  C_19
    5  A    between atoms: C_7  and  C_46
    6  A    between atoms: C_11  and  C_35
    7  A    between atoms: C_13  and  N_14
    8  A    between atoms: N_14  and  C_50
    9  A    between atoms: C_15  and  C_23
   10  A    between atoms: C_17  and  C_52
   11  A    between atoms: C_18  and  C_25
   12  A    between atoms: C_19  and  C_52
   13  A    between atoms: C_20  and  C_49
   14  A    between atoms: C_23  and  C_30
   15  A    between atoms: C_25  and  C_33
   16  A    between atoms: C_28  and  C_36
   17  A    between atoms: C_28  and  C_40
   18  A    between atoms: C_30  and  C_46
   19  A    between atoms: C_31  and  C_46
   20  A    between atoms: C_33  and  C_38
   21  A    between atoms: C_35  and  C_47
   22  A    between atoms: C_36  and  C_51
   23  A    between atoms: C_40  and  C_48
   24  A    between atoms: C_44  and  C_48
   25  A    between atoms: C_47  and  C_51
                            x       y       z     vdW  Elec       q    Type
                         _______ _______ _______ _____ _____    ______ ____

>  <TORSDO>
F 25

$$$$
=
 OpenBabel11072411333D

 52 54  0  0  1  0  0  0  0  0999 V2000
  161.9100  211.0980  152.8330 O   0  0  0  0  0  0  0  0  0  0  0  0
  160.6780  210.6480  152.8270 C   0  0  0  0  0  0  0  0  0  0  0  0
  162.6580  210.3220  152.0860 C   0  0  0  0  0  3  0  0  0  0  0  0
  160.5670  209.5200  152.0400 C   0  0  0  0  0  3  0  0  0  0  0  0
  161.8500  209.3250  151.5660 C   0  0  0  0  0  0  0  0  0  0  0  0
  162.6470  207.2520  148.4510 C   0  0  1  0  0  3  0  0  0  0  0  0
  162.2810  208.2280  150.6820 C   0  0  0  0  0  0  0  0  0  0  0  0
  163.1380  207.7250  147.2340 O   0  0  0  0  0  1  0  0  0  0  0  0
  162.3120  208.3980  149.3560 C   0  0  0  0  0  3  0  0  0  0  0  0
  162.8230  206.6520  151.3940 S   0  0  0  0  0  0  0  0  0  0  0  0
  160.6620  206.1060  149.6030 C   0  0  0  0  0  2  0  0  0  0  0  0
  161.4560  205.5680  150.7940 C   0  0  2  0  0  3  0  0  0  0  0  0
  161.4710  206.2440  148.2850 C   0  0  1  0  0  3  0  0  0  0  0  0
  159.5210  205.6300  146.9890 C   0  0  0  0  0  1  0  0  0  0  0  0
  160.6040  206.6000  147.1410 N   0  0  0  0  0  0  0  0  0  0  0  0
  161.3930  206.4570  145.9220 C   0  0  0  0  0  2  0  0  0  0  0  0
  161.5760  204.9850  145.5920 C   0  0  0  0  0  1  0  0  0  0  0  0
  160.4910  205.2840  151.9290 C   0  0  0  0  0  2  0  0  0  0  0  0
  160.8810  204.0130  152.6700 C   0  0  0  0  0  2  0  0  0  0  0  0
  160.1610  202.8250  152.0640 C   0  0  0  0  0  2  0  0  0  0  0  0
  161.0440  202.1380  151.0410 C   0  0  0  0  0  2  0  0  0  0  0  0
  160.2470  201.8780  149.7710 C   0  0  0  0  0  2  0  0  0  0  0  0
  161.0640  202.2780  148.5510 C   0  0  0  0  0  2  0  0  0  0  0  0
  161.6310  201.0300  147.8960 C   0  0  0  0  0  2  0  0  0  0  0  0
  160.8450  200.6670  146.6770 C   0  0  0  0  0  3  0  0  0  0  0  0
  160.4750  201.6060  145.8050 C   0  0  0  0  0  2  0  0  0  0  0  0
  159.5420  211.2920  153.5520 C   0  0  2  0  0  3  0  0  0  0  0  0
  159.0340  210.4210  154.5280 O   0  0  0  0  0  0  0  0  0  0  0  0
  160.0060  210.3660  155.5340 C   0  0  1  0  0  3  0  0  0  0  0  0
  159.8860  212.7350  155.3230 F   0  0  0  0  0  0  0  0  0  0  0  0
  159.2020  211.8110  157.2600 F   0  0  0  0  0  0  0  0  0  0  0  0
  160.1230  211.7220  156.2320 C   0  0  0  0  0  0  0  0  0  0  0  0
  161.3970  211.8830  156.7470 F   0  0  0  0  0  0  0  0  0  0  0  0
  159.6390  209.2800  156.5440 C   0  0  0  0  0  2  0  0  0  0  0  0
  162.4930  209.0690  156.8930 O   0  0  0  0  0  1  0  0  0  0  0  0
  160.4020  208.0220  156.2810 C   0  0  0  0  0  0  0  0  0  0  0  0
  159.7730  206.9650  155.8880 N   0  0  0  0  0  2  0  0  0  0  0  0
  161.8170  207.9770  156.4660 N   0  0  0  0  0  2  0  0  0  0  0  0
  158.4600  211.7680  152.5680 C   0  0  0  0  0  2  0  0  0  0  0  0
  158.0830  213.2490  152.7020 C   0  0  1  0  0  3  0  0  0  0  0  0
  156.9470  214.0560  150.5920 C   0  0  0  0  0  2  0  0  0  0  0  0
  159.2290  213.2960  150.4780 C   0  0  0  0  0  2  0  0  0  0  0  0
  158.5380  213.2030  149.1390 C   0  0  0  0  0  2  0  0  0  0  0  0
  158.2490  214.0120  151.3780 C   0  0  2  0  0  3  0  0  0  0  0  0
  156.5180  214.0130  148.2960 C   0  0  0  0  0  1  0  0  0  0  0  0
  157.1070  213.2570  149.3850 N   0  0  0  0  0  0  0  0  0  0  0  0
  156.6800  213.4180  153.2970 C   0  0  0  0  0  2  0  0  0  0  0  0
  156.6970  214.1260  154.6460 C   0  0  0  0  0  2  0  0  0  0  0  0
  156.8180  213.1140  155.7700 C   0  0  0  0  0  2  0  0  0  0  0  0
  155.4870  212.9400  156.4790 C   0  0  0  0  0  2  0  0  0  0  0  0
  155.3550  211.5080  156.9570 C   0  0  0  0  0  2  0  0  0  0  0  0
  155.4240  210.6480  155.8630 O   0  0  0  0  0  1  0  0  0  0  0  0
  2  1  1  0  0  0  0
  2 27  1  0  0  0  0
  3  1  1  0  0  0  0
  4  2  2  0  0  0  0
  5  4  1  0  0  0  0
  5  3  2  0  0  0  0
  6  8  1  6  0  0  0
  6  9  1  0  0  0  0
  7 10  1  0  0  0  0
  7  5  1  0  0  0  0
  9  7  2  0  0  0  0
 11 12  1  0  0  0  0
 12 10  1  0  0  0  0
 12 18  1  1  0  0  0
 13 15  1  6  0  0  0
 13  6  1  0  0  0  0
 13 11  1  0  0  0  0
 14 15  1  0  0  0  0
 16 15  1  0  0  0  0
 17 16  1  0  0  0  0
 18 19  1  0  0  0  0
 20 19  1  0  0  0  0
 21 20  1  0  0  0  0
 22 21  1  0  0  0  0
 23 22  1  0  0  0  0
 24 23  1  0  0  0  0
 25 24  1  0  0  0  0
 26 25  2  0  0  0  0
 27 39  1  6  0  0  0
 27 28  1  0  0  0  0
 28 29  1  0  0  0  0
 29 32  1  0  0  0  0
 29 34  1  1  0  0  0
 30 32  1  0  0  0  0
 32 33  1  0  0  0  0
 32 31  1  0  0  0  0
 36 38  1  0  0  0  0
 36 34  1  0  0  0  0
 37 36  2  0  0  0  0
 38 35  1  0  0  0  0
 40 39  1  6  0  0  0
 40 47  1  0  0  0  0
 41 44  1  0  0  0  0
 42 44  1  0  0  0  0
 43 46  1  0  0  0  0
 43 42  1  0  0  0  0
 44 40  1  1  0  0  0
 45 46  1  0  0  0  0
 46 41  1  0  0  0  0
 47 48  1  0  0  0  0
 48 49  1  0  0  0  0
 49 50  1  0  0  0  0
 50 51  1  0  0  0  0
 52 51  1  0  0  0  0
M  END
>  <MODEL>
5

>  <REMARK>
 VINA RESULT:      -4.2      3.704      9.486
  Name = 
  25 active torsions:
  status: ('A' for Active; 'I' for Inactive)
    1  A    between atoms: O_1  and  C_23
    2  A    between atoms: O_1  and  C_33
    3  A    between atoms: C_3  and  C_7
    4  A    between atoms: C_3  and  C_19
    5  A    between atoms: C_7  and  C_46
    6  A    between atoms: C_11  and  C_35
    7  A    between atoms: C_13  and  N_14
    8  A    between atoms: N_14  and  C_50
    9  A    between atoms: C_15  and  C_23
   10  A    between atoms: C_17  and  C_52
   11  A    between atoms: C_18  and  C_25
   12  A    between atoms: C_19  and  C_52
   13  A    between atoms: C_20  and  C_49
   14  A    between atoms: C_23  and  C_30
   15  A    between atoms: C_25  and  C_33
   16  A    between atoms: C_28  and  C_36
   17  A    between atoms: C_28  and  C_40
   18  A    between atoms: C_30  and  C_46
   19  A    between atoms: C_31  and  C_46
   20  A    between atoms: C_33  and  C_38
   21  A    between atoms: C_35  and  C_47
   22  A    between atoms: C_36  and  C_51
   23  A    between atoms: C_40  and  C_48
   24  A    between atoms: C_44  and  C_48
   25  A    between atoms: C_47  and  C_51
                            x       y       z     vdW  Elec       q    Type
                         _______ _______ _______ _____ _____    ______ ____

>  <TORSDO>
F 25

$$$$
=
 OpenBabel11072411333D

 52 54  0  0  1  0  0  0  0  0999 V2000
  160.7570  207.8020  149.7400 O   0  0  0  0  0  0  0  0  0  0  0  0
  161.8450  208.5040  149.5260 C   0  0  0  0  0  0  0  0  0  0  0  0
  160.6730  206.8490  148.8430 C   0  0  0  0  0  3  0  0  0  0  0  0
  162.5450  208.0130  148.4430 C   0  0  0  0  0  3  0  0  0  0  0  0
  161.7800  206.9450  148.0150 C   0  0  0  0  0  0  0  0  0  0  0  0
  161.6730  205.3060  144.5600 C   0  0  1  0  0  3  0  0  0  0  0  0
  162.0820  206.0790  146.8620 C   0  0  0  0  0  0  0  0  0  0  0  0
  161.3710  205.9280  143.3480 O   0  0  0  0  0  1  0  0  0  0  0  0
  161.4440  206.2530  145.7000 C   0  0  0  0  0  3  0  0  0  0  0  0
  163.3590  204.8020  146.9990 S   0  0  0  0  0  0  0  0  0  0  0  0
  160.9180  203.5200  146.2390 C   0  0  0  0  0  2  0  0  0  0  0  0
  162.2950  203.3000  146.8680 C   0  0  2  0  0  3  0  0  0  0  0  0
  160.9410  203.9430  144.7460 C   0  0  1  0  0  3  0  0  0  0  0  0
  158.7710  205.0130  144.7760 C   0  0  0  0  0  1  0  0  0  0  0  0
  159.5840  203.9670  144.1590 N   0  0  0  0  0  0  0  0  0  0  0  0
  158.9180  202.7220  144.5280 C   0  0  0  0  0  2  0  0  0  0  0  0
  159.9310  201.5910  144.5910 C   0  0  0  0  0  1  0  0  0  0  0  0
  162.1060  202.6850  148.2420 C   0  0  0  0  0  2  0  0  0  0  0  0
  160.8750  201.7900  148.2720 C   0  0  0  0  0  2  0  0  0  0  0  0
  160.1060  202.0190  149.5580 C   0  0  0  0  0  2  0  0  0  0  0  0
  160.8080  201.3460  150.7200 C   0  0  0  0  0  2  0  0  0  0  0  0
  161.5430  202.3900  151.5480 C   0  0  0  0  0  2  0  0  0  0  0  0
  160.8770  203.7480  151.3850 C   0  0  0  0  0  2  0  0  0  0  0  0
  160.8460  204.4550  152.7300 C   0  0  0  0  0  2  0  0  0  0  0  0
  161.9020  205.5120  152.7990 C   0  0  0  0  0  3  0  0  0  0  0  0
  162.7000  205.7410  151.7550 C   0  0  0  0  0  2  0  0  0  0  0  0
  162.2800  209.6600  150.3650 C   0  0  2  0  0  3  0  0  0  0  0  0
  162.5060  209.2410  151.6860 O   0  0  0  0  0  0  0  0  0  0  0  0
  161.5310  209.8810  152.4610 C   0  0  1  0  0  3  0  0  0  0  0  0
  160.3070  207.8660  152.1230 F   0  0  0  0  0  0  0  0  0  0  0  0
  161.1230  208.2740  154.1820 F   0  0  0  0  0  0  0  0  0  0  0  0
  160.5680  208.8520  153.0550 C   0  0  0  0  0  0  0  0  0  0  0  0
  159.3740  209.4610  153.3960 F   0  0  0  0  0  0  0  0  0  0  0  0
  162.2050  210.6810  153.5750 C   0  0  0  0  0  2  0  0  0  0  0  0
  162.1400  210.1790  156.4130 O   0  0  0  0  0  1  0  0  0  0  0  0
  161.1900  211.2900  154.4870 C   0  0  0  0  0  0  0  0  0  0  0  0
  160.2980  212.0900  154.0050 N   0  0  0  0  0  2  0  0  0  0  0  0
  161.2030  211.0010  155.8860 N   0  0  0  0  0  2  0  0  0  0  0  0
  161.2660  210.8130  150.2810 C   0  0  0  0  0  2  0  0  0  0  0  0
  161.7340  212.0130  149.4480 C   0  0  1  0  0  3  0  0  0  0  0  0
  162.8510  212.5310  147.2380 C   0  0  0  0  0  2  0  0  0  0  0  0
  160.4940  212.0370  147.2740 C   0  0  0  0  0  2  0  0  0  0  0  0
  160.8810  212.8440  146.0580 C   0  0  0  0  0  2  0  0  0  0  0  0
  161.8020  211.6870  147.9460 C   0  0  2  0  0  3  0  0  0  0  0  0
  162.9180  213.4390  145.0880 C   0  0  0  0  0  1  0  0  0  0  0  0
  162.1740  213.4470  146.3320 N   0  0  0  0  0  0  0  0  0  0  0  0
  160.8850  213.2580  149.7330 C   0  0  0  0  0  2  0  0  0  0  0  0
  159.8510  213.0230  150.8270 C   0  0  0  0  0  2  0  0  0  0  0  0
  158.9460  214.2340  150.9630 C   0  0  0  0  0  2  0  0  0  0  0  0
  157.5170  213.8060  151.2440 C   0  0  0  0  0  2  0  0  0  0  0  0
  156.6800  213.9990  149.9960 C   0  0  0  0  0  2  0  0  0  0  0  0
  156.8430  212.8990  149.1550 O   0  0  0  0  0  1  0  0  0  0  0  0
  2  1  1  0  0  0  0
  2 27  1  0  0  0  0
  3  1  1  0  0  0  0
  4  2  2  0  0  0  0
  5  4  1  0  0  0  0
  5  3  2  0  0  0  0
  6  8  1  6  0  0  0
  6 13  1  0  0  0  0
  6  9  1  0  0  0  0
  7 10  1  0  0  0  0
  7  5  1  0  0  0  0
  9  7  2  0  0  0  0
 11 12  1  0  0  0  0
 12 10  1  0  0  0  0
 12 18  1  1  0  0  0
 13 15  1  1  0  0  0
 13 11  1  0  0  0  0
 15 16  1  0  0  0  0
 15 14  1  0  0  0  0
 16 17  1  0  0  0  0
 18 19  1  0  0  0  0
 19 20  1  0  0  0  0
 20 21  1  0  0  0  0
 21 22  1  0  0  0  0
 23 22  1  0  0  0  0
 23 24  1  0  0  0  0
 24 25  1  0  0  0  0
 26 25  2  0  0  0  0
 27 39  1  1  0  0  0
 27 28  1  0  0  0  0
 28 29  1  0  0  0  0
 29 32  1  0  0  0  0
 29 34  1  1  0  0  0
 30 32  1  0  0  0  0
 32 33  1  0  0  0  0
 32 31  1  0  0  0  0
 34 36  1  0  0  0  0
 36 38  1  0  0  0  0
 37 36  2  0  0  0  0
 38 35  1  0  0  0  0
 40 47  1  6  0  0  0
 40 39  1  0  0  0  0
 41 44  1  0  0  0  0
 42 44  1  0  0  0  0
 43 46  1  0  0  0  0
 43 42  1  0  0  0  0
 44 40  1  1  0  0  0
 45 46  1  0  0  0  0
 46 41  1  0  0  0  0
 47 48  1  0  0  0  0
 48 49  1  0  0  0  0
 49 50  1  0  0  0  0
 51 50  1  0  0  0  0
 52 51  1  0  0  0  0
M  END
>  <MODEL>
6

>  <REMARK>
 VINA RESULT:      -4.2      3.089     10.024
  Name = 
  25 active torsions:
  status: ('A' for Active; 'I' for Inactive)
    1  A    between atoms: O_1  and  C_23
    2  A    between atoms: O_1  and  C_33
    3  A    between atoms: C_3  and  C_7
    4  A    between atoms: C_3  and  C_19
    5  A    between atoms: C_7  and  C_46
    6  A    between atoms: C_11  and  C_35
    7  A    between atoms: C_13  and  N_14
    8  A    between atoms: N_14  and  C_50
    9  A    between atoms: C_15  and  C_23
   10  A    between atoms: C_17  and  C_52
   11  A    between atoms: C_18  and  C_25
   12  A    between atoms: C_19  and  C_52
   13  A    between atoms: C_20  and  C_49
   14  A    between atoms: C_23  and  C_30
   15  A    between atoms: C_25  and  C_33
   16  A    between atoms: C_28  and  C_36
   17  A    between atoms: C_28  and  C_40
   18  A    between atoms: C_30  and  C_46
   19  A    between atoms: C_31  and  C_46
   20  A    between atoms: C_33  and  C_38
   21  A    between atoms: C_35  and  C_47
   22  A    between atoms: C_36  and  C_51
   23  A    between atoms: C_40  and  C_48
   24  A    between atoms: C_44  and  C_48
   25  A    between atoms: C_47  and  C_51
                            x       y       z     vdW  Elec       q    Type
                         _______ _______ _______ _____ _____    ______ ____

>  <TORSDO>
F 25

$$$$
=
 OpenBabel11072411333D

 52 54  0  0  1  0  0  0  0  0999 V2000
  160.5120  204.8490  152.3620 O   0  0  0  0  0  0  0  0  0  0  0  0
  160.9430  205.4000  151.2510 C   0  0  0  0  0  0  0  0  0  0  0  0
  160.7180  205.6710  153.3620 C   0  0  0  0  0  3  0  0  0  0  0  0
  161.4610  206.6560  151.4920 C   0  0  0  0  0  3  0  0  0  0  0  0
  161.3060  206.8180  152.8560 C   0  0  0  0  0  0  0  0  0  0  0  0
  161.8550  209.2810  155.7310 C   0  0  1  0  0  3  0  0  0  0  0  0
  161.7210  207.9990  153.6330 C   0  0  0  0  0  0  0  0  0  0  0  0
  162.1010  208.9650  157.0680 O   0  0  0  0  0  1  0  0  0  0  0  0
  161.5320  208.0400  154.9560 C   0  0  0  0  0  3  0  0  0  0  0  0
  162.5390  209.3860  152.8040 S   0  0  0  0  0  0  0  0  0  0  0  0
  160.2080  210.4010  154.1150 C   0  0  0  0  0  2  0  0  0  0  0  0
  161.2290  210.6700  153.0080 C   0  0  2  0  0  3  0  0  0  0  0  0
  160.7890  210.4030  155.5550 C   0  0  1  0  0  3  0  0  0  0  0  0
  158.6540  209.4220  156.1340 C   0  0  0  0  0  1  0  0  0  0  0  0
  159.7250  210.3120  156.5780 N   0  0  0  0  0  0  0  0  0  0  0  0
  159.0910  211.6220  156.6790 C   0  0  0  0  0  2  0  0  0  0  0  0
  157.6460  211.4660  157.1230 C   0  0  0  0  0  1  0  0  0  0  0  0
  160.4840  210.8540  151.7000 C   0  0  0  0  0  2  0  0  0  0  0  0
  159.8180  212.2220  151.6400 C   0  0  0  0  0  2  0  0  0  0  0  0
  159.5430  212.5950  150.1970 C   0  0  0  0  0  2  0  0  0  0  0  0
  159.2560  214.0800  150.0810 C   0  0  0  0  0  2  0  0  0  0  0  0
  158.9630  214.4320  148.6310 C   0  0  0  0  0  2  0  0  0  0  0  0
  158.0920  213.3570  147.9970 C   0  0  0  0  0  2  0  0  0  0  0  0
  156.6320  213.7590  148.1210 C   0  0  0  0  0  2  0  0  0  0  0  0
  156.1540  213.5960  149.5290 C   0  0  0  0  0  3  0  0  0  0  0  0
  155.1420  214.3330  149.9890 C   0  0  0  0  0  2  0  0  0  0  0  0
  160.8530  204.7620  149.9040 C   0  0  2  0  0  3  0  0  0  0  0  0
  162.0170  204.0250  149.6390 O   0  0  0  0  0  0  0  0  0  0  0  0
  161.5870  202.7250  149.3440 C   0  0  1  0  0  3  0  0  0  0  0  0
  161.8540  202.3350  151.6790 F   0  0  0  0  0  0  0  0  0  0  0  0
  159.7600  202.5140  150.8710 F   0  0  0  0  0  0  0  0  0  0  0  0
  161.0360  202.0520  150.6030 C   0  0  0  0  0  0  0  0  0  0  0  0
  160.9960  200.6810  150.4290 F   0  0  0  0  0  0  0  0  0  0  0  0
  160.5160  202.7740  148.2560 C   0  0  0  0  0  2  0  0  0  0  0  0
  159.1380  202.7130  145.7240 O   0  0  0  0  0  1  0  0  0  0  0  0
  160.7510  201.7180  147.2250 C   0  0  0  0  0  0  0  0  0  0  0  0
  161.6160  200.7860  147.4530 N   0  0  0  0  0  2  0  0  0  0  0  0
  160.0360  201.7360  145.9890 N   0  0  0  0  0  2  0  0  0  0  0  0
  160.5620  205.8110  148.8170 C   0  0  0  0  0  2  0  0  0  0  0  0
  161.7350  206.7500  148.5080 C   0  0  1  0  0  3  0  0  0  0  0  0
  161.0450  206.2870  146.1190 C   0  0  0  0  0  2  0  0  0  0  0  0
  163.1870  205.5050  146.8940 C   0  0  0  0  0  2  0  0  0  0  0  0
  162.6920  204.7080  145.7120 C   0  0  0  0  0  2  0  0  0  0  0  0
  162.1990  206.6390  147.0460 C   0  0  2  0  0  3  0  0  0  0  0  0
  160.9530  204.9880  144.1800 C   0  0  0  0  0  1  0  0  0  0  0  0
  161.2630  204.9460  145.5960 N   0  0  0  0  0  0  0  0  0  0  0  0
  161.4140  208.1960  148.9050 C   0  0  0  0  0  2  0  0  0  0  0  0
  162.3750  209.2020  148.2830 C   0  0  0  0  0  2  0  0  0  0  0  0
  161.7230  210.5700  148.2000 C   0  0  0  0  0  2  0  0  0  0  0  0
  162.5980  211.6210  148.8600 C   0  0  0  0  0  2  0  0  0  0  0  0
  162.5520  212.8970  148.0440 C   0  0  0  0  0  2  0  0  0  0  0  0
  162.8130  212.6000  146.7070 O   0  0  0  0  0  1  0  0  0  0  0  0
  1  3  1  0  0  0  0
  2  4  2  0  0  0  0
  2  1  1  0  0  0  0
  4  5  1  0  0  0  0
  5  3  2  0  0  0  0
  5  7  1  0  0  0  0
  6  8  1  1  0  0  0
  7  9  2  0  0  0  0
  9  6  1  0  0  0  0
 10 12  1  0  0  0  0
 10  7  1  0  0  0  0
 11 13  1  0  0  0  0
 12 18  1  6  0  0  0
 12 11  1  0  0  0  0
 13  6  1  0  0  0  0
 13 15  1  1  0  0  0
 14 15  1  0  0  0  0
 15 16  1  0  0  0  0
 16 17  1  0  0  0  0
 19 18  1  0  0  0  0
 20 19  1  0  0  0  0
 21 20  1  0  0  0  0
 22 21  1  0  0  0  0
 23 24  1  0  0  0  0
 23 22  1  0  0  0  0
 24 25  1  0  0  0  0
 25 26  2  0  0  0  0
 27 39  1  6  0  0  0
 27  2  1  0  0  0  0
 28 27  1  0  0  0  0
 29 34  1  6  0  0  0
 29 28  1  0  0  0  0
 29 32  1  0  0  0  0
 32 31  1  0  0  0  0
 32 30  1  0  0  0  0
 33 32  1  0  0  0  0
 35 38  1  0  0  0  0
 36 37  2  0  0  0  0
 36 34  1  0  0  0  0
 38 36  1  0  0  0  0
 40 39  1  6  0  0  0
 40 47  1  0  0  0  0
 41 44  1  0  0  0  0
 42 44  1  0  0  0  0
 43 42  1  0  0  0  0
 44 40  1  1  0  0  0
 45 46  1  0  0  0  0
 46 43  1  0  0  0  0
 46 41  1  0  0  0  0
 48 47  1  0  0  0  0
 49 48  1  0  0  0  0
 49 50  1  0  0  0  0
 51 50  1  0  0  0  0
 52 51  1  0  0  0  0
M  END
>  <MODEL>
7

>  <REMARK>
 VINA RESULT:      -3.8      2.702      5.142
  Name = 
  25 active torsions:
  status: ('A' for Active; 'I' for Inactive)
    1  A    between atoms: O_1  and  C_23
    2  A    between atoms: O_1  and  C_33
    3  A    between atoms: C_3  and  C_7
    4  A    between atoms: C_3  and  C_19
    5  A    between atoms: C_7  and  C_46
    6  A    between atoms: C_11  and  C_35
    7  A    between atoms: C_13  and  N_14
    8  A    between atoms: N_14  and  C_50
    9  A    between atoms: C_15  and  C_23
   10  A    between atoms: C_17  and  C_52
   11  A    between atoms: C_18  and  C_25
   12  A    between atoms: C_19  and  C_52
   13  A    between atoms: C_20  and  C_49
   14  A    between atoms: C_23  and  C_30
   15  A    between atoms: C_25  and  C_33
   16  A    between atoms: C_28  and  C_36
   17  A    between atoms: C_28  and  C_40
   18  A    between atoms: C_30  and  C_46
   19  A    between atoms: C_31  and  C_46
   20  A    between atoms: C_33  and  C_38
   21  A    between atoms: C_35  and  C_47
   22  A    between atoms: C_36  and  C_51
   23  A    between atoms: C_40  and  C_48
   24  A    between atoms: C_44  and  C_48
   25  A    between atoms: C_47  and  C_51
                            x       y       z     vdW  Elec       q    Type
                         _______ _______ _______ _____ _____    ______ ____

>  <TORSDO>
F 25

$$$$
=
 OpenBabel11072411333D

 52 54  0  0  1  0  0  0  0  0999 V2000
  161.5910  208.3890  147.6660 O   0  0  0  0  0  0  0  0  0  0  0  0
  161.9450  208.3160  148.9270 C   0  0  0  0  0  0  0  0  0  0  0  0
  161.3940  209.6450  147.3430 C   0  0  0  0  0  3  0  0  0  0  0  0
  162.0010  209.5710  149.4980 C   0  0  0  0  0  3  0  0  0  0  0  0
  161.6470  210.4170  148.4650 C   0  0  0  0  0  0  0  0  0  0  0  0
  160.6200  213.9330  149.5680 C   0  0  1  0  0  3  0  0  0  0  0  0
  161.5350  211.8830  148.5560 C   0  0  0  0  0  0  0  0  0  0  0  0
  160.3470  214.3560  150.8690 O   0  0  0  0  0  1  0  0  0  0  0  0
  160.8230  212.4490  149.5360 C   0  0  0  0  0  3  0  0  0  0  0  0
  162.4060  212.9330  147.3640 S   0  0  0  0  0  0  0  0  0  0  0  0
  159.6240  213.5810  147.2310 C   0  0  0  0  0  2  0  0  0  0  0  0
  160.9540  213.6480  146.4780 C   0  0  2  0  0  3  0  0  0  0  0  0
  159.5660  214.4250  148.5320 C   0  0  1  0  0  3  0  0  0  0  0  0
  157.9300  213.2250  149.8520 C   0  0  0  0  0  1  0  0  0  0  0  0
  158.2040  214.4530  149.1090 N   0  0  0  0  0  0  0  0  0  0  0  0
  157.2510  214.4310  148.0040 C   0  0  0  0  0  2  0  0  0  0  0  0
  155.8440  214.2190  148.5370 C   0  0  0  0  0  1  0  0  0  0  0  0
  160.7840  212.9610  145.1360 C   0  0  0  0  0  2  0  0  0  0  0  0
  160.4510  213.9710  144.0470 C   0  0  0  0  0  2  0  0  0  0  0  0
  160.9780  213.4790  142.7130 C   0  0  0  0  0  2  0  0  0  0  0  0
  161.2270  211.9850  142.7630 C   0  0  0  0  0  2  0  0  0  0  0  0
  160.8520  211.3600  141.4270 C   0  0  0  0  0  2  0  0  0  0  0  0
  162.0990  210.8460  140.7230 C   0  0  0  0  0  2  0  0  0  0  0  0
  162.5720  211.8840  139.7190 C   0  0  0  0  0  2  0  0  0  0  0  0
  162.4490  211.3650  138.3210 C   0  0  0  0  0  3  0  0  0  0  0  0
  162.6700  212.1690  137.2800 C   0  0  0  0  0  2  0  0  0  0  0  0
  162.2720  207.0440  149.6370 C   0  0  2  0  0  3  0  0  0  0  0  0
  161.2560  206.0980  149.4310 O   0  0  0  0  0  0  0  0  0  0  0  0
  161.6990  205.2850  148.3800 C   0  0  1  0  0  3  0  0  0  0  0  0
  160.5900  203.4710  147.3070 F   0  0  0  0  0  0  0  0  0  0  0  0
  162.1020  202.9890  148.9050 F   0  0  0  0  0  0  0  0  0  0  0  0
  161.1160  203.8780  148.5180 C   0  0  0  0  0  0  0  0  0  0  0  0
  160.1030  203.8740  149.4600 F   0  0  0  0  0  0  0  0  0  0  0  0
  161.2860  205.9020  147.0450 C   0  0  0  0  0  2  0  0  0  0  0  0
  160.0930  205.1510  144.5300 O   0  0  0  0  0  1  0  0  0  0  0  0
  162.0670  205.3110  145.9170 C   0  0  0  0  0  0  0  0  0  0  0  0
  163.3390  205.1300  146.0480 N   0  0  0  0  0  2  0  0  0  0  0  0
  161.4210  204.9530  144.6940 N   0  0  0  0  0  2  0  0  0  0  0  0
  162.5410  207.3010  151.1300 C   0  0  0  0  0  2  0  0  0  0  0  0
  161.3840  206.9160  152.0610 C   0  0  1  0  0  3  0  0  0  0  0  0
  162.4470  204.6210  152.0150 C   0  0  0  0  0  2  0  0  0  0  0  0
  160.3890  204.9370  153.2250 C   0  0  0  0  0  2  0  0  0  0  0  0
  160.5880  203.4960  152.8200 C   0  0  0  0  0  2  0  0  0  0  0  0
  161.6780  205.6320  152.8530 C   0  0  2  0  0  3  0  0  0  0  0  0
  162.3890  202.2870  151.9590 C   0  0  0  0  0  1  0  0  0  0  0  0
  161.5830  203.4770  151.7620 N   0  0  0  0  0  0  0  0  0  0  0  0
  160.9890  208.0830  152.9740 C   0  0  0  0  0  2  0  0  0  0  0  0
  161.8780  209.3060  152.7800 C   0  0  0  0  0  2  0  0  0  0  0  0
  161.3690  210.4630  153.6200 C   0  0  0  0  0  2  0  0  0  0  0  0
  162.0320  210.4650  154.9860 C   0  0  0  0  0  2  0  0  0  0  0  0
  161.1210  211.1490  155.9850 C   0  0  0  0  0  2  0  0  0  0  0  0
  159.7980  211.0230  155.5650 O   0  0  0  0  0  1  0  0  0  0  0  0
  1  2  1  0  0  0  0
  2  4  2  0  0  0  0
  2 27  1  0  0  0  0
  3  1  1  0  0  0  0
  3  5  2  0  0  0  0
  5  7  1  0  0  0  0
  5  4  1  0  0  0  0
  6  8  1  1  0  0  0
  7  9  2  0  0  0  0
  9  6  1  0  0  0  0
 10  7  1  0  0  0  0
 11 13  1  0  0  0  0
 12 18  1  6  0  0  0
 12 11  1  0  0  0  0
 12 10  1  0  0  0  0
 13 15  1  1  0  0  0
 13  6  1  0  0  0  0
 15 14  1  0  0  0  0
 16 17  1  0  0  0  0
 16 15  1  0  0  0  0
 19 18  1  0  0  0  0
 20 21  1  0  0  0  0
 20 19  1  0  0  0  0
 22 21  1  0  0  0  0
 23 22  1  0  0  0  0
 24 23  1  0  0  0  0
 25 24  1  0  0  0  0
 26 25  2  0  0  0  0
 27 39  1  1  0  0  0
 28 27  1  0  0  0  0
 29 34  1  6  0  0  0
 29 32  1  0  0  0  0
 29 28  1  0  0  0  0
 30 32  1  0  0  0  0
 32 31  1  0  0  0  0
 32 33  1  0  0  0  0
 35 38  1  0  0  0  0
 36 37  2  0  0  0  0
 36 34  1  0  0  0  0
 38 36  1  0  0  0  0
 40 39  1  1  0  0  0
 40 47  1  0  0  0  0
 41 44  1  0  0  0  0
 43 42  1  0  0  0  0
 44 40  1  6  0  0  0
 44 42  1  0  0  0  0
 46 45  1  0  0  0  0
 46 41  1  0  0  0  0
 46 43  1  0  0  0  0
 48 47  1  0  0  0  0
 48 49  1  0  0  0  0
 49 50  1  0  0  0  0
 50 51  1  0  0  0  0
 52 51  1  0  0  0  0
M  END
>  <MODEL>
8

>  <REMARK>
 VINA RESULT:      -3.5      2.453      4.269
  Name = 
  25 active torsions:
  status: ('A' for Active; 'I' for Inactive)
    1  A    between atoms: O_1  and  C_23
    2  A    between atoms: O_1  and  C_33
    3  A    between atoms: C_3  and  C_7
    4  A    between atoms: C_3  and  C_19
    5  A    between atoms: C_7  and  C_46
    6  A    between atoms: C_11  and  C_35
    7  A    between atoms: C_13  and  N_14
    8  A    between atoms: N_14  and  C_50
    9  A    between atoms: C_15  and  C_23
   10  A    between atoms: C_17  and  C_52
   11  A    between atoms: C_18  and  C_25
   12  A    between atoms: C_19  and  C_52
   13  A    between atoms: C_20  and  C_49
   14  A    between atoms: C_23  and  C_30
   15  A    between atoms: C_25  and  C_33
   16  A    between atoms: C_28  and  C_36
   17  A    between atoms: C_28  and  C_40
   18  A    between atoms: C_30  and  C_46
   19  A    between atoms: C_31  and  C_46
   20  A    between atoms: C_33  and  C_38
   21  A    between atoms: C_35  and  C_47
   22  A    between atoms: C_36  and  C_51
   23  A    between atoms: C_40  and  C_48
   24  A    between atoms: C_44  and  C_48
   25  A    between atoms: C_47  and  C_51
                            x       y       z     vdW  Elec       q    Type
                         _______ _______ _______ _____ _____    ______ ____

>  <TORSDO>
F 25

$$$$
=
 OpenBabel11072411333D

 52 54  0  0  1  0  0  0  0  0999 V2000
  161.7200  208.4630  147.5630 O   0  0  0  0  0  0  0  0  0  0  0  0
  162.2070  208.2700  148.7660 C   0  0  0  0  0  0  0  0  0  0  0  0
  161.4740  209.7400  147.3950 C   0  0  0  0  0  3  0  0  0  0  0  0
  162.3070  209.4610  149.4550 C   0  0  0  0  0  3  0  0  0  0  0  0
  161.8350  210.3990  148.5580 C   0  0  0  0  0  0  0  0  0  0  0  0
  160.6060  213.7850  149.8480 C   0  0  1  0  0  3  0  0  0  0  0  0
  161.7150  211.8460  148.8110 C   0  0  0  0  0  0  0  0  0  0  0  0
  160.0430  214.0500  151.0980 O   0  0  0  0  0  1  0  0  0  0  0  0
  160.8000  212.3090  149.6700 C   0  0  0  0  0  3  0  0  0  0  0  0
  162.8440  213.0040  147.9960 S   0  0  0  0  0  0  0  0  0  0  0  0
  160.1710  213.7650  147.3200 C   0  0  0  0  0  2  0  0  0  0  0  0
  161.6390  213.8770  146.9040 C   0  0  2  0  0  3  0  0  0  0  0  0
  159.8200  214.4410  148.6740 C   0  0  1  0  0  3  0  0  0  0  0  0
  158.0580  213.8370  150.2190 C   0  0  0  0  0  1  0  0  0  0  0  0
  158.3630  214.4460  148.9250 N   0  0  0  0  0  0  0  0  0  0  0  0
  157.7390  213.5580  147.9490 C   0  0  0  0  0  2  0  0  0  0  0  0
  156.7060  214.3230  147.1390 C   0  0  0  0  0  1  0  0  0  0  0  0
  161.7770  213.3720  145.4820 C   0  0  0  0  0  2  0  0  0  0  0  0
  160.9740  214.2340  144.5170 C   0  0  0  0  0  2  0  0  0  0  0  0
  160.3090  213.3550  143.4760 C   0  0  0  0  0  2  0  0  0  0  0  0
  159.6490  214.2070  142.4100 C   0  0  0  0  0  2  0  0  0  0  0  0
  158.6730  213.3580  141.6090 C   0  0  0  0  0  2  0  0  0  0  0  0
  158.8430  213.6290  140.1220 C   0  0  0  0  0  2  0  0  0  0  0  0
  159.9870  212.7850  139.5860 C   0  0  0  0  0  2  0  0  0  0  0  0
  159.8430  211.3600  140.0180 C   0  0  0  0  0  3  0  0  0  0  0  0
  159.1970  210.4820  139.2480 C   0  0  0  0  0  2  0  0  0  0  0  0
  162.6240  206.9400  149.3020 C   0  0  2  0  0  3  0  0  0  0  0  0
  161.7220  205.9470  148.8890 O   0  0  0  0  0  0  0  0  0  0  0  0
  161.7600  205.9560  147.4890 C   0  0  1  0  0  3  0  0  0  0  0  0
  164.1160  205.6360  147.6320 F   0  0  0  0  0  0  0  0  0  0  0  0
  162.8260  203.8320  147.2370 F   0  0  0  0  0  0  0  0  0  0  0  0
  162.9810  205.1840  146.9870 C   0  0  0  0  0  0  0  0  0  0  0  0
  163.1400  205.3800  145.6270 F   0  0  0  0  0  0  0  0  0  0  0  0
  160.4760  205.3370  146.9370 C   0  0  0  0  0  2  0  0  0  0  0  0
  160.5940  203.0130  145.2360 O   0  0  0  0  0  1  0  0  0  0  0  0
  160.4420  205.4160  145.4450 C   0  0  0  0  0  0  0  0  0  0  0  0
  160.3430  206.5680  144.8700 N   0  0  0  0  0  2  0  0  0  0  0  0
  160.5080  204.2300  144.6520 N   0  0  0  0  0  2  0  0  0  0  0  0
  162.7830  206.9890  150.8310 C   0  0  0  0  0  2  0  0  0  0  0  0
  161.9650  205.9370  151.5910 C   0  0  1  0  0  3  0  0  0  0  0  0
  160.8290  208.0840  152.2960 C   0  0  0  0  0  2  0  0  0  0  0  0
  160.9910  206.2710  153.8720 C   0  0  0  0  0  2  0  0  0  0  0  0
  160.8240  207.6030  154.5630 C   0  0  0  0  0  2  0  0  0  0  0  0
  160.8190  206.5660  152.4000 C   0  0  2  0  0  3  0  0  0  0  0  0
  160.2660  209.7490  153.8350 C   0  0  0  0  0  1  0  0  0  0  0  0
  161.1660  208.6360  153.6000 N   0  0  0  0  0  0  0  0  0  0  0  0
  161.4730  204.8280  150.6540 C   0  0  0  0  0  2  0  0  0  0  0  0
  160.8260  203.6710  151.4060 C   0  0  0  0  0  2  0  0  0  0  0  0
  160.5070  202.5360  150.4500 C   0  0  0  0  0  2  0  0  0  0  0  0
  160.9440  202.8860  149.0390 C   0  0  0  0  0  2  0  0  0  0  0  0
  160.7600  201.6790  148.1420 C   0  0  0  0  0  2  0  0  0  0  0  0
  161.4910  200.6080  148.6540 O   0  0  0  0  0  1  0  0  0  0  0  0
  1  2  1  0  0  0  0
  2 27  1  0  0  0  0
  2  4  2  0  0  0  0
  3  1  1  0  0  0  0
  3  5  2  0  0  0  0
  5  7  1  0  0  0  0
  5  4  1  0  0  0  0
  6  8  1  1  0  0  0
  7  9  2  0  0  0  0
  9  6  1  0  0  0  0
 10  7  1  0  0  0  0
 11 13  1  0  0  0  0
 12 18  1  6  0  0  0
 12 11  1  0  0  0  0
 12 10  1  0  0  0  0
 13 15  1  1  0  0  0
 13  6  1  0  0  0  0
 15 14  1  0  0  0  0
 16 15  1  0  0  0  0
 17 16  1  0  0  0  0
 19 18  1  0  0  0  0
 20 19  1  0  0  0  0
 21 20  1  0  0  0  0
 22 21  1  0  0  0  0
 23 22  1  0  0  0  0
 24 25  1  0  0  0  0
 24 23  1  0  0  0  0
 26 25  2  0  0  0  0
 27 39  1  1  0  0  0
 28 27  1  0  0  0  0
 29 34  1  6  0  0  0
 29 28  1  0  0  0  0
 32 31  1  0  0  0  0
 32 29  1  0  0  0  0
 32 30  1  0  0  0  0
 33 32  1  0  0  0  0
 36 34  1  0  0  0  0
 37 36  2  0  0  0  0
 38 35  1  0  0  0  0
 38 36  1  0  0  0  0
 39 40  1  0  0  0  0
 40 47  1  6  0  0  0
 41 44  1  0  0  0  0
 41 46  1  0  0  0  0
 42 43  1  0  0  0  0
 44 40  1  6  0  0  0
 44 42  1  0  0  0  0
 46 45  1  0  0  0  0
 46 43  1  0  0  0  0
 47 48  1  0  0  0  0
 49 48  1  0  0  0  0
 50 49  1  0  0  0  0
 51 52  1  0  0  0  0
 51 50  1  0  0  0  0
M  END
>  <MODEL>
9

>  <REMARK>
 VINA RESULT:      -3.1      2.545      5.121
  Name = 
  25 active torsions:
  status: ('A' for Active; 'I' for Inactive)
    1  A    between atoms: O_1  and  C_23
    2  A    between atoms: O_1  and  C_33
    3  A    between atoms: C_3  and  C_7
    4  A    between atoms: C_3  and  C_19
    5  A    between atoms: C_7  and  C_46
    6  A    between atoms: C_11  and  C_35
    7  A    between atoms: C_13  and  N_14
    8  A    between atoms: N_14  and  C_50
    9  A    between atoms: C_15  and  C_23
   10  A    between atoms: C_17  and  C_52
   11  A    between atoms: C_18  and  C_25
   12  A    between atoms: C_19  and  C_52
   13  A    between atoms: C_20  and  C_49
   14  A    between atoms: C_23  and  C_30
   15  A    between atoms: C_25  and  C_33
   16  A    between atoms: C_28  and  C_36
   17  A    between atoms: C_28  and  C_40
   18  A    between atoms: C_30  and  C_46
   19  A    between atoms: C_31  and  C_46
   20  A    between atoms: C_33  and  C_38
   21  A    between atoms: C_35  and  C_47
   22  A    between atoms: C_36  and  C_51
   23  A    between atoms: C_40  and  C_48
   24  A    between atoms: C_44  and  C_48
   25  A    between atoms: C_47  and  C_51
                            x       y       z     vdW  Elec       q    Type
                         _______ _______ _______ _____ _____    ______ ____

>  <TORSDO>
F 25

$$$$
