=
 OpenBabel11072413073D

 35 39  0  0  1  0  0  0  0  0999 V2000
  162.6740  210.2380  148.4900 C   0  0  0  0  0  1  0  0  0  0  0  0
  162.5050  209.9820  149.9770 C   0  0  1  0  0  3  0  0  0  0  0  0
  161.2510  210.7400  152.1010 C   0  0  0  0  0  0  0  0  0  0  0  0
  161.2330  207.0990  152.1930 C   0  0  0  0  0  0  0  0  0  0  0  0
  161.7360  211.1100  150.7060 C   0  0  2  0  0  3  0  0  0  0  0  0
  160.7910  207.3950  153.6230 C   0  0  0  0  0  2  0  0  0  0  0  0
  161.9370  208.3620  151.7290 C   0  0  1  0  0  3  0  0  0  0  0  0
  160.1190  206.8260  151.4160 F   0  0  0  0  0  0  0  0  0  0  0  0
  160.6230  208.9060  153.7320 C   0  0  0  0  0  2  0  0  0  0  0  0
  162.1020  206.0240  152.1700 F   0  0  0  0  0  0  0  0  0  0  0  0
  161.8790  208.6160  150.2290 C   0  0  0  0  0  2  0  0  0  0  0  0
  161.2840  209.4480  152.5130 C   0  0  0  0  0  0  0  0  0  0  0  0
  160.6440  211.8540  152.9230 C   0  0  2  0  0  3  0  0  0  0  0  0
  158.2630  211.4910  152.6520 O   0  0  0  0  0  0  0  0  0  0  0  0
  159.0140  213.6690  153.1080 C   0  0  0  0  0  2  0  0  0  0  0  0
  160.5600  211.5380  154.4290 C   0  0  0  0  0  2  0  0  0  0  0  0
  159.3120  212.3910  152.3610 C   0  0  1  0  0  3  0  0  0  0  0  0
  159.7410  212.5990  155.1910 C   0  0  0  0  0  2  0  0  0  0  0  0
  158.5100  213.0990  154.3950 C   0  0  2  0  0  3  0  0  0  0  0  0
  157.6660  211.9530  153.8480 C   0  0  2  0  0  3  0  0  0  0  0  0
  157.5420  210.9090  154.7710 O   0  0  0  0  0  0  0  0  0  0  0  0
  156.3540  211.5470  157.1990 O   0  0  0  0  0  1  0  0  0  0  0  0
  155.2700  212.4710  154.8410 O   0  0  0  0  0  0  0  0  0  0  0  0
  155.2010  209.9400  155.4810 O   0  0  0  0  0  1  0  0  0  0  0  0
  156.0700  211.1730  155.5720 P   0  0  0  0  0  0  0  0  0  0  0  0
  160.7740  212.6810  148.8980 C   0  0  0  0  0  0  0  0  0  0  0  0
  161.7580  214.1360  147.4740 C   0  0  0  0  0  3  0  0  0  0  0  0
  159.6100  213.2330  148.1580 C   0  0  2  0  0  3  0  0  0  0  0  0
  160.6450  211.6570  149.8930 N   0  0  0  0  0  2  0  0  0  0  0  0
  161.9120  213.1520  148.5280 N   0  0  0  0  0  0  0  0  0  0  0  0
  160.2660  214.1760  147.1570 C   0  0  0  0  0  3  0  0  0  0  0  0
  159.2790  214.4530  150.2250 O   0  0  0  0  0  1  0  0  0  0  0  0
  158.6440  214.0070  149.0610 C   0  0  2  0  0  3  0  0  0  0  0  0
  156.5050  213.9180  150.3370 C   0  0  0  0  0  1  0  0  0  0  0  0
  157.4330  213.1560  149.4120 C   0  0  0  0  0  2  0  0  0  0  0  0
  2  1  1  6  0  0  0
  2 11  1  0  0  0  0
  2  5  1  0  0  0  0
  3 12  2  0  0  0  0
  4  6  1  0  0  0  0
  5 29  1  6  0  0  0
  5  3  1  0  0  0  0
  6  9  1  0  0  0  0
  7 11  1  6  0  0  0
  7  4  1  0  0  0  0
  7 12  1  0  0  0  0
  8  4  1  0  0  0  0
 10  4  1  0  0  0  0
 12  9  1  0  0  0  0
 13  3  1  6  0  0  0
 13 16  1  0  0  0  0
 14 20  1  0  0  0  0
 16 18  1  0  0  0  0
 17 14  1  0  0  0  0
 17 13  1  0  0  0  0
 17 15  1  1  0  0  0
 19 15  1  6  0  0  0
 19 18  1  0  0  0  0
 20 19  1  0  0  0  0
 20 21  1  1  0  0  0
 21 25  1  0  0  0  0
 23 25  2  0  0  0  0
 24 25  1  0  0  0  0
 25 22  1  0  0  0  0
 26 29  1  0  0  0  0
 27 30  1  0  0  0  0
 28 26  1  0  0  0  0
 28 33  1  1  0  0  0
 30 26  2  0  0  0  0
 31 27  2  0  0  0  0
 31 28  1  0  0  0  0
 33 35  1  0  0  0  0
 33 32  1  1  0  0  0
 35 34  1  0  0  0  0
M  END
>  <MODEL>
1

>  <REMARK>
 VINA RESULT:      -4.3      0.000      0.000
  Name = 
  6 active torsions:
  status: ('A' for Active; 'I' for Inactive)
    1  A    between atoms: C_1  and  C_13
    2  A    between atoms: C_7  and  C_22
    3  A    between atoms: C_16  and  N_21
    4  A    between atoms: C_22  and  C_34
    5  A    between atoms: O_25  and  P_27
    6  A    between atoms: O_25  and  C_28
                            x       y       z     vdW  Elec       q    Type
                         _______ _______ _______ _____ _____    ______ ____

>  <TORSDO>
F 6

$$$$
=
 OpenBabel11072413073D

 35 39  0  0  1  0  0  0  0  0999 V2000
  161.5880  210.3330  150.6990 C   0  0  0  0  0  1  0  0  0  0  0  0
  161.7930  208.9290  151.2430 C   0  0  1  0  0  3  0  0  0  0  0  0
  161.0210  207.2520  153.0450 C   0  0  0  0  0  0  0  0  0  0  0  0
  161.3000  205.3300  149.9630 C   0  0  0  0  0  0  0  0  0  0  0  0
  161.1350  208.7120  152.6260 C   0  0  2  0  0  3  0  0  0  0  0  0
  161.1860  204.1890  150.9680 C   0  0  0  0  0  2  0  0  0  0  0  0
  161.7780  206.5230  150.7730 C   0  0  1  0  0  3  0  0  0  0  0  0
  160.0580  205.5680  149.3960 F   0  0  0  0  0  0  0  0  0  0  0  0
  160.9340  204.8220  152.3320 C   0  0  0  0  0  2  0  0  0  0  0  0
  162.2170  205.0150  148.9780 F   0  0  0  0  0  0  0  0  0  0  0  0
  161.3490  207.8800  150.2330 C   0  0  0  0  0  2  0  0  0  0  0  0
  161.2470  206.2660  152.1410 C   0  0  0  0  0  0  0  0  0  0  0  0
  160.5410  206.9870  154.4530 C   0  0  2  0  0  3  0  0  0  0  0  0
  162.1100  208.2430  155.8060 O   0  0  0  0  0  0  0  0  0  0  0  0
  161.0670  206.3690  156.7610 C   0  0  0  0  0  2  0  0  0  0  0  0
  159.3760  207.8930  154.8930 C   0  0  0  0  0  2  0  0  0  0  0  0
  161.6730  206.9360  155.4990 C   0  0  1  0  0  3  0  0  0  0  0  0
  159.0680  207.7410  156.3970 C   0  0  0  0  0  2  0  0  0  0  0  0
  160.3420  207.5770  157.2610 C   0  0  2  0  0  3  0  0  0  0  0  0
  161.3920  208.6410  156.9570 C   0  0  2  0  0  3  0  0  0  0  0  0
  160.8160  209.9030  156.7670 O   0  0  0  0  0  0  0  0  0  0  0  0
  161.7620  212.4760  157.2130 O   0  0  0  0  0  1  0  0  0  0  0  0
  163.4950  210.3350  157.2600 O   0  0  0  0  0  1  0  0  0  0  0  0
  162.3730  211.1400  155.0440 O   0  0  0  0  0  0  0  0  0  0  0  0
  162.1120  210.9700  156.5230 P   0  0  0  0  0  0  0  0  0  0  0  0
  159.6550  210.8190  152.8020 C   0  0  0  0  0  0  0  0  0  0  0  0
  160.1390  213.0250  152.6880 C   0  0  0  0  0  3  0  0  0  0  0  0
  158.3200  211.4440  152.9890 C   0  0  2  0  0  3  0  0  0  0  0  0
  159.8450  209.3990  152.7450 N   0  0  0  0  0  2  0  0  0  0  0  0
  160.6150  211.6570  152.6320 N   0  0  0  0  0  0  0  0  0  0  0  0
  158.6240  212.9310  152.8600 C   0  0  0  0  0  3  0  0  0  0  0  0
  156.3290  211.3740  154.3690 O   0  0  0  0  0  1  0  0  0  0  0  0
  157.7100  211.1450  154.3630 C   0  0  2  0  0  3  0  0  0  0  0  0
  157.8670  211.5720  156.8130 C   0  0  0  0  0  1  0  0  0  0  0  0
  158.3880  211.9690  155.4470 C   0  0  0  0  0  2  0  0  0  0  0  0
  2  1  1  6  0  0  0
  2  5  1  0  0  0  0
  4  7  1  0  0  0  0
  4  6  1  0  0  0  0
  5 29  1  6  0  0  0
  5  3  1  0  0  0  0
  6  9  1  0  0  0  0
  7 11  1  6  0  0  0
  7 12  1  0  0  0  0
  8  4  1  0  0  0  0
 10  4  1  0  0  0  0
 11  2  1  0  0  0  0
 12  9  1  0  0  0  0
 12  3  2  0  0  0  0
 13  3  1  6  0  0  0
 13 16  1  0  0  0  0
 13 17  1  0  0  0  0
 14 20  1  0  0  0  0
 15 19  1  0  0  0  0
 16 18  1  0  0  0  0
 17 14  1  0  0  0  0
 17 15  1  1  0  0  0
 19 18  1  6  0  0  0
 20 21  1  6  0  0  0
 20 19  1  0  0  0  0
 24 25  2  0  0  0  0
 25 21  1  0  0  0  0
 25 22  1  0  0  0  0
 25 23  1  0  0  0  0
 26 28  1  0  0  0  0
 27 31  2  0  0  0  0
 28 33  1  1  0  0  0
 29 26  1  0  0  0  0
 30 27  1  0  0  0  0
 30 26  2  0  0  0  0
 31 28  1  0  0  0  0
 33 32  1  6  0  0  0
 33 35  1  0  0  0  0
 35 34  1  0  0  0  0
M  END
>  <MODEL>
2

>  <REMARK>
 VINA RESULT:      -3.6      2.997      5.151
  Name = 
  6 active torsions:
  status: ('A' for Active; 'I' for Inactive)
    1  A    between atoms: C_1  and  C_13
    2  A    between atoms: C_7  and  C_22
    3  A    between atoms: C_16  and  N_21
    4  A    between atoms: C_22  and  C_34
    5  A    between atoms: O_25  and  P_27
    6  A    between atoms: O_25  and  C_28
                            x       y       z     vdW  Elec       q    Type
                         _______ _______ _______ _____ _____    ______ ____

>  <TORSDO>
F 6

$$$$
=
 OpenBabel11072413073D

 35 39  0  0  1  0  0  0  0  0999 V2000
  161.6180  210.5930  149.8490 C   0  0  0  0  0  1  0  0  0  0  0  0
  161.9020  209.6640  151.0170 C   0  0  1  0  0  3  0  0  0  0  0  0
  161.3330  209.1750  153.4850 C   0  0  0  0  0  0  0  0  0  0  0  0
  161.3690  205.9350  151.8210 C   0  0  0  0  0  0  0  0  0  0  0  0
  161.3770  210.2080  152.3680 C   0  0  2  0  0  3  0  0  0  0  0  0
  161.3710  205.4760  153.2750 C   0  0  0  0  0  2  0  0  0  0  0  0
  161.8940  207.3600  151.8550 C   0  0  1  0  0  3  0  0  0  0  0  0
  160.0760  205.8840  151.3250 F   0  0  0  0  0  0  0  0  0  0  0  0
  161.2320  206.7270  154.1350 C   0  0  0  0  0  2  0  0  0  0  0  0
  162.1990  205.1320  151.0610 F   0  0  0  0  0  0  0  0  0  0  0  0
  161.3890  208.2580  150.7350 C   0  0  0  0  0  2  0  0  0  0  0  0
  161.4960  207.8580  153.2020 C   0  0  0  0  0  0  0  0  0  0  0  0
  160.9900  209.6850  154.8660 C   0  0  2  0  0  3  0  0  0  0  0  0
  159.0940  211.1360  154.4520 O   0  0  0  0  0  0  0  0  0  0  0  0
  160.4440  211.5730  156.3230 C   0  0  0  0  0  2  0  0  0  0  0  0
  160.1190  208.7160  155.6870 C   0  0  0  0  0  2  0  0  0  0  0  0
  160.4390  211.1260  154.8800 C   0  0  1  0  0  3  0  0  0  0  0  0
  159.6140  209.3650  156.9920 C   0  0  0  0  0  2  0  0  0  0  0  0
  159.2290  210.8550  156.8160 C   0  0  2  0  0  3  0  0  0  0  0  0
  158.3050  211.0810  155.6250 C   0  0  2  0  0  3  0  0  0  0  0  0
  157.3360  210.0760  155.5180 O   0  0  0  0  0  0  0  0  0  0  0  0
  154.8020  210.1560  156.6530 O   0  0  0  0  0  1  0  0  0  0  0  0
  156.0810  212.4940  155.9510 O   0  0  0  0  0  1  0  0  0  0  0  0
  155.2120  210.8130  154.1500 O   0  0  0  0  0  0  0  0  0  0  0  0
  155.8390  210.8750  155.5250 P   0  0  0  0  0  0  0  0  0  0  0  0
  159.8860  212.1770  151.6200 C   0  0  0  0  0  0  0  0  0  0  0  0
  160.3330  214.0560  150.4450 C   0  0  0  0  0  3  0  0  0  0  0  0
  158.5590  212.8430  151.5750 C   0  0  2  0  0  3  0  0  0  0  0  0
  160.0900  210.8950  152.2300 N   0  0  0  0  0  2  0  0  0  0  0  0
  160.8220  212.8150  151.0120 N   0  0  0  0  0  0  0  0  0  0  0  0
  158.8350  214.0860  150.7380 C   0  0  0  0  0  3  0  0  0  0  0  0
  156.6710  213.5030  152.9430 O   0  0  0  0  0  1  0  0  0  0  0  0
  158.0460  213.2420  152.9630 C   0  0  2  0  0  3  0  0  0  0  0  0
  158.8010  214.4460  155.0100 C   0  0  0  0  0  1  0  0  0  0  0  0
  158.8060  214.4480  153.4950 C   0  0  0  0  0  2  0  0  0  0  0  0
  2  1  1  6  0  0  0
  2  5  1  0  0  0  0
  4  7  1  0  0  0  0
  4  6  1  0  0  0  0
  5 29  1  6  0  0  0
  5  3  1  0  0  0  0
  6  9  1  0  0  0  0
  7 11  1  6  0  0  0
  7 12  1  0  0  0  0
  8  4  1  0  0  0  0
 10  4  1  0  0  0  0
 11  2  1  0  0  0  0
 12  3  2  0  0  0  0
 12  9  1  0  0  0  0
 13  3  1  6  0  0  0
 13 17  1  0  0  0  0
 13 16  1  0  0  0  0
 14 17  1  0  0  0  0
 14 20  1  0  0  0  0
 16 18  1  0  0  0  0
 17 15  1  1  0  0  0
 19 15  1  6  0  0  0
 19 18  1  0  0  0  0
 20 21  1  6  0  0  0
 20 19  1  0  0  0  0
 21 25  1  0  0  0  0
 24 25  2  0  0  0  0
 25 23  1  0  0  0  0
 25 22  1  0  0  0  0
 26 29  1  0  0  0  0
 27 31  2  0  0  0  0
 27 30  1  0  0  0  0
 28 26  1  0  0  0  0
 28 33  1  1  0  0  0
 30 26  2  0  0  0  0
 31 28  1  0  0  0  0
 33 32  1  6  0  0  0
 33 35  1  0  0  0  0
 35 34  1  0  0  0  0
M  END
>  <MODEL>
3

>  <REMARK>
 VINA RESULT:      -3.4      1.752      2.723
  Name = 
  6 active torsions:
  status: ('A' for Active; 'I' for Inactive)
    1  A    between atoms: C_1  and  C_13
    2  A    between atoms: C_7  and  C_22
    3  A    between atoms: C_16  and  N_21
    4  A    between atoms: C_22  and  C_34
    5  A    between atoms: O_25  and  P_27
    6  A    between atoms: O_25  and  C_28
                            x       y       z     vdW  Elec       q    Type
                         _______ _______ _______ _____ _____    ______ ____

>  <TORSDO>
F 6

$$$$
=
 OpenBabel11072413073D

 35 39  0  0  1  0  0  0  0  0999 V2000
  161.7380  208.2570  150.8320 C   0  0  0  0  0  1  0  0  0  0  0  0
  161.2360  209.6290  150.4130 C   0  0  1  0  0  3  0  0  0  0  0  0
  160.6240  211.9830  151.2730 C   0  0  0  0  0  0  0  0  0  0  0  0
  162.5000  212.5150  148.1960 C   0  0  0  0  0  0  0  0  0  0  0  0
  160.8030  210.5090  151.6100 C   0  0  2  0  0  3  0  0  0  0  0  0
  161.9240  213.9140  148.3920 C   0  0  0  0  0  2  0  0  0  0  0  0
  161.5890  211.5990  148.9960 C   0  0  1  0  0  3  0  0  0  0  0  0
  163.7990  212.4810  148.6760 F   0  0  0  0  0  0  0  0  0  0  0  0
  161.1930  213.9100  149.7290 C   0  0  0  0  0  2  0  0  0  0  0  0
  162.4800  212.1680  146.8580 F   0  0  0  0  0  0  0  0  0  0  0  0
  162.2540  210.3370  149.5290 C   0  0  0  0  0  2  0  0  0  0  0  0
  161.0710  212.4690  150.0880 C   0  0  0  0  0  0  0  0  0  0  0  0
  160.0410  212.8590  152.3580 C   0  0  2  0  0  3  0  0  0  0  0  0
  157.6760  212.3450  152.2580 O   0  0  0  0  0  0  0  0  0  0  0  0
  158.3250  214.4530  153.0640 C   0  0  0  0  0  2  0  0  0  0  0  0
  160.1530  212.2550  153.7710 C   0  0  0  0  0  2  0  0  0  0  0  0
  158.6210  213.3740  152.0500 C   0  0  1  0  0  3  0  0  0  0  0  0
  159.3570  213.0730  154.8080 C   0  0  0  0  0  2  0  0  0  0  0  0
  158.0120  213.6050  154.2540 C   0  0  2  0  0  3  0  0  0  0  0  0
  157.1900  212.5150  153.5760 C   0  0  2  0  0  3  0  0  0  0  0  0
  157.2430  211.3060  154.2790 O   0  0  0  0  0  0  0  0  0  0  0  0
  155.1300  212.8260  155.2480 O   0  0  0  0  0  0  0  0  0  0  0  0
  154.9790  210.0750  155.2600 O   0  0  0  0  0  1  0  0  0  0  0  0
  156.6160  211.3630  156.8340 O   0  0  0  0  0  1  0  0  0  0  0  0
  156.0160  211.3970  155.4470 P   0  0  0  0  0  0  0  0  0  0  0  0
  161.4170  209.4710  153.8920 C   0  0  0  0  0  0  0  0  0  0  0  0
  160.4280  207.8690  155.1440 C   0  0  0  0  0  3  0  0  0  0  0  0
  162.3160  209.3940  155.0720 C   0  0  2  0  0  3  0  0  0  0  0  0
  161.6740  210.3340  152.7760 N   0  0  0  0  0  2  0  0  0  0  0  0
  160.4230  208.6560  153.9270 N   0  0  0  0  0  0  0  0  0  0  0  0
  161.6900  208.2790  155.8990 C   0  0  0  0  0  3  0  0  0  0  0  0
  163.6610  211.1700  156.0280 O   0  0  0  0  0  1  0  0  0  0  0  0
  162.3520  210.6960  155.8790 C   0  0  2  0  0  3  0  0  0  0  0  0
  160.3270  211.1460  157.2610 C   0  0  0  0  0  1  0  0  0  0  0  0
  161.7010  210.5070  157.2410 C   0  0  0  0  0  2  0  0  0  0  0  0
  2  1  1  1  0  0  0
  2  5  1  0  0  0  0
  3  5  1  0  0  0  0
  4  6  1  0  0  0  0
  4  8  1  0  0  0  0
  4  7  1  0  0  0  0
  5 29  1  1  0  0  0
  6  9  1  0  0  0  0
  7 11  1  1  0  0  0
  7 12  1  0  0  0  0
  9 12  1  0  0  0  0
 10  4  1  0  0  0  0
 11  2  1  0  0  0  0
 12  3  2  0  0  0  0
 13  3  1  6  0  0  0
 13 16  1  0  0  0  0
 14 20  1  0  0  0  0
 16 18  1  0  0  0  0
 17 14  1  0  0  0  0
 17 13  1  0  0  0  0
 17 15  1  1  0  0  0
 19 15  1  6  0  0  0
 19 18  1  0  0  0  0
 20 19  1  0  0  0  0
 20 21  1  1  0  0  0
 21 25  1  0  0  0  0
 22 25  2  0  0  0  0
 23 25  1  0  0  0  0
 25 24  1  0  0  0  0
 26 30  2  0  0  0  0
 26 28  1  0  0  0  0
 27 31  2  0  0  0  0
 28 33  1  1  0  0  0
 28 31  1  0  0  0  0
 29 26  1  0  0  0  0
 30 27  1  0  0  0  0
 33 32  1  1  0  0  0
 33 35  1  0  0  0  0
 35 34  1  0  0  0  0
M  END
>  <MODEL>
4

>  <REMARK>
 VINA RESULT:      -3.3      2.646      5.432
  Name = 
  6 active torsions:
  status: ('A' for Active; 'I' for Inactive)
    1  A    between atoms: C_1  and  C_13
    2  A    between atoms: C_7  and  C_22
    3  A    between atoms: C_16  and  N_21
    4  A    between atoms: C_22  and  C_34
    5  A    between atoms: O_25  and  P_27
    6  A    between atoms: O_25  and  C_28
                            x       y       z     vdW  Elec       q    Type
                         _______ _______ _______ _____ _____    ______ ____

>  <TORSDO>
F 6

$$$$
=
 OpenBabel11072413073D

 35 39  0  0  1  0  0  0  0  0999 V2000
  157.8930  212.7730  152.0780 C   0  0  0  0  0  1  0  0  0  0  0  0
  158.5790  211.6250  152.7970 C   0  0  1  0  0  3  0  0  0  0  0  0
  160.6720  210.1170  152.8070 C   0  0  0  0  0  0  0  0  0  0  0  0
  160.0860  211.0120  156.2890 C   0  0  0  0  0  0  0  0  0  0  0  0
  159.7550  211.0210  151.9940 C   0  0  2  0  0  3  0  0  0  0  0  0
  161.0940  209.8820  156.4800 C   0  0  0  0  0  2  0  0  0  0  0  0
  159.4900  210.7800  154.9110 C   0  0  1  0  0  3  0  0  0  0  0  0
  160.7430  212.2290  156.3570 F   0  0  0  0  0  0  0  0  0  0  0  0
  161.5530  209.4580  155.0900 C   0  0  0  0  0  2  0  0  0  0  0  0
  159.1030  210.9490  157.2580 F   0  0  0  0  0  0  0  0  0  0  0  0
  159.0040  212.0350  154.2010 C   0  0  0  0  0  2  0  0  0  0  0  0
  160.5760  210.0890  154.1600 C   0  0  0  0  0  0  0  0  0  0  0  0
  161.7370  209.3660  152.0400 C   0  0  2  0  0  3  0  0  0  0  0  0
  160.6700  207.2440  151.5650 O   0  0  0  0  0  0  0  0  0  0  0  0
  163.0130  207.3070  151.7020 C   0  0  0  0  0  2  0  0  0  0  0  0
  161.7870  209.7200  150.5410 C   0  0  0  0  0  2  0  0  0  0  0  0
  161.7270  207.8440  152.2840 C   0  0  1  0  0  3  0  0  0  0  0  0
  162.7310  208.7800  149.7630 C   0  0  0  0  0  2  0  0  0  0  0  0
  162.6570  207.3120  150.2500 C   0  0  2  0  0  3  0  0  0  0  0  0
  161.2240  206.8000  150.3430 C   0  0  2  0  0  3  0  0  0  0  0  0
  160.4450  207.2330  149.2630 O   0  0  0  0  0  0  0  0  0  0  0  0
  162.2740  206.6580  147.2540 O   0  0  0  0  0  1  0  0  0  0  0  0
  160.9770  204.6160  148.5730 O   0  0  0  0  0  1  0  0  0  0  0  0
  159.7090  206.2210  146.9480 O   0  0  0  0  0  0  0  0  0  0  0  0
  160.8160  206.1910  147.9780 P   0  0  0  0  0  0  0  0  0  0  0  0
  160.0420  212.8280  150.1740 C   0  0  0  0  0  0  0  0  0  0  0  0
  158.5950  213.7230  148.6850 C   0  0  0  0  0  3  0  0  0  0  0  0
  160.8990  213.8000  149.4470 C   0  0  2  0  0  3  0  0  0  0  0  0
  160.5220  212.0410  151.2720 N   0  0  0  0  0  2  0  0  0  0  0  0
  158.8200  212.7960  149.7760 N   0  0  0  0  0  0  0  0  0  0  0  0
  159.9220  214.4500  148.4770 C   0  0  0  0  0  3  0  0  0  0  0  0
  162.8970  214.0750  148.1030 O   0  0  0  0  0  1  0  0  0  0  0  0
  162.0420  213.1280  148.6780 C   0  0  2  0  0  3  0  0  0  0  0  0
  161.8730  212.6900  146.2310 C   0  0  0  0  0  1  0  0  0  0  0  0
  161.4980  212.1900  147.6110 C   0  0  0  0  0  2  0  0  0  0  0  0
  2  1  1  6  0  0  0
  2 11  1  0  0  0  0
  3 12  2  0  0  0  0
  4  8  1  0  0  0  0
  4  6  1  0  0  0  0
  4 10  1  0  0  0  0
  5 29  1  1  0  0  0
  5  2  1  0  0  0  0
  5  3  1  0  0  0  0
  7 11  1  6  0  0  0
  7  4  1  0  0  0  0
  9  6  1  0  0  0  0
 12  7  1  0  0  0  0
 12  9  1  0  0  0  0
 13 17  1  0  0  0  0
 13  3  1  6  0  0  0
 14 17  1  0  0  0  0
 16 13  1  0  0  0  0
 17 15  1  6  0  0  0
 18 16  1  0  0  0  0
 19 18  1  1  0  0  0
 19 20  1  0  0  0  0
 19 15  1  0  0  0  0
 20 21  1  6  0  0  0
 20 14  1  0  0  0  0
 22 25  1  0  0  0  0
 24 25  2  0  0  0  0
 25 23  1  0  0  0  0
 25 21  1  0  0  0  0
 26 29  1  0  0  0  0
 27 30  1  0  0  0  0
 28 33  1  6  0  0  0
 28 26  1  0  0  0  0
 30 26  2  0  0  0  0
 31 27  2  0  0  0  0
 31 28  1  0  0  0  0
 33 32  1  6  0  0  0
 34 35  1  0  0  0  0
 35 33  1  0  0  0  0
M  END
>  <MODEL>
5

>  <REMARK>
 VINA RESULT:      -3.1      3.955      6.088
  Name = 
  6 active torsions:
  status: ('A' for Active; 'I' for Inactive)
    1  A    between atoms: C_1  and  C_13
    2  A    between atoms: C_7  and  C_22
    3  A    between atoms: C_16  and  N_21
    4  A    between atoms: C_22  and  C_34
    5  A    between atoms: O_25  and  P_27
    6  A    between atoms: O_25  and  C_28
                            x       y       z     vdW  Elec       q    Type
                         _______ _______ _______ _____ _____    ______ ____

>  <TORSDO>
F 6

$$$$
=
 OpenBabel11072413073D

 35 39  0  0  1  0  0  0  0  0999 V2000
  156.9170  213.8430  150.6950 C   0  0  0  0  0  1  0  0  0  0  0  0
  157.5000  212.9390  151.7680 C   0  0  1  0  0  3  0  0  0  0  0  0
  159.6360  211.7130  152.5340 C   0  0  0  0  0  0  0  0  0  0  0  0
  158.2040  213.1770  155.5470 C   0  0  0  0  0  0  0  0  0  0  0  0
  158.8690  212.3340  151.3750 C   0  0  2  0  0  3  0  0  0  0  0  0
  159.2180  212.2280  156.1790 C   0  0  0  0  0  2  0  0  0  0  0  0
  157.9580  212.6210  154.1550 C   0  0  1  0  0  3  0  0  0  0  0  0
  158.7400  214.4530  155.4950 F   0  0  0  0  0  0  0  0  0  0  0  0
  160.0140  211.6050  155.0380 C   0  0  0  0  0  2  0  0  0  0  0  0
  157.0320  213.1850  156.2790 F   0  0  0  0  0  0  0  0  0  0  0  0
  157.5600  213.6540  153.1110 C   0  0  0  0  0  2  0  0  0  0  0  0
  159.2340  211.9310  153.8120 C   0  0  0  0  0  0  0  0  0  0  0  0
  160.8990  210.9600  152.1840 C   0  0  2  0  0  3  0  0  0  0  0  0
  160.4610  208.7380  153.0440 O   0  0  0  0  0  0  0  0  0  0  0  0
  162.6930  209.4480  152.8750 C   0  0  0  0  0  2  0  0  0  0  0  0
  160.9270  210.4370  150.7360 C   0  0  0  0  0  2  0  0  0  0  0  0
  161.2830  209.8740  153.2090 C   0  0  1  0  0  3  0  0  0  0  0  0
  162.1240  209.4950  150.4910 C   0  0  0  0  0  2  0  0  0  0  0  0
  162.4210  208.5700  151.6970 C   0  0  2  0  0  3  0  0  0  0  0  0
  161.1740  207.8530  152.2020 C   0  0  2  0  0  3  0  0  0  0  0  0
  160.3620  207.4150  151.1490 O   0  0  0  0  0  0  0  0  0  0  0  0
  161.9650  205.9890  149.3850 O   0  0  0  0  0  0  0  0  0  0  0  0
  161.8080  205.2390  152.0320 O   0  0  0  0  0  1  0  0  0  0  0  0
  159.7840  204.9570  150.4060 O   0  0  0  0  0  1  0  0  0  0  0  0
  160.9400  205.8770  150.7290 P   0  0  0  0  0  0  0  0  0  0  0  0
  159.6500  213.5220  149.2210 C   0  0  0  0  0  0  0  0  0  0  0  0
  158.8970  213.4460  147.0900 C   0  0  0  0  0  3  0  0  0  0  0  0
  160.5770  214.4520  148.5260 C   0  0  2  0  0  3  0  0  0  0  0  0
  159.7060  213.2820  150.6340 N   0  0  0  0  0  2  0  0  0  0  0  0
  158.7540  212.9980  148.4610 N   0  0  0  0  0  0  0  0  0  0  0  0
  160.0450  214.4520  147.0990 C   0  0  0  0  0  3  0  0  0  0  0  0
  162.7450  214.4470  147.4450 O   0  0  0  0  0  1  0  0  0  0  0  0
  162.0310  213.9710  148.5510 C   0  0  2  0  0  3  0  0  0  0  0  0
  163.3560  211.9550  147.9270 C   0  0  0  0  0  1  0  0  0  0  0  0
  162.0990  212.4520  148.6100 C   0  0  0  0  0  2  0  0  0  0  0  0
  2  1  1  6  0  0  0
  2 11  1  0  0  0  0
  3 12  2  0  0  0  0
  4  6  1  0  0  0  0
  4 10  1  0  0  0  0
  5 29  1  1  0  0  0
  5  2  1  0  0  0  0
  5  3  1  0  0  0  0
  7 11  1  6  0  0  0
  7  4  1  0  0  0  0
  8  4  1  0  0  0  0
  9  6  1  0  0  0  0
 12  7  1  0  0  0  0
 12  9  1  0  0  0  0
 13  3  1  1  0  0  0
 13 17  1  0  0  0  0
 14 17  1  0  0  0  0
 16 13  1  0  0  0  0
 17 15  1  6  0  0  0
 18 16  1  0  0  0  0
 19 18  1  6  0  0  0
 19 20  1  0  0  0  0
 19 15  1  0  0  0  0
 20 21  1  6  0  0  0
 20 14  1  0  0  0  0
 22 25  2  0  0  0  0
 24 25  1  0  0  0  0
 25 21  1  0  0  0  0
 25 23  1  0  0  0  0
 26 29  1  0  0  0  0
 27 31  2  0  0  0  0
 27 30  1  0  0  0  0
 28 33  1  6  0  0  0
 28 26  1  0  0  0  0
 30 26  2  0  0  0  0
 31 28  1  0  0  0  0
 33 32  1  6  0  0  0
 33 35  1  0  0  0  0
 34 35  1  0  0  0  0
M  END
>  <MODEL>
6

>  <REMARK>
 VINA RESULT:      -3.0      3.708      5.867
  Name = 
  6 active torsions:
  status: ('A' for Active; 'I' for Inactive)
    1  A    between atoms: C_1  and  C_13
    2  A    between atoms: C_7  and  C_22
    3  A    between atoms: C_16  and  N_21
    4  A    between atoms: C_22  and  C_34
    5  A    between atoms: O_25  and  P_27
    6  A    between atoms: O_25  and  C_28
                            x       y       z     vdW  Elec       q    Type
                         _______ _______ _______ _____ _____    ______ ____

>  <TORSDO>
F 6

$$$$
=
 OpenBabel11072413073D

 35 39  0  0  1  0  0  0  0  0999 V2000
  160.6810  205.9640  152.7480 C   0  0  0  0  0  1  0  0  0  0  0  0
  160.6180  207.1480  151.7980 C   0  0  1  0  0  3  0  0  0  0  0  0
  160.8540  209.7110  151.6330 C   0  0  0  0  0  0  0  0  0  0  0  0
  162.5820  208.3720  148.7190 C   0  0  0  0  0  0  0  0  0  0  0  0
  160.5740  208.5110  152.5270 C   0  0  2  0  0  3  0  0  0  0  0  0
  162.5000  209.8410  148.3160 C   0  0  0  0  0  2  0  0  0  0  0  0
  161.4840  208.1850  149.7520 C   0  0  1  0  0  3  0  0  0  0  0  0
  163.8320  208.1120  149.2560 F   0  0  0  0  0  0  0  0  0  0  0  0
  161.9010  210.5930  149.4990 C   0  0  0  0  0  2  0  0  0  0  0  0
  162.3590  207.5600  147.6230 F   0  0  0  0  0  0  0  0  0  0  0  0
  161.7450  207.0880  150.7750 C   0  0  0  0  0  2  0  0  0  0  0  0
  161.3490  209.5270  150.3830 C   0  0  0  0  0  0  0  0  0  0  0  0
  160.6590  211.0770  152.2510 C   0  0  2  0  0  3  0  0  0  0  0  0
  158.2540  211.3610  152.1920 O   0  0  0  0  0  0  0  0  0  0  0  0
  159.6050  213.2820  152.1640 C   0  0  0  0  0  2  0  0  0  0  0  0
  160.6600  211.0660  153.7910 C   0  0  0  0  0  2  0  0  0  0  0  0
  159.4660  211.8620  151.6690 C   0  0  1  0  0  3  0  0  0  0  0  0
  160.2430  212.4320  154.3730 C   0  0  0  0  0  2  0  0  0  0  0  0
  159.1110  213.1130  153.5640 C   0  0  2  0  0  3  0  0  0  0  0  0
  157.9370  212.1760  153.3040 C   0  0  2  0  0  3  0  0  0  0  0  0
  157.6400  211.3880  154.4220 O   0  0  0  0  0  0  0  0  0  0  0  0
  155.4220  211.0910  156.0680 O   0  0  0  0  0  1  0  0  0  0  0  0
  157.0870  213.2660  156.3640 O   0  0  0  0  0  1  0  0  0  0  0  0
  155.5570  212.9880  154.2660 O   0  0  0  0  0  0  0  0  0  0  0  0
  156.4000  212.2020  155.2450 P   0  0  0  0  0  0  0  0  0  0  0  0
  161.0690  208.0100  155.0100 C   0  0  0  0  0  0  0  0  0  0  0  0
  159.9030  206.8920  156.5920 C   0  0  0  0  0  3  0  0  0  0  0  0
  161.9560  208.1260  156.1960 C   0  0  2  0  0  3  0  0  0  0  0  0
  161.4220  208.5330  153.7230 N   0  0  0  0  0  2  0  0  0  0  0  0
  159.9870  207.3470  155.2190 N   0  0  0  0  0  0  0  0  0  0  0  0
  161.2060  207.3290  157.2560 C   0  0  0  0  0  3  0  0  0  0  0  0
  160.9190  210.2390  156.7740 O   0  0  0  0  0  1  0  0  0  0  0  0
  162.1460  209.5750  156.6570 C   0  0  2  0  0  3  0  0  0  0  0  0
  163.9440  211.2920  156.4840 C   0  0  0  0  0  1  0  0  0  0  0  0
  163.0670  210.3280  155.7100 C   0  0  0  0  0  2  0  0  0  0  0  0
  2  5  1  0  0  0  0
  2  1  1  1  0  0  0
  3  5  1  0  0  0  0
  4  8  1  0  0  0  0
  4  7  1  0  0  0  0
  5 29  1  1  0  0  0
  6  4  1  0  0  0  0
  6  9  1  0  0  0  0
  7 12  1  0  0  0  0
  7 11  1  1  0  0  0
  9 12  1  0  0  0  0
 10  4  1  0  0  0  0
 11  2  1  0  0  0  0
 12  3  2  0  0  0  0
 13  3  1  6  0  0  0
 13 16  1  0  0  0  0
 14 20  1  0  0  0  0
 16 18  1  0  0  0  0
 17 15  1  1  0  0  0
 17 14  1  0  0  0  0
 17 13  1  0  0  0  0
 19 15  1  6  0  0  0
 19 18  1  0  0  0  0
 20 19  1  0  0  0  0
 20 21  1  1  0  0  0
 21 25  1  0  0  0  0
 24 25  2  0  0  0  0
 25 22  1  0  0  0  0
 25 23  1  0  0  0  0
 26 30  2  0  0  0  0
 26 28  1  0  0  0  0
 27 31  2  0  0  0  0
 28 33  1  1  0  0  0
 28 31  1  0  0  0  0
 29 26  1  0  0  0  0
 30 27  1  0  0  0  0
 33 32  1  6  0  0  0
 35 34  1  0  0  0  0
 35 33  1  0  0  0  0
M  END
>  <MODEL>
7

>  <REMARK>
 VINA RESULT:      -2.8      2.624      5.630
  Name = 
  6 active torsions:
  status: ('A' for Active; 'I' for Inactive)
    1  A    between atoms: C_1  and  C_13
    2  A    between atoms: C_7  and  C_22
    3  A    between atoms: C_16  and  N_21
    4  A    between atoms: C_22  and  C_34
    5  A    between atoms: O_25  and  P_27
    6  A    between atoms: O_25  and  C_28
                            x       y       z     vdW  Elec       q    Type
                         _______ _______ _______ _____ _____    ______ ____

>  <TORSDO>
F 6

$$$$
=
 OpenBabel11072413073D

 35 39  0  0  1  0  0  0  0  0999 V2000
  160.5870  208.7890  153.5840 C   0  0  0  0  0  1  0  0  0  0  0  0
  160.6670  210.2340  153.1200 C   0  0  1  0  0  3  0  0  0  0  0  0
  161.1760  211.7560  151.1010 C   0  0  0  0  0  0  0  0  0  0  0  0
  158.2140  213.1710  152.6800 C   0  0  0  0  0  0  0  0  0  0  0  0
  161.3760  210.3960  151.7550 C   0  0  2  0  0  3  0  0  0  0  0  0
  158.5890  214.3260  151.7570 C   0  0  0  0  0  2  0  0  0  0  0  0
  159.4930  212.3690  152.8490 C   0  0  1  0  0  3  0  0  0  0  0  0
  157.2170  212.4130  152.0870 F   0  0  0  0  0  0  0  0  0  0  0  0
  159.7640  213.8520  150.9100 C   0  0  0  0  0  2  0  0  0  0  0  0
  157.7790  213.6520  153.9010 F   0  0  0  0  0  0  0  0  0  0  0  0
  159.2900  210.8860  153.1250 C   0  0  0  0  0  2  0  0  0  0  0  0
  160.2410  212.6130  151.5840 C   0  0  0  0  0  0  0  0  0  0  0  0
  161.9790  212.0310  149.8500 C   0  0  2  0  0  3  0  0  0  0  0  0
  160.3970  211.5640  148.0760 O   0  0  0  0  0  0  0  0  0  0  0  0
  162.6880  211.3190  147.6200 C   0  0  0  0  0  2  0  0  0  0  0  0
  162.0340  213.5210  149.4630 C   0  0  0  0  0  2  0  0  0  0  0  0
  161.6070  211.1270  148.6580 C   0  0  1  0  0  3  0  0  0  0  0  0
  162.6720  213.7280  148.0740 C   0  0  0  0  0  2  0  0  0  0  0  0
  162.2650  212.6370  147.0540 C   0  0  2  0  0  3  0  0  0  0  0  0
  160.7570  212.4160  147.0060 C   0  0  2  0  0  3  0  0  0  0  0  0
  160.0510  213.6230  147.0790 O   0  0  0  0  0  0  0  0  0  0  0  0
  158.7120  212.0600  145.2140 O   0  0  0  0  0  1  0  0  0  0  0  0
  157.5720  214.3900  146.1440 O   0  0  0  0  0  1  0  0  0  0  0  0
  159.6770  214.4160  144.5990 O   0  0  0  0  0  0  0  0  0  0  0  0
  159.0300  213.6430  145.7250 P   0  0  0  0  0  0  0  0  0  0  0  0
  161.5940  207.9820  150.8670 C   0  0  0  0  0  0  0  0  0  0  0  0
  162.7130  206.1770  151.6420 C   0  0  0  0  0  3  0  0  0  0  0  0
  161.2680  206.9490  149.8500 C   0  0  2  0  0  3  0  0  0  0  0  0
  161.0520  209.3090  150.8250 N   0  0  0  0  0  2  0  0  0  0  0  0
  162.3500  207.5690  151.8210 N   0  0  0  0  0  0  0  0  0  0  0  0
  161.9740  205.7120  150.3910 C   0  0  0  0  0  3  0  0  0  0  0  0
  160.8190  207.9120  147.6720 O   0  0  0  0  0  1  0  0  0  0  0  0
  161.8020  207.2970  148.4570 C   0  0  2  0  0  3  0  0  0  0  0  0
  161.2080  205.0930  147.4570 C   0  0  0  0  0  1  0  0  0  0  0  0
  162.3380  206.0570  147.7570 C   0  0  0  0  0  2  0  0  0  0  0  0
  2 11  1  0  0  0  0
  2  1  1  6  0  0  0
  3 12  2  0  0  0  0
  3  5  1  0  0  0  0
  4  7  1  0  0  0  0
  4 10  1  0  0  0  0
  5 29  1  6  0  0  0
  5  2  1  0  0  0  0
  6  4  1  0  0  0  0
  7 11  1  6  0  0  0
  8  4  1  0  0  0  0
  9 12  1  0  0  0  0
  9  6  1  0  0  0  0
 12  7  1  0  0  0  0
 13  3  1  1  0  0  0
 14 17  1  0  0  0  0
 16 13  1  0  0  0  0
 17 15  1  6  0  0  0
 17 13  1  0  0  0  0
 18 16  1  0  0  0  0
 19 15  1  1  0  0  0
 19 18  1  0  0  0  0
 20 19  1  0  0  0  0
 20 21  1  1  0  0  0
 20 14  1  0  0  0  0
 22 25  1  0  0  0  0
 24 25  2  0  0  0  0
 25 23  1  0  0  0  0
 25 21  1  0  0  0  0
 26 30  2  0  0  0  0
 27 30  1  0  0  0  0
 28 33  1  6  0  0  0
 28 31  1  0  0  0  0
 28 26  1  0  0  0  0
 29 26  1  0  0  0  0
 31 27  2  0  0  0  0
 33 32  1  6  0  0  0
 34 35  1  0  0  0  0
 35 33  1  0  0  0  0
M  END
>  <MODEL>
8

>  <REMARK>
 VINA RESULT:      -2.0      4.323      7.251
  Name = 
  6 active torsions:
  status: ('A' for Active; 'I' for Inactive)
    1  A    between atoms: C_1  and  C_13
    2  A    between atoms: C_7  and  C_22
    3  A    between atoms: C_16  and  N_21
    4  A    between atoms: C_22  and  C_34
    5  A    between atoms: O_25  and  P_27
    6  A    between atoms: O_25  and  C_28
                            x       y       z     vdW  Elec       q    Type
                         _______ _______ _______ _____ _____    ______ ____

>  <TORSDO>
F 6

$$$$
=
 OpenBabel11072413073D

 35 39  0  0  1  0  0  0  0  0999 V2000
  158.5520  213.1320  152.8880 C   0  0  0  0  0  1  0  0  0  0  0  0
  159.0170  211.7280  153.2380 C   0  0  1  0  0  3  0  0  0  0  0  0
  160.5200  209.7740  152.4790 C   0  0  0  0  0  0  0  0  0  0  0  0
  161.0320  210.0730  156.0730 C   0  0  0  0  0  0  0  0  0  0  0  0
  159.7490  211.0220  152.0720 C   0  0  2  0  0  3  0  0  0  0  0  0
  161.6800  208.7130  155.8340 C   0  0  0  0  0  2  0  0  0  0  0  0
  160.0960  210.2770  154.8940 C   0  0  1  0  0  3  0  0  0  0  0  0
  162.0140  211.0490  156.1150 F   0  0  0  0  0  0  0  0  0  0  0  0
  161.6660  208.4740  154.3280 C   0  0  0  0  0  2  0  0  0  0  0  0
  160.3210  210.0660  157.2580 F   0  0  0  0  0  0  0  0  0  0  0  0
  159.8510  211.7300  154.5120 C   0  0  0  0  0  2  0  0  0  0  0  0
  160.7310  209.5020  153.7910 C   0  0  0  0  0  0  0  0  0  0  0  0
  161.1150  208.9500  151.3590 C   0  0  2  0  0  3  0  0  0  0  0  0
  162.0250  207.0300  152.5230 O   0  0  0  0  0  0  0  0  0  0  0  0
  163.0010  207.6630  150.4830 C   0  0  0  0  0  2  0  0  0  0  0  0
  160.0870  208.0680  150.6260 C   0  0  0  0  0  2  0  0  0  0  0  0
  162.3800  208.1670  151.7640 C   0  0  1  0  0  3  0  0  0  0  0  0
  160.7690  207.0900  149.6460 C   0  0  0  0  0  2  0  0  0  0  0  0
  162.0940  206.5090  150.1970 C   0  0  2  0  0  3  0  0  0  0  0  0
  161.9440  205.9540  151.6090 C   0  0  2  0  0  3  0  0  0  0  0  0
  160.7390  205.2600  151.7720 O   0  0  0  0  0  0  0  0  0  0  0  0
  160.1830  202.6280  152.4640 O   0  0  0  0  0  1  0  0  0  0  0  0
  160.7100  203.2910  149.8420 O   0  0  0  0  0  0  0  0  0  0  0  0
  162.5680  203.3710  151.6760 O   0  0  0  0  0  1  0  0  0  0  0  0
  161.0960  203.6330  151.4520 P   0  0  0  0  0  0  0  0  0  0  0  0
  160.1750  212.7310  150.1840 C   0  0  0  0  0  0  0  0  0  0  0  0
  158.7950  213.7040  148.6810 C   0  0  0  0  0  3  0  0  0  0  0  0
  161.1070  213.5930  149.4140 C   0  0  2  0  0  3  0  0  0  0  0  0
  160.5960  211.9420  151.3050 N   0  0  0  0  0  2  0  0  0  0  0  0
  158.9490  212.7980  149.8020 N   0  0  0  0  0  0  0  0  0  0  0  0
  160.1790  214.2970  148.4320 C   0  0  0  0  0  3  0  0  0  0  0  0
  162.9570  213.6220  147.8490 O   0  0  0  0  0  1  0  0  0  0  0  0
  162.1710  212.7920  148.6570 C   0  0  2  0  0  3  0  0  0  0  0  0
  162.0730  210.3390  148.2240 C   0  0  0  0  0  1  0  0  0  0  0  0
  161.5290  211.6950  147.8200 C   0  0  0  0  0  2  0  0  0  0  0  0
  2  1  1  6  0  0  0
  2 11  1  0  0  0  0
  3 12  2  0  0  0  0
  4  8  1  0  0  0  0
  4 10  1  0  0  0  0
  5 29  1  1  0  0  0
  5  3  1  0  0  0  0
  5  2  1  0  0  0  0
  6  4  1  0  0  0  0
  7 11  1  6  0  0  0
  7  4  1  0  0  0  0
  9  6  1  0  0  0  0
 12  9  1  0  0  0  0
 12  7  1  0  0  0  0
 13 17  1  0  0  0  0
 13  3  1  1  0  0  0
 16 13  1  0  0  0  0
 17 15  1  6  0  0  0
 17 14  1  0  0  0  0
 18 16  1  0  0  0  0
 19 18  1  1  0  0  0
 19 15  1  0  0  0  0
 19 20  1  0  0  0  0
 20 21  1  6  0  0  0
 20 14  1  0  0  0  0
 23 25  2  0  0  0  0
 25 24  1  0  0  0  0
 25 21  1  0  0  0  0
 25 22  1  0  0  0  0
 26 29  1  0  0  0  0
 27 30  1  0  0  0  0
 28 33  1  6  0  0  0
 28 26  1  0  0  0  0
 30 26  2  0  0  0  0
 31 27  2  0  0  0  0
 31 28  1  0  0  0  0
 33 32  1  6  0  0  0
 35 34  1  0  0  0  0
 35 33  1  0  0  0  0
M  END
>  <MODEL>
9

>  <REMARK>
 VINA RESULT:      -1.8      4.091      5.992
  Name = 
  6 active torsions:
  status: ('A' for Active; 'I' for Inactive)
    1  A    between atoms: C_1  and  C_13
    2  A    between atoms: C_7  and  C_22
    3  A    between atoms: C_16  and  N_21
    4  A    between atoms: C_22  and  C_34
    5  A    between atoms: O_25  and  P_27
    6  A    between atoms: O_25  and  C_28
                            x       y       z     vdW  Elec       q    Type
                         _______ _______ _______ _____ _____    ______ ____

>  <TORSDO>
F 6

$$$$
