=
 OpenBabel11072412423D

 66 72  0  0  1  0  0  0  0  0999 V2000
  159.3440  210.9030  152.1250 O   0  0  0  0  0  0  0  0  0  0  0  0
  159.8400  211.9680  151.6770 C   0  0  0  0  0  0  0  0  0  0  0  0
  161.1420  211.2400  149.2630 C   0  0  1  0  0  3  0  0  0  0  0  0
  160.5550  211.9430  150.4460 N   0  0  0  0  0  0  0  0  0  0  0  0
  161.2650  212.6180  149.3160 C   0  0  2  0  0  3  0  0  0  0  0  0
  160.7420  212.6520  145.9540 C   0  0  1  0  0  3  0  0  0  0  0  0
  160.9550  213.7440  147.0120 C   0  0  1  0  0  3  0  0  0  0  0  0
  158.3240  212.9010  146.7800 C   0  0  0  0  0  2  0  0  0  0  0  0
  160.2900  213.3320  148.3480 C   0  0  1  0  0  3  0  0  0  0  0  0
  159.2510  212.4140  145.6590 C   0  0  0  0  0  2  0  0  0  0  0  0
  158.9290  212.6210  148.1540 C   0  0  0  0  0  2  0  0  0  0  0  0
  160.6540  212.6080  143.2220 S   0  0  0  0  0  0  0  0  0  0  0  0
  163.5620  213.8770  143.8300 C   0  0  0  0  0  3  0  0  0  0  0  0
  162.6830  213.4050  141.5110 C   0  0  1  0  0  3  0  0  0  0  0  0
  161.8680  212.1950  141.9770 C   0  0  0  0  0  2  0  0  0  0  0  0
  162.0140  214.0340  140.3880 N   0  0  0  0  0  1  0  0  0  0  0  0
  161.4730  212.9260  144.7210 N   0  0  0  0  0  0  0  0  0  0  0  0
  162.8810  213.2250  144.7790 C   0  0  0  0  0  3  0  0  0  0  0  0
  159.8620  213.8160  142.8050 O   0  0  0  0  0  0  0  0  0  0  0  0
  162.9440  214.4520  142.5950 C   0  0  0  0  0  2  0  0  0  0  0  0
  159.7280  211.4350  143.3900 O   0  0  0  0  0  0  0  0  0  0  0  0
  162.4880  214.0650  148.4840 O   0  0  0  0  0  1  0  0  0  0  0  0
  162.3140  214.0280  147.1790 O   0  0  0  0  0  0  0  0  0  0  0  0
  163.4930  211.0700  148.8580 O   0  0  0  0  0  1  0  0  0  0  0  0
  162.4580  210.5710  149.6510 C   0  0  2  0  0  3  0  0  0  0  0  0
  162.4410  209.0340  149.5440 C   0  0  2  0  0  3  0  0  0  0  0  0
  161.6360  208.4290  148.3860 C   0  0  2  0  0  3  0  0  0  0  0  0
  160.5630  207.6760  148.8620 O   0  0  0  0  0  1  0  0  0  0  0  0
  162.5230  207.5590  147.5180 C   0  0  0  0  0  1  0  0  0  0  0  0
  160.8840  208.5170  151.4290 C   0  0  0  0  0  1  0  0  0  0  0  0
  162.2840  208.3020  150.8820 C   0  0  1  0  0  3  0  0  0  0  0  0
  162.5770  206.8040  150.7790 C   0  0  0  0  0  2  0  0  0  0  0  0
  161.0500  207.9910  154.7350 C   0  0  0  0  0  2  0  0  0  0  0  0
  160.5910  206.1130  151.9690 O   0  0  0  0  0  0  0  0  0  0  0  0
  161.2310  206.6380  155.4330 C   0  0  0  0  0  2  0  0  0  0  0  0
  161.2800  206.7390  153.9320 C   0  0  0  0  0  0  0  0  0  0  0  0
  162.5590  206.5470  153.2330 C   0  0  0  0  0  2  0  0  0  0  0  0
  160.1900  206.2300  153.2380 O   0  0  0  0  0  0  0  0  0  0  0  0
  162.0080  206.0000  151.9460 C   0  0  2  0  0  0  0  0  0  0  0  0
  162.4260  204.5370  151.7430 C   0  0  0  0  0  2  0  0  0  0  0  0
  160.8520  202.6400  151.3750 C   0  0  0  0  0  3  0  0  0  0  0  0
  161.0910  204.4340  149.6230 C   0  0  0  0  0  2  0  0  0  0  0  0
  160.6070  202.3740  148.2950 C   0  0  2  0  0  3  0  0  0  0  0  0
  161.4830  203.6140  148.4050 C   0  0  0  0  0  2  0  0  0  0  0  0
  161.5270  203.7970  150.8630 N   0  0  0  0  0  0  0  0  0  0  0  0
  161.1380  201.3260  149.2630 C   0  0  0  0  0  2  0  0  0  0  0  0
  160.6270  201.5400  150.6540 C   0  0  0  0  0  3  0  0  0  0  0  0
  160.6140  201.8450  146.8500 C   0  0  2  0  0  3  0  0  0  0  0  0
  161.3620  200.6660  146.7760 O   0  0  0  0  0  1  0  0  0  0  0  0
  160.2280  203.0800  144.6790 C   0  0  0  0  0  1  0  0  0  0  0  0
  161.1850  202.8430  145.8350 C   0  0  1  0  0  3  0  0  0  0  0  0
  162.0770  204.7650  145.4830 O   0  0  0  0  0  1  0  0  0  0  0  0
  161.5220  204.0560  146.4430 O   0  0  0  0  0  0  0  0  0  0  0  0
  159.6850  213.1840  152.3530 O   0  0  0  0  0  0  0  0  0  0  0  0
  158.7350  213.4380  153.3990 C   0  0  2  0  0  3  0  0  0  0  0  0
  157.1400  214.2690  151.6460 C   0  0  0  0  0  2  0  0  0  0  0  0
  157.6240  214.4520  153.0850 C   0  0  1  0  0  3  0  0  0  0  0  0
  155.2980  214.0530  153.1340 O   0  0  0  0  0  0  0  0  0  0  0  0
  156.3910  214.2980  153.9950 C   0  0  0  0  0  2  0  0  0  0  0  0
  155.6960  214.0370  151.8190 C   0  0  0  0  0  0  0  0  0  0  0  0
  154.8990  213.8430  150.8660 O   0  0  0  0  0  0  0  0  0  0  0  0
  159.2730  213.4770  154.7070 O   0  0  0  0  0  0  0  0  0  0  0  0
  158.2210  213.0600  156.6790 F   0  0  0  0  0  0  0  0  0  0  0  0
  158.6520  212.4950  155.4930 C   0  0  2  0  0  3  0  0  0  0  0  0
  158.9150  210.1670  156.3250 C   0  0  0  0  0  1  0  0  0  0  0  0
  159.6420  211.3840  155.7870 C   0  0  0  0  0  2  0  0  0  0  0  0
  2  1  2  0  0  0  0
  2 54  1  0  0  0  0
  3  5  1  0  0  0  0
  3 25  1  1  0  0  0
  3  4  1  0  0  0  0
  4  2  1  0  0  0  0
  5  4  1  1  0  0  0
  6 17  1  6  0  0  0
  6  7  1  0  0  0  0
  7 23  1  1  0  0  0
  7  9  1  0  0  0  0
  8 11  1  0  0  0  0
  9 11  1  6  0  0  0
  9  5  1  0  0  0  0
 10  6  1  0  0  0  0
 10  8  1  0  0  0  0
 12 21  2  0  0  0  0
 12 17  1  0  0  0  0
 13 18  2  0  0  0  0
 14 16  1  6  0  0  0
 14 15  1  0  0  0  0
 14 20  1  0  0  0  0
 15 12  1  0  0  0  0
 17 18  1  0  0  0  0
 19 12  2  0  0  0  0
 20 13  1  0  0  0  0
 23 22  1  0  0  0  0
 25 24  1  6  0  0  0
 26 27  1  6  0  0  0
 26 25  1  0  0  0  0
 26 31  1  0  0  0  0
 27 29  1  1  0  0  0
 27 28  1  0  0  0  0
 31 30  1  6  0  0  0
 32 31  1  0  0  0  0
 33 35  1  0  0  0  0
 34 38  1  0  0  0  0
 36 33  1  0  0  0  0
 36 35  1  0  0  0  0
 37 36  1  0  0  0  0
 38 36  1  0  0  0  0
 39 32  1  6  0  0  0
 39 34  1  0  0  0  0
 39 37  1  0  0  0  0
 40 39  1  0  0  0  0
 42 45  1  0  0  0  0
 43 48  1  6  0  0  0
 43 44  1  0  0  0  0
 43 46  1  0  0  0  0
 44 42  1  0  0  0  0
 45 41  1  0  0  0  0
 45 40  1  0  0  0  0
 46 47  1  0  0  0  0
 47 41  2  0  0  0  0
 48 49  1  1  0  0  0
 51 50  1  6  0  0  0
 51 53  1  0  0  0  0
 51 48  1  0  0  0  0
 52 53  1  0  0  0  0
 55 54  1  6  0  0  0
 55 62  1  0  0  0  0
 56 60  1  0  0  0  0
 56 57  1  0  0  0  0
 57 55  1  1  0  0  0
 57 59  1  0  0  0  0
 58 59  1  0  0  0  0
 60 58  1  0  0  0  0
 61 60  2  0  0  0  0
 62 64  1  0  0  0  0
 64 66  1  0  0  0  0
 64 63  1  1  0  0  0
 66 65  1  0  0  0  0
M  END
>  <MODEL>
1

>  <REMARK>
 VINA RESULT:      -1.6      0.000      0.000
  Name = 
  20 active torsions:
  status: ('A' for Active; 'I' for Inactive)
    1  A    between atoms: C_6  and  O_8
    2  A    between atoms: C_6  and  C_19
    3  A    between atoms: C_6  and  O_57
    4  A    between atoms: O_8  and  C_65
    5  A    between atoms: C_12  and  C_18
    6  A    between atoms: O_17  and  C_45
    7  A    between atoms: C_18  and  C_23
    8  A    between atoms: C_18  and  C_32
    9  A    between atoms: C_20  and  O_57
   10  A    between atoms: C_23  and  C_52
   11  A    between atoms: C_24  and  N_42
   12  A    between atoms: C_24  and  C_64
   13  A    between atoms: C_26  and  C_65
   14  A    between atoms: N_29  and  C_30
   15  A    between atoms: C_31  and  C_32
   16  A    between atoms: C_34  and  C_40
   17  A    between atoms: C_40  and  C_45
   18  A    between atoms: C_47  and  O_51
   19  A    between atoms: C_52  and  C_64
   20  A    between atoms: C_54  and  C_58
                            x       y       z     vdW  Elec       q    Type
                         _______ _______ _______ _____ _____    ______ ____

>  <TORSDO>
F 20

$$$$
=
 OpenBabel11072412423D

 66 72  0  0  1  0  0  0  0  0999 V2000
  160.4750  206.5760  149.0550 O   0  0  0  0  0  0  0  0  0  0  0  0
  161.4260  206.3970  149.8590 C   0  0  0  0  0  0  0  0  0  0  0  0
  161.7340  208.8620  151.2300 C   0  0  1  0  0  3  0  0  0  0  0  0
  161.8230  207.4580  150.7200 N   0  0  0  0  0  0  0  0  0  0  0  0
  162.6300  208.0100  151.8520 C   0  0  2  0  0  3  0  0  0  0  0  0
  160.2120  208.9780  154.0420 C   0  0  1  0  0  3  0  0  0  0  0  0
  161.7150  208.6910  154.1700 C   0  0  1  0  0  3  0  0  0  0  0  0
  160.1190  206.4340  154.3760 C   0  0  0  0  0  2  0  0  0  0  0  0
  162.1200  207.5280  153.2320 C   0  0  1  0  0  3  0  0  0  0  0  0
  159.3560  207.7630  154.4370 C   0  0  0  0  0  2  0  0  0  0  0  0
  161.0640  206.3980  153.1770 C   0  0  0  0  0  2  0  0  0  0  0  0
  159.3830  211.5780  153.8870 S   0  0  0  0  0  0  0  0  0  0  0  0
  159.3120  210.9850  157.0620 C   0  0  0  0  0  3  0  0  0  0  0  0
  158.7550  213.2200  156.0280 C   0  0  1  0  0  3  0  0  0  0  0  0
  159.7400  213.0240  154.8730 C   0  0  0  0  0  2  0  0  0  0  0  0
  157.6380  214.0300  155.5780 N   0  0  0  0  0  1  0  0  0  0  0  0
  159.8070  210.1600  154.7960 N   0  0  0  0  0  0  0  0  0  0  0  0
  159.9840  210.1870  156.2260 C   0  0  0  0  0  3  0  0  0  0  0  0
  157.9240  211.5350  153.5240 O   0  0  0  0  0  0  0  0  0  0  0  0
  158.2240  211.9220  156.6390 C   0  0  0  0  0  2  0  0  0  0  0  0
  160.2090  211.6410  152.6320 O   0  0  0  0  0  0  0  0  0  0  0  0
  162.9330  210.1980  155.1010 O   0  0  0  0  0  1  0  0  0  0  0  0
  162.4720  209.8410  153.9210 O   0  0  0  0  0  0  0  0  0  0  0  0
  162.8270  210.9730  150.9660 O   0  0  0  0  0  1  0  0  0  0  0  0
  162.4670  209.8090  150.2840 C   0  0  2  0  0  3  0  0  0  0  0  0
  161.6640  210.1930  149.0270 C   0  0  2  0  0  3  0  0  0  0  0  0
  161.8510  209.3080  147.7880 C   0  0  2  0  0  3  0  0  0  0  0  0
  160.7610  208.4540  147.6140 O   0  0  0  0  0  1  0  0  0  0  0  0
  163.1230  208.4910  147.9040 C   0  0  0  0  0  1  0  0  0  0  0  0
  162.9910  212.1900  148.3190 C   0  0  0  0  0  1  0  0  0  0  0  0
  161.6160  211.6980  148.7340 C   0  0  1  0  0  3  0  0  0  0  0  0
  160.5880  212.0640  147.6610 C   0  0  0  0  0  2  0  0  0  0  0  0
  156.7210  213.0640  149.5150 C   0  0  0  0  0  2  0  0  0  0  0  0
  160.0190  213.7440  149.3010 O   0  0  0  0  0  0  0  0  0  0  0  0
  156.5540  214.4530  148.8910 C   0  0  0  0  0  2  0  0  0  0  0  0
  157.8890  213.7610  148.8730 C   0  0  0  0  0  0  0  0  0  0  0  0
  158.4280  213.2560  147.6010 C   0  0  0  0  0  2  0  0  0  0  0  0
  158.8640  214.2660  149.7230 O   0  0  0  0  0  0  0  0  0  0  0  0
  159.8890  213.3950  147.9300 C   0  0  2  0  0  0  0  0  0  0  0  0
  160.5570  214.4520  147.0400 C   0  0  0  0  0  2  0  0  0  0  0  0
  159.1100  214.2510  145.0210 C   0  0  0  0  0  3  0  0  0  0  0  0
  161.6180  214.1690  144.7850 C   0  0  0  0  0  2  0  0  0  0  0  0
  160.8030  212.6650  142.9630 C   0  0  2  0  0  3  0  0  0  0  0  0
  161.8100  212.8300  144.0940 C   0  0  0  0  0  2  0  0  0  0  0  0
  160.4150  214.1780  145.6130 N   0  0  0  0  0  0  0  0  0  0  0  0
  159.4700  212.2450  143.5660 C   0  0  0  0  0  2  0  0  0  0  0  0
  158.6880  213.4210  144.0660 C   0  0  0  0  0  3  0  0  0  0  0  0
  161.3060  211.6200  141.9520 C   0  0  2  0  0  3  0  0  0  0  0  0
  162.6310  211.8940  141.6000 O   0  0  0  0  0  1  0  0  0  0  0  0
  159.8920  212.9120  140.3040 C   0  0  0  0  0  1  0  0  0  0  0  0
  160.4690  211.5550  140.6690 C   0  0  1  0  0  3  0  0  0  0  0  0
  160.7140  209.8340  139.4070 O   0  0  0  0  0  1  0  0  0  0  0  0
  161.2080  211.0380  139.6010 O   0  0  0  0  0  0  0  0  0  0  0  0
  162.0890  205.1660  149.9380 O   0  0  0  0  0  0  0  0  0  0  0  0
  161.8280  204.0260  149.1060 C   0  0  2  0  0  3  0  0  0  0  0  0
  161.0930  203.8260  146.7130 C   0  0  0  0  0  2  0  0  0  0  0  0
  162.2700  204.1330  147.6380 C   0  0  1  0  0  3  0  0  0  0  0  0
  161.9580  205.9810  146.2030 O   0  0  0  0  0  0  0  0  0  0  0  0
  162.7800  205.5360  147.2620 C   0  0  0  0  0  2  0  0  0  0  0  0
  161.0120  205.0380  145.8800 C   0  0  0  0  0  0  0  0  0  0  0  0
  160.1670  205.2040  144.9640 O   0  0  0  0  0  0  0  0  0  0  0  0
  160.5970  203.3710  149.3470 O   0  0  0  0  0  0  0  0  0  0  0  0
  160.1200  201.1500  149.4420 F   0  0  0  0  0  0  0  0  0  0  0  0
  160.8370  202.1730  150.0360 C   0  0  2  0  0  3  0  0  0  0  0  0
  160.0620  203.7750  151.7720 C   0  0  0  0  0  1  0  0  0  0  0  0
  160.4040  202.3270  151.4820 C   0  0  0  0  0  2  0  0  0  0  0  0
  1  2  2  0  0  0  0
  2 54  1  0  0  0  0
  2  4  1  0  0  0  0
  3 25  1  6  0  0  0
  3  5  1  0  0  0  0
  4  3  1  0  0  0  0
  5  4  1  6  0  0  0
  5  9  1  0  0  0  0
  6  7  1  0  0  0  0
  6 10  1  1  0  0  0
  6 17  1  0  0  0  0
  7 23  1  6  0  0  0
  8 10  1  0  0  0  0
  9 11  1  6  0  0  0
  9  7  1  0  0  0  0
 11  8  1  0  0  0  0
 12 17  1  0  0  0  0
 12 15  1  0  0  0  0
 14 16  1  6  0  0  0
 14 20  1  0  0  0  0
 15 14  1  0  0  0  0
 17 18  1  0  0  0  0
 18 13  2  0  0  0  0
 19 12  2  0  0  0  0
 20 13  1  0  0  0  0
 21 12  2  0  0  0  0
 23 22  1  0  0  0  0
 25 24  1  1  0  0  0
 26 27  1  6  0  0  0
 26 25  1  0  0  0  0
 27 29  1  1  0  0  0
 28 27  1  0  0  0  0
 31 30  1  6  0  0  0
 31 26  1  0  0  0  0
 32 39  1  0  0  0  0
 32 31  1  0  0  0  0
 34 38  1  0  0  0  0
 35 33  1  0  0  0  0
 36 35  1  0  0  0  0
 36 33  1  0  0  0  0
 36 38  1  0  0  0  0
 37 39  1  0  0  0  0
 37 36  1  0  0  0  0
 39 40  1  6  0  0  0
 39 34  1  0  0  0  0
 41 45  1  0  0  0  0
 42 45  1  0  0  0  0
 43 48  1  6  0  0  0
 43 46  1  0  0  0  0
 43 44  1  0  0  0  0
 44 42  1  0  0  0  0
 45 40  1  0  0  0  0
 46 47  1  0  0  0  0
 47 41  2  0  0  0  0
 48 49  1  6  0  0  0
 51 50  1  6  0  0  0
 51 48  1  0  0  0  0
 52 53  1  0  0  0  0
 53 51  1  0  0  0  0
 55 62  1  6  0  0  0
 55 54  1  0  0  0  0
 56 57  1  0  0  0  0
 57 55  1  1  0  0  0
 58 59  1  0  0  0  0
 59 57  1  0  0  0  0
 60 58  1  0  0  0  0
 60 56  1  0  0  0  0
 61 60  2  0  0  0  0
 62 64  1  0  0  0  0
 64 63  1  6  0  0  0
 64 66  1  0  0  0  0
 66 65  1  0  0  0  0
M  END
>  <MODEL>
2

>  <REMARK>
 VINA RESULT:      -1.5      3.114     10.017
  Name = 
  20 active torsions:
  status: ('A' for Active; 'I' for Inactive)
    1  A    between atoms: C_6  and  O_8
    2  A    between atoms: C_6  and  C_19
    3  A    between atoms: C_6  and  O_57
    4  A    between atoms: O_8  and  C_65
    5  A    between atoms: C_12  and  C_18
    6  A    between atoms: O_17  and  C_45
    7  A    between atoms: C_18  and  C_23
    8  A    between atoms: C_18  and  C_32
    9  A    between atoms: C_20  and  O_57
   10  A    between atoms: C_23  and  C_52
   11  A    between atoms: C_24  and  N_42
   12  A    between atoms: C_24  and  C_64
   13  A    between atoms: C_26  and  C_65
   14  A    between atoms: N_29  and  C_30
   15  A    between atoms: C_31  and  C_32
   16  A    between atoms: C_34  and  C_40
   17  A    between atoms: C_40  and  C_45
   18  A    between atoms: C_47  and  O_51
   19  A    between atoms: C_52  and  C_64
   20  A    between atoms: C_54  and  C_58
                            x       y       z     vdW  Elec       q    Type
                         _______ _______ _______ _____ _____    ______ ____

>  <TORSDO>
F 20

$$$$
=
 OpenBabel11072412423D

 66 72  0  0  1  0  0  0  0  0999 V2000
  159.3360  210.0930  152.6440 O   0  0  0  0  0  0  0  0  0  0  0  0
  160.1980  211.0010  152.5250 C   0  0  0  0  0  0  0  0  0  0  0  0
  161.0440  210.8900  149.8180 C   0  0  1  0  0  3  0  0  0  0  0  0
  160.8120  211.2190  151.2590 N   0  0  0  0  0  0  0  0  0  0  0  0
  161.6980  211.9940  150.3360 C   0  0  2  0  0  3  0  0  0  0  0  0
  160.0830  213.1010  147.5530 C   0  0  1  0  0  3  0  0  0  0  0  0
  161.2730  213.6190  148.3740 C   0  0  1  0  0  3  0  0  0  0  0  0
  158.8040  214.4070  149.3570 C   0  0  0  0  0  2  0  0  0  0  0  0
  161.0550  213.3260  149.8780 C   0  0  1  0  0  3  0  0  0  0  0  0
  158.7630  213.7810  147.9570 C   0  0  0  0  0  2  0  0  0  0  0  0
  159.5890  213.5290  150.3280 C   0  0  0  0  0  2  0  0  0  0  0  0
  158.9170  213.0980  145.0810 S   0  0  0  0  0  0  0  0  0  0  0  0
  162.0170  213.7140  144.4160 C   0  0  0  0  0  3  0  0  0  0  0  0
  160.2190  213.4580  142.6620 C   0  0  1  0  0  3  0  0  0  0  0  0
  159.4320  212.4460  143.5000 C   0  0  0  0  0  2  0  0  0  0  0  0
  159.3010  214.2240  141.8410 N   0  0  0  0  0  1  0  0  0  0  0  0
  160.3060  213.2230  146.1160 N   0  0  0  0  0  0  0  0  0  0  0  0
  161.6510  213.2150  145.6010 C   0  0  0  0  0  3  0  0  0  0  0  0
  158.2810  214.4500  144.9120 O   0  0  0  0  0  0  0  0  0  0  0  0
  161.0890  214.4170  143.4760 C   0  0  0  0  0  2  0  0  0  0  0  0
  157.9190  212.1480  145.6850 O   0  0  0  0  0  0  0  0  0  0  0  0
  163.3300  214.0820  147.9520 O   0  0  0  0  0  1  0  0  0  0  0  0
  162.4790  213.0780  147.9130 O   0  0  0  0  0  0  0  0  0  0  0  0
  162.2510  209.4340  148.3530 O   0  0  0  0  0  1  0  0  0  0  0  0
  162.0020  209.7080  149.7000 C   0  0  2  0  0  3  0  0  0  0  0  0
  161.5080  208.4220  150.3890 C   0  0  2  0  0  3  0  0  0  0  0  0
  162.1880  208.0390  151.7100 C   0  0  2  0  0  3  0  0  0  0  0  0
  163.1070  207.0070  151.5200 O   0  0  0  0  0  1  0  0  0  0  0  0
  161.1560  207.6180  152.7380 C   0  0  0  0  0  1  0  0  0  0  0  0
  159.7800  206.8750  149.4570 C   0  0  0  0  0  1  0  0  0  0  0  0
  161.2520  207.2450  149.4390 C   0  0  1  0  0  3  0  0  0  0  0  0
  161.6990  207.5300  148.0030 C   0  0  0  0  0  2  0  0  0  0  0  0
  160.7550  206.2950  143.8840 C   0  0  0  0  0  2  0  0  0  0  0  0
  163.0890  206.5080  146.3120 O   0  0  0  0  0  0  0  0  0  0  0  0
  160.9060  204.7830  144.0890 C   0  0  0  0  0  2  0  0  0  0  0  0
  161.4490  205.7530  145.1040 C   0  0  0  0  0  0  0  0  0  0  0  0
  160.8010  205.8650  146.4190 C   0  0  0  0  0  2  0  0  0  0  0  0
  162.8290  205.8910  145.1550 O   0  0  0  0  0  0  0  0  0  0  0  0
  162.0150  206.2640  147.2110 C   0  0  2  0  0  0  0  0  0  0  0  0
  162.3990  205.1730  148.2210 C   0  0  0  0  0  2  0  0  0  0  0  0
  160.8340  203.5810  149.3280 C   0  0  0  0  0  3  0  0  0  0  0  0
  161.1690  203.4840  146.8330 C   0  0  0  0  0  2  0  0  0  0  0  0
  160.7400  201.1050  147.4630 C   0  0  2  0  0  3  0  0  0  0  0  0
  161.6170  202.0440  146.6460 C   0  0  0  0  0  2  0  0  0  0  0  0
  161.5400  203.9950  148.1510 N   0  0  0  0  0  0  0  0  0  0  0  0
  161.2170  201.1420  148.9080 C   0  0  0  0  0  2  0  0  0  0  0  0
  160.6390  202.3030  149.6580 C   0  0  0  0  0  3  0  0  0  0  0  0
  160.8160  199.6780  146.8930 C   0  0  2  0  0  3  0  0  0  0  0  0
  161.7350  198.9200  147.6240 O   0  0  0  0  0  1  0  0  0  0  0  0
  161.8880  198.3130  145.0560 C   0  0  0  0  0  1  0  0  0  0  0  0
  161.2180  199.6290  145.4140 C   0  0  1  0  0  3  0  0  0  0  0  0
  159.5360  200.9230  145.0830 O   0  0  0  0  0  1  0  0  0  0  0  0
  160.1220  199.8590  144.5770 O   0  0  0  0  0  0  0  0  0  0  0  0
  160.5500  211.8180  153.6060 O   0  0  0  0  0  0  0  0  0  0  0  0
  159.9430  211.7820  154.9070 C   0  0  2  0  0  3  0  0  0  0  0  0
  157.8740  213.0770  154.3170 C   0  0  0  0  0  2  0  0  0  0  0  0
  159.0560  212.9790  155.2820 C   0  0  1  0  0  3  0  0  0  0  0  0
  157.0630  212.9130  156.5460 O   0  0  0  0  0  0  0  0  0  0  0  0
  158.4670  212.8720  156.7010 C   0  0  0  0  0  2  0  0  0  0  0  0
  156.7130  213.0310  155.2220 C   0  0  0  0  0  0  0  0  0  0  0  0
  155.5190  213.0930  154.8340 O   0  0  0  0  0  0  0  0  0  0  0  0
  160.7540  211.2490  155.9370 O   0  0  0  0  0  0  0  0  0  0  0  0
  159.4150  209.4620  156.3690 F   0  0  0  0  0  0  0  0  0  0  0  0
  160.6650  209.8500  155.9200 C   0  0  2  0  0  3  0  0  0  0  0  0
  162.9540  210.1670  156.8370 C   0  0  0  0  0  1  0  0  0  0  0  0
  161.7350  209.2660  156.8230 C   0  0  0  0  0  2  0  0  0  0  0  0
  2  1  2  0  0  0  0
  2 54  1  0  0  0  0
  3 25  1  1  0  0  0
  3  5  1  0  0  0  0
  3  4  1  0  0  0  0
  4  2  1  0  0  0  0
  5  4  1  1  0  0  0
  6 17  1  6  0  0  0
  6 10  1  0  0  0  0
  6  7  1  0  0  0  0
  7 23  1  6  0  0  0
  7  9  1  0  0  0  0
  8 11  1  0  0  0  0
  9 11  1  6  0  0  0
  9  5  1  0  0  0  0
 10  8  1  0  0  0  0
 12 21  2  0  0  0  0
 12 17  1  0  0  0  0
 13 18  2  0  0  0  0
 14 16  1  1  0  0  0
 14 20  1  0  0  0  0
 14 15  1  0  0  0  0
 15 12  1  0  0  0  0
 18 17  1  0  0  0  0
 19 12  2  0  0  0  0
 20 13  1  0  0  0  0
 23 22  1  0  0  0  0
 25 24  1  6  0  0  0
 25 26  1  0  0  0  0
 26 31  1  6  0  0  0
 26 27  1  0  0  0  0
 27 29  1  1  0  0  0
 28 27  1  0  0  0  0
 31 30  1  6  0  0  0
 32 31  1  0  0  0  0
 33 35  1  0  0  0  0
 33 36  1  0  0  0  0
 34 39  1  0  0  0  0
 35 36  1  0  0  0  0
 36 38  1  0  0  0  0
 36 37  1  0  0  0  0
 37 39  1  0  0  0  0
 38 34  1  0  0  0  0
 39 32  1  1  0  0  0
 39 40  1  0  0  0  0
 41 47  2  0  0  0  0
 42 45  1  0  0  0  0
 43 48  1  6  0  0  0
 43 46  1  0  0  0  0
 44 42  1  0  0  0  0
 44 43  1  0  0  0  0
 45 40  1  0  0  0  0
 45 41  1  0  0  0  0
 46 47  1  0  0  0  0
 48 49  1  1  0  0  0
 51 50  1  6  0  0  0
 51 48  1  0  0  0  0
 53 52  1  0  0  0  0
 53 51  1  0  0  0  0
 55 54  1  6  0  0  0
 55 62  1  0  0  0  0
 56 60  1  0  0  0  0
 56 57  1  0  0  0  0
 57 55  1  6  0  0  0
 57 59  1  0  0  0  0
 58 59  1  0  0  0  0
 60 58  1  0  0  0  0
 61 60  2  0  0  0  0
 64 62  1  0  0  0  0
 64 63  1  1  0  0  0
 64 66  1  0  0  0  0
 66 65  1  0  0  0  0
M  END
>  <MODEL>
3

>  <REMARK>
 VINA RESULT:      -0.3      2.034      3.855
  Name = 
  20 active torsions:
  status: ('A' for Active; 'I' for Inactive)
    1  A    between atoms: C_6  and  O_8
    2  A    between atoms: C_6  and  C_19
    3  A    between atoms: C_6  and  O_57
    4  A    between atoms: O_8  and  C_65
    5  A    between atoms: C_12  and  C_18
    6  A    between atoms: O_17  and  C_45
    7  A    between atoms: C_18  and  C_23
    8  A    between atoms: C_18  and  C_32
    9  A    between atoms: C_20  and  O_57
   10  A    between atoms: C_23  and  C_52
   11  A    between atoms: C_24  and  N_42
   12  A    between atoms: C_24  and  C_64
   13  A    between atoms: C_26  and  C_65
   14  A    between atoms: N_29  and  C_30
   15  A    between atoms: C_31  and  C_32
   16  A    between atoms: C_34  and  C_40
   17  A    between atoms: C_40  and  C_45
   18  A    between atoms: C_47  and  O_51
   19  A    between atoms: C_52  and  C_64
   20  A    between atoms: C_54  and  C_58
                            x       y       z     vdW  Elec       q    Type
                         _______ _______ _______ _____ _____    ______ ____

>  <TORSDO>
F 20

$$$$
=
 OpenBabel11072412423D

 66 72  0  0  1  0  0  0  0  0999 V2000
  159.9330  209.2880  152.0990 O   0  0  0  0  0  0  0  0  0  0  0  0
  160.8100  210.1780  151.9530 C   0  0  0  0  0  0  0  0  0  0  0  0
  161.4030  210.2090  149.1780 C   0  0  1  0  0  3  0  0  0  0  0  0
  161.3140  210.4560  150.6510 N   0  0  0  0  0  0  0  0  0  0  0  0
  162.1370  211.2610  149.6970 C   0  0  2  0  0  3  0  0  0  0  0  0
  160.5620  212.6690  147.0290 C   0  0  1  0  0  3  0  0  0  0  0  0
  161.7400  213.0930  147.9190 C   0  0  1  0  0  3  0  0  0  0  0  0
  159.2560  213.7690  148.9460 C   0  0  0  0  0  2  0  0  0  0  0  0
  161.5000  212.6360  149.3780 C   0  0  1  0  0  3  0  0  0  0  0  0
  159.2360  213.3010  147.4860 C   0  0  0  0  0  2  0  0  0  0  0  0
  160.0270  212.7890  149.8270 C   0  0  0  0  0  2  0  0  0  0  0  0
  159.4280  212.9750  144.5610 S   0  0  0  0  0  0  0  0  0  0  0  0
  162.5500  213.5890  144.0020 C   0  0  0  0  0  3  0  0  0  0  0  0
  160.7680  213.5770  142.2120 C   0  0  1  0  0  3  0  0  0  0  0  0
  159.9490  212.4960  142.9210 C   0  0  0  0  0  2  0  0  0  0  0  0
  159.8790  214.4530  141.4740 N   0  0  0  0  0  1  0  0  0  0  0  0
  160.8060  212.9480  145.6180 N   0  0  0  0  0  0  0  0  0  0  0  0
  162.1580  212.9670  145.1190 C   0  0  0  0  0  3  0  0  0  0  0  0
  158.8250  214.3530  144.5410 O   0  0  0  0  0  0  0  0  0  0  0  0
  161.6500  214.4160  143.1390 C   0  0  0  0  0  2  0  0  0  0  0  0
  158.4010  211.9870  145.0430 O   0  0  0  0  0  0  0  0  0  0  0  0
  163.7700  212.6270  148.4510 O   0  0  0  0  0  1  0  0  0  0  0  0
  162.9520  212.6050  147.4200 O   0  0  0  0  0  0  0  0  0  0  0  0
  162.9990  209.2060  147.7060 O   0  0  0  0  0  1  0  0  0  0  0  0
  162.3070  209.0110  148.9020 C   0  0  2  0  0  3  0  0  0  0  0  0
  161.5660  207.6620  148.8370 C   0  0  2  0  0  3  0  0  0  0  0  0
  161.4470  206.8720  150.1470 C   0  0  2  0  0  3  0  0  0  0  0  0
  160.1230  206.8200  150.5830 O   0  0  0  0  0  1  0  0  0  0  0  0
  162.3130  207.4950  151.2240 C   0  0  0  0  0  1  0  0  0  0  0  0
  163.3640  206.4190  147.6250 C   0  0  0  0  0  1  0  0  0  0  0  0
  161.8970  206.8090  147.6060 C   0  0  1  0  0  3  0  0  0  0  0  0
  161.0280  205.5550  147.4980 C   0  0  0  0  0  2  0  0  0  0  0  0
  161.7140  206.7570  143.3180 C   0  0  0  0  0  2  0  0  0  0  0  0
  162.6700  204.8010  145.8950 O   0  0  0  0  0  0  0  0  0  0  0  0
  161.3190  205.4300  142.6610 C   0  0  0  0  0  2  0  0  0  0  0  0
  161.6030  205.5000  144.1370 C   0  0  0  0  0  0  0  0  0  0  0  0
  160.4980  205.3510  145.0960 C   0  0  0  0  0  2  0  0  0  0  0  0
  162.7900  204.9260  144.5700 O   0  0  0  0  0  0  0  0  0  0  0  0
  161.2890  204.7510  146.2260 C   0  0  2  0  0  0  0  0  0  0  0  0
  160.8530  203.3050  146.4980 C   0  0  0  0  0  2  0  0  0  0  0  0
  161.1760  201.4430  148.1220 C   0  0  0  0  0  3  0  0  0  0  0  0
  161.8040  203.7960  148.7670 C   0  0  0  0  0  2  0  0  0  0  0  0
  161.0560  202.7750  150.9210 C   0  0  2  0  0  3  0  0  0  0  0  0
  160.9670  203.9980  150.0180 C   0  0  0  0  0  2  0  0  0  0  0  0
  161.1770  202.8500  147.8470 N   0  0  0  0  0  0  0  0  0  0  0  0
  160.1160  201.7090  150.3750 C   0  0  0  0  0  2  0  0  0  0  0  0
  160.7480  200.9170  149.2720 C   0  0  0  0  0  3  0  0  0  0  0  0
  160.6840  203.1520  152.3650 C   0  0  2  0  0  3  0  0  0  0  0  0
  159.3840  203.6640  152.4060 O   0  0  0  0  0  1  0  0  0  0  0  0
  162.7680  204.5470  152.0540 C   0  0  0  0  0  1  0  0  0  0  0  0
  161.6290  204.1850  152.9920 C   0  0  1  0  0  3  0  0  0  0  0  0
  161.8850  206.1970  153.6990 O   0  0  0  0  0  1  0  0  0  0  0  0
  160.9410  205.3350  153.3870 O   0  0  0  0  0  0  0  0  0  0  0  0
  161.2860  210.9170  153.0430 O   0  0  0  0  0  0  0  0  0  0  0  0
  160.5010  211.3330  154.1710 C   0  0  2  0  0  3  0  0  0  0  0  0
  158.3500  212.2810  153.2870 C   0  0  0  0  0  2  0  0  0  0  0  0
  159.6660  212.6110  153.9910 C   0  0  1  0  0  3  0  0  0  0  0  0
  157.8910  213.3390  155.3660 O   0  0  0  0  0  0  0  0  0  0  0  0
  159.3030  213.2860  155.3260 C   0  0  0  0  0  2  0  0  0  0  0  0
  157.3420  212.7850  154.2340 C   0  0  0  0  0  0  0  0  0  0  0  0
  156.1020  212.7210  154.0380 O   0  0  0  0  0  0  0  0  0  0  0  0
  161.1140  211.1520  155.4330 O   0  0  0  0  0  0  0  0  0  0  0  0
  161.9340  209.0440  155.2000 F   0  0  0  0  0  0  0  0  0  0  0  0
  162.2760  210.3820  155.2780 C   0  0  2  0  0  3  0  0  0  0  0  0
  162.7380  211.8200  157.2530 C   0  0  0  0  0  1  0  0  0  0  0  0
  163.1920  210.6060  156.4660 C   0  0  0  0  0  2  0  0  0  0  0  0
  2  1  2  0  0  0  0
  2 54  1  0  0  0  0
  3 25  1  1  0  0  0
  3  5  1  0  0  0  0
  3  4  1  0  0  0  0
  4  2  1  0  0  0  0
  5  4  1  1  0  0  0
  6 17  1  6  0  0  0
  6 10  1  0  0  0  0
  6  7  1  0  0  0  0
  7 23  1  6  0  0  0
  7  9  1  0  0  0  0
  8 11  1  0  0  0  0
  9  5  1  0  0  0  0
  9 11  1  6  0  0  0
 10  8  1  0  0  0  0
 12 21  2  0  0  0  0
 12 17  1  0  0  0  0
 13 18  2  0  0  0  0
 14 16  1  1  0  0  0
 14 15  1  0  0  0  0
 14 20  1  0  0  0  0
 15 12  1  0  0  0  0
 18 17  1  0  0  0  0
 19 12  2  0  0  0  0
 20 13  1  0  0  0  0
 23 22  1  0  0  0  0
 25 24  1  6  0  0  0
 26 31  1  6  0  0  0
 26 25  1  0  0  0  0
 26 27  1  0  0  0  0
 27 28  1  0  0  0  0
 27 29  1  1  0  0  0
 31 30  1  1  0  0  0
 32 31  1  0  0  0  0
 33 36  1  0  0  0  0
 34 39  1  0  0  0  0
 35 33  1  0  0  0  0
 35 36  1  0  0  0  0
 36 38  1  0  0  0  0
 36 37  1  0  0  0  0
 37 39  1  0  0  0  0
 38 34  1  0  0  0  0
 39 40  1  1  0  0  0
 39 32  1  0  0  0  0
 40 45  1  0  0  0  0
 41 47  2  0  0  0  0
 42 44  1  0  0  0  0
 43 48  1  1  0  0  0
 44 43  1  0  0  0  0
 45 41  1  0  0  0  0
 45 42  1  0  0  0  0
 46 43  1  0  0  0  0
 47 46  1  0  0  0  0
 48 49  1  6  0  0  0
 48 51  1  0  0  0  0
 51 50  1  6  0  0  0
 51 53  1  0  0  0  0
 53 52  1  0  0  0  0
 55 54  1  6  0  0  0
 55 62  1  0  0  0  0
 56 57  1  0  0  0  0
 56 60  1  0  0  0  0
 57 55  1  1  0  0  0
 57 59  1  0  0  0  0
 59 58  1  0  0  0  0
 60 58  1  0  0  0  0
 61 60  2  0  0  0  0
 64 63  1  1  0  0  0
 64 62  1  0  0  0  0
 64 66  1  0  0  0  0
 66 65  1  0  0  0  0
M  END
>  <MODEL>
4

>  <REMARK>
 VINA RESULT:       1.3      1.953      4.508
  Name = 
  20 active torsions:
  status: ('A' for Active; 'I' for Inactive)
    1  A    between atoms: C_6  and  O_8
    2  A    between atoms: C_6  and  C_19
    3  A    between atoms: C_6  and  O_57
    4  A    between atoms: O_8  and  C_65
    5  A    between atoms: C_12  and  C_18
    6  A    between atoms: O_17  and  C_45
    7  A    between atoms: C_18  and  C_23
    8  A    between atoms: C_18  and  C_32
    9  A    between atoms: C_20  and  O_57
   10  A    between atoms: C_23  and  C_52
   11  A    between atoms: C_24  and  N_42
   12  A    between atoms: C_24  and  C_64
   13  A    between atoms: C_26  and  C_65
   14  A    between atoms: N_29  and  C_30
   15  A    between atoms: C_31  and  C_32
   16  A    between atoms: C_34  and  C_40
   17  A    between atoms: C_40  and  C_45
   18  A    between atoms: C_47  and  O_51
   19  A    between atoms: C_52  and  C_64
   20  A    between atoms: C_54  and  C_58
                            x       y       z     vdW  Elec       q    Type
                         _______ _______ _______ _____ _____    ______ ____

>  <TORSDO>
F 20

$$$$
