=
 OpenBabel11072411113D

 30 34  0  0  1  0  0  0  0  0999 V2000
  161.3870  205.9210  148.6050 C   0  0  0  0  0  0  0  0  0  0  0  0
  161.5760  208.2080  147.9870 C   0  0  0  0  0  3  0  0  0  0  0  0
  161.5360  206.8720  147.6150 C   0  0  0  0  0  0  0  0  0  0  0  0
  160.6540  201.1700  149.4390 C   0  0  0  0  0  3  0  0  0  0  0  0
  160.9710  202.6550  151.3650 C   0  0  0  0  0  3  0  0  0  0  0  0
  161.6750  206.9170  152.6440 C   0  0  0  0  0  3  0  0  0  0  0  0
  160.7100  201.3760  150.8200 C   0  0  0  0  0  3  0  0  0  0  0  0
  160.8780  202.2400  148.5900 C   0  0  0  0  0  3  0  0  0  0  0  0
  161.4810  207.5940  150.3510 C   0  0  0  0  0  0  0  0  0  0  0  0
  161.5830  208.5520  149.3180 C   0  0  0  0  0  3  0  0  0  0  0  0
  161.5570  205.5750  152.2870 C   0  0  0  0  0  3  0  0  0  0  0  0
  161.3190  204.5350  148.2100 O   0  0  0  0  0  0  0  0  0  0  0  0
  161.5520  207.9730  151.7020 C   0  0  0  0  0  0  0  0  0  0  0  0
  161.3420  205.1970  150.9460 C   0  0  0  0  0  0  0  0  0  0  0  0
  161.3420  206.2220  149.9600 C   0  0  0  0  0  0  0  0  0  0  0  0
  161.1730  203.7460  150.4730 C   0  0  0  0  0  0  0  0  0  0  0  0
  161.1340  203.5180  149.1070 C   0  0  0  0  0  0  0  0  0  0  0  0
  161.7160  206.4560  146.2980 O   0  0  0  0  0  0  0  0  0  0  0  0
  160.6330  206.2400  145.4660 O   0  0  0  0  0  1  0  0  0  0  0  0
  162.9120  209.9390  151.7620 O   0  0  0  0  0  1  0  0  0  0  0  0
  161.8580  209.2740  152.2310 C   0  0  2  0  0  3  0  0  0  0  0  0
  161.1410  210.0150  153.3370 C   0  0  0  0  0  0  0  0  0  0  0  0
  160.4600  211.2590  152.9130 C   0  0  0  0  0  2  0  0  0  0  0  0
  159.5830  210.0970  153.2000 C   0  0  0  0  0  2  0  0  0  0  0  0
  162.6110  210.6820  155.2600 C   0  0  0  0  0  1  0  0  0  0  0  0
  161.3630  209.9250  154.8820 C   0  0  2  0  0  3  0  0  0  0  0  0
  161.5140  208.5250  155.4060 N   0  0  0  0  0  2  0  0  0  0  0  0
  160.6710  208.0050  156.5480 C   0  0  0  0  0  3  0  0  0  0  0  0
  160.0720  209.2180  157.2610 C   0  0  0  0  0  1  0  0  0  0  0  0
  159.5380  207.0850  156.1040 C   0  0  0  0  0  1  0  0  0  0  0  0
  1 15  1  0  0  0  0
  2 10  2  0  0  0  0
  3  2  1  0  0  0  0
  3  1  2  0  0  0  0
  4  7  1  0  0  0  0
  7  5  2  0  0  0  0
  8 17  1  0  0  0  0
  8  4  2  0  0  0  0
  9 13  1  0  0  0  0
 10  9  1  0  0  0  0
 11  6  1  0  0  0  0
 12  1  1  0  0  0  0
 12 17  1  0  0  0  0
 13 21  1  0  0  0  0
 13  6  2  0  0  0  0
 14 11  2  0  0  0  0
 15  9  2  0  0  0  0
 15 14  1  0  0  0  0
 16 14  1  0  0  0  0
 16  5  1  0  0  0  0
 17 16  2  0  0  0  0
 18  3  1  0  0  0  0
 19 18  1  0  0  0  0
 21 20  1  1  0  0  0
 21 22  1  0  0  0  0
 22 26  1  0  0  0  0
 23 24  1  0  0  0  0
 23 22  1  0  0  0  0
 24 22  1  0  0  0  0
 26 25  1  6  0  0  0
 26 27  1  0  0  0  0
 27 28  1  0  0  0  0
 28 29  1  0  0  0  0
 30 28  1  0  0  0  0
M  END
>  <MODEL>
1

>  <REMARK>
 VINA RESULT:      -9.2      0.000      0.000
  Name = 
  6 active torsions:
  status: ('A' for Active; 'I' for Inactive)
    1  A    between atoms: C_3  and  C_15
    2  A    between atoms: C_3  and  C_29
    3  A    between atoms: C_5  and  O_11
    4  A    between atoms: C_9  and  N_24
    5  A    between atoms: C_15  and  N_24
    6  A    between atoms: C_22  and  C_29
                            x       y       z     vdW  Elec       q    Type
                         _______ _______ _______ _____ _____    ______ ____

>  <TORSDO>
F 6

$$$$
=
 OpenBabel11072411113D

 30 34  0  0  1  0  0  0  0  0999 V2000
  161.6550  209.1370  150.7970 C   0  0  0  0  0  0  0  0  0  0  0  0
  162.0760  209.8050  148.5560 C   0  0  0  0  0  3  0  0  0  0  0  0
  161.9200  210.1450  149.8920 C   0  0  0  0  0  0  0  0  0  0  0  0
  161.2010  208.1120  155.5450 C   0  0  0  0  0  3  0  0  0  0  0  0
  160.7890  206.3190  153.9230 C   0  0  0  0  0  3  0  0  0  0  0  0
  160.7170  205.2730  149.5410 C   0  0  0  0  0  3  0  0  0  0  0  0
  160.8920  206.7800  155.2560 C   0  0  0  0  0  3  0  0  0  0  0  0
  161.3880  209.0000  154.5010 C   0  0  0  0  0  3  0  0  0  0  0  0
  161.5340  207.4730  149.0440 C   0  0  0  0  0  0  0  0  0  0  0  0
  161.8540  208.5130  148.1430 C   0  0  0  0  0  3  0  0  0  0  0  0
  160.6310  205.5810  150.8970 C   0  0  0  0  0  3  0  0  0  0  0  0
  161.5200  209.4930  152.1880 O   0  0  0  0  0  0  0  0  0  0  0  0
  161.2530  206.1750  148.5840 C   0  0  0  0  0  0  0  0  0  0  0  0
  161.0460  206.8360  151.3850 C   0  0  0  0  0  0  0  0  0  0  0  0
  161.4680  207.8090  150.4360 C   0  0  0  0  0  0  0  0  0  0  0  0
  161.0110  207.2460  152.8640 C   0  0  0  0  0  0  0  0  0  0  0  0
  161.2950  208.5670  153.1710 C   0  0  0  0  0  0  0  0  0  0  0  0
  161.9460  211.4650  150.3360 O   0  0  0  0  0  0  0  0  0  0  0  0
  161.2280  212.4500  149.6830 O   0  0  0  0  0  1  0  0  0  0  0  0
  160.2060  206.3200  146.4390 O   0  0  0  0  0  1  0  0  0  0  0  0
  161.1150  205.7410  147.2210 C   0  0  2  0  0  3  0  0  0  0  0  0
  161.8640  204.6270  146.5240 C   0  0  0  0  0  0  0  0  0  0  0  0
  162.7150  205.0620  145.3940 C   0  0  0  0  0  2  0  0  0  0  0  0
  163.4250  204.6830  146.6410 C   0  0  0  0  0  2  0  0  0  0  0  0
  160.7730  202.7400  145.2790 C   0  0  0  0  0  1  0  0  0  0  0  0
  161.5570  203.0940  146.5160 C   0  0  2  0  0  3  0  0  0  0  0  0
  160.7660  202.6140  147.6990 N   0  0  0  0  0  2  0  0  0  0  0  0
  161.2980  201.5580  148.6410 C   0  0  0  0  0  3  0  0  0  0  0  0
  160.2840  201.4100  149.7770 C   0  0  0  0  0  1  0  0  0  0  0  0
  161.5050  200.1980  147.9830 C   0  0  0  0  0  1  0  0  0  0  0  0
  1 12  1  0  0  0  0
  2  3  1  0  0  0  0
  3 18  1  0  0  0  0
  3  1  2  0  0  0  0
  5  7  2  0  0  0  0
  6 11  1  0  0  0  0
  7  4  1  0  0  0  0
  8  4  2  0  0  0  0
  9 15  2  0  0  0  0
 10  2  2  0  0  0  0
 10  9  1  0  0  0  0
 11 14  2  0  0  0  0
 12 17  1  0  0  0  0
 13  9  1  0  0  0  0
 13  6  2  0  0  0  0
 14 16  1  0  0  0  0
 15  1  1  0  0  0  0
 15 14  1  0  0  0  0
 16 17  2  0  0  0  0
 16  5  1  0  0  0  0
 17  8  1  0  0  0  0
 19 18  1  0  0  0  0
 21 20  1  1  0  0  0
 21 13  1  0  0  0  0
 22 24  1  0  0  0  0
 22 21  1  0  0  0  0
 23 22  1  0  0  0  0
 23 24  1  0  0  0  0
 26 25  1  6  0  0  0
 26 22  1  0  0  0  0
 26 27  1  0  0  0  0
 27 28  1  0  0  0  0
 28 29  1  0  0  0  0
 30 28  1  0  0  0  0
M  END
>  <MODEL>
2

>  <REMARK>
 VINA RESULT:      -8.9      2.505      7.241
  Name = 
  6 active torsions:
  status: ('A' for Active; 'I' for Inactive)
    1  A    between atoms: C_3  and  C_15
    2  A    between atoms: C_3  and  C_29
    3  A    between atoms: C_5  and  O_11
    4  A    between atoms: C_9  and  N_24
    5  A    between atoms: C_15  and  N_24
    6  A    between atoms: C_22  and  C_29
                            x       y       z     vdW  Elec       q    Type
                         _______ _______ _______ _____ _____    ______ ____

>  <TORSDO>
F 6

$$$$
=
 OpenBabel11072411113D

 30 34  0  0  1  0  0  0  0  0999 V2000
  161.4040  205.8040  148.7050 C   0  0  0  0  0  0  0  0  0  0  0  0
  161.5350  208.1620  148.4380 C   0  0  0  0  0  3  0  0  0  0  0  0
  161.5880  206.8940  147.8780 C   0  0  0  0  0  0  0  0  0  0  0  0
  160.8300  200.9600  148.7870 C   0  0  0  0  0  3  0  0  0  0  0  0
  160.9210  202.1580  150.9250 C   0  0  0  0  0  3  0  0  0  0  0  0
  161.3210  206.2100  152.8540 C   0  0  0  0  0  3  0  0  0  0  0  0
  160.7660  200.9640  150.1830 C   0  0  0  0  0  3  0  0  0  0  0  0
  161.0720  202.1490  148.1220 C   0  0  0  0  0  3  0  0  0  0  0  0
  161.2790  207.2070  150.6730 C   0  0  0  0  0  0  0  0  0  0  0  0
  161.4190  208.3090  149.8000 C   0  0  0  0  0  3  0  0  0  0  0  0
  161.2950  204.9310  152.3010 C   0  0  0  0  0  3  0  0  0  0  0  0
  161.4330  204.4900  148.1120 O   0  0  0  0  0  0  0  0  0  0  0  0
  161.2240  207.3870  152.0660 C   0  0  0  0  0  0  0  0  0  0  0  0
  161.2050  204.7450  150.9060 C   0  0  0  0  0  0  0  0  0  0  0  0
  161.2370  205.9030  150.0800 C   0  0  0  0  0  0  0  0  0  0  0  0
  161.1440  203.3740  150.2180 C   0  0  0  0  0  0  0  0  0  0  0  0
  161.2250  203.3470  148.8350 C   0  0  0  0  0  0  0  0  0  0  0  0
  161.8920  206.6820  146.5350 O   0  0  0  0  0  0  0  0  0  0  0  0
  160.9070  206.3320  145.6290 O   0  0  0  0  0  1  0  0  0  0  0  0
  162.3990  209.4370  152.4320 O   0  0  0  0  0  1  0  0  0  0  0  0
  161.4250  208.6070  152.7990 C   0  0  2  0  0  3  0  0  0  0  0  0
  160.6770  209.0850  154.0230 C   0  0  0  0  0  0  0  0  0  0  0  0
  160.3020  208.0180  154.9780 C   0  0  0  0  0  2  0  0  0  0  0  0
  161.4210  208.9020  155.3880 C   0  0  0  0  0  2  0  0  0  0  0  0
  159.3120  210.8700  152.9030 C   0  0  0  0  0  1  0  0  0  0  0  0
  159.8710  210.4100  154.2250 C   0  0  2  0  0  3  0  0  0  0  0  0
  160.6780  211.5450  154.7880 N   0  0  0  0  0  2  0  0  0  0  0  0
  160.2510  212.2880  156.0340 C   0  0  0  0  0  3  0  0  0  0  0  0
  159.5310  213.5590  155.5800 C   0  0  0  0  0  1  0  0  0  0  0  0
  159.3170  211.4870  156.9350 C   0  0  0  0  0  1  0  0  0  0  0  0
  1 15  1  0  0  0  0
  2 10  2  0  0  0  0
  3  2  1  0  0  0  0
  3  1  2  0  0  0  0
  4  7  1  0  0  0  0
  7  5  2  0  0  0  0
  8  4  2  0  0  0  0
  8 17  1  0  0  0  0
  9 13  1  0  0  0  0
 10  9  1  0  0  0  0
 11  6  1  0  0  0  0
 12  1  1  0  0  0  0
 12 17  1  0  0  0  0
 13 21  1  0  0  0  0
 13  6  2  0  0  0  0
 14 11  2  0  0  0  0
 15  9  2  0  0  0  0
 15 14  1  0  0  0  0
 16 14  1  0  0  0  0
 16  5  1  0  0  0  0
 17 16  2  0  0  0  0
 18  3  1  0  0  0  0
 19 18  1  0  0  0  0
 21 20  1  1  0  0  0
 21 22  1  0  0  0  0
 22 26  1  0  0  0  0
 22 23  1  0  0  0  0
 22 24  1  0  0  0  0
 23 24  1  0  0  0  0
 26 25  1  6  0  0  0
 26 27  1  0  0  0  0
 27 28  1  0  0  0  0
 28 30  1  0  0  0  0
 29 28  1  0  0  0  0
M  END
>  <MODEL>
3

>  <REMARK>
 VINA RESULT:      -8.9      1.319      2.030
  Name = 
  6 active torsions:
  status: ('A' for Active; 'I' for Inactive)
    1  A    between atoms: C_3  and  C_15
    2  A    between atoms: C_3  and  C_29
    3  A    between atoms: C_5  and  O_11
    4  A    between atoms: C_9  and  N_24
    5  A    between atoms: C_15  and  N_24
    6  A    between atoms: C_22  and  C_29
                            x       y       z     vdW  Elec       q    Type
                         _______ _______ _______ _____ _____    ______ ____

>  <TORSDO>
F 6

$$$$
=
 OpenBabel11072411113D

 30 34  0  0  1  0  0  0  0  0999 V2000
  161.3110  205.4050  151.1130 C   0  0  0  0  0  0  0  0  0  0  0  0
  161.1730  205.6110  153.4770 C   0  0  0  0  0  3  0  0  0  0  0  0
  161.0530  204.8260  152.3390 C   0  0  0  0  0  0  0  0  0  0  0  0
  161.8510  204.4970  146.3510 C   0  0  0  0  0  3  0  0  0  0  0  0
  161.9880  206.8230  147.1150 C   0  0  0  0  0  3  0  0  0  0  0  0
  161.8190  209.5250  150.7160 C   0  0  0  0  0  3  0  0  0  0  0  0
  162.0570  205.8530  146.0870 C   0  0  0  0  0  3  0  0  0  0  0  0
  161.5530  204.1000  147.6420 C   0  0  0  0  0  3  0  0  0  0  0  0
  161.6470  207.5830  152.1140 C   0  0  0  0  0  0  0  0  0  0  0  0
  161.4270  206.9570  153.3610 C   0  0  0  0  0  3  0  0  0  0  0  0
  161.7790  208.7370  149.5680 C   0  0  0  0  0  3  0  0  0  0  0  0
  161.2110  204.5770  149.9370 O   0  0  0  0  0  0  0  0  0  0  0  0
  161.8450  208.9720  152.0240 C   0  0  0  0  0  0  0  0  0  0  0  0
  161.7240  207.3310  149.6540 C   0  0  0  0  0  0  0  0  0  0  0  0
  161.6180  206.7500  150.9480 C   0  0  0  0  0  0  0  0  0  0  0  0
  161.7040  206.3890  148.4410 C   0  0  0  0  0  0  0  0  0  0  0  0
  161.4830  205.0420  148.6780 C   0  0  0  0  0  0  0  0  0  0  0  0
  160.6120  203.5050  152.3850 O   0  0  0  0  0  0  0  0  0  0  0  0
  161.4250  202.4680  151.9640 O   0  0  0  0  0  1  0  0  0  0  0  0
  162.8250  210.3570  153.7080 O   0  0  0  0  0  1  0  0  0  0  0  0
  161.7290  209.9420  153.0780 C   0  0  2  0  0  3  0  0  0  0  0  0
  160.4640  210.5560  153.6340 C   0  0  0  0  0  0  0  0  0  0  0  0
  160.1900  211.9370  153.1790 C   0  0  0  0  0  2  0  0  0  0  0  0
  159.3450  210.8710  152.5860 C   0  0  0  0  0  2  0  0  0  0  0  0
  159.9530  211.1250  156.0260 C   0  0  0  0  0  1  0  0  0  0  0  0
  159.6570  210.1530  154.9120 C   0  0  2  0  0  3  0  0  0  0  0  0
  159.9630  208.7760  155.4290 N   0  0  0  0  0  2  0  0  0  0  0  0
  160.6010  208.5530  156.7820 C   0  0  0  0  0  3  0  0  0  0  0  0
  160.1790  207.1630  157.2600 C   0  0  0  0  0  1  0  0  0  0  0  0
  162.1250  208.6270  156.7600 C   0  0  0  0  0  1  0  0  0  0  0  0
  1  3  1  0  0  0  0
  3 18  1  0  0  0  0
  3  2  2  0  0  0  0
  4  8  1  0  0  0  0
  5 16  2  0  0  0  0
  6 13  2  0  0  0  0
  7  4  2  0  0  0  0
  7  5  1  0  0  0  0
  8 17  2  0  0  0  0
  9 10  2  0  0  0  0
 10  2  1  0  0  0  0
 11 14  2  0  0  0  0
 11  6  1  0  0  0  0
 12  1  1  0  0  0  0
 13  9  1  0  0  0  0
 13 21  1  0  0  0  0
 14 15  1  0  0  0  0
 15  1  2  0  0  0  0
 15  9  1  0  0  0  0
 16 17  1  0  0  0  0
 16 14  1  0  0  0  0
 17 12  1  0  0  0  0
 19 18  1  0  0  0  0
 21 22  1  0  0  0  0
 21 20  1  1  0  0  0
 22 26  1  0  0  0  0
 23 22  1  0  0  0  0
 24 23  1  0  0  0  0
 24 22  1  0  0  0  0
 26 27  1  0  0  0  0
 26 25  1  1  0  0  0
 27 28  1  0  0  0  0
 28 29  1  0  0  0  0
 30 28  1  0  0  0  0
M  END
>  <MODEL>
4

>  <REMARK>
 VINA RESULT:      -8.8      1.953      3.619
  Name = 
  6 active torsions:
  status: ('A' for Active; 'I' for Inactive)
    1  A    between atoms: C_3  and  C_15
    2  A    between atoms: C_3  and  C_29
    3  A    between atoms: C_5  and  O_11
    4  A    between atoms: C_9  and  N_24
    5  A    between atoms: C_15  and  N_24
    6  A    between atoms: C_22  and  C_29
                            x       y       z     vdW  Elec       q    Type
                         _______ _______ _______ _____ _____    ______ ____

>  <TORSDO>
F 6

$$$$
=
 OpenBabel11072411113D

 30 34  0  0  1  0  0  0  0  0999 V2000
  161.4250  205.7890  148.7100 C   0  0  0  0  0  0  0  0  0  0  0  0
  161.5970  208.1460  148.4560 C   0  0  0  0  0  3  0  0  0  0  0  0
  161.6390  206.8800  147.8900 C   0  0  0  0  0  0  0  0  0  0  0  0
  160.7750  200.9550  148.7610 C   0  0  0  0  0  3  0  0  0  0  0  0
  160.8510  202.1420  150.9060 C   0  0  0  0  0  3  0  0  0  0  0  0
  161.2830  206.1790  152.8590 C   0  0  0  0  0  3  0  0  0  0  0  0
  160.6890  200.9540  150.1560 C   0  0  0  0  0  3  0  0  0  0  0  0
  161.0450  202.1430  148.1050 C   0  0  0  0  0  3  0  0  0  0  0  0
  161.2920  207.1860  150.6820 C   0  0  0  0  0  0  0  0  0  0  0  0
  161.4630  208.2890  149.8170 C   0  0  0  0  0  3  0  0  0  0  0  0
  161.2460  204.9030  152.3000 C   0  0  0  0  0  3  0  0  0  0  0  0
  161.4430  204.4770  148.1110 O   0  0  0  0  0  0  0  0  0  0  0  0
  161.2170  207.3610  152.0750 C   0  0  0  0  0  0  0  0  0  0  0  0
  161.1760  204.7240  150.9030 C   0  0  0  0  0  0  0  0  0  0  0  0
  161.2380  205.8850  150.0830 C   0  0  0  0  0  0  0  0  0  0  0  0
  161.1030  203.3570  150.2080 C   0  0  0  0  0  0  0  0  0  0  0  0
  161.2060  203.3340  148.8270 C   0  0  0  0  0  0  0  0  0  0  0  0
  161.9610  206.6680  146.5520 O   0  0  0  0  0  0  0  0  0  0  0  0
  161.0140  206.2040  145.6570 O   0  0  0  0  0  1  0  0  0  0  0  0
  162.3290  209.4550  152.3890 O   0  0  0  0  0  1  0  0  0  0  0  0
  161.4260  208.5740  152.8160 C   0  0  2  0  0  3  0  0  0  0  0  0
  160.7630  208.9940  154.1080 C   0  0  0  0  0  0  0  0  0  0  0  0
  160.4150  207.8800  155.0190 C   0  0  0  0  0  2  0  0  0  0  0  0
  161.5800  208.7110  155.4140 C   0  0  0  0  0  2  0  0  0  0  0  0
  158.9190  210.0530  155.4440 C   0  0  0  0  0  1  0  0  0  0  0  0
  160.0070  210.3230  154.4360 C   0  0  2  0  0  3  0  0  0  0  0  0
  159.3620  210.9780  153.2480 N   0  0  0  0  0  2  0  0  0  0  0  0
  159.5360  212.4520  152.9570 C   0  0  0  0  0  3  0  0  0  0  0  0
  160.0680  212.5730  151.5280 C   0  0  0  0  0  1  0  0  0  0  0  0
  158.2450  213.2560  153.0720 C   0  0  0  0  0  1  0  0  0  0  0  0
  1 15  1  0  0  0  0
  2 10  2  0  0  0  0
  3  2  1  0  0  0  0
  3  1  2  0  0  0  0
  4  7  1  0  0  0  0
  7  5  2  0  0  0  0
  8  4  2  0  0  0  0
  8 17  1  0  0  0  0
  9 13  1  0  0  0  0
 10  9  1  0  0  0  0
 11  6  1  0  0  0  0
 12  1  1  0  0  0  0
 12 17  1  0  0  0  0
 13 21  1  0  0  0  0
 13  6  2  0  0  0  0
 14 11  2  0  0  0  0
 15  9  2  0  0  0  0
 15 14  1  0  0  0  0
 16 14  1  0  0  0  0
 16  5  1  0  0  0  0
 17 16  2  0  0  0  0
 18  3  1  0  0  0  0
 19 18  1  0  0  0  0
 21 20  1  1  0  0  0
 21 22  1  0  0  0  0
 22 26  1  0  0  0  0
 22 23  1  0  0  0  0
 22 24  1  0  0  0  0
 23 24  1  0  0  0  0
 26 25  1  1  0  0  0
 27 26  1  0  0  0  0
 28 30  1  0  0  0  0
 28 27  1  0  0  0  0
 29 28  1  0  0  0  0
M  END
>  <MODEL>
5

>  <REMARK>
 VINA RESULT:      -8.6      1.307      2.549
  Name = 
  6 active torsions:
  status: ('A' for Active; 'I' for Inactive)
    1  A    between atoms: C_3  and  C_15
    2  A    between atoms: C_3  and  C_29
    3  A    between atoms: C_5  and  O_11
    4  A    between atoms: C_9  and  N_24
    5  A    between atoms: C_15  and  N_24
    6  A    between atoms: C_22  and  C_29
                            x       y       z     vdW  Elec       q    Type
                         _______ _______ _______ _____ _____    ______ ____

>  <TORSDO>
F 6

$$$$
=
 OpenBabel11072411113D

 30 34  0  0  1  0  0  0  0  0999 V2000
  161.5830  207.9060  150.3930 C   0  0  0  0  0  0  0  0  0  0  0  0
  161.7320  210.1310  151.2120 C   0  0  0  0  0  3  0  0  0  0  0  0
  161.8500  209.2400  150.1560 C   0  0  0  0  0  0  0  0  0  0  0  0
  161.0240  203.5520  148.2640 C   0  0  0  0  0  3  0  0  0  0  0  0
  160.8820  203.6790  150.7090 C   0  0  0  0  0  3  0  0  0  0  0  0
  161.0580  206.4430  154.2620 C   0  0  0  0  0  3  0  0  0  0  0  0
  160.8120  202.9430  149.5030 C   0  0  0  0  0  3  0  0  0  0  0  0
  161.3300  204.9010  148.2220 C   0  0  0  0  0  3  0  0  0  0  0  0
  161.2440  208.3010  152.7570 C   0  0  0  0  0  0  0  0  0  0  0  0
  161.4720  209.6670  152.4800 C   0  0  0  0  0  3  0  0  0  0  0  0
  161.0960  205.5420  153.2000 C   0  0  0  0  0  3  0  0  0  0  0  0
  161.6810  206.9880  149.2850 O   0  0  0  0  0  0  0  0  0  0  0  0
  161.0410  207.8510  154.0720 C   0  0  0  0  0  0  0  0  0  0  0  0
  161.1560  205.9940  151.8660 C   0  0  0  0  0  0  0  0  0  0  0  0
  161.2710  207.3950  151.6460 C   0  0  0  0  0  0  0  0  0  0  0  0
  161.1740  205.0710  150.6390 C   0  0  0  0  0  0  0  0  0  0  0  0
  161.4020  205.6530  149.4030 C   0  0  0  0  0  0  0  0  0  0  0  0
  162.2960  209.6280  148.8950 O   0  0  0  0  0  0  0  0  0  0  0  0
  162.1330  210.9280  148.4520 O   0  0  0  0  0  1  0  0  0  0  0  0
  161.0310  207.9970  156.4590 O   0  0  0  0  0  1  0  0  0  0  0  0
  161.1580  208.6120  155.2850 C   0  0  2  0  0  3  0  0  0  0  0  0
  161.3710  210.1030  155.4240 C   0  0  0  0  0  0  0  0  0  0  0  0
  162.3310  210.4990  156.4790 C   0  0  0  0  0  2  0  0  0  0  0  0
  162.8090  210.6180  155.0790 C   0  0  0  0  0  2  0  0  0  0  0  0
  160.3240  212.2960  156.0570 C   0  0  0  0  0  1  0  0  0  0  0  0
  160.4460  211.2740  154.9560 C   0  0  2  0  0  3  0  0  0  0  0  0
  159.0540  210.8510  154.5820 N   0  0  0  0  0  2  0  0  0  0  0  0
  158.2690  211.5560  153.4990 C   0  0  0  0  0  3  0  0  0  0  0  0
  157.1950  212.3980  154.1890 C   0  0  0  0  0  1  0  0  0  0  0  0
  159.1200  212.4660  152.6190 C   0  0  0  0  0  1  0  0  0  0  0  0
  1 15  1  0  0  0  0
  2 10  2  0  0  0  0
  3  1  2  0  0  0  0
  3  2  1  0  0  0  0
  4  7  1  0  0  0  0
  7  5  2  0  0  0  0
  8  4  2  0  0  0  0
  8 17  1  0  0  0  0
  9 13  2  0  0  0  0
 10  9  1  0  0  0  0
 11  6  2  0  0  0  0
 12 17  1  0  0  0  0
 12  1  1  0  0  0  0
 13  6  1  0  0  0  0
 13 21  1  0  0  0  0
 14 11  1  0  0  0  0
 15 14  2  0  0  0  0
 15  9  1  0  0  0  0
 16  5  1  0  0  0  0
 16 14  1  0  0  0  0
 17 16  2  0  0  0  0
 18  3  1  0  0  0  0
 19 18  1  0  0  0  0
 21 22  1  0  0  0  0
 21 20  1  1  0  0  0
 22 23  1  0  0  0  0
 24 22  1  0  0  0  0
 24 23  1  0  0  0  0
 26 22  1  0  0  0  0
 26 25  1  1  0  0  0
 27 26  1  0  0  0  0
 28 29  1  0  0  0  0
 28 27  1  0  0  0  0
 30 28  1  0  0  0  0
M  END
>  <MODEL>
6

>  <REMARK>
 VINA RESULT:      -8.4      2.006      3.398
  Name = 
  6 active torsions:
  status: ('A' for Active; 'I' for Inactive)
    1  A    between atoms: C_3  and  C_15
    2  A    between atoms: C_3  and  C_29
    3  A    between atoms: C_5  and  O_11
    4  A    between atoms: C_9  and  N_24
    5  A    between atoms: C_15  and  N_24
    6  A    between atoms: C_22  and  C_29
                            x       y       z     vdW  Elec       q    Type
                         _______ _______ _______ _____ _____    ______ ____

>  <TORSDO>
F 6

$$$$
=
 OpenBabel11072411113D

 30 34  0  0  1  0  0  0  0  0999 V2000
  161.1690  203.7670  149.9330 C   0  0  0  0  0  0  0  0  0  0  0  0
  160.9490  203.2280  152.2370 C   0  0  0  0  0  3  0  0  0  0  0  0
  160.9560  202.8170  150.9120 C   0  0  0  0  0  0  0  0  0  0  0  0
  161.9340  204.4150  145.1590 C   0  0  0  0  0  3  0  0  0  0  0  0
  161.7610  206.3990  146.5900 C   0  0  0  0  0  3  0  0  0  0  0  0
  161.1690  207.8430  150.8160 C   0  0  0  0  0  3  0  0  0  0  0  0
  161.9750  205.8010  145.3260 C   0  0  0  0  0  3  0  0  0  0  0  0
  161.6560  203.6140  146.2530 C   0  0  0  0  0  3  0  0  0  0  0  0
  161.2060  205.5620  151.5570 C   0  0  0  0  0  0  0  0  0  0  0  0
  161.0360  204.5660  152.5440 C   0  0  0  0  0  3  0  0  0  0  0  0
  161.2550  207.4410  149.4850 C   0  0  0  0  0  3  0  0  0  0  0  0
  161.2020  203.3300  148.5590 O   0  0  0  0  0  0  0  0  0  0  0  0
  161.2310  206.9240  151.8980 C   0  0  0  0  0  0  0  0  0  0  0  0
  161.3740  206.0780  149.1430 C   0  0  0  0  0  0  0  0  0  0  0  0
  161.3100  205.1240  150.1960 C   0  0  0  0  0  0  0  0  0  0  0  0
  161.5010  205.5540  147.7060 C   0  0  0  0  0  0  0  0  0  0  0  0
  161.4440  204.1830  147.5160 C   0  0  0  0  0  0  0  0  0  0  0  0
  160.6820  201.5050  150.5350 O   0  0  0  0  0  0  0  0  0  0  0  0
  159.6470  201.2150  149.6650 O   0  0  0  0  0  1  0  0  0  0  0  0
  160.4550  206.7550  154.1540 O   0  0  0  0  0  1  0  0  0  0  0  0
  160.9690  207.5090  153.1850 C   0  0  2  0  0  3  0  0  0  0  0  0
  161.1630  208.9500  153.6020 C   0  0  0  0  0  0  0  0  0  0  0  0
  161.9560  209.7690  152.6590 C   0  0  0  0  0  2  0  0  0  0  0  0
  160.4940  210.0200  152.6760 C   0  0  0  0  0  2  0  0  0  0  0  0
  161.9560  208.8510  155.9820 C   0  0  0  0  0  1  0  0  0  0  0  0
  161.0470  209.5820  155.0280 C   0  0  2  0  0  3  0  0  0  0  0  0
  159.6630  209.5430  155.6120 N   0  0  0  0  0  2  0  0  0  0  0  0
  158.9240  210.8040  155.9970 C   0  0  0  0  0  3  0  0  0  0  0  0
  159.9000  211.9710  155.8380 C   0  0  0  0  0  1  0  0  0  0  0  0
  157.6880  211.0750  155.1440 C   0  0  0  0  0  1  0  0  0  0  0  0
  1 15  2  0  0  0  0
  1  3  1  0  0  0  0
  2 10  1  0  0  0  0
  3  2  2  0  0  0  0
  4  7  2  0  0  0  0
  4  8  1  0  0  0  0
  5 16  2  0  0  0  0
  6 13  2  0  0  0  0
  7  5  1  0  0  0  0
  8 17  2  0  0  0  0
  9 13  1  0  0  0  0
  9 10  2  0  0  0  0
 11  6  1  0  0  0  0
 12  1  1  0  0  0  0
 13 21  1  0  0  0  0
 14 11  2  0  0  0  0
 14 15  1  0  0  0  0
 15  9  1  0  0  0  0
 16 14  1  0  0  0  0
 17 16  1  0  0  0  0
 17 12  1  0  0  0  0
 18  3  1  0  0  0  0
 19 18  1  0  0  0  0
 21 22  1  0  0  0  0
 21 20  1  6  0  0  0
 22 26  1  0  0  0  0
 23 24  1  0  0  0  0
 23 22  1  0  0  0  0
 24 22  1  0  0  0  0
 26 27  1  0  0  0  0
 26 25  1  1  0  0  0
 27 28  1  0  0  0  0
 29 28  1  0  0  0  0
 30 28  1  0  0  0  0
M  END
>  <MODEL>
7

>  <REMARK>
 VINA RESULT:      -8.2      2.041      3.856
  Name = 
  6 active torsions:
  status: ('A' for Active; 'I' for Inactive)
    1  A    between atoms: C_3  and  C_15
    2  A    between atoms: C_3  and  C_29
    3  A    between atoms: C_5  and  O_11
    4  A    between atoms: C_9  and  N_24
    5  A    between atoms: C_15  and  N_24
    6  A    between atoms: C_22  and  C_29
                            x       y       z     vdW  Elec       q    Type
                         _______ _______ _______ _____ _____    ______ ____

>  <TORSDO>
F 6

$$$$
=
 OpenBabel11072411113D

 30 34  0  0  1  0  0  0  0  0999 V2000
  161.3730  205.1840  150.5560 C   0  0  0  0  0  0  0  0  0  0  0  0
  161.4070  205.6910  152.8780 C   0  0  0  0  0  3  0  0  0  0  0  0
  161.1990  204.7690  151.8620 C   0  0  0  0  0  0  0  0  0  0  0  0
  161.5620  203.6670  145.9230 C   0  0  0  0  0  3  0  0  0  0  0  0
  161.7710  206.0690  146.3710 C   0  0  0  0  0  3  0  0  0  0  0  0
  161.8830  209.2100  149.5990 C   0  0  0  0  0  3  0  0  0  0  0  0
  161.7590  204.9750  145.4740 C   0  0  0  0  0  3  0  0  0  0  0  0
  161.3540  203.4440  147.2730 C   0  0  0  0  0  3  0  0  0  0  0  0
  161.7970  207.4660  151.2430 C   0  0  0  0  0  0  0  0  0  0  0  0
  161.6630  207.0070  152.5720 C   0  0  0  0  0  3  0  0  0  0  0  0
  161.7540  208.2830  148.5670 C   0  0  0  0  0  3  0  0  0  0  0  0
  161.1820  204.2140  149.5060 O   0  0  0  0  0  0  0  0  0  0  0  0
  161.9980  208.8270  150.9620 C   0  0  0  0  0  0  0  0  0  0  0  0
  161.6950  206.9000  148.8370 C   0  0  0  0  0  0  0  0  0  0  0  0
  161.6770  206.4910  150.1990 C   0  0  0  0  0  0  0  0  0  0  0  0
  161.5800  205.8120  147.7590 C   0  0  0  0  0  0  0  0  0  0  0  0
  161.3660  204.5110  148.1820 C   0  0  0  0  0  0  0  0  0  0  0  0
  160.7530  203.4730  152.1070 O   0  0  0  0  0  0  0  0  0  0  0  0
  161.5890  202.3860  151.9290 O   0  0  0  0  0  1  0  0  0  0  0  0
  163.1040  210.3690  152.4180 O   0  0  0  0  0  1  0  0  0  0  0  0
  161.9660  209.9260  151.8890 C   0  0  2  0  0  3  0  0  0  0  0  0
  160.7510  210.6590  152.4120 C   0  0  0  0  0  0  0  0  0  0  0  0
  159.7450  209.8010  153.0750 C   0  0  0  0  0  2  0  0  0  0  0  0
  160.5710  210.6510  153.9670 C   0  0  0  0  0  2  0  0  0  0  0  0
  158.6930  212.0710  152.1400 C   0  0  0  0  0  1  0  0  0  0  0  0
  160.1930  212.0580  151.9900 C   0  0  2  0  0  3  0  0  0  0  0  0
  160.5040  212.4470  150.5730 N   0  0  0  0  0  2  0  0  0  0  0  0
  160.0490  213.7660  149.9890 C   0  0  0  0  0  3  0  0  0  0  0  0
  161.2370  214.3610  149.2310 C   0  0  0  0  0  1  0  0  0  0  0  0
  158.8670  213.6370  149.0340 C   0  0  0  0  0  1  0  0  0  0  0  0
  1  3  1  0  0  0  0
  3 18  1  0  0  0  0
  3  2  2  0  0  0  0
  4  8  1  0  0  0  0
  5 16  2  0  0  0  0
  6 13  2  0  0  0  0
  7  4  2  0  0  0  0
  7  5  1  0  0  0  0
  8 17  2  0  0  0  0
  9 10  2  0  0  0  0
 10  2  1  0  0  0  0
 11 14  2  0  0  0  0
 11  6  1  0  0  0  0
 12  1  1  0  0  0  0
 13  9  1  0  0  0  0
 13 21  1  0  0  0  0
 14 15  1  0  0  0  0
 15  1  2  0  0  0  0
 15  9  1  0  0  0  0
 16 17  1  0  0  0  0
 16 14  1  0  0  0  0
 17 12  1  0  0  0  0
 19 18  1  0  0  0  0
 21 22  1  0  0  0  0
 21 20  1  1  0  0  0
 22 23  1  0  0  0  0
 22 24  1  0  0  0  0
 23 24  1  0  0  0  0
 26 25  1  6  0  0  0
 26 22  1  0  0  0  0
 27 26  1  0  0  0  0
 28 27  1  0  0  0  0
 29 28  1  0  0  0  0
 30 28  1  0  0  0  0
M  END
>  <MODEL>
8

>  <REMARK>
 VINA RESULT:      -8.0      2.448      4.781
  Name = 
  6 active torsions:
  status: ('A' for Active; 'I' for Inactive)
    1  A    between atoms: C_3  and  C_15
    2  A    between atoms: C_3  and  C_29
    3  A    between atoms: C_5  and  O_11
    4  A    between atoms: C_9  and  N_24
    5  A    between atoms: C_15  and  N_24
    6  A    between atoms: C_22  and  C_29
                            x       y       z     vdW  Elec       q    Type
                         _______ _______ _______ _____ _____    ______ ____

>  <TORSDO>
F 6

$$$$
=
 OpenBabel11072411113D

 30 34  0  0  1  0  0  0  0  0999 V2000
  161.0560  204.8290  151.2930 C   0  0  0  0  0  0  0  0  0  0  0  0
  160.8310  203.0580  149.7240 C   0  0  0  0  0  3  0  0  0  0  0  0
  161.0240  203.4730  151.0330 C   0  0  0  0  0  0  0  0  0  0  0  0
  161.1830  208.1680  154.8480 C   0  0  0  0  0  3  0  0  0  0  0  0
  161.2530  208.9410  152.5210 C   0  0  0  0  0  3  0  0  0  0  0  0
  161.2060  207.6330  148.2110 C   0  0  0  0  0  3  0  0  0  0  0  0
  161.2170  209.2040  153.9110 C   0  0  0  0  0  3  0  0  0  0  0  0
  161.2060  206.8580  154.4030 C   0  0  0  0  0  3  0  0  0  0  0  0
  160.8710  205.3740  148.9420 C   0  0  0  0  0  0  0  0  0  0  0  0
  160.7910  203.9830  148.7070 C   0  0  0  0  0  3  0  0  0  0  0  0
  161.3230  208.0720  149.5280 C   0  0  0  0  0  3  0  0  0  0  0  0
  161.2300  205.2540  152.6600 O   0  0  0  0  0  0  0  0  0  0  0  0
  160.8880  206.2900  147.8770 C   0  0  0  0  0  0  0  0  0  0  0  0
  161.1640  207.1800  150.6070 C   0  0  0  0  0  0  0  0  0  0  0  0
  160.9730  205.8030  150.3060 C   0  0  0  0  0  0  0  0  0  0  0  0
  161.2500  207.5850  152.0860 C   0  0  0  0  0  0  0  0  0  0  0  0
  161.2370  206.5720  153.0300 C   0  0  0  0  0  0  0  0  0  0  0  0
  161.2610  202.5790  152.0750 O   0  0  0  0  0  0  0  0  0  0  0  0
  162.3120  201.6830  152.0180 O   0  0  0  0  0  1  0  0  0  0  0  0
  160.1910  206.6660  145.6200 O   0  0  0  0  0  1  0  0  0  0  0  0
  160.9650  205.9960  146.4720 C   0  0  2  0  0  3  0  0  0  0  0  0
  161.8130  204.9450  145.7920 C   0  0  0  0  0  0  0  0  0  0  0  0
  163.0520  205.4550  145.1640 C   0  0  0  0  0  2  0  0  0  0  0  0
  163.2220  204.6950  146.4270 C   0  0  0  0  0  2  0  0  0  0  0  0
  160.0990  203.6310  144.5110 C   0  0  0  0  0  1  0  0  0  0  0  0
  161.3930  203.5290  145.2760 C   0  0  2  0  0  3  0  0  0  0  0  0
  161.1910  202.5100  146.3610 N   0  0  0  0  0  2  0  0  0  0  0  0
  161.2060  201.0250  146.0740 C   0  0  0  0  0  3  0  0  0  0  0  0
  161.2110  200.3020  147.4220 C   0  0  0  0  0  1  0  0  0  0  0  0
  160.0080  200.5460  145.2610 C   0  0  0  0  0  1  0  0  0  0  0  0
  1 12  1  0  0  0  0
  2  3  2  0  0  0  0
  3  1  1  0  0  0  0
  3 18  1  0  0  0  0
  5  7  1  0  0  0  0
  6 11  1  0  0  0  0
  7  4  2  0  0  0  0
  8  4  1  0  0  0  0
  9 15  1  0  0  0  0
 10  9  2  0  0  0  0
 10  2  1  0  0  0  0
 11 14  2  0  0  0  0
 12 17  1  0  0  0  0
 13  6  2  0  0  0  0
 13  9  1  0  0  0  0
 14 16  1  0  0  0  0
 15 14  1  0  0  0  0
 15  1  2  0  0  0  0
 16  5  2  0  0  0  0
 16 17  1  0  0  0  0
 17  8  2  0  0  0  0
 19 18  1  0  0  0  0
 21 20  1  1  0  0  0
 21 13  1  0  0  0  0
 22 24  1  0  0  0  0
 22 21  1  0  0  0  0
 23 22  1  0  0  0  0
 23 24  1  0  0  0  0
 26 25  1  1  0  0  0
 26 22  1  0  0  0  0
 26 27  1  0  0  0  0
 28 27  1  0  0  0  0
 28 29  1  0  0  0  0
 30 28  1  0  0  0  0
M  END
>  <MODEL>
9

>  <REMARK>
 VINA RESULT:      -8.0      3.076      7.881
  Name = 
  6 active torsions:
  status: ('A' for Active; 'I' for Inactive)
    1  A    between atoms: C_3  and  C_15
    2  A    between atoms: C_3  and  C_29
    3  A    between atoms: C_5  and  O_11
    4  A    between atoms: C_9  and  N_24
    5  A    between atoms: C_15  and  N_24
    6  A    between atoms: C_22  and  C_29
                            x       y       z     vdW  Elec       q    Type
                         _______ _______ _______ _____ _____    ______ ____

>  <TORSDO>
F 6

$$$$
