=
 OpenBabel11072415213D

 63 70  0  0  1  0  0  0  0  0999 V2000
  161.0960  212.8180  151.0450 O   0  0  0  0  0  0  0  0  0  0  0  0
  163.0440  212.0420  147.6460 C   0  0  1  0  0  3  0  0  0  0  0  0
  161.2660  211.6500  154.4970 O   0  0  0  0  0  0  0  0  0  0  0  0
  161.5820  209.3550  153.6800 C   0  0  1  0  0  3  0  0  0  0  0  0
  160.9710  207.4530  150.3790 C   0  0  1  0  0  3  0  0  0  0  0  0
  160.0970  211.7210  155.2540 C   0  0  2  0  0  3  0  0  0  0  0  0
  161.6800  206.8330  148.2370 C   0  0  0  0  0  0  0  0  0  0  0  0
  159.3070  212.9200  154.7740 C   0  0  2  0  0  3  0  0  0  0  0  0
  158.8330  213.0130  150.3850 C   0  0  2  0  0  3  0  0  0  0  0  0
  158.4080  212.2670  151.5220 O   0  0  0  0  0  0  0  0  0  0  0  0
  159.2410  209.3560  152.7280 C   0  0  0  0  0  1  0  0  0  0  0  0
  161.8490  208.5410  151.0270 C   0  0  1  0  0  3  0  0  0  0  0  0
  162.7600  207.8560  147.8520 C   0  0  0  0  0  2  0  0  0  0  0  0
  159.2750  212.8140  157.2040 O   0  0  0  0  0  1  0  0  0  0  0  0
  160.1230  213.0030  145.4780 C   0  0  0  0  0  2  0  0  0  0  0  0
  161.6310  210.0680  148.4020 C   0  0  0  0  0  2  0  0  0  0  0  0
  163.2970  214.4530  147.9470 C   0  0  0  0  0  2  0  0  0  0  0  0
  163.0910  208.8510  150.1700 C   0  0  1  0  0  3  0  0  0  0  0  0
  157.2350  211.9700  153.6990 C   0  0  0  0  0  2  0  0  0  0  0  0
  162.3100  214.2030  146.8160 C   0  0  0  0  0  2  0  0  0  0  0  0
  156.9330  213.8730  152.2950 O   0  0  0  0  0  0  0  0  0  0  0  0
  161.1060  209.7260  151.2210 O   0  0  0  0  0  0  0  0  0  0  0  0
  163.5450  212.7440  145.4520 O   0  0  0  0  0  1  0  0  0  0  0  0
  160.6590  209.8710  152.5600 C   0  0  2  0  0  3  0  0  0  0  0  0
  157.9530  212.6700  149.1630 C   0  0  2  0  0  3  0  0  0  0  0  0
  160.7940  212.4830  148.7250 C   0  0  2  0  0  3  0  0  0  0  0  0
  159.6390  212.1030  147.8050 C   0  0  2  0  0  3  0  0  0  0  0  0
  160.3000  207.2670  147.7250 C   0  0  0  0  0  1  0  0  0  0  0  0
  160.0910  212.9940  156.0840 C   0  0  1  0  0  3  0  0  0  0  0  0
  159.9330  211.7660  146.3330 C   0  0  2  0  0  3  0  0  0  0  0  0
  163.8820  213.1030  148.3410 C   0  0  0  0  0  2  0  0  0  0  0  0
  161.9950  211.5330  148.6450 C   0  0  2  0  0  3  0  0  0  0  0  0
  162.5100  212.7490  146.3910 C   0  0  1  0  0  0  0  0  0  0  0  0
  161.3030  212.0600  145.6870 C   0  0  2  0  0  3  0  0  0  0  0  0
  162.0210  205.5590  147.4930 C   0  0  0  0  0  1  0  0  0  0  0  0
  157.4940  212.7560  152.4570 C   0  0  0  0  0  0  0  0  0  0  0  0
  157.8100  212.6610  154.9330 C   0  0  0  0  0  2  0  0  0  0  0  0
  161.7260  206.5300  149.6240 O   0  0  0  0  0  0  0  0  0  0  0  0
  162.8910  210.1160  153.7440 C   0  0  0  0  0  2  0  0  0  0  0  0
  158.5770  213.0060  147.9450 O   0  0  0  0  0  0  0  0  0  0  0  0
  162.8120  209.1370  148.6860 C   0  0  1  0  0  3  0  0  0  0  0  0
  163.9530  209.9400  150.7790 C   0  0  0  0  0  1  0  0  0  0  0  0
  161.8240  210.3980  154.7800 C   0  0  1  0  0  3  0  0  0  0  0  0
  160.2970  212.7330  150.1250 C   0  0  0  0  0  0  0  0  0  0  0  0
  160.1110  206.7110  151.4070 C   0  0  1  0  0  3  0  0  0  0  0  0
  159.0380  206.0760  150.7740 O   0  0  0  0  0  1  0  0  0  0  0  0
  160.8900  205.7340  152.3030 C   0  0  1  0  0  3  0  0  0  0  0  0
  161.9650  206.1970  154.4130 O   0  0  0  0  0  1  0  0  0  0  0  0
  160.7220  206.0840  153.7830 C   0  0  0  0  0  2  0  0  0  0  0  0
  160.1990  203.5010  153.0520 O   0  0  0  0  0  1  0  0  0  0  0  0
  160.6480  204.2500  151.9590 C   0  0  2  0  0  3  0  0  0  0  0  0
  161.8780  203.5910  151.3150 C   0  0  0  0  0  2  0  0  0  0  0  0
  160.5060  201.6010  151.1960 O   0  0  0  0  0  1  0  0  0  0  0  0
  161.6480  202.2130  150.6800 C   0  0  1  0  0  3  0  0  0  0  0  0
  161.5920  202.2820  149.1570 C   0  0  0  0  0  2  0  0  0  0  0  0
  161.1940  200.6410  147.2610 C   0  0  0  0  0  0  0  0  0  0  0  0
  160.5560  201.6460  146.4680 N   0  0  0  0  0  2  0  0  0  0  0  0
  161.3450  199.4740  146.8090 O   0  0  0  0  0  0  0  0  0  0  0  0
  160.0910  201.3790  145.1180 C   0  0  0  0  0  1  0  0  0  0  0  0
  161.6650  200.9480  148.5750 N   0  0  0  0  0  2  0  0  0  0  0  0
  156.5720  213.3240  149.2520 C   0  0  0  0  0  2  0  0  0  0  0  0
  156.3710  214.4530  148.2400 C   0  0  0  0  0  2  0  0  0  0  0  0
  156.2100  213.9140  146.8310 C   0  0  0  0  0  1  0  0  0  0  0  0
  2 31  1  1  0  0  0
  2 32  1  0  0  0  0
  3 43  1  0  0  0  0
  4 39  1  6  0  0  0
  4 43  1  0  0  0  0
  5 12  1  0  0  0  0
  5 45  1  1  0  0  0
  6  3  1  6  0  0  0
  6 29  1  0  0  0  0
  7 38  1  0  0  0  0
  8 37  1  1  0  0  0
  8  6  1  0  0  0  0
  8 29  1  0  0  0  0
  9 44  1  6  0  0  0
  9 10  1  0  0  0  0
 10 36  1  0  0  0  0
 12 22  1  6  0  0  0
 13  7  1  0  0  0  0
 16 41  1  0  0  0  0
 17 31  1  0  0  0  0
 18 42  1  1  0  0  0
 18 12  1  0  0  0  0
 19 37  1  0  0  0  0
 20 17  1  0  0  0  0
 21 36  2  0  0  0  0
 22 24  1  0  0  0  0
 24 11  1  6  0  0  0
 24  4  1  0  0  0  0
 25 61  1  1  0  0  0
 25  9  1  0  0  0  0
 26 44  1  1  0  0  0
 27 40  1  6  0  0  0
 27 26  1  0  0  0  0
 28  7  1  0  0  0  0
 29 14  1  1  0  0  0
 30 15  1  6  0  0  0
 30 27  1  0  0  0  0
 32 16  1  6  0  0  0
 32 26  1  0  0  0  0
 33 23  1  6  0  0  0
 33 20  1  0  0  0  0
 33  2  1  0  0  0  0
 34 15  1  6  0  0  0
 34 30  1  0  0  0  0
 34 33  1  0  0  0  0
 35  7  1  0  0  0  0
 36 19  1  0  0  0  0
 38  5  1  0  0  0  0
 40 25  1  0  0  0  0
 41 13  1  6  0  0  0
 41 18  1  0  0  0  0
 43 39  1  6  0  0  0
 44  1  2  0  0  0  0
 45 46  1  6  0  0  0
 45 47  1  0  0  0  0
 47 49  1  1  0  0  0
 49 48  1  0  0  0  0
 51 47  1  0  0  0  0
 51 50  1  1  0  0  0
 52 51  1  0  0  0  0
 54 53  1  1  0  0  0
 54 52  1  0  0  0  0
 55 54  1  0  0  0  0
 56 60  1  0  0  0  0
 57 56  1  0  0  0  0
 58 56  2  0  0  0  0
 59 57  1  0  0  0  0
 60 55  1  0  0  0  0
 62 61  1  0  0  0  0
 63 62  1  0  0  0  0
M  END
>  <MODEL>
1

>  <REMARK>
 VINA RESULT:       8.1      0.000      0.000
  Name = 
  10 active torsions:
  status: ('A' for Active; 'I' for Inactive)
    1  A    between atoms: C_2  and  C_6
    2  A    between atoms: C_2  and  C_63
    3  A    between atoms: C_12  and  C_19
    4  A    between atoms: C_12  and  C_35
    5  A    between atoms: C_18  and  C_49
    6  A    between atoms: C_18  and  N_56
    7  A    between atoms: C_25  and  C_63
    8  A    between atoms: C_49  and  C_51
    9  A    between atoms: C_51  and  C_54
   10  A    between atoms: C_54  and  C_63
                            x       y       z     vdW  Elec       q    Type
                         _______ _______ _______ _____ _____    ______ ____

>  <TORSDO>
F 10

$$$$
