=
 OpenBabel11072415123D

 39 44  0  0  1  0  0  0  0  0999 V2000
  159.4160  208.9650  156.8340 N   0  0  0  0  0  0  0  0  0  0  0  0
  161.6180  209.2320  155.7590 C   0  0  1  0  0  3  0  0  0  0  0  0
  161.0200  210.4130  155.0440 C   0  0  0  0  0  0  0  0  0  0  0  0
  160.6540  208.5830  156.7180 C   0  0  0  0  0  3  0  0  0  0  0  0
  159.5870  210.7480  155.2140 C   0  0  0  0  0  0  0  0  0  0  0  0
  158.8530  210.0420  156.0740 C   0  0  0  0  0  3  0  0  0  0  0  0
  161.7570  211.1130  154.3020 O   0  0  0  0  0  0  0  0  0  0  0  0
  161.2550  207.2110  154.2740 C   0  0  0  0  0  0  0  0  0  0  0  0
  162.0880  208.2550  154.7860 N   0  0  0  0  0  2  0  0  0  0  0  0
  160.0470  207.1290  154.6270 O   0  0  0  0  0  0  0  0  0  0  0  0
  161.0380  206.3190  151.9500 C   0  0  2  0  0  0  0  0  0  0  0  0
  162.1780  206.6620  151.2280 C   0  0  1  0  0  3  0  0  0  0  0  0
  160.8210  205.2040  152.9900 C   0  0  0  0  0  2  0  0  0  0  0  0
  161.8140  206.2370  153.2870 C   0  0  2  0  0  3  0  0  0  0  0  0
  161.4720  205.4690  150.7700 N   0  0  0  0  0  0  0  0  0  0  0  0
  161.8110  208.0400  150.1060 S   0  0  0  0  0  1  0  0  0  0  0  0
  160.9030  203.1330  150.3260 C   0  0  0  0  0  3  0  0  0  0  0  0
  161.3700  203.5200  147.5950 C   0  0  0  0  0  3  0  0  0  0  0  0
  160.8290  201.2050  147.1790 O   0  0  0  0  0  1  0  0  0  0  0  0
  160.9800  202.2620  148.0660 C   0  0  0  0  0  0  0  0  0  0  0  0
  160.7480  202.0690  149.4330 C   0  0  0  0  0  3  0  0  0  0  0  0
  161.2940  204.3900  149.8550 C   0  0  0  0  0  0  0  0  0  0  0  0
  161.5290  204.5830  148.4900 C   0  0  0  0  0  3  0  0  0  0  0  0
  158.9060  211.8650  154.4720 C   0  0  2  0  0  3  0  0  0  0  0  0
  158.4540  214.3800  152.0400 C   0  0  0  0  0  2  0  0  0  0  0  0
  159.2780  210.6760  152.4130 O   0  0  0  0  0  0  0  0  0  0  0  0
  158.6910  213.6590  150.8890 C   0  0  2  0  0  3  0  0  0  0  0  0
  158.9870  211.7660  152.9760 C   0  0  0  0  0  0  0  0  0  0  0  0
  158.7640  212.9280  152.1880 N   0  0  0  0  0  0  0  0  0  0  0  0
  160.0990  213.9050  150.3870 C   0  0  0  0  0  2  0  0  0  0  0  0
  161.7610  211.8910  149.1340 O   0  0  0  0  0  1  0  0  0  0  0  0
  160.1410  213.7160  148.9440 N   0  0  0  0  0  2  0  0  0  0  0  0
  160.9660  212.5760  147.0940 O   0  0  0  0  0  0  0  0  0  0  0  0
  160.9610  212.7130  148.3460 C   0  0  0  0  0  0  0  0  0  0  0  0
  159.7520  214.2140  157.0550 N   0  0  0  0  0  2  0  0  0  0  0  0
  157.8870  213.9020  155.6150 C   0  0  0  0  0  2  0  0  0  0  0  0
  160.0980  213.1950  156.1500 N   0  0  0  0  0  2  0  0  0  0  0  0
  158.3080  214.3730  156.9790 C   0  0  0  0  0  2  0  0  0  0  0  0
  159.1360  213.2630  155.0600 C   0  0  1  0  0  3  0  0  0  0  0  0
  2  9  1  6  0  0  0
  2  4  1  0  0  0  0
  3  5  1  0  0  0  0
  3  2  1  0  0  0  0
  4  1  2  0  0  0  0
  5  6  2  0  0  0  0
  6  1  1  0  0  0  0
  7  3  2  0  0  0  0
  8 10  2  0  0  0  0
  8  9  1  0  0  0  0
 11 13  1  6  0  0  0
 11 14  1  0  0  0  0
 12 16  1  6  0  0  0
 12 11  1  0  0  0  0
 13 14  1  0  0  0  0
 14  8  1  1  0  0  0
 15 12  1  0  0  0  0
 15 11  1  0  0  0  0
 18 20  2  0  0  0  0
 18 23  1  0  0  0  0
 19 20  1  0  0  0  0
 20 21  1  0  0  0  0
 21 17  2  0  0  0  0
 22 17  1  0  0  0  0
 22 15  1  0  0  0  0
 23 22  2  0  0  0  0
 24 28  1  6  0  0  0
 24  5  1  0  0  0  0
 25 29  1  0  0  0  0
 26 28  2  0  0  0  0
 27 30  1  1  0  0  0
 27 25  1  0  0  0  0
 27 29  1  0  0  0  0
 29 28  1  0  0  0  0
 32 30  1  0  0  0  0
 33 34  2  0  0  0  0
 34 32  1  0  0  0  0
 34 31  1  0  0  0  0
 36 38  1  0  0  0  0
 37 35  1  0  0  0  0
 38 35  1  0  0  0  0
 39 24  1  1  0  0  0
 39 36  1  0  0  0  0
 39 37  1  0  0  0  0
M  END
>  <MODEL>
1

>  <REMARK>
 VINA RESULT:      -7.5      0.000      0.000
  Name = 
  8 active torsions:
  status: ('A' for Active; 'I' for Inactive)
    1  A    between atoms: C_11  and  C_17
    2  A    between atoms: C_11  and  N_22
    3  A    between atoms: C_12  and  N_23
    4  A    between atoms: C_14  and  C_24
    5  A    between atoms: C_21  and  C_33
    6  A    between atoms: C_25  and  N_34
    7  A    between atoms: C_26  and  C_33
    8  A    between atoms: C_33  and  C_37
                            x       y       z     vdW  Elec       q    Type
                         _______ _______ _______ _____ _____    ______ ____

>  <TORSDO>
F 8

$$$$
=
 OpenBabel11072415123D

 39 44  0  0  1  0  0  0  0  0999 V2000
  158.7240  209.3480  155.7670 N   0  0  0  0  0  0  0  0  0  0  0  0
  161.1450  209.1550  155.3520 C   0  0  1  0  0  3  0  0  0  0  0  0
  161.0770  210.5740  154.8560 C   0  0  0  0  0  0  0  0  0  0  0  0
  159.8160  208.6480  155.8490 C   0  0  0  0  0  3  0  0  0  0  0  0
  159.7770  211.2770  154.7660 C   0  0  0  0  0  0  0  0  0  0  0  0
  158.6770  210.6680  155.2100 C   0  0  0  0  0  3  0  0  0  0  0  0
  162.1430  211.1540  154.5220 O   0  0  0  0  0  0  0  0  0  0  0  0
  161.2820  206.9090  154.1860 C   0  0  0  0  0  0  0  0  0  0  0  0
  161.6460  208.2880  154.2940 N   0  0  0  0  0  2  0  0  0  0  0  0
  160.4630  206.4010  154.9990 O   0  0  0  0  0  0  0  0  0  0  0  0
  161.1110  206.3760  151.7510 C   0  0  2  0  0  0  0  0  0  0  0  0
  162.2750  206.7970  151.1140 C   0  0  1  0  0  3  0  0  0  0  0  0
  160.8470  205.1250  152.6080 C   0  0  0  0  0  2  0  0  0  0  0  0
  161.8500  206.0800  153.0790 C   0  0  2  0  0  3  0  0  0  0  0  0
  161.5600  205.7010  150.4680 N   0  0  0  0  0  0  0  0  0  0  0  0
  161.9620  208.3340  150.2010 S   0  0  0  0  0  1  0  0  0  0  0  0
  160.9960  203.4590  149.6720 C   0  0  0  0  0  3  0  0  0  0  0  0
  161.4740  204.2560  147.0330 C   0  0  0  0  0  3  0  0  0  0  0  0
  160.9370  202.0320  146.2680 O   0  0  0  0  0  1  0  0  0  0  0  0
  161.0820  202.9420  147.3060 C   0  0  0  0  0  0  0  0  0  0  0  0
  160.8450  202.5430  148.6270 C   0  0  0  0  0  3  0  0  0  0  0  0
  161.3870  204.7730  149.3990 C   0  0  0  0  0  0  0  0  0  0  0  0
  161.6270  205.1710  148.0800 C   0  0  0  0  0  3  0  0  0  0  0  0
  159.6260  212.6660  154.2090 C   0  0  2  0  0  3  0  0  0  0  0  0
  156.1920  213.2260  154.7970 C   0  0  0  0  0  2  0  0  0  0  0  0
  159.6560  214.4040  155.8720 O   0  0  0  0  0  0  0  0  0  0  0  0
  156.2620  214.2100  155.7600 C   0  0  2  0  0  3  0  0  0  0  0  0
  158.9680  213.6460  155.1360 C   0  0  0  0  0  0  0  0  0  0  0  0
  157.5480  213.6940  155.2070 N   0  0  0  0  0  0  0  0  0  0  0  0
  156.0520  213.6210  157.1390 C   0  0  0  0  0  2  0  0  0  0  0  0
  155.8190  210.7340  157.1740 O   0  0  0  0  0  0  0  0  0  0  0  0
  154.7650  212.9430  157.1880 N   0  0  0  0  0  2  0  0  0  0  0  0
  153.5380  210.9700  157.2610 O   0  0  0  0  0  1  0  0  0  0  0  0
  154.6700  211.5200  157.2130 C   0  0  0  0  0  0  0  0  0  0  0  0
  160.1070  212.8410  150.6530 N   0  0  0  0  0  2  0  0  0  0  0  0
  158.9030  214.1260  152.2500 C   0  0  0  0  0  2  0  0  0  0  0  0
  160.1950  212.1590  151.8800 N   0  0  0  0  0  2  0  0  0  0  0  0
  159.6610  214.1930  150.9530 C   0  0  0  0  0  2  0  0  0  0  0  0
  159.1710  212.7260  152.7450 C   0  0  1  0  0  3  0  0  0  0  0  0
  1  4  2  0  0  0  0
  2  9  1  6  0  0  0
  2  4  1  0  0  0  0
  3  2  1  0  0  0  0
  5  3  1  0  0  0  0
  5  6  2  0  0  0  0
  6  1  1  0  0  0  0
  7  3  2  0  0  0  0
  8  9  1  0  0  0  0
  8 10  2  0  0  0  0
 11 13  1  6  0  0  0
 11 14  1  0  0  0  0
 12 16  1  6  0  0  0
 12 11  1  0  0  0  0
 13 14  1  0  0  0  0
 14  8  1  1  0  0  0
 15 12  1  0  0  0  0
 15 11  1  0  0  0  0
 18 20  2  0  0  0  0
 18 23  1  0  0  0  0
 19 20  1  0  0  0  0
 20 21  1  0  0  0  0
 21 17  2  0  0  0  0
 22 17  1  0  0  0  0
 22 15  1  0  0  0  0
 23 22  2  0  0  0  0
 24  5  1  0  0  0  0
 24 28  1  1  0  0  0
 25 29  1  0  0  0  0
 25 27  1  0  0  0  0
 27 30  1  1  0  0  0
 28 29  1  0  0  0  0
 28 26  2  0  0  0  0
 29 27  1  0  0  0  0
 30 32  1  0  0  0  0
 31 34  2  0  0  0  0
 32 34  1  0  0  0  0
 34 33  1  0  0  0  0
 35 38  1  0  0  0  0
 35 37  1  0  0  0  0
 36 39  1  0  0  0  0
 37 39  1  0  0  0  0
 38 36  1  0  0  0  0
 39 24  1  1  0  0  0
M  END
>  <MODEL>
2

>  <REMARK>
 VINA RESULT:      -6.9      2.240      4.426
  Name = 
  8 active torsions:
  status: ('A' for Active; 'I' for Inactive)
    1  A    between atoms: C_11  and  C_17
    2  A    between atoms: C_11  and  N_22
    3  A    between atoms: C_12  and  N_23
    4  A    between atoms: C_14  and  C_24
    5  A    between atoms: C_21  and  C_33
    6  A    between atoms: C_25  and  N_34
    7  A    between atoms: C_26  and  C_33
    8  A    between atoms: C_33  and  C_37
                            x       y       z     vdW  Elec       q    Type
                         _______ _______ _______ _____ _____    ______ ____

>  <TORSDO>
F 8

$$$$
=
 OpenBabel11072415123D

 39 44  0  0  1  0  0  0  0  0999 V2000
  159.6360  209.8710  157.1470 N   0  0  0  0  0  0  0  0  0  0  0  0
  161.5450  210.1020  155.6060 C   0  0  1  0  0  3  0  0  0  0  0  0
  160.6440  210.9710  154.7710 C   0  0  0  0  0  0  0  0  0  0  0  0
  160.8820  209.6220  156.8710 C   0  0  0  0  0  3  0  0  0  0  0  0
  159.2250  211.1670  155.1510 C   0  0  0  0  0  0  0  0  0  0  0  0
  158.7780  210.6330  156.2880 C   0  0  0  0  0  3  0  0  0  0  0  0
  161.1150  211.5310  153.7470 O   0  0  0  0  0  0  0  0  0  0  0  0
  161.2090  207.7860  154.6350 C   0  0  0  0  0  0  0  0  0  0  0  0
  161.9990  208.9650  154.8170 N   0  0  0  0  0  2  0  0  0  0  0  0
  160.0520  207.7110  155.1290 O   0  0  0  0  0  0  0  0  0  0  0  0
  161.0800  206.6230  152.4270 C   0  0  2  0  0  0  0  0  0  0  0  0
  162.2920  206.7820  151.7620 C   0  0  1  0  0  3  0  0  0  0  0  0
  160.6960  205.6700  153.5740 C   0  0  0  0  0  2  0  0  0  0  0  0
  161.7510  206.6540  153.8220 C   0  0  2  0  0  3  0  0  0  0  0  0
  161.5200  205.5980  151.3980 N   0  0  0  0  0  0  0  0  0  0  0  0
  162.1240  208.0300  150.4540 S   0  0  0  0  0  1  0  0  0  0  0  0
  161.2390  204.5270  149.2180 C   0  0  0  0  0  3  0  0  0  0  0  0
  160.9500  202.0370  150.4590 C   0  0  0  0  0  3  0  0  0  0  0  0
  160.6510  201.0000  148.3000 O   0  0  0  0  0  1  0  0  0  0  0  0
  160.8740  202.1370  149.0660 C   0  0  0  0  0  0  0  0  0  0  0  0
  161.0180  203.3840  148.4460 C   0  0  0  0  0  3  0  0  0  0  0  0
  161.3140  204.4270  150.6100 C   0  0  0  0  0  0  0  0  0  0  0  0
  161.1680  203.1830  151.2310 C   0  0  0  0  0  3  0  0  0  0  0  0
  158.2500  211.9580  154.3230 C   0  0  2  0  0  3  0  0  0  0  0  0
  159.4880  212.2880  151.0360 C   0  0  0  0  0  2  0  0  0  0  0  0
  158.9150  214.2690  154.2430 O   0  0  0  0  0  0  0  0  0  0  0  0
  159.8380  213.6220  151.0350 C   0  0  2  0  0  3  0  0  0  0  0  0
  158.8350  213.1630  153.6450 C   0  0  0  0  0  0  0  0  0  0  0  0
  159.2740  213.0580  152.2960 N   0  0  0  0  0  0  0  0  0  0  0  0
  158.7710  214.4520  150.3510 C   0  0  0  0  0  2  0  0  0  0  0  0
  156.6850  212.8110  149.1920 O   0  0  0  0  0  1  0  0  0  0  0  0
  158.7340  214.1240  148.9330 N   0  0  0  0  0  2  0  0  0  0  0  0
  157.6930  213.0640  147.1460 O   0  0  0  0  0  0  0  0  0  0  0  0
  157.6940  213.3200  148.3790 C   0  0  0  0  0  0  0  0  0  0  0  0
  155.1060  213.6170  154.8370 N   0  0  0  0  0  2  0  0  0  0  0  0
  156.9110  212.9680  156.2410 C   0  0  0  0  0  2  0  0  0  0  0  0
  155.9890  212.8590  154.0480 N   0  0  0  0  0  2  0  0  0  0  0  0
  155.8360  213.9990  156.0360 C   0  0  0  0  0  2  0  0  0  0  0  0
  156.8730  212.1600  154.9680 C   0  0  1  0  0  3  0  0  0  0  0  0
  2  9  1  6  0  0  0
  2  4  1  0  0  0  0
  3  5  1  0  0  0  0
  3  2  1  0  0  0  0
  4  1  2  0  0  0  0
  5  6  2  0  0  0  0
  6  1  1  0  0  0  0
  7  3  2  0  0  0  0
  8  9  1  0  0  0  0
  8 10  2  0  0  0  0
 11 13  1  6  0  0  0
 11 14  1  0  0  0  0
 12 16  1  6  0  0  0
 12 11  1  0  0  0  0
 13 14  1  0  0  0  0
 14  8  1  1  0  0  0
 15 12  1  0  0  0  0
 15 11  1  0  0  0  0
 17 22  1  0  0  0  0
 18 23  1  0  0  0  0
 19 20  1  0  0  0  0
 20 18  2  0  0  0  0
 21 20  1  0  0  0  0
 21 17  2  0  0  0  0
 22 23  2  0  0  0  0
 22 15  1  0  0  0  0
 24 28  1  1  0  0  0
 24  5  1  0  0  0  0
 25 29  1  0  0  0  0
 27 30  1  6  0  0  0
 27 25  1  0  0  0  0
 27 29  1  0  0  0  0
 28 26  2  0  0  0  0
 29 28  1  0  0  0  0
 32 30  1  0  0  0  0
 33 34  2  0  0  0  0
 34 32  1  0  0  0  0
 34 31  1  0  0  0  0
 35 38  1  0  0  0  0
 37 35  1  0  0  0  0
 37 39  1  0  0  0  0
 38 36  1  0  0  0  0
 39 24  1  6  0  0  0
 39 36  1  0  0  0  0
M  END
>  <MODEL>
3

>  <REMARK>
 VINA RESULT:      -6.7      1.774      2.162
  Name = 
  8 active torsions:
  status: ('A' for Active; 'I' for Inactive)
    1  A    between atoms: C_11  and  C_17
    2  A    between atoms: C_11  and  N_22
    3  A    between atoms: C_12  and  N_23
    4  A    between atoms: C_14  and  C_24
    5  A    between atoms: C_21  and  C_33
    6  A    between atoms: C_25  and  N_34
    7  A    between atoms: C_26  and  C_33
    8  A    between atoms: C_33  and  C_37
                            x       y       z     vdW  Elec       q    Type
                         _______ _______ _______ _____ _____    ______ ____

>  <TORSDO>
F 8

$$$$
=
 OpenBabel11072415123D

 39 44  0  0  1  0  0  0  0  0999 V2000
  161.8500  209.8760  148.8630 N   0  0  0  0  0  0  0  0  0  0  0  0
  162.6010  209.6130  151.1950 C   0  0  1  0  0  3  0  0  0  0  0  0
  162.4090  208.1350  150.9910 C   0  0  0  0  0  0  0  0  0  0  0  0
  162.3050  210.4160  149.9550 C   0  0  0  0  0  3  0  0  0  0  0  0
  161.8500  207.6180  149.7200 C   0  0  0  0  0  0  0  0  0  0  0  0
  161.5980  208.4720  148.7270 C   0  0  0  0  0  3  0  0  0  0  0  0
  162.7350  207.3450  151.9150 O   0  0  0  0  0  0  0  0  0  0  0  0
  162.2900  210.3930  153.5860 C   0  0  0  0  0  0  0  0  0  0  0  0
  161.7630  210.0690  152.2960 N   0  0  0  0  0  2  0  0  0  0  0  0
  163.5310  210.3340  153.8010 O   0  0  0  0  0  0  0  0  0  0  0  0
  159.9970  210.1220  154.5420 C   0  0  2  0  0  0  0  0  0  0  0  0
  160.1010  209.5470  155.8050 C   0  0  1  0  0  3  0  0  0  0  0  0
  160.2370  211.5740  154.0920 C   0  0  0  0  0  2  0  0  0  0  0  0
  161.3630  210.8400  154.6710 C   0  0  2  0  0  3  0  0  0  0  0  0
  158.9140  210.3650  155.5770 N   0  0  0  0  0  0  0  0  0  0  0  0
  159.6400  207.7920  155.7280 S   0  0  0  0  0  1  0  0  0  0  0  0
  156.4700  210.3070  155.5650 C   0  0  0  0  0  3  0  0  0  0  0  0
  156.3910  212.5690  157.2100 C   0  0  0  0  0  3  0  0  0  0  0  0
  153.9790  212.5110  157.1680 O   0  0  0  0  0  1  0  0  0  0  0  0
  155.2000  211.9750  156.7820 C   0  0  0  0  0  0  0  0  0  0  0  0
  155.2400  210.8440  155.9570 C   0  0  0  0  0  3  0  0  0  0  0  0
  157.6600  210.9020  155.9940 C   0  0  0  0  0  0  0  0  0  0  0  0
  157.6210  212.0330  156.8150 C   0  0  0  0  0  3  0  0  0  0  0  0
  161.5610  206.1630  149.4760 C   0  0  2  0  0  3  0  0  0  0  0  0
  162.9970  204.4670  146.7360 C   0  0  0  0  0  2  0  0  0  0  0  0
  159.7850  206.1900  147.8530 O   0  0  0  0  0  0  0  0  0  0  0  0
  161.9440  204.4950  145.8460 C   0  0  2  0  0  3  0  0  0  0  0  0
  160.9680  205.8570  148.1310 C   0  0  0  0  0  0  0  0  0  0  0  0
  161.7460  205.1530  147.1710 N   0  0  0  0  0  0  0  0  0  0  0  0
  161.2130  203.1680  145.8450 C   0  0  0  0  0  2  0  0  0  0  0  0
  161.1250  200.3170  146.3520 O   0  0  0  0  0  0  0  0  0  0  0  0
  161.2060  202.6150  147.1920 N   0  0  0  0  0  2  0  0  0  0  0  0
  161.1710  200.7680  148.6020 O   0  0  0  0  0  1  0  0  0  0  0  0
  161.1700  201.2070  147.4220 C   0  0  0  0  0  0  0  0  0  0  0  0
  161.4630  203.7230  152.1110 N   0  0  0  0  0  2  0  0  0  0  0  0
  160.0660  204.2550  150.2630 C   0  0  0  0  0  2  0  0  0  0  0  0
  161.9750  204.8990  151.5340 N   0  0  0  0  0  2  0  0  0  0  0  0
  160.5580  203.1340  151.1360 C   0  0  0  0  0  2  0  0  0  0  0  0
  160.9330  205.4230  150.6640 C   0  0  1  0  0  3  0  0  0  0  0  0
  1  4  2  0  0  0  0
  2  9  1  1  0  0  0
  3  2  1  0  0  0  0
  3  7  2  0  0  0  0
  4  2  1  0  0  0  0
  5  3  1  0  0  0  0
  6  1  1  0  0  0  0
  6  5  2  0  0  0  0
  8 10  2  0  0  0  0
  9  8  1  0  0  0  0
 11 13  1  6  0  0  0
 11 14  1  0  0  0  0
 11 15  1  0  0  0  0
 11 12  1  0  0  0  0
 12 16  1  6  0  0  0
 13 14  1  0  0  0  0
 14  8  1  6  0  0  0
 15 12  1  0  0  0  0
 15 22  1  0  0  0  0
 17 21  2  0  0  0  0
 17 22  1  0  0  0  0
 20 19  1  0  0  0  0
 20 18  2  0  0  0  0
 21 20  1  0  0  0  0
 22 23  2  0  0  0  0
 23 18  1  0  0  0  0
 24 28  1  6  0  0  0
 24  5  1  0  0  0  0
 25 29  1  0  0  0  0
 26 28  2  0  0  0  0
 27 30  1  1  0  0  0
 27 25  1  0  0  0  0
 27 29  1  0  0  0  0
 29 28  1  0  0  0  0
 30 32  1  0  0  0  0
 31 34  2  0  0  0  0
 32 34  1  0  0  0  0
 34 33  1  0  0  0  0
 36 39  1  0  0  0  0
 36 38  1  0  0  0  0
 37 35  1  0  0  0  0
 38 35  1  0  0  0  0
 39 24  1  6  0  0  0
 39 37  1  0  0  0  0
M  END
>  <MODEL>
4

>  <REMARK>
 VINA RESULT:      -5.6      3.006      9.515
  Name = 
  8 active torsions:
  status: ('A' for Active; 'I' for Inactive)
    1  A    between atoms: C_11  and  C_17
    2  A    between atoms: C_11  and  N_22
    3  A    between atoms: C_12  and  N_23
    4  A    between atoms: C_14  and  C_24
    5  A    between atoms: C_21  and  C_33
    6  A    between atoms: C_25  and  N_34
    7  A    between atoms: C_26  and  C_33
    8  A    between atoms: C_33  and  C_37
                            x       y       z     vdW  Elec       q    Type
                         _______ _______ _______ _____ _____    ______ ____

>  <TORSDO>
F 8

$$$$
=
 OpenBabel11072415123D

 39 44  0  0  1  0  0  0  0  0999 V2000
  161.3670  210.9890  155.9990 N   0  0  0  0  0  0  0  0  0  0  0  0
  161.8810  210.6590  153.6120 C   0  0  1  0  0  3  0  0  0  0  0  0
  160.4340  210.9800  153.3530 C   0  0  0  0  0  0  0  0  0  0  0  0
  162.2450  210.7470  155.0710 C   0  0  0  0  0  3  0  0  0  0  0  0
  159.5010  211.2070  154.4810 C   0  0  0  0  0  0  0  0  0  0  0  0
  159.9770  211.2070  155.7270 C   0  0  0  0  0  3  0  0  0  0  0  0
  160.0300  211.0560  152.1630 O   0  0  0  0  0  0  0  0  0  0  0  0
  162.4150  209.0710  151.7110 C   0  0  0  0  0  0  0  0  0  0  0  0
  162.1880  209.3310  153.0990 N   0  0  0  0  0  2  0  0  0  0  0  0
  162.3980  210.0140  150.8750 O   0  0  0  0  0  0  0  0  0  0  0  0
  161.5020  207.0910  150.4900 C   0  0  2  0  0  0  0  0  0  0  0  0
  162.2450  206.8950  149.3300 C   0  0  1  0  0  3  0  0  0  0  0  0
  161.8310  206.7330  151.9510 C   0  0  0  0  0  2  0  0  0  0  0  0
  162.7110  207.6760  151.2600 C   0  0  2  0  0  3  0  0  0  0  0  0
  161.5950  205.7070  149.8750 N   0  0  0  0  0  0  0  0  0  0  0  0
  161.3110  207.4790  147.8880 S   0  0  0  0  0  1  0  0  0  0  0  0
  161.1130  203.5860  150.9910 C   0  0  0  0  0  3  0  0  0  0  0  0
  160.7500  202.3430  148.5110 C   0  0  0  0  0  3  0  0  0  0  0  0
  160.3000  200.2520  149.6290 O   0  0  0  0  0  1  0  0  0  0  0  0
  160.6120  201.6040  149.6900 C   0  0  0  0  0  0  0  0  0  0  0  0
  160.7950  202.2260  150.9300 C   0  0  0  0  0  3  0  0  0  0  0  0
  161.2510  204.3250  149.8120 C   0  0  0  0  0  0  0  0  0  0  0  0
  161.0710  203.7030  148.5720 C   0  0  0  0  0  3  0  0  0  0  0  0
  158.0290  211.4550  154.2990 C   0  0  2  0  0  3  0  0  0  0  0  0
  158.5670  212.8400  151.0990 C   0  0  0  0  0  2  0  0  0  0  0  0
  157.0890  213.6590  154.5160 O   0  0  0  0  0  0  0  0  0  0  0  0
  158.0020  214.0860  151.2680 C   0  0  2  0  0  3  0  0  0  0  0  0
  157.6820  212.8230  153.7850 C   0  0  0  0  0  0  0  0  0  0  0  0
  158.0010  213.1630  152.4410 N   0  0  0  0  0  0  0  0  0  0  0  0
  156.6090  214.1240  150.6750 C   0  0  0  0  0  2  0  0  0  0  0  0
  158.0790  214.4390  148.1990 O   0  0  0  0  0  1  0  0  0  0  0  0
  156.5170  213.1630  149.5860 N   0  0  0  0  0  2  0  0  0  0  0  0
  157.1540  212.4740  147.4590 O   0  0  0  0  0  0  0  0  0  0  0  0
  157.2550  213.3310  148.3760 C   0  0  0  0  0  0  0  0  0  0  0  0
  154.9170  210.8640  155.9930 N   0  0  0  0  0  2  0  0  0  0  0  0
  156.9790  211.8900  156.5800 C   0  0  0  0  0  2  0  0  0  0  0  0
  155.8060  210.6390  154.9270 N   0  0  0  0  0  2  0  0  0  0  0  0
  155.4930  211.9250  156.8050 C   0  0  0  0  0  2  0  0  0  0  0  0
  157.1410  210.9250  155.4310 C   0  0  1  0  0  3  0  0  0  0  0  0
  2  9  1  1  0  0  0
  2  4  1  0  0  0  0
  3  2  1  0  0  0  0
  3  5  1  0  0  0  0
  4  1  2  0  0  0  0
  5  6  2  0  0  0  0
  6  1  1  0  0  0  0
  7  3  2  0  0  0  0
  8  9  1  0  0  0  0
 10  8  2  0  0  0  0
 11 14  1  0  0  0  0
 11 13  1  6  0  0  0
 12 16  1  6  0  0  0
 12 15  1  0  0  0  0
 12 11  1  0  0  0  0
 14  8  1  1  0  0  0
 14 13  1  0  0  0  0
 15 11  1  0  0  0  0
 18 23  2  0  0  0  0
 18 20  1  0  0  0  0
 19 20  1  0  0  0  0
 20 21  2  0  0  0  0
 21 17  1  0  0  0  0
 22 15  1  0  0  0  0
 22 17  2  0  0  0  0
 23 22  1  0  0  0  0
 24 28  1  1  0  0  0
 24  5  1  0  0  0  0
 25 27  1  0  0  0  0
 25 29  1  0  0  0  0
 27 30  1  6  0  0  0
 27 29  1  0  0  0  0
 28 26  2  0  0  0  0
 29 28  1  0  0  0  0
 31 34  1  0  0  0  0
 32 30  1  0  0  0  0
 33 34  2  0  0  0  0
 34 32  1  0  0  0  0
 35 38  1  0  0  0  0
 36 38  1  0  0  0  0
 37 39  1  0  0  0  0
 37 35  1  0  0  0  0
 39 24  1  6  0  0  0
 39 36  1  0  0  0  0
M  END
>  <MODEL>
5

>  <REMARK>
 VINA RESULT:      -5.6      2.257      2.861
  Name = 
  8 active torsions:
  status: ('A' for Active; 'I' for Inactive)
    1  A    between atoms: C_11  and  C_17
    2  A    between atoms: C_11  and  N_22
    3  A    between atoms: C_12  and  N_23
    4  A    between atoms: C_14  and  C_24
    5  A    between atoms: C_21  and  C_33
    6  A    between atoms: C_25  and  N_34
    7  A    between atoms: C_26  and  C_33
    8  A    between atoms: C_33  and  C_37
                            x       y       z     vdW  Elec       q    Type
                         _______ _______ _______ _____ _____    ______ ____

>  <TORSDO>
F 8

$$$$
=
 OpenBabel11072415123D

 39 44  0  0  1  0  0  0  0  0999 V2000
  160.1410  210.2590  153.8410 N   0  0  0  0  0  0  0  0  0  0  0  0
  161.4330  209.0830  152.1040 C   0  0  1  0  0  3  0  0  0  0  0  0
  161.3480  210.3580  151.3110 C   0  0  0  0  0  0  0  0  0  0  0  0
  160.7800  209.1940  153.4570 C   0  0  0  0  0  3  0  0  0  0  0  0
  160.5650  211.5090  151.8190 C   0  0  0  0  0  0  0  0  0  0  0  0
  160.0060  211.4310  153.0260 C   0  0  0  0  0  3  0  0  0  0  0  0
  161.9550  210.4330  150.2110 O   0  0  0  0  0  0  0  0  0  0  0  0
  161.5590  207.2260  150.3840 C   0  0  0  0  0  0  0  0  0  0  0  0
  160.8310  207.9930  151.3470 N   0  0  0  0  0  2  0  0  0  0  0  0
  162.7850  207.4480  150.1870 O   0  0  0  0  0  0  0  0  0  0  0  0
  161.5800  204.7790  149.8780 C   0  0  2  0  0  0  0  0  0  0  0  0
  160.4420  204.1960  150.4260 C   0  0  1  0  0  3  0  0  0  0  0  0
  161.7480  205.6090  148.5920 C   0  0  0  0  0  2  0  0  0  0  0  0
  160.8670  206.1320  149.6360 C   0  0  2  0  0  3  0  0  0  0  0  0
  161.0150  203.5070  149.2730 N   0  0  0  0  0  0  0  0  0  0  0  0
  160.8740  203.2910  151.9390 S   0  0  0  0  0  1  0  0  0  0  0  0
  161.3890  201.1390  148.7960 C   0  0  0  0  0  3  0  0  0  0  0  0
  160.8180  201.5750  146.0920 C   0  0  0  0  0  3  0  0  0  0  0  0
  161.2150  199.2390  145.6350 O   0  0  0  0  0  1  0  0  0  0  0  0
  161.1570  200.2940  146.5370 C   0  0  0  0  0  0  0  0  0  0  0  0
  161.4440  200.0760  147.8900 C   0  0  0  0  0  3  0  0  0  0  0  0
  161.0510  202.4200  148.3510 C   0  0  0  0  0  0  0  0  0  0  0  0
  160.7670  202.6390  147.0000 C   0  0  0  0  0  3  0  0  0  0  0  0
  160.3740  212.7840  151.0450 C   0  0  2  0  0  3  0  0  0  0  0  0
  157.0190  213.3680  150.1210 C   0  0  0  0  0  2  0  0  0  0  0  0
  159.6770  214.4530  152.6310 O   0  0  0  0  0  0  0  0  0  0  0  0
  156.6630  214.3120  151.0610 C   0  0  2  0  0  3  0  0  0  0  0  0
  159.3770  213.7360  151.6400 C   0  0  0  0  0  0  0  0  0  0  0  0
  158.0650  213.8010  151.0940 N   0  0  0  0  0  0  0  0  0  0  0  0
  155.8820  213.6710  152.1890 C   0  0  0  0  0  2  0  0  0  0  0  0
  156.9710  212.0610  154.3370 O   0  0  0  0  0  0  0  0  0  0  0  0
  156.3020  214.2460  153.4600 N   0  0  0  0  0  2  0  0  0  0  0  0
  157.2000  213.9730  155.5850 O   0  0  0  0  0  1  0  0  0  0  0  0
  156.8430  213.4380  154.5030 C   0  0  0  0  0  0  0  0  0  0  0  0
  161.5640  213.0960  147.6700 N   0  0  0  0  0  2  0  0  0  0  0  0
  159.5810  213.7310  148.8160 C   0  0  0  0  0  2  0  0  0  0  0  0
  161.6430  212.5470  148.9620 N   0  0  0  0  0  2  0  0  0  0  0  0
  160.5200  214.1090  147.7050 C   0  0  0  0  0  2  0  0  0  0  0  0
  160.3010  212.6090  149.5220 C   0  0  1  0  0  3  0  0  0  0  0  0
  2  9  1  6  0  0  0
  2  4  1  0  0  0  0
  3  5  1  0  0  0  0
  3  2  1  0  0  0  0
  4  1  2  0  0  0  0
  5  6  2  0  0  0  0
  6  1  1  0  0  0  0
  7  3  2  0  0  0  0
  8  9  1  0  0  0  0
 10  8  2  0  0  0  0
 11 13  1  1  0  0  0
 11 12  1  0  0  0  0
 12 16  1  1  0  0  0
 13 14  1  0  0  0  0
 14 11  1  0  0  0  0
 14  8  1  1  0  0  0
 15 11  1  0  0  0  0
 15 12  1  0  0  0  0
 18 20  2  0  0  0  0
 18 23  1  0  0  0  0
 19 20  1  0  0  0  0
 20 21  1  0  0  0  0
 21 17  2  0  0  0  0
 22 17  1  0  0  0  0
 22 15  1  0  0  0  0
 23 22  2  0  0  0  0
 24 28  1  1  0  0  0
 24  5  1  0  0  0  0
 25 27  1  0  0  0  0
 25 29  1  0  0  0  0
 27 29  1  0  0  0  0
 27 30  1  1  0  0  0
 28 26  2  0  0  0  0
 29 28  1  0  0  0  0
 30 32  1  0  0  0  0
 31 34  2  0  0  0  0
 32 34  1  0  0  0  0
 34 33  1  0  0  0  0
 35 38  1  0  0  0  0
 35 37  1  0  0  0  0
 36 39  1  0  0  0  0
 37 39  1  0  0  0  0
 38 36  1  0  0  0  0
 39 24  1  1  0  0  0
M  END
>  <MODEL>
6

>  <REMARK>
 VINA RESULT:      -5.5      2.664      4.795
  Name = 
  8 active torsions:
  status: ('A' for Active; 'I' for Inactive)
    1  A    between atoms: C_11  and  C_17
    2  A    between atoms: C_11  and  N_22
    3  A    between atoms: C_12  and  N_23
    4  A    between atoms: C_14  and  C_24
    5  A    between atoms: C_21  and  C_33
    6  A    between atoms: C_25  and  N_34
    7  A    between atoms: C_26  and  C_33
    8  A    between atoms: C_33  and  C_37
                            x       y       z     vdW  Elec       q    Type
                         _______ _______ _______ _____ _____    ______ ____

>  <TORSDO>
F 8

$$$$
=
 OpenBabel11072415123D

 39 44  0  0  1  0  0  0  0  0999 V2000
  162.8790  210.7840  154.8620 N   0  0  0  0  0  0  0  0  0  0  0  0
  162.0170  210.4520  152.5780 C   0  0  1  0  0  3  0  0  0  0  0  0
  160.6590  210.3120  153.2120 C   0  0  0  0  0  0  0  0  0  0  0  0
  163.1010  210.7460  153.5820 C   0  0  0  0  0  3  0  0  0  0  0  0
  160.5130  210.3340  154.6860 C   0  0  0  0  0  0  0  0  0  0  0  0
  161.5870  210.5640  155.4420 C   0  0  0  0  0  3  0  0  0  0  0  0
  159.6510  210.1800  152.4710 O   0  0  0  0  0  0  0  0  0  0  0  0
  162.1220  207.9280  152.3670 C   0  0  0  0  0  0  0  0  0  0  0  0
  162.3390  209.2390  151.8370 N   0  0  0  0  0  2  0  0  0  0  0  0
  161.5940  207.7790  153.5030 O   0  0  0  0  0  0  0  0  0  0  0  0
  161.4740  206.5290  150.4010 C   0  0  2  0  0  0  0  0  0  0  0  0
  162.4520  206.6520  149.4190 C   0  0  1  0  0  3  0  0  0  0  0  0
  161.4690  205.6950  151.6960 C   0  0  0  0  0  2  0  0  0  0  0  0
  162.4920  206.7320  151.5500 C   0  0  2  0  0  3  0  0  0  0  0  0
  161.6820  205.4120  149.3950 N   0  0  0  0  0  0  0  0  0  0  0  0
  161.8660  207.7440  148.0930 S   0  0  0  0  0  1  0  0  0  0  0  0
  161.5620  203.9400  147.4460 C   0  0  0  0  0  3  0  0  0  0  0  0
  160.4230  201.9250  149.0170 C   0  0  0  0  0  3  0  0  0  0  0  0
  160.2910  200.4940  147.0780 O   0  0  0  0  0  1  0  0  0  0  0  0
  160.6430  201.7080  147.6530 C   0  0  0  0  0  0  0  0  0  0  0  0
  161.2120  202.7170  146.8670 C   0  0  0  0  0  3  0  0  0  0  0  0
  161.3430  204.1570  148.8100 C   0  0  0  0  0  0  0  0  0  0  0  0
  160.7720  203.1500  149.5950 C   0  0  0  0  0  3  0  0  0  0  0  0
  159.2000  210.1240  155.3890 C   0  0  2  0  0  3  0  0  0  0  0  0
  159.0200  213.3810  154.0450 C   0  0  0  0  0  2  0  0  0  0  0  0
  158.0340  211.3370  157.1090 O   0  0  0  0  0  0  0  0  0  0  0  0
  158.3350  214.0290  155.0530 C   0  0  2  0  0  3  0  0  0  0  0  0
  158.6010  211.3660  155.9840 C   0  0  0  0  0  0  0  0  0  0  0  0
  158.6460  212.5830  155.2490 N   0  0  0  0  0  0  0  0  0  0  0  0
  156.8700  214.1700  154.6960 C   0  0  0  0  0  2  0  0  0  0  0  0
  154.4930  213.4860  153.1880 O   0  0  0  0  0  1  0  0  0  0  0  0
  156.7400  214.4520  153.2730 N   0  0  0  0  0  2  0  0  0  0  0  0
  155.4820  214.3800  151.3200 O   0  0  0  0  0  0  0  0  0  0  0  0
  155.5580  214.1140  152.5490 C   0  0  0  0  0  0  0  0  0  0  0  0
  160.5670  207.3770  157.2560 N   0  0  0  0  0  2  0  0  0  0  0  0
  159.0040  207.5850  155.4780 C   0  0  0  0  0  2  0  0  0  0  0  0
  160.3380  208.7520  157.0690 N   0  0  0  0  0  2  0  0  0  0  0  0
  160.0660  206.7010  156.0690 C   0  0  0  0  0  2  0  0  0  0  0  0
  159.1310  208.8660  156.2640 C   0  0  1  0  0  3  0  0  0  0  0  0
  1  6  1  0  0  0  0
  2  9  1  1  0  0  0
  2  3  1  0  0  0  0
  2  4  1  0  0  0  0
  3  5  1  0  0  0  0
  4  1  2  0  0  0  0
  5 24  1  0  0  0  0
  5  6  2  0  0  0  0
  7  3  2  0  0  0  0
  8 10  2  0  0  0  0
  9  8  1  0  0  0  0
 11 14  1  0  0  0  0
 11 13  1  6  0  0  0
 12 16  1  6  0  0  0
 12 11  1  0  0  0  0
 14 13  1  0  0  0  0
 14  8  1  1  0  0  0
 15 12  1  0  0  0  0
 15 11  1  0  0  0  0
 17 22  1  0  0  0  0
 18 23  1  0  0  0  0
 19 20  1  0  0  0  0
 20 18  2  0  0  0  0
 21 17  2  0  0  0  0
 21 20  1  0  0  0  0
 22 15  1  0  0  0  0
 22 23  2  0  0  0  0
 24 28  1  1  0  0  0
 25 27  1  0  0  0  0
 25 29  1  0  0  0  0
 27 30  1  6  0  0  0
 27 29  1  0  0  0  0
 28 26  2  0  0  0  0
 29 28  1  0  0  0  0
 32 30  1  0  0  0  0
 33 34  2  0  0  0  0
 34 31  1  0  0  0  0
 34 32  1  0  0  0  0
 36 38  1  0  0  0  0
 36 39  1  0  0  0  0
 37 35  1  0  0  0  0
 38 35  1  0  0  0  0
 39 24  1  6  0  0  0
 39 37  1  0  0  0  0
M  END
>  <MODEL>
7

>  <REMARK>
 VINA RESULT:      -5.1      2.365      4.028
  Name = 
  8 active torsions:
  status: ('A' for Active; 'I' for Inactive)
    1  A    between atoms: C_11  and  C_17
    2  A    between atoms: C_11  and  N_22
    3  A    between atoms: C_12  and  N_23
    4  A    between atoms: C_14  and  C_24
    5  A    between atoms: C_21  and  C_33
    6  A    between atoms: C_25  and  N_34
    7  A    between atoms: C_26  and  C_33
    8  A    between atoms: C_33  and  C_37
                            x       y       z     vdW  Elec       q    Type
                         _______ _______ _______ _____ _____    ______ ____

>  <TORSDO>
F 8

$$$$
=
 OpenBabel11072415123D

 39 44  0  0  1  0  0  0  0  0999 V2000
  161.0490  208.4070  148.0540 N   0  0  0  0  0  0  0  0  0  0  0  0
  162.3630  208.7880  150.1040 C   0  0  1  0  0  3  0  0  0  0  0  0
  162.5060  207.2920  150.1770 C   0  0  0  0  0  0  0  0  0  0  0  0
  161.5950  209.2410  148.8890 C   0  0  0  0  0  3  0  0  0  0  0  0
  161.8150  206.4220  149.1960 C   0  0  0  0  0  0  0  0  0  0  0  0
  161.1330  206.9840  148.1980 C   0  0  0  0  0  3  0  0  0  0  0  0
  163.2250  206.7920  151.0810 O   0  0  0  0  0  0  0  0  0  0  0  0
  162.3800  210.1290  152.2540 C   0  0  0  0  0  0  0  0  0  0  0  0
  161.7170  209.2780  151.3140 N   0  0  0  0  0  2  0  0  0  0  0  0
  163.5570  210.5240  152.0360 O   0  0  0  0  0  0  0  0  0  0  0  0
  160.2740  209.8830  153.5770 C   0  0  2  0  0  0  0  0  0  0  0  0
  160.5770  209.2940  154.8010 C   0  0  1  0  0  3  0  0  0  0  0  0
  160.4610  211.3370  153.1040 C   0  0  0  0  0  2  0  0  0  0  0  0
  161.6540  210.5790  153.4820 C   0  0  2  0  0  3  0  0  0  0  0  0
  159.3830  210.1330  154.7800 N   0  0  0  0  0  0  0  0  0  0  0  0
  160.0810  207.5480  154.7880 S   0  0  0  0  0  1  0  0  0  0  0  0
  156.9610  210.4610  154.8510 C   0  0  0  0  0  3  0  0  0  0  0  0
  157.2230  212.0180  157.1600 C   0  0  0  0  0  3  0  0  0  0  0  0
  154.8330  212.3520  157.2020 O   0  0  0  0  0  1  0  0  0  0  0  0
  155.9580  211.7950  156.6080 C   0  0  0  0  0  0  0  0  0  0  0  0
  155.8280  211.0170  155.4510 C   0  0  0  0  0  3  0  0  0  0  0  0
  158.2260  210.6840  155.4040 C   0  0  0  0  0  0  0  0  0  0  0  0
  158.3560  211.4630  156.5580 C   0  0  0  0  0  3  0  0  0  0  0  0
  161.8520  204.9200  149.2550 C   0  0  2  0  0  3  0  0  0  0  0  0
  160.1820  202.1530  147.8420 C   0  0  0  0  0  2  0  0  0  0  0  0
  162.9560  204.6710  147.1320 O   0  0  0  0  0  0  0  0  0  0  0  0
  160.8340  202.0610  146.6300 C   0  0  2  0  0  3  0  0  0  0  0  0
  162.0820  204.2460  147.9340 C   0  0  0  0  0  0  0  0  0  0  0  0
  161.2760  203.1310  147.5720 N   0  0  0  0  0  0  0  0  0  0  0  0
  160.0050  202.6890  145.5290 C   0  0  0  0  0  2  0  0  0  0  0  0
  159.8820  205.5710  145.2610 O   0  0  0  0  0  1  0  0  0  0  0  0
  160.8750  203.4260  144.6240 N   0  0  0  0  0  2  0  0  0  0  0  0
  161.5800  205.4490  143.7210 O   0  0  0  0  0  0  0  0  0  0  0  0
  160.8060  204.8470  144.5110 C   0  0  0  0  0  0  0  0  0  0  0  0
  160.0820  204.3770  152.3340 N   0  0  0  0  0  2  0  0  0  0  0  0
  161.2080  202.9790  150.7760 C   0  0  0  0  0  2  0  0  0  0  0  0
  160.4420  205.1860  151.2410 N   0  0  0  0  0  2  0  0  0  0  0  0
  160.8650  203.1550  152.2280 C   0  0  0  0  0  2  0  0  0  0  0  0
  160.7810  204.2840  150.1500 C   0  0  1  0  0  3  0  0  0  0  0  0
  1  6  1  0  0  0  0
  1  4  2  0  0  0  0
  2  3  1  0  0  0  0
  2  9  1  1  0  0  0
  3  7  2  0  0  0  0
  4  2  1  0  0  0  0
  5 24  1  0  0  0  0
  5  3  1  0  0  0  0
  6  5  2  0  0  0  0
  9  8  1  0  0  0  0
 10  8  2  0  0  0  0
 11 13  1  6  0  0  0
 11 15  1  0  0  0  0
 11 12  1  0  0  0  0
 12 16  1  6  0  0  0
 13 14  1  0  0  0  0
 14  8  1  6  0  0  0
 14 11  1  0  0  0  0
 15 12  1  0  0  0  0
 15 22  1  0  0  0  0
 17 22  2  0  0  0  0
 17 21  1  0  0  0  0
 20 18  1  0  0  0  0
 20 19  1  0  0  0  0
 21 20  2  0  0  0  0
 22 23  1  0  0  0  0
 23 18  2  0  0  0  0
 24 28  1  6  0  0  0
 26 28  2  0  0  0  0
 27 30  1  6  0  0  0
 27 29  1  0  0  0  0
 27 25  1  0  0  0  0
 29 25  1  0  0  0  0
 29 28  1  0  0  0  0
 32 30  1  0  0  0  0
 33 34  2  0  0  0  0
 34 32  1  0  0  0  0
 34 31  1  0  0  0  0
 36 38  1  0  0  0  0
 37 35  1  0  0  0  0
 38 35  1  0  0  0  0
 39 24  1  1  0  0  0
 39 36  1  0  0  0  0
 39 37  1  0  0  0  0
M  END
>  <MODEL>
8

>  <REMARK>
 VINA RESULT:      -4.7      3.139      9.421
  Name = 
  8 active torsions:
  status: ('A' for Active; 'I' for Inactive)
    1  A    between atoms: C_11  and  C_17
    2  A    between atoms: C_11  and  N_22
    3  A    between atoms: C_12  and  N_23
    4  A    between atoms: C_14  and  C_24
    5  A    between atoms: C_21  and  C_33
    6  A    between atoms: C_25  and  N_34
    7  A    between atoms: C_26  and  C_33
    8  A    between atoms: C_33  and  C_37
                            x       y       z     vdW  Elec       q    Type
                         _______ _______ _______ _____ _____    ______ ____

>  <TORSDO>
F 8

$$$$
