=
 OpenBabel11072412343D

 51 58  0  0  1  0  0  0  0  0999 V2000
  160.6830  210.7740  151.9840 C   0  0  2  0  0  3  0  0  0  0  0  0
  159.2740  210.1770  154.0720 C   0  0  0  0  0  2  0  0  0  0  0  0
  161.9590  206.8110  153.4290 C   0  0  0  0  0  2  0  0  0  0  0  0
  161.4060  209.6350  154.3300 C   0  0  1  0  0  3  0  0  0  0  0  0
  161.8030  207.2310  147.5050 N   0  0  0  0  0  0  0  0  0  0  0  0
  159.6300  208.7260  155.9500 C   0  0  1  0  0  3  0  0  0  0  0  0
  160.5640  206.9560  157.2540 F   0  0  0  0  0  0  0  0  0  0  0  0
  161.0590  205.8180  154.1680 C   0  0  0  0  0  2  0  0  0  0  0  0
  161.0920  206.5980  151.0580 C   0  0  0  0  0  2  0  0  0  0  0  0
  160.4970  205.5090  148.4390 O   0  0  0  0  0  0  0  0  0  0  0  0
  160.2200  209.9470  155.2150 C   0  0  2  0  0  0  0  0  0  0  0  0
  161.3180  207.5230  152.2350 C   0  0  1  0  0  3  0  0  0  0  0  0
  160.4140  209.7420  153.1260 C   0  0  2  0  0  0  0  0  0  0  0  0
  160.5460  207.5030  155.9830 C   0  0  1  0  0  3  0  0  0  0  0  0
  161.8780  210.3500  151.1310 C   0  0  0  0  0  2  0  0  0  0  0  0
  162.0980  208.4340  149.5580 C   0  0  1  0  0  3  0  0  0  0  0  0
  159.9760  206.4910  155.0060 C   0  0  0  0  0  2  0  0  0  0  0  0
  160.0740  208.3530  152.5650 C   0  0  0  0  0  2  0  0  0  0  0  0
  161.0700  206.6330  148.5540 C   0  0  0  0  0  0  0  0  0  0  0  0
  161.1840  207.3210  149.7860 N   0  0  0  0  0  0  0  0  0  0  0  0
  162.4920  208.3770  148.0710 C   0  0  0  0  0  2  0  0  0  0  0  0
  161.3850  209.7470  149.8270 C   0  0  0  0  0  2  0  0  0  0  0  0
  160.1700  209.8820  156.7410 C   0  0  1  0  0  3  0  0  0  0  0  0
  162.4740  210.7390  154.3730 C   0  0  1  0  0  3  0  0  0  0  0  0
  164.3570  211.2190  155.8950 C   0  0  1  0  0  3  0  0  0  0  0  0
  162.8480  211.1740  155.7800 C   0  0  0  0  0  2  0  0  0  0  0  0
  164.9280  210.6590  154.6100 C   0  0  2  0  0  3  0  0  0  0  0  0
  164.9470  212.1570  154.8570 C   0  0  0  0  0  2  0  0  0  0  0  0
  163.7590  210.2580  153.7280 C   0  0  0  0  0  2  0  0  0  0  0  0
  159.9090  212.4720  153.5180 O   0  0  0  0  0  1  0  0  0  0  0  0
  160.7620  212.2500  152.4380 C   0  0  2  0  0  3  0  0  0  0  0  0
  160.4270  213.2310  151.3480 C   0  0  0  0  0  3  0  0  0  0  0  0
  159.7910  214.2460  151.5790 O   0  0  0  0  0  0  0  0  0  0  0  0
  162.3870  206.4200  146.4530 C   0  0  0  0  0  2  0  0  0  0  0  0
  161.3020  205.7360  145.6390 C   0  0  0  0  0  2  0  0  0  0  0  0
  163.1780  204.0960  145.6720 C   0  0  0  0  0  1  0  0  0  0  0  0
  161.7190  204.3010  145.3150 C   0  0  1  0  0  3  0  0  0  0  0  0
  161.3820  202.9000  147.2480 O   0  0  0  0  0  1  0  0  0  0  0  0
  160.6560  201.9890  145.1700 C   0  0  0  0  0  1  0  0  0  0  0  0
  160.8480  203.2440  146.0080 C   0  0  2  0  0  3  0  0  0  0  0  0
  159.0670  210.6770  157.2600 N   0  0  0  0  0  2  0  0  0  0  0  0
  155.8870  213.2270  155.7720 C   0  0  2  0  0  3  0  0  0  0  0  0
  157.9260  214.0820  156.3180 N   0  0  0  0  0  2  0  0  0  0  0  0
  156.7020  214.4470  155.7320 N   0  0  0  0  0  2  0  0  0  0  0  0
  159.0310  212.0960  157.1070 C   0  0  0  0  0  3  0  0  0  0  0  0
  156.8080  212.0210  155.9760 C   0  0  0  0  0  2  0  0  0  0  0  0
  158.0290  212.6850  156.4600 C   0  0  0  0  0  0  0  0  0  0  0  0
  155.0620  213.0950  154.5010 C   0  0  0  0  0  2  0  0  0  0  0  0
  155.3480  214.4510  152.3960 N   0  0  0  0  0  1  0  0  0  0  0  0
  155.8680  213.4970  153.3140 C   0  0  0  0  0  0  0  0  0  0  0  0
  157.0230  213.0210  153.1400 O   0  0  0  0  0  0  0  0  0  0  0  0
  1 31  1  1  0  0  0
  1 13  1  0  0  0  0
  2 11  1  0  0  0  0
  3  8  1  0  0  0  0
  4 24  1  6  0  0  0
  4 11  1  0  0  0  0
  5 21  1  0  0  0  0
  5 19  1  0  0  0  0
  6 14  1  0  0  0  0
  6 23  1  0  0  0  0
  8 17  1  0  0  0  0
  9 12  1  0  0  0  0
 10 19  2  0  0  0  0
 11  6  1  0  0  0  0
 11 23  1  0  0  0  0
 12 18  1  0  0  0  0
 12  3  1  0  0  0  0
 13  2  1  0  0  0  0
 13  4  1  0  0  0  0
 14  7  1  0  0  0  0
 15  1  1  0  0  0  0
 16 20  1  0  0  0  0
 16 22  1  0  0  0  0
 17 14  1  0  0  0  0
 18 13  1  0  0  0  0
 19 20  1  0  0  0  0
 20  9  1  0  0  0  0
 21 16  1  0  0  0  0
 22 15  1  0  0  0  0
 23 41  1  0  0  0  0
 24 26  1  0  0  0  0
 26 25  1  0  0  0  0
 27 28  1  0  0  0  0
 27 25  1  0  0  0  0
 28 25  1  0  0  0  0
 29 24  1  0  0  0  0
 29 27  1  0  0  0  0
 31 30  1  0  0  0  0
 32 33  2  0  0  0  0
 32 31  1  0  0  0  0
 34  5  1  0  0  0  0
 35 34  1  0  0  0  0
 37 35  1  0  0  0  0
 37 36  1  0  0  0  0
 37 40  1  0  0  0  0
 39 40  1  0  0  0  0
 40 38  1  0  0  0  0
 42 46  1  0  0  0  0
 43 47  1  0  0  0  0
 44 42  1  0  0  0  0
 44 43  1  0  0  0  0
 45 41  1  0  0  0  0
 46 47  1  0  0  0  0
 47 45  2  0  0  0  0
 48 42  1  0  0  0  0
 49 50  1  0  0  0  0
 50 48  1  0  0  0  0
 51 50  2  0  0  0  0
M  END
>  <MODEL>
1

>  <REMARK>
 VINA RESULT:       1.2      0.000      0.000
  Name = 
  11 active torsions:
  status: ('A' for Active; 'I' for Inactive)
    1  A    between atoms: C_1  and  C_35
    2  A    between atoms: C_2  and  C_9
    3  A    between atoms: C_3  and  C_13
    4  A    between atoms: C_4  and  C_35
    5  A    between atoms: N_10  and  C_11
    6  A    between atoms: C_11  and  C_51
    7  A    between atoms: C_13  and  C_34
    8  A    between atoms: C_28  and  C_48
    9  A    between atoms: C_28  and  C_51
   10  A    between atoms: N_36  and  C_37
   11  A    between atoms: N_36  and  C_49
                            x       y       z     vdW  Elec       q    Type
                         _______ _______ _______ _____ _____    ______ ____

>  <TORSDO>
F 11

$$$$
=
 OpenBabel11072412343D

 51 58  0  0  1  0  0  0  0  0999 V2000
  160.8120  210.5750  151.8240 C   0  0  2  0  0  3  0  0  0  0  0  0
  159.5110  210.0430  153.9970 C   0  0  0  0  0  2  0  0  0  0  0  0
  162.2490  206.7130  153.3880 C   0  0  0  0  0  2  0  0  0  0  0  0
  161.6650  209.5630  154.1840 C   0  0  1  0  0  3  0  0  0  0  0  0
  161.8250  206.8560  147.4640 N   0  0  0  0  0  0  0  0  0  0  0  0
  159.9850  208.6880  155.9210 C   0  0  1  0  0  3  0  0  0  0  0  0
  161.0190  207.0020  157.2600 F   0  0  0  0  0  0  0  0  0  0  0  0
  161.4070  205.7350  154.2100 C   0  0  0  0  0  2  0  0  0  0  0  0
  161.2850  206.3720  151.0690 C   0  0  0  0  0  2  0  0  0  0  0  0
  160.6040  205.1490  148.5310 O   0  0  0  0  0  0  0  0  0  0  0  0
  160.5110  209.8880  155.1060 C   0  0  2  0  0  0  0  0  0  0  0  0
  161.5390  207.3550  152.1920 C   0  0  1  0  0  3  0  0  0  0  0  0
  160.6190  209.5910  153.0220 C   0  0  2  0  0  0  0  0  0  0  0  0
  160.9320  207.4900  155.9680 C   0  0  1  0  0  3  0  0  0  0  0  0
  161.9800  210.1400  150.9380 C   0  0  0  0  0  2  0  0  0  0  0  0
  162.1790  208.1590  149.4450 C   0  0  1  0  0  3  0  0  0  0  0  0
  160.3450  206.4210  155.0640 C   0  0  0  0  0  2  0  0  0  0  0  0
  160.2900  208.1700  152.5390 C   0  0  0  0  0  2  0  0  0  0  0  0
  161.1540  206.2900  148.5700 C   0  0  0  0  0  0  0  0  0  0  0  0
  161.3030  207.0370  149.7630 N   0  0  0  0  0  0  0  0  0  0  0  0
  162.5090  208.0430  147.9460 C   0  0  0  0  0  2  0  0  0  0  0  0
  161.4450  209.4660  149.6860 C   0  0  0  0  0  2  0  0  0  0  0  0
  160.5290  209.8920  156.6340 C   0  0  1  0  0  3  0  0  0  0  0  0
  162.7060  210.6920  154.1290 C   0  0  1  0  0  3  0  0  0  0  0  0
  164.7770  211.1520  155.3910 C   0  0  1  0  0  3  0  0  0  0  0  0
  163.2680  211.0720  155.4890 C   0  0  0  0  0  2  0  0  0  0  0  0
  165.1700  210.6660  154.0120 C   0  0  2  0  0  3  0  0  0  0  0  0
  165.1940  212.1510  154.3280 C   0  0  0  0  0  2  0  0  0  0  0  0
  163.8950  210.2760  153.2860 C   0  0  0  0  0  2  0  0  0  0  0  0
  159.8980  212.3710  153.1560 O   0  0  0  0  0  1  0  0  0  0  0  0
  160.8740  212.0720  152.2060 C   0  0  2  0  0  3  0  0  0  0  0  0
  160.7070  212.9980  151.0330 C   0  0  0  0  0  3  0  0  0  0  0  0
  160.2540  214.1220  151.1690 O   0  0  0  0  0  0  0  0  0  0  0  0
  162.3830  206.0100  146.4240 C   0  0  0  0  0  2  0  0  0  0  0  0
  161.8980  204.5800  146.5800 C   0  0  0  0  0  2  0  0  0  0  0  0
  161.2310  205.0280  144.2210 C   0  0  0  0  0  1  0  0  0  0  0  0
  160.8940  204.2460  145.4750 C   0  0  1  0  0  3  0  0  0  0  0  0
  159.6140  202.4380  144.5230 O   0  0  0  0  0  1  0  0  0  0  0  0
  160.9740  201.8700  146.3950 C   0  0  0  0  0  1  0  0  0  0  0  0
  160.8140  202.7450  145.1610 C   0  0  2  0  0  3  0  0  0  0  0  0
  159.4300  210.6850  157.1660 N   0  0  0  0  0  2  0  0  0  0  0  0
  155.6500  212.8110  157.0570 C   0  0  2  0  0  3  0  0  0  0  0  0
  157.5170  213.6760  156.0810 N   0  0  0  0  0  2  0  0  0  0  0  0
  156.1360  213.9070  156.2110 N   0  0  0  0  0  2  0  0  0  0  0  0
  159.1270  211.9820  156.6520 C   0  0  0  0  0  3  0  0  0  0  0  0
  156.6820  211.6810  157.0500 C   0  0  0  0  0  2  0  0  0  0  0  0
  157.8660  212.3920  156.5420 C   0  0  0  0  0  0  0  0  0  0  0  0
  154.2880  212.3310  156.5770 C   0  0  0  0  0  2  0  0  0  0  0  0
  155.0270  210.2340  155.3910 N   0  0  0  0  0  1  0  0  0  0  0  0
  154.2800  210.8480  156.4340 C   0  0  0  0  0  0  0  0  0  0  0  0
  153.6430  210.1350  157.2570 O   0  0  0  0  0  0  0  0  0  0  0  0
  1 31  1  1  0  0  0
  1 13  1  0  0  0  0
  2 11  1  0  0  0  0
  3  8  1  0  0  0  0
  4 24  1  6  0  0  0
  4 11  1  0  0  0  0
  5 21  1  0  0  0  0
  5 19  1  0  0  0  0
  6 14  1  0  0  0  0
  6 23  1  0  0  0  0
  8 17  1  0  0  0  0
  9 12  1  0  0  0  0
 10 19  2  0  0  0  0
 11  6  1  0  0  0  0
 11 23  1  0  0  0  0
 12 18  1  0  0  0  0
 12  3  1  0  0  0  0
 13  2  1  0  0  0  0
 13  4  1  0  0  0  0
 14  7  1  0  0  0  0
 15  1  1  0  0  0  0
 16 22  1  0  0  0  0
 16 20  1  0  0  0  0
 17 14  1  0  0  0  0
 18 13  1  0  0  0  0
 19 20  1  0  0  0  0
 20  9  1  0  0  0  0
 21 16  1  0  0  0  0
 22 15  1  0  0  0  0
 23 41  1  0  0  0  0
 24 26  1  0  0  0  0
 25 26  1  0  0  0  0
 27 28  1  0  0  0  0
 27 25  1  0  0  0  0
 28 25  1  0  0  0  0
 29 27  1  0  0  0  0
 29 24  1  0  0  0  0
 31 30  1  0  0  0  0
 32 33  2  0  0  0  0
 32 31  1  0  0  0  0
 34 35  1  0  0  0  0
 34  5  1  0  0  0  0
 36 37  1  0  0  0  0
 37 35  1  0  0  0  0
 38 40  1  0  0  0  0
 40 37  1  0  0  0  0
 40 39  1  0  0  0  0
 43 44  1  0  0  0  0
 43 47  1  0  0  0  0
 44 42  1  0  0  0  0
 45 41  1  0  0  0  0
 46 42  1  0  0  0  0
 47 45  2  0  0  0  0
 47 46  1  0  0  0  0
 48 42  1  0  0  0  0
 49 50  1  0  0  0  0
 50 48  1  0  0  0  0
 50 51  2  0  0  0  0
M  END
>  <MODEL>
2

>  <REMARK>
 VINA RESULT:       2.9      1.375      1.547
  Name = 
  11 active torsions:
  status: ('A' for Active; 'I' for Inactive)
    1  A    between atoms: C_1  and  C_35
    2  A    between atoms: C_2  and  C_9
    3  A    between atoms: C_3  and  C_13
    4  A    between atoms: C_4  and  C_35
    5  A    between atoms: N_10  and  C_11
    6  A    between atoms: C_11  and  C_51
    7  A    between atoms: C_13  and  C_34
    8  A    between atoms: C_28  and  C_48
    9  A    between atoms: C_28  and  C_51
   10  A    between atoms: N_36  and  C_37
   11  A    between atoms: N_36  and  C_49
                            x       y       z     vdW  Elec       q    Type
                         _______ _______ _______ _____ _____    ______ ____

>  <TORSDO>
F 11

$$$$
