=
 OpenBabel11072412023D

 45 51  0  0  1  0  0  0  0  0999 V2000
  158.7470  213.1600  145.8590 N   0  0  0  0  0  0  0  0  0  0  0  0
  159.4720  213.8920  151.2050 C   0  0  2  0  0  3  0  0  0  0  0  0
  160.8560  211.5610  150.4320 C   0  0  2  0  0  3  0  0  0  0  0  0
  156.4390  214.4530  145.6990 O   0  0  0  0  0  0  0  0  0  0  0  0
  159.2850  213.3550  149.7770 C   0  0  2  0  0  3  0  0  0  0  0  0
  161.0710  212.3120  151.7610 C   0  0  2  0  0  3  0  0  0  0  0  0
  159.1500  213.6030  144.7140 C   0  0  0  0  0  3  0  0  0  0  0  0
  161.5990  213.1900  145.0290 C   0  0  0  0  0  3  0  0  0  0  0  0
  161.5120  213.8360  147.4040 C   0  0  0  0  0  2  0  0  0  0  0  0
  161.5260  212.6730  146.4260 C   0  0  0  0  0  2  0  0  0  0  0  0
  161.9850  210.8060  150.1070 O   0  0  0  0  0  1  0  0  0  0  0  0
  160.2820  211.6760  152.8970 C   0  0  0  0  0  2  0  0  0  0  0  0
  156.3870  212.0000  145.6410 O   0  0  0  0  0  0  0  0  0  0  0  0
  160.5630  213.5900  144.2720 C   0  0  0  0  0  0  0  0  0  0  0  0
  156.8250  213.1610  148.0150 C   0  0  0  0  0  2  0  0  0  0  0  0
  160.7920  213.6970  151.6840 O   0  0  0  0  0  0  0  0  0  0  0  0
  158.7030  213.4550  153.5950 C   0  0  1  0  0  3  0  0  0  0  0  0
  161.6670  213.3420  148.8350 C   0  0  0  0  0  2  0  0  0  0  0  0
  157.3250  214.4420  148.6660 C   0  0  0  0  0  2  0  0  0  0  0  0
  160.4650  212.5020  149.2890 C   0  0  1  0  0  3  0  0  0  0  0  0
  157.0620  213.1970  146.2470 S   0  0  0  0  0  0  0  0  0  0  0  0
  158.8020  212.0820  152.9400 C   0  0  1  0  0  3  0  0  0  0  0  0
  158.8410  214.4350  148.7990 C   0  0  0  0  0  2  0  0  0  0  0  0
  158.3820  213.3100  152.1220 C   0  0  2  0  0  3  0  0  0  0  0  0
  160.8520  214.1640  142.9080 C   0  0  1  0  0  3  0  0  0  0  0  0
  160.5550  211.8380  142.2050 O   0  0  0  0  0  1  0  0  0  0  0  0
  162.1310  213.6040  142.3020 C   0  0  0  0  0  2  0  0  0  0  0  0
  160.7960  213.1420  141.7620 C   0  0  2  0  0  3  0  0  0  0  0  0
  157.2100  213.5600  154.5710 S   0  0  0  0  0  0  0  0  0  0  0  0
  157.4650  214.4520  155.7530 O   0  0  0  0  0  0  0  0  0  0  0  0
  156.1080  214.1690  153.7460 O   0  0  0  0  0  0  0  0  0  0  0  0
  155.6200  211.2720  154.5790 C   0  0  0  0  0  0  0  0  0  0  0  0
  156.7470  211.9710  155.1430 N   0  0  0  0  0  0  0  0  0  0  0  0
  154.9670  211.7670  153.6230 O   0  0  0  0  0  0  0  0  0  0  0  0
  155.1920  209.9430  155.1080 C   0  0  0  0  0  1  0  0  0  0  0  0
  159.4910  210.1870  156.0090 C   0  0  0  0  0  0  0  0  0  0  0  0
  160.4500  209.2270  155.6870 C   0  0  0  0  0  3  0  0  0  0  0  0
  158.6300  212.2280  156.7660 C   0  0  0  0  0  2  0  0  0  0  0  0
  157.4910  211.3280  156.2320 C   0  0  2  0  0  3  0  0  0  0  0  0
  161.1640  211.7100  156.8320 C   0  0  0  0  0  3  0  0  0  0  0  0
  159.8340  211.3880  156.5600 C   0  0  0  0  0  0  0  0  0  0  0  0
  161.7960  209.5230  155.9540 C   0  0  0  0  0  3  0  0  0  0  0  0
  158.1030  210.0780  155.7770 N   0  0  0  0  0  2  0  0  0  0  0  0
  162.1530  210.7600  156.5240 C   0  0  0  0  0  0  0  0  0  0  0  0
  163.5810  211.0630  156.8020 C   0  0  0  0  0  1  0  0  0  0  0  0
  1 21  1  0  0  0  0
  2 16  1  1  0  0  0
  2 24  1  0  0  0  0
  3 11  1  6  0  0  0
  3  6  1  0  0  0  0
  4 21  2  0  0  0  0
  5 23  1  6  0  0  0
  5  2  1  0  0  0  0
  6 12  1  1  0  0  0
  7  1  2  0  0  0  0
  8 10  1  0  0  0  0
  9 18  1  0  0  0  0
 10  9  1  0  0  0  0
 13 21  2  0  0  0  0
 14  7  1  0  0  0  0
 14  8  2  0  0  0  0
 15 19  1  0  0  0  0
 16  6  1  0  0  0  0
 17 29  1  1  0  0  0
 19 23  1  0  0  0  0
 20 18  1  1  0  0  0
 20  5  1  0  0  0  0
 20  3  1  0  0  0  0
 21 15  1  0  0  0  0
 22 12  1  6  0  0  0
 22 17  1  0  0  0  0
 24 22  1  0  0  0  0
 24 17  1  0  0  0  0
 25 14  1  0  0  0  0
 27 25  1  0  0  0  0
 28 26  1  0  0  0  0
 28 27  1  0  0  0  0
 28 25  1  0  0  0  0
 29 33  1  0  0  0  0
 29 30  2  0  0  0  0
 31 29  2  0  0  0  0
 32 35  1  0  0  0  0
 32 33  1  0  0  0  0
 33 39  1  0  0  0  0
 34 32  2  0  0  0  0
 36 41  1  0  0  0  0
 37 42  1  0  0  0  0
 37 36  2  0  0  0  0
 39 38  1  0  0  0  0
 41 38  1  0  0  0  0
 41 40  2  0  0  0  0
 42 44  2  0  0  0  0
 43 36  1  0  0  0  0
 43 39  1  0  0  0  0
 44 45  1  0  0  0  0
 44 40  1  0  0  0  0
M  END
>  <MODEL>
1

>  <REMARK>
 VINA RESULT:      -2.4      0.000      0.000
  Name = 
  4 active torsions:
  status: ('A' for Active; 'I' for Inactive)
    1  A    between atoms: S_2  and  C_28
    2  A    between atoms: S_2  and  N_35
    3  A    between atoms: C_8  and  C_22
    4  A    between atoms: C_18  and  N_35
                            x       y       z     vdW  Elec       q    Type
                         _______ _______ _______ _____ _____    ______ ____

>  <TORSDO>
F 4

$$$$
=
 OpenBabel11072412023D

 45 51  0  0  1  0  0  0  0  0999 V2000
  161.3130  202.7490  148.5810 N   0  0  0  0  0  0  0  0  0  0  0  0
  160.3970  207.5390  151.0010 C   0  0  2  0  0  3  0  0  0  0  0  0
  162.8480  207.6970  149.6170 C   0  0  2  0  0  3  0  0  0  0  0  0
  159.8740  201.2930  150.2660 O   0  0  0  0  0  0  0  0  0  0  0  0
  160.9820  206.2620  150.3760 C   0  0  2  0  0  3  0  0  0  0  0  0
  162.0560  208.9090  150.1440 C   0  0  2  0  0  3  0  0  0  0  0  0
  160.9490  202.0450  147.5590 C   0  0  0  0  0  3  0  0  0  0  0  0
  161.5120  203.7120  145.7780 C   0  0  0  0  0  3  0  0  0  0  0  0
  160.7580  205.6050  147.1610 C   0  0  0  0  0  2  0  0  0  0  0  0
  161.9610  204.8110  146.6820 C   0  0  0  0  0  2  0  0  0  0  0  0
  163.6910  208.0790  148.5710 O   0  0  0  0  0  1  0  0  0  0  0  0
  162.5860  209.3820  151.4910 C   0  0  0  0  0  2  0  0  0  0  0  0
  162.3190  201.2080  150.4720 O   0  0  0  0  0  0  0  0  0  0  0  0
  161.0770  202.4980  146.1560 C   0  0  0  0  0  0  0  0  0  0  0  0
  161.0860  203.4040  151.3850 C   0  0  0  0  0  2  0  0  0  0  0  0
  160.6590  208.6900  150.2150 O   0  0  0  0  0  0  0  0  0  0  0  0
  160.6750  209.0490  153.0340 C   0  0  1  0  0  3  0  0  0  0  0  0
  161.1980  206.8630  147.8960 C   0  0  0  0  0  2  0  0  0  0  0  0
  159.8150  204.2290  151.2470 C   0  0  0  0  0  2  0  0  0  0  0  0
  161.9340  206.5400  149.2040 C   0  0  1  0  0  3  0  0  0  0  0  0
  161.1440  202.0960  150.1740 S   0  0  0  0  0  0  0  0  0  0  0  0
  162.0790  208.5660  152.6880 C   0  0  1  0  0  3  0  0  0  0  0  0
  159.9180  205.2100  150.0890 C   0  0  0  0  0  2  0  0  0  0  0  0
  160.8630  207.6590  152.4620 C   0  0  2  0  0  3  0  0  0  0  0  0
  160.5840  201.5500  145.0900 C   0  0  1  0  0  3  0  0  0  0  0  0
  158.9090  203.3010  144.7430 O   0  0  0  0  0  1  0  0  0  0  0  0
  159.1810  201.0340  145.3750 C   0  0  0  0  0  2  0  0  0  0  0  0
  159.3800  202.0650  144.2870 C   0  0  2  0  0  3  0  0  0  0  0  0
  160.4260  208.9870  154.8020 S   0  0  0  0  0  0  0  0  0  0  0  0
  158.9580  209.1340  155.0910 O   0  0  0  0  0  0  0  0  0  0  0  0
  160.8830  207.6540  155.3310 O   0  0  0  0  0  0  0  0  0  0  0  0
  162.3310  210.0290  156.5490 C   0  0  0  0  0  0  0  0  0  0  0  0
  161.2950  210.2930  155.5820 N   0  0  0  0  0  0  0  0  0  0  0  0
  162.6720  208.8480  156.8220 O   0  0  0  0  0  0  0  0  0  0  0  0
  163.0290  211.1440  157.2560 C   0  0  0  0  0  1  0  0  0  0  0  0
  159.1660  212.4060  154.0120 C   0  0  0  0  0  0  0  0  0  0  0  0
  158.3090  212.6730  152.9460 C   0  0  0  0  0  3  0  0  0  0  0  0
  159.8840  212.2490  156.2350 C   0  0  0  0  0  2  0  0  0  0  0  0
  160.9640  211.6900  155.2800 C   0  0  2  0  0  3  0  0  0  0  0  0
  157.5600  213.2050  155.6180 C   0  0  0  0  0  3  0  0  0  0  0  0
  158.8050  212.6590  155.3050 C   0  0  0  0  0  0  0  0  0  0  0  0
  157.0500  213.2260  153.2330 C   0  0  0  0  0  3  0  0  0  0  0  0
  160.4460  211.8180  153.9160 N   0  0  0  0  0  2  0  0  0  0  0  0
  156.6760  213.4910  154.5640 C   0  0  0  0  0  0  0  0  0  0  0  0
  155.3410  214.0760  154.8560 C   0  0  0  0  0  1  0  0  0  0  0  0
  1 21  1  0  0  0  0
  2 16  1  6  0  0  0
  2 24  1  0  0  0  0
  3 11  1  6  0  0  0
  3  6  1  0  0  0  0
  5 23  1  6  0  0  0
  5  2  1  0  0  0  0
  6 16  1  0  0  0  0
  6 12  1  1  0  0  0
  7  1  2  0  0  0  0
  8 14  2  0  0  0  0
  8 10  1  0  0  0  0
  9 18  1  0  0  0  0
 10  9  1  0  0  0  0
 14  7  1  0  0  0  0
 17 29  1  1  0  0  0
 19 15  1  0  0  0  0
 20 18  1  6  0  0  0
 20  3  1  0  0  0  0
 20  5  1  0  0  0  0
 21  4  2  0  0  0  0
 21 13  2  0  0  0  0
 21 15  1  0  0  0  0
 22 12  1  6  0  0  0
 22 17  1  0  0  0  0
 23 19  1  0  0  0  0
 24 22  1  0  0  0  0
 24 17  1  0  0  0  0
 25 27  1  0  0  0  0
 25 14  1  0  0  0  0
 28 26  1  0  0  0  0
 28 25  1  0  0  0  0
 28 27  1  0  0  0  0
 29 30  2  0  0  0  0
 29 31  2  0  0  0  0
 29 33  1  0  0  0  0
 32 34  2  0  0  0  0
 32 35  1  0  0  0  0
 33 32  1  0  0  0  0
 36 41  1  0  0  0  0
 37 42  1  0  0  0  0
 37 36  2  0  0  0  0
 39 33  1  0  0  0  0
 39 38  1  0  0  0  0
 41 40  2  0  0  0  0
 41 38  1  0  0  0  0
 42 44  2  0  0  0  0
 43 36  1  0  0  0  0
 43 39  1  0  0  0  0
 44 45  1  0  0  0  0
 44 40  1  0  0  0  0
M  END
>  <MODEL>
2

>  <REMARK>
 VINA RESULT:      -2.3      6.390      8.135
  Name = 
  4 active torsions:
  status: ('A' for Active; 'I' for Inactive)
    1  A    between atoms: S_2  and  C_28
    2  A    between atoms: S_2  and  N_35
    3  A    between atoms: C_8  and  C_22
    4  A    between atoms: C_18  and  N_35
                            x       y       z     vdW  Elec       q    Type
                         _______ _______ _______ _____ _____    ______ ____

>  <TORSDO>
F 4

$$$$
=
 OpenBabel11072412023D

 45 51  0  0  1  0  0  0  0  0999 V2000
  161.4450  203.3660  150.1100 N   0  0  0  0  0  0  0  0  0  0  0  0
  160.6770  208.5140  151.7040 C   0  0  2  0  0  3  0  0  0  0  0  0
  162.7750  208.4710  149.8210 C   0  0  2  0  0  3  0  0  0  0  0  0
  160.4960  202.2350  152.3120 O   0  0  0  0  0  0  0  0  0  0  0  0
  161.2190  207.1580  151.2250 C   0  0  2  0  0  3  0  0  0  0  0  0
  162.0160  209.7370  150.2640 C   0  0  2  0  0  3  0  0  0  0  0  0
  160.9360  202.4570  149.3450 C   0  0  0  0  0  3  0  0  0  0  0  0
  160.9940  203.7430  147.1980 C   0  0  0  0  0  3  0  0  0  0  0  0
  160.3950  205.8520  148.3210 C   0  0  0  0  0  2  0  0  0  0  0  0
  161.5320  205.0180  147.7560 C   0  0  0  0  0  2  0  0  0  0  0  0
  163.3560  208.6600  148.5650 O   0  0  0  0  0  1  0  0  0  0  0  0
  162.7730  210.4930  151.3480 C   0  0  0  0  0  2  0  0  0  0  0  0
  162.9310  202.2780  152.0000 O   0  0  0  0  0  0  0  0  0  0  0  0
  160.7390  202.6180  147.8870 C   0  0  0  0  0  0  0  0  0  0  0  0
  161.7450  204.5710  152.7170 C   0  0  0  0  0  2  0  0  0  0  0  0
  160.6850  209.4890  150.6740 O   0  0  0  0  0  0  0  0  0  0  0  0
  161.2480  210.4160  153.3010 C   0  0  1  0  0  3  0  0  0  0  0  0
  160.8770  207.2480  148.6880 C   0  0  0  0  0  2  0  0  0  0  0  0
  160.4130  205.3060  152.7010 C   0  0  0  0  0  2  0  0  0  0  0  0
  161.8870  207.2230  149.8450 C   0  0  1  0  0  3  0  0  0  0  0  0
  161.6550  203.0460  151.7970 S   0  0  0  0  0  0  0  0  0  0  0  0
  162.5850  209.9210  152.7610 C   0  0  1  0  0  3  0  0  0  0  0  0
  160.2030  206.0340  151.3810 C   0  0  0  0  0  2  0  0  0  0  0  0
  161.4210  208.9460  152.9800 C   0  0  2  0  0  3  0  0  0  0  0  0
  160.1140  201.4570  147.1540 C   0  0  1  0  0  3  0  0  0  0  0  0
  162.3080  200.4380  147.5280 O   0  0  0  0  0  1  0  0  0  0  0  0
  160.8130  201.1570  145.8360 C   0  0  0  0  0  2  0  0  0  0  0  0
  161.0260  200.2280  147.0100 C   0  0  2  0  0  3  0  0  0  0  0  0
  161.3700  210.7080  155.0600 S   0  0  0  0  0  0  0  0  0  0  0  0
  162.8070  210.5650  155.4760 O   0  0  0  0  0  0  0  0  0  0  0  0
  160.9220  212.1100  155.3720 O   0  0  0  0  0  0  0  0  0  0  0  0
  160.9640  208.2880  156.3810 C   0  0  0  0  0  0  0  0  0  0  0  0
  160.4030  209.5400  155.9360 N   0  0  0  0  0  0  0  0  0  0  0  0
  162.1800  208.0230  156.1910 O   0  0  0  0  0  0  0  0  0  0  0  0
  160.1220  207.2700  157.0770 C   0  0  0  0  0  1  0  0  0  0  0  0
  158.0340  211.9010  156.4580 C   0  0  0  0  0  0  0  0  0  0  0  0
  157.6770  213.1540  156.9540 C   0  0  0  0  0  3  0  0  0  0  0  0
  158.1960  210.1360  154.9290 C   0  0  0  0  0  2  0  0  0  0  0  0
  158.9880  209.8080  156.2160 C   0  0  2  0  0  3  0  0  0  0  0  0
  156.8780  212.2950  154.3840 C   0  0  0  0  0  3  0  0  0  0  0  0
  157.6520  211.4850  155.2150 C   0  0  0  0  0  0  0  0  0  0  0  0
  156.8960  213.9890  156.1390 C   0  0  0  0  0  3  0  0  0  0  0  0
  158.8440  210.9520  157.1190 N   0  0  0  0  0  2  0  0  0  0  0  0
  156.4970  213.5620  154.8580 C   0  0  0  0  0  0  0  0  0  0  0  0
  155.6700  214.4530  154.0030 C   0  0  0  0  0  1  0  0  0  0  0  0
  1 21  1  0  0  0  0
  2 16  1  6  0  0  0
  2 24  1  0  0  0  0
  3 11  1  6  0  0  0
  3 20  1  0  0  0  0
  3  6  1  0  0  0  0
  5 23  1  6  0  0  0
  5  2  1  0  0  0  0
  6 16  1  0  0  0  0
  6 12  1  1  0  0  0
  7  1  2  0  0  0  0
  8 10  1  0  0  0  0
  8 14  2  0  0  0  0
  9 18  1  0  0  0  0
 10  9  1  0  0  0  0
 14  7  1  0  0  0  0
 17 29  1  1  0  0  0
 19 15  1  0  0  0  0
 20 18  1  6  0  0  0
 20  5  1  0  0  0  0
 21 13  2  0  0  0  0
 21  4  2  0  0  0  0
 21 15  1  0  0  0  0
 22 12  1  6  0  0  0
 22 24  1  0  0  0  0
 22 17  1  0  0  0  0
 23 19  1  0  0  0  0
 24 17  1  0  0  0  0
 25 14  1  0  0  0  0
 27 28  1  0  0  0  0
 27 25  1  0  0  0  0
 28 25  1  0  0  0  0
 28 26  1  0  0  0  0
 29 31  2  0  0  0  0
 29 30  2  0  0  0  0
 29 33  1  0  0  0  0
 32 35  1  0  0  0  0
 33 39  1  0  0  0  0
 33 32  1  0  0  0  0
 34 32  2  0  0  0  0
 36 37  1  0  0  0  0
 36 43  1  0  0  0  0
 38 41  1  0  0  0  0
 38 39  1  0  0  0  0
 39 43  1  0  0  0  0
 40 44  2  0  0  0  0
 40 41  1  0  0  0  0
 41 36  2  0  0  0  0
 42 37  2  0  0  0  0
 44 42  1  0  0  0  0
 45 44  1  0  0  0  0
M  END
>  <MODEL>
3

>  <REMARK>
 VINA RESULT:      -2.2      5.942      8.111
  Name = 
  4 active torsions:
  status: ('A' for Active; 'I' for Inactive)
    1  A    between atoms: S_2  and  C_28
    2  A    between atoms: S_2  and  N_35
    3  A    between atoms: C_8  and  C_22
    4  A    between atoms: C_18  and  N_35
                            x       y       z     vdW  Elec       q    Type
                         _______ _______ _______ _____ _____    ______ ____

>  <TORSDO>
F 4

$$$$
=
 OpenBabel11072412023D

 45 51  0  0  1  0  0  0  0  0999 V2000
  161.5180  202.9210  148.9100 N   0  0  0  0  0  0  0  0  0  0  0  0
  160.5540  207.9630  150.7230 C   0  0  2  0  0  3  0  0  0  0  0  0
  162.9480  207.9970  149.2340 C   0  0  2  0  0  3  0  0  0  0  0  0
  160.1850  201.6640  150.8250 O   0  0  0  0  0  0  0  0  0  0  0  0
  161.1530  206.6300  150.2470 C   0  0  2  0  0  3  0  0  0  0  0  0
  162.1410  209.2490  149.6310 C   0  0  2  0  0  3  0  0  0  0  0  0
  161.1380  202.0820  148.0040 C   0  0  0  0  0  3  0  0  0  0  0  0
  161.5880  203.5140  146.0000 C   0  0  0  0  0  3  0  0  0  0  0  0
  160.8300  205.5540  147.1550 C   0  0  0  0  0  2  0  0  0  0  0  0
  162.0380  204.7320  146.7350 C   0  0  0  0  0  2  0  0  0  0  0  0
  163.7410  208.2590  148.1150 O   0  0  0  0  0  1  0  0  0  0  0  0
  162.7060  209.9060  150.8830 C   0  0  0  0  0  2  0  0  0  0  0  0
  162.6370  201.6650  150.9430 O   0  0  0  0  0  0  0  0  0  0  0  0
  161.2010  202.3500  146.5490 C   0  0  0  0  0  0  0  0  0  0  0  0
  161.3750  203.9310  151.6120 C   0  0  0  0  0  2  0  0  0  0  0  0
  160.7550  209.0070  149.7850 O   0  0  0  0  0  0  0  0  0  0  0  0
  160.8630  209.7320  152.5310 C   0  0  1  0  0  3  0  0  0  0  0  0
  161.2600  206.9070  147.7020 C   0  0  0  0  0  2  0  0  0  0  0  0
  160.0770  204.7010  151.4200 C   0  0  0  0  0  2  0  0  0  0  0  0
  162.0520  206.7750  149.0110 C   0  0  1  0  0  3  0  0  0  0  0  0
  161.4270  202.4780  150.5800 S   0  0  0  0  0  0  0  0  0  0  0  0
  162.2670  209.2420  152.1950 C   0  0  1  0  0  3  0  0  0  0  0  0
  160.1100  205.5250  150.1410 C   0  0  0  0  0  2  0  0  0  0  0  0
  161.0700  208.2840  152.1370 C   0  0  2  0  0  3  0  0  0  0  0  0
  160.6970  201.2600  145.6360 C   0  0  1  0  0  3  0  0  0  0  0  0
  159.4430  203.1070  144.6310 O   0  0  0  0  0  1  0  0  0  0  0  0
  159.1970  201.0420  145.7650 C   0  0  0  0  0  2  0  0  0  0  0  0
  159.7360  201.7420  144.5390 C   0  0  2  0  0  3  0  0  0  0  0  0
  160.6810  209.8960  154.3010 S   0  0  0  0  0  0  0  0  0  0  0  0
  160.3180  208.5560  154.8770 O   0  0  0  0  0  0  0  0  0  0  0  0
  161.9880  210.3340  154.9060 O   0  0  0  0  0  0  0  0  0  0  0  0
  158.3320  210.6970  155.5670 C   0  0  0  0  0  0  0  0  0  0  0  0
  159.4120  211.0420  154.6760 N   0  0  0  0  0  0  0  0  0  0  0  0
  158.3010  209.5750  156.1380 O   0  0  0  0  0  0  0  0  0  0  0  0
  157.2190  211.6550  155.8390 C   0  0  0  0  0  1  0  0  0  0  0  0
  159.6730  212.8300  151.8130 C   0  0  0  0  0  0  0  0  0  0  0  0
  160.2150  212.9820  150.5380 C   0  0  0  0  0  3  0  0  0  0  0  0
  158.0300  212.7450  153.4790 C   0  0  0  0  0  2  0  0  0  0  0  0
  159.4120  212.3770  154.0670 C   0  0  2  0  0  3  0  0  0  0  0  0
  157.4560  213.3430  151.0280 C   0  0  0  0  0  3  0  0  0  0  0  0
  158.3390  213.0010  152.0520 C   0  0  0  0  0  0  0  0  0  0  0  0
  159.3480  213.3280  149.4890 C   0  0  0  0  0  3  0  0  0  0  0  0
  160.3820  212.4480  152.9720 N   0  0  0  0  0  2  0  0  0  0  0  0
  157.9730  213.5080  149.7320 C   0  0  0  0  0  0  0  0  0  0  0  0
  157.0650  213.8750  148.6140 C   0  0  0  0  0  1  0  0  0  0  0  0
  1 21  1  0  0  0  0
  2 16  1  6  0  0  0
  2 24  1  0  0  0  0
  3 11  1  6  0  0  0
  3  6  1  0  0  0  0
  5 23  1  6  0  0  0
  5  2  1  0  0  0  0
  6 16  1  0  0  0  0
  6 12  1  1  0  0  0
  7  1  2  0  0  0  0
  8 14  2  0  0  0  0
  8 10  1  0  0  0  0
  9 18  1  0  0  0  0
 10  9  1  0  0  0  0
 14  7  1  0  0  0  0
 17 29  1  1  0  0  0
 19 15  1  0  0  0  0
 20 18  1  6  0  0  0
 20  3  1  0  0  0  0
 20  5  1  0  0  0  0
 21  4  2  0  0  0  0
 21 13  2  0  0  0  0
 21 15  1  0  0  0  0
 22 12  1  6  0  0  0
 22 17  1  0  0  0  0
 23 19  1  0  0  0  0
 24 22  1  0  0  0  0
 24 17  1  0  0  0  0
 25 27  1  0  0  0  0
 25 14  1  0  0  0  0
 28 26  1  0  0  0  0
 28 25  1  0  0  0  0
 28 27  1  0  0  0  0
 29 33  1  0  0  0  0
 29 30  2  0  0  0  0
 29 31  2  0  0  0  0
 32 35  1  0  0  0  0
 32 34  2  0  0  0  0
 33 32  1  0  0  0  0
 36 41  1  0  0  0  0
 36 43  1  0  0  0  0
 37 36  2  0  0  0  0
 38 39  1  0  0  0  0
 39 33  1  0  0  0  0
 40 41  2  0  0  0  0
 41 38  1  0  0  0  0
 42 44  2  0  0  0  0
 42 37  1  0  0  0  0
 43 39  1  0  0  0  0
 44 40  1  0  0  0  0
 45 44  1  0  0  0  0
M  END
>  <MODEL>
4

>  <REMARK>
 VINA RESULT:      -0.8      6.192      8.117
  Name = 
  4 active torsions:
  status: ('A' for Active; 'I' for Inactive)
    1  A    between atoms: S_2  and  C_28
    2  A    between atoms: S_2  and  N_35
    3  A    between atoms: C_8  and  C_22
    4  A    between atoms: C_18  and  N_35
                            x       y       z     vdW  Elec       q    Type
                         _______ _______ _______ _____ _____    ______ ____

>  <TORSDO>
F 4

$$$$
=
 OpenBabel11072412023D

 45 51  0  0  1  0  0  0  0  0999 V2000
  160.8220  204.3360  147.3580 N   0  0  0  0  0  0  0  0  0  0  0  0
  162.3310  206.5880  152.0800 C   0  0  2  0  0  3  0  0  0  0  0  0
  160.0360  205.0150  152.5390 C   0  0  2  0  0  3  0  0  0  0  0  0
  161.8900  206.1920  145.7970 O   0  0  0  0  0  0  0  0  0  0  0  0
  161.5920  205.9820  150.8760 C   0  0  2  0  0  3  0  0  0  0  0  0
  160.9760  205.5430  153.6410 C   0  0  2  0  0  3  0  0  0  0  0  0
  161.1360  203.3790  146.5470 C   0  0  0  0  0  3  0  0  0  0  0  0
  160.9700  201.4830  148.1740 C   0  0  0  0  0  3  0  0  0  0  0  0
  161.9240  202.8280  150.0030 C   0  0  0  0  0  2  0  0  0  0  0  0
  160.6440  202.2960  149.3810 C   0  0  0  0  0  2  0  0  0  0  0  0
  159.3390  203.8910  152.9860 O   0  0  0  0  0  1  0  0  0  0  0  0
  160.4390  206.8210  154.2700 C   0  0  0  0  0  2  0  0  0  0  0  0
  159.4560  206.2160  146.1090 O   0  0  0  0  0  0  0  0  0  0  0  0
  161.1790  201.9500  146.9310 C   0  0  0  0  0  0  0  0  0  0  0  0
  160.9610  207.1140  148.1340 C   0  0  0  0  0  2  0  0  0  0  0  0
  162.3110  205.7310  153.2090 O   0  0  0  0  0  0  0  0  0  0  0  0
  162.1620  208.5200  153.7320 C   0  0  1  0  0  3  0  0  0  0  0  0
  161.6440  203.4660  151.3560 C   0  0  0  0  0  2  0  0  0  0  0  0
  162.3550  207.0350  148.7400 C   0  0  0  0  0  2  0  0  0  0  0  0
  160.7790  204.7290  151.2300 C   0  0  1  0  0  3  0  0  0  0  0  0
  160.7750  205.9660  146.7820 S   0  0  0  0  0  0  0  0  0  0  0  0
  160.7260  208.0910  153.4560 C   0  0  1  0  0  3  0  0  0  0  0  0
  162.4890  205.8270  149.6550 C   0  0  0  0  0  2  0  0  0  0  0  0
  161.7930  208.0020  152.3580 C   0  0  2  0  0  3  0  0  0  0  0  0
  161.5830  200.9720  145.8570 C   0  0  1  0  0  3  0  0  0  0  0  0
  159.2290  201.1730  145.2170 O   0  0  0  0  0  1  0  0  0  0  0  0
  160.8620  199.6380  145.9850 C   0  0  0  0  0  2  0  0  0  0  0  0
  160.4560  200.5910  144.8840 C   0  0  2  0  0  3  0  0  0  0  0  0
  162.2780  210.3030  153.7360 S   0  0  0  0  0  0  0  0  0  0  0  0
  163.6450  210.7000  154.2190 O   0  0  0  0  0  0  0  0  0  0  0  0
  162.0990  210.8250  152.3360 O   0  0  0  0  0  0  0  0  0  0  0  0
  161.0080  210.6050  156.1980 C   0  0  0  0  0  0  0  0  0  0  0  0
  161.0730  210.9850  154.8090 N   0  0  0  0  0  0  0  0  0  0  0  0
  161.8480  209.8060  156.6880 O   0  0  0  0  0  0  0  0  0  0  0  0
  159.9430  211.1440  157.0970 C   0  0  0  0  0  1  0  0  0  0  0  0
  157.8030  211.8500  154.6610 C   0  0  0  0  0  0  0  0  0  0  0  0
  156.4620  211.4720  154.6200 C   0  0  0  0  0  3  0  0  0  0  0  0
  159.7140  213.0060  155.3660 C   0  0  0  0  0  2  0  0  0  0  0  0
  160.0870  211.9470  154.3030 C   0  0  2  0  0  3  0  0  0  0  0  0
  157.3750  213.5090  156.3530 C   0  0  0  0  0  3  0  0  0  0  0  0
  158.2470  212.8320  155.5000 C   0  0  0  0  0  0  0  0  0  0  0  0
  155.5620  212.1380  155.4660 C   0  0  0  0  0  3  0  0  0  0  0  0
  158.8500  211.2670  153.9140 N   0  0  0  0  0  2  0  0  0  0  0  0
  156.0160  213.1540  156.3300 C   0  0  0  0  0  0  0  0  0  0  0  0
  155.0530  213.8530  157.2210 C   0  0  0  0  0  1  0  0  0  0  0  0
  2 24  1  0  0  0  0
  2 16  1  1  0  0  0
  3 11  1  1  0  0  0
  3  6  1  0  0  0  0
  4 21  2  0  0  0  0
  5 23  1  6  0  0  0
  5 20  1  0  0  0  0
  5  2  1  0  0  0  0
  6 12  1  6  0  0  0
  7 14  1  0  0  0  0
  7  1  2  0  0  0  0
  8 10  1  0  0  0  0
  9 18  1  0  0  0  0
 10  9  1  0  0  0  0
 13 21  2  0  0  0  0
 14  8  2  0  0  0  0
 15 19  1  0  0  0  0
 16  6  1  0  0  0  0
 17 29  1  6  0  0  0
 19 23  1  0  0  0  0
 20 18  1  1  0  0  0
 20  3  1  0  0  0  0
 21  1  1  0  0  0  0
 21 15  1  0  0  0  0
 22 17  1  0  0  0  0
 22 12  1  1  0  0  0
 24 22  1  0  0  0  0
 24 17  1  0  0  0  0
 25 27  1  0  0  0  0
 25 14  1  0  0  0  0
 28 26  1  0  0  0  0
 28 25  1  0  0  0  0
 28 27  1  0  0  0  0
 29 30  2  0  0  0  0
 29 33  1  0  0  0  0
 31 29  2  0  0  0  0
 32 34  2  0  0  0  0
 32 35  1  0  0  0  0
 33 32  1  0  0  0  0
 36 41  1  0  0  0  0
 37 36  2  0  0  0  0
 37 42  1  0  0  0  0
 38 41  1  0  0  0  0
 39 33  1  0  0  0  0
 39 38  1  0  0  0  0
 41 40  2  0  0  0  0
 42 44  2  0  0  0  0
 43 39  1  0  0  0  0
 43 36  1  0  0  0  0
 44 40  1  0  0  0  0
 44 45  1  0  0  0  0
M  END
>  <MODEL>
5

>  <REMARK>
 VINA RESULT:      -0.1      6.377      8.182
  Name = 
  4 active torsions:
  status: ('A' for Active; 'I' for Inactive)
    1  A    between atoms: S_2  and  C_28
    2  A    between atoms: S_2  and  N_35
    3  A    between atoms: C_8  and  C_22
    4  A    between atoms: C_18  and  N_35
                            x       y       z     vdW  Elec       q    Type
                         _______ _______ _______ _____ _____    ______ ____

>  <TORSDO>
F 4

$$$$
=
 OpenBabel11072412023D

 45 51  0  0  1  0  0  0  0  0999 V2000
  160.8570  204.2780  147.3240 N   0  0  0  0  0  0  0  0  0  0  0  0
  162.3360  206.5450  152.0480 C   0  0  2  0  0  3  0  0  0  0  0  0
  160.0060  205.0190  152.4860 C   0  0  2  0  0  3  0  0  0  0  0  0
  161.9820  206.1010  145.7630 O   0  0  0  0  0  0  0  0  0  0  0  0
  161.6040  205.9420  150.8390 C   0  0  2  0  0  3  0  0  0  0  0  0
  160.9390  205.5390  153.5970 C   0  0  2  0  0  3  0  0  0  0  0  0
  161.1650  203.3090  146.5260 C   0  0  0  0  0  3  0  0  0  0  0  0
  160.9400  201.4310  148.1660 C   0  0  0  0  0  3  0  0  0  0  0  0
  161.8920  202.7740  149.9990 C   0  0  0  0  0  2  0  0  0  0  0  0
  160.6110  202.2610  149.3620 C   0  0  0  0  0  2  0  0  0  0  0  0
  159.2820  203.9120  152.9330 O   0  0  0  0  0  1  0  0  0  0  0  0
  160.4160  206.8330  154.2070 C   0  0  0  0  0  2  0  0  0  0  0  0
  159.5440  206.1720  146.0380 O   0  0  0  0  0  0  0  0  0  0  0  0
  161.1760  201.8830  146.9230 C   0  0  0  0  0  0  0  0  0  0  0  0
  161.0350  207.0610  148.0780 C   0  0  0  0  0  2  0  0  0  0  0  0
  162.2840  205.6980  153.1840 O   0  0  0  0  0  0  0  0  0  0  0  0
  162.1790  208.4940  153.6810 C   0  0  1  0  0  3  0  0  0  0  0  0
  161.6030  203.4300  151.3420 C   0  0  0  0  0  2  0  0  0  0  0  0
  162.4180  206.9620  148.7050 C   0  0  0  0  0  2  0  0  0  0  0  0
  160.7630  204.7070  151.1910 C   0  0  1  0  0  3  0  0  0  0  0  0
  160.8490  205.9040  146.7330 S   0  0  0  0  0  0  0  0  0  0  0  0
  160.7380  208.0900  153.3870 C   0  0  1  0  0  3  0  0  0  0  0  0
  162.5170  205.7600  149.6330 C   0  0  0  0  0  2  0  0  0  0  0  0
  161.8200  207.9710  152.3050 C   0  0  2  0  0  3  0  0  0  0  0  0
  161.5780  200.8880  145.8640 C   0  0  1  0  0  3  0  0  0  0  0  0
  159.2320  201.1100  145.2000 O   0  0  0  0  0  1  0  0  0  0  0  0
  160.8400  199.5640  146.0000 C   0  0  0  0  0  2  0  0  0  0  0  0
  160.4550  200.5100  144.8850 C   0  0  2  0  0  3  0  0  0  0  0  0
  162.3270  210.2750  153.6710 S   0  0  0  0  0  0  0  0  0  0  0  0
  163.0660  210.7070  154.9070 O   0  0  0  0  0  0  0  0  0  0  0  0
  163.1180  210.7110  152.4670 O   0  0  0  0  0  0  0  0  0  0  0  0
  160.1040  211.4260  154.8960 C   0  0  0  0  0  0  0  0  0  0  0  0
  160.7390  211.0150  153.6690 N   0  0  0  0  0  0  0  0  0  0  0  0
  160.6970  211.3070  156.0000 O   0  0  0  0  0  0  0  0  0  0  0  0
  158.7270  212.0030  154.8960 C   0  0  0  0  0  1  0  0  0  0  0  0
  160.2850  212.9910  150.9570 C   0  0  0  0  0  0  0  0  0  0  0  0
  160.2610  214.2640  150.3900 C   0  0  0  0  0  3  0  0  0  0  0  0
  160.8290  210.7250  151.1890 C   0  0  0  0  0  2  0  0  0  0  0  0
  160.0130  211.2100  152.4090 C   0  0  2  0  0  3  0  0  0  0  0  0
  161.5970  212.1100  149.1420 C   0  0  0  0  0  3  0  0  0  0  0  0
  160.9320  211.9490  150.3570 C   0  0  0  0  0  0  0  0  0  0  0  0
  160.9200  214.4530  149.1650 C   0  0  0  0  0  3  0  0  0  0  0  0
  159.7120  212.6270  152.1960 N   0  0  0  0  0  2  0  0  0  0  0  0
  161.5870  213.3800  148.5420 C   0  0  0  0  0  0  0  0  0  0  0  0
  162.2810  213.5920  147.2450 C   0  0  0  0  0  1  0  0  0  0  0  0
  2 24  1  0  0  0  0
  2 16  1  1  0  0  0
  3 11  1  1  0  0  0
  3  6  1  0  0  0  0
  4 21  2  0  0  0  0
  5 23  1  6  0  0  0
  5 20  1  0  0  0  0
  5  2  1  0  0  0  0
  6 12  1  6  0  0  0
  7 14  1  0  0  0  0
  7  1  2  0  0  0  0
  8 10  1  0  0  0  0
  9 18  1  0  0  0  0
 10  9  1  0  0  0  0
 13 21  2  0  0  0  0
 14  8  2  0  0  0  0
 15 19  1  0  0  0  0
 16  6  1  0  0  0  0
 17 29  1  6  0  0  0
 19 23  1  0  0  0  0
 20 18  1  1  0  0  0
 20  3  1  0  0  0  0
 21  1  1  0  0  0  0
 21 15  1  0  0  0  0
 22 17  1  0  0  0  0
 22 12  1  1  0  0  0
 24 22  1  0  0  0  0
 24 17  1  0  0  0  0
 25 27  1  0  0  0  0
 25 14  1  0  0  0  0
 28 26  1  0  0  0  0
 28 25  1  0  0  0  0
 28 27  1  0  0  0  0
 29 30  2  0  0  0  0
 31 29  2  0  0  0  0
 32 34  2  0  0  0  0
 33 29  1  0  0  0  0
 33 32  1  0  0  0  0
 35 32  1  0  0  0  0
 36 43  1  0  0  0  0
 37 36  1  0  0  0  0
 38 39  1  0  0  0  0
 39 33  1  0  0  0  0
 40 41  1  0  0  0  0
 41 36  2  0  0  0  0
 41 38  1  0  0  0  0
 42 37  2  0  0  0  0
 43 39  1  0  0  0  0
 44 40  2  0  0  0  0
 44 42  1  0  0  0  0
 45 44  1  0  0  0  0
M  END
>  <MODEL>
6

>  <REMARK>
 VINA RESULT:      -0.0      6.379      8.519
  Name = 
  4 active torsions:
  status: ('A' for Active; 'I' for Inactive)
    1  A    between atoms: S_2  and  C_28
    2  A    between atoms: S_2  and  N_35
    3  A    between atoms: C_8  and  C_22
    4  A    between atoms: C_18  and  N_35
                            x       y       z     vdW  Elec       q    Type
                         _______ _______ _______ _____ _____    ______ ____

>  <TORSDO>
F 4

$$$$
=
 OpenBabel11072412023D

 45 51  0  0  1  0  0  0  0  0999 V2000
  160.9490  212.8310  141.9280 N   0  0  0  0  0  0  0  0  0  0  0  0
  160.2520  214.1990  147.1510 C   0  0  2  0  0  3  0  0  0  0  0  0
  162.3640  212.3380  146.9940 C   0  0  2  0  0  3  0  0  0  0  0  0
  158.4650  213.3490  141.1580 O   0  0  0  0  0  0  0  0  0  0  0  0
  160.5390  213.5120  145.8060 C   0  0  2  0  0  3  0  0  0  0  0  0
  162.0650  213.2290  148.2160 C   0  0  2  0  0  3  0  0  0  0  0  0
  161.4530  213.2760  140.8240 C   0  0  0  0  0  3  0  0  0  0  0  0
  163.7890  213.6500  141.6420 C   0  0  0  0  0  3  0  0  0  0  0  0
  163.0080  214.4390  143.8400 C   0  0  0  0  0  2  0  0  0  0  0  0
  163.5590  213.2560  143.0620 C   0  0  0  0  0  2  0  0  0  0  0  0
  163.7010  211.9340  146.9960 O   0  0  0  0  0  1  0  0  0  0  0  0
  161.2550  212.4830  149.2680 C   0  0  0  0  0  2  0  0  0  0  0  0
  159.1110  210.9990  141.4490 O   0  0  0  0  0  0  0  0  0  0  0  0
  162.8750  213.6530  140.6570 C   0  0  0  0  0  0  0  0  0  0  0  0
  158.6780  212.4360  143.6680 C   0  0  0  0  0  2  0  0  0  0  0  0
  161.4370  214.4530  147.8880 O   0  0  0  0  0  0  0  0  0  0  0  0
  159.1320  213.7550  149.3950 C   0  0  1  0  0  3  0  0  0  0  0  0
  162.9770  214.1380  145.3320 C   0  0  0  0  0  2  0  0  0  0  0  0
  158.6480  213.8580  144.2070 C   0  0  0  0  0  2  0  0  0  0  0  0
  161.9860  213.0160  145.6740 C   0  0  1  0  0  3  0  0  0  0  0  0
  159.2770  212.3910  141.9890 S   0  0  0  0  0  0  0  0  0  0  0  0
  159.7490  212.4250  148.9770 C   0  0  1  0  0  3  0  0  0  0  0  0
  160.0380  214.3210  144.6170 C   0  0  0  0  0  2  0  0  0  0  0  0
  159.1940  213.3950  147.9260 C   0  0  2  0  0  3  0  0  0  0  0  0
  163.2850  214.1700  139.3010 C   0  0  1  0  0  3  0  0  0  0  0  0
  163.9150  211.8320  138.9420 O   0  0  0  0  0  1  0  0  0  0  0  0
  164.7810  214.0340  139.0550 C   0  0  0  0  0  2  0  0  0  0  0  0
  163.8300  213.0950  138.3480 C   0  0  2  0  0  3  0  0  0  0  0  0
  157.4920  213.4870  150.0540 S   0  0  0  0  0  0  0  0  0  0  0  0
  156.5430  214.4510  149.3980 O   0  0  0  0  0  0  0  0  0  0  0  0
  157.0420  212.0860  149.7350 O   0  0  0  0  0  0  0  0  0  0  0  0
  156.2680  214.1170  152.4760 C   0  0  0  0  0  0  0  0  0  0  0  0
  157.4810  213.7610  151.7830 N   0  0  0  0  0  0  0  0  0  0  0  0
  155.1720  214.1920  151.8600 O   0  0  0  0  0  0  0  0  0  0  0  0
  156.2720  214.4080  153.9410 C   0  0  0  0  0  1  0  0  0  0  0  0
  158.9060  212.7750  154.6910 C   0  0  0  0  0  0  0  0  0  0  0  0
  158.8160  212.5920  156.0710 C   0  0  0  0  0  3  0  0  0  0  0  0
  159.3520  212.2480  152.4540 C   0  0  0  0  0  2  0  0  0  0  0  0
  158.7210  213.6560  152.5600 C   0  0  2  0  0  3  0  0  0  0  0  0
  159.8560  210.5860  154.3730 C   0  0  0  0  0  3  0  0  0  0  0  0
  159.4050  211.8060  153.8690 C   0  0  0  0  0  0  0  0  0  0  0  0
  159.2660  211.3740  156.6050 C   0  0  0  0  0  3  0  0  0  0  0  0
  158.4690  213.9130  153.9800 N   0  0  0  0  0  2  0  0  0  0  0  0
  159.7840  210.3730  155.7590 C   0  0  0  0  0  0  0  0  0  0  0  0
  160.2570  209.0880  156.3360 C   0  0  0  0  0  1  0  0  0  0  0  0
  1 21  1  0  0  0  0
  2 16  1  1  0  0  0
  2 24  1  0  0  0  0
  3 11  1  6  0  0  0
  3  6  1  0  0  0  0
  4 21  2  0  0  0  0
  5 23  1  6  0  0  0
  5  2  1  0  0  0  0
  6 12  1  1  0  0  0
  7  1  2  0  0  0  0
  8 10  1  0  0  0  0
  9 18  1  0  0  0  0
 10  9  1  0  0  0  0
 13 21  2  0  0  0  0
 14  7  1  0  0  0  0
 14  8  2  0  0  0  0
 15 19  1  0  0  0  0
 16  6  1  0  0  0  0
 17 29  1  1  0  0  0
 19 23  1  0  0  0  0
 20 18  1  1  0  0  0
 20  5  1  0  0  0  0
 20  3  1  0  0  0  0
 21 15  1  0  0  0  0
 22 12  1  6  0  0  0
 22 17  1  0  0  0  0
 24 22  1  0  0  0  0
 24 17  1  0  0  0  0
 25 14  1  0  0  0  0
 27 25  1  0  0  0  0
 28 26  1  0  0  0  0
 28 27  1  0  0  0  0
 28 25  1  0  0  0  0
 29 33  1  0  0  0  0
 30 29  2  0  0  0  0
 31 29  2  0  0  0  0
 32 35  1  0  0  0  0
 33 32  1  0  0  0  0
 33 39  1  0  0  0  0
 34 32  2  0  0  0  0
 36 37  1  0  0  0  0
 37 42  2  0  0  0  0
 38 39  1  0  0  0  0
 38 41  1  0  0  0  0
 39 43  1  0  0  0  0
 40 44  2  0  0  0  0
 41 40  1  0  0  0  0
 41 36  2  0  0  0  0
 43 36  1  0  0  0  0
 44 45  1  0  0  0  0
 44 42  1  0  0  0  0
M  END
>  <MODEL>
7

>  <REMARK>
 VINA RESULT:       0.1      2.494      4.185
  Name = 
  4 active torsions:
  status: ('A' for Active; 'I' for Inactive)
    1  A    between atoms: S_2  and  C_28
    2  A    between atoms: S_2  and  N_35
    3  A    between atoms: C_8  and  C_22
    4  A    between atoms: C_18  and  N_35
                            x       y       z     vdW  Elec       q    Type
                         _______ _______ _______ _____ _____    ______ ____

>  <TORSDO>
F 4

$$$$
