=
 OpenBabel11072409483D

 49 55  0  0  1  0  0  0  0  0999 V2000
  158.3360  214.0410  154.0150 O   0  0  0  0  0  0  0  0  0  0  0  0
  161.4290  209.7370  154.4560 C   0  0  2  0  0  3  0  0  0  0  0  0
  161.7590  210.8580  151.7640 C   0  0  0  0  0  2  0  0  0  0  0  0
  159.6280  211.3820  155.0430 C   0  0  2  0  0  3  0  0  0  0  0  0
  157.6070  212.9020  154.3880 C   0  0  1  0  0  3  0  0  0  0  0  0
  159.1290  213.6300  157.2080 C   0  0  0  0  0  1  0  0  0  0  0  0
  162.1090  207.1450  151.1320 C   0  0  0  0  0  3  0  0  0  0  0  0
  159.9270  209.9600  154.6430 C   0  0  2  0  0  3  0  0  0  0  0  0
  159.3590  213.2350  153.4750 C   0  0  2  0  0  3  0  0  0  0  0  0
  159.0140  211.2580  156.4230 C   0  0  2  0  0  3  0  0  0  0  0  0
  159.3010  213.3030  151.9490 C   0  0  0  0  0  2  0  0  0  0  0  0
  162.0520  208.5240  150.9240 C   0  0  0  0  0  3  0  0  0  0  0  0
  160.4300  211.2270  151.5260 O   0  0  0  0  0  0  0  0  0  0  0  0
  158.2750  209.9350  156.4640 C   0  0  0  0  0  2  0  0  0  0  0  0
  161.8470  209.3850  152.0050 C   0  0  0  0  0  0  0  0  0  0  0  0
  160.4740  212.6020  151.2560 C   0  0  1  0  0  3  0  0  0  0  0  0
  161.7110  208.8400  153.2960 C   0  0  0  0  0  0  0  0  0  0  0  0
  162.1340  209.3370  155.6620 N   0  0  0  0  0  1  0  0  0  0  0  0
  158.7130  211.9580  153.9570 C   0  0  1  0  0  3  0  0  0  0  0  0
  157.1500  212.9110  155.8560 C   0  0  2  0  0  3  0  0  0  0  0  0
  161.9550  206.6400  152.4240 C   0  0  0  0  0  3  0  0  0  0  0  0
  159.0460  209.0360  155.5050 C   0  0  2  0  0  3  0  0  0  0  0  0
  158.2070  212.4740  156.8690 C   0  0  2  0  0  3  0  0  0  0  0  0
  161.7550  207.4890  153.4690 N   0  0  0  0  0  0  0  0  0  0  0  0
  161.5750  212.4490  149.0150 N   0  0  1  0  0  0  0  0  0  0  0  0
  162.5680  213.8420  147.2910 C   0  0  0  0  0  2  0  0  0  0  0  0
  160.3470  212.8440  149.7470 C   0  0  2  0  0  3  0  0  0  0  0  0
  158.8270  213.9480  147.2400 C   0  0  0  0  0  0  0  0  0  0  0  0
  161.2020  212.8720  145.3450 C   0  0  0  0  0  2  0  0  0  0  0  0
  161.1910  211.9010  147.7130 C   0  0  2  0  0  3  0  0  0  0  0  0
  159.7480  214.4490  148.0080 N   0  0  0  0  0  0  0  0  0  0  0  0
  161.4770  210.5360  147.6800 O   0  0  0  0  0  1  0  0  0  0  0  0
  159.8330  214.2660  149.4480 C   0  0  0  0  0  2  0  0  0  0  0  0
  162.5100  213.5600  148.7820 C   0  0  0  0  0  2  0  0  0  0  0  0
  159.0440  213.9290  145.8620 O   0  0  0  0  0  0  0  0  0  0  0  0
  161.9910  212.6110  146.6420 C   0  0  2  0  0  3  0  0  0  0  0  0
  160.3400  214.1450  145.3080 C   0  0  0  0  0  2  0  0  0  0  0  0
  157.5740  213.3420  147.8210 C   0  0  2  0  0  3  0  0  0  0  0  0
  156.3280  214.0240  151.1960 O   0  0  0  0  0  1  0  0  0  0  0  0
  155.2580  214.4390  149.2140 O   0  0  0  0  0  0  0  0  0  0  0  0
  156.3620  214.0040  149.9390 C   0  0  0  0  0  0  0  0  0  0  0  0
  157.5140  213.4950  149.2700 N   0  0  0  0  0  2  0  0  0  0  0  0
  157.4660  211.8650  147.4560 C   0  0  0  0  0  2  0  0  0  0  0  0
  156.5020  211.6610  146.4630 O   0  0  0  0  0  1  0  0  0  0  0  0
  155.5700  211.2170  155.2440 O   0  0  0  0  0  0  0  0  0  0  0  0
  155.8560  212.1630  156.0240 C   0  0  0  0  0  0  0  0  0  0  0  0
  154.9240  212.5620  156.9760 O   0  0  0  0  0  1  0  0  0  0  0  0
  158.8770  206.5370  156.0180 C   0  0  0  0  0  1  0  0  0  0  0  0
  159.6970  207.8100  156.1630 C   0  0  0  0  0  2  0  0  0  0  0  0
  1  5  1  0  0  0  0
  2  8  1  0  0  0  0
  2 18  1  1  0  0  0
  3 15  1  0  0  0  0
  4 10  1  0  0  0  0
  5 20  1  0  0  0  0
  7 21  1  0  0  0  0
  8  4  1  0  0  0  0
  8 22  1  0  0  0  0
  9 19  1  0  0  0  0
  9  1  1  0  0  0  0
 10 14  1  0  0  0  0
 10 23  1  0  0  0  0
 11  9  1  0  0  0  0
 12  7  2  0  0  0  0
 12 15  1  0  0  0  0
 13  3  1  0  0  0  0
 15 17  2  0  0  0  0
 16 13  1  0  0  0  0
 16 11  1  0  0  0  0
 17 24  1  0  0  0  0
 17  2  1  0  0  0  0
 19  5  1  0  0  0  0
 19  4  1  0  0  0  0
 20 46  1  0  0  0  0
 20 23  1  0  0  0  0
 21 24  2  0  0  0  0
 22 49  1  0  0  0  0
 22 14  1  0  0  0  0
 23  6  1  0  0  0  0
 25 27  1  0  0  0  0
 26 34  1  0  0  0  0
 27 16  1  0  0  0  0
 28 38  1  0  0  0  0
 28 31  2  0  0  0  0
 29 36  1  0  0  0  0
 30 25  1  0  0  0  0
 31 33  1  0  0  0  0
 32 30  1  0  0  0  0
 33 27  1  0  0  0  0
 34 25  1  0  0  0  0
 35 28  1  0  0  0  0
 36 26  1  0  0  0  0
 36 30  1  0  0  0  0
 37 29  1  0  0  0  0
 37 35  1  0  0  0  0
 38 42  1  0  0  0  0
 40 41  2  0  0  0  0
 41 39  1  0  0  0  0
 42 41  1  0  0  0  0
 43 38  1  0  0  0  0
 44 43  1  0  0  0  0
 45 46  2  0  0  0  0
 46 47  1  0  0  0  0
 48 49  1  0  0  0  0
M  END
>  <MODEL>
1

>  <REMARK>
 VINA RESULT:      -2.8      0.000      0.000
  Name = 
  6 active torsions:
  status: ('A' for Active; 'I' for Inactive)
    1  A    between atoms: CA_6  and  C_10
    2  A    between atoms: CA_6  and  C_16
    3  A    between atoms: CA_6  and  N_48
    4  A    between atoms: C_8  and  C_30
    5  A    between atoms: C_32  and  C_39
    6  A    between atoms: C_43  and  C_45
                            x       y       z     vdW  Elec       q    Type
                         _______ _______ _______ _____ _____    ______ ____

>  <TORSDO>
F 6

$$$$
=
 OpenBabel11072409483D

 49 55  0  0  1  0  0  0  0  0999 V2000
  161.6560  211.0750  147.4570 O   0  0  0  0  0  0  0  0  0  0  0  0
  161.9200  210.1880  152.6950 C   0  0  2  0  0  3  0  0  0  0  0  0
  162.3310  207.6440  151.2900 C   0  0  0  0  0  2  0  0  0  0  0  0
  161.4440  211.4180  150.5610 C   0  0  2  0  0  3  0  0  0  0  0  0
  160.5020  211.5100  148.1260 C   0  0  1  0  0  3  0  0  0  0  0  0
  162.6390  213.8640  148.9550 C   0  0  0  0  0  1  0  0  0  0  0  0
  160.4820  206.5480  154.4030 C   0  0  0  0  0  3  0  0  0  0  0  0
  160.8430  210.8020  151.7980 C   0  0  2  0  0  3  0  0  0  0  0  0
  161.9590  210.1910  148.5140 C   0  0  2  0  0  3  0  0  0  0  0  0
  161.1130  212.8930  150.6830 C   0  0  2  0  0  3  0  0  0  0  0  0
  161.6820  208.7560  148.0660 C   0  0  0  0  0  2  0  0  0  0  0  0
  161.1510  206.5120  153.1780 C   0  0  0  0  0  3  0  0  0  0  0  0
  161.4010  207.8210  150.2590 O   0  0  0  0  0  0  0  0  0  0  0  0
  159.7940  212.9940  151.4210 C   0  0  0  0  0  2  0  0  0  0  0  0
  161.6420  207.6930  152.6160 C   0  0  0  0  0  0  0  0  0  0  0  0
  162.1400  207.6970  149.0740 C   0  0  1  0  0  3  0  0  0  0  0  0
  161.4580  208.9060  153.3070 C   0  0  0  0  0  0  0  0  0  0  0  0
  162.4900  211.1040  153.6680 N   0  0  0  0  0  1  0  0  0  0  0  0
  160.8170  210.6930  149.3650 C   0  0  1  0  0  3  0  0  0  0  0  0
  160.3890  213.0390  148.2370 C   0  0  2  0  0  3  0  0  0  0  0  0
  160.3060  207.7710  155.0520 C   0  0  0  0  0  3  0  0  0  0  0  0
  159.7680  211.7700  152.3280 C   0  0  2  0  0  3  0  0  0  0  0  0
  161.1930  213.6700  149.3720 C   0  0  2  0  0  3  0  0  0  0  0  0
  160.7880  208.9150  154.4930 N   0  0  0  0  0  0  0  0  0  0  0  0
  162.2920  206.2770  147.0210 N   0  0  1  0  0  0  0  0  0  0  0  0
  160.8970  205.2450  145.3210 C   0  0  0  0  0  2  0  0  0  0  0  0
  161.9050  206.3160  148.4510 C   0  0  2  0  0  3  0  0  0  0  0  0
  160.8250  203.3770  148.5640 C   0  0  0  0  0  0  0  0  0  0  0  0
  161.8870  202.8870  145.5610 C   0  0  0  0  0  2  0  0  0  0  0  0
  162.8490  204.9570  146.7190 C   0  0  2  0  0  3  0  0  0  0  0  0
  160.3120  204.4920  148.1360 N   0  0  0  0  0  0  0  0  0  0  0  0
  164.2110  205.0780  146.4450 O   0  0  0  0  0  1  0  0  0  0  0  0
  160.4890  205.7930  148.7630 C   0  0  0  0  0  2  0  0  0  0  0  0
  161.1740  206.5210  146.0970 C   0  0  0  0  0  2  0  0  0  0  0  0
  160.8480  202.2800  147.7030 O   0  0  0  0  0  0  0  0  0  0  0  0
  162.1360  204.4060  145.5020 C   0  0  2  0  0  3  0  0  0  0  0  0
  160.6220  202.4250  146.3030 C   0  0  0  0  0  2  0  0  0  0  0  0
  161.4390  203.2790  149.9380 C   0  0  2  0  0  3  0  0  0  0  0  0
  160.8490  199.7170  150.5540 O   0  0  0  0  0  1  0  0  0  0  0  0
  159.3220  201.2740  149.8580 O   0  0  0  0  0  0  0  0  0  0  0  0
  160.5980  200.9180  150.2760 C   0  0  0  0  0  0  0  0  0  0  0  0
  161.6350  201.8940  150.3510 N   0  0  0  0  0  2  0  0  0  0  0  0
  160.5800  204.0040  150.9690 C   0  0  0  0  0  2  0  0  0  0  0  0
  160.7440  203.4480  152.2420 O   0  0  0  0  0  1  0  0  0  0  0  0
  158.5950  214.4530  148.9590 O   0  0  0  0  0  1  0  0  0  0  0  0
  158.9500  213.4760  148.2480 C   0  0  0  0  0  0  0  0  0  0  0  0
  157.9840  212.7560  147.5540 O   0  0  0  0  0  0  0  0  0  0  0  0
  158.4690  211.6460  154.5270 C   0  0  0  0  0  1  0  0  0  0  0  0
  159.7470  212.0890  153.8300 C   0  0  0  0  0  2  0  0  0  0  0  0
  1  5  1  0  0  0  0
  1  9  1  0  0  0  0
  2 17  1  0  0  0  0
  2 18  1  1  0  0  0
  3 15  1  0  0  0  0
  4 10  1  0  0  0  0
  4  8  1  0  0  0  0
  5 20  1  0  0  0  0
  5 19  1  0  0  0  0
  6 23  1  0  0  0  0
  7 21  1  0  0  0  0
  8 22  1  0  0  0  0
  8  2  1  0  0  0  0
  9 19  1  0  0  0  0
 10 14  1  0  0  0  0
 11  9  1  0  0  0  0
 11 16  1  0  0  0  0
 12  7  2  0  0  0  0
 13  3  1  0  0  0  0
 14 22  1  0  0  0  0
 15 12  1  0  0  0  0
 15 17  2  0  0  0  0
 16 13  1  0  0  0  0
 17 24  1  0  0  0  0
 19  4  1  0  0  0  0
 20 46  1  0  0  0  0
 20 23  1  0  0  0  0
 22 49  1  0  0  0  0
 23 10  1  0  0  0  0
 24 21  2  0  0  0  0
 25 27  1  0  0  0  0
 26 36  1  0  0  0  0
 26 34  1  0  0  0  0
 27 33  1  0  0  0  0
 27 16  1  0  0  0  0
 28 38  1  0  0  0  0
 29 37  1  0  0  0  0
 30 25  1  0  0  0  0
 31 28  2  0  0  0  0
 31 33  1  0  0  0  0
 32 30  1  0  0  0  0
 34 25  1  0  0  0  0
 35 28  1  0  0  0  0
 36 29  1  0  0  0  0
 36 30  1  0  0  0  0
 37 35  1  0  0  0  0
 38 42  1  0  0  0  0
 38 43  1  0  0  0  0
 40 41  2  0  0  0  0
 41 42  1  0  0  0  0
 41 39  1  0  0  0  0
 43 44  1  0  0  0  0
 46 45  1  0  0  0  0
 47 46  2  0  0  0  0
 49 48  1  0  0  0  0
M  END
>  <MODEL>
2

>  <REMARK>
 VINA RESULT:      -0.5      4.361      7.948
  Name = 
  6 active torsions:
  status: ('A' for Active; 'I' for Inactive)
    1  A    between atoms: CA_6  and  C_10
    2  A    between atoms: CA_6  and  C_16
    3  A    between atoms: CA_6  and  N_48
    4  A    between atoms: C_8  and  C_30
    5  A    between atoms: C_32  and  C_39
    6  A    between atoms: C_43  and  C_45
                            x       y       z     vdW  Elec       q    Type
                         _______ _______ _______ _____ _____    ______ ____

>  <TORSDO>
F 6

$$$$
