=
 OpenBabel11072412153D

 38 41  0  0  1  0  0  0  0  0999 V2000
  162.0950  209.7830  150.0270 N   0  0  0  0  0  0  0  0  0  0  0  0
  161.3420  208.9000  152.5410 C   0  0  0  0  0  0  0  0  0  0  0  0
  162.5140  207.5430  149.3470 N   0  0  0  0  0  1  0  0  0  0  0  0
  161.7020  207.9130  151.5870 C   0  0  0  0  0  0  0  0  0  0  0  0
  162.1140  208.3620  150.2620 C   0  0  0  0  0  0  0  0  0  0  0  0
  161.3310  210.1720  152.2800 N   0  0  0  0  0  0  0  0  0  0  0  0
  161.5370  206.7300  152.1690 C   0  0  0  0  0  0  0  0  0  0  0  0
  160.9680  208.1720  153.7350 C   0  0  1  0  0  3  0  0  0  0  0  0
  161.7300  210.6270  150.9630 C   0  0  0  0  0  3  0  0  0  0  0  0
  161.0830  206.8930  153.5250 N   0  0  0  0  0  0  0  0  0  0  0  0
  160.4000  212.9760  155.9030 O   0  0  0  0  0  0  0  0  0  0  0  0
  160.5500  208.7770  155.0330 C   0  0  1  0  0  3  0  0  0  0  0  0
  158.8040  211.6860  157.2610 O   0  0  0  0  0  0  0  0  0  0  0  0
  159.2620  210.8280  154.7140 C   0  0  1  0  0  3  0  0  0  0  0  0
  159.8690  211.6040  156.2030 S   0  0  0  0  0  0  0  0  0  0  0  0
  161.6550  209.6950  155.6000 C   0  0  0  0  0  2  0  0  0  0  0  0
  161.1690  210.5350  156.7720 C   0  0  0  0  0  2  0  0  0  0  0  0
  159.2090  209.3800  154.9130 N   0  0  0  0  0  2  0  0  0  0  0  0
  157.9250  211.3900  154.2250 C   0  0  0  0  0  2  0  0  0  0  0  0
  157.1850  213.6420  153.9990 O   0  0  0  0  0  0  0  0  0  0  0  0
  158.0210  212.7660  153.6510 C   0  0  0  0  0  0  0  0  0  0  0  0
  157.6220  213.3160  150.8240 N   0  0  0  0  0  1  0  0  0  0  0  0
  160.0520  213.5980  150.6440 N   0  0  0  0  0  1  0  0  0  0  0  0
  158.9090  213.3090  151.4370 C   0  0  0  0  0  0  0  0  0  0  0  0
  159.0600  213.0560  152.7040 N   0  0  0  0  0  0  0  0  0  0  0  0
  161.7480  205.4110  151.5130 C   0  0  0  0  0  2  0  0  0  0  0  0
  160.5440  205.0600  150.6550 C   0  0  0  0  0  2  0  0  0  0  0  0
  160.6280  203.6730  150.2170 N   0  0  0  0  0  0  0  0  0  0  0  0
  161.0080  203.2770  149.0340 C   0  0  0  0  0  0  0  0  0  0  0  0
  161.3480  204.2460  147.9590 C   0  0  0  0  0  0  0  0  0  0  0  0
  162.5070  204.0850  147.1880 C   0  0  0  0  0  3  0  0  0  0  0  0
  161.9420  206.0630  145.9360 C   0  0  0  0  0  3  0  0  0  0  0  0
  160.8190  206.2080  146.6860 N   0  0  0  0  0  0  0  0  0  0  0  0
  162.8090  204.9950  146.1730 C   0  0  0  0  0  3  0  0  0  0  0  0
  160.5080  205.3320  147.6780 C   0  0  0  0  0  3  0  0  0  0  0  0
  160.8860  201.2490  147.4120 C   0  0  0  0  0  1  0  0  0  0  0  0
  161.2420  201.0210  149.7410 O   0  0  0  0  0  0  0  0  0  0  0  0
  161.0660  201.8180  148.7790 C   0  0  0  0  0  0  0  0  0  0  0  0
  1  5  2  0  0  0  0
  1  9  1  0  0  0  0
  3  5  1  0  0  0  0
  4  7  1  0  0  0  0
  4  2  2  0  0  0  0
  5  4  1  0  0  0  0
  6  2  1  0  0  0  0
  7 10  2  0  0  0  0
  8  2  1  1  0  0  0
  8 12  1  0  0  0  0
  9  6  2  0  0  0  0
 10  8  1  0  0  0  0
 11 15  2  0  0  0  0
 12 16  1  6  0  0  0
 14 19  1  1  0  0  0
 14 18  1  0  0  0  0
 14 15  1  0  0  0  0
 15 17  1  0  0  0  0
 15 13  2  0  0  0  0
 16 17  1  0  0  0  0
 18 12  1  0  0  0  0
 21 20  2  0  0  0  0
 21 19  1  0  0  0  0
 22 24  1  0  0  0  0
 23 24  1  0  0  0  0
 24 25  2  0  0  0  0
 25 21  1  0  0  0  0
 26  7  1  0  0  0  0
 27 26  1  0  0  0  0
 28 27  1  0  0  0  0
 29 28  2  0  0  0  0
 30 29  1  0  0  0  0
 31 30  2  0  0  0  0
 32 34  2  0  0  0  0
 32 33  1  0  0  0  0
 33 35  2  0  0  0  0
 34 31  1  0  0  0  0
 35 30  1  0  0  0  0
 36 38  1  0  0  0  0
 38 29  1  0  0  0  0
 38 37  2  0  0  0  0
M  END
>  <MODEL>
1

>  <REMARK>
 VINA RESULT:      -7.8      0.000      0.000
  Name = 
  9 active torsions:
  status: ('A' for Active; 'I' for Inactive)
    1  A    between atoms: N_3  and  C_20
    2  A    between atoms: C_4  and  C_7
    3  A    between atoms: C_4  and  C_34
    4  A    between atoms: C_8  and  C_30
    5  A    between atoms: C_15  and  C_20
    6  A    between atoms: C_15  and  C_22
    7  A    between atoms: C_19  and  C_26
    8  A    between atoms: C_19  and  C_32
    9  A    between atoms: N_29  and  C_32
                            x       y       z     vdW  Elec       q    Type
                         _______ _______ _______ _____ _____    ______ ____

>  <TORSDO>
F 9

$$$$
=
 OpenBabel11072412153D

 38 41  0  0  1  0  0  0  0  0999 V2000
  162.3500  210.5970  148.2510 N   0  0  0  0  0  0  0  0  0  0  0  0
  161.3340  210.7960  150.8190 C   0  0  0  0  0  0  0  0  0  0  0  0
  162.6450  208.2540  148.5300 N   0  0  0  0  0  2  0  0  0  0  0  0
  161.6890  209.5000  150.3600 C   0  0  0  0  0  0  0  0  0  0  0  0
  162.2390  209.3810  149.0140 C   0  0  0  0  0  0  0  0  0  0  0  0
  161.4420  211.8640  150.0910 N   0  0  0  0  0  0  0  0  0  0  0  0
  161.3870  208.6460  151.3300 C   0  0  0  0  0  0  0  0  0  0  0  0
  160.8100  210.6060  152.1560 C   0  0  0  0  0  0  0  0  0  0  0  0
  161.9780  211.7540  148.7480 C   0  0  0  0  0  3  0  0  0  0  0  0
  160.8410  209.3420  152.4650 N   0  0  0  0  0  0  0  0  0  0  0  0
  157.3070  211.2660  156.0790 O   0  0  0  0  0  0  0  0  0  0  0  0
  160.3390  211.6850  153.0720 C   0  0  1  0  0  3  0  0  0  0  0  0
  158.9260  213.0350  156.6280 O   0  0  0  0  0  0  0  0  0  0  0  0
  159.8680  210.8410  155.3150 C   0  0  1  0  0  3  0  0  0  0  0  0
  158.5380  211.9920  155.6190 S   0  0  0  0  0  0  0  0  0  0  0  0
  158.8130  211.8870  152.9520 C   0  0  0  0  0  2  0  0  0  0  0  0
  158.2560  212.7800  154.0520 C   0  0  0  0  0  2  0  0  0  0  0  0
  160.8550  211.4660  154.4370 N   0  0  0  0  0  2  0  0  0  0  0  0
  160.5050  210.2820  156.5900 C   0  0  0  0  0  2  0  0  0  0  0  0
  162.6920  209.4290  156.9830 O   0  0  0  0  0  0  0  0  0  0  0  0
  161.6170  209.3160  156.3380 C   0  0  0  0  0  0  0  0  0  0  0  0
  159.8920  206.9940  156.6290 N   0  0  0  0  0  1  0  0  0  0  0  0
  160.5930  206.3230  154.3750 N   0  0  0  0  0  1  0  0  0  0  0  0
  160.6700  207.2390  155.4600 C   0  0  0  0  0  0  0  0  0  0  0  0
  161.4360  208.2840  155.3560 N   0  0  0  0  0  0  0  0  0  0  0  0
  161.5460  207.1670  151.2560 C   0  0  0  0  0  2  0  0  0  0  0  0
  160.5310  206.5850  150.2870 C   0  0  0  0  0  2  0  0  0  0  0  0
  160.5440  205.1300  150.3630 N   0  0  0  0  0  0  0  0  0  0  0  0
  160.9090  204.3270  149.4020 C   0  0  0  0  0  0  0  0  0  0  0  0
  161.3060  204.8410  148.0650 C   0  0  0  0  0  0  0  0  0  0  0  0
  162.4850  204.4020  147.4490 C   0  0  0  0  0  3  0  0  0  0  0  0
  162.0080  205.8030  145.5490 C   0  0  0  0  0  3  0  0  0  0  0  0
  160.8660  206.2200  146.1530 N   0  0  0  0  0  0  0  0  0  0  0  0
  162.8420  204.8820  146.1870 C   0  0  0  0  0  3  0  0  0  0  0  0
  160.5010  205.7620  147.3810 C   0  0  0  0  0  3  0  0  0  0  0  0
  160.5530  201.8750  148.6150 C   0  0  0  0  0  1  0  0  0  0  0  0
  161.1350  202.4470  150.8380 O   0  0  0  0  0  0  0  0  0  0  0  0
  160.8900  202.8700  149.6750 C   0  0  0  0  0  0  0  0  0  0  0  0
  1  9  2  0  0  0  0
  1  5  1  0  0  0  0
  2  8  1  0  0  0  0
  3  5  2  0  0  0  0
  4  2  1  0  0  0  0
  4  7  2  0  0  0  0
  5  4  1  0  0  0  0
  6  2  2  0  0  0  0
  7 10  1  0  0  0  0
  8 10  2  0  0  0  0
  9  6  1  0  0  0  0
 12  8  1  6  0  0  0
 12 18  1  0  0  0  0
 14 15  1  0  0  0  0
 14 19  1  1  0  0  0
 15 11  2  0  0  0  0
 15 13  2  0  0  0  0
 16 12  1  0  0  0  0
 16 17  1  0  0  0  0
 17 15  1  0  0  0  0
 18 14  1  0  0  0  0
 21 19  1  0  0  0  0
 21 20  2  0  0  0  0
 23 24  1  0  0  0  0
 24 22  1  0  0  0  0
 25 24  2  0  0  0  0
 25 21  1  0  0  0  0
 26  7  1  0  0  0  0
 27 28  1  0  0  0  0
 27 26  1  0  0  0  0
 29 38  1  0  0  0  0
 29 28  2  0  0  0  0
 30 29  1  0  0  0  0
 31 30  1  0  0  0  0
 32 33  2  0  0  0  0
 32 34  1  0  0  0  0
 33 35  1  0  0  0  0
 34 31  2  0  0  0  0
 35 30  2  0  0  0  0
 36 38  1  0  0  0  0
 38 37  2  0  0  0  0
M  END
>  <MODEL>
2

>  <REMARK>
 VINA RESULT:      -7.7      1.599      3.584
  Name = 
  9 active torsions:
  status: ('A' for Active; 'I' for Inactive)
    1  A    between atoms: N_3  and  C_20
    2  A    between atoms: C_4  and  C_7
    3  A    between atoms: C_4  and  C_34
    4  A    between atoms: C_8  and  C_30
    5  A    between atoms: C_15  and  C_20
    6  A    between atoms: C_15  and  C_22
    7  A    between atoms: C_19  and  C_26
    8  A    between atoms: C_19  and  C_32
    9  A    between atoms: N_29  and  C_32
                            x       y       z     vdW  Elec       q    Type
                         _______ _______ _______ _____ _____    ______ ____

>  <TORSDO>
F 9

$$$$
=
 OpenBabel11072412153D

 38 41  0  0  1  0  0  0  0  0999 V2000
  161.0920  209.2310  155.1720 N   0  0  0  0  0  0  0  0  0  0  0  0
  161.5600  209.7450  152.4920 C   0  0  0  0  0  0  0  0  0  0  0  0
  160.5210  206.9810  154.6590 N   0  0  0  0  0  1  0  0  0  0  0  0
  161.1860  208.4220  152.8440 C   0  0  2  0  0  3  0  0  0  0  0  0
  160.9220  208.1380  154.2500 C   0  0  0  0  0  0  0  0  0  0  0  0
  161.7100  210.6980  153.3610 N   0  0  0  0  0  0  0  0  0  0  0  0
  161.1940  207.7040  151.7260 C   0  0  0  0  0  0  0  0  0  0  0  0
  161.7700  209.7240  151.0600 C   0  0  0  0  0  0  0  0  0  0  0  0
  161.4600  210.4220  154.7630 C   0  0  0  0  0  3  0  0  0  0  0  0
  161.5540  208.5260  150.6010 N   0  0  0  0  0  0  0  0  0  0  0  0
  159.4790  213.0560  147.6330 O   0  0  0  0  0  0  0  0  0  0  0  0
  162.1400  210.8950  150.2130 C   0  0  1  0  0  3  0  0  0  0  0  0
  161.3430  214.4520  148.4290 O   0  0  0  0  0  0  0  0  0  0  0  0
  160.3650  212.5720  150.1430 C   0  0  1  0  0  3  0  0  0  0  0  0
  160.7250  213.0830  148.4710 S   0  0  0  0  0  0  0  0  0  0  0  0
  161.7980  210.6370  148.7290 C   0  0  0  0  0  2  0  0  0  0  0  0
  161.9070  211.8960  147.8800 C   0  0  0  0  0  2  0  0  0  0  0  0
  161.6030  212.1420  150.7920 N   0  0  0  0  0  2  0  0  0  0  0  0
  159.6220  213.6270  150.9660 C   0  0  0  0  0  2  0  0  0  0  0  0
  157.4820  212.9330  150.1870 O   0  0  0  0  0  0  0  0  0  0  0  0
  158.1710  213.3300  151.1630 C   0  0  0  0  0  0  0  0  0  0  0  0
  158.2770  211.4130  153.3460 N   0  0  0  0  0  1  0  0  0  0  0  0
  157.0160  213.0320  154.6900 N   0  0  0  0  0  1  0  0  0  0  0  0
  157.6280  212.6770  153.4570 C   0  0  0  0  0  0  0  0  0  0  0  0
  157.5910  213.5150  152.4640 N   0  0  0  0  0  0  0  0  0  0  0  0
  160.9120  206.2450  151.6380 C   0  0  0  0  0  2  0  0  0  0  0  0
  161.6830  205.6390  150.4770 C   0  0  0  0  0  2  0  0  0  0  0  0
  161.2250  204.2790  150.2280 N   0  0  0  0  0  0  0  0  0  0  0  0
  161.1450  203.7110  149.0560 C   0  0  0  0  0  0  0  0  0  0  0  0
  161.4730  204.4500  147.8080 C   0  0  0  0  0  0  0  0  0  0  0  0
  162.5300  204.0380  146.9870 C   0  0  0  0  0  3  0  0  0  0  0  0
  162.0440  205.8400  145.4650 C   0  0  0  0  0  3  0  0  0  0  0  0
  161.0190  206.2300  146.2660 N   0  0  0  0  0  0  0  0  0  0  0  0
  162.8200  204.7320  145.8100 C   0  0  0  0  0  3  0  0  0  0  0  0
  160.7210  205.5650  147.4140 C   0  0  0  0  0  3  0  0  0  0  0  0
  160.7650  201.4020  150.1870 C   0  0  0  0  0  1  0  0  0  0  0  0
  160.2470  201.8290  147.9170 O   0  0  0  0  0  0  0  0  0  0  0  0
  160.6880  202.3020  149.0000 C   0  0  0  0  0  0  0  0  0  0  0  0
  2  4  1  0  0  0  0
  2  6  1  0  0  0  0
  4  7  1  1  0  0  0
  4  5  1  0  0  0  0
  5  3  1  0  0  0  0
  5  1  2  0  0  0  0
  6  9  2  0  0  0  0
  8  2  2  0  0  0  0
  9  1  1  0  0  0  0
 10  8  1  0  0  0  0
 10  7  2  0  0  0  0
 11 15  2  0  0  0  0
 12 18  1  0  0  0  0
 12  8  1  1  0  0  0
 13 15  2  0  0  0  0
 14 18  1  0  0  0  0
 14 19  1  1  0  0  0
 15 14  1  0  0  0  0
 16 12  1  0  0  0  0
 17 15  1  0  0  0  0
 17 16  1  0  0  0  0
 19 21  1  0  0  0  0
 20 21  2  0  0  0  0
 21 25  1  0  0  0  0
 22 24  1  0  0  0  0
 24 23  1  0  0  0  0
 25 24  2  0  0  0  0
 26  7  1  0  0  0  0
 27 26  1  0  0  0  0
 28 27  1  0  0  0  0
 29 28  2  0  0  0  0
 30 29  1  0  0  0  0
 31 30  2  0  0  0  0
 32 34  2  0  0  0  0
 32 33  1  0  0  0  0
 33 35  2  0  0  0  0
 34 31  1  0  0  0  0
 35 30  1  0  0  0  0
 37 38  2  0  0  0  0
 38 29  1  0  0  0  0
 38 36  1  0  0  0  0
M  END
>  <MODEL>
3

>  <REMARK>
 VINA RESULT:      -7.6      2.508      4.174
  Name = 
  9 active torsions:
  status: ('A' for Active; 'I' for Inactive)
    1  A    between atoms: N_3  and  C_20
    2  A    between atoms: C_4  and  C_7
    3  A    between atoms: C_4  and  C_34
    4  A    between atoms: C_8  and  C_30
    5  A    between atoms: C_15  and  C_20
    6  A    between atoms: C_15  and  C_22
    7  A    between atoms: C_19  and  C_26
    8  A    between atoms: C_19  and  C_32
    9  A    between atoms: N_29  and  C_32
                            x       y       z     vdW  Elec       q    Type
                         _______ _______ _______ _____ _____    ______ ____

>  <TORSDO>
F 9

$$$$
=
 OpenBabel11072412153D

 38 41  0  0  1  0  0  0  0  0999 V2000
  161.6050  212.3970  148.1970 N   0  0  0  0  0  0  0  0  0  0  0  0
  160.7400  212.1270  150.8140 C   0  0  0  0  0  0  0  0  0  0  0  0
  162.6970  210.2880  148.3220 N   0  0  0  0  0  2  0  0  0  0  0  0
  161.4870  211.0530  150.2630 C   0  0  0  0  0  0  0  0  0  0  0  0
  161.9610  211.1850  148.8900 C   0  0  0  0  0  0  0  0  0  0  0  0
  160.4340  213.1980  150.1470 N   0  0  0  0  0  0  0  0  0  0  0  0
  161.5530  210.1070  151.1920 C   0  0  0  0  0  0  0  0  0  0  0  0
  160.3950  211.7140  152.1580 C   0  0  0  0  0  0  0  0  0  0  0  0
  160.8930  213.3340  148.7780 C   0  0  0  0  0  3  0  0  0  0  0  0
  160.8730  210.5260  152.3900 N   0  0  0  0  0  0  0  0  0  0  0  0
  156.3260  211.1530  155.5080 O   0  0  0  0  0  0  0  0  0  0  0  0
  159.6410  212.5270  153.1560 C   0  0  1  0  0  3  0  0  0  0  0  0
  157.5610  212.9730  156.6120 O   0  0  0  0  0  0  0  0  0  0  0  0
  159.0020  211.2110  155.1120 C   0  0  1  0  0  3  0  0  0  0  0  0
  157.4810  212.1040  155.3880 S   0  0  0  0  0  0  0  0  0  0  0  0
  158.1330  212.5540  152.8240 C   0  0  0  0  0  2  0  0  0  0  0  0
  157.2990  213.1390  153.9550 C   0  0  0  0  0  2  0  0  0  0  0  0
  159.9920  212.1150  154.5290 N   0  0  0  0  0  2  0  0  0  0  0  0
  159.5360  210.5020  156.3590 C   0  0  0  0  0  2  0  0  0  0  0  0
  161.8480  210.1980  156.8360 O   0  0  0  0  0  0  0  0  0  0  0  0
  160.8550  209.8300  156.1550 C   0  0  0  0  0  0  0  0  0  0  0  0
  160.0540  207.0630  156.5460 N   0  0  0  0  0  1  0  0  0  0  0  0
  160.7670  206.6410  154.2370 N   0  0  0  0  0  1  0  0  0  0  0  0
  160.6090  207.5430  155.3240 C   0  0  0  0  0  0  0  0  0  0  0  0
  160.9630  208.7850  155.1760 N   0  0  0  0  0  0  0  0  0  0  0  0
  162.2020  208.7770  151.0240 C   0  0  0  0  0  2  0  0  0  0  0  0
  161.1560  207.7320  150.6750 C   0  0  0  0  0  2  0  0  0  0  0  0
  161.2760  207.3510  149.2740 N   0  0  0  0  0  0  0  0  0  0  0  0
  161.2700  206.1280  148.8210 C   0  0  0  0  0  0  0  0  0  0  0  0
  161.1940  204.9580  149.7350 C   0  0  0  0  0  0  0  0  0  0  0  0
  160.7910  203.7020  149.2620 C   0  0  0  0  0  3  0  0  0  0  0  0
  161.0890  202.7810  151.4670 C   0  0  0  0  0  3  0  0  0  0  0  0
  161.4800  204.0020  151.9150 N   0  0  0  0  0  0  0  0  0  0  0  0
  160.7370  202.6080  150.1270 C   0  0  0  0  0  3  0  0  0  0  0  0
  161.5410  205.0790  151.0870 C   0  0  0  0  0  3  0  0  0  0  0  0
  162.5870  205.3560  146.7170 C   0  0  0  0  0  1  0  0  0  0  0  0
  160.4140  206.2900  146.6100 O   0  0  0  0  0  0  0  0  0  0  0  0
  161.3680  205.9340  147.3540 C   0  0  0  0  0  0  0  0  0  0  0  0
  1  9  2  0  0  0  0
  1  5  1  0  0  0  0
  2  8  1  0  0  0  0
  3  5  2  0  0  0  0
  4  2  1  0  0  0  0
  4  7  2  0  0  0  0
  5  4  1  0  0  0  0
  6  2  2  0  0  0  0
  7 10  1  0  0  0  0
  8 10  2  0  0  0  0
  9  6  1  0  0  0  0
 12  8  1  6  0  0  0
 12 18  1  0  0  0  0
 14 15  1  0  0  0  0
 14 19  1  1  0  0  0
 15 11  2  0  0  0  0
 15 13  2  0  0  0  0
 16 12  1  0  0  0  0
 16 17  1  0  0  0  0
 17 15  1  0  0  0  0
 18 14  1  0  0  0  0
 21 19  1  0  0  0  0
 21 20  2  0  0  0  0
 23 24  1  0  0  0  0
 24 22  1  0  0  0  0
 25 24  2  0  0  0  0
 25 21  1  0  0  0  0
 26  7  1  0  0  0  0
 27 26  1  0  0  0  0
 28 27  1  0  0  0  0
 29 28  2  0  0  0  0
 29 30  1  0  0  0  0
 30 35  1  0  0  0  0
 31 30  2  0  0  0  0
 31 34  1  0  0  0  0
 32 33  1  0  0  0  0
 34 32  2  0  0  0  0
 35 33  2  0  0  0  0
 36 38  1  0  0  0  0
 37 38  2  0  0  0  0
 38 29  1  0  0  0  0
M  END
>  <MODEL>
4

>  <REMARK>
 VINA RESULT:      -7.5      2.029      4.515
  Name = 
  9 active torsions:
  status: ('A' for Active; 'I' for Inactive)
    1  A    between atoms: N_3  and  C_20
    2  A    between atoms: C_4  and  C_7
    3  A    between atoms: C_4  and  C_34
    4  A    between atoms: C_8  and  C_30
    5  A    between atoms: C_15  and  C_20
    6  A    between atoms: C_15  and  C_22
    7  A    between atoms: C_19  and  C_26
    8  A    between atoms: C_19  and  C_32
    9  A    between atoms: N_29  and  C_32
                            x       y       z     vdW  Elec       q    Type
                         _______ _______ _______ _____ _____    ______ ____

>  <TORSDO>
F 9

$$$$
=
 OpenBabel11072412153D

 38 41  0  0  1  0  0  0  0  0999 V2000
  162.4520  210.9000  149.8780 N   0  0  0  0  0  0  0  0  0  0  0  0
  161.5280  208.3850  149.1780 C   0  0  0  0  0  0  0  0  0  0  0  0
  162.6020  210.2310  152.1550 N   0  0  0  0  0  2  0  0  0  0  0  0
  161.8580  208.6000  150.5420 C   0  0  0  0  0  0  0  0  0  0  0  0
  162.3330  209.9230  150.9300 C   0  0  0  0  0  0  0  0  0  0  0  0
  161.6600  209.2950  148.2620 N   0  0  0  0  0  0  0  0  0  0  0  0
  161.6650  207.4480  151.1760 C   0  0  0  0  0  0  0  0  0  0  0  0
  161.1110  207.0010  149.0900 C   0  0  0  0  0  0  0  0  0  0  0  0
  162.1420  210.6110  148.6360 C   0  0  0  0  0  3  0  0  0  0  0  0
  161.1870  206.4440  150.2630 N   0  0  0  0  0  0  0  0  0  0  0  0
  162.9820  203.7650  145.3320 O   0  0  0  0  0  0  0  0  0  0  0  0
  160.6280  206.3110  147.8590 C   0  0  1  0  0  3  0  0  0  0  0  0
  160.5870  203.2060  145.2460 O   0  0  0  0  0  0  0  0  0  0  0  0
  161.5850  204.0750  147.6290 C   0  0  1  0  0  3  0  0  0  0  0  0
  161.6170  204.1230  145.8450 S   0  0  0  0  0  0  0  0  0  0  0  0
  161.4950  206.6840  146.6370 C   0  0  0  0  0  2  0  0  0  0  0  0
  161.2080  205.8010  145.4300 C   0  0  0  0  0  2  0  0  0  0  0  0
  160.4550  204.8670  148.1120 N   0  0  0  0  0  2  0  0  0  0  0  0
  161.5840  202.6590  148.2090 C   0  0  0  0  0  2  0  0  0  0  0  0
  159.6450  201.5180  148.9890 O   0  0  0  0  0  0  0  0  0  0  0  0
  160.5010  202.4150  149.2100 C   0  0  0  0  0  0  0  0  0  0  0  0
  161.9790  201.8920  151.6580 N   0  0  0  0  0  1  0  0  0  0  0  0
  160.9610  203.9240  152.5820 N   0  0  0  0  0  1  0  0  0  0  0  0
  161.1080  203.0090  151.5040 C   0  0  0  0  0  0  0  0  0  0  0  0
  160.4550  203.2190  150.3990 N   0  0  0  0  0  0  0  0  0  0  0  0
  161.9380  207.2030  152.6190 C   0  0  0  0  0  2  0  0  0  0  0  0
  160.8530  207.8420  153.4670 C   0  0  0  0  0  2  0  0  0  0  0  0
  161.4240  208.3630  154.7020 N   0  0  0  0  0  0  0  0  0  0  0  0
  160.9590  209.3750  155.3820 C   0  0  0  0  0  0  0  0  0  0  0  0
  159.7880  210.1600  154.9090 C   0  0  0  0  0  0  0  0  0  0  0  0
  159.7830  210.7430  153.6360 C   0  0  0  0  0  3  0  0  0  0  0  0
  157.5700  211.6010  154.0430 C   0  0  0  0  0  3  0  0  0  0  0  0
  157.5830  211.0290  155.2750 N   0  0  0  0  0  0  0  0  0  0  0  0
  158.6720  211.4680  153.1970 C   0  0  0  0  0  3  0  0  0  0  0  0
  158.6550  210.3190  155.7180 C   0  0  0  0  0  3  0  0  0  0  0  0
  161.6170  211.1290  157.1830 C   0  0  0  0  0  1  0  0  0  0  0  0
  162.3230  208.8700  157.2600 O   0  0  0  0  0  0  0  0  0  0  0  0
  161.6540  209.7400  156.6390 C   0  0  0  0  0  0  0  0  0  0  0  0
  1  5  1  0  0  0  0
  2  4  1  0  0  0  0
  4  5  1  0  0  0  0
  4  7  2  0  0  0  0
  5  3  2  0  0  0  0
  6  9  1  0  0  0  0
  6  2  2  0  0  0  0
  7 26  1  0  0  0  0
  8  2  1  0  0  0  0
  8 10  2  0  0  0  0
  9  1  2  0  0  0  0
 10  7  1  0  0  0  0
 11 15  2  0  0  0  0
 12 18  1  0  0  0  0
 12  8  1  1  0  0  0
 13 15  2  0  0  0  0
 14 18  1  0  0  0  0
 14 19  1  6  0  0  0
 15 14  1  0  0  0  0
 16 12  1  0  0  0  0
 17 15  1  0  0  0  0
 17 16  1  0  0  0  0
 19 21  1  0  0  0  0
 20 21  2  0  0  0  0
 21 25  1  0  0  0  0
 24 22  1  0  0  0  0
 24 23  1  0  0  0  0
 25 24  2  0  0  0  0
 26 27  1  0  0  0  0
 27 28  1  0  0  0  0
 28 29  2  0  0  0  0
 29 38  1  0  0  0  0
 30 29  1  0  0  0  0
 30 35  1  0  0  0  0
 31 30  2  0  0  0  0
 32 33  1  0  0  0  0
 33 35  2  0  0  0  0
 34 31  1  0  0  0  0
 34 32  2  0  0  0  0
 38 36  1  0  0  0  0
 38 37  2  0  0  0  0
M  END
>  <MODEL>
5

>  <REMARK>
 VINA RESULT:      -7.4      3.167      9.218
  Name = 
  9 active torsions:
  status: ('A' for Active; 'I' for Inactive)
    1  A    between atoms: N_3  and  C_20
    2  A    between atoms: C_4  and  C_7
    3  A    between atoms: C_4  and  C_34
    4  A    between atoms: C_8  and  C_30
    5  A    between atoms: C_15  and  C_20
    6  A    between atoms: C_15  and  C_22
    7  A    between atoms: C_19  and  C_26
    8  A    between atoms: C_19  and  C_32
    9  A    between atoms: N_29  and  C_32
                            x       y       z     vdW  Elec       q    Type
                         _______ _______ _______ _____ _____    ______ ____

>  <TORSDO>
F 9

$$$$
=
 OpenBabel11072412153D

 38 41  0  0  1  0  0  0  0  0999 V2000
  161.1060  204.9290  153.4240 N   0  0  0  0  0  0  0  0  0  0  0  0
  161.0500  206.0100  150.8750 C   0  0  0  0  0  0  0  0  0  0  0  0
  161.6760  207.0520  154.3310 N   0  0  0  0  0  2  0  0  0  0  0  0
  161.3280  206.8950  151.9500 C   0  0  0  0  0  0  0  0  0  0  0  0
  161.3740  206.3390  153.2980 C   0  0  0  0  0  0  0  0  0  0  0  0
  160.8050  204.7460  151.0390 N   0  0  0  0  0  0  0  0  0  0  0  0
  161.4610  208.1100  151.4300 C   0  0  0  0  0  0  0  0  0  0  0  0
  161.0510  206.8310  149.6830 C   0  0  0  0  0  0  0  0  0  0  0  0
  160.8380  204.1860  152.3760 C   0  0  0  0  0  3  0  0  0  0  0  0
  161.2950  208.0680  150.0010 N   0  0  0  0  0  0  0  0  0  0  0  0
  163.7790  204.3520  145.8740 O   0  0  0  0  0  0  0  0  0  0  0  0
  160.8450  206.3460  148.2870 C   0  0  1  0  0  3  0  0  0  0  0  0
  161.4810  203.7360  145.2450 O   0  0  0  0  0  0  0  0  0  0  0  0
  161.9710  204.2160  147.8830 C   0  0  1  0  0  3  0  0  0  0  0  0
  162.3230  204.5700  146.1690 S   0  0  0  0  0  0  0  0  0  0  0  0
  161.8930  206.9520  147.3290 C   0  0  0  0  0  2  0  0  0  0  0  0
  161.8890  206.2800  145.9620 C   0  0  0  0  0  2  0  0  0  0  0  0
  160.7230  204.8750  148.2640 N   0  0  0  0  0  2  0  0  0  0  0  0
  161.9570  202.7220  148.2140 C   0  0  0  0  0  2  0  0  0  0  0  0
  159.8940  201.8480  149.0190 O   0  0  0  0  0  0  0  0  0  0  0  0
  160.6260  202.0710  148.0190 C   0  0  0  0  0  0  0  0  0  0  0  0
  161.5350  199.7230  146.5640 N   0  0  0  0  0  1  0  0  0  0  0  0
  160.0800  200.4330  144.7210 N   0  0  0  0  0  1  0  0  0  0  0  0
  160.6050  200.6580  146.0220 C   0  0  0  0  0  0  0  0  0  0  0  0
  160.2170  201.7030  146.6930 N   0  0  0  0  0  0  0  0  0  0  0  0
  161.7070  209.3560  152.2060 C   0  0  0  0  0  2  0  0  0  0  0  0
  160.3910  209.9110  152.7260 C   0  0  0  0  0  2  0  0  0  0  0  0
  160.1120  211.2000  152.1070 N   0  0  0  0  0  0  0  0  0  0  0  0
  159.4900  212.1930  152.6790 C   0  0  0  0  0  0  0  0  0  0  0  0
  158.9330  212.0770  154.0520 C   0  0  0  0  0  0  0  0  0  0  0  0
  157.6550  211.5440  154.2660 C   0  0  0  0  0  3  0  0  0  0  0  0
  157.9300  211.8490  156.6380 C   0  0  0  0  0  3  0  0  0  0  0  0
  159.1680  212.3620  156.4210 N   0  0  0  0  0  0  0  0  0  0  0  0
  157.1480  211.4280  155.5610 C   0  0  0  0  0  3  0  0  0  0  0  0
  159.6800  212.4820  155.1670 C   0  0  0  0  0  3  0  0  0  0  0  0
  160.0160  213.6560  150.5960 C   0  0  0  0  0  1  0  0  0  0  0  0
  158.6160  214.3800  152.3630 O   0  0  0  0  0  0  0  0  0  0  0  0
  159.3280  213.4460  151.9030 C   0  0  0  0  0  0  0  0  0  0  0  0
  2  6  2  0  0  0  0
  2  4  1  0  0  0  0
  4  5  1  0  0  0  0
  5  1  1  0  0  0  0
  5  3  2  0  0  0  0
  6  9  1  0  0  0  0
  7  4  2  0  0  0  0
  7 26  1  0  0  0  0
  8 10  2  0  0  0  0
  8  2  1  0  0  0  0
  9  1  2  0  0  0  0
 10  7  1  0  0  0  0
 11 15  2  0  0  0  0
 12  8  1  1  0  0  0
 13 15  2  0  0  0  0
 14 19  1  6  0  0  0
 14 18  1  0  0  0  0
 15 14  1  0  0  0  0
 16 12  1  0  0  0  0
 17 15  1  0  0  0  0
 17 16  1  0  0  0  0
 18 12  1  0  0  0  0
 21 19  1  0  0  0  0
 21 20  2  0  0  0  0
 23 24  1  0  0  0  0
 24 22  1  0  0  0  0
 24 25  2  0  0  0  0
 25 21  1  0  0  0  0
 26 27  1  0  0  0  0
 28 29  2  0  0  0  0
 28 27  1  0  0  0  0
 29 30  1  0  0  0  0
 30 31  2  0  0  0  0
 30 35  1  0  0  0  0
 31 34  1  0  0  0  0
 33 32  1  0  0  0  0
 34 32  2  0  0  0  0
 35 33  2  0  0  0  0
 36 38  1  0  0  0  0
 38 37  2  0  0  0  0
 38 29  1  0  0  0  0
M  END
>  <MODEL>
6

>  <REMARK>
 VINA RESULT:      -7.1      3.147     10.166
  Name = 
  9 active torsions:
  status: ('A' for Active; 'I' for Inactive)
    1  A    between atoms: N_3  and  C_20
    2  A    between atoms: C_4  and  C_7
    3  A    between atoms: C_4  and  C_34
    4  A    between atoms: C_8  and  C_30
    5  A    between atoms: C_15  and  C_20
    6  A    between atoms: C_15  and  C_22
    7  A    between atoms: C_19  and  C_26
    8  A    between atoms: C_19  and  C_32
    9  A    between atoms: N_29  and  C_32
                            x       y       z     vdW  Elec       q    Type
                         _______ _______ _______ _____ _____    ______ ____

>  <TORSDO>
F 9

$$$$
=
 OpenBabel11072412153D

 38 41  0  0  1  0  0  0  0  0999 V2000
  161.4430  204.8330  148.7220 N   0  0  0  0  0  0  0  0  0  0  0  0
  161.0850  206.6780  150.7560 C   0  0  0  0  0  0  0  0  0  0  0  0
  162.1210  206.5680  147.2440 N   0  0  0  0  0  1  0  0  0  0  0  0
  161.5650  207.1670  149.5120 C   0  0  0  0  0  0  0  0  0  0  0  0
  161.7450  206.2100  148.4270 C   0  0  0  0  0  0  0  0  0  0  0  0
  160.8340  205.4240  150.9790 N   0  0  0  0  0  0  0  0  0  0  0  0
  161.7730  208.4700  149.6600 C   0  0  0  0  0  0  0  0  0  0  0  0
  161.0230  207.8300  151.6310 C   0  0  1  0  0  3  0  0  0  0  0  0
  161.0210  204.4640  149.9090 C   0  0  0  0  0  3  0  0  0  0  0  0
  161.4240  208.8900  150.9920 N   0  0  0  0  0  0  0  0  0  0  0  0
  162.6120  209.5220  156.3960 O   0  0  0  0  0  0  0  0  0  0  0  0
  160.5390  207.8310  153.0420 C   0  0  1  0  0  3  0  0  0  0  0  0
  160.1730  209.4870  156.7290 O   0  0  0  0  0  0  0  0  0  0  0  0
  161.0860  209.9130  154.1960 C   0  0  1  0  0  3  0  0  0  0  0  0
  161.2930  209.1360  155.7900 S   0  0  0  0  0  0  0  0  0  0  0  0
  161.5700  207.1720  153.9830 C   0  0  0  0  0  2  0  0  0  0  0  0
  161.2410  207.3930  155.4530 C   0  0  0  0  0  2  0  0  0  0  0  0
  160.0800  209.1790  153.4290 N   0  0  0  0  0  2  0  0  0  0  0  0
  160.7700  211.4090  154.2740 C   0  0  0  0  0  2  0  0  0  0  0  0
  159.7840  212.3430  152.3190 O   0  0  0  0  0  0  0  0  0  0  0  0
  159.5940  211.8230  153.4500 C   0  0  0  0  0  0  0  0  0  0  0  0
  158.1590  213.7020  155.1410 N   0  0  0  0  0  1  0  0  0  0  0  0
  156.2910  212.1110  155.1420 N   0  0  0  0  0  1  0  0  0  0  0  0
  157.6070  212.4550  154.7280 C   0  0  0  0  0  0  0  0  0  0  0  0
  158.2710  211.6300  153.9740 N   0  0  0  0  0  0  0  0  0  0  0  0
  162.3270  209.3780  148.6180 C   0  0  0  0  0  2  0  0  0  0  0  0
  161.9980  210.8210  148.9600 C   0  0  0  0  0  2  0  0  0  0  0  0
  162.4320  211.7020  147.8840 N   0  0  0  0  0  0  0  0  0  0  0  0
  161.7140  212.6510  147.3480 C   0  0  0  0  0  0  0  0  0  0  0  0
  160.3070  212.8920  147.7630 C   0  0  0  0  0  0  0  0  0  0  0  0
  160.0150  213.5100  148.9860 C   0  0  0  0  0  3  0  0  0  0  0  0
  157.6620  213.3540  148.4980 C   0  0  0  0  0  3  0  0  0  0  0  0
  157.9550  212.7580  147.3140 N   0  0  0  0  0  0  0  0  0  0  0  0
  158.6900  213.7440  149.3590 C   0  0  0  0  0  3  0  0  0  0  0  0
  159.2390  212.5240  146.9330 C   0  0  0  0  0  3  0  0  0  0  0  0
  162.1340  213.1720  144.8370 C   0  0  0  0  0  1  0  0  0  0  0  0
  163.0890  214.4360  146.5970 O   0  0  0  0  0  0  0  0  0  0  0  0
  162.3380  213.4720  146.2840 C   0  0  0  0  0  0  0  0  0  0  0  0
  1  9  1  0  0  0  0
  2  6  1  0  0  0  0
  3  5  1  0  0  0  0
  4  7  1  0  0  0  0
  4  2  2  0  0  0  0
  5  1  2  0  0  0  0
  5  4  1  0  0  0  0
  7 10  2  0  0  0  0
  8  2  1  6  0  0  0
  8 12  1  0  0  0  0
  9  6  2  0  0  0  0
 10  8  1  0  0  0  0
 12 18  1  0  0  0  0
 12 16  1  1  0  0  0
 14 19  1  1  0  0  0
 14 15  1  0  0  0  0
 15 11  2  0  0  0  0
 15 13  2  0  0  0  0
 16 17  1  0  0  0  0
 17 15  1  0  0  0  0
 18 14  1  0  0  0  0
 20 21  2  0  0  0  0
 21 25  1  0  0  0  0
 21 19  1  0  0  0  0
 24 22  1  0  0  0  0
 24 23  1  0  0  0  0
 25 24  2  0  0  0  0
 26 27  1  0  0  0  0
 26  7  1  0  0  0  0
 28 27  1  0  0  0  0
 29 30  1  0  0  0  0
 29 28  2  0  0  0  0
 30 31  1  0  0  0  0
 31 34  2  0  0  0  0
 32 34  1  0  0  0  0
 33 32  2  0  0  0  0
 35 33  1  0  0  0  0
 35 30  2  0  0  0  0
 36 38  1  0  0  0  0
 38 37  2  0  0  0  0
 38 29  1  0  0  0  0
M  END
>  <MODEL>
7

>  <REMARK>
 VINA RESULT:      -7.1      3.153      6.238
  Name = 
  9 active torsions:
  status: ('A' for Active; 'I' for Inactive)
    1  A    between atoms: N_3  and  C_20
    2  A    between atoms: C_4  and  C_7
    3  A    between atoms: C_4  and  C_34
    4  A    between atoms: C_8  and  C_30
    5  A    between atoms: C_15  and  C_20
    6  A    between atoms: C_15  and  C_22
    7  A    between atoms: C_19  and  C_26
    8  A    between atoms: C_19  and  C_32
    9  A    between atoms: N_29  and  C_32
                            x       y       z     vdW  Elec       q    Type
                         _______ _______ _______ _____ _____    ______ ____

>  <TORSDO>
F 9

$$$$
=
 OpenBabel11072412153D

 38 41  0  0  1  0  0  0  0  0999 V2000
  160.8580  206.5360  154.3380 N   0  0  0  0  0  0  0  0  0  0  0  0
  160.9830  209.0070  153.0940 C   0  0  0  0  0  0  0  0  0  0  0  0
  161.7750  205.4970  152.4060 N   0  0  0  0  0  1  0  0  0  0  0  0
  161.4770  207.8900  152.3710 C   0  0  2  0  0  3  0  0  0  0  0  0
  161.4050  206.5790  153.0070 C   0  0  0  0  0  0  0  0  0  0  0  0
  160.5070  208.9210  154.2980 N   0  0  0  0  0  0  0  0  0  0  0  0
  161.9430  208.3490  151.2150 C   0  0  0  0  0  0  0  0  0  0  0  0
  161.1970  210.1540  152.2370 C   0  0  0  0  0  0  0  0  0  0  0  0
  160.4410  207.6240  154.9430 C   0  0  0  0  0  3  0  0  0  0  0  0
  161.7600  209.7740  151.1260 N   0  0  0  0  0  0  0  0  0  0  0  0
  157.0270  213.3630  151.5970 O   0  0  0  0  0  0  0  0  0  0  0  0
  160.8040  211.5600  152.5420 C   0  0  1  0  0  3  0  0  0  0  0  0
  158.0970  214.4100  153.5500 O   0  0  0  0  0  0  0  0  0  0  0  0
  158.4610  211.7310  153.2100 C   0  0  1  0  0  3  0  0  0  0  0  0
  158.2320  213.3490  152.4940 S   0  0  0  0  0  0  0  0  0  0  0  0
  160.3750  212.3070  151.2610 C   0  0  0  0  0  2  0  0  0  0  0  0
  159.7150  213.6450  151.5620 C   0  0  0  0  0  2  0  0  0  0  0  0
  159.8450  211.5960  153.6630 N   0  0  0  0  0  2  0  0  0  0  0  0
  157.4590  211.3980  154.3180 C   0  0  0  0  0  2  0  0  0  0  0  0
  157.0560  212.7680  156.2230 O   0  0  0  0  0  0  0  0  0  0  0  0
  157.8290  211.9520  155.6560 C   0  0  0  0  0  0  0  0  0  0  0  0
  159.9470  213.7440  156.5240 N   0  0  0  0  0  1  0  0  0  0  0  0
  161.1830  211.7570  157.2610 N   0  0  0  0  0  1  0  0  0  0  0  0
  160.0280  212.3280  156.6600 C   0  0  0  0  0  0  0  0  0  0  0  0
  159.0680  211.5470  156.2610 N   0  0  0  0  0  0  0  0  0  0  0  0
  162.6030  207.5250  150.1650 C   0  0  0  0  0  2  0  0  0  0  0  0
  161.5650  207.0160  149.1790 C   0  0  0  0  0  2  0  0  0  0  0  0
  161.2190  205.6340  149.4860 N   0  0  0  0  0  0  0  0  0  0  0  0
  161.0820  204.6770  148.6110 C   0  0  0  0  0  0  0  0  0  0  0  0
  161.2130  204.9310  147.1510 C   0  0  0  0  0  0  0  0  0  0  0  0
  162.1840  204.2650  146.3920 C   0  0  0  0  0  3  0  0  0  0  0  0
  161.4160  205.4080  144.4170 C   0  0  0  0  0  3  0  0  0  0  0  0
  160.4770  206.0470  145.1610 N   0  0  0  0  0  0  0  0  0  0  0  0
  162.2900  204.5020  145.0200 C   0  0  0  0  0  3  0  0  0  0  0  0
  160.3580  205.8280  146.4980 C   0  0  0  0  0  3  0  0  0  0  0  0
  160.8430  202.1160  148.2380 C   0  0  0  0  0  1  0  0  0  0  0  0
  160.3780  203.1690  150.3060 O   0  0  0  0  0  0  0  0  0  0  0  0
  160.7610  203.3210  149.1140 C   0  0  0  0  0  0  0  0  0  0  0  0
  1  9  1  0  0  0  0
  2  6  1  0  0  0  0
  3  5  1  0  0  0  0
  4  7  1  1  0  0  0
  4  5  1  0  0  0  0
  4  2  1  0  0  0  0
  5  1  2  0  0  0  0
  6  9  2  0  0  0  0
  8  2  2  0  0  0  0
 10  7  2  0  0  0  0
 10  8  1  0  0  0  0
 11 15  2  0  0  0  0
 12  8  1  6  0  0  0
 12 18  1  0  0  0  0
 14 18  1  0  0  0  0
 14 19  1  1  0  0  0
 15 14  1  0  0  0  0
 15 13  2  0  0  0  0
 16 17  1  0  0  0  0
 16 12  1  0  0  0  0
 17 15  1  0  0  0  0
 19 21  1  0  0  0  0
 21 20  2  0  0  0  0
 21 25  1  0  0  0  0
 22 24  1  0  0  0  0
 24 23  1  0  0  0  0
 25 24  2  0  0  0  0
 26  7  1  0  0  0  0
 27 28  1  0  0  0  0
 27 26  1  0  0  0  0
 29 38  1  0  0  0  0
 29 28  2  0  0  0  0
 30 29  1  0  0  0  0
 31 30  2  0  0  0  0
 32 34  2  0  0  0  0
 32 33  1  0  0  0  0
 33 35  2  0  0  0  0
 34 31  1  0  0  0  0
 35 30  1  0  0  0  0
 36 38  1  0  0  0  0
 38 37  2  0  0  0  0
M  END
>  <MODEL>
8

>  <REMARK>
 VINA RESULT:      -6.9      1.887      3.477
  Name = 
  9 active torsions:
  status: ('A' for Active; 'I' for Inactive)
    1  A    between atoms: N_3  and  C_20
    2  A    between atoms: C_4  and  C_7
    3  A    between atoms: C_4  and  C_34
    4  A    between atoms: C_8  and  C_30
    5  A    between atoms: C_15  and  C_20
    6  A    between atoms: C_15  and  C_22
    7  A    between atoms: C_19  and  C_26
    8  A    between atoms: C_19  and  C_32
    9  A    between atoms: N_29  and  C_32
                            x       y       z     vdW  Elec       q    Type
                         _______ _______ _______ _____ _____    ______ ____

>  <TORSDO>
F 9

$$$$
=
 OpenBabel11072412153D

 38 41  0  0  1  0  0  0  0  0999 V2000
  159.2210  212.3080  152.7460 N   0  0  0  0  0  0  0  0  0  0  0  0
  160.8830  210.2410  151.9510 C   0  0  0  0  0  0  0  0  0  0  0  0
  159.9870  213.6450  150.9350 N   0  0  0  0  0  1  0  0  0  0  0  0
  160.8770  211.4140  151.1510 C   0  0  0  0  0  0  0  0  0  0  0  0
  160.0170  212.5170  151.5640 C   0  0  0  0  0  0  0  0  0  0  0  0
  160.1390  210.0940  153.0040 N   0  0  0  0  0  0  0  0  0  0  0  0
  161.6970  211.1940  150.1300 C   0  0  0  0  0  0  0  0  0  0  0  0
  161.7990  209.3290  151.2990 C   0  0  1  0  0  3  0  0  0  0  0  0
  159.2740  211.1820  153.4170 C   0  0  0  0  0  3  0  0  0  0  0  0
  162.2850  209.8840  150.2270 N   0  0  0  0  0  0  0  0  0  0  0  0
  159.7590  204.4390  151.4450 O   0  0  0  0  0  0  0  0  0  0  0  0
  162.1730  207.9690  151.7860 C   0  0  1  0  0  3  0  0  0  0  0  0
  162.1620  203.9190  151.5350 O   0  0  0  0  0  0  0  0  0  0  0  0
  161.4240  206.2130  150.2620 C   0  0  1  0  0  3  0  0  0  0  0  0
  161.1390  205.0190  151.5580 S   0  0  0  0  0  0  0  0  0  0  0  0
  161.1110  207.4170  152.7610 C   0  0  0  0  0  2  0  0  0  0  0  0
  161.3140  205.9400  153.0670 C   0  0  0  0  0  2  0  0  0  0  0  0
  162.5250  207.0930  150.6510 N   0  0  0  0  0  2  0  0  0  0  0  0
  161.6500  205.5870  148.8840 C   0  0  0  0  0  2  0  0  0  0  0  0
  161.2100  207.7070  147.8950 O   0  0  0  0  0  0  0  0  0  0  0  0
  161.2230  206.4570  147.7460 C   0  0  0  0  0  0  0  0  0  0  0  0
  162.9880  205.0320  145.9280 N   0  0  0  0  0  1  0  0  0  0  0  0
  161.0290  204.6340  144.5060 N   0  0  0  0  0  1  0  0  0  0  0  0
  161.5940  205.1990  145.6810 C   0  0  0  0  0  0  0  0  0  0  0  0
  160.8270  205.8440  146.5090 N   0  0  0  0  0  0  0  0  0  0  0  0
  161.9540  212.1430  149.0120 C   0  0  0  0  0  2  0  0  0  0  0  0
  161.2070  211.6920  147.7680 C   0  0  0  0  0  2  0  0  0  0  0  0
  160.0790  212.5780  147.5130 N   0  0  0  0  0  0  0  0  0  0  0  0
  159.8080  213.1460  146.3700 C   0  0  0  0  0  0  0  0  0  0  0  0
  160.6950  212.9800  145.1880 C   0  0  0  0  0  0  0  0  0  0  0  0
  161.9930  213.5070  145.1850 C   0  0  0  0  0  3  0  0  0  0  0  0
  162.3390  212.6310  142.9690 C   0  0  0  0  0  3  0  0  0  0  0  0
  161.0800  212.1220  142.9820 N   0  0  0  0  0  0  0  0  0  0  0  0
  162.8210  213.3340  144.0740 C   0  0  0  0  0  3  0  0  0  0  0  0
  160.2600  212.2780  144.0550 C   0  0  0  0  0  3  0  0  0  0  0  0
  157.8270  214.3860  147.5060 C   0  0  0  0  0  1  0  0  0  0  0  0
  158.1670  214.3680  145.1630 O   0  0  0  0  0  0  0  0  0  0  0  0
  158.5940  213.9910  146.2890 C   0  0  0  0  0  0  0  0  0  0  0  0
  1  9  1  0  0  0  0
  2  6  1  0  0  0  0
  3  5  1  0  0  0  0
  4  5  1  0  0  0  0
  4  2  2  0  0  0  0
  5  1  2  0  0  0  0
  6  9  2  0  0  0  0
  7 10  2  0  0  0  0
  7  4  1  0  0  0  0
  8 10  1  1  0  0  0
  8 12  1  0  0  0  0
  8  2  1  0  0  0  0
 11 15  2  0  0  0  0
 12 16  1  6  0  0  0
 13 15  2  0  0  0  0
 14 19  1  6  0  0  0
 14 18  1  0  0  0  0
 14 15  1  0  0  0  0
 15 17  1  0  0  0  0
 16 17  1  0  0  0  0
 18 12  1  0  0  0  0
 21 20  2  0  0  0  0
 21 19  1  0  0  0  0
 23 24  1  0  0  0  0
 24 22  1  0  0  0  0
 24 25  2  0  0  0  0
 25 21  1  0  0  0  0
 26  7  1  0  0  0  0
 27 26  1  0  0  0  0
 28 27  1  0  0  0  0
 29 28  2  0  0  0  0
 30 29  1  0  0  0  0
 31 30  1  0  0  0  0
 32 33  2  0  0  0  0
 32 34  1  0  0  0  0
 33 35  1  0  0  0  0
 34 31  2  0  0  0  0
 35 30  2  0  0  0  0
 37 38  2  0  0  0  0
 38 29  1  0  0  0  0
 38 36  1  0  0  0  0
M  END
>  <MODEL>
9

>  <REMARK>
 VINA RESULT:      -6.8      4.123      8.164
  Name = 
  9 active torsions:
  status: ('A' for Active; 'I' for Inactive)
    1  A    between atoms: N_3  and  C_20
    2  A    between atoms: C_4  and  C_7
    3  A    between atoms: C_4  and  C_34
    4  A    between atoms: C_8  and  C_30
    5  A    between atoms: C_15  and  C_20
    6  A    between atoms: C_15  and  C_22
    7  A    between atoms: C_19  and  C_26
    8  A    between atoms: C_19  and  C_32
    9  A    between atoms: N_29  and  C_32
                            x       y       z     vdW  Elec       q    Type
                         _______ _______ _______ _____ _____    ______ ____

>  <TORSDO>
F 9

$$$$
