=
 OpenBabel11072410123D

 43 47  0  0  1  0  0  0  0  0999 V2000
  159.7400  213.1410  155.7940 C   0  0  0  0  0  1  0  0  0  0  0  0
  160.3700  211.1480  152.8590 C   0  0  2  0  0  3  0  0  0  0  0  0
  159.3130  211.9740  154.9180 C   0  0  1  0  0  3  0  0  0  0  0  0
  158.6020  212.4500  153.6890 C   0  0  0  0  0  0  0  0  0  0  0  0
  160.5620  211.2770  154.3730 C   0  0  1  0  0  3  0  0  0  0  0  0
  159.1660  211.9890  152.5760 C   0  0  0  0  0  0  0  0  0  0  0  0
  162.0270  210.3250  156.2090 C   0  0  0  0  0  0  0  0  0  0  0  0
  161.8430  207.9480  156.9530 C   0  0  0  0  0  2  0  0  0  0  0  0
  162.3790  209.2900  157.1270 N   0  0  0  0  0  2  0  0  0  0  0  0
  162.5320  211.4710  156.3310 O   0  0  0  0  0  0  0  0  0  0  0  0
  161.0420  210.0140  155.1110 C   0  0  1  0  0  3  0  0  0  0  0  0
  159.6290  207.1420  156.8950 O   0  0  0  0  0  0  0  0  0  0  0  0
  160.4020  208.0050  156.5210 C   0  0  0  0  0  0  0  0  0  0  0  0
  159.9060  209.1070  155.6210 C   0  0  0  0  0  2  0  0  0  0  0  0
  157.3590  213.2520  153.7360 C   0  0  0  0  0  0  0  0  0  0  0  0
  154.9170  213.4840  154.3180 C   0  0  0  0  0  1  0  0  0  0  0  0
  157.3720  214.4310  153.2860 O   0  0  0  0  0  0  0  0  0  0  0  0
  156.1630  212.7240  154.3240 N   0  0  0  0  0  2  0  0  0  0  0  0
  161.1620  209.0340  151.8330 C   0  0  0  0  0  0  0  0  0  0  0  0
  162.5870  209.4900  151.6640 C   0  0  0  0  0  1  0  0  0  0  0  0
  160.2510  209.7690  152.3890 N   0  0  0  0  0  0  0  0  0  0  0  0
  160.7740  207.6470  151.4160 C   0  0  2  0  0  3  0  0  0  0  0  0
  160.9840  206.7550  152.4690 O   0  0  0  0  0  1  0  0  0  0  0  0
  161.2650  208.1150  149.0150 C   0  0  1  0  0  3  0  0  0  0  0  0
  161.5720  207.2060  150.1950 C   0  0  2  0  0  3  0  0  0  0  0  0
  161.3040  205.8750  148.0780 N   0  0  0  0  0  0  0  0  0  0  0  0
  162.3560  208.0250  147.9720 C   0  0  0  0  0  2  0  0  0  0  0  0
  160.6360  206.7370  149.0760 C   0  0  2  0  0  3  0  0  0  0  0  0
  162.5230  206.5570  147.6530 C   0  0  0  0  0  2  0  0  0  0  0  0
  161.6320  204.5560  148.6650 C   0  0  1  0  0  3  0  0  0  0  0  0
  160.4570  203.9980  149.4610 C   0  0  0  0  0  1  0  0  0  0  0  0
  161.4430  203.7320  145.2970 C   0  0  1  0  0  3  0  0  0  0  0  0
  160.3800  202.3410  145.7940 S   0  0  0  0  0  0  0  0  0  0  0  0
  161.0690  202.3170  147.4620 C   0  0  0  0  0  2  0  0  0  0  0  0
  162.0230  203.4890  147.6230 C   0  0  1  0  0  3  0  0  0  0  0  0
  160.6070  204.9350  144.9050 C   0  0  0  0  0  1  0  0  0  0  0  0
  162.3980  204.0890  146.3450 N   0  0  0  0  0  2  0  0  0  0  0  0
  158.6820  212.2640  151.2910 O   0  0  0  0  0  0  0  0  0  0  0  0
  159.2020  213.3210  150.4960 C   0  0  0  0  0  2  0  0  0  0  0  0
  160.7010  213.1410  150.3330 C   0  0  0  0  0  2  0  0  0  0  0  0
  161.0860  213.1400  148.8560 C   0  0  2  0  0  3  0  0  0  0  0  0
  159.9440  213.2230  148.0460 O   0  0  0  0  0  1  0  0  0  0  0  0
  161.8450  211.8700  148.5310 C   0  0  0  0  0  1  0  0  0  0  0  0
  2 21  1  1  0  0  0
  2  5  1  0  0  0  0
  3  1  1  1  0  0  0
  4 15  1  0  0  0  0
  4  3  1  0  0  0  0
  5  3  1  0  0  0  0
  5 11  1  1  0  0  0
  6  2  1  0  0  0  0
  6  4  2  0  0  0  0
  7 10  2  0  0  0  0
  7  9  1  0  0  0  0
  8  9  1  0  0  0  0
 11 14  1  1  0  0  0
 11  7  1  0  0  0  0
 13 12  2  0  0  0  0
 13  8  1  0  0  0  0
 14 13  1  0  0  0  0
 15 18  1  0  0  0  0
 16 18  1  0  0  0  0
 17 15  2  0  0  0  0
 19 21  2  0  0  0  0
 20 19  1  0  0  0  0
 22 19  1  0  0  0  0
 22 23  1  1  0  0  0
 24 27  1  6  0  0  0
 24 28  1  0  0  0  0
 24 25  1  0  0  0  0
 25 22  1  1  0  0  0
 26 30  1  0  0  0  0
 28 26  1  6  0  0  0
 28 25  1  0  0  0  0
 29 27  1  0  0  0  0
 29 26  1  0  0  0  0
 30 31  1  6  0  0  0
 32 36  1  1  0  0  0
 32 33  1  0  0  0  0
 32 37  1  0  0  0  0
 33 34  1  0  0  0  0
 34 35  1  0  0  0  0
 35 30  1  1  0  0  0
 37 35  1  0  0  0  0
 38  6  1  0  0  0  0
 39 38  1  0  0  0  0
 40 39  1  0  0  0  0
 41 43  1  6  0  0  0
 41 40  1  0  0  0  0
 42 41  1  0  0  0  0
M  END
>  <MODEL>
1

>  <REMARK>
 VINA RESULT:      -6.9      0.000      0.000
  Name = 
  11 active torsions:
  status: ('A' for Active; 'I' for Inactive)
    1  A    between atoms: C_7  and  N_23
    2  A    between atoms: C_8  and  C_37
    3  A    between atoms: C_9  and  C_32
    4  A    between atoms: C_11  and  C_18
    5  A    between atoms: C_11  and  N_26
    6  A    between atoms: C_16  and  C_30
    7  A    between atoms: C_19  and  C_35
    8  A    between atoms: C_24  and  C_30
    9  A    between atoms: C_28  and  C_37
   10  A    between atoms: C_28  and  O_42
   11  A    between atoms: C_39  and  O_42
                            x       y       z     vdW  Elec       q    Type
                         _______ _______ _______ _____ _____    ______ ____

>  <TORSDO>
F 11

$$$$
=
 OpenBabel11072410123D

 43 47  0  0  1  0  0  0  0  0999 V2000
  158.2580  214.4530  152.4360 C   0  0  0  0  0  1  0  0  0  0  0  0
  160.4740  211.6900  151.7730 C   0  0  2  0  0  3  0  0  0  0  0  0
  158.4240  213.0400  151.9000 C   0  0  1  0  0  3  0  0  0  0  0  0
  159.0200  213.0470  150.5260 C   0  0  0  0  0  0  0  0  0  0  0  0
  159.4650  212.3050  152.7480 C   0  0  1  0  0  3  0  0  0  0  0  0
  160.1200  212.3030  150.4560 C   0  0  0  0  0  0  0  0  0  0  0  0
  159.9240  211.2200  154.9920 C   0  0  0  0  0  0  0  0  0  0  0  0
  158.1410  210.0500  156.2900 C   0  0  0  0  0  2  0  0  0  0  0  0
  159.4900  210.5870  156.1950 N   0  0  0  0  0  2  0  0  0  0  0  0
  161.1080  211.6370  154.8950 O   0  0  0  0  0  0  0  0  0  0  0  0
  158.9400  211.3800  153.8620 C   0  0  1  0  0  3  0  0  0  0  0  0
  156.0280  211.0740  156.0650 O   0  0  0  0  0  0  0  0  0  0  0  0
  157.1560  210.9700  155.6180 C   0  0  0  0  0  0  0  0  0  0  0  0
  157.5410  211.7530  154.3890 C   0  0  0  0  0  2  0  0  0  0  0  0
  158.3840  213.7250  149.3750 C   0  0  0  0  0  0  0  0  0  0  0  0
  156.3520  214.2140  147.9640 C   0  0  0  0  0  1  0  0  0  0  0  0
  159.0900  214.4530  148.6240 O   0  0  0  0  0  0  0  0  0  0  0  0
  156.9760  213.6020  149.1330 N   0  0  0  0  0  2  0  0  0  0  0  0
  161.4980  209.4330  151.7100 C   0  0  0  0  0  0  0  0  0  0  0  0
  162.9200  209.9270  151.7490 C   0  0  0  0  0  1  0  0  0  0  0  0
  160.4760  210.2280  151.7620 N   0  0  0  0  0  0  0  0  0  0  0  0
  161.2270  207.9570  151.6860 C   0  0  2  0  0  3  0  0  0  0  0  0
  161.7970  207.3490  152.8060 O   0  0  0  0  0  1  0  0  0  0  0  0
  161.4270  208.1850  149.2100 C   0  0  1  0  0  3  0  0  0  0  0  0
  161.7810  207.3270  150.4140 C   0  0  2  0  0  3  0  0  0  0  0  0
  161.0480  205.9020  148.4770 N   0  0  0  0  0  0  0  0  0  0  0  0
  162.3390  207.8730  148.0440 C   0  0  0  0  0  2  0  0  0  0  0  0
  160.6440  206.9150  149.4740 C   0  0  2  0  0  3  0  0  0  0  0  0
  162.2710  206.3780  147.8360 C   0  0  0  0  0  2  0  0  0  0  0  0
  161.2860  204.5940  149.1290 C   0  0  1  0  0  3  0  0  0  0  0  0
  160.8090  204.6040  150.5780 C   0  0  0  0  0  1  0  0  0  0  0  0
  160.4470  201.2420  149.4700 C   0  0  1  0  0  3  0  0  0  0  0  0
  161.5940  200.9120  148.0960 S   0  0  0  0  0  0  0  0  0  0  0  0
  161.4370  202.5960  147.4650 C   0  0  0  0  0  2  0  0  0  0  0  0
  160.5890  203.4100  148.4290 C   0  0  1  0  0  3  0  0  0  0  0  0
  161.1410  201.0580  150.8060 C   0  0  0  0  0  1  0  0  0  0  0  0
  159.8550  202.5750  149.3770 N   0  0  0  0  0  2  0  0  0  0  0  0
  160.8580  212.1200  149.2790 O   0  0  0  0  0  0  0  0  0  0  0  0
  162.0690  212.8190  149.0280 C   0  0  0  0  0  2  0  0  0  0  0  0
  161.9050  213.6880  147.7950 C   0  0  0  0  0  2  0  0  0  0  0  0
  161.6870  212.8280  146.5530 C   0  0  2  0  0  3  0  0  0  0  0  0
  162.5070  213.2610  145.5000 O   0  0  0  0  0  1  0  0  0  0  0  0
  160.2360  212.9080  146.1280 C   0  0  0  0  0  1  0  0  0  0  0  0
  2 21  1  6  0  0  0
  2  5  1  0  0  0  0
  3  1  1  1  0  0  0
  3  5  1  0  0  0  0
  4  3  1  0  0  0  0
  5 11  1  6  0  0  0
  6  4  2  0  0  0  0
  6  2  1  0  0  0  0
  7  9  1  0  0  0  0
  9  8  1  0  0  0  0
 10  7  2  0  0  0  0
 11 14  1  1  0  0  0
 11  7  1  0  0  0  0
 13 12  2  0  0  0  0
 13  8  1  0  0  0  0
 14 13  1  0  0  0  0
 15  4  1  0  0  0  0
 16 18  1  0  0  0  0
 17 15  2  0  0  0  0
 18 15  1  0  0  0  0
 19 20  1  0  0  0  0
 19 21  2  0  0  0  0
 22 19  1  0  0  0  0
 22 23  1  1  0  0  0
 24 27  1  6  0  0  0
 24 28  1  0  0  0  0
 24 25  1  0  0  0  0
 25 22  1  1  0  0  0
 26 30  1  0  0  0  0
 28 26  1  6  0  0  0
 28 25  1  0  0  0  0
 29 27  1  0  0  0  0
 29 26  1  0  0  0  0
 30 31  1  1  0  0  0
 32 36  1  1  0  0  0
 33 32  1  0  0  0  0
 34 33  1  0  0  0  0
 34 35  1  0  0  0  0
 35 30  1  1  0  0  0
 35 37  1  0  0  0  0
 37 32  1  0  0  0  0
 38  6  1  0  0  0  0
 39 38  1  0  0  0  0
 40 39  1  0  0  0  0
 41 43  1  6  0  0  0
 41 40  1  0  0  0  0
 42 41  1  0  0  0  0
M  END
>  <MODEL>
2

>  <REMARK>
 VINA RESULT:      -4.7      2.146      3.207
  Name = 
  11 active torsions:
  status: ('A' for Active; 'I' for Inactive)
    1  A    between atoms: C_7  and  N_23
    2  A    between atoms: C_8  and  C_37
    3  A    between atoms: C_9  and  C_32
    4  A    between atoms: C_11  and  C_18
    5  A    between atoms: C_11  and  N_26
    6  A    between atoms: C_16  and  C_30
    7  A    between atoms: C_19  and  C_35
    8  A    between atoms: C_24  and  C_30
    9  A    between atoms: C_28  and  C_37
   10  A    between atoms: C_28  and  O_42
   11  A    between atoms: C_39  and  O_42
                            x       y       z     vdW  Elec       q    Type
                         _______ _______ _______ _____ _____    ______ ____

>  <TORSDO>
F 11

$$$$
