=
 OpenBabel11072410053D

 55 57  0  0  1  0  0  0  0  0999 V2000
  161.4410  210.8150  150.0380 C   0  0  0  0  0  0  0  0  0  0  0  0
  161.6000  205.1560  149.4240 C   0  0  2  0  0  3  0  0  0  0  0  0
  159.5560  206.9170  156.3720 F   0  0  0  0  0  0  0  0  0  0  0  0
  160.0230  210.3160  153.1990 O   0  0  0  0  0  0  0  0  0  0  0  0
  160.6020  205.4590  154.1770 C   0  0  0  0  0  2  0  0  0  0  0  0
  159.2230  209.2630  155.2100 C   0  0  0  0  0  2  0  0  0  0  0  0
  161.1540  206.9870  147.6690 C   0  0  0  0  0  2  0  0  0  0  0  0
  161.0510  205.8200  151.7530 N   0  0  0  0  0  0  0  0  0  0  0  0
  160.4920  208.9140  155.7060 O   0  0  0  0  0  0  0  0  0  0  0  0
  160.2770  205.0700  152.7340 C   0  0  0  0  0  2  0  0  0  0  0  0
  160.5740  205.7650  150.3790 C   0  0  0  0  0  2  0  0  0  0  0  0
  161.9390  207.4340  153.5270 C   0  0  0  0  0  2  0  0  0  0  0  0
  161.5580  209.3770  149.6260 C   0  0  0  0  0  2  0  0  0  0  0  0
  159.3220  210.5500  154.4110 C   0  0  0  0  0  2  0  0  0  0  0  0
  161.7830  207.1690  156.3580 F   0  0  0  0  0  0  0  0  0  0  0  0
  160.6840  206.9750  154.2550 C   0  0  2  0  0  3  0  0  0  0  0  0
  160.5180  211.3570  152.4110 C   0  0  0  0  0  0  0  0  0  0  0  0
  161.2200  205.4820  147.9660 C   0  0  1  0  0  3  0  0  0  0  0  0
  162.4500  207.7050  148.0180 C   0  0  0  0  0  2  0  0  0  0  0  0
  161.9740  206.8550  152.1430 C   0  0  0  0  0  0  0  0  0  0  0  0
  162.1970  209.1820  148.2550 C   0  0  0  0  0  2  0  0  0  0  0  0
  160.9730  211.0890  151.2230 C   0  0  0  0  0  0  0  0  0  0  0  0
  160.6180  207.5070  155.6940 C   0  0  0  0  0  0  0  0  0  0  0  0
  162.8360  207.2730  151.3280 O   0  0  0  0  0  0  0  0  0  0  0  0
  161.8640  211.9360  149.1300 C   0  0  0  0  0  2  0  0  0  0  0  0
  161.9280  212.6500  146.2570 C   0  0  0  0  0  1  0  0  0  0  0  0
  160.7120  212.6370  148.4810 C   0  0  0  0  0  0  0  0  0  0  0  0
  158.4520  213.5250  148.6270 C   0  0  0  0  0  3  0  0  0  0  0  0
  160.7310  212.9480  147.1100 C   0  0  0  0  0  0  0  0  0  0  0  0
  158.4710  213.8450  147.2720 C   0  0  0  0  0  0  0  0  0  0  0  0
  159.6130  213.5460  146.5150 C   0  0  0  0  0  3  0  0  0  0  0  0
  159.5620  212.9190  149.2260 C   0  0  0  0  0  3  0  0  0  0  0  0
  156.6890  213.9300  145.5570 C   0  0  0  0  0  1  0  0  0  0  0  0
  157.3560  214.4530  146.6970 O   0  0  0  0  0  0  0  0  0  0  0  0
  160.5740  212.7710  152.9070 C   0  0  0  0  0  2  0  0  0  0  0  0
  159.1760  213.3100  153.1650 C   0  0  0  0  0  2  0  0  0  0  0  0
  158.3300  213.0210  152.0910 O   0  0  0  0  0  0  0  0  0  0  0  0
  157.1410  213.6840  152.4000 C   0  0  0  0  0  2  0  0  0  0  0  0
  157.0690  213.9260  153.8970 C   0  0  0  0  0  2  0  0  0  0  0  0
  154.6440  214.2850  153.5710 C   0  0  0  0  0  1  0  0  0  0  0  0
  155.6880  213.5600  154.3990 C   0  0  0  0  0  2  0  0  0  0  0  0
  161.7790  203.7140  149.6530 N   0  0  0  0  0  2  0  0  0  0  0  0
  160.4910  203.0290  149.7780 C   0  0  0  0  0  2  0  0  0  0  0  0
  161.5490  200.9510  148.9210 C   0  0  0  0  0  1  0  0  0  0  0  0
  160.6980  201.5490  150.0320 C   0  0  2  0  0  3  0  0  0  0  0  0
  159.4620  200.8950  150.0820 O   0  0  0  0  0  1  0  0  0  0  0  0
  161.9260  204.6270  146.9020 C   0  0  2  0  0  3  0  0  0  0  0  0
  163.9130  204.2860  145.5620 O   0  0  0  0  0  1  0  0  0  0  0  0
  163.4150  204.9300  146.6970 C   0  0  0  0  0  2  0  0  0  0  0  0
  161.1490  204.5730  145.5860 C   0  0  0  0  0  2  0  0  0  0  0  0
  161.2230  203.2820  145.0390 O   0  0  0  0  0  0  0  0  0  0  0  0
  159.9070  202.9170  144.7830 C   0  0  0  0  0  2  0  0  0  0  0  0
  159.7820  201.4060  144.8790 C   0  0  0  0  0  2  0  0  0  0  0  0
  161.0910  199.4380  145.6140 C   0  0  0  0  0  1  0  0  0  0  0  0
  160.7260  200.8720  145.9460 C   0  0  0  0  0  2  0  0  0  0  0  0
  1 22  2  0  0  0  0
  2 42  1  6  0  0  0
  2 11  1  0  0  0  0
  4 14  1  0  0  0  0
  5 16  1  0  0  0  0
  6  9  1  0  0  0  0
  7 18  1  0  0  0  0
  7 19  1  0  0  0  0
  8 20  1  0  0  0  0
  8 10  1  0  0  0  0
 10  5  1  0  0  0  0
 11  8  1  0  0  0  0
 13  1  1  0  0  0  0
 14  6  1  0  0  0  0
 16 12  1  1  0  0  0
 16 23  1  0  0  0  0
 17 35  1  0  0  0  0
 17  4  1  0  0  0  0
 18 47  1  6  0  0  0
 18  2  1  0  0  0  0
 19 21  1  0  0  0  0
 20 12  1  0  0  0  0
 21 13  1  0  0  0  0
 22 17  2  0  0  0  0
 23  9  1  0  0  0  0
 23 15  1  0  0  0  0
 23  3  1  0  0  0  0
 24 20  2  0  0  0  0
 25  1  1  0  0  0  0
 26 29  1  0  0  0  0
 27 25  1  0  0  0  0
 27 32  1  0  0  0  0
 28 32  2  0  0  0  0
 29 27  2  0  0  0  0
 30 28  1  0  0  0  0
 31 29  1  0  0  0  0
 31 30  2  0  0  0  0
 33 34  1  0  0  0  0
 34 30  1  0  0  0  0
 35 36  1  0  0  0  0
 37 38  1  0  0  0  0
 37 36  1  0  0  0  0
 38 39  1  0  0  0  0
 39 41  1  0  0  0  0
 40 41  1  0  0  0  0
 42 43  1  0  0  0  0
 43 45  1  0  0  0  0
 45 44  1  6  0  0  0
 45 46  1  0  0  0  0
 47 50  1  6  0  0  0
 48 49  1  0  0  0  0
 49 47  1  0  0  0  0
 51 50  1  0  0  0  0
 52 53  1  0  0  0  0
 52 51  1  0  0  0  0
 53 55  1  0  0  0  0
 54 55  1  0  0  0  0
M  END
>  <MODEL>
1

>  <REMARK>
 VINA RESULT:      -3.8      0.000      0.000
  Name = 
  19 active torsions:
  status: ('A' for Active; 'I' for Inactive)
    1  A    between atoms: C_3  and  C_45
    2  A    between atoms: C_5  and  C_45
    3  A    between atoms: C_7  and  N_33
    4  A    between atoms: C_11  and  C_12
    5  A    between atoms: C_11  and  C_14
    6  A    between atoms: C_12  and  O_40
    7  A    between atoms: C_23  and  C_37
    8  A    between atoms: C_23  and  O_40
    9  A    between atoms: C_27  and  C_31
   10  A    between atoms: C_27  and  O_36
   11  A    between atoms: C_28  and  C_43
   12  A    between atoms: C_28  and  C_44
   13  A    between atoms: C_28  and  C_47
   14  A    between atoms: C_29  and  C_31
   15  A    between atoms: C_30  and  N_33
   16  A    between atoms: C_30  and  C_42
   17  A    between atoms: C_32  and  O_46
   18  A    between atoms: O_36  and  C_44
   19  A    between atoms: C_37  and  C_41
                            x       y       z     vdW  Elec       q    Type
                         _______ _______ _______ _____ _____    ______ ____

>  <TORSDO>
F 19

$$$$
=
 OpenBabel11072410053D

 55 57  0  0  1  0  0  0  0  0999 V2000
  162.1100  208.0570  151.1790 C   0  0  0  0  0  0  0  0  0  0  0  0
  160.5580  213.1950  149.2760 C   0  0  2  0  0  3  0  0  0  0  0  0
  158.6090  212.4210  156.4290 F   0  0  0  0  0  0  0  0  0  0  0  0
  161.1780  209.0920  154.3910 O   0  0  0  0  0  0  0  0  0  0  0  0
  158.6390  213.3370  153.7460 C   0  0  0  0  0  2  0  0  0  0  0  0
  160.2750  210.3870  156.2080 C   0  0  0  0  0  2  0  0  0  0  0  0
  162.4910  211.6750  148.5120 C   0  0  0  0  0  2  0  0  0  0  0  0
  159.8250  212.8140  151.6180 N   0  0  0  0  0  0  0  0  0  0  0  0
  158.9250  210.2120  155.8540 O   0  0  0  0  0  0  0  0  0  0  0  0
  159.5980  213.8130  152.6550 C   0  0  0  0  0  2  0  0  0  0  0  0
  160.9640  213.0430  150.7420 C   0  0  0  0  0  2  0  0  0  0  0  0
  158.6390  210.9920  152.9650 C   0  0  0  0  0  2  0  0  0  0  0  0
  161.8080  209.3310  150.4470 C   0  0  0  0  0  2  0  0  0  0  0  0
  161.0730  209.1600  155.8040 C   0  0  0  0  0  2  0  0  0  0  0  0
  157.0270  211.3140  155.2910 F   0  0  0  0  0  0  0  0  0  0  0  0
  159.0120  211.9110  154.1190 C   0  0  2  0  0  3  0  0  0  0  0  0
  161.5940  207.9350  153.7280 C   0  0  0  0  0  0  0  0  0  0  0  0
  161.7930  213.0350  148.3690 C   0  0  1  0  0  3  0  0  0  0  0  0
  161.5440  210.5080  148.2740 C   0  0  0  0  0  2  0  0  0  0  0  0
  159.2340  211.5020  151.6860 C   0  0  0  0  0  0  0  0  0  0  0  0
  162.0630  209.2500  148.9460 C   0  0  0  0  0  2  0  0  0  0  0  0
  161.8590  207.9960  152.4570 C   0  0  0  0  0  0  0  0  0  0  0  0
  158.3930  211.4570  155.4490 C   0  0  0  0  0  0  0  0  0  0  0  0
  159.1940  210.7740  150.6610 O   0  0  0  0  0  0  0  0  0  0  0  0
  162.6760  206.8550  150.4770 C   0  0  0  0  0  2  0  0  0  0  0  0
  159.7990  206.1980  150.2340 C   0  0  0  0  0  1  0  0  0  0  0  0
  162.0490  206.6020  149.1410 C   0  0  0  0  0  0  0  0  0  0  0  0
  162.2420  206.5470  146.7170 C   0  0  0  0  0  3  0  0  0  0  0  0
  160.6770  206.3210  149.0250 C   0  0  0  0  0  0  0  0  0  0  0  0
  160.8850  206.2560  146.5980 C   0  0  0  0  0  0  0  0  0  0  0  0
  160.1040  206.1530  147.7580 C   0  0  0  0  0  3  0  0  0  0  0  0
  162.8190  206.7250  147.9790 C   0  0  0  0  0  3  0  0  0  0  0  0
  160.4670  204.8740  144.5890 C   0  0  0  0  0  1  0  0  0  0  0  0
  160.3320  206.0770  145.3310 O   0  0  0  0  0  0  0  0  0  0  0  0
  161.7110  206.6160  154.4310 C   0  0  0  0  0  2  0  0  0  0  0  0
  162.1690  205.5300  153.4700 C   0  0  0  0  0  2  0  0  0  0  0  0
  161.0720  204.8450  152.9420 O   0  0  0  0  0  0  0  0  0  0  0  0
  161.6390  203.8640  152.1250 C   0  0  0  0  0  2  0  0  0  0  0  0
  160.5980  202.8080  151.8020 C   0  0  0  0  0  2  0  0  0  0  0  0
  160.9450  202.8300  149.3530 C   0  0  0  0  0  1  0  0  0  0  0  0
  161.0630  201.9920  150.6120 C   0  0  0  0  0  2  0  0  0  0  0  0
  159.8340  214.4520  149.0320 N   0  0  0  0  0  2  0  0  0  0  0  0
  158.5700  214.2140  148.3350 C   0  0  0  0  0  2  0  0  0  0  0  0
  156.8360  212.4450  148.1480 C   0  0  0  0  0  1  0  0  0  0  0  0
  157.7120  213.2330  149.1100 C   0  0  2  0  0  3  0  0  0  0  0  0
  156.9060  213.9210  150.0230 O   0  0  0  0  0  1  0  0  0  0  0  0
  161.6120  213.5370  146.9280 C   0  0  2  0  0  3  0  0  0  0  0  0
  159.5510  213.7380  145.6750 O   0  0  0  0  0  1  0  0  0  0  0  0
  160.5160  212.8320  146.1180 C   0  0  0  0  0  2  0  0  0  0  0  0
  162.9370  213.6300  146.1710 C   0  0  0  0  0  2  0  0  0  0  0  0
  162.7600  214.3580  144.9830 O   0  0  0  0  0  0  0  0  0  0  0  0
  163.5030  213.6800  144.0230 C   0  0  0  0  0  2  0  0  0  0  0  0
  162.5580  212.9570  143.0810 C   0  0  0  0  0  2  0  0  0  0  0  0
  160.2550  213.0120  142.1750 C   0  0  0  0  0  1  0  0  0  0  0  0
  161.3880  213.8600  142.7200 C   0  0  0  0  0  2  0  0  0  0  0  0
  1 22  2  0  0  0  0
  2 42  1  1  0  0  0
  2 11  1  0  0  0  0
  4 14  1  0  0  0  0
  5 16  1  0  0  0  0
  8 20  1  0  0  0  0
  8 10  1  0  0  0  0
  9  6  1  0  0  0  0
 10  5  1  0  0  0  0
 11  8  1  0  0  0  0
 13  1  1  0  0  0  0
 14  6  1  0  0  0  0
 15 23  1  0  0  0  0
 16 12  1  6  0  0  0
 16 23  1  0  0  0  0
 17  4  1  0  0  0  0
 17 35  1  0  0  0  0
 18 47  1  6  0  0  0
 18  7  1  0  0  0  0
 18  2  1  0  0  0  0
 19  7  1  0  0  0  0
 19 21  1  0  0  0  0
 20 12  1  0  0  0  0
 21 13  1  0  0  0  0
 22 17  2  0  0  0  0
 23  9  1  0  0  0  0
 23  3  1  0  0  0  0
 24 20  2  0  0  0  0
 25  1  1  0  0  0  0
 27 25  1  0  0  0  0
 28 32  1  0  0  0  0
 29 27  1  0  0  0  0
 29 26  1  0  0  0  0
 30 28  2  0  0  0  0
 30 31  1  0  0  0  0
 31 29  2  0  0  0  0
 32 27  2  0  0  0  0
 33 34  1  0  0  0  0
 34 30  1  0  0  0  0
 36 35  1  0  0  0  0
 37 36  1  0  0  0  0
 38 37  1  0  0  0  0
 39 38  1  0  0  0  0
 40 41  1  0  0  0  0
 41 39  1  0  0  0  0
 43 42  1  0  0  0  0
 43 45  1  0  0  0  0
 45 44  1  6  0  0  0
 45 46  1  0  0  0  0
 47 49  1  6  0  0  0
 48 49  1  0  0  0  0
 50 47  1  0  0  0  0
 51 50  1  0  0  0  0
 52 51  1  0  0  0  0
 53 52  1  0  0  0  0
 54 55  1  0  0  0  0
 55 53  1  0  0  0  0
M  END
>  <MODEL>
2

>  <REMARK>
 VINA RESULT:      -1.9      2.856      8.428
  Name = 
  19 active torsions:
  status: ('A' for Active; 'I' for Inactive)
    1  A    between atoms: C_3  and  C_45
    2  A    between atoms: C_5  and  C_45
    3  A    between atoms: C_7  and  N_33
    4  A    between atoms: C_11  and  C_12
    5  A    between atoms: C_11  and  C_14
    6  A    between atoms: C_12  and  O_40
    7  A    between atoms: C_23  and  C_37
    8  A    between atoms: C_23  and  O_40
    9  A    between atoms: C_27  and  C_31
   10  A    between atoms: C_27  and  O_36
   11  A    between atoms: C_28  and  C_43
   12  A    between atoms: C_28  and  C_44
   13  A    between atoms: C_28  and  C_47
   14  A    between atoms: C_29  and  C_31
   15  A    between atoms: C_30  and  N_33
   16  A    between atoms: C_30  and  C_42
   17  A    between atoms: C_32  and  O_46
   18  A    between atoms: O_36  and  C_44
   19  A    between atoms: C_37  and  C_41
                            x       y       z     vdW  Elec       q    Type
                         _______ _______ _______ _____ _____    ______ ____

>  <TORSDO>
F 19

$$$$
