=
 OpenBabel11072410073D

 43 49  0  0  1  0  0  0  0  0999 V2000
  161.5180  211.3220  147.5170 C   0  0  0  0  0  1  0  0  0  0  0  0
  160.0220  211.7790  152.3310 C   0  0  0  0  0  3  0  0  0  0  0  0
  159.7900  211.4380  155.2210 C   0  0  2  0  0  0  0  0  0  0  0  0
  159.6230  212.7850  153.1070 C   0  0  0  0  0  0  0  0  0  0  0  0
  161.6970  209.5330  153.4130 C   0  0  0  0  0  2  0  0  0  0  0  0
  161.0590  209.0280  152.1140 C   0  0  0  0  0  2  0  0  0  0  0  0
  160.6340  212.1190  151.0360 C   0  0  2  0  0  3  0  0  0  0  0  0
  160.6910  207.6510  154.7340 C   0  0  0  0  0  1  0  0  0  0  0  0
  160.9720  211.8380  156.0850 C   0  0  0  0  0  2  0  0  0  0  0  0
  160.5370  214.0430  148.1410 O   0  0  0  0  0  0  0  0  0  0  0  0
  159.5580  209.9540  154.8710 C   0  0  2  0  0  3  0  0  0  0  0  0
  158.8470  209.4230  156.1040 C   0  0  0  0  0  2  0  0  0  0  0  0
  160.5720  213.1410  149.0220 C   0  0  0  0  0  0  0  0  0  0  0  0
  162.2540  210.3450  150.4590 C   0  0  0  0  0  2  0  0  0  0  0  0
  160.0640  214.4530  151.2080 C   0  0  0  0  0  2  0  0  0  0  0  0
  159.8870  213.2160  150.3320 C   0  0  2  0  0  3  0  0  0  0  0  0
  160.8840  209.1640  154.6620 C   0  0  2  0  0  3  0  0  0  0  0  0
  159.5920  214.1330  152.5730 N   0  0  0  0  0  2  0  0  0  0  0  0
  162.0380  208.9920  151.0180 N   0  0  2  0  0  0  0  0  0  0  0  0
  161.1820  211.8650  148.8230 N   0  0  0  0  0  0  0  0  0  0  0  0
  159.1350  212.4990  154.4240 N   0  0  0  0  0  0  0  0  0  0  0  0
  159.4040  210.2310  157.2610 C   0  0  0  0  0  2  0  0  0  0  0  0
  159.6050  211.6310  156.7210 C   0  0  2  0  0  3  0  0  0  0  0  0
  160.9650  211.0520  150.0160 C   0  0  2  0  0  3  0  0  0  0  0  0
  162.3520  208.1360  148.7700 N   0  0  0  0  0  0  0  0  0  0  0  0
  160.2640  205.9520  148.4200 C   0  0  0  0  0  3  0  0  0  0  0  0
  161.5360  208.0710  149.9800 C   0  0  1  0  0  3  0  0  0  0  0  0
  162.0010  207.5870  147.6480 C   0  0  0  0  0  3  0  0  0  0  0  0
  161.4550  206.6310  150.4440 C   0  0  0  0  0  0  0  0  0  0  0  0
  160.8130  205.7500  149.7320 N   0  0  0  0  0  0  0  0  0  0  0  0
  160.7880  206.7580  147.4860 C   0  0  0  0  0  3  0  0  0  0  0  0
  162.0240  206.1970  151.7640 C   0  0  2  0  0  3  0  0  0  0  0  0
  162.4080  204.8440  151.6870 O   0  0  0  0  0  0  0  0  0  0  0  0
  161.2070  205.1160  152.3620 C   0  0  0  0  0  2  0  0  0  0  0  0
  157.8060  213.9240  155.8220 C   0  0  0  0  0  2  0  0  0  0  0  0
  157.8650  213.0560  154.8180 C   0  0  0  0  0  0  0  0  0  0  0  0
  156.6780  212.9560  153.9100 C   0  0  0  0  0  2  0  0  0  0  0  0
  156.4520  214.1740  153.2660 O   0  0  0  0  0  0  0  0  0  0  0  0
  155.2900  213.9740  152.5150 C   0  0  0  0  0  2  0  0  0  0  0  0
  155.5580  214.2820  151.0810 C   0  0  0  0  0  0  0  0  0  0  0  0
  156.7040  214.4530  150.6960 O   0  0  0  0  0  0  0  0  0  0  0  0
  154.8870  214.3360  148.8110 O   0  0  0  0  0  1  0  0  0  0  0  0
  154.4190  214.4150  150.1270 C   0  0  0  0  0  2  0  0  0  0  0  0
  1 20  1  0  0  0  0
  2  4  2  0  0  0  0
  3  9  1  6  0  0  0
  3 23  1  0  0  0  0
  4 21  1  0  0  0  0
  5 17  1  0  0  0  0
  6  5  1  0  0  0  0
  7  2  1  1  0  0  0
 10 13  2  0  0  0  0
 11  3  1  0  0  0  0
 11 12  1  1  0  0  0
 12 22  1  0  0  0  0
 13 16  1  0  0  0  0
 15 18  1  0  0  0  0
 16  7  1  0  0  0  0
 16 15  1  1  0  0  0
 17  8  1  6  0  0  0
 17 11  1  0  0  0  0
 18  4  1  0  0  0  0
 19 14  1  6  0  0  0
 19  6  1  0  0  0  0
 20 13  1  0  0  0  0
 20 24  1  0  0  0  0
 21 36  1  0  0  0  0
 21  3  1  0  0  0  0
 23  9  1  1  0  0  0
 23 22  1  0  0  0  0
 24 14  1  1  0  0  0
 24  7  1  0  0  0  0
 26 30  1  0  0  0  0
 27 25  1  6  0  0  0
 27 29  1  0  0  0  0
 27 19  1  0  0  0  0
 28 25  2  0  0  0  0
 30 29  2  0  0  0  0
 31 28  1  0  0  0  0
 31 26  2  0  0  0  0
 32 29  1  6  0  0  0
 32 34  1  0  0  0  0
 33 32  1  0  0  0  0
 33 34  1  0  0  0  0
 36 35  2  0  0  0  0
 37 36  1  0  0  0  0
 38 37  1  0  0  0  0
 39 38  1  0  0  0  0
 40 39  1  0  0  0  0
 41 40  2  0  0  0  0
 42 43  1  0  0  0  0
 43 40  1  0  0  0  0
M  END
>  <MODEL>
1

>  <REMARK>
 VINA RESULT:      -4.6      0.000      0.000
  Name = 
  8 active torsions:
  status: ('A' for Active; 'I' for Inactive)
    1  A    between atoms: C_1  and  C_31
    2  A    between atoms: C_13  and  N_37
    3  A    between atoms: C_19  and  C_30
    4  A    between atoms: C_19  and  N_40
    5  A    between atoms: C_21  and  C_33
    6  A    between atoms: C_21  and  C_34
    7  A    between atoms: O_27  and  C_30
    8  A    between atoms: O_27  and  C_33
                            x       y       z     vdW  Elec       q    Type
                         _______ _______ _______ _____ _____    ______ ____

>  <TORSDO>
F 8

$$$$
=
 OpenBabel11072410073D

 43 49  0  0  1  0  0  0  0  0999 V2000
  161.7530  211.1800  147.5330 C   0  0  0  0  0  1  0  0  0  0  0  0
  160.1550  211.8170  152.2930 C   0  0  0  0  0  3  0  0  0  0  0  0
  159.8580  211.5820  155.1880 C   0  0  2  0  0  0  0  0  0  0  0  0
  159.7440  212.8520  153.0240 C   0  0  0  0  0  0  0  0  0  0  0  0
  161.7930  209.6030  153.4920 C   0  0  0  0  0  2  0  0  0  0  0  0
  161.1810  209.0550  152.1980 C   0  0  0  0  0  2  0  0  0  0  0  0
  160.7960  212.1070  151.0010 C   0  0  2  0  0  3  0  0  0  0  0  0
  160.7470  207.7750  154.8570 C   0  0  0  0  0  1  0  0  0  0  0  0
  161.0220  212.0070  156.0630 C   0  0  0  0  0  2  0  0  0  0  0  0
  160.7740  213.9260  148.0380 O   0  0  0  0  0  0  0  0  0  0  0  0
  159.6250  210.0870  154.8860 C   0  0  2  0  0  3  0  0  0  0  0  0
  158.8840  209.6040  156.1220 C   0  0  0  0  0  2  0  0  0  0  0  0
  160.7850  213.0570  148.9510 C   0  0  0  0  0  0  0  0  0  0  0  0
  162.4190  210.3060  150.5240 C   0  0  0  0  0  2  0  0  0  0  0  0
  160.2360  214.4490  151.0770 C   0  0  0  0  0  2  0  0  0  0  0  0
  160.0710  213.1810  150.2410 C   0  0  2  0  0  3  0  0  0  0  0  0
  160.9500  209.2830  154.7350 C   0  0  2  0  0  3  0  0  0  0  0  0
  159.7330  214.1800  152.4410 N   0  0  0  0  0  2  0  0  0  0  0  0
  162.1830  208.9750  151.1260 N   0  0  2  0  0  0  0  0  0  0  0  0
  161.3920  211.7720  148.8110 N   0  0  0  0  0  0  0  0  0  0  0  0
  159.2260  212.6160  154.3390 N   0  0  0  0  0  0  0  0  0  0  0  0
  159.4200  210.4500  157.2610 C   0  0  0  0  0  2  0  0  0  0  0  0
  159.6400  211.8290  156.6760 C   0  0  2  0  0  3  0  0  0  0  0  0
  161.1450  211.0030  150.0270 C   0  0  2  0  0  3  0  0  0  0  0  0
  162.3820  208.2090  148.8330 N   0  0  0  0  0  0  0  0  0  0  0  0
  160.5480  205.7910  148.6100 C   0  0  0  0  0  3  0  0  0  0  0  0
  161.6990  208.0190  150.1110 C   0  0  1  0  0  3  0  0  0  0  0  0
  161.9930  207.6420  147.7320 C   0  0  0  0  0  3  0  0  0  0  0  0
  161.8380  206.5720  150.5350 C   0  0  0  0  0  0  0  0  0  0  0  0
  161.2420  205.6330  149.8590 N   0  0  0  0  0  0  0  0  0  0  0  0
  160.8800  206.6740  147.6570 C   0  0  0  0  0  3  0  0  0  0  0  0
  162.5790  206.1860  151.7830 C   0  0  2  0  0  3  0  0  0  0  0  0
  162.4080  204.8080  152.0230 O   0  0  0  0  0  0  0  0  0  0  0  0
  161.6460  205.6810  152.8170 C   0  0  0  0  0  2  0  0  0  0  0  0
  157.9010  214.3770  155.2830 C   0  0  0  0  0  2  0  0  0  0  0  0
  157.9500  213.1930  154.6850 C   0  0  0  0  0  0  0  0  0  0  0  0
  156.6890  212.6630  154.0770 C   0  0  0  0  0  2  0  0  0  0  0  0
  155.7070  212.4950  155.0560 O   0  0  0  0  0  0  0  0  0  0  0  0
  156.1840  211.4650  155.8710 C   0  0  0  0  0  2  0  0  0  0  0  0
  155.1180  210.4410  156.0670 C   0  0  0  0  0  0  0  0  0  0  0  0
  154.9600  209.5570  155.2380 O   0  0  0  0  0  0  0  0  0  0  0  0
  153.1440  209.6440  157.1030 O   0  0  0  0  0  1  0  0  0  0  0  0
  154.2240  210.5210  157.2580 C   0  0  0  0  0  2  0  0  0  0  0  0
  1 20  1  0  0  0  0
  2  4  2  0  0  0  0
  3  9  1  6  0  0  0
  3 23  1  0  0  0  0
  4 21  1  0  0  0  0
  5 17  1  0  0  0  0
  6  5  1  0  0  0  0
  7  2  1  1  0  0  0
 10 13  2  0  0  0  0
 11  3  1  0  0  0  0
 11 12  1  1  0  0  0
 12 22  1  0  0  0  0
 13 16  1  0  0  0  0
 15 18  1  0  0  0  0
 16  7  1  0  0  0  0
 16 15  1  1  0  0  0
 17  8  1  6  0  0  0
 17 11  1  0  0  0  0
 18  4  1  0  0  0  0
 19 14  1  6  0  0  0
 19  6  1  0  0  0  0
 20 13  1  0  0  0  0
 20 24  1  0  0  0  0
 21 36  1  0  0  0  0
 21  3  1  0  0  0  0
 23  9  1  1  0  0  0
 23 22  1  0  0  0  0
 24 14  1  1  0  0  0
 24  7  1  0  0  0  0
 26 30  1  0  0  0  0
 27 25  1  6  0  0  0
 27 29  1  0  0  0  0
 27 19  1  0  0  0  0
 28 25  2  0  0  0  0
 30 29  2  0  0  0  0
 31 28  1  0  0  0  0
 31 26  2  0  0  0  0
 32 29  1  6  0  0  0
 32 33  1  0  0  0  0
 32 34  1  0  0  0  0
 33 34  1  0  0  0  0
 36 35  2  0  0  0  0
 37 36  1  0  0  0  0
 37 38  1  0  0  0  0
 38 39  1  0  0  0  0
 39 40  1  0  0  0  0
 40 43  1  0  0  0  0
 41 40  2  0  0  0  0
 42 43  1  0  0  0  0
M  END
>  <MODEL>
2

>  <REMARK>
 VINA RESULT:      -4.5      1.715      2.532
  Name = 
  8 active torsions:
  status: ('A' for Active; 'I' for Inactive)
    1  A    between atoms: C_1  and  C_31
    2  A    between atoms: C_13  and  N_37
    3  A    between atoms: C_19  and  C_30
    4  A    between atoms: C_19  and  N_40
    5  A    between atoms: C_21  and  C_33
    6  A    between atoms: C_21  and  C_34
    7  A    between atoms: O_27  and  C_30
    8  A    between atoms: O_27  and  C_33
                            x       y       z     vdW  Elec       q    Type
                         _______ _______ _______ _____ _____    ______ ____

>  <TORSDO>
F 8

$$$$
=
 OpenBabel11072410073D

 43 49  0  0  1  0  0  0  0  0999 V2000
  159.5200  210.7820  156.2800 C   0  0  0  0  0  1  0  0  0  0  0  0
  160.9310  207.7830  152.4550 C   0  0  0  0  0  3  0  0  0  0  0  0
  162.1110  206.8040  149.9700 C   0  0  2  0  0  0  0  0  0  0  0  0
  161.3330  206.5180  152.3420 C   0  0  0  0  0  0  0  0  0  0  0  0
  162.0930  209.9570  150.7400 C   0  0  0  0  0  2  0  0  0  0  0  0
  160.7590  210.4820  151.2820 C   0  0  0  0  0  2  0  0  0  0  0  0
  160.8680  208.3590  153.8070 C   0  0  2  0  0  3  0  0  0  0  0  0
  161.3580  210.3050  148.3660 C   0  0  0  0  0  1  0  0  0  0  0  0
  163.6220  206.8210  149.8420 C   0  0  0  0  0  2  0  0  0  0  0  0
  159.9340  207.9800  157.1360 O   0  0  0  0  0  0  0  0  0  0  0  0
  161.2680  207.9170  149.3140 C   0  0  2  0  0  3  0  0  0  0  0  0
  161.1590  207.4520  147.8720 C   0  0  0  0  0  2  0  0  0  0  0  0
  160.1210  208.3350  155.9400 C   0  0  0  0  0  0  0  0  0  0  0  0
  161.2930  210.7870  153.6320 C   0  0  0  0  0  2  0  0  0  0  0  0
  161.2540  206.2430  154.8920 C   0  0  0  0  0  2  0  0  0  0  0  0
  160.2670  207.4040  154.7990 C   0  0  2  0  0  3  0  0  0  0  0  0
  161.9630  209.3100  149.3540 C   0  0  2  0  0  3  0  0  0  0  0  0
  161.4710  205.7010  153.5320 N   0  0  0  0  0  2  0  0  0  0  0  0
  160.9690  211.4630  152.3560 N   0  0  2  0  0  0  0  0  0  0  0  0
  160.0940  209.6950  155.5050 N   0  0  0  0  0  0  0  0  0  0  0  0
  161.5230  205.9610  151.0350 N   0  0  0  0  0  0  0  0  0  0  0  0
  162.4540  206.7120  147.5950 C   0  0  0  0  0  2  0  0  0  0  0  0
  162.7900  205.9850  148.8800 C   0  0  2  0  0  3  0  0  0  0  0  0
  160.2670  209.7250  154.0560 C   0  0  2  0  0  3  0  0  0  0  0  0
  159.6690  212.9170  153.7980 N   0  0  0  0  0  0  0  0  0  0  0  0
  157.3190  213.8630  152.1130 C   0  0  0  0  0  3  0  0  0  0  0  0
  159.7420  212.2720  152.4890 C   0  0  1  0  0  3  0  0  0  0  0  0
  158.5990  213.5060  154.2380 C   0  0  0  0  0  3  0  0  0  0  0  0
  159.5990  213.3260  151.4110 C   0  0  0  0  0  0  0  0  0  0  0  0
  158.4670  213.9510  151.2530 N   0  0  0  0  0  0  0  0  0  0  0  0
  157.3680  213.6740  153.4390 C   0  0  0  0  0  3  0  0  0  0  0  0
  160.7100  213.6170  150.4430 C   0  0  2  0  0  3  0  0  0  0  0  0
  160.2300  214.4530  149.4160 O   0  0  0  0  0  0  0  0  0  0  0  0
  160.3860  213.0950  149.0940 C   0  0  0  0  0  2  0  0  0  0  0  0
  159.7240  204.6820  150.0980 C   0  0  0  0  0  2  0  0  0  0  0  0
  160.8920  204.7010  150.7300 C   0  0  0  0  0  0  0  0  0  0  0  0
  161.6760  203.4270  150.7890 C   0  0  0  0  0  2  0  0  0  0  0  0
  160.8640  202.3720  151.2120 O   0  0  0  0  0  0  0  0  0  0  0  0
  161.1950  201.3040  150.3730 C   0  0  0  0  0  2  0  0  0  0  0  0
  160.3930  201.3820  149.1180 C   0  0  0  0  0  0  0  0  0  0  0  0
  159.1740  201.3340  149.1670 O   0  0  0  0  0  0  0  0  0  0  0  0
  161.2520  202.8300  147.4530 O   0  0  0  0  0  1  0  0  0  0  0  0
  161.0870  201.4850  147.8010 C   0  0  0  0  0  2  0  0  0  0  0  0
  3  9  1  1  0  0  0
  3 21  1  0  0  0  0
  4  2  2  0  0  0  0
  4 18  1  0  0  0  0
  5  6  1  0  0  0  0
  7  2  1  6  0  0  0
  7 24  1  0  0  0  0
  7 16  1  0  0  0  0
 11 12  1  6  0  0  0
 11 17  1  0  0  0  0
 11  3  1  0  0  0  0
 13 10  2  0  0  0  0
 16 15  1  1  0  0  0
 16 13  1  0  0  0  0
 17  8  1  6  0  0  0
 17  5  1  0  0  0  0
 18 15  1  0  0  0  0
 19  6  1  6  0  0  0
 19 27  1  0  0  0  0
 19 14  1  0  0  0  0
 20 13  1  0  0  0  0
 20  1  1  0  0  0  0
 21  4  1  0  0  0  0
 22 12  1  0  0  0  0
 23 22  1  6  0  0  0
 23  9  1  0  0  0  0
 23  3  1  0  0  0  0
 24 14  1  1  0  0  0
 24 20  1  0  0  0  0
 25 28  2  0  0  0  0
 26 31  2  0  0  0  0
 27 29  1  6  0  0  0
 27 25  1  0  0  0  0
 30 29  2  0  0  0  0
 30 26  1  0  0  0  0
 31 28  1  0  0  0  0
 32 29  1  1  0  0  0
 33 32  1  0  0  0  0
 34 33  1  0  0  0  0
 34 32  1  0  0  0  0
 35 36  2  0  0  0  0
 36 37  1  0  0  0  0
 36 21  1  0  0  0  0
 37 38  1  0  0  0  0
 39 38  1  0  0  0  0
 40 41  2  0  0  0  0
 40 39  1  0  0  0  0
 42 43  1  0  0  0  0
 43 40  1  0  0  0  0
M  END
>  <MODEL>
3

>  <REMARK>
 VINA RESULT:      -4.0      2.473      8.950
  Name = 
  8 active torsions:
  status: ('A' for Active; 'I' for Inactive)
    1  A    between atoms: C_1  and  C_31
    2  A    between atoms: C_13  and  N_37
    3  A    between atoms: C_19  and  C_30
    4  A    between atoms: C_19  and  N_40
    5  A    between atoms: C_21  and  C_33
    6  A    between atoms: C_21  and  C_34
    7  A    between atoms: O_27  and  C_30
    8  A    between atoms: O_27  and  C_33
                            x       y       z     vdW  Elec       q    Type
                         _______ _______ _______ _____ _____    ______ ____

>  <TORSDO>
F 8

$$$$
=
 OpenBabel11072410073D

 43 49  0  0  1  0  0  0  0  0999 V2000
  161.4440  211.4100  147.9380 C   0  0  0  0  0  1  0  0  0  0  0  0
  160.2540  210.6820  152.8030 C   0  0  0  0  0  3  0  0  0  0  0  0
  160.2170  209.6710  155.5420 C   0  0  2  0  0  0  0  0  0  0  0  0
  159.8840  211.4650  153.8150 C   0  0  0  0  0  0  0  0  0  0  0  0
  162.0420  208.3070  153.2300 C   0  0  0  0  0  2  0  0  0  0  0  0
  161.3330  208.0950  151.8880 C   0  0  0  0  0  2  0  0  0  0  0  0
  160.7730  211.3350  151.5910 C   0  0  2  0  0  3  0  0  0  0  0  0
  161.1640  206.1350  154.1290 C   0  0  0  0  0  1  0  0  0  0  0  0
  161.4430  209.9010  156.4050 C   0  0  0  0  0  2  0  0  0  0  0  0
  160.4480  213.8740  149.2380 O   0  0  0  0  0  0  0  0  0  0  0  0
  159.9940  208.3020  154.8680 C   0  0  2  0  0  3  0  0  0  0  0  0
  159.3750  207.4730  155.9810 C   0  0  0  0  0  2  0  0  0  0  0  0
  160.5600  212.7940  149.8790 C   0  0  0  0  0  0  0  0  0  0  0  0
  162.3900  209.8030  150.5210 C   0  0  0  0  0  2  0  0  0  0  0  0
  160.1660  213.5440  152.3370 C   0  0  0  0  0  2  0  0  0  0  0  0
  159.9590  212.5380  151.2070 C   0  0  2  0  0  3  0  0  0  0  0  0
  161.3200  207.6290  154.4030 C   0  0  2  0  0  3  0  0  0  0  0  0
  159.7900  212.8980  153.6140 N   0  0  0  0  0  2  0  0  0  0  0  0
  162.2390  208.3500  150.7590 N   0  0  2  0  0  0  0  0  0  0  0  0
  161.1830  211.6220  149.3520 N   0  0  0  0  0  0  0  0  0  0  0  0
  159.4890  210.8630  155.0540 N   0  0  0  0  0  0  0  0  0  0  0  0
  159.9890  208.0100  157.2610 C   0  0  0  0  0  2  0  0  0  0  0  0
  160.1250  209.5030  157.0530 C   0  0  2  0  0  3  0  0  0  0  0  0
  161.0610  210.5470  150.3320 C   0  0  2  0  0  3  0  0  0  0  0  0
  162.7050  207.5340  148.5230 N   0  0  0  0  0  0  0  0  0  0  0  0
  160.1620  206.1350  147.6110 C   0  0  0  0  0  3  0  0  0  0  0  0
  161.6910  207.6780  149.5650 C   0  0  1  0  0  3  0  0  0  0  0  0
  162.4250  207.1700  147.3090 C   0  0  0  0  0  3  0  0  0  0  0  0
  161.0930  206.3190  149.8640 C   0  0  0  0  0  0  0  0  0  0  0  0
  160.3640  205.7150  148.9700 N   0  0  0  0  0  0  0  0  0  0  0  0
  161.0730  206.7730  146.8630 C   0  0  0  0  0  3  0  0  0  0  0  0
  161.2420  205.6730  151.2120 C   0  0  2  0  0  3  0  0  0  0  0  0
  162.2270  204.6680  151.1440 O   0  0  0  0  0  0  0  0  0  0  0  0
  160.8910  204.2340  151.1490 C   0  0  0  0  0  2  0  0  0  0  0  0
  158.2060  212.2670  156.5150 C   0  0  0  0  0  2  0  0  0  0  0  0
  158.2350  211.2670  155.6410 C   0  0  0  0  0  0  0  0  0  0  0  0
  156.9380  210.8330  155.0320 C   0  0  0  0  0  2  0  0  0  0  0  0
  155.8770  211.5690  155.5650 O   0  0  0  0  0  0  0  0  0  0  0  0
  155.2470  212.1450  154.4580 C   0  0  0  0  0  2  0  0  0  0  0  0
  155.3960  213.6280  154.5090 C   0  0  0  0  0  0  0  0  0  0  0  0
  155.2560  214.2210  155.5670 O   0  0  0  0  0  0  0  0  0  0  0  0
  156.6810  213.7340  152.5230 O   0  0  0  0  0  1  0  0  0  0  0  0
  155.6830  214.3860  153.2560 C   0  0  0  0  0  2  0  0  0  0  0  0
  1 20  1  0  0  0  0
  2  4  2  0  0  0  0
  3  9  1  6  0  0  0
  3 23  1  0  0  0  0
  4 21  1  0  0  0  0
  5 17  1  0  0  0  0
  6  5  1  0  0  0  0
  7  2  1  1  0  0  0
 10 13  2  0  0  0  0
 11  3  1  0  0  0  0
 11 12  1  1  0  0  0
 12 22  1  0  0  0  0
 13 16  1  0  0  0  0
 15 18  1  0  0  0  0
 16  7  1  0  0  0  0
 16 15  1  1  0  0  0
 17  8  1  6  0  0  0
 17 11  1  0  0  0  0
 18  4  1  0  0  0  0
 19 14  1  6  0  0  0
 19  6  1  0  0  0  0
 20 13  1  0  0  0  0
 20 24  1  0  0  0  0
 21  3  1  0  0  0  0
 21 36  1  0  0  0  0
 23  9  1  1  0  0  0
 23 22  1  0  0  0  0
 24 14  1  1  0  0  0
 24  7  1  0  0  0  0
 26 30  1  0  0  0  0
 27 25  1  6  0  0  0
 27 29  1  0  0  0  0
 27 19  1  0  0  0  0
 28 25  2  0  0  0  0
 30 29  2  0  0  0  0
 31 28  1  0  0  0  0
 31 26  2  0  0  0  0
 32 29  1  6  0  0  0
 33 34  1  0  0  0  0
 33 32  1  0  0  0  0
 34 32  1  0  0  0  0
 36 35  2  0  0  0  0
 37 38  1  0  0  0  0
 37 36  1  0  0  0  0
 39 40  1  0  0  0  0
 39 38  1  0  0  0  0
 40 41  2  0  0  0  0
 42 43  1  0  0  0  0
 43 40  1  0  0  0  0
M  END
>  <MODEL>
4

>  <REMARK>
 VINA RESULT:      -3.5      1.423      1.917
  Name = 
  8 active torsions:
  status: ('A' for Active; 'I' for Inactive)
    1  A    between atoms: C_1  and  C_31
    2  A    between atoms: C_13  and  N_37
    3  A    between atoms: C_19  and  C_30
    4  A    between atoms: C_19  and  N_40
    5  A    between atoms: C_21  and  C_33
    6  A    between atoms: C_21  and  C_34
    7  A    between atoms: O_27  and  C_30
    8  A    between atoms: O_27  and  C_33
                            x       y       z     vdW  Elec       q    Type
                         _______ _______ _______ _____ _____    ______ ____

>  <TORSDO>
F 8

$$$$
