=
 OpenBabel11072413063D

 35 38  0  0  1  0  0  0  0  0999 V2000
  161.5540  206.7900  152.9530 C   0  0  2  0  0  3  0  0  0  0  0  0
  160.5250  207.1690  155.1020 N   0  0  0  0  0  0  0  0  0  0  0  0
  160.6590  206.3870  154.0880 C   0  0  0  0  0  3  0  0  0  0  0  0
  161.2520  208.4200  155.1820 C   0  0  2  0  0  3  0  0  0  0  0  0
  160.0340  210.0970  153.7110 C   0  0  0  0  0  2  0  0  0  0  0  0
  161.1730  211.5100  155.5080 N   0  0  0  0  0  0  0  0  0  0  0  0
  161.4000  210.5870  156.3840 C   0  0  0  0  0  3  0  0  0  0  0  0
  160.7300  209.2490  156.3550 C   0  0  0  0  0  2  0  0  0  0  0  0
  161.2470  209.1820  153.8270 C   0  0  2  0  0  3  0  0  0  0  0  0
  160.1970  211.4550  154.4240 C   0  0  2  0  0  3  0  0  0  0  0  0
  161.2960  208.2580  152.5970 C   0  0  0  0  0  2  0  0  0  0  0  0
  161.3820  204.5120  151.9450 C   0  0  0  0  0  3  0  0  0  0  0  0
  160.9890  205.5770  149.3880 C   0  0  0  0  0  3  0  0  0  0  0  0
  161.3630  205.9000  151.7660 C   0  0  0  0  0  0  0  0  0  0  0  0
  161.0040  204.1900  149.5730 C   0  0  0  0  0  0  0  0  0  0  0  0
  161.1650  206.4300  150.4810 C   0  0  0  0  0  3  0  0  0  0  0  0
  161.2050  203.6600  150.8520 C   0  0  0  0  0  3  0  0  0  0  0  0
  160.8320  203.2800  148.4050 C   0  0  0  0  0  2  0  0  0  0  0  0
  160.5630  201.8860  148.8620 C   0  0  0  0  0  0  0  0  0  0  0  0
  161.5320  200.8660  148.6500 N   0  0  0  0  0  1  0  0  0  0  0  0
  159.4650  201.6040  149.4100 O   0  0  0  0  0  0  0  0  0  0  0  0
  157.7800  211.0680  155.1830 C   0  0  0  0  0  1  0  0  0  0  0  0
  158.8670  212.0830  154.8560 C   0  0  2  0  0  3  0  0  0  0  0  0
  158.3020  211.7590  151.9900 O   0  0  0  0  0  0  0  0  0  0  0  0
  158.4070  213.0990  153.9110 N   0  0  0  0  0  2  0  0  0  0  0  0
  158.1870  212.9010  152.5060 C   0  0  0  0  0  0  0  0  0  0  0  0
  157.7840  214.0510  151.6410 C   0  0  2  0  0  3  0  0  0  0  0  0
  156.3410  214.4520  151.8970 C   0  0  0  0  0  1  0  0  0  0  0  0
  158.0270  213.7570  150.1930 C   0  0  0  0  0  0  0  0  0  0  0  0
  159.1460  213.4410  148.1530 N   0  0  0  0  0  0  0  0  0  0  0  0
  160.3860  214.2260  150.0040 O   0  0  0  0  0  0  0  0  0  0  0  0
  159.2960  213.8480  149.5010 C   0  0  0  0  0  0  0  0  0  0  0  0
  157.8930  213.1290  148.0610 C   0  0  0  0  0  0  0  0  0  0  0  0
  157.1420  213.2990  149.3140 C   0  0  0  0  0  3  0  0  0  0  0  0
  157.3130  212.6580  146.8510 N   0  0  0  0  0  1  0  0  0  0  0  0
  1 14  1  6  0  0  0
  1  3  1  0  0  0  0
  2  4  1  0  0  0  0
  3  2  2  0  0  0  0
  4  8  1  1  0  0  0
  5  9  1  0  0  0  0
  5 10  1  0  0  0  0
  6  7  2  0  0  0  0
  8  7  1  0  0  0  0
  9 11  1  6  0  0  0
  9  4  1  0  0  0  0
 10 23  1  1  0  0  0
 10  6  1  0  0  0  0
 11  1  1  0  0  0  0
 13 15  2  0  0  0  0
 13 16  1  0  0  0  0
 14 12  1  0  0  0  0
 15 17  1  0  0  0  0
 16 14  2  0  0  0  0
 17 12  2  0  0  0  0
 18 19  1  0  0  0  0
 18 15  1  0  0  0  0
 19 21  2  0  0  0  0
 20 19  1  0  0  0  0
 23 22  1  6  0  0  0
 24 26  2  0  0  0  0
 25 23  1  0  0  0  0
 26 25  1  0  0  0  0
 27 28  1  6  0  0  0
 27 26  1  0  0  0  0
 29 27  1  0  0  0  0
 30 32  1  0  0  0  0
 32 31  2  0  0  0  0
 32 29  1  0  0  0  0
 33 30  2  0  0  0  0
 33 34  1  0  0  0  0
 34 29  2  0  0  0  0
 35 33  1  0  0  0  0
M  END
>  <MODEL>
1

>  <REMARK>
 VINA RESULT:      -8.9      0.000      0.000
  Name = 
  7 active torsions:
  status: ('A' for Active; 'I' for Inactive)
    1  A    between atoms: C_1  and  C_11
    2  A    between atoms: C_2  and  C_33
    3  A    between atoms: C_4  and  C_23
    4  A    between atoms: C_15  and  C_33
    5  A    between atoms: N_21  and  C_34
    6  A    between atoms: C_23  and  C_27
    7  A    between atoms: C_30  and  C_34
                            x       y       z     vdW  Elec       q    Type
                         _______ _______ _______ _____ _____    ______ ____

>  <TORSDO>
F 7

$$$$
=
 OpenBabel11072413063D

 35 38  0  0  1  0  0  0  0  0999 V2000
  161.6010  206.9980  152.7140 C   0  0  2  0  0  3  0  0  0  0  0  0
  160.5330  207.1850  154.8700 N   0  0  0  0  0  0  0  0  0  0  0  0
  160.6770  206.5020  153.7880 C   0  0  0  0  0  3  0  0  0  0  0  0
  161.2760  208.4110  155.0840 C   0  0  2  0  0  3  0  0  0  0  0  0
  160.1110  210.2400  153.7590 C   0  0  0  0  0  2  0  0  0  0  0  0
  161.2320  211.4570  155.7040 N   0  0  0  0  0  0  0  0  0  0  0  0
  161.4290  210.4500  156.4910 C   0  0  0  0  0  3  0  0  0  0  0  0
  160.7410  209.1320  156.3210 C   0  0  0  0  0  2  0  0  0  0  0  0
  161.3080  209.3000  153.8090 C   0  0  2  0  0  3  0  0  0  0  0  0
  160.2780  211.5210  154.6020 C   0  0  2  0  0  3  0  0  0  0  0  0
  161.3700  208.4980  152.4960 C   0  0  0  0  0  2  0  0  0  0  0  0
  161.3230  206.9270  150.2340 C   0  0  0  0  0  3  0  0  0  0  0  0
  161.1850  204.1330  150.2410 C   0  0  0  0  0  3  0  0  0  0  0  0
  161.4220  206.2300  151.4430 C   0  0  0  0  0  0  0  0  0  0  0  0
  161.0920  204.8340  149.0340 C   0  0  0  0  0  0  0  0  0  0  0  0
  161.3530  204.8280  151.4430 C   0  0  0  0  0  3  0  0  0  0  0  0
  161.1560  206.2320  149.0330 C   0  0  0  0  0  3  0  0  0  0  0  0
  160.8960  204.0940  147.7550 C   0  0  0  0  0  2  0  0  0  0  0  0
  161.7050  204.7110  146.6640 C   0  0  0  0  0  0  0  0  0  0  0  0
  161.0580  205.3020  145.5430 N   0  0  0  0  0  1  0  0  0  0  0  0
  162.9630  204.6840  146.7200 O   0  0  0  0  0  0  0  0  0  0  0  0
  157.8760  211.0920  155.3860 C   0  0  0  0  0  1  0  0  0  0  0  0
  158.9490  212.1260  155.0670 C   0  0  2  0  0  3  0  0  0  0  0  0
  157.8650  211.7750  152.3580 O   0  0  0  0  0  0  0  0  0  0  0  0
  158.4650  213.1590  154.1520 N   0  0  0  0  0  2  0  0  0  0  0  0
  157.9850  212.9410  152.8170 C   0  0  0  0  0  0  0  0  0  0  0  0
  157.5880  214.1020  151.9640 C   0  0  2  0  0  3  0  0  0  0  0  0
  156.1230  214.4530  152.1620 C   0  0  0  0  0  1  0  0  0  0  0  0
  157.9070  213.8540  150.5220 C   0  0  0  0  0  0  0  0  0  0  0  0
  159.1340  213.5880  148.5370 N   0  0  0  0  0  0  0  0  0  0  0  0
  160.2820  214.2800  150.4830 O   0  0  0  0  0  0  0  0  0  0  0  0
  159.2150  213.9430  149.9060 C   0  0  0  0  0  0  0  0  0  0  0  0
  157.8830  213.3060  148.3640 C   0  0  0  0  0  0  0  0  0  0  0  0
  157.0650  213.4470  149.5790 C   0  0  0  0  0  3  0  0  0  0  0  0
  157.3630  212.8900  147.1070 N   0  0  0  0  0  1  0  0  0  0  0  0
  1 14  1  6  0  0  0
  1  3  1  0  0  0  0
  2  4  1  0  0  0  0
  3  2  2  0  0  0  0
  4  8  1  1  0  0  0
  5  9  1  0  0  0  0
  5 10  1  0  0  0  0
  6  7  2  0  0  0  0
  8  7  1  0  0  0  0
  9 11  1  6  0  0  0
  9  4  1  0  0  0  0
 10 23  1  1  0  0  0
 10  6  1  0  0  0  0
 11  1  1  0  0  0  0
 12 14  1  0  0  0  0
 13 16  1  0  0  0  0
 15 13  2  0  0  0  0
 16 14  2  0  0  0  0
 17 15  1  0  0  0  0
 17 12  2  0  0  0  0
 18 15  1  0  0  0  0
 19 21  2  0  0  0  0
 19 18  1  0  0  0  0
 20 19  1  0  0  0  0
 23 22  1  6  0  0  0
 24 26  2  0  0  0  0
 25 23  1  0  0  0  0
 26 25  1  0  0  0  0
 27 28  1  6  0  0  0
 27 26  1  0  0  0  0
 29 27  1  0  0  0  0
 30 32  1  0  0  0  0
 32 31  2  0  0  0  0
 32 29  1  0  0  0  0
 33 30  2  0  0  0  0
 33 34  1  0  0  0  0
 34 29  2  0  0  0  0
 35 33  1  0  0  0  0
M  END
>  <MODEL>
2

>  <REMARK>
 VINA RESULT:      -8.5      1.423      1.709
  Name = 
  7 active torsions:
  status: ('A' for Active; 'I' for Inactive)
    1  A    between atoms: C_1  and  C_11
    2  A    between atoms: C_2  and  C_33
    3  A    between atoms: C_4  and  C_23
    4  A    between atoms: C_15  and  C_33
    5  A    between atoms: N_21  and  C_34
    6  A    between atoms: C_23  and  C_27
    7  A    between atoms: C_30  and  C_34
                            x       y       z     vdW  Elec       q    Type
                         _______ _______ _______ _____ _____    ______ ____

>  <TORSDO>
F 7

$$$$
=
 OpenBabel11072413063D

 35 38  0  0  1  0  0  0  0  0999 V2000
  161.6850  206.9500  152.2800 C   0  0  2  0  0  3  0  0  0  0  0  0
  160.7030  207.0660  154.4810 N   0  0  0  0  0  0  0  0  0  0  0  0
  160.8800  206.3750  153.4090 C   0  0  0  0  0  3  0  0  0  0  0  0
  161.2980  208.3780  154.6320 C   0  0  2  0  0  3  0  0  0  0  0  0
  159.8590  210.0150  153.3250 C   0  0  0  0  0  2  0  0  0  0  0  0
  160.9100  211.4120  155.1860 N   0  0  0  0  0  0  0  0  0  0  0  0
  161.2650  210.4590  155.9850 C   0  0  0  0  0  3  0  0  0  0  0  0
  160.7360  209.0620  155.8770 C   0  0  0  0  0  2  0  0  0  0  0  0
  161.1630  209.2290  153.3370 C   0  0  2  0  0  3  0  0  0  0  0  0
  159.9060  211.3300  154.1300 C   0  0  2  0  0  3  0  0  0  0  0  0
  161.2630  208.4030  152.0410 C   0  0  0  0  0  2  0  0  0  0  0  0
  161.5670  206.7710  149.7930 C   0  0  0  0  0  3  0  0  0  0  0  0
  161.2620  203.9930  149.9190 C   0  0  0  0  0  3  0  0  0  0  0  0
  161.5440  206.1300  151.0370 C   0  0  0  0  0  0  0  0  0  0  0  0
  161.2900  204.6380  148.6770 C   0  0  0  0  0  0  0  0  0  0  0  0
  161.3920  204.7360  151.0960 C   0  0  0  0  0  3  0  0  0  0  0  0
  161.4380  206.0270  148.6170 C   0  0  0  0  0  3  0  0  0  0  0  0
  161.1350  203.8470  147.4230 C   0  0  0  0  0  2  0  0  0  0  0  0
  161.6380  204.6210  146.2510 C   0  0  0  0  0  0  0  0  0  0  0  0
  163.0340  204.6870  145.9860 N   0  0  0  0  0  1  0  0  0  0  0  0
  160.8280  205.2400  145.5110 O   0  0  0  0  0  0  0  0  0  0  0  0
  157.7030  210.6600  155.2560 C   0  0  0  0  0  1  0  0  0  0  0  0
  158.5350  211.7810  154.6460 C   0  0  2  0  0  3  0  0  0  0  0  0
  157.3230  214.4450  154.9190 O   0  0  0  0  0  0  0  0  0  0  0  0
  157.7910  212.5360  153.6400 N   0  0  0  0  0  2  0  0  0  0  0  0
  157.1780  213.8190  153.8360 C   0  0  0  0  0  0  0  0  0  0  0  0
  156.3820  214.4450  152.7370 C   0  0  2  0  0  3  0  0  0  0  0  0
  154.9280  214.0070  152.7940 C   0  0  0  0  0  1  0  0  0  0  0  0
  156.9900  214.1690  151.3960 C   0  0  0  0  0  0  0  0  0  0  0  0
  157.1870  213.7920  149.0870 N   0  0  0  0  0  0  0  0  0  0  0  0
  155.0220  213.9800  150.0140 O   0  0  0  0  0  0  0  0  0  0  0  0
  156.2730  213.9790  150.1520 C   0  0  0  0  0  0  0  0  0  0  0  0
  158.3470  213.8740  149.6560 C   0  0  0  0  0  0  0  0  0  0  0  0
  158.2850  214.1180  151.1050 C   0  0  0  0  0  3  0  0  0  0  0  0
  159.5620  213.7430  148.9280 N   0  0  0  0  0  1  0  0  0  0  0  0
  1 14  1  6  0  0  0
  1  3  1  0  0  0  0
  2  4  1  0  0  0  0
  3  2  2  0  0  0  0
  4  8  1  1  0  0  0
  5  9  1  0  0  0  0
  5 10  1  0  0  0  0
  6  7  2  0  0  0  0
  8  7  1  0  0  0  0
  9 11  1  6  0  0  0
  9  4  1  0  0  0  0
 10 23  1  1  0  0  0
 10  6  1  0  0  0  0
 11  1  1  0  0  0  0
 12 14  1  0  0  0  0
 13 16  1  0  0  0  0
 14 16  2  0  0  0  0
 15 13  2  0  0  0  0
 17 15  1  0  0  0  0
 17 12  2  0  0  0  0
 18 15  1  0  0  0  0
 19 18  1  0  0  0  0
 20 19  1  0  0  0  0
 21 19  2  0  0  0  0
 23 22  1  6  0  0  0
 25 26  1  0  0  0  0
 25 23  1  0  0  0  0
 26 24  2  0  0  0  0
 27 28  1  6  0  0  0
 27 26  1  0  0  0  0
 29 27  1  0  0  0  0
 30 33  2  0  0  0  0
 30 32  1  0  0  0  0
 31 32  2  0  0  0  0
 32 29  1  0  0  0  0
 33 34  1  0  0  0  0
 34 29  2  0  0  0  0
 35 33  1  0  0  0  0
M  END
>  <MODEL>
3

>  <REMARK>
 VINA RESULT:      -8.1      1.959      2.364
  Name = 
  7 active torsions:
  status: ('A' for Active; 'I' for Inactive)
    1  A    between atoms: C_1  and  C_11
    2  A    between atoms: C_2  and  C_33
    3  A    between atoms: C_4  and  C_23
    4  A    between atoms: C_15  and  C_33
    5  A    between atoms: N_21  and  C_34
    6  A    between atoms: C_23  and  C_27
    7  A    between atoms: C_30  and  C_34
                            x       y       z     vdW  Elec       q    Type
                         _______ _______ _______ _____ _____    ______ ____

>  <TORSDO>
F 7

$$$$
=
 OpenBabel11072413063D

 35 38  0  0  1  0  0  0  0  0999 V2000
  161.5930  205.7670  152.4810 C   0  0  2  0  0  3  0  0  0  0  0  0
  160.4980  206.7000  154.4180 N   0  0  0  0  0  0  0  0  0  0  0  0
  160.5690  205.7280  153.5780 C   0  0  0  0  0  3  0  0  0  0  0  0
  161.4160  207.8200  154.3450 C   0  0  2  0  0  3  0  0  0  0  0  0
  160.5950  209.3480  152.4880 C   0  0  0  0  0  2  0  0  0  0  0  0
  161.8290  210.8910  154.1060 N   0  0  0  0  0  0  0  0  0  0  0  0
  161.8400  210.1290  155.1500 C   0  0  0  0  0  3  0  0  0  0  0  0
  160.9600  208.9260  155.2950 C   0  0  0  0  0  2  0  0  0  0  0  0
  161.6290  208.3010  152.8820 C   0  0  2  0  0  3  0  0  0  0  0  0
  160.9340  210.7770  152.9600 C   0  0  2  0  0  3  0  0  0  0  0  0
  161.6070  207.1610  151.8460 C   0  0  0  0  0  2  0  0  0  0  0  0
  161.0640  205.0830  150.1390 C   0  0  0  0  0  3  0  0  0  0  0  0
  161.1260  202.3710  150.8230 C   0  0  0  0  0  3  0  0  0  0  0  0
  161.3370  204.7050  151.4590 C   0  0  0  0  0  0  0  0  0  0  0  0
  160.8580  202.7540  149.5040 C   0  0  0  0  0  0  0  0  0  0  0  0
  161.3680  203.3440  151.7980 C   0  0  0  0  0  3  0  0  0  0  0  0
  160.8230  204.1100  149.1650 C   0  0  0  0  0  3  0  0  0  0  0  0
  160.5840  201.7170  148.4680 C   0  0  0  0  0  2  0  0  0  0  0  0
  161.0280  202.1880  147.1250 C   0  0  0  0  0  0  0  0  0  0  0  0
  160.5500  201.5460  145.9490 N   0  0  0  0  0  1  0  0  0  0  0  0
  161.8520  203.1370  147.0320 O   0  0  0  0  0  0  0  0  0  0  0  0
  158.5530  210.9970  153.8840 C   0  0  0  0  0  1  0  0  0  0  0  0
  159.7010  211.6700  153.1410 C   0  0  2  0  0  3  0  0  0  0  0  0
  158.8670  214.4460  152.6550 O   0  0  0  0  0  0  0  0  0  0  0  0
  159.2660  212.2690  151.8810 N   0  0  0  0  0  2  0  0  0  0  0  0
  158.8250  213.6240  151.7030 C   0  0  0  0  0  0  0  0  0  0  0  0
  158.3370  214.0840  150.3680 C   0  0  2  0  0  3  0  0  0  0  0  0
  157.0800  213.3360  149.9550 C   0  0  0  0  0  1  0  0  0  0  0  0
  159.4100  213.9770  149.3280 C   0  0  0  0  0  0  0  0  0  0  0  0
  160.4620  213.6410  147.2560 N   0  0  0  0  0  0  0  0  0  0  0  0
  158.1460  213.2060  147.4220 O   0  0  0  0  0  0  0  0  0  0  0  0
  159.2300  213.5700  147.9490 C   0  0  0  0  0  0  0  0  0  0  0  0
  161.2970  214.0630  148.1500 C   0  0  0  0  0  0  0  0  0  0  0  0
  160.6910  214.2990  149.4690 C   0  0  0  0  0  3  0  0  0  0  0  0
  162.6740  214.2800  147.8640 N   0  0  0  0  0  1  0  0  0  0  0  0
  1 14  1  6  0  0  0
  1  3  1  0  0  0  0
  3  2  2  0  0  0  0
  4  2  1  0  0  0  0
  4  8  1  1  0  0  0
  5  9  1  0  0  0  0
  5 10  1  0  0  0  0
  6  7  2  0  0  0  0
  7  8  1  0  0  0  0
  9 11  1  6  0  0  0
  9  4  1  0  0  0  0
 10 23  1  1  0  0  0
 10  6  1  0  0  0  0
 11  1  1  0  0  0  0
 12 14  1  0  0  0  0
 13 16  1  0  0  0  0
 14 16  2  0  0  0  0
 15 13  2  0  0  0  0
 17 15  1  0  0  0  0
 17 12  2  0  0  0  0
 18 15  1  0  0  0  0
 19 18  1  0  0  0  0
 20 19  1  0  0  0  0
 21 19  2  0  0  0  0
 23 22  1  6  0  0  0
 25 23  1  0  0  0  0
 26 25  1  0  0  0  0
 26 24  2  0  0  0  0
 27 28  1  6  0  0  0
 27 26  1  0  0  0  0
 29 34  2  0  0  0  0
 29 27  1  0  0  0  0
 30 32  1  0  0  0  0
 30 33  2  0  0  0  0
 31 32  2  0  0  0  0
 32 29  1  0  0  0  0
 33 34  1  0  0  0  0
 35 33  1  0  0  0  0
M  END
>  <MODEL>
4

>  <REMARK>
 VINA RESULT:      -8.1      1.708      2.324
  Name = 
  7 active torsions:
  status: ('A' for Active; 'I' for Inactive)
    1  A    between atoms: C_1  and  C_11
    2  A    between atoms: C_2  and  C_33
    3  A    between atoms: C_4  and  C_23
    4  A    between atoms: C_15  and  C_33
    5  A    between atoms: N_21  and  C_34
    6  A    between atoms: C_23  and  C_27
    7  A    between atoms: C_30  and  C_34
                            x       y       z     vdW  Elec       q    Type
                         _______ _______ _______ _____ _____    ______ ____

>  <TORSDO>
F 7

$$$$
=
 OpenBabel11072413063D

 35 38  0  0  1  0  0  0  0  0999 V2000
  160.6330  210.5910  153.7440 C   0  0  2  0  0  3  0  0  0  0  0  0
  160.7640  210.0090  151.4060 N   0  0  0  0  0  0  0  0  0  0  0  0
  160.2030  210.7310  152.3130 C   0  0  0  0  0  3  0  0  0  0  0  0
  161.8310  209.0870  151.7390 C   0  0  2  0  0  3  0  0  0  0  0  0
  160.7520  207.0140  152.7390 C   0  0  0  0  0  2  0  0  0  0  0  0
  162.9250  206.1780  151.6890 N   0  0  0  0  0  0  0  0  0  0  0  0
  163.1690  207.1720  150.9000 C   0  0  0  0  0  3  0  0  0  0  0  0
  162.1420  208.1980  150.5350 C   0  0  0  0  0  2  0  0  0  0  0  0
  161.5250  208.2910  153.0390 C   0  0  2  0  0  3  0  0  0  0  0  0
  161.6340  205.8350  152.2780 C   0  0  2  0  0  3  0  0  0  0  0  0
  160.7570  209.1050  154.0970 C   0  0  0  0  0  2  0  0  0  0  0  0
  158.9040  212.3400  154.1720 C   0  0  0  0  0  3  0  0  0  0  0  0
  158.6880  211.5940  156.8600 C   0  0  0  0  0  3  0  0  0  0  0  0
  159.6890  211.2940  154.6680 C   0  0  0  0  0  0  0  0  0  0  0  0
  157.9010  212.6370  156.3580 C   0  0  0  0  0  0  0  0  0  0  0  0
  159.5780  210.9220  156.0170 C   0  0  0  0  0  3  0  0  0  0  0  0
  158.0140  213.0110  155.0150 C   0  0  0  0  0  3  0  0  0  0  0  0
  156.9640  213.3650  157.2610 C   0  0  0  0  0  2  0  0  0  0  0  0
  155.5530  212.9740  156.9770 C   0  0  0  0  0  0  0  0  0  0  0  0
  155.1790  211.6020  156.9750 N   0  0  0  0  0  1  0  0  0  0  0  0
  154.6970  213.8580  156.7080 O   0  0  0  0  0  0  0  0  0  0  0  0
  160.5070  203.5370  152.1370 C   0  0  0  0  0  1  0  0  0  0  0  0
  160.8900  204.8180  151.4060 C   0  0  2  0  0  3  0  0  0  0  0  0
  160.1950  205.7510  148.7070 O   0  0  0  0  0  0  0  0  0  0  0  0
  161.5950  204.5480  150.1530 N   0  0  0  0  0  2  0  0  0  0  0  0
  161.1890  204.9920  148.8490 C   0  0  0  0  0  0  0  0  0  0  0  0
  161.9680  204.5790  147.6430 C   0  0  2  0  0  3  0  0  0  0  0  0
  162.0860  205.7230  146.6490 C   0  0  0  0  0  1  0  0  0  0  0  0
  161.3840  203.3540  147.0080 C   0  0  0  0  0  0  0  0  0  0  0  0
  160.5680  201.1680  146.7470 N   0  0  0  0  0  0  0  0  0  0  0  0
  161.5340  201.7670  148.8190 O   0  0  0  0  0  0  0  0  0  0  0  0
  161.1980  202.0660  147.6430 C   0  0  0  0  0  0  0  0  0  0  0  0
  160.3920  201.8720  145.6760 C   0  0  0  0  0  0  0  0  0  0  0  0
  160.8770  203.2560  145.7840 C   0  0  0  0  0  3  0  0  0  0  0  0
  159.7750  201.3410  144.5090 N   0  0  0  0  0  1  0  0  0  0  0  0
  1 11  1  0  0  0  0
  1 14  1  1  0  0  0
  2  4  1  0  0  0  0
  2  3  2  0  0  0  0
  3  1  1  0  0  0  0
  4  8  1  6  0  0  0
  4  9  1  0  0  0  0
  6 10  1  0  0  0  0
  7  6  2  0  0  0  0
  8  7  1  0  0  0  0
  9  5  1  6  0  0  0
  9 11  1  0  0  0  0
 10 23  1  6  0  0  0
 10  5  1  0  0  0  0
 12 14  2  0  0  0  0
 12 17  1  0  0  0  0
 14 16  1  0  0  0  0
 15 13  1  0  0  0  0
 15 18  1  0  0  0  0
 16 13  2  0  0  0  0
 17 15  2  0  0  0  0
 19 18  1  0  0  0  0
 20 19  1  0  0  0  0
 21 19  2  0  0  0  0
 23 22  1  1  0  0  0
 24 26  2  0  0  0  0
 25 23  1  0  0  0  0
 26 25  1  0  0  0  0
 27 28  1  6  0  0  0
 27 26  1  0  0  0  0
 29 32  1  0  0  0  0
 29 27  1  0  0  0  0
 30 32  1  0  0  0  0
 32 31  2  0  0  0  0
 33 34  1  0  0  0  0
 33 30  2  0  0  0  0
 34 29  2  0  0  0  0
 35 33  1  0  0  0  0
M  END
>  <MODEL>
5

>  <REMARK>
 VINA RESULT:      -7.4      3.367      9.634
  Name = 
  7 active torsions:
  status: ('A' for Active; 'I' for Inactive)
    1  A    between atoms: C_1  and  C_11
    2  A    between atoms: C_2  and  C_33
    3  A    between atoms: C_4  and  C_23
    4  A    between atoms: C_15  and  C_33
    5  A    between atoms: N_21  and  C_34
    6  A    between atoms: C_23  and  C_27
    7  A    between atoms: C_30  and  C_34
                            x       y       z     vdW  Elec       q    Type
                         _______ _______ _______ _____ _____    ______ ____

>  <TORSDO>
F 7

$$$$
=
 OpenBabel11072413063D

 35 38  0  0  1  0  0  0  0  0999 V2000
  161.7050  205.3950  151.7070 C   0  0  2  0  0  3  0  0  0  0  0  0
  160.6160  206.2030  153.7030 N   0  0  0  0  0  0  0  0  0  0  0  0
  160.6920  205.2800  152.8080 C   0  0  0  0  0  3  0  0  0  0  0  0
  161.5180  207.3370  153.6850 C   0  0  2  0  0  3  0  0  0  0  0  0
  160.6590  208.9560  151.9240 C   0  0  0  0  0  2  0  0  0  0  0  0
  161.8870  210.4220  153.6170 N   0  0  0  0  0  0  0  0  0  0  0  0
  161.9180  209.6030  154.6160 C   0  0  0  0  0  3  0  0  0  0  0  0
  161.0560  208.3820  154.7000 C   0  0  0  0  0  2  0  0  0  0  0  0
  161.7100  207.9030  152.2500 C   0  0  2  0  0  3  0  0  0  0  0  0
  160.9830  210.3610  152.4740 C   0  0  2  0  0  3  0  0  0  0  0  0
  161.6950  206.8230  151.1520 C   0  0  0  0  0  2  0  0  0  0  0  0
  161.2090  203.0580  150.9820 C   0  0  0  0  0  3  0  0  0  0  0  0
  161.2240  203.7980  148.2840 C   0  0  0  0  0  3  0  0  0  0  0  0
  161.4550  204.3900  150.6280 C   0  0  0  0  0  0  0  0  0  0  0  0
  160.9740  202.4690  148.6430 C   0  0  0  0  0  0  0  0  0  0  0  0
  161.4610  204.7570  149.2730 C   0  0  0  0  0  3  0  0  0  0  0  0
  160.9710  202.1000  149.9920 C   0  0  0  0  0  3  0  0  0  0  0  0
  160.7370  201.4430  147.5880 C   0  0  0  0  0  2  0  0  0  0  0  0
  160.8160  202.0590  146.2310 C   0  0  0  0  0  0  0  0  0  0  0  0
  159.8020  201.7980  145.2690 N   0  0  0  0  0  1  0  0  0  0  0  0
  161.7980  202.7870  145.9270 O   0  0  0  0  0  0  0  0  0  0  0  0
  159.7670  212.5670  151.9950 C   0  0  0  0  0  1  0  0  0  0  0  0
  159.7390  211.2240  152.7160 C   0  0  2  0  0  3  0  0  0  0  0  0
  157.7130  212.9460  153.9670 O   0  0  0  0  0  0  0  0  0  0  0  0
  159.4400  211.3690  154.1390 N   0  0  0  0  0  2  0  0  0  0  0  0
  158.4670  212.2600  154.7060 C   0  0  0  0  0  0  0  0  0  0  0  0
  158.3160  212.3580  156.1900 C   0  0  2  0  0  3  0  0  0  0  0  0
  159.2490  211.3920  156.9020 C   0  0  0  0  0  1  0  0  0  0  0  0
  156.8910  212.1600  156.6080 C   0  0  0  0  0  0  0  0  0  0  0  0
  154.6860  212.6350  157.2590 N   0  0  0  0  0  0  0  0  0  0  0  0
  156.2030  214.4330  157.0330 O   0  0  0  0  0  0  0  0  0  0  0  0
  155.9520  213.2000  156.9740 C   0  0  0  0  0  0  0  0  0  0  0  0
  154.8620  211.3670  157.0690 C   0  0  0  0  0  0  0  0  0  0  0  0
  156.2260  211.0110  156.6500 C   0  0  0  0  0  3  0  0  0  0  0  0
  153.8170  210.4190  157.2450 N   0  0  0  0  0  1  0  0  0  0  0  0
  1 14  1  6  0  0  0
  1  3  1  0  0  0  0
  3  2  2  0  0  0  0
  4  2  1  0  0  0  0
  4  8  1  1  0  0  0
  5  9  1  0  0  0  0
  5 10  1  0  0  0  0
  6  7  2  0  0  0  0
  7  8  1  0  0  0  0
  9 11  1  6  0  0  0
  9  4  1  0  0  0  0
 10 23  1  1  0  0  0
 10  6  1  0  0  0  0
 11  1  1  0  0  0  0
 13 15  2  0  0  0  0
 13 16  1  0  0  0  0
 14 12  1  0  0  0  0
 15 17  1  0  0  0  0
 16 14  2  0  0  0  0
 17 12  2  0  0  0  0
 18 15  1  0  0  0  0
 19 18  1  0  0  0  0
 20 19  1  0  0  0  0
 21 19  2  0  0  0  0
 23 22  1  1  0  0  0
 23 25  1  0  0  0  0
 24 26  2  0  0  0  0
 25 26  1  0  0  0  0
 26 27  1  0  0  0  0
 27 29  1  0  0  0  0
 27 28  1  1  0  0  0
 29 34  2  0  0  0  0
 29 32  1  0  0  0  0
 32 31  2  0  0  0  0
 32 30  1  0  0  0  0
 33 35  1  0  0  0  0
 33 30  2  0  0  0  0
 34 33  1  0  0  0  0
M  END
>  <MODEL>
6

>  <REMARK>
 VINA RESULT:      -7.2      2.806      4.717
  Name = 
  7 active torsions:
  status: ('A' for Active; 'I' for Inactive)
    1  A    between atoms: C_1  and  C_11
    2  A    between atoms: C_2  and  C_33
    3  A    between atoms: C_4  and  C_23
    4  A    between atoms: C_15  and  C_33
    5  A    between atoms: N_21  and  C_34
    6  A    between atoms: C_23  and  C_27
    7  A    between atoms: C_30  and  C_34
                            x       y       z     vdW  Elec       q    Type
                         _______ _______ _______ _____ _____    ______ ____

>  <TORSDO>
F 7

$$$$
=
 OpenBabel11072413063D

 35 38  0  0  1  0  0  0  0  0999 V2000
  161.1460  205.8160  152.7500 C   0  0  2  0  0  3  0  0  0  0  0  0
  162.8230  204.2510  152.0000 N   0  0  0  0  0  0  0  0  0  0  0  0
  162.5550  205.4510  152.3840 C   0  0  0  0  0  3  0  0  0  0  0  0
  161.7920  203.2350  151.9500 C   0  0  2  0  0  3  0  0  0  0  0  0
  160.4500  203.6270  149.8270 C   0  0  0  0  0  2  0  0  0  0  0  0
  160.2390  201.1220  150.2800 N   0  0  0  0  0  0  0  0  0  0  0  0
  161.2370  200.9730  151.0890 C   0  0  0  0  0  3  0  0  0  0  0  0
  162.3250  201.9900  151.2410 C   0  0  0  0  0  2  0  0  0  0  0  0
  160.4690  203.7800  151.3420 C   0  0  2  0  0  3  0  0  0  0  0  0
  160.0410  202.2210  149.3400 C   0  0  2  0  0  3  0  0  0  0  0  0
  160.1840  205.2510  151.7000 C   0  0  0  0  0  2  0  0  0  0  0  0
  160.8490  207.8440  154.1760 C   0  0  0  0  0  3  0  0  0  0  0  0
  160.8220  209.5210  151.9370 C   0  0  0  0  0  3  0  0  0  0  0  0
  160.9860  207.2960  152.8950 C   0  0  0  0  0  0  0  0  0  0  0  0
  160.6900  210.0650  153.2200 C   0  0  0  0  0  0  0  0  0  0  0  0
  160.9730  208.1410  151.7750 C   0  0  0  0  0  3  0  0  0  0  0  0
  160.6990  209.2240  154.3380 C   0  0  0  0  0  3  0  0  0  0  0  0
  160.5130  211.5350  153.3920 C   0  0  0  0  0  2  0  0  0  0  0  0
  159.1910  211.9700  152.8550 C   0  0  0  0  0  0  0  0  0  0  0  0
  159.1280  212.9030  151.7830 N   0  0  0  0  0  1  0  0  0  0  0  0
  158.1280  211.5330  153.3710 O   0  0  0  0  0  0  0  0  0  0  0  0
  161.4320  200.5860  147.9390 C   0  0  0  0  0  1  0  0  0  0  0  0
  160.6030  201.8640  147.9590 C   0  0  2  0  0  3  0  0  0  0  0  0
  160.7980  202.5280  145.1030 O   0  0  0  0  0  0  0  0  0  0  0  0
  161.3070  202.9890  147.3450 N   0  0  0  0  0  2  0  0  0  0  0  0
  161.4110  203.2460  145.9360 C   0  0  0  0  0  0  0  0  0  0  0  0
  162.2260  204.3960  145.4430 C   0  0  2  0  0  3  0  0  0  0  0  0
  163.7070  204.0560  145.4350 C   0  0  0  0  0  1  0  0  0  0  0  0
  161.9490  205.6400  146.2310 C   0  0  0  0  0  0  0  0  0  0  0  0
  160.8250  207.5100  147.0990 N   0  0  0  0  0  0  0  0  0  0  0  0
  159.7580  206.2370  145.4180 O   0  0  0  0  0  0  0  0  0  0  0  0
  160.7450  206.4420  146.1720 C   0  0  0  0  0  0  0  0  0  0  0  0
  161.9780  207.3450  147.6630 C   0  0  0  0  0  0  0  0  0  0  0  0
  162.7260  206.1810  147.1630 C   0  0  0  0  0  3  0  0  0  0  0  0
  162.4600  208.2170  148.6780 N   0  0  0  0  0  1  0  0  0  0  0  0
  1 14  1  6  0  0  0
  2  3  2  0  0  0  0
  3  1  1  0  0  0  0
  4  8  1  6  0  0  0
  4  2  1  0  0  0  0
  6  7  2  0  0  0  0
  7  8  1  0  0  0  0
  9  5  1  6  0  0  0
  9 11  1  0  0  0  0
  9  4  1  0  0  0  0
 10 23  1  6  0  0  0
 10  5  1  0  0  0  0
 10  6  1  0  0  0  0
 11  1  1  0  0  0  0
 12 17  1  0  0  0  0
 13 15  1  0  0  0  0
 14 12  2  0  0  0  0
 15 18  1  0  0  0  0
 15 17  2  0  0  0  0
 16 13  2  0  0  0  0
 16 14  1  0  0  0  0
 19 21  2  0  0  0  0
 19 18  1  0  0  0  0
 20 19  1  0  0  0  0
 23 22  1  1  0  0  0
 24 26  2  0  0  0  0
 25 23  1  0  0  0  0
 26 25  1  0  0  0  0
 27 28  1  1  0  0  0
 27 26  1  0  0  0  0
 27 29  1  0  0  0  0
 29 34  2  0  0  0  0
 30 33  2  0  0  0  0
 31 32  2  0  0  0  0
 32 29  1  0  0  0  0
 32 30  1  0  0  0  0
 33 35  1  0  0  0  0
 34 33  1  0  0  0  0
M  END
>  <MODEL>
7

>  <REMARK>
 VINA RESULT:      -7.1      2.846      9.025
  Name = 
  7 active torsions:
  status: ('A' for Active; 'I' for Inactive)
    1  A    between atoms: C_1  and  C_11
    2  A    between atoms: C_2  and  C_33
    3  A    between atoms: C_4  and  C_23
    4  A    between atoms: C_15  and  C_33
    5  A    between atoms: N_21  and  C_34
    6  A    between atoms: C_23  and  C_27
    7  A    between atoms: C_30  and  C_34
                            x       y       z     vdW  Elec       q    Type
                         _______ _______ _______ _____ _____    ______ ____

>  <TORSDO>
F 7

$$$$
=
 OpenBabel11072413063D

 35 38  0  0  1  0  0  0  0  0999 V2000
  162.1030  210.2720  150.2190 C   0  0  2  0  0  3  0  0  0  0  0  0
  161.1260  212.4770  150.3130 N   0  0  0  0  0  0  0  0  0  0  0  0
  161.2290  211.3130  150.8560 C   0  0  0  0  0  3  0  0  0  0  0  0
  161.8690  212.8110  149.1150 C   0  0  2  0  0  3  0  0  0  0  0  0
  160.6370  211.7720  147.1490 C   0  0  0  0  0  2  0  0  0  0  0  0
  161.8310  213.8060  146.1700 N   0  0  0  0  0  0  0  0  0  0  0  0
  162.0680  214.4530  147.2640 C   0  0  0  0  0  3  0  0  0  0  0  0
  161.3820  214.1490  148.5600 C   0  0  0  0  0  2  0  0  0  0  0  0
  161.8420  211.6560  148.0740 C   0  0  2  0  0  3  0  0  0  0  0  0
  160.8310  212.7600  145.9810 C   0  0  2  0  0  3  0  0  0  0  0  0
  161.8540  210.2520  148.7070 C   0  0  0  0  0  2  0  0  0  0  0  0
  161.0780  208.8190  151.9720 C   0  0  0  0  0  3  0  0  0  0  0  0
  162.2180  206.5200  150.8570 C   0  0  0  0  0  3  0  0  0  0  0  0
  161.8760  208.9240  150.8270 C   0  0  0  0  0  0  0  0  0  0  0  0
  161.4160  206.4200  151.9990 C   0  0  0  0  0  0  0  0  0  0  0  0
  162.4460  207.7690  150.2700 C   0  0  0  0  0  3  0  0  0  0  0  0
  160.8500  207.5710  152.5570 C   0  0  0  0  0  3  0  0  0  0  0  0
  161.1860  205.0910  152.6340 C   0  0  0  0  0  2  0  0  0  0  0  0
  160.9050  204.0560  151.5980 C   0  0  0  0  0  0  0  0  0  0  0  0
  161.5790  202.8040  151.6380 N   0  0  0  0  0  1  0  0  0  0  0  0
  160.0910  204.3010  150.6690 O   0  0  0  0  0  0  0  0  0  0  0  0
  158.2800  212.5500  145.8390 C   0  0  0  0  0  1  0  0  0  0  0  0
  159.5180  213.3510  145.4540 C   0  0  2  0  0  3  0  0  0  0  0  0
  160.0830  211.4570  143.2790 O   0  0  0  0  0  0  0  0  0  0  0  0
  159.5750  213.6230  144.0190 N   0  0  0  0  0  2  0  0  0  0  0  0
  159.9000  212.6700  142.9950 C   0  0  0  0  0  0  0  0  0  0  0  0
  159.9930  213.1050  141.5690 C   0  0  2  0  0  3  0  0  0  0  0  0
  158.6160  213.1930  140.9310 C   0  0  0  0  0  1  0  0  0  0  0  0
  160.9080  212.2140  140.7850 C   0  0  0  0  0  0  0  0  0  0  0  0
  162.8720  211.3150  139.8640 N   0  0  0  0  0  0  0  0  0  0  0  0
  163.0280  213.3230  141.1000 O   0  0  0  0  0  0  0  0  0  0  0  0
  162.3380  212.3800  140.6290 C   0  0  0  0  0  0  0  0  0  0  0  0
  161.8410  210.5790  139.5980 C   0  0  0  0  0  0  0  0  0  0  0  0
  160.5810  211.0900  140.1580 C   0  0  0  0  0  3  0  0  0  0  0  0
  161.9380  209.3810  138.8360 N   0  0  0  0  0  1  0  0  0  0  0  0
  1 14  1  1  0  0  0
  1  3  1  0  0  0  0
  2  3  2  0  0  0  0
  4  8  1  6  0  0  0
  4  2  1  0  0  0  0
  6  7  2  0  0  0  0
  7  8  1  0  0  0  0
  9  5  1  1  0  0  0
  9 11  1  0  0  0  0
  9  4  1  0  0  0  0
 10 23  1  1  0  0  0
 10  6  1  0  0  0  0
 10  5  1  0  0  0  0
 11  1  1  0  0  0  0
 12 17  1  0  0  0  0
 13 15  1  0  0  0  0
 14 12  2  0  0  0  0
 15 17  2  0  0  0  0
 15 18  1  0  0  0  0
 16 14  1  0  0  0  0
 16 13  2  0  0  0  0
 19 20  1  0  0  0  0
 19 18  1  0  0  0  0
 21 19  2  0  0  0  0
 23 22  1  6  0  0  0
 25 23  1  0  0  0  0
 26 24  2  0  0  0  0
 26 25  1  0  0  0  0
 27 28  1  6  0  0  0
 27 26  1  0  0  0  0
 29 27  1  0  0  0  0
 30 32  1  0  0  0  0
 32 29  1  0  0  0  0
 32 31  2  0  0  0  0
 33 30  2  0  0  0  0
 33 34  1  0  0  0  0
 34 29  2  0  0  0  0
 35 33  1  0  0  0  0
M  END
>  <MODEL>
8

>  <REMARK>
 VINA RESULT:      -6.8      5.176      7.710
  Name = 
  7 active torsions:
  status: ('A' for Active; 'I' for Inactive)
    1  A    between atoms: C_1  and  C_11
    2  A    between atoms: C_2  and  C_33
    3  A    between atoms: C_4  and  C_23
    4  A    between atoms: C_15  and  C_33
    5  A    between atoms: N_21  and  C_34
    6  A    between atoms: C_23  and  C_27
    7  A    between atoms: C_30  and  C_34
                            x       y       z     vdW  Elec       q    Type
                         _______ _______ _______ _____ _____    ______ ____

>  <TORSDO>
F 7

$$$$
=
 OpenBabel11072413063D

 35 38  0  0  1  0  0  0  0  0999 V2000
  161.2600  205.8860  147.7360 C   0  0  2  0  0  3  0  0  0  0  0  0
  163.0520  207.1610  148.7280 N   0  0  0  0  0  0  0  0  0  0  0  0
  162.7130  206.1520  148.0040 C   0  0  0  0  0  3  0  0  0  0  0  0
  162.0550  208.0680  149.2610 C   0  0  2  0  0  3  0  0  0  0  0  0
  161.0220  206.9430  151.2920 C   0  0  0  0  0  2  0  0  0  0  0  0
  160.7900  209.4470  151.7430 N   0  0  0  0  0  0  0  0  0  0  0  0
  161.6660  209.8900  150.9010 C   0  0  0  0  0  3  0  0  0  0  0  0
  162.7040  209.0190  150.2660 C   0  0  0  0  0  2  0  0  0  0  0  0
  160.8230  207.3080  149.8260 C   0  0  2  0  0  3  0  0  0  0  0  0
  160.7090  208.0900  152.2750 C   0  0  2  0  0  3  0  0  0  0  0  0
  160.4660  206.0340  149.0380 C   0  0  0  0  0  2  0  0  0  0  0  0
  161.0150  204.4190  145.7300 C   0  0  0  0  0  3  0  0  0  0  0  0
  160.7210  202.1390  147.3240 C   0  0  0  0  0  3  0  0  0  0  0  0
  161.0570  204.5360  147.1240 C   0  0  0  0  0  0  0  0  0  0  0  0
  160.6840  202.0270  145.9300 C   0  0  0  0  0  0  0  0  0  0  0  0
  160.9100  203.3900  147.9210 C   0  0  0  0  0  3  0  0  0  0  0  0
  160.8270  203.1690  145.1350 C   0  0  0  0  0  3  0  0  0  0  0  0
  160.4670  200.6960  145.2950 C   0  0  0  0  0  2  0  0  0  0  0  0
  161.2210  199.6370  146.0260 C   0  0  0  0  0  0  0  0  0  0  0  0
  161.5060  198.3970  145.3900 N   0  0  0  0  0  1  0  0  0  0  0  0
  161.5800  199.8290  147.2170 O   0  0  0  0  0  0  0  0  0  0  0  0
  161.5790  206.5580  154.1370 C   0  0  0  0  0  1  0  0  0  0  0  0
  161.4660  207.9810  153.6040 C   0  0  2  0  0  3  0  0  0  0  0  0
  162.6250  210.5410  154.4640 O   0  0  0  0  0  0  0  0  0  0  0  0
  160.9490  208.9070  154.6090 N   0  0  0  0  0  2  0  0  0  0  0  0
  161.5770  210.1290  155.0280 C   0  0  0  0  0  0  0  0  0  0  0  0
  160.9710  210.9460  156.1220 C   0  0  2  0  0  3  0  0  0  0  0  0
  160.2490  210.0660  157.1290 C   0  0  0  0  0  1  0  0  0  0  0  0
  160.0720  212.0120  155.5750 C   0  0  0  0  0  0  0  0  0  0  0  0
  158.9560  214.0640  155.3390 N   0  0  0  0  0  0  0  0  0  0  0  0
  160.2880  213.7240  157.2610 O   0  0  0  0  0  0  0  0  0  0  0  0
  159.8190  213.3080  156.1690 C   0  0  0  0  0  0  0  0  0  0  0  0
  158.7280  213.2800  154.3340 C   0  0  0  0  0  0  0  0  0  0  0  0
  159.4090  211.9800  154.4240 C   0  0  0  0  0  3  0  0  0  0  0  0
  157.8950  213.6620  153.2460 N   0  0  0  0  0  1  0  0  0  0  0  0
  1 14  1  1  0  0  0
  1  3  1  0  0  0  0
  1 11  1  0  0  0  0
  2  4  1  0  0  0  0
  3  2  2  0  0  0  0
  4  9  1  0  0  0  0
  4  8  1  1  0  0  0
  5 10  1  0  0  0  0
  6 10  1  0  0  0  0
  7  6  2  0  0  0  0
  8  7  1  0  0  0  0
  9 11  1  6  0  0  0
  9  5  1  0  0  0  0
 10 23  1  1  0  0  0
 12 14  1  0  0  0  0
 13 16  1  0  0  0  0
 14 16  2  0  0  0  0
 15 13  2  0  0  0  0
 17 12  2  0  0  0  0
 17 15  1  0  0  0  0
 18 15  1  0  0  0  0
 18 19  1  0  0  0  0
 19 21  2  0  0  0  0
 20 19  1  0  0  0  0
 23 22  1  1  0  0  0
 23 25  1  0  0  0  0
 24 26  2  0  0  0  0
 25 26  1  0  0  0  0
 26 27  1  0  0  0  0
 27 28  1  1  0  0  0
 29 27  1  0  0  0  0
 29 32  1  0  0  0  0
 30 32  1  0  0  0  0
 32 31  2  0  0  0  0
 33 34  1  0  0  0  0
 33 30  2  0  0  0  0
 34 29  2  0  0  0  0
 35 33  1  0  0  0  0
M  END
>  <MODEL>
9

>  <REMARK>
 VINA RESULT:      -6.7      3.143      5.500
  Name = 
  7 active torsions:
  status: ('A' for Active; 'I' for Inactive)
    1  A    between atoms: C_1  and  C_11
    2  A    between atoms: C_2  and  C_33
    3  A    between atoms: C_4  and  C_23
    4  A    between atoms: C_15  and  C_33
    5  A    between atoms: N_21  and  C_34
    6  A    between atoms: C_23  and  C_27
    7  A    between atoms: C_30  and  C_34
                            x       y       z     vdW  Elec       q    Type
                         _______ _______ _______ _____ _____    ______ ____

>  <TORSDO>
F 7

$$$$
