=
 OpenBabel11072411353D

 25 28  0  0  1  0  0  0  0  0999 V2000
  161.5500  202.9030  146.7520 C   0  0  0  0  0  3  0  0  0  0  0  0
  161.5030  201.4420  148.6880 N   0  0  0  0  0  1  0  0  0  0  0  0
  160.7780  203.5730  150.4090 C   0  0  0  0  0  2  0  0  0  0  0  0
  160.4560  204.7610  151.3100 C   0  0  0  0  0  2  0  0  0  0  0  0
  161.0350  205.2170  146.9500 N   0  0  0  0  0  0  0  0  0  0  0  0
  161.5050  205.8200  151.1830 C   0  0  0  0  0  0  0  0  0  0  0  0
  162.4290  205.8470  151.9800 O   0  0  0  0  0  0  0  0  0  0  0  0
  160.4060  206.3460  149.0150 C   0  0  0  0  0  2  0  0  0  0  0  0
  161.3350  202.7390  148.1190 C   0  0  0  0  0  0  0  0  0  0  0  0
  161.3950  204.1600  146.1800 C   0  0  0  0  0  0  0  0  0  0  0  0
  160.8140  205.1030  148.2880 C   0  0  0  0  0  0  0  0  0  0  0  0
  161.4710  206.7840  150.0240 C   0  0  1  0  0  3  0  0  0  0  0  0
  161.6120  204.3380  144.7860 N   0  0  0  0  0  1  0  0  0  0  0  0
  160.9640  203.8360  148.9220 C   0  0  0  0  0  0  0  0  0  0  0  0
  161.9430  209.2310  149.6550 C   0  0  0  0  0  2  0  0  0  0  0  0
  162.3870  210.2610  150.4940 O   0  0  0  0  0  0  0  0  0  0  0  0
  162.6630  209.6370  151.7190 C   0  0  0  0  0  2  0  0  0  0  0  0
  161.7200  208.4640  151.8850 C   0  0  2  0  0  3  0  0  0  0  0  0
  161.1910  208.2180  150.4970 C   0  0  2  0  0  3  0  0  0  0  0  0
  160.5670  208.8440  152.7970 C   0  0  0  0  0  2  0  0  0  0  0  0
  161.0820  209.1790  154.1870 C   0  0  0  0  0  2  0  0  0  0  0  0
  161.0790  207.9410  155.0660 C   0  0  0  0  0  2  0  0  0  0  0  0
  160.1120  208.1130  156.2230 C   0  0  1  0  0  3  0  0  0  0  0  0
  159.2930  206.9720  156.3070 O   0  0  0  0  0  0  0  0  0  0  0  0
  160.3480  207.0610  157.2330 C   0  0  0  0  0  2  0  0  0  0  0  0
  1  9  1  0  0  0  0
  3  4  1  0  0  0  0
  5 11  2  0  0  0  0
  6  4  1  0  0  0  0
  6  7  2  0  0  0  0
  9  2  1  0  0  0  0
  9 14  2  0  0  0  0
 10  1  2  0  0  0  0
 10  5  1  0  0  0  0
 11 14  1  0  0  0  0
 11  8  1  0  0  0  0
 12  8  1  6  0  0  0
 12 19  1  0  0  0  0
 12  6  1  0  0  0  0
 13 10  1  0  0  0  0
 14  3  1  0  0  0  0
 15 16  1  0  0  0  0
 16 17  1  0  0  0  0
 17 18  1  0  0  0  0
 18 20  1  1  0  0  0
 19 15  1  6  0  0  0
 19 18  1  0  0  0  0
 20 21  1  0  0  0  0
 21 22  1  0  0  0  0
 23 22  1  6  0  0  0
 23 24  1  0  0  0  0
 23 25  1  0  0  0  0
 24 25  1  0  0  0  0
M  END
>  <MODEL>
1

>  <REMARK>
 VINA RESULT:      -8.1      0.000      0.000
  Name = 
  5 active torsions:
  status: ('A' for Active; 'I' for Inactive)
    1  A    between atoms: C_3  and  C_9
    2  A    between atoms: C_9  and  C_21
    3  A    between atoms: C_11  and  C_19
    4  A    between atoms: C_11  and  C_21
    5  A    between atoms: C_22  and  C_25
                            x       y       z     vdW  Elec       q    Type
                         _______ _______ _______ _____ _____    ______ ____

>  <TORSDO>
F 5

$$$$
=
 OpenBabel11072411353D

 25 28  0  0  1  0  0  0  0  0999 V2000
  160.1660  210.3760  153.7910 C   0  0  0  0  0  3  0  0  0  0  0  0
  160.1390  208.6220  155.4660 N   0  0  0  0  0  1  0  0  0  0  0  0
  161.4440  206.8020  153.7300 C   0  0  0  0  0  2  0  0  0  0  0  0
  162.0840  205.8340  152.7400 C   0  0  0  0  0  2  0  0  0  0  0  0
  161.1350  210.0130  151.6500 N   0  0  0  0  0  0  0  0  0  0  0  0
  161.2520  205.7160  151.5030 C   0  0  0  0  0  0  0  0  0  0  0  0
  160.4420  204.8080  151.4100 O   0  0  0  0  0  0  0  0  0  0  0  0
  162.1900  207.9430  150.9170 C   0  0  0  0  0  2  0  0  0  0  0  0
  160.4920  209.0730  154.1600 C   0  0  0  0  0  0  0  0  0  0  0  0
  160.4970  210.8330  152.5210 C   0  0  0  0  0  0  0  0  0  0  0  0
  161.4740  208.7340  151.9670 C   0  0  0  0  0  0  0  0  0  0  0  0
  161.3450  206.7660  150.4240 C   0  0  1  0  0  3  0  0  0  0  0  0
  160.1680  212.1620  152.1360 N   0  0  0  0  0  1  0  0  0  0  0  0
  161.1520  208.2180  153.2550 C   0  0  0  0  0  0  0  0  0  0  0  0
  162.2390  207.2850  148.1270 C   0  0  0  0  0  2  0  0  0  0  0  0
  161.9390  206.8030  146.8460 O   0  0  0  0  0  0  0  0  0  0  0  0
  160.8530  205.9360  147.0330 C   0  0  0  0  0  2  0  0  0  0  0  0
  160.9680  205.3060  148.4050 C   0  0  2  0  0  3  0  0  0  0  0  0
  161.9460  206.1890  149.1340 C   0  0  2  0  0  3  0  0  0  0  0  0
  161.5480  203.9070  148.2920 C   0  0  0  0  0  2  0  0  0  0  0  0
  160.6760  202.9120  149.0400 C   0  0  0  0  0  2  0  0  0  0  0  0
  160.2930  201.7570  148.1320 C   0  0  0  0  0  2  0  0  0  0  0  0
  161.1590  201.7520  146.8860 C   0  0  1  0  0  3  0  0  0  0  0  0
  161.0850  200.4820  146.2850 O   0  0  0  0  0  0  0  0  0  0  0  0
  160.3200  201.5050  145.6950 C   0  0  0  0  0  2  0  0  0  0  0  0
  1  9  1  0  0  0  0
  4  3  1  0  0  0  0
  5 11  2  0  0  0  0
  5 10  1  0  0  0  0
  6  4  1  0  0  0  0
  7  6  2  0  0  0  0
  8 11  1  0  0  0  0
  9  2  1  0  0  0  0
 10  1  2  0  0  0  0
 11 14  1  0  0  0  0
 12  8  1  1  0  0  0
 12  6  1  0  0  0  0
 13 10  1  0  0  0  0
 14  3  1  0  0  0  0
 14  9  2  0  0  0  0
 16 17  1  0  0  0  0
 16 15  1  0  0  0  0
 17 18  1  0  0  0  0
 18 20  1  6  0  0  0
 18 19  1  0  0  0  0
 19 15  1  6  0  0  0
 19 12  1  0  0  0  0
 20 21  1  0  0  0  0
 22 21  1  0  0  0  0
 23 22  1  1  0  0  0
 24 23  1  0  0  0  0
 25 24  1  0  0  0  0
 25 23  1  0  0  0  0
M  END
>  <MODEL>
2

>  <REMARK>
 VINA RESULT:      -8.1      3.651      7.421
  Name = 
  5 active torsions:
  status: ('A' for Active; 'I' for Inactive)
    1  A    between atoms: C_3  and  C_9
    2  A    between atoms: C_9  and  C_21
    3  A    between atoms: C_11  and  C_19
    4  A    between atoms: C_11  and  C_21
    5  A    between atoms: C_22  and  C_25
                            x       y       z     vdW  Elec       q    Type
                         _______ _______ _______ _____ _____    ______ ____

>  <TORSDO>
F 5

$$$$
=
 OpenBabel11072411353D

 25 28  0  0  1  0  0  0  0  0999 V2000
  158.2890  212.0610  154.1830 C   0  0  0  0  0  3  0  0  0  0  0  0
  158.5040  211.1780  156.4320 N   0  0  0  0  0  1  0  0  0  0  0  0
  160.4890  209.3240  155.6260 C   0  0  0  0  0  2  0  0  0  0  0  0
  161.5040  208.2960  155.1370 C   0  0  0  0  0  2  0  0  0  0  0  0
  159.6160  211.2120  152.4010 N   0  0  0  0  0  0  0  0  0  0  0  0
  160.9210  207.4570  154.0440 C   0  0  0  0  0  0  0  0  0  0  0  0
  160.4120  206.3830  154.3200 O   0  0  0  0  0  0  0  0  0  0  0  0
  161.2890  209.4530  152.6070 C   0  0  0  0  0  2  0  0  0  0  0  0
  158.9030  211.1720  155.0630 C   0  0  0  0  0  0  0  0  0  0  0  0
  158.6610  212.0660  152.8440 C   0  0  0  0  0  0  0  0  0  0  0  0
  160.2410  210.3280  153.2240 C   0  0  0  0  0  0  0  0  0  0  0  0
  160.8760  207.9790  152.6290 C   0  0  1  0  0  3  0  0  0  0  0  0
  158.0400  212.9700  151.9380 N   0  0  0  0  0  1  0  0  0  0  0  0
  159.8930  210.2800  154.6040 C   0  0  0  0  0  0  0  0  0  0  0  0
  162.4030  208.0370  150.6270 C   0  0  0  0  0  2  0  0  0  0  0  0
  162.4540  207.3030  149.4350 O   0  0  0  0  0  0  0  0  0  0  0  0
  161.3210  206.4770  149.4710 C   0  0  0  0  0  2  0  0  0  0  0  0
  161.0170  206.1370  150.9150 C   0  0  2  0  0  3  0  0  0  0  0  0
  161.7900  207.1620  151.7030 C   0  0  2  0  0  3  0  0  0  0  0  0
  161.5420  204.7530  151.2500 C   0  0  0  0  0  2  0  0  0  0  0  0
  160.4440  203.7160  151.0780 C   0  0  0  0  0  2  0  0  0  0  0  0
  161.0370  202.3780  150.6760 C   0  0  0  0  0  2  0  0  0  0  0  0
  160.2880  201.7990  149.4910 C   0  0  1  0  0  3  0  0  0  0  0  0
  160.8720  202.2780  148.3040 O   0  0  0  0  0  0  0  0  0  0  0  0
  161.1990  200.9630  148.6820 C   0  0  0  0  0  2  0  0  0  0  0  0
  1  9  1  0  0  0  0
  4  3  1  0  0  0  0
  5 10  1  0  0  0  0
  5 11  2  0  0  0  0
  6  7  2  0  0  0  0
  6  4  1  0  0  0  0
  8 11  1  0  0  0  0
  9  2  1  0  0  0  0
 10  1  2  0  0  0  0
 11 14  1  0  0  0  0
 12  8  1  1  0  0  0
 12  6  1  0  0  0  0
 13 10  1  0  0  0  0
 14  9  2  0  0  0  0
 14  3  1  0  0  0  0
 16 17  1  0  0  0  0
 16 15  1  0  0  0  0
 17 18  1  0  0  0  0
 18 20  1  1  0  0  0
 18 19  1  0  0  0  0
 19 15  1  6  0  0  0
 19 12  1  0  0  0  0
 21 20  1  0  0  0  0
 22 21  1  0  0  0  0
 23 22  1  1  0  0  0
 24 25  1  0  0  0  0
 24 23  1  0  0  0  0
 25 23  1  0  0  0  0
M  END
>  <MODEL>
3

>  <REMARK>
 VINA RESULT:      -8.0      4.006      7.647
  Name = 
  5 active torsions:
  status: ('A' for Active; 'I' for Inactive)
    1  A    between atoms: C_3  and  C_9
    2  A    between atoms: C_9  and  C_21
    3  A    between atoms: C_11  and  C_19
    4  A    between atoms: C_11  and  C_21
    5  A    between atoms: C_22  and  C_25
                            x       y       z     vdW  Elec       q    Type
                         _______ _______ _______ _____ _____    ______ ____

>  <TORSDO>
F 5

$$$$
=
 OpenBabel11072411353D

 25 28  0  0  1  0  0  0  0  0999 V2000
  161.5110  203.6710  146.5760 C   0  0  0  0  0  3  0  0  0  0  0  0
  160.9620  201.8030  148.0210 N   0  0  0  0  0  1  0  0  0  0  0  0
  160.6440  203.5000  150.2680 C   0  0  0  0  0  2  0  0  0  0  0  0
  160.5500  204.4410  151.4650 C   0  0  0  0  0  2  0  0  0  0  0  0
  161.5580  205.8970  147.4130 N   0  0  0  0  0  0  0  0  0  0  0  0
  161.8310  205.1920  151.6480 C   0  0  0  0  0  0  0  0  0  0  0  0
  162.6700  204.7670  152.4250 O   0  0  0  0  0  0  0  0  0  0  0  0
  161.0630  206.5470  149.7090 C   0  0  0  0  0  2  0  0  0  0  0  0
  161.1570  203.2030  147.8400 C   0  0  0  0  0  0  0  0  0  0  0  0
  161.7090  205.0330  146.3790 C   0  0  0  0  0  0  0  0  0  0  0  0
  161.2130  205.4850  148.6630 C   0  0  0  0  0  0  0  0  0  0  0  0
  162.1220  206.4100  150.8060 C   0  0  1  0  0  3  0  0  0  0  0  0
  162.0710  205.5200  145.0930 N   0  0  0  0  0  1  0  0  0  0  0  0
  161.0020  204.1000  148.9160 C   0  0  0  0  0  0  0  0  0  0  0  0
  161.5140  207.4580  153.0140 C   0  0  0  0  0  2  0  0  0  0  0  0
  160.8080  208.6160  153.3670 O   0  0  0  0  0  0  0  0  0  0  0  0
  160.3390  209.1370  152.1530 C   0  0  0  0  0  2  0  0  0  0  0  0
  161.3300  208.7880  151.0630 C   0  0  2  0  0  3  0  0  0  0  0  0
  162.1610  207.6840  151.6620 C   0  0  2  0  0  3  0  0  0  0  0  0
  162.2240  209.9790  150.7660 C   0  0  0  0  0  2  0  0  0  0  0  0
  162.2480  210.2620  149.2730 C   0  0  0  0  0  2  0  0  0  0  0  0
  161.9380  211.7240  149.0060 C   0  0  0  0  0  2  0  0  0  0  0  0
  162.9040  212.2930  147.9830 C   0  0  1  0  0  3  0  0  0  0  0  0
  162.1680  212.8290  146.9100 O   0  0  0  0  0  0  0  0  0  0  0  0
  162.6850  213.7470  147.8420 C   0  0  0  0  0  2  0  0  0  0  0  0
  1  9  1  0  0  0  0
  3  4  1  0  0  0  0
  4  6  1  0  0  0  0
  5 11  2  0  0  0  0
  6  7  2  0  0  0  0
  9  2  1  0  0  0  0
  9 14  2  0  0  0  0
 10  1  2  0  0  0  0
 10  5  1  0  0  0  0
 11 14  1  0  0  0  0
 11  8  1  0  0  0  0
 12  8  1  6  0  0  0
 12  6  1  0  0  0  0
 12 19  1  0  0  0  0
 13 10  1  0  0  0  0
 14  3  1  0  0  0  0
 15 16  1  0  0  0  0
 17 16  1  0  0  0  0
 18 20  1  1  0  0  0
 18 19  1  0  0  0  0
 18 17  1  0  0  0  0
 19 15  1  1  0  0  0
 21 20  1  0  0  0  0
 22 21  1  0  0  0  0
 23 22  1  1  0  0  0
 24 25  1  0  0  0  0
 24 23  1  0  0  0  0
 25 23  1  0  0  0  0
M  END
>  <MODEL>
4

>  <REMARK>
 VINA RESULT:      -7.9      1.916      4.458
  Name = 
  5 active torsions:
  status: ('A' for Active; 'I' for Inactive)
    1  A    between atoms: C_3  and  C_9
    2  A    between atoms: C_9  and  C_21
    3  A    between atoms: C_11  and  C_19
    4  A    between atoms: C_11  and  C_21
    5  A    between atoms: C_22  and  C_25
                            x       y       z     vdW  Elec       q    Type
                         _______ _______ _______ _____ _____    ______ ____

>  <TORSDO>
F 5

$$$$
=
 OpenBabel11072411353D

 25 28  0  0  1  0  0  0  0  0999 V2000
  161.5780  203.3140  146.3570 C   0  0  0  0  0  3  0  0  0  0  0  0
  161.5890  201.6860  148.1560 N   0  0  0  0  0  1  0  0  0  0  0  0
  160.8580  203.6440  150.0700 C   0  0  0  0  0  2  0  0  0  0  0  0
  160.5320  204.7400  151.0790 C   0  0  0  0  0  2  0  0  0  0  0  0
  161.0280  205.5910  146.7680 N   0  0  0  0  0  0  0  0  0  0  0  0
  161.5610  205.8260  151.0300 C   0  0  0  0  0  0  0  0  0  0  0  0
  162.4980  205.7990  151.8110 O   0  0  0  0  0  0  0  0  0  0  0  0
  160.4160  206.5210  148.9350 C   0  0  0  0  0  2  0  0  0  0  0  0
  161.3890  203.0250  147.7080 C   0  0  0  0  0  0  0  0  0  0  0  0
  161.3920  204.6140  145.9020 C   0  0  0  0  0  0  0  0  0  0  0  0
  160.8320  205.3550  148.0930 C   0  0  0  0  0  0  0  0  0  0  0  0
  161.4910  206.8880  149.9610 C   0  0  1  0  0  3  0  0  0  0  0  0
  161.5820  204.9180  144.5260 N   0  0  0  0  0  1  0  0  0  0  0  0
  161.0140  204.0410  148.6100 C   0  0  0  0  0  0  0  0  0  0  0  0
  161.8790  209.3700  149.7770 C   0  0  0  0  0  2  0  0  0  0  0  0
  162.3340  210.3420  150.6780 O   0  0  0  0  0  0  0  0  0  0  0  0
  162.6830  209.6280  151.8330 C   0  0  0  0  0  2  0  0  0  0  0  0
  161.7810  208.4170  151.9430 C   0  0  2  0  0  3  0  0  0  0  0  0
  161.1940  208.2690  150.5640 C   0  0  2  0  0  3  0  0  0  0  0  0
  160.6620  208.6850  152.9340 C   0  0  0  0  0  2  0  0  0  0  0  0
  161.1360  209.6370  154.0200 C   0  0  0  0  0  2  0  0  0  0  0  0
  160.0950  210.7130  154.2720 C   0  0  0  0  0  2  0  0  0  0  0  0
  159.5160  211.2090  152.9590 C   0  0  1  0  0  3  0  0  0  0  0  0
  158.1840  211.6090  153.1710 O   0  0  0  0  0  0  0  0  0  0  0  0
  159.1440  212.6340  153.0830 C   0  0  0  0  0  2  0  0  0  0  0  0
  1  9  1  0  0  0  0
  3  4  1  0  0  0  0
  5 11  2  0  0  0  0
  6  4  1  0  0  0  0
  6  7  2  0  0  0  0
  9  2  1  0  0  0  0
  9 14  2  0  0  0  0
 10  1  2  0  0  0  0
 10  5  1  0  0  0  0
 11 14  1  0  0  0  0
 11  8  1  0  0  0  0
 12  8  1  6  0  0  0
 12 19  1  0  0  0  0
 12  6  1  0  0  0  0
 13 10  1  0  0  0  0
 14  3  1  0  0  0  0
 15 16  1  0  0  0  0
 16 17  1  0  0  0  0
 17 18  1  0  0  0  0
 18 20  1  1  0  0  0
 19 15  1  6  0  0  0
 19 18  1  0  0  0  0
 20 21  1  0  0  0  0
 21 22  1  0  0  0  0
 23 25  1  0  0  0  0
 23 24  1  0  0  0  0
 23 22  1  1  0  0  0
 25 24  1  0  0  0  0
M  END
>  <MODEL>
5

>  <REMARK>
 VINA RESULT:      -7.8      1.605      2.144
  Name = 
  5 active torsions:
  status: ('A' for Active; 'I' for Inactive)
    1  A    between atoms: C_3  and  C_9
    2  A    between atoms: C_9  and  C_21
    3  A    between atoms: C_11  and  C_19
    4  A    between atoms: C_11  and  C_21
    5  A    between atoms: C_22  and  C_25
                            x       y       z     vdW  Elec       q    Type
                         _______ _______ _______ _____ _____    ______ ____

>  <TORSDO>
F 5

$$$$
=
 OpenBabel11072411353D

 25 28  0  0  1  0  0  0  0  0999 V2000
  160.4540  200.9530  148.2810 C   0  0  0  0  0  3  0  0  0  0  0  0
  161.1610  201.2890  145.9850 N   0  0  0  0  0  1  0  0  0  0  0  0
  161.9120  203.9720  146.5000 C   0  0  0  0  0  2  0  0  0  0  0  0
  162.2400  205.4300  146.8030 C   0  0  0  0  0  2  0  0  0  0  0  0
  160.6330  202.6980  149.8870 N   0  0  0  0  0  0  0  0  0  0  0  0
  161.0370  206.1410  147.3390 C   0  0  0  0  0  0  0  0  0  0  0  0
  160.3230  206.7700  146.5760 O   0  0  0  0  0  0  0  0  0  0  0  0
  161.5250  204.9230  149.4520 C   0  0  0  0  0  2  0  0  0  0  0  0
  160.9930  201.7930  147.3080 C   0  0  0  0  0  0  0  0  0  0  0  0
  160.2790  201.4270  149.5750 C   0  0  0  0  0  0  0  0  0  0  0  0
  161.1630  203.5520  148.9700 C   0  0  0  0  0  0  0  0  0  0  0  0
  160.6590  205.9990  148.7930 C   0  0  1  0  0  3  0  0  0  0  0  0
  159.7290  200.5780  150.5750 N   0  0  0  0  0  1  0  0  0  0  0  0
  161.3590  203.1150  147.6290 C   0  0  0  0  0  0  0  0  0  0  0  0
  161.5810  208.3420  148.7150 C   0  0  0  0  0  2  0  0  0  0  0  0
  162.4090  209.0780  149.5720 O   0  0  0  0  0  0  0  0  0  0  0  0
  162.7840  208.1750  150.5770 C   0  0  0  0  0  2  0  0  0  0  0  0
  161.6560  207.1840  150.7800 C   0  0  2  0  0  3  0  0  0  0  0  0
  160.8110  207.3310  149.5430 C   0  0  2  0  0  3  0  0  0  0  0  0
  160.8320  207.5700  151.9950 C   0  0  0  0  0  2  0  0  0  0  0  0
  161.0600  206.5790  153.1250 C   0  0  0  0  0  2  0  0  0  0  0  0
  160.9750  207.2790  154.4690 C   0  0  0  0  0  2  0  0  0  0  0  0
  161.1010  208.7810  154.2940 C   0  0  1  0  0  3  0  0  0  0  0  0
  160.0820  209.4130  155.0300 O   0  0  0  0  0  0  0  0  0  0  0  0
  161.3680  209.4160  155.6020 C   0  0  0  0  0  2  0  0  0  0  0  0
  1 10  1  0  0  0  0
  2  9  1  0  0  0  0
  3  4  1  0  0  0  0
  3 14  1  0  0  0  0
  4  6  1  0  0  0  0
  6 12  1  0  0  0  0
  7  6  2  0  0  0  0
  9 14  1  0  0  0  0
  9  1  2  0  0  0  0
 10  5  2  0  0  0  0
 10 13  1  0  0  0  0
 11  8  1  0  0  0  0
 11  5  1  0  0  0  0
 12  8  1  1  0  0  0
 12 19  1  0  0  0  0
 14 11  2  0  0  0  0
 15 16  1  0  0  0  0
 16 17  1  0  0  0  0
 17 18  1  0  0  0  0
 18 20  1  1  0  0  0
 19 15  1  6  0  0  0
 19 18  1  0  0  0  0
 20 21  1  0  0  0  0
 21 22  1  0  0  0  0
 23 22  1  1  0  0  0
 23 24  1  0  0  0  0
 23 25  1  0  0  0  0
 24 25  1  0  0  0  0
M  END
>  <MODEL>
6

>  <REMARK>
 VINA RESULT:      -7.7      1.945      3.167
  Name = 
  5 active torsions:
  status: ('A' for Active; 'I' for Inactive)
    1  A    between atoms: C_3  and  C_9
    2  A    between atoms: C_9  and  C_21
    3  A    between atoms: C_11  and  C_19
    4  A    between atoms: C_11  and  C_21
    5  A    between atoms: C_22  and  C_25
                            x       y       z     vdW  Elec       q    Type
                         _______ _______ _______ _____ _____    ______ ____

>  <TORSDO>
F 5

$$$$
=
 OpenBabel11072411353D

 25 28  0  0  1  0  0  0  0  0999 V2000
  161.8770  208.2450  152.6600 C   0  0  0  0  0  3  0  0  0  0  0  0
  162.3210  209.4900  150.6260 N   0  0  0  0  0  1  0  0  0  0  0  0
  161.2220  207.4390  149.0080 C   0  0  0  0  0  2  0  0  0  0  0  0
  160.6850  206.2830  148.1710 C   0  0  0  0  0  2  0  0  0  0  0  0
  160.8310  206.1100  152.5870 N   0  0  0  0  0  0  0  0  0  0  0  0
  161.4340  205.0230  148.4690 C   0  0  0  0  0  0  0  0  0  0  0  0
  162.3770  204.7050  147.7630 O   0  0  0  0  0  0  0  0  0  0  0  0
  160.0920  204.9740  150.5620 C   0  0  0  0  0  2  0  0  0  0  0  0
  161.8040  208.3280  151.2700 C   0  0  0  0  0  0  0  0  0  0  0  0
  161.3820  207.1190  153.3060 C   0  0  0  0  0  0  0  0  0  0  0  0
  160.7380  206.1480  151.2300 C   0  0  0  0  0  0  0  0  0  0  0  0
  161.0870  204.2050  149.6880 C   0  0  1  0  0  3  0  0  0  0  0  0
  161.4520  207.0250  154.7230 N   0  0  0  0  0  1  0  0  0  0  0  0
  161.2340  207.2790  150.5210 C   0  0  0  0  0  0  0  0  0  0  0  0
  160.7340  201.8120  150.3880 C   0  0  0  0  0  2  0  0  0  0  0  0
  161.0170  200.5810  149.7810 O   0  0  0  0  0  0  0  0  0  0  0  0
  161.7080  200.9080  148.6060 C   0  0  0  0  0  2  0  0  0  0  0  0
  161.2050  202.2470  148.1080 C   0  0  2  0  0  3  0  0  0  0  0  0
  160.5000  202.8410  149.2990 C   0  0  2  0  0  3  0  0  0  0  0  0
  160.2030  202.0460  146.9850 C   0  0  0  0  0  2  0  0  0  0  0  0
  160.8880  202.1860  145.6350 C   0  0  0  0  0  2  0  0  0  0  0  0
  160.3400  203.3870  144.8860 C   0  0  0  0  0  2  0  0  0  0  0  0
  161.3560  204.5140  144.8720 C   0  0  1  0  0  3  0  0  0  0  0  0
  161.2050  205.2490  143.6820 O   0  0  0  0  0  0  0  0  0  0  0  0
  160.6590  205.8160  144.8480 C   0  0  0  0  0  2  0  0  0  0  0  0
  1 10  1  0  0  0  0
  2  9  1  0  0  0  0
  3 14  1  0  0  0  0
  4  6  1  0  0  0  0
  4  3  1  0  0  0  0
  5 10  2  0  0  0  0
  6 12  1  0  0  0  0
  7  6  2  0  0  0  0
  8 11  1  0  0  0  0
  9  1  2  0  0  0  0
 10 13  1  0  0  0  0
 11  5  1  0  0  0  0
 12  8  1  1  0  0  0
 14 11  2  0  0  0  0
 14  9  1  0  0  0  0
 16 15  1  0  0  0  0
 17 16  1  0  0  0  0
 18 20  1  6  0  0  0
 18 17  1  0  0  0  0
 18 19  1  0  0  0  0
 19 12  1  0  0  0  0
 19 15  1  1  0  0  0
 21 20  1  0  0  0  0
 22 21  1  0  0  0  0
 23 22  1  6  0  0  0
 24 25  1  0  0  0  0
 24 23  1  0  0  0  0
 25 23  1  0  0  0  0
M  END
>  <MODEL>
7

>  <REMARK>
 VINA RESULT:      -7.5      3.628      7.949
  Name = 
  5 active torsions:
  status: ('A' for Active; 'I' for Inactive)
    1  A    between atoms: C_3  and  C_9
    2  A    between atoms: C_9  and  C_21
    3  A    between atoms: C_11  and  C_19
    4  A    between atoms: C_11  and  C_21
    5  A    between atoms: C_22  and  C_25
                            x       y       z     vdW  Elec       q    Type
                         _______ _______ _______ _____ _____    ______ ____

>  <TORSDO>
F 5

$$$$
=
 OpenBabel11072411353D

 25 28  0  0  1  0  0  0  0  0999 V2000
  160.8340  204.5690  148.7550 C   0  0  0  0  0  3  0  0  0  0  0  0
  161.1920  206.5790  147.4470 N   0  0  0  0  0  1  0  0  0  0  0  0
  161.9410  208.0630  149.7420 C   0  0  0  0  0  2  0  0  0  0  0  0
  162.2710  208.8430  151.0110 C   0  0  0  0  0  2  0  0  0  0  0  0
  161.1990  204.5540  151.1060 N   0  0  0  0  0  0  0  0  0  0  0  0
  161.1410  208.7630  151.9880 C   0  0  0  0  0  0  0  0  0  0  0  0
  160.3080  209.6540  152.0140 O   0  0  0  0  0  0  0  0  0  0  0  0
  161.9620  206.4560  152.4220 C   0  0  0  0  0  2  0  0  0  0  0  0
  161.2050  205.9110  148.7060 C   0  0  0  0  0  0  0  0  0  0  0  0
  160.8360  203.9010  149.9740 C   0  0  0  0  0  0  0  0  0  0  0  0
  161.5690  205.8630  151.1050 C   0  0  0  0  0  0  0  0  0  0  0  0
  160.9810  207.5460  152.8640 C   0  0  1  0  0  3  0  0  0  0  0  0
  160.4590  202.5310  150.0340 N   0  0  0  0  0  1  0  0  0  0  0  0
  161.5790  206.5920  149.8820 C   0  0  0  0  0  0  0  0  0  0  0  0
  160.5590  206.8600  155.2510 C   0  0  0  0  0  2  0  0  0  0  0  0
  160.0210  207.5230  156.3610 O   0  0  0  0  0  0  0  0  0  0  0  0
  159.6040  208.7680  155.8710 C   0  0  0  0  0  2  0  0  0  0  0  0
  160.5200  209.1710  154.7340 C   0  0  2  0  0  3  0  0  0  0  0  0
  161.2060  207.8880  154.3440 C   0  0  2  0  0  3  0  0  0  0  0  0
  161.5590  210.1640  155.2240 C   0  0  0  0  0  2  0  0  0  0  0  0
  160.8890  211.4550  155.6620 C   0  0  0  0  0  2  0  0  0  0  0  0
  160.0810  212.0460  154.5210 C   0  0  0  0  0  2  0  0  0  0  0  0
  158.6830  212.4040  154.9910 C   0  0  1  0  0  3  0  0  0  0  0  0
  158.0300  213.1220  153.9720 O   0  0  0  0  0  0  0  0  0  0  0  0
  157.6810  211.7660  154.1120 C   0  0  0  0  0  2  0  0  0  0  0  0
  1 10  1  0  0  0  0
  2  9  1  0  0  0  0
  3 14  1  0  0  0  0
  3  4  1  0  0  0  0
  4  6  1  0  0  0  0
  6  7  2  0  0  0  0
  6 12  1  0  0  0  0
  9  1  2  0  0  0  0
  9 14  1  0  0  0  0
 10 13  1  0  0  0  0
 10  5  2  0  0  0  0
 11  5  1  0  0  0  0
 11  8  1  0  0  0  0
 12  8  1  6  0  0  0
 12 19  1  0  0  0  0
 14 11  2  0  0  0  0
 15 16  1  0  0  0  0
 17 16  1  0  0  0  0
 18 20  1  1  0  0  0
 18 17  1  0  0  0  0
 19 18  1  0  0  0  0
 19 15  1  1  0  0  0
 20 21  1  0  0  0  0
 22 21  1  0  0  0  0
 23 22  1  6  0  0  0
 24 25  1  0  0  0  0
 24 23  1  0  0  0  0
 25 23  1  0  0  0  0
M  END
>  <MODEL>
8

>  <REMARK>
 VINA RESULT:      -7.4      2.324      4.474
  Name = 
  5 active torsions:
  status: ('A' for Active; 'I' for Inactive)
    1  A    between atoms: C_3  and  C_9
    2  A    between atoms: C_9  and  C_21
    3  A    between atoms: C_11  and  C_19
    4  A    between atoms: C_11  and  C_21
    5  A    between atoms: C_22  and  C_25
                            x       y       z     vdW  Elec       q    Type
                         _______ _______ _______ _____ _____    ______ ____

>  <TORSDO>
F 5

$$$$
=
 OpenBabel11072411353D

 25 28  0  0  1  0  0  0  0  0999 V2000
  160.2320  209.2310  156.5340 C   0  0  0  0  0  3  0  0  0  0  0  0
  160.3210  211.5570  155.8510 N   0  0  0  0  0  1  0  0  0  0  0  0
  160.6100  210.8520  153.1220 C   0  0  0  0  0  2  0  0  0  0  0  0
  160.8330  210.4290  151.6730 C   0  0  0  0  0  2  0  0  0  0  0  0
  160.3750  207.4770  154.9330 N   0  0  0  0  0  0  0  0  0  0  0  0
  162.0430  209.5570  151.5590 C   0  0  0  0  0  0  0  0  0  0  0  0
  163.1170  210.0580  151.2650 O   0  0  0  0  0  0  0  0  0  0  0  0
  160.5940  207.7840  152.5270 C   0  0  0  0  0  2  0  0  0  0  0  0
  160.3390  210.1720  155.5120 C   0  0  0  0  0  0  0  0  0  0  0  0
  160.2530  207.8760  156.2240 C   0  0  0  0  0  0  0  0  0  0  0  0
  160.4810  208.3600  153.9040 C   0  0  0  0  0  0  0  0  0  0  0  0
  161.9550  208.0900  151.8970 C   0  0  1  0  0  3  0  0  0  0  0  0
  160.1440  206.9090  157.2600 N   0  0  0  0  0  1  0  0  0  0  0  0
  160.4690  209.7590  154.1700 C   0  0  0  0  0  0  0  0  0  0  0  0
  162.1500  208.0490  149.3860 C   0  0  0  0  0  2  0  0  0  0  0  0
  161.5020  207.3160  148.3830 O   0  0  0  0  0  0  0  0  0  0  0  0
  160.5240  206.5690  149.0560 C   0  0  0  0  0  2  0  0  0  0  0  0
  161.0340  206.2480  150.4460 C   0  0  2  0  0  3  0  0  0  0  0  0
  162.1690  207.2150  150.6530 C   0  0  2  0  0  3  0  0  0  0  0  0
  161.5730  204.8290  150.4910 C   0  0  0  0  0  2  0  0  0  0  0  0
  160.4600  203.8520  150.8300 C   0  0  0  0  0  2  0  0  0  0  0  0
  160.8940  202.4290  150.5270 C   0  0  0  0  0  2  0  0  0  0  0  0
  160.3190  201.9690  149.2010 C   0  0  1  0  0  3  0  0  0  0  0  0
  161.2200  202.3040  148.1730 O   0  0  0  0  0  0  0  0  0  0  0  0
  161.2110  200.9610  148.5910 C   0  0  0  0  0  2  0  0  0  0  0  0
  3 14  1  0  0  0  0
  4  3  1  0  0  0  0
  5 10  2  0  0  0  0
  6  4  1  0  0  0  0
  6 12  1  0  0  0  0
  7  6  2  0  0  0  0
  8 11  1  0  0  0  0
  9  2  1  0  0  0  0
  9  1  2  0  0  0  0
 10  1  1  0  0  0  0
 10 13  1  0  0  0  0
 11 14  2  0  0  0  0
 11  5  1  0  0  0  0
 12  8  1  6  0  0  0
 14  9  1  0  0  0  0
 16 17  1  0  0  0  0
 16 15  1  0  0  0  0
 17 18  1  0  0  0  0
 18 20  1  6  0  0  0
 18 19  1  0  0  0  0
 19 15  1  6  0  0  0
 19 12  1  0  0  0  0
 20 21  1  0  0  0  0
 22 21  1  0  0  0  0
 23 22  1  1  0  0  0
 24 25  1  0  0  0  0
 24 23  1  0  0  0  0
 25 23  1  0  0  0  0
M  END
>  <MODEL>
9

>  <REMARK>
 VINA RESULT:      -7.4      3.854      7.628
  Name = 
  5 active torsions:
  status: ('A' for Active; 'I' for Inactive)
    1  A    between atoms: C_3  and  C_9
    2  A    between atoms: C_9  and  C_21
    3  A    between atoms: C_11  and  C_19
    4  A    between atoms: C_11  and  C_21
    5  A    between atoms: C_22  and  C_25
                            x       y       z     vdW  Elec       q    Type
                         _______ _______ _______ _____ _____    ______ ____

>  <TORSDO>
F 5

$$$$
