=
 OpenBabel11072412273D

 33 37  0  0  1  0  0  0  0  0999 V2000
  160.7990  208.1450  154.2070 C   0  0  0  0  0  0  0  0  0  0  0  0
  161.4520  210.0970  155.5770 C   0  0  0  0  0  1  0  0  0  0  0  0
  159.9980  212.2800  151.2060 C   0  0  0  0  0  0  0  0  0  0  0  0
  160.6460  209.4850  152.3360 C   0  0  0  0  0  0  0  0  0  0  0  0
  161.3930  206.9850  152.1570 C   0  0  0  0  0  0  0  0  0  0  0  0
  160.8910  211.4020  150.7020 C   0  0  0  0  0  0  0  0  0  0  0  0
  160.3450  209.4630  154.7510 C   0  0  1  0  0  3  0  0  0  0  0  0
  160.1420  210.2390  153.4880 C   0  0  0  0  0  0  0  0  0  0  0  0
  161.3570  205.8420  154.2810 N   0  0  0  0  0  0  0  0  0  0  0  0
  161.5620  205.8130  152.9310 C   0  0  0  0  0  0  0  0  0  0  0  0
  159.3610  211.3140  153.4220 C   0  0  0  0  0  3  0  0  0  0  0  0
  160.9950  209.9860  151.1450 C   0  0  0  0  0  3  0  0  0  0  0  0
  160.9910  208.1540  152.8360 C   0  0  0  0  0  0  0  0  0  0  0  0
  158.8850  211.8630  152.1200 C   0  0  0  0  0  2  0  0  0  0  0  0
  160.9800  206.9740  154.9350 C   0  0  0  0  0  3  0  0  0  0  0  0
  161.9730  204.5910  152.3240 N   0  0  0  0  0  1  0  0  0  0  0  0
  159.0610  214.1710  149.7690 C   0  0  0  0  0  2  0  0  0  0  0  0
  158.8950  214.4520  151.1420 O   0  0  0  0  0  0  0  0  0  0  0  0
  160.0380  213.7180  150.7790 C   0  0  1  0  0  0  0  0  0  0  0  0
  161.2020  214.4530  150.9050 F   0  0  0  0  0  0  0  0  0  0  0  0
  162.7110  207.3720  150.2250 O   0  0  0  0  0  0  0  0  0  0  0  0
  161.6220  206.9510  150.7000 C   0  0  0  0  0  0  0  0  0  0  0  0
  160.6680  206.3500  149.8690 O   0  0  0  0  0  0  0  0  0  0  0  0
  161.4440  206.9300  147.1550 O   0  0  0  0  0  1  0  0  0  0  0  0
  160.7940  204.0100  149.3380 C   0  0  0  0  0  3  0  0  0  0  0  0
  161.3510  205.6220  147.6150 C   0  0  0  0  0  0  0  0  0  0  0  0
  161.0630  202.9660  148.4500 C   0  0  0  0  0  0  0  0  0  0  0  0
  161.4840  203.2480  147.1490 C   0  0  0  0  0  3  0  0  0  0  0  0
  160.9030  201.5550  148.8900 C   0  0  0  0  0  1  0  0  0  0  0  0
  160.9530  205.3420  148.9400 C   0  0  0  0  0  0  0  0  0  0  0  0
  161.6240  204.5730  146.7320 C   0  0  0  0  0  3  0  0  0  0  0  0
  161.7720  211.8540  149.7100 O   0  0  0  0  0  0  0  0  0  0  0  0
  161.8900  211.2350  148.4370 C   0  0  0  0  0  1  0  0  0  0  0  0
  1  7  1  0  0  0  0
  1 15  1  0  0  0  0
  3 14  1  0  0  0  0
  4 13  1  0  0  0  0
  4  8  1  0  0  0  0
  5 13  1  0  0  0  0
  5 10  2  0  0  0  0
  6 12  1  0  0  0  0
  6  3  2  0  0  0  0
  7  2  1  1  0  0  0
  8  7  1  0  0  0  0
  9 15  2  0  0  0  0
 10  9  1  0  0  0  0
 11  8  2  0  0  0  0
 12  4  2  0  0  0  0
 13  1  2  0  0  0  0
 14 11  1  0  0  0  0
 16 10  1  0  0  0  0
 17 19  1  0  0  0  0
 17 18  1  0  0  0  0
 19 20  1  1  0  0  0
 19 18  1  0  0  0  0
 19  3  1  0  0  0  0
 21 22  2  0  0  0  0
 22  5  1  0  0  0  0
 23 22  1  0  0  0  0
 24 26  1  0  0  0  0
 26 30  2  0  0  0  0
 27 29  1  0  0  0  0
 27 25  2  0  0  0  0
 28 27  1  0  0  0  0
 30 25  1  0  0  0  0
 30 23  1  0  0  0  0
 31 28  2  0  0  0  0
 31 26  1  0  0  0  0
 32  6  1  0  0  0  0
 33 32  1  0  0  0  0
M  END
>  <MODEL>
1

>  <REMARK>
 VINA RESULT:      -7.8      0.000      0.000
  Name = 
  5 active torsions:
  status: ('A' for Active; 'I' for Inactive)
    1  A    between atoms: C_5  and  C_18
    2  A    between atoms: C_9  and  C_14
    3  A    between atoms: C_10  and  O_20
    4  A    between atoms: O_11  and  C_14
    5  A    between atoms: O_11  and  C_27
                            x       y       z     vdW  Elec       q    Type
                         _______ _______ _______ _____ _____    ______ ____

>  <TORSDO>
F 5

$$$$
=
 OpenBabel11072412273D

 33 37  0  0  1  0  0  0  0  0999 V2000
  161.4970  207.3240  151.4400 C   0  0  0  0  0  0  0  0  0  0  0  0
  160.4860  206.8670  149.2310 C   0  0  0  0  0  1  0  0  0  0  0  0
  161.6470  211.8170  148.8850 C   0  0  0  0  0  0  0  0  0  0  0  0
  161.4620  209.5900  151.0090 C   0  0  0  0  0  0  0  0  0  0  0  0
  161.1600  208.6660  153.4370 C   0  0  0  0  0  0  0  0  0  0  0  0
  160.9310  211.8610  150.0280 C   0  0  0  0  0  0  0  0  0  0  0  0
  161.7050  207.4060  149.9600 C   0  0  1  0  0  3  0  0  0  0  0  0
  161.8010  208.8870  149.7670 C   0  0  0  0  0  0  0  0  0  0  0  0
  161.3410  206.2640  153.5550 N   0  0  0  0  0  0  0  0  0  0  0  0
  161.1760  207.4640  154.1840 C   0  0  0  0  0  0  0  0  0  0  0  0
  162.3870  209.4360  148.7070 C   0  0  0  0  0  3  0  0  0  0  0  0
  161.0610  210.8610  151.1220 C   0  0  0  0  0  3  0  0  0  0  0  0
  161.3390  208.5610  152.0420 C   0  0  0  0  0  0  0  0  0  0  0  0
  162.7940  210.8710  148.6880 C   0  0  0  0  0  2  0  0  0  0  0  0
  161.5020  206.1640  152.2080 C   0  0  0  0  0  3  0  0  0  0  0  0
  160.9960  207.4830  155.5970 N   0  0  0  0  0  1  0  0  0  0  0  0
  162.2460  213.9890  147.6840 C   0  0  0  0  0  2  0  0  0  0  0  0
  162.3880  212.8800  146.8210 O   0  0  0  0  0  0  0  0  0  0  0  0
  161.3710  212.8050  147.7890 C   0  0  1  0  0  0  0  0  0  0  0  0
  160.1070  212.9030  147.2390 F   0  0  0  0  0  0  0  0  0  0  0  0
  161.9530  210.7450  154.2550 O   0  0  0  0  0  0  0  0  0  0  0  0
  160.9750  209.9610  154.1190 C   0  0  0  0  0  0  0  0  0  0  0  0
  159.6890  210.3520  154.5130 O   0  0  0  0  0  0  0  0  0  0  0  0
  160.2660  212.1870  156.6590 O   0  0  0  0  0  1  0  0  0  0  0  0
  158.4150  212.0920  153.4520 C   0  0  0  0  0  3  0  0  0  0  0  0
  159.5260  212.5820  155.5500 C   0  0  0  0  0  0  0  0  0  0  0  0
  157.9300  213.4010  153.4010 C   0  0  0  0  0  0  0  0  0  0  0  0
  158.2490  214.3030  154.4190 C   0  0  0  0  0  3  0  0  0  0  0  0
  157.0760  213.8340  152.2650 C   0  0  0  0  0  1  0  0  0  0  0  0
  159.2300  211.6760  154.5100 C   0  0  0  0  0  0  0  0  0  0  0  0
  159.0420  213.8930  155.4920 C   0  0  0  0  0  3  0  0  0  0  0  0
  160.0080  212.9050  150.1880 O   0  0  0  0  0  0  0  0  0  0  0  0
  160.3400  214.1450  150.7980 C   0  0  0  0  0  1  0  0  0  0  0  0
  1 13  2  0  0  0  0
  1 15  1  0  0  0  0
  3  6  2  0  0  0  0
  4 12  2  0  0  0  0
  4 13  1  0  0  0  0
  5 22  1  0  0  0  0
  5 10  2  0  0  0  0
  6 32  1  0  0  0  0
  6 12  1  0  0  0  0
  7  2  1  6  0  0  0
  7  1  1  0  0  0  0
  8  7  1  0  0  0  0
  8  4  1  0  0  0  0
  9 10  1  0  0  0  0
 10 16  1  0  0  0  0
 11  8  2  0  0  0  0
 13  5  1  0  0  0  0
 14 11  1  0  0  0  0
 14  3  1  0  0  0  0
 15  9  2  0  0  0  0
 17 19  1  0  0  0  0
 18 17  1  0  0  0  0
 18 19  1  0  0  0  0
 19 20  1  6  0  0  0
 19  3  1  0  0  0  0
 22 21  2  0  0  0  0
 22 23  1  0  0  0  0
 25 30  1  0  0  0  0
 26 24  1  0  0  0  0
 27 25  2  0  0  0  0
 27 28  1  0  0  0  0
 28 31  2  0  0  0  0
 29 27  1  0  0  0  0
 30 23  1  0  0  0  0
 30 26  2  0  0  0  0
 31 26  1  0  0  0  0
 32 33  1  0  0  0  0
M  END
>  <MODEL>
2

>  <REMARK>
 VINA RESULT:      -6.0      2.734      6.695
  Name = 
  5 active torsions:
  status: ('A' for Active; 'I' for Inactive)
    1  A    between atoms: C_5  and  C_18
    2  A    between atoms: C_9  and  C_14
    3  A    between atoms: C_10  and  O_20
    4  A    between atoms: O_11  and  C_14
    5  A    between atoms: O_11  and  C_27
                            x       y       z     vdW  Elec       q    Type
                         _______ _______ _______ _____ _____    ______ ____

>  <TORSDO>
F 5

$$$$
=
 OpenBabel11072412273D

 33 37  0  0  1  0  0  0  0  0999 V2000
  160.7410  207.4920  154.7040 C   0  0  0  0  0  0  0  0  0  0  0  0
  161.1660  208.9190  156.6780 C   0  0  0  0  0  1  0  0  0  0  0  0
  158.6600  212.0880  153.5710 C   0  0  0  0  0  0  0  0  0  0  0  0
  160.0380  209.3310  153.5020 C   0  0  0  0  0  0  0  0  0  0  0  0
  161.2570  207.3330  152.3350 C   0  0  0  0  0  0  0  0  0  0  0  0
  159.6330  211.7030  152.7180 C   0  0  0  0  0  0  0  0  0  0  0  0
  160.1060  208.3680  155.7370 C   0  0  1  0  0  3  0  0  0  0  0  0
  159.5620  209.4700  154.8820 C   0  0  0  0  0  0  0  0  0  0  0  0
  161.7740  205.5340  153.8560 N   0  0  0  0  0  0  0  0  0  0  0  0
  161.7800  206.0430  152.5890 C   0  0  0  0  0  0  0  0  0  0  0  0
  158.5730  210.2650  155.2790 C   0  0  0  0  0  3  0  0  0  0  0  0
  160.0950  210.2960  152.5770 C   0  0  0  0  0  3  0  0  0  0  0  0
  160.7230  208.0400  153.4330 C   0  0  0  0  0  0  0  0  0  0  0  0
  157.8050  211.1070  154.3170 C   0  0  0  0  0  2  0  0  0  0  0  0
  161.2690  206.2230  154.9150 C   0  0  0  0  0  3  0  0  0  0  0  0
  162.3430  205.2650  151.5370 N   0  0  0  0  0  1  0  0  0  0  0  0
  157.1390  214.0680  153.0380 C   0  0  0  0  0  2  0  0  0  0  0  0
  157.1370  213.7900  154.4220 O   0  0  0  0  0  0  0  0  0  0  0  0
  158.3340  213.5460  153.7270 C   0  0  1  0  0  0  0  0  0  0  0  0
  159.3270  214.4530  154.0460 F   0  0  0  0  0  0  0  0  0  0  0  0
  162.0400  208.8400  150.6810 O   0  0  0  0  0  0  0  0  0  0  0  0
  161.2710  207.8830  150.9660 C   0  0  0  0  0  0  0  0  0  0  0  0
  160.5060  207.2640  149.9700 O   0  0  0  0  0  0  0  0  0  0  0  0
  161.8730  208.3260  147.6670 O   0  0  0  0  0  1  0  0  0  0  0  0
  160.8300  205.0600  149.0670 C   0  0  0  0  0  3  0  0  0  0  0  0
  161.7190  206.9570  147.8460 C   0  0  0  0  0  0  0  0  0  0  0  0
  161.3330  204.1950  148.0930 C   0  0  0  0  0  0  0  0  0  0  0  0
  162.0370  204.7080  147.0010 C   0  0  0  0  0  3  0  0  0  0  0  0
  161.1220  202.7300  148.2190 C   0  0  0  0  0  1  0  0  0  0  0  0
  161.0330  206.4410  148.9660 C   0  0  0  0  0  0  0  0  0  0  0  0
  162.2260  206.0860  146.8770 C   0  0  0  0  0  3  0  0  0  0  0  0
  160.2440  212.6860  151.9280 O   0  0  0  0  0  0  0  0  0  0  0  0
  159.6240  213.2570  150.7840 C   0  0  0  0  0  1  0  0  0  0  0  0
  1 15  1  0  0  0  0
  1  7  1  0  0  0  0
  3 19  1  0  0  0  0
  3 14  1  0  0  0  0
  4  8  1  0  0  0  0
  5 10  2  0  0  0  0
  5 13  1  0  0  0  0
  6  3  2  0  0  0  0
  7  2  1  1  0  0  0
  8 11  2  0  0  0  0
  8  7  1  0  0  0  0
  9 15  2  0  0  0  0
 10  9  1  0  0  0  0
 12  6  1  0  0  0  0
 12  4  2  0  0  0  0
 13  4  1  0  0  0  0
 13  1  2  0  0  0  0
 14 11  1  0  0  0  0
 16 10  1  0  0  0  0
 17 19  1  0  0  0  0
 17 18  1  0  0  0  0
 19 20  1  1  0  0  0
 19 18  1  0  0  0  0
 21 22  2  0  0  0  0
 22  5  1  0  0  0  0
 23 22  1  0  0  0  0
 24 26  1  0  0  0  0
 26 30  2  0  0  0  0
 27 29  1  0  0  0  0
 27 25  2  0  0  0  0
 28 27  1  0  0  0  0
 30 25  1  0  0  0  0
 30 23  1  0  0  0  0
 31 28  2  0  0  0  0
 31 26  1  0  0  0  0
 32  6  1  0  0  0  0
 33 32  1  0  0  0  0
M  END
>  <MODEL>
3

>  <REMARK>
 VINA RESULT:      -6.0      1.576      2.043
  Name = 
  5 active torsions:
  status: ('A' for Active; 'I' for Inactive)
    1  A    between atoms: C_5  and  C_18
    2  A    between atoms: C_9  and  C_14
    3  A    between atoms: C_10  and  O_20
    4  A    between atoms: O_11  and  C_14
    5  A    between atoms: O_11  and  C_27
                            x       y       z     vdW  Elec       q    Type
                         _______ _______ _______ _____ _____    ______ ____

>  <TORSDO>
F 5

$$$$
=
 OpenBabel11072412273D

 33 37  0  0  1  0  0  0  0  0999 V2000
  160.0060  213.0210  149.8920 C   0  0  0  0  0  0  0  0  0  0  0  0
  157.6870  213.8770  149.8560 C   0  0  0  0  0  1  0  0  0  0  0  0
  158.3950  212.8830  154.8040 C   0  0  0  0  0  0  0  0  0  0  0  0
  159.7440  212.3500  152.0840 C   0  0  0  0  0  0  0  0  0  0  0  0
  161.2810  211.0250  150.4320 C   0  0  0  0  0  0  0  0  0  0  0  0
  158.7440  211.6770  154.3080 C   0  0  0  0  0  0  0  0  0  0  0  0
  159.0700  214.0390  150.4650 C   0  0  1  0  0  3  0  0  0  0  0  0
  159.0450  213.6260  151.9030 C   0  0  0  0  0  0  0  0  0  0  0  0
  161.4090  212.0430  148.2500 N   0  0  0  0  0  0  0  0  0  0  0  0
  161.7970  211.0610  149.1160 C   0  0  0  0  0  0  0  0  0  0  0  0
  158.6890  214.4530  152.8820 C   0  0  0  0  0  3  0  0  0  0  0  0
  159.5970  211.4960  153.1030 C   0  0  0  0  0  3  0  0  0  0  0  0
  160.3800  212.0460  150.8010 C   0  0  0  0  0  0  0  0  0  0  0  0
  159.0010  214.1630  154.3110 C   0  0  0  0  0  2  0  0  0  0  0  0
  160.5310  213.0200  148.6040 C   0  0  0  0  0  3  0  0  0  0  0  0
  162.7060  210.0630  148.6620 N   0  0  0  0  0  1  0  0  0  0  0  0
  156.3680  213.9830  155.8980 C   0  0  0  0  0  2  0  0  0  0  0  0
  156.1190  212.6190  155.6330 O   0  0  0  0  0  0  0  0  0  0  0  0
  157.4400  212.9710  155.9590 C   0  0  1  0  0  0  0  0  0  0  0  0
  157.8150  212.5220  157.2110 F   0  0  0  0  0  0  0  0  0  0  0  0
  162.8300  210.0120  151.9140 O   0  0  0  0  0  0  0  0  0  0  0  0
  161.6970  209.9590  151.3630 C   0  0  0  0  0  0  0  0  0  0  0  0
  160.7850  208.9540  151.7080 O   0  0  0  0  0  0  0  0  0  0  0  0
  161.2830  207.0770  153.8370 O   0  0  0  0  0  1  0  0  0  0  0  0
  161.0030  207.1420  150.1450 C   0  0  0  0  0  3  0  0  0  0  0  0
  161.2120  206.6630  152.5120 C   0  0  0  0  0  0  0  0  0  0  0  0
  161.2010  205.7900  149.8520 C   0  0  0  0  0  0  0  0  0  0  0  0
  161.3960  204.8740  150.8880 C   0  0  0  0  0  3  0  0  0  0  0  0
  161.2030  205.3270  148.4400 C   0  0  0  0  0  1  0  0  0  0  0  0
  160.9870  207.5880  151.4710 C   0  0  0  0  0  0  0  0  0  0  0  0
  161.4050  205.3100  152.2140 C   0  0  0  0  0  3  0  0  0  0  0  0
  158.2670  210.5320  154.9630 O   0  0  0  0  0  0  0  0  0  0  0  0
  159.0670  209.7530  155.8420 C   0  0  0  0  0  1  0  0  0  0  0  0
  1  7  1  0  0  0  0
  1 13  1  0  0  0  0
  3 19  1  0  0  0  0
  4 12  2  0  0  0  0
  5 13  2  0  0  0  0
  5 22  1  0  0  0  0
  6  3  2  0  0  0  0
  6 32  1  0  0  0  0
  7  2  1  6  0  0  0
  7  8  1  0  0  0  0
  8  4  1  0  0  0  0
  8 11  2  0  0  0  0
  9 15  1  0  0  0  0
  9 10  2  0  0  0  0
 10  5  1  0  0  0  0
 11 14  1  0  0  0  0
 12  6  1  0  0  0  0
 13  4  1  0  0  0  0
 14  3  1  0  0  0  0
 15  1  2  0  0  0  0
 16 10  1  0  0  0  0
 17 19  1  0  0  0  0
 18 17  1  0  0  0  0
 18 19  1  0  0  0  0
 19 20  1  1  0  0  0
 22 23  1  0  0  0  0
 22 21  2  0  0  0  0
 25 30  1  0  0  0  0
 26 24  1  0  0  0  0
 27 25  2  0  0  0  0
 27 28  1  0  0  0  0
 28 31  2  0  0  0  0
 29 27  1  0  0  0  0
 30 23  1  0  0  0  0
 30 26  2  0  0  0  0
 31 26  1  0  0  0  0
 32 33  1  0  0  0  0
M  END
>  <MODEL>
4

>  <REMARK>
 VINA RESULT:      -5.7      3.245      5.431
  Name = 
  5 active torsions:
  status: ('A' for Active; 'I' for Inactive)
    1  A    between atoms: C_5  and  C_18
    2  A    between atoms: C_9  and  C_14
    3  A    between atoms: C_10  and  O_20
    4  A    between atoms: O_11  and  C_14
    5  A    between atoms: O_11  and  C_27
                            x       y       z     vdW  Elec       q    Type
                         _______ _______ _______ _____ _____    ______ ____

>  <TORSDO>
F 5

$$$$
=
 OpenBabel11072412273D

 33 37  0  0  1  0  0  0  0  0999 V2000
  160.8270  203.1370  150.9070 C   0  0  0  0  0  0  0  0  0  0  0  0
  159.2720  202.0120  149.3490 C   0  0  0  0  0  1  0  0  0  0  0  0
  161.8250  205.1490  146.2480 C   0  0  0  0  0  0  0  0  0  0  0  0
  161.4130  204.6450  149.2620 C   0  0  0  0  0  0  0  0  0  0  0  0
  161.3680  205.3370  151.7840 C   0  0  0  0  0  0  0  0  0  0  0  0
  161.4230  206.0580  147.1620 C   0  0  0  0  0  0  0  0  0  0  0  0
  160.7260  202.3410  149.6440 C   0  0  1  0  0  3  0  0  0  0  0  0
  161.2380  203.3280  148.6420 C   0  0  0  0  0  0  0  0  0  0  0  0
  160.8070  203.5060  153.2490 N   0  0  0  0  0  0  0  0  0  0  0  0
  161.1680  204.8110  153.0820 C   0  0  0  0  0  0  0  0  0  0  0  0
  161.7230  202.9640  147.4580 C   0  0  0  0  0  3  0  0  0  0  0  0
  161.4660  205.8240  148.6310 C   0  0  0  0  0  3  0  0  0  0  0  0
  161.2000  204.4540  150.6970 C   0  0  0  0  0  0  0  0  0  0  0  0
  162.5450  203.8890  146.6260 C   0  0  0  0  0  2  0  0  0  0  0  0
  160.6340  202.6580  152.1980 C   0  0  0  0  0  3  0  0  0  0  0  0
  161.3120  205.6390  154.2330 N   0  0  0  0  0  1  0  0  0  0  0  0
  160.6010  204.6770  144.0580 C   0  0  0  0  0  2  0  0  0  0  0  0
  160.4060  206.0140  144.4660 O   0  0  0  0  0  0  0  0  0  0  0  0
  161.6430  205.4280  144.7840 C   0  0  1  0  0  0  0  0  0  0  0  0
  162.6840  205.9480  144.0380 F   0  0  0  0  0  0  0  0  0  0  0  0
  162.9480  207.0510  151.3490 O   0  0  0  0  0  0  0  0  0  0  0  0
  161.7510  206.7510  151.6070 C   0  0  0  0  0  0  0  0  0  0  0  0
  160.7580  207.7380  151.6220 O   0  0  0  0  0  0  0  0  0  0  0  0
  161.6390  210.3530  150.7910 O   0  0  0  0  0  1  0  0  0  0  0  0
  160.3570  208.6390  153.8130 C   0  0  0  0  0  3  0  0  0  0  0  0
  161.1640  210.1260  152.0770 C   0  0  0  0  0  0  0  0  0  0  0  0
  160.3330  209.7040  154.7170 C   0  0  0  0  0  0  0  0  0  0  0  0
  160.7150  210.9810  154.3000 C   0  0  0  0  0  3  0  0  0  0  0  0
  159.8990  209.4790  156.1200 C   0  0  0  0  0  1  0  0  0  0  0  0
  160.7510  208.8400  152.4860 C   0  0  0  0  0  0  0  0  0  0  0  0
  161.1330  211.1900  152.9840 C   0  0  0  0  0  3  0  0  0  0  0  0
  160.9320  207.2860  146.6990 O   0  0  0  0  0  0  0  0  0  0  0  0
  161.1080  208.5070  147.4060 C   0  0  0  0  0  1  0  0  0  0  0  0
  1 15  1  0  0  0  0
  3 14  1  0  0  0  0
  3  6  2  0  0  0  0
  4 13  1  0  0  0  0
  5 10  2  0  0  0  0
  6 12  1  0  0  0  0
  7  2  1  6  0  0  0
  7  1  1  0  0  0  0
  8  4  1  0  0  0  0
  8  7  1  0  0  0  0
 10  9  1  0  0  0  0
 10 16  1  0  0  0  0
 11  8  2  0  0  0  0
 12  4  2  0  0  0  0
 13  1  2  0  0  0  0
 13  5  1  0  0  0  0
 14 11  1  0  0  0  0
 15  9  2  0  0  0  0
 17 18  1  0  0  0  0
 17 19  1  0  0  0  0
 18 19  1  0  0  0  0
 19 20  1  6  0  0  0
 19  3  1  0  0  0  0
 21 22  2  0  0  0  0
 22 23  1  0  0  0  0
 22  5  1  0  0  0  0
 23 30  1  0  0  0  0
 24 26  1  0  0  0  0
 25 27  1  0  0  0  0
 26 30  1  0  0  0  0
 26 31  2  0  0  0  0
 27 29  1  0  0  0  0
 28 27  2  0  0  0  0
 30 25  2  0  0  0  0
 31 28  1  0  0  0  0
 32  6  1  0  0  0  0
 32 33  1  0  0  0  0
M  END
>  <MODEL>
5

>  <REMARK>
 VINA RESULT:      -5.4      2.701      7.380
  Name = 
  5 active torsions:
  status: ('A' for Active; 'I' for Inactive)
    1  A    between atoms: C_5  and  C_18
    2  A    between atoms: C_9  and  C_14
    3  A    between atoms: C_10  and  O_20
    4  A    between atoms: O_11  and  C_14
    5  A    between atoms: O_11  and  C_27
                            x       y       z     vdW  Elec       q    Type
                         _______ _______ _______ _____ _____    ______ ____

>  <TORSDO>
F 5

$$$$
=
 OpenBabel11072412273D

 33 37  0  0  1  0  0  0  0  0999 V2000
  161.9440  209.8100  150.0810 C   0  0  0  0  0  0  0  0  0  0  0  0
  160.4620  211.7080  150.6390 C   0  0  0  0  0  1  0  0  0  0  0  0
  161.0940  209.4600  155.1700 C   0  0  0  0  0  0  0  0  0  0  0  0
  161.6200  208.9130  152.1820 C   0  0  0  0  0  0  0  0  0  0  0  0
  162.0010  207.3810  150.0960 C   0  0  0  0  0  0  0  0  0  0  0  0
  160.6800  208.3830  154.4710 C   0  0  0  0  0  0  0  0  0  0  0  0
  161.7750  211.0110  150.9560 C   0  0  1  0  0  3  0  0  0  0  0  0
  161.6990  210.3720  152.3080 C   0  0  0  0  0  0  0  0  0  0  0  0
  162.4000  208.6330  148.0740 N   0  0  0  0  0  0  0  0  0  0  0  0
  162.2980  207.4310  148.7140 C   0  0  0  0  0  0  0  0  0  0  0  0
  161.9600  211.0340  153.4310 C   0  0  0  0  0  3  0  0  0  0  0  0
  161.1570  208.0570  153.1000 C   0  0  0  0  0  3  0  0  0  0  0  0
  161.8390  208.6120  150.7670 C   0  0  0  0  0  0  0  0  0  0  0  0
  162.2300  210.3280  154.7170 C   0  0  0  0  0  2  0  0  0  0  0  0
  162.2320  209.8180  148.7200 C   0  0  0  0  0  3  0  0  0  0  0  0
  162.4700  206.2330  147.9620 N   0  0  0  0  0  1  0  0  0  0  0  0
  160.9420  210.9750  157.2200 C   0  0  0  0  0  2  0  0  0  0  0  0
  159.7180  210.9540  156.5160 O   0  0  0  0  0  0  0  0  0  0  0  0
  160.4780  209.7710  156.5030 C   0  0  1  0  0  0  0  0  0  0  0  0
  159.9070  208.7660  157.2600 F   0  0  0  0  0  0  0  0  0  0  0  0
  162.7520  205.7380  151.6310 O   0  0  0  0  0  0  0  0  0  0  0  0
  161.8840  206.0810  150.7830 C   0  0  0  0  0  0  0  0  0  0  0  0
  160.7510  205.2870  150.5640 O   0  0  0  0  0  0  0  0  0  0  0  0
  160.8400  203.0590  152.3890 O   0  0  0  0  0  1  0  0  0  0  0  0
  160.8460  203.7200  148.7450 C   0  0  0  0  0  3  0  0  0  0  0  0
  160.8140  202.8640  151.0130 C   0  0  0  0  0  0  0  0  0  0  0  0
  160.8870  202.4140  148.2510 C   0  0  0  0  0  0  0  0  0  0  0  0
  160.8830  201.3330  149.1350 C   0  0  0  0  0  3  0  0  0  0  0  0
  160.9340  202.1740  146.7850 C   0  0  0  0  0  1  0  0  0  0  0  0
  160.7900  203.9590  150.1220 C   0  0  0  0  0  0  0  0  0  0  0  0
  160.8500  201.5590  150.5130 C   0  0  0  0  0  3  0  0  0  0  0  0
  159.7440  207.5290  155.0690 O   0  0  0  0  0  0  0  0  0  0  0  0
  160.0640  206.2160  155.5120 C   0  0  0  0  0  1  0  0  0  0  0  0
  1 13  1  0  0  0  0
  1  7  1  0  0  0  0
  3 19  1  0  0  0  0
  4  8  1  0  0  0  0
  4 12  2  0  0  0  0
  5 13  2  0  0  0  0
  5 22  1  0  0  0  0
  6 32  1  0  0  0  0
  6  3  2  0  0  0  0
  7  2  1  6  0  0  0
  7  8  1  0  0  0  0
  8 11  2  0  0  0  0
  9 10  2  0  0  0  0
  9 15  1  0  0  0  0
 10  5  1  0  0  0  0
 11 14  1  0  0  0  0
 12  6  1  0  0  0  0
 13  4  1  0  0  0  0
 14  3  1  0  0  0  0
 15  1  2  0  0  0  0
 16 10  1  0  0  0  0
 18 17  1  0  0  0  0
 19 18  1  0  0  0  0
 19 17  1  0  0  0  0
 19 20  1  1  0  0  0
 22 21  2  0  0  0  0
 23 22  1  0  0  0  0
 25 30  1  0  0  0  0
 26 24  1  0  0  0  0
 27 25  2  0  0  0  0
 27 28  1  0  0  0  0
 28 31  2  0  0  0  0
 29 27  1  0  0  0  0
 30 23  1  0  0  0  0
 30 26  2  0  0  0  0
 31 26  1  0  0  0  0
 32 33  1  0  0  0  0
M  END
>  <MODEL>
6

>  <REMARK>
 VINA RESULT:      -5.3      3.035      4.858
  Name = 
  5 active torsions:
  status: ('A' for Active; 'I' for Inactive)
    1  A    between atoms: C_5  and  C_18
    2  A    between atoms: C_9  and  C_14
    3  A    between atoms: C_10  and  O_20
    4  A    between atoms: O_11  and  C_14
    5  A    between atoms: O_11  and  C_27
                            x       y       z     vdW  Elec       q    Type
                         _______ _______ _______ _____ _____    ______ ____

>  <TORSDO>
F 5

$$$$
=
 OpenBabel11072412273D

 33 37  0  0  1  0  0  0  0  0999 V2000
  160.1680  208.8120  155.4370 C   0  0  0  0  0  0  0  0  0  0  0  0
  158.8860  206.7230  155.7600 C   0  0  0  0  0  1  0  0  0  0  0  0
  161.5130  205.7330  151.5060 C   0  0  0  0  0  0  0  0  0  0  0  0
  160.8120  208.1140  153.3350 C   0  0  0  0  0  0  0  0  0  0  0  0
  160.4350  210.6470  153.8680 C   0  0  0  0  0  0  0  0  0  0  0  0
  160.9430  206.8950  151.1210 C   0  0  0  0  0  0  0  0  0  0  0  0
  160.2680  207.3250  155.5730 C   0  0  1  0  0  3  0  0  0  0  0  0
  160.8090  206.9520  154.2280 C   0  0  0  0  0  0  0  0  0  0  0  0
  159.8610  211.0440  156.1760 N   0  0  0  0  0  0  0  0  0  0  0  0
  160.1350  211.5310  154.9310 C   0  0  0  0  0  0  0  0  0  0  0  0
  161.4490  205.8070  154.0040 C   0  0  0  0  0  3  0  0  0  0  0  0
  160.8420  208.0930  151.9970 C   0  0  0  0  0  3  0  0  0  0  0  0
  160.4570  209.2680  154.1620 C   0  0  0  0  0  0  0  0  0  0  0  0
  162.2830  205.5970  152.7860 C   0  0  0  0  0  2  0  0  0  0  0  0
  159.8710  209.7120  156.4560 C   0  0  0  0  0  3  0  0  0  0  0  0
  160.0860  212.9390  154.7160 N   0  0  0  0  0  1  0  0  0  0  0  0
  161.3600  203.2020  151.2060 C   0  0  0  0  0  2  0  0  0  0  0  0
  160.2500  203.8480  150.6190 O   0  0  0  0  0  0  0  0  0  0  0  0
  161.4720  204.5410  150.5950 C   0  0  1  0  0  0  0  0  0  0  0  0
  162.0170  204.6120  149.3270 F   0  0  0  0  0  0  0  0  0  0  0  0
  161.8100  210.8860  151.9510 O   0  0  0  0  0  0  0  0  0  0  0  0
  160.7240  211.1770  152.5220 C   0  0  0  0  0  0  0  0  0  0  0  0
  159.7410  211.9110  151.8470 O   0  0  0  0  0  0  0  0  0  0  0  0
  158.0330  214.0930  151.0580 O   0  0  0  0  0  1  0  0  0  0  0  0
  161.0350  212.2870  149.8580 C   0  0  0  0  0  3  0  0  0  0  0  0
  159.1470  213.7400  150.3060 C   0  0  0  0  0  0  0  0  0  0  0  0
  161.3070  212.9990  148.6870 C   0  0  0  0  0  0  0  0  0  0  0  0
  160.5070  214.0860  148.3290 C   0  0  0  0  0  3  0  0  0  0  0  0
  162.4490  212.6010  147.8230 C   0  0  0  0  0  1  0  0  0  0  0  0
  159.9700  212.6590  150.6860 C   0  0  0  0  0  0  0  0  0  0  0  0
  159.4270  214.4530  149.1350 C   0  0  0  0  0  3  0  0  0  0  0  0
  160.4120  206.9720  149.8260 O   0  0  0  0  0  0  0  0  0  0  0  0
  161.1020  207.5770  148.7410 C   0  0  0  0  0  1  0  0  0  0  0  0
  1  7  1  0  0  0  0
  1 15  1  0  0  0  0
  3 14  1  0  0  0  0
  4 13  1  0  0  0  0
  4  8  1  0  0  0  0
  5 13  1  0  0  0  0
  5 10  2  0  0  0  0
  6  3  2  0  0  0  0
  6 12  1  0  0  0  0
  7  2  1  6  0  0  0
  8  7  1  0  0  0  0
  9 15  2  0  0  0  0
 10  9  1  0  0  0  0
 11  8  2  0  0  0  0
 12  4  2  0  0  0  0
 13  1  2  0  0  0  0
 14 11  1  0  0  0  0
 16 10  1  0  0  0  0
 18 17  1  0  0  0  0
 19 20  1  6  0  0  0
 19 18  1  0  0  0  0
 19 17  1  0  0  0  0
 19  3  1  0  0  0  0
 21 22  2  0  0  0  0
 22  5  1  0  0  0  0
 23 22  1  0  0  0  0
 25 30  1  0  0  0  0
 26 30  2  0  0  0  0
 26 24  1  0  0  0  0
 27 25  2  0  0  0  0
 28 27  1  0  0  0  0
 28 31  2  0  0  0  0
 29 27  1  0  0  0  0
 30 23  1  0  0  0  0
 31 26  1  0  0  0  0
 32  6  1  0  0  0  0
 33 32  1  0  0  0  0
M  END
>  <MODEL>
7

>  <REMARK>
 VINA RESULT:      -5.2      2.984      7.088
  Name = 
  5 active torsions:
  status: ('A' for Active; 'I' for Inactive)
    1  A    between atoms: C_5  and  C_18
    2  A    between atoms: C_9  and  C_14
    3  A    between atoms: C_10  and  O_20
    4  A    between atoms: O_11  and  C_14
    5  A    between atoms: O_11  and  C_27
                            x       y       z     vdW  Elec       q    Type
                         _______ _______ _______ _____ _____    ______ ____

>  <TORSDO>
F 5

$$$$
=
 OpenBabel11072412273D

 33 37  0  0  1  0  0  0  0  0999 V2000
  160.4820  212.0840  151.5860 C   0  0  0  0  0  0  0  0  0  0  0  0
  158.5520  212.3090  153.1150 C   0  0  0  0  0  1  0  0  0  0  0  0
  160.9630  208.2370  155.0090 C   0  0  0  0  0  0  0  0  0  0  0  0
  160.9890  210.0270  152.4980 C   0  0  0  0  0  0  0  0  0  0  0  0
  161.4550  210.5460  149.9770 C   0  0  0  0  0  0  0  0  0  0  0  0
  160.8450  207.8210  153.7300 C   0  0  0  0  0  0  0  0  0  0  0  0
  160.0660  212.2190  153.0180 C   0  0  1  0  0  3  0  0  0  0  0  0
  160.5360  210.9120  153.5760 C   0  0  0  0  0  0  0  0  0  0  0  0
  160.8990  212.8120  149.3690 N   0  0  0  0  0  0  0  0  0  0  0  0
  161.4020  211.5910  149.0250 C   0  0  0  0  0  0  0  0  0  0  0  0
  160.7650  210.7250  154.8720 C   0  0  0  0  0  3  0  0  0  0  0  0
  161.0970  208.6940  152.5520 C   0  0  0  0  0  3  0  0  0  0  0  0
  160.9910  210.8340  151.2780 C   0  0  0  0  0  0  0  0  0  0  0  0
  161.5570  209.5650  155.3730 C   0  0  0  0  0  2  0  0  0  0  0  0
  160.4400  213.0850  150.6210 C   0  0  0  0  0  3  0  0  0  0  0  0
  161.8450  211.3810  147.6870 N   0  0  0  0  0  1  0  0  0  0  0  0
  159.8130  207.8830  157.2610 C   0  0  0  0  0  2  0  0  0  0  0  0
  159.1970  207.1090  156.2530 O   0  0  0  0  0  0  0  0  0  0  0  0
  160.5820  207.3190  156.1340 C   0  0  1  0  0  0  0  0  0  0  0  0
  161.3160  206.1740  156.3800 F   0  0  0  0  0  0  0  0  0  0  0  0
  162.8850  208.6840  150.3080 O   0  0  0  0  0  0  0  0  0  0  0  0
  161.9930  209.2250  149.6000 C   0  0  0  0  0  0  0  0  0  0  0  0
  161.4300  208.5380  148.5180 O   0  0  0  0  0  0  0  0  0  0  0  0
  160.0810  206.7370  150.3180 O   0  0  0  0  0  1  0  0  0  0  0  0
  162.2470  206.6240  147.3160 C   0  0  0  0  0  3  0  0  0  0  0  0
  160.7970  206.2630  149.2250 C   0  0  0  0  0  0  0  0  0  0  0  0
  162.3240  205.2440  147.1120 C   0  0  0  0  0  0  0  0  0  0  0  0
  161.6320  204.3740  147.9560 C   0  0  0  0  0  3  0  0  0  0  0  0
  163.1410  204.7030  145.9950 C   0  0  0  0  0  1  0  0  0  0  0  0
  161.4720  207.1470  148.3570 C   0  0  0  0  0  0  0  0  0  0  0  0
  160.8730  204.8830  149.0120 C   0  0  0  0  0  3  0  0  0  0  0  0
  160.4570  206.4930  153.5020 O   0  0  0  0  0  0  0  0  0  0  0  0
  161.3710  205.4730  153.1210 C   0  0  0  0  0  1  0  0  0  0  0  0
  1  7  1  0  0  0  0
  3 14  1  0  0  0  0
  3 19  1  0  0  0  0
  4 12  2  0  0  0  0
  4  8  1  0  0  0  0
  5 13  2  0  0  0  0
  6  3  2  0  0  0  0
  7  2  1  6  0  0  0
  7  8  1  0  0  0  0
  8 11  2  0  0  0  0
  9 15  1  0  0  0  0
 10  9  2  0  0  0  0
 10  5  1  0  0  0  0
 11 14  1  0  0  0  0
 12  6  1  0  0  0  0
 13  1  1  0  0  0  0
 13  4  1  0  0  0  0
 15  1  2  0  0  0  0
 16 10  1  0  0  0  0
 18 17  1  0  0  0  0
 19 18  1  0  0  0  0
 19 20  1  1  0  0  0
 19 17  1  0  0  0  0
 22  5  1  0  0  0  0
 22 21  2  0  0  0  0
 23 22  1  0  0  0  0
 25 30  1  0  0  0  0
 26 24  1  0  0  0  0
 27 25  2  0  0  0  0
 27 28  1  0  0  0  0
 28 31  2  0  0  0  0
 29 27  1  0  0  0  0
 30 23  1  0  0  0  0
 30 26  2  0  0  0  0
 31 26  1  0  0  0  0
 32  6  1  0  0  0  0
 33 32  1  0  0  0  0
M  END
>  <MODEL>
8

>  <REMARK>
 VINA RESULT:      -5.2      3.234      5.346
  Name = 
  5 active torsions:
  status: ('A' for Active; 'I' for Inactive)
    1  A    between atoms: C_5  and  C_18
    2  A    between atoms: C_9  and  C_14
    3  A    between atoms: C_10  and  O_20
    4  A    between atoms: O_11  and  C_14
    5  A    between atoms: O_11  and  C_27
                            x       y       z     vdW  Elec       q    Type
                         _______ _______ _______ _____ _____    ______ ____

>  <TORSDO>
F 5

$$$$
