=
 OpenBabel11072410393D

 50 55  0  0  1  0  0  0  0  0999 V2000
  159.3550  211.8620  152.2730 C   0  0  2  0  0  0  0  0  0  0  0  0
  160.3420  203.4690  148.0120 C   0  0  0  0  0  3  0  0  0  0  0  0
  160.9200  206.5990  149.4540 C   0  0  2  0  0  3  0  0  0  0  0  0
  162.6710  207.5810  150.5600 C   0  0  0  0  0  2  0  0  0  0  0  0
  160.5850  203.9160  146.7720 C   0  0  0  0  0  3  0  0  0  0  0  0
  160.3330  204.2000  150.5350 C   0  0  0  0  0  0  0  0  0  0  0  0
  160.6890  209.0610  146.6220 C   0  0  0  0  0  3  0  0  0  0  0  0
  163.0470  208.6590  151.5650 C   0  0  0  0  0  2  0  0  0  0  0  0
  159.8740  211.2980  147.2840 C   0  0  1  0  0  3  0  0  0  0  0  0
  158.2440  212.4130  151.3830 C   0  0  2  0  0  3  0  0  0  0  0  0
  161.6210  206.2180  147.0280 N   0  0  0  0  0  0  0  0  0  0  0  0
  162.5450  210.0330  151.1440 C   0  0  0  0  0  2  0  0  0  0  0  0
  159.1090  214.4500  150.3730 C   0  0  0  0  0  2  0  0  0  0  0  0
  158.7320  213.0170  150.0730 C   0  0  2  0  0  3  0  0  0  0  0  0
  160.1210  203.6690  151.6110 O   0  0  0  0  0  0  0  0  0  0  0  0
  158.8260  212.2110  147.1170 O   0  0  0  0  0  0  0  0  0  0  0  0
  159.9920  204.4640  149.0680 C   0  0  1  0  0  3  0  0  0  0  0  0
  161.0890  210.2070  151.5330 C   0  0  0  0  0  2  0  0  0  0  0  0
  162.5680  204.5400  149.3870 C   0  0  0  0  0  1  0  0  0  0  0  0
  157.6280  212.9830  149.0340 C   0  0  0  0  0  2  0  0  0  0  0  0
  159.8140  205.8260  145.5980 O   0  0  0  0  0  0  0  0  0  0  0  0
  159.5630  214.4530  151.8150 C   0  0  0  0  0  2  0  0  0  0  0  0
  157.8620  211.8420  148.0610 C   0  0  0  0  0  2  0  0  0  0  0  0
  160.6200  205.3610  146.4450 C   0  0  0  0  0  0  0  0  0  0  0  0
  157.8460  213.5750  153.5770 C   0  0  0  0  0  1  0  0  0  0  0  0
  158.9200  210.9650  153.2540 O   0  0  0  0  0  1  0  0  0  0  0  0
  159.7770  210.1820  146.2460 C   0  0  0  0  0  2  0  0  0  0  0  0
  161.2850  207.3590  150.5860 O   0  0  0  0  0  0  0  0  0  0  0  0
  158.8570  213.2840  152.4820 C   0  0  2  0  0  0  0  0  0  0  0  0
  160.3950  208.2700  147.6520 C   0  0  0  0  0  3  0  0  0  0  0  0
  161.1610  205.1020  149.6070 C   0  0  1  0  0  0  0  0  0  0  0  0
  161.3460  207.2050  148.0890 C   0  0  1  0  0  3  0  0  0  0  0  0
  160.7760  211.6810  151.7290 C   0  0  0  0  0  2  0  0  0  0  0  0
  164.5520  214.0580  148.9600 O   0  0  0  0  0  0  0  0  0  0  0  0
  161.0610  213.3410  146.7760 O   0  0  0  0  0  0  0  0  0  0  0  0
  161.2280  212.0020  147.1840 C   0  0  1  0  0  3  0  0  0  0  0  0
  161.9760  211.9120  148.5030 C   0  0  0  0  0  2  0  0  0  0  0  0
  162.2250  213.8030  146.1120 C   0  0  1  0  0  3  0  0  0  0  0  0
  163.4610  212.1110  148.2630 C   0  0  0  0  0  2  0  0  0  0  0  0
  163.2430  214.4510  147.0540 C   0  0  0  0  0  2  0  0  0  0  0  0
  163.7950  213.5660  148.1410 C   0  0  0  0  0  0  0  0  0  0  0  0
  162.8360  212.8600  145.0730 C   0  0  0  0  0  1  0  0  0  0  0  0
  162.9960  206.0980  146.5650 C   0  0  0  0  0  2  0  0  0  0  0  0
  163.1010  205.0720  145.4500 C   0  0  0  0  0  2  0  0  0  0  0  0
  163.2880  205.7640  144.1100 C   0  0  0  0  0  2  0  0  0  0  0  0
  161.9760  205.8130  143.3410 C   0  0  2  0  0  3  0  0  0  0  0  0
  161.3120  204.6120  143.5040 F   0  0  0  0  0  0  0  0  0  0  0  0
  161.0410  205.7870  141.1380 F   0  0  0  0  0  0  0  0  0  0  0  0
  162.5720  207.3820  141.6250 F   0  0  0  0  0  0  0  0  0  0  0  0
  162.1890  206.0700  141.8530 C   0  0  0  0  0  3  0  0  0  0  0  0
  1 29  1  0  0  0  0
  1 26  1  1  0  0  0
  2 17  1  0  0  0  0
  3 31  1  0  0  0  0
  3 28  1  1  0  0  0
  4 28  1  0  0  0  0
  4  8  1  0  0  0  0
  5  2  2  0  0  0  0
  6 15  2  0  0  0  0
  7 30  2  0  0  0  0
  9 27  1  6  0  0  0
 10  1  1  0  0  0  0
 10 29  1  0  0  0  0
 11 32  1  0  0  0  0
 12 18  1  0  0  0  0
 12  8  1  0  0  0  0
 13 22  1  0  0  0  0
 14 13  1  0  0  0  0
 14 10  1  0  0  0  0
 16  9  1  0  0  0  0
 16 23  1  0  0  0  0
 17 31  1  0  0  0  0
 17  6  1  0  0  0  0
 18 33  1  0  0  0  0
 19 31  1  0  0  0  0
 20 14  1  0  0  0  0
 21 24  2  0  0  0  0
 22 29  1  0  0  0  0
 23 20  1  0  0  0  0
 24  5  1  0  0  0  0
 24 11  1  0  0  0  0
 27  7  1  0  0  0  0
 29 25  1  0  0  0  0
 30 32  1  0  0  0  0
 31  6  1  0  0  0  0
 32  3  1  0  0  0  0
 33  1  1  0  0  0  0
 35 36  1  0  0  0  0
 36  9  1  0  0  0  0
 36 37  1  0  0  0  0
 38 35  1  0  0  0  0
 38 40  1  0  0  0  0
 39 37  1  0  0  0  0
 40 41  1  0  0  0  0
 41 39  1  0  0  0  0
 41 34  2  0  0  0  0
 42 38  1  0  0  0  0
 43 11  1  0  0  0  0
 44 43  1  0  0  0  0
 45 44  1  0  0  0  0
 46 47  1  0  0  0  0
 46 45  1  0  0  0  0
 48 50  1  0  0  0  0
 49 50  1  0  0  0  0
 50 46  1  0  0  0  0
M  END
>  <MODEL>
1

>  <REMARK>
 VINA RESULT:      20.2      0.000      0.000
  Name = 
  6 active torsions:
  status: ('A' for Active; 'I' for Inactive)
    1  A    between atoms: C_10  and  C_13
    2  A    between atoms: C_10  and  N_16
    3  A    between atoms: C_13  and  C_18
    4  A    between atoms: C_14  and  C_21
    5  A    between atoms: C_17  and  C_18
    6  A    between atoms: C_17  and  C_37
                            x       y       z     vdW  Elec       q    Type
                         _______ _______ _______ _____ _____    ______ ____

>  <TORSDO>
F 6

$$$$
