=
 OpenBabel11072415033D

 39 42  0  0  1  0  0  0  0  0999 V2000
  162.1380  207.9780  149.9410 C   0  0  1  0  0  3  0  0  0  0  0  0
  161.7060  210.3110  150.6370 N   0  0  0  0  0  0  0  0  0  0  0  0
  160.9440  211.9240  147.6790 C   0  0  0  0  0  2  0  0  0  0  0  0
  162.3050  210.0680  148.4570 N   0  0  0  0  0  2  0  0  0  0  0  0
  161.7350  211.6650  150.1020 C   0  0  1  0  0  3  0  0  0  0  0  0
  162.0820  211.4930  148.6040 C   0  0  2  0  0  3  0  0  0  0  0  0
  162.0660  209.4750  149.7230 C   0  0  0  0  0  0  0  0  0  0  0  0
  160.3480  213.6500  149.4790 C   0  0  0  0  0  2  0  0  0  0  0  0
  160.5020  213.3570  147.9800 C   0  0  0  0  0  2  0  0  0  0  0  0
  160.4020  212.3850  150.3430 C   0  0  2  0  0  3  0  0  0  0  0  0
  160.2780  212.7370  151.7500 N   0  0  0  0  0  2  0  0  0  0  0  0
  159.0970  212.0650  152.2730 C   0  0  0  0  0  2  0  0  0  0  0  0
  160.5590  211.6390  154.2480 N   0  0  0  0  0  0  0  0  0  0  0  0
  161.6470  211.1710  156.3770 N   0  0  0  0  0  1  0  0  0  0  0  0
  159.3170  211.6720  153.6930 C   0  0  0  0  0  0  0  0  0  0  0  0
  158.9290  211.0010  156.0460 S   0  0  0  0  0  0  0  0  0  0  0  0
  160.5010  211.2750  155.5420 C   0  0  0  0  0  0  0  0  0  0  0  0
  158.2560  211.3540  154.5430 C   0  0  0  0  0  3  0  0  0  0  0  0
  160.5460  206.7670  155.2380 F   0  0  0  0  0  0  0  0  0  0  0  0
  160.9330  207.0520  153.9710 C   0  0  0  0  0  0  0  0  0  0  0  0
  160.7910  208.4540  152.0010 C   0  0  0  0  0  3  0  0  0  0  0  0
  162.2640  206.5300  152.0170 C   0  0  0  0  0  3  0  0  0  0  0  0
  161.8670  206.2370  153.3250 C   0  0  0  0  0  3  0  0  0  0  0  0
  161.7270  207.6420  151.3500 C   0  0  0  0  0  0  0  0  0  0  0  0
  160.3950  208.1600  153.3090 C   0  0  0  0  0  3  0  0  0  0  0  0
  161.3580  207.1670  148.8810 C   0  0  1  0  0  3  0  0  0  0  0  0
  162.2900  206.7520  147.7480 C   0  0  0  0  0  2  0  0  0  0  0  0
  162.0950  205.2220  145.7220 N   0  0  0  0  0  0  0  0  0  0  0  0
  163.3870  204.6320  146.0380 C   0  0  0  0  0  1  0  0  0  0  0  0
  161.5270  206.2360  146.5660 C   0  0  0  0  0  0  0  0  0  0  0  0
  160.3630  206.6660  146.3370 O   0  0  0  0  0  0  0  0  0  0  0  0
  161.4490  204.8330  144.4770 C   0  0  0  0  0  2  0  0  0  0  0  0
  160.2600  203.9330  144.7600 C   0  0  0  0  0  2  0  0  0  0  0  0
  160.7530  202.6090  145.3030 C   0  0  0  0  0  1  0  0  0  0  0  0
  160.7410  205.8980  149.4650 C   0  0  0  0  0  2  0  0  0  0  0  0
  161.5750  204.8050  149.2300 O   0  0  0  0  0  0  0  0  0  0  0  0
  160.6450  203.4720  151.4780 O   0  0  0  0  0  0  0  0  0  0  0  0
  160.7920  203.5040  149.9730 P   0  0  0  0  0  0  0  0  0  0  0  0
  160.2420  202.3740  149.1360 O   0  0  0  0  0  0  0  0  0  0  0  0
  1 26  1  6  0  0  0
  1 24  1  0  0  0  0
  3  9  1  0  0  0  0
  4  6  1  0  0  0  0
  4  7  1  0  0  0  0
  5 10  1  0  0  0  0
  5  2  1  6  0  0  0
  6  3  1  6  0  0  0
  6  5  1  0  0  0  0
  7  1  1  0  0  0  0
  7  2  2  0  0  0  0
  8 10  1  0  0  0  0
  9  8  1  0  0  0  0
 10 11  1  1  0  0  0
 11 12  1  0  0  0  0
 12 15  1  0  0  0  0
 13 17  2  0  0  0  0
 15 13  1  0  0  0  0
 15 18  2  0  0  0  0
 17 16  1  0  0  0  0
 17 14  1  0  0  0  0
 18 16  1  0  0  0  0
 20 19  1  0  0  0  0
 21 25  1  0  0  0  0
 22 23  2  0  0  0  0
 23 20  1  0  0  0  0
 24 21  2  0  0  0  0
 24 22  1  0  0  0  0
 25 20  2  0  0  0  0
 26 27  1  6  0  0  0
 26 35  1  0  0  0  0
 28 29  1  0  0  0  0
 28 30  1  0  0  0  0
 30 27  1  0  0  0  0
 31 30  2  0  0  0  0
 32 33  1  0  0  0  0
 32 28  1  0  0  0  0
 33 34  1  0  0  0  0
 36 35  1  0  0  0  0
 36 38  1  0  0  0  0
 38 37  2  0  0  0  0
 39 38  2  0  0  0  0
M  END
>  <MODEL>
1

>  <REMARK>
 VINA RESULT:      -7.4      0.000      0.000
  Name = 
  13 active torsions:
  status: ('A' for Active; 'I' for Inactive)
    1  A    between atoms: C_2  and  C_12
    2  A    between atoms: C_2  and  C_18
    3  A    between atoms: C_2  and  C_28
    4  A    between atoms: P_5  and  O_10
    5  A    between atoms: C_6  and  C_26
    6  A    between atoms: O_10  and  C_28
    7  A    between atoms: C_12  and  C_24
    8  A    between atoms: N_15  and  C_26
    9  A    between atoms: C_17  and  C_31
   10  A    between atoms: C_17  and  N_38
   11  A    between atoms: C_18  and  C_21
   12  A    between atoms: C_18  and  C_35
   13  A    between atoms: C_30  and  N_38
                            x       y       z     vdW  Elec       q    Type
                         _______ _______ _______ _____ _____    ______ ____

>  <TORSDO>
F 13

$$$$
=
 OpenBabel11072415033D

 39 42  0  0  1  0  0  0  0  0999 V2000
  161.9200  207.0210  151.7370 C   0  0  1  0  0  3  0  0  0  0  0  0
  160.4420  208.4480  153.1140 N   0  0  0  0  0  0  0  0  0  0  0  0
  161.6960  208.0840  156.3120 C   0  0  0  0  0  2  0  0  0  0  0  0
  161.5030  206.7960  154.2610 N   0  0  0  0  0  2  0  0  0  0  0  0
  159.9700  208.5800  154.4840 C   0  0  1  0  0  3  0  0  0  0  0  0
  160.7390  207.4950  155.2750 C   0  0  2  0  0  3  0  0  0  0  0  0
  161.2390  207.4380  153.0240 C   0  0  0  0  0  0  0  0  0  0  0  0
  160.0150  210.0070  156.5370 C   0  0  0  0  0  2  0  0  0  0  0  0
  160.9650  209.0400  157.2560 C   0  0  0  0  0  2  0  0  0  0  0  0
  160.1970  210.0010  155.0150 C   0  0  2  0  0  3  0  0  0  0  0  0
  159.2490  210.9170  154.3970 N   0  0  0  0  0  2  0  0  0  0  0  0
  159.2060  212.1250  155.2090 C   0  0  0  0  0  2  0  0  0  0  0  0
  157.0990  212.8880  154.1140 N   0  0  0  0  0  0  0  0  0  0  0  0
  154.8990  213.6660  153.4140 N   0  0  0  0  0  1  0  0  0  0  0  0
  157.8190  212.6680  155.2480 C   0  0  0  0  0  0  0  0  0  0  0  0
  155.6320  213.5070  156.0530 S   0  0  0  0  0  0  0  0  0  0  0  0
  155.8740  213.3610  154.4030 C   0  0  0  0  0  0  0  0  0  0  0  0
  157.1700  212.9450  156.4510 C   0  0  0  0  0  3  0  0  0  0  0  0
  160.4160  201.7330  150.3820 F   0  0  0  0  0  0  0  0  0  0  0  0
  160.7710  203.0010  150.7010 C   0  0  0  0  0  0  0  0  0  0  0  0
  162.2270  204.5370  151.8780 C   0  0  0  0  0  3  0  0  0  0  0  0
  160.4120  205.3880  150.5170 C   0  0  0  0  0  3  0  0  0  0  0  0
  160.0470  204.0800  150.1870 C   0  0  0  0  0  3  0  0  0  0  0  0
  161.5060  205.6210  151.3650 C   0  0  0  0  0  0  0  0  0  0  0  0
  161.8610  203.2290  151.5470 C   0  0  0  0  0  3  0  0  0  0  0  0
  161.7190  208.0300  150.5830 C   0  0  1  0  0  3  0  0  0  0  0  0
  162.5420  209.2870  150.8360 C   0  0  0  0  0  2  0  0  0  0  0  0
  161.8220  211.3080  149.4640 N   0  0  0  0  0  0  0  0  0  0  0  0
  162.6680  210.8680  148.3650 C   0  0  0  0  0  1  0  0  0  0  0  0
  161.7210  210.5300  150.6670 C   0  0  0  0  0  0  0  0  0  0  0  0
  160.9080  210.8680  151.5700 O   0  0  0  0  0  0  0  0  0  0  0  0
  161.1670  212.6030  149.3500 C   0  0  0  0  0  2  0  0  0  0  0  0
  161.1820  213.0750  147.9090 C   0  0  0  0  0  2  0  0  0  0  0  0
  159.8360  212.7930  147.2760 C   0  0  0  0  0  1  0  0  0  0  0  0
  162.1460  207.4560  149.2340 C   0  0  0  0  0  2  0  0  0  0  0  0
  161.1920  207.7530  148.2610 O   0  0  0  0  0  0  0  0  0  0  0  0
  162.2100  205.3060  147.4430 O   0  0  0  0  0  0  0  0  0  0  0  0
  161.2930  206.4740  147.1600 P   0  0  0  0  0  0  0  0  0  0  0  0
  160.4680  206.4980  145.8950 O   0  0  0  0  0  0  0  0  0  0  0  0
  1 26  1  6  0  0  0
  1  7  1  0  0  0  0
  3  9  1  0  0  0  0
  4  6  1  0  0  0  0
  5  2  1  6  0  0  0
  5 10  1  0  0  0  0
  5  6  1  0  0  0  0
  6  3  1  1  0  0  0
  7  2  2  0  0  0  0
  7  4  1  0  0  0  0
  8  9  1  0  0  0  0
 10 11  1  6  0  0  0
 10  8  1  0  0  0  0
 11 12  1  0  0  0  0
 12 15  1  0  0  0  0
 13 17  2  0  0  0  0
 13 15  1  0  0  0  0
 14 17  1  0  0  0  0
 15 18  2  0  0  0  0
 16 18  1  0  0  0  0
 17 16  1  0  0  0  0
 19 20  1  0  0  0  0
 20 25  1  0  0  0  0
 22 24  2  0  0  0  0
 23 22  1  0  0  0  0
 23 20  2  0  0  0  0
 24  1  1  0  0  0  0
 24 21  1  0  0  0  0
 25 21  2  0  0  0  0
 26 35  1  6  0  0  0
 26 27  1  0  0  0  0
 28 30  1  0  0  0  0
 29 28  1  0  0  0  0
 30 27  1  0  0  0  0
 30 31  2  0  0  0  0
 32 28  1  0  0  0  0
 33 32  1  0  0  0  0
 34 33  1  0  0  0  0
 36 35  1  0  0  0  0
 38 37  2  0  0  0  0
 38 36  1  0  0  0  0
 39 38  2  0  0  0  0
M  END
>  <MODEL>
2

>  <REMARK>
 VINA RESULT:      -6.7      3.017      5.825
  Name = 
  13 active torsions:
  status: ('A' for Active; 'I' for Inactive)
    1  A    between atoms: C_2  and  C_12
    2  A    between atoms: C_2  and  C_18
    3  A    between atoms: C_2  and  C_28
    4  A    between atoms: P_5  and  O_10
    5  A    between atoms: C_6  and  C_26
    6  A    between atoms: O_10  and  C_28
    7  A    between atoms: C_12  and  C_24
    8  A    between atoms: N_15  and  C_26
    9  A    between atoms: C_17  and  C_31
   10  A    between atoms: C_17  and  N_38
   11  A    between atoms: C_18  and  C_21
   12  A    between atoms: C_18  and  C_35
   13  A    between atoms: C_30  and  N_38
                            x       y       z     vdW  Elec       q    Type
                         _______ _______ _______ _____ _____    ______ ____

>  <TORSDO>
F 13

$$$$
=
 OpenBabel11072415033D

 39 42  0  0  1  0  0  0  0  0999 V2000
  161.9990  208.4370  149.1940 C   0  0  1  0  0  3  0  0  0  0  0  0
  161.0200  210.3430  147.9610 N   0  0  0  0  0  0  0  0  0  0  0  0
  163.3870  212.8380  148.2900 C   0  0  0  0  0  2  0  0  0  0  0  0
  162.5590  210.9200  149.5320 N   0  0  0  0  0  2  0  0  0  0  0  0
  161.0760  211.7970  147.9160 C   0  0  1  0  0  3  0  0  0  0  0  0
  162.1670  212.1850  148.9410 C   0  0  2  0  0  3  0  0  0  0  0  0
  161.8080  209.9070  148.8840 C   0  0  0  0  0  0  0  0  0  0  0  0
  161.7550  213.7790  146.5500 C   0  0  0  0  0  2  0  0  0  0  0  0
  162.9790  214.0410  147.4390 C   0  0  0  0  0  2  0  0  0  0  0  0
  161.3650  212.2970  146.4950 C   0  0  2  0  0  3  0  0  0  0  0  0
  160.1840  212.1240  145.6600 N   0  0  0  0  0  2  0  0  0  0  0  0
  160.2100  213.1600  144.6360 C   0  0  0  0  0  2  0  0  0  0  0  0
  159.7720  212.0910  142.4270 N   0  0  0  0  0  0  0  0  0  0  0  0
  159.7340  211.0900  140.2050 N   0  0  0  0  0  1  0  0  0  0  0  0
  160.6550  212.5850  143.3360 C   0  0  0  0  0  0  0  0  0  0  0  0
  162.0640  211.8610  141.4310 S   0  0  0  0  0  0  0  0  0  0  0  0
  160.4080  211.6460  141.3280 C   0  0  0  0  0  0  0  0  0  0  0  0
  162.0000  212.5570  142.9640 C   0  0  0  0  0  3  0  0  0  0  0  0
  161.0590  207.5390  154.7050 F   0  0  0  0  0  0  0  0  0  0  0  0
  161.2900  207.7490  153.3860 C   0  0  0  0  0  0  0  0  0  0  0  0
  160.8700  209.0050  151.3590 C   0  0  0  0  0  3  0  0  0  0  0  0
  162.4180  207.1410  151.3320 C   0  0  0  0  0  3  0  0  0  0  0  0
  162.1810  206.9250  152.6940 C   0  0  0  0  0  3  0  0  0  0  0  0
  161.7620  208.1840  150.6600 C   0  0  0  0  0  0  0  0  0  0  0  0
  160.6340  208.7890  152.7200 C   0  0  0  0  0  3  0  0  0  0  0  0
  161.1660  207.5050  148.2850 C   0  0  1  0  0  3  0  0  0  0  0  0
  162.0210  206.9990  147.1280 C   0  0  0  0  0  2  0  0  0  0  0  0
  161.9010  204.7860  145.8750 N   0  0  0  0  0  0  0  0  0  0  0  0
  163.2390  204.4480  146.3370 C   0  0  0  0  0  1  0  0  0  0  0  0
  161.2760  206.0130  146.2800 C   0  0  0  0  0  0  0  0  0  0  0  0
  160.0790  206.2480  145.9560 O   0  0  0  0  0  0  0  0  0  0  0  0
  161.2620  203.8990  144.9150 C   0  0  0  0  0  2  0  0  0  0  0  0
  160.9970  202.5440  145.5440 C   0  0  0  0  0  2  0  0  0  0  0  0
  159.8630  201.8630  144.8080 C   0  0  0  0  0  1  0  0  0  0  0  0
  160.6340  206.2880  149.0390 C   0  0  0  0  0  2  0  0  0  0  0  0
  161.6340  205.3220  149.1580 O   0  0  0  0  0  0  0  0  0  0  0  0
  160.4820  202.8030  148.9990 O   0  0  0  0  0  0  0  0  0  0  0  0
  160.8590  203.9910  149.8550 P   0  0  0  0  0  0  0  0  0  0  0  0
  160.5410  203.9890  151.3310 O   0  0  0  0  0  0  0  0  0  0  0  0
  1 26  1  6  0  0  0
  1 24  1  0  0  0  0
  2  7  2  0  0  0  0
  5  2  1  6  0  0  0
  5  6  1  0  0  0  0
  6  3  1  6  0  0  0
  6  4  1  0  0  0  0
  7  1  1  0  0  0  0
  7  4  1  0  0  0  0
  8  9  1  0  0  0  0
  9  3  1  0  0  0  0
 10 11  1  6  0  0  0
 10  8  1  0  0  0  0
 10  5  1  0  0  0  0
 12 11  1  0  0  0  0
 13 15  1  0  0  0  0
 14 17  1  0  0  0  0
 15 12  1  0  0  0  0
 16 18  1  0  0  0  0
 17 16  1  0  0  0  0
 17 13  2  0  0  0  0
 18 15  2  0  0  0  0
 20 19  1  0  0  0  0
 21 25  2  0  0  0  0
 22 23  1  0  0  0  0
 23 20  2  0  0  0  0
 24 22  2  0  0  0  0
 24 21  1  0  0  0  0
 25 20  1  0  0  0  0
 26 27  1  6  0  0  0
 26 35  1  0  0  0  0
 28 30  1  0  0  0  0
 28 29  1  0  0  0  0
 30 27  1  0  0  0  0
 31 30  2  0  0  0  0
 32 33  1  0  0  0  0
 32 28  1  0  0  0  0
 34 33  1  0  0  0  0
 35 36  1  0  0  0  0
 36 38  1  0  0  0  0
 37 38  2  0  0  0  0
 38 39  2  0  0  0  0
M  END
>  <MODEL>
3

>  <REMARK>
 VINA RESULT:      -6.6      3.535      5.721
  Name = 
  13 active torsions:
  status: ('A' for Active; 'I' for Inactive)
    1  A    between atoms: C_2  and  C_12
    2  A    between atoms: C_2  and  C_18
    3  A    between atoms: C_2  and  C_28
    4  A    between atoms: P_5  and  O_10
    5  A    between atoms: C_6  and  C_26
    6  A    between atoms: O_10  and  C_28
    7  A    between atoms: C_12  and  C_24
    8  A    between atoms: N_15  and  C_26
    9  A    between atoms: C_17  and  C_31
   10  A    between atoms: C_17  and  N_38
   11  A    between atoms: C_18  and  C_21
   12  A    between atoms: C_18  and  C_35
   13  A    between atoms: C_30  and  N_38
                            x       y       z     vdW  Elec       q    Type
                         _______ _______ _______ _____ _____    ______ ____

>  <TORSDO>
F 13

$$$$
=
 OpenBabel11072415033D

 39 42  0  0  1  0  0  0  0  0999 V2000
  161.7660  206.4080  150.9340 C   0  0  1  0  0  3  0  0  0  0  0  0
  160.8040  208.2330  152.2960 N   0  0  0  0  0  0  0  0  0  0  0  0
  161.4550  207.2640  155.5470 C   0  0  0  0  0  2  0  0  0  0  0  0
  161.0140  206.2480  153.3840 N   0  0  0  0  0  2  0  0  0  0  0  0
  160.2670  208.4760  153.6270 C   0  0  1  0  0  3  0  0  0  0  0  0
  160.4680  207.1420  154.3850 C   0  0  2  0  0  3  0  0  0  0  0  0
  161.1580  206.9980  152.1890 C   0  0  0  0  0  0  0  0  0  0  0  0
  160.6250  209.6780  155.7910 C   0  0  0  0  0  2  0  0  0  0  0  0
  161.0450  208.3850  156.5040 C   0  0  0  0  0  2  0  0  0  0  0  0
  160.9610  209.6710  154.2950 C   0  0  2  0  0  3  0  0  0  0  0  0
  160.5120  210.9110  153.6790 N   0  0  0  0  0  2  0  0  0  0  0  0
  159.1980  211.2260  154.2230 C   0  0  0  0  0  2  0  0  0  0  0  0
  158.8190  212.3680  152.0390 N   0  0  0  0  0  0  0  0  0  0  0  0
  158.1480  213.6670  150.0890 N   0  0  0  0  0  1  0  0  0  0  0  0
  158.5090  212.2220  153.3560 C   0  0  0  0  0  0  0  0  0  0  0  0
  156.9660  213.9830  152.5440 S   0  0  0  0  0  0  0  0  0  0  0  0
  158.0540  213.3130  151.4630 C   0  0  0  0  0  0  0  0  0  0  0  0
  157.4820  213.0350  153.8380 C   0  0  0  0  0  3  0  0  0  0  0  0
  160.4740  200.9060  150.5930 F   0  0  0  0  0  0  0  0  0  0  0  0
  160.7800  202.2240  150.6670 C   0  0  0  0  0  0  0  0  0  0  0  0
  161.9080  204.0530  151.7830 C   0  0  0  0  0  3  0  0  0  0  0  0
  160.5970  204.4720  149.7890 C   0  0  0  0  0  3  0  0  0  0  0  0
  160.2820  203.1120  149.7100 C   0  0  0  0  0  3  0  0  0  0  0  0
  161.4130  204.9470  150.8270 C   0  0  0  0  0  0  0  0  0  0  0  0
  161.5930  202.6940  151.7030 C   0  0  0  0  0  3  0  0  0  0  0  0
  161.4190  207.2020  149.6530 C   0  0  1  0  0  3  0  0  0  0  0  0
  162.5200  208.2110  149.3480 C   0  0  0  0  0  2  0  0  0  0  0  0
  162.0480  210.6770  149.7730 N   0  0  0  0  0  0  0  0  0  0  0  0
  162.7500  210.5960  151.0450 C   0  0  0  0  0  1  0  0  0  0  0  0
  161.9550  209.5300  148.9140 C   0  0  0  0  0  0  0  0  0  0  0  0
  161.4330  209.6400  147.7700 O   0  0  0  0  0  0  0  0  0  0  0  0
  161.3590  211.9170  149.4470 C   0  0  0  0  0  2  0  0  0  0  0  0
  162.1990  212.7540  148.5020 C   0  0  0  0  0  2  0  0  0  0  0  0
  161.4290  212.9870  147.2200 C   0  0  0  0  0  1  0  0  0  0  0  0
  161.2680  206.2940  148.4340 C   0  0  0  0  0  2  0  0  0  0  0  0
  162.3520  206.4620  147.5720 O   0  0  0  0  0  0  0  0  0  0  0  0
  162.6990  204.5620  145.5810 O   0  0  0  0  0  0  0  0  0  0  0  0
  161.8780  205.7020  146.1390 P   0  0  0  0  0  0  0  0  0  0  0  0
  160.6340  206.1620  145.4150 O   0  0  0  0  0  0  0  0  0  0  0  0
  1 26  1  6  0  0  0
  1  7  1  0  0  0  0
  3  9  1  0  0  0  0
  4  6  1  0  0  0  0
  5  2  1  6  0  0  0
  5 10  1  0  0  0  0
  5  6  1  0  0  0  0
  6  3  1  1  0  0  0
  7  2  2  0  0  0  0
  7  4  1  0  0  0  0
  8  9  1  0  0  0  0
 10 11  1  6  0  0  0
 10  8  1  0  0  0  0
 11 12  1  0  0  0  0
 13 15  1  0  0  0  0
 14 17  1  0  0  0  0
 15 18  2  0  0  0  0
 15 12  1  0  0  0  0
 16 18  1  0  0  0  0
 17 13  2  0  0  0  0
 17 16  1  0  0  0  0
 19 20  1  0  0  0  0
 20 25  1  0  0  0  0
 22 24  2  0  0  0  0
 23 22  1  0  0  0  0
 23 20  2  0  0  0  0
 24  1  1  0  0  0  0
 24 21  1  0  0  0  0
 25 21  2  0  0  0  0
 26 35  1  6  0  0  0
 27 26  1  0  0  0  0
 28 29  1  0  0  0  0
 30 27  1  0  0  0  0
 30 28  1  0  0  0  0
 31 30  2  0  0  0  0
 32 28  1  0  0  0  0
 33 32  1  0  0  0  0
 34 33  1  0  0  0  0
 36 35  1  0  0  0  0
 37 38  2  0  0  0  0
 38 36  1  0  0  0  0
 39 38  2  0  0  0  0
M  END
>  <MODEL>
4

>  <REMARK>
 VINA RESULT:      -6.5      2.887      5.662
  Name = 
  13 active torsions:
  status: ('A' for Active; 'I' for Inactive)
    1  A    between atoms: C_2  and  C_12
    2  A    between atoms: C_2  and  C_18
    3  A    between atoms: C_2  and  C_28
    4  A    between atoms: P_5  and  O_10
    5  A    between atoms: C_6  and  C_26
    6  A    between atoms: O_10  and  C_28
    7  A    between atoms: C_12  and  C_24
    8  A    between atoms: N_15  and  C_26
    9  A    between atoms: C_17  and  C_31
   10  A    between atoms: C_17  and  N_38
   11  A    between atoms: C_18  and  C_21
   12  A    between atoms: C_18  and  C_35
   13  A    between atoms: C_30  and  N_38
                            x       y       z     vdW  Elec       q    Type
                         _______ _______ _______ _____ _____    ______ ____

>  <TORSDO>
F 13

$$$$
=
 OpenBabel11072415033D

 39 42  0  0  1  0  0  0  0  0999 V2000
  161.1480  208.3480  150.3560 C   0  0  1  0  0  3  0  0  0  0  0  0
  161.1290  210.8000  150.6750 N   0  0  0  0  0  0  0  0  0  0  0  0
  161.4890  212.0490  147.4750 C   0  0  0  0  0  2  0  0  0  0  0  0
  162.1500  210.1000  148.7680 N   0  0  0  0  0  2  0  0  0  0  0  0
  161.6020  212.0180  150.0340 C   0  0  1  0  0  3  0  0  0  0  0  0
  162.2420  211.5460  148.7070 C   0  0  2  0  0  3  0  0  0  0  0  0
  161.4860  209.7750  149.9780 C   0  0  0  0  0  0  0  0  0  0  0  0
  160.9110  214.1210  148.8700 C   0  0  0  0  0  2  0  0  0  0  0  0
  161.3400  213.5710  147.5030 C   0  0  0  0  0  2  0  0  0  0  0  0
  160.4600  213.0230  149.8400 C   0  0  2  0  0  3  0  0  0  0  0  0
  160.0950  213.6100  151.1210 N   0  0  0  0  0  2  0  0  0  0  0  0
  158.6420  213.5880  151.2210 C   0  0  0  0  0  2  0  0  0  0  0  0
  157.1710  213.4840  153.2320 N   0  0  0  0  0  0  0  0  0  0  0  0
  155.9360  213.0520  155.2870 N   0  0  0  0  0  1  0  0  0  0  0  0
  158.2250  212.9960  152.5230 C   0  0  0  0  0  0  0  0  0  0  0  0
  158.0790  211.5260  154.5110 S   0  0  0  0  0  0  0  0  0  0  0  0
  156.9780  212.7770  154.3600 C   0  0  0  0  0  0  0  0  0  0  0  0
  158.8700  211.8850  153.0670 C   0  0  0  0  0  3  0  0  0  0  0  0
  162.0250  204.8840  145.9630 F   0  0  0  0  0  0  0  0  0  0  0  0
  161.8230  205.7140  147.0150 C   0  0  0  0  0  0  0  0  0  0  0  0
  160.3630  206.6120  148.7260 C   0  0  0  0  0  3  0  0  0  0  0  0
  162.6520  207.3900  148.5540 C   0  0  0  0  0  3  0  0  0  0  0  0
  162.8610  206.5310  147.4700 C   0  0  0  0  0  3  0  0  0  0  0  0
  161.4000  207.4320  149.1870 C   0  0  0  0  0  0  0  0  0  0  0  0
  160.5740  205.7550  147.6420 C   0  0  0  0  0  3  0  0  0  0  0  0
  161.8510  207.8740  151.6480 C   0  0  1  0  0  3  0  0  0  0  0  0
  160.8700  207.8930  152.8160 C   0  0  0  0  0  2  0  0  0  0  0  0
  160.9220  208.7110  155.2260 N   0  0  0  0  0  0  0  0  0  0  0  0
  160.2710  207.4850  155.6610 C   0  0  0  0  0  1  0  0  0  0  0  0
  161.2540  208.9140  153.8440 C   0  0  0  0  0  0  0  0  0  0  0  0
  161.9080  209.9350  153.4950 O   0  0  0  0  0  0  0  0  0  0  0  0
  161.1310  209.7630  156.2100 C   0  0  0  0  0  2  0  0  0  0  0  0
  162.4310  209.5340  156.9580 C   0  0  0  0  0  2  0  0  0  0  0  0
  163.3140  210.7540  156.8130 C   0  0  0  0  0  1  0  0  0  0  0  0
  162.3960  206.4530  151.5210 C   0  0  0  0  0  2  0  0  0  0  0  0
  161.8930  205.6510  152.5460 O   0  0  0  0  0  0  0  0  0  0  0  0
  161.6360  204.0520  150.2930 O   0  0  0  0  0  0  0  0  0  0  0  0
  161.3590  204.2490  151.7660 P   0  0  0  0  0  0  0  0  0  0  0  0
  160.6030  203.1950  152.5400 O   0  0  0  0  0  0  0  0  0  0  0  0
  1 26  1  1  0  0  0
  3  9  1  0  0  0  0
  4  7  1  0  0  0  0
  5  2  1  6  0  0  0
  6  3  1  6  0  0  0
  6  4  1  0  0  0  0
  6  5  1  0  0  0  0
  7  1  1  0  0  0  0
  7  2  2  0  0  0  0
  8 10  1  0  0  0  0
  9  8  1  0  0  0  0
 10  5  1  0  0  0  0
 10 11  1  1  0  0  0
 11 12  1  0  0  0  0
 12 15  1  0  0  0  0
 13 17  2  0  0  0  0
 15 18  2  0  0  0  0
 15 13  1  0  0  0  0
 17 16  1  0  0  0  0
 17 14  1  0  0  0  0
 18 16  1  0  0  0  0
 19 20  1  0  0  0  0
 20 23  2  0  0  0  0
 20 25  1  0  0  0  0
 21 24  1  0  0  0  0
 22 24  2  0  0  0  0
 23 22  1  0  0  0  0
 24  1  1  0  0  0  0
 25 21  2  0  0  0  0
 26 35  1  6  0  0  0
 26 27  1  0  0  0  0
 27 30  1  0  0  0  0
 28 29  1  0  0  0  0
 28 32  1  0  0  0  0
 30 28  1  0  0  0  0
 31 30  2  0  0  0  0
 32 33  1  0  0  0  0
 34 33  1  0  0  0  0
 35 36  1  0  0  0  0
 37 38  2  0  0  0  0
 38 39  2  0  0  0  0
 38 36  1  0  0  0  0
M  END
>  <MODEL>
5

>  <REMARK>
 VINA RESULT:      -6.5      2.526      5.785
  Name = 
  13 active torsions:
  status: ('A' for Active; 'I' for Inactive)
    1  A    between atoms: C_2  and  C_12
    2  A    between atoms: C_2  and  C_18
    3  A    between atoms: C_2  and  C_28
    4  A    between atoms: P_5  and  O_10
    5  A    between atoms: C_6  and  C_26
    6  A    between atoms: O_10  and  C_28
    7  A    between atoms: C_12  and  C_24
    8  A    between atoms: N_15  and  C_26
    9  A    between atoms: C_17  and  C_31
   10  A    between atoms: C_17  and  N_38
   11  A    between atoms: C_18  and  C_21
   12  A    between atoms: C_18  and  C_35
   13  A    between atoms: C_30  and  N_38
                            x       y       z     vdW  Elec       q    Type
                         _______ _______ _______ _____ _____    ______ ____

>  <TORSDO>
F 13

$$$$
=
 OpenBabel11072415033D

 39 42  0  0  1  0  0  0  0  0999 V2000
  162.0530  210.3360  151.9140 C   0  0  1  0  0  3  0  0  0  0  0  0
  161.7410  208.3540  150.4680 N   0  0  0  0  0  0  0  0  0  0  0  0
  161.1970  205.7810  152.7070 C   0  0  0  0  0  2  0  0  0  0  0  0
  162.4080  207.8840  152.5900 N   0  0  0  0  0  2  0  0  0  0  0  0
  161.8750  206.9050  150.5070 C   0  0  1  0  0  3  0  0  0  0  0  0
  162.2690  206.5820  151.9680 C   0  0  2  0  0  3  0  0  0  0  0  0
  162.0830  208.8530  151.6070 C   0  0  0  0  0  0  0  0  0  0  0  0
  160.6410  204.7320  150.4340 C   0  0  0  0  0  2  0  0  0  0  0  0
  160.8340  204.5080  151.9400 C   0  0  0  0  0  2  0  0  0  0  0  0
  160.5820  206.2160  150.0540 C   0  0  2  0  0  3  0  0  0  0  0  0
  160.4260  206.3550  148.6140 N   0  0  0  0  0  2  0  0  0  0  0  0
  161.6680  205.9220  147.9890 C   0  0  0  0  0  2  0  0  0  0  0  0
  161.2880  203.7100  146.9020 N   0  0  0  0  0  0  0  0  0  0  0  0
  160.8310  201.7600  145.5140 N   0  0  0  0  0  1  0  0  0  0  0  0
  161.3760  205.0650  146.8060 C   0  0  0  0  0  0  0  0  0  0  0  0
  160.8260  204.3130  144.5100 S   0  0  0  0  0  0  0  0  0  0  0  0
  160.9990  203.1580  145.7090 C   0  0  0  0  0  0  0  0  0  0  0  0
  161.1400  205.6080  145.5430 C   0  0  0  0  0  3  0  0  0  0  0  0
  160.9830  213.2170  147.1590 F   0  0  0  0  0  0  0  0  0  0  0  0
  161.2370  212.5340  148.3010 C   0  0  0  0  0  0  0  0  0  0  0  0
  162.2410  210.6430  149.4330 C   0  0  0  0  0  3  0  0  0  0  0  0
  161.0120  212.3030  150.7000 C   0  0  0  0  0  3  0  0  0  0  0  0
  160.7520  213.0100  149.5220 C   0  0  0  0  0  3  0  0  0  0  0  0
  161.7600  211.1160  150.6590 C   0  0  0  0  0  0  0  0  0  0  0  0
  161.9800  211.3510  148.2550 C   0  0  0  0  0  3  0  0  0  0  0  0
  161.1060  210.7010  153.0790 C   0  0  1  0  0  3  0  0  0  0  0  0
  159.6950  210.2020  152.7860 C   0  0  0  0  0  2  0  0  0  0  0  0
  158.0060  211.3690  154.2920 N   0  0  0  0  0  0  0  0  0  0  0  0
  158.3650  210.4820  155.3880 C   0  0  0  0  0  1  0  0  0  0  0  0
  158.6710  211.2700  153.0230 C   0  0  0  0  0  0  0  0  0  0  0  0
  158.4230  212.1100  152.1140 O   0  0  0  0  0  0  0  0  0  0  0  0
  156.8910  212.2840  154.4860 C   0  0  0  0  0  2  0  0  0  0  0  0
  157.1590  213.1980  155.6660 C   0  0  0  0  0  2  0  0  0  0  0  0
  155.9660  213.1760  156.5980 C   0  0  0  0  0  1  0  0  0  0  0  0
  161.5530  210.0830  154.4020 C   0  0  0  0  0  2  0  0  0  0  0  0
  161.7650  211.0820  155.3520 O   0  0  0  0  0  0  0  0  0  0  0  0
  163.8220  211.0690  157.2150 O   0  0  0  0  0  0  0  0  0  0  0  0
  162.6730  210.3310  156.5650 P   0  0  0  0  0  0  0  0  0  0  0  0
  162.3380  208.9230  156.9970 O   0  0  0  0  0  0  0  0  0  0  0  0
  1 26  1  1  0  0  0
  2  7  2  0  0  0  0
  5  2  1  1  0  0  0
  5  6  1  0  0  0  0
  6  4  1  0  0  0  0
  6  3  1  1  0  0  0
  7  1  1  0  0  0  0
  7  4  1  0  0  0  0
  8  9  1  0  0  0  0
  9  3  1  0  0  0  0
 10 11  1  6  0  0  0
 10  8  1  0  0  0  0
 10  5  1  0  0  0  0
 12 11  1  0  0  0  0
 14 17  1  0  0  0  0
 15 13  1  0  0  0  0
 15 12  1  0  0  0  0
 16 18  1  0  0  0  0
 16 17  1  0  0  0  0
 17 13  2  0  0  0  0
 18 15  2  0  0  0  0
 19 20  1  0  0  0  0
 20 23  1  0  0  0  0
 21 24  2  0  0  0  0
 23 22  2  0  0  0  0
 24 22  1  0  0  0  0
 24  1  1  0  0  0  0
 25 20  2  0  0  0  0
 25 21  1  0  0  0  0
 26 27  1  6  0  0  0
 26 35  1  0  0  0  0
 27 30  1  0  0  0  0
 28 32  1  0  0  0  0
 28 29  1  0  0  0  0
 30 28  1  0  0  0  0
 31 30  2  0  0  0  0
 32 33  1  0  0  0  0
 33 34  1  0  0  0  0
 35 36  1  0  0  0  0
 36 38  1  0  0  0  0
 38 39  2  0  0  0  0
 38 37  2  0  0  0  0
M  END
>  <MODEL>
6

>  <REMARK>
 VINA RESULT:      -6.1      4.529      9.159
  Name = 
  13 active torsions:
  status: ('A' for Active; 'I' for Inactive)
    1  A    between atoms: C_2  and  C_12
    2  A    between atoms: C_2  and  C_18
    3  A    between atoms: C_2  and  C_28
    4  A    between atoms: P_5  and  O_10
    5  A    between atoms: C_6  and  C_26
    6  A    between atoms: O_10  and  C_28
    7  A    between atoms: C_12  and  C_24
    8  A    between atoms: N_15  and  C_26
    9  A    between atoms: C_17  and  C_31
   10  A    between atoms: C_17  and  N_38
   11  A    between atoms: C_18  and  C_21
   12  A    between atoms: C_18  and  C_35
   13  A    between atoms: C_30  and  N_38
                            x       y       z     vdW  Elec       q    Type
                         _______ _______ _______ _____ _____    ______ ____

>  <TORSDO>
F 13

$$$$
=
 OpenBabel11072415033D

 39 42  0  0  1  0  0  0  0  0999 V2000
  161.1350  206.9700  149.3130 C   0  0  1  0  0  3  0  0  0  0  0  0
  161.4190  209.1560  150.4330 N   0  0  0  0  0  0  0  0  0  0  0  0
  161.4780  211.4160  147.8210 C   0  0  0  0  0  2  0  0  0  0  0  0
  162.0950  209.1080  148.2620 N   0  0  0  0  0  2  0  0  0  0  0  0
  161.9290  210.4930  150.1690 C   0  0  1  0  0  3  0  0  0  0  0  0
  162.3310  210.4770  148.6750 C   0  0  2  0  0  3  0  0  0  0  0  0
  161.5690  208.4190  149.3850 C   0  0  0  0  0  0  0  0  0  0  0  0
  161.3150  212.9030  149.9040 C   0  0  0  0  0  2  0  0  0  0  0  0
  161.4960  212.8390  148.3810 C   0  0  0  0  0  2  0  0  0  0  0  0
  160.8830  211.5630  150.5100 C   0  0  2  0  0  3  0  0  0  0  0  0
  160.7570  211.6880  151.9550 N   0  0  0  0  0  2  0  0  0  0  0  0
  159.6180  212.5530  152.2270 C   0  0  0  0  0  2  0  0  0  0  0  0
  157.7600  211.7100  153.6600 N   0  0  0  0  0  0  0  0  0  0  0  0
  156.2030  210.9210  155.3610 N   0  0  0  0  0  1  0  0  0  0  0  0
  159.0190  212.2130  153.5480 C   0  0  0  0  0  0  0  0  0  0  0  0
  158.7120  211.8400  155.9780 S   0  0  0  0  0  0  0  0  0  0  0  0
  157.4500  211.4650  154.9470 C   0  0  0  0  0  0  0  0  0  0  0  0
  159.7320  212.3560  154.7400 C   0  0  0  0  0  3  0  0  0  0  0  0
  161.8060  205.0120  144.0430 F   0  0  0  0  0  0  0  0  0  0  0  0
  161.6520  205.4770  145.3060 C   0  0  0  0  0  0  0  0  0  0  0  0
  160.2970  206.5800  146.9820 C   0  0  0  0  0  3  0  0  0  0  0  0
  162.5300  205.8190  147.5360 C   0  0  0  0  0  3  0  0  0  0  0  0
  162.6890  205.3370  146.2330 C   0  0  0  0  0  3  0  0  0  0  0  0
  161.3310  206.4420  147.9150 C   0  0  0  0  0  0  0  0  0  0  0  0
  160.4570  206.0970  145.6800 C   0  0  0  0  0  3  0  0  0  0  0  0
  161.7980  206.0770  150.3870 C   0  0  1  0  0  3  0  0  0  0  0  0
  162.2220  206.9220  151.5830 C   0  0  0  0  0  2  0  0  0  0  0  0
  160.9210  207.3550  153.7280 N   0  0  0  0  0  0  0  0  0  0  0  0
  160.7780  208.7570  153.3630 C   0  0  0  0  0  1  0  0  0  0  0  0
  161.5940  206.4360  152.8540 C   0  0  0  0  0  0  0  0  0  0  0  0
  161.6230  205.2060  153.1340 O   0  0  0  0  0  0  0  0  0  0  0  0
  160.4570  206.9380  155.0430 C   0  0  0  0  0  2  0  0  0  0  0  0
  160.2970  208.1420  155.9510 C   0  0  0  0  0  2  0  0  0  0  0  0
  161.0120  207.8800  157.2600 C   0  0  0  0  0  1  0  0  0  0  0  0
  160.8550  204.9890  150.8950 C   0  0  0  0  0  2  0  0  0  0  0  0
  160.4000  204.2110  149.8300 O   0  0  0  0  0  0  0  0  0  0  0  0
  160.6700  201.5150  149.2350 O   0  0  0  0  0  0  0  0  0  0  0  0
  160.8300  202.6300  150.2440 P   0  0  0  0  0  0  0  0  0  0  0  0
  161.3730  202.3300  151.6220 O   0  0  0  0  0  0  0  0  0  0  0  0
  1  7  1  0  0  0  0
  1 26  1  1  0  0  0
  3  9  1  0  0  0  0
  4  6  1  0  0  0  0
  4  7  1  0  0  0  0
  5  2  1  6  0  0  0
  5 10  1  0  0  0  0
  6  3  1  6  0  0  0
  6  5  1  0  0  0  0
  7  2  2  0  0  0  0
  8 10  1  0  0  0  0
  9  8  1  0  0  0  0
 10 11  1  1  0  0  0
 11 12  1  0  0  0  0
 12 15  1  0  0  0  0
 13 17  2  0  0  0  0
 15 13  1  0  0  0  0
 15 18  2  0  0  0  0
 17 14  1  0  0  0  0
 17 16  1  0  0  0  0
 18 16  1  0  0  0  0
 19 20  1  0  0  0  0
 20 25  2  0  0  0  0
 20 23  1  0  0  0  0
 21 24  2  0  0  0  0
 22 24  1  0  0  0  0
 23 22  2  0  0  0  0
 24  1  1  0  0  0  0
 25 21  1  0  0  0  0
 26 35  1  1  0  0  0
 26 27  1  0  0  0  0
 27 30  1  0  0  0  0
 28 32  1  0  0  0  0
 29 28  1  0  0  0  0
 30 31  2  0  0  0  0
 30 28  1  0  0  0  0
 32 33  1  0  0  0  0
 33 34  1  0  0  0  0
 36 38  1  0  0  0  0
 36 35  1  0  0  0  0
 37 38  2  0  0  0  0
 38 39  2  0  0  0  0
M  END
>  <MODEL>
7

>  <REMARK>
 VINA RESULT:      -6.1      2.503      5.458
  Name = 
  13 active torsions:
  status: ('A' for Active; 'I' for Inactive)
    1  A    between atoms: C_2  and  C_12
    2  A    between atoms: C_2  and  C_18
    3  A    between atoms: C_2  and  C_28
    4  A    between atoms: P_5  and  O_10
    5  A    between atoms: C_6  and  C_26
    6  A    between atoms: O_10  and  C_28
    7  A    between atoms: C_12  and  C_24
    8  A    between atoms: N_15  and  C_26
    9  A    between atoms: C_17  and  C_31
   10  A    between atoms: C_17  and  N_38
   11  A    between atoms: C_18  and  C_21
   12  A    between atoms: C_18  and  C_35
   13  A    between atoms: C_30  and  N_38
                            x       y       z     vdW  Elec       q    Type
                         _______ _______ _______ _____ _____    ______ ____

>  <TORSDO>
F 13

$$$$
=
 OpenBabel11072415033D

 39 42  0  0  1  0  0  0  0  0999 V2000
  158.8710  211.9120  152.4280 C   0  0  1  0  0  3  0  0  0  0  0  0
  160.0550  209.7600  152.7150 N   0  0  0  0  0  0  0  0  0  0  0  0
  161.3130  209.9370  155.9270 C   0  0  0  0  0  2  0  0  0  0  0  0
  160.7710  211.4270  154.0860 N   0  0  0  0  0  2  0  0  0  0  0  0
  161.1380  209.1710  153.4890 C   0  0  1  0  0  3  0  0  0  0  0  0
  161.5830  210.2860  154.4640 C   0  0  2  0  0  3  0  0  0  0  0  0
  159.9160  211.0010  153.0380 C   0  0  0  0  0  0  0  0  0  0  0  0
  161.7180  207.4960  155.2530 C   0  0  0  0  0  2  0  0  0  0  0  0
  161.9480  208.5950  156.2990 C   0  0  0  0  0  2  0  0  0  0  0  0
  160.6810  207.8870  154.1940 C   0  0  2  0  0  3  0  0  0  0  0  0
  160.5340  206.8140  153.2210 N   0  0  0  0  0  2  0  0  0  0  0  0
  161.7820  206.7150  152.4780 C   0  0  0  0  0  2  0  0  0  0  0  0
  161.3210  204.8780  150.8570 N   0  0  0  0  0  0  0  0  0  0  0  0
  160.8280  203.3730  149.0050 N   0  0  0  0  0  1  0  0  0  0  0  0
  161.5230  206.2010  151.1040 C   0  0  0  0  0  0  0  0  0  0  0  0
  161.1070  206.0800  148.6650 S   0  0  0  0  0  0  0  0  0  0  0  0
  161.0880  204.6600  149.5500 C   0  0  0  0  0  0  0  0  0  0  0  0
  161.4350  207.0520  150.0020 C   0  0  0  0  0  3  0  0  0  0  0  0
  155.7430  214.2810  156.5110 F   0  0  0  0  0  0  0  0  0  0  0  0
  156.4880  213.7080  155.5340 C   0  0  0  0  0  0  0  0  0  0  0  0
  158.4380  213.7310  154.0990 C   0  0  0  0  0  3  0  0  0  0  0  0
  156.8400  211.9160  153.9440 C   0  0  0  0  0  3  0  0  0  0  0  0
  156.0720  212.5060  154.9530 C   0  0  0  0  0  3  0  0  0  0  0  0
  158.0270  212.5270  153.5140 C   0  0  0  0  0  0  0  0  0  0  0  0
  157.6700  214.3200  155.1070 C   0  0  0  0  0  3  0  0  0  0  0  0
  159.4630  212.9640  151.4630 C   0  0  1  0  0  3  0  0  0  0  0  0
  160.7820  212.4640  150.8860 C   0  0  0  0  0  2  0  0  0  0  0  0
  161.8000  212.4980  148.5520 N   0  0  0  0  0  0  0  0  0  0  0  0
  162.0570  211.0680  148.6400 C   0  0  0  0  0  1  0  0  0  0  0  0
  161.1460  213.1910  149.6270 C   0  0  0  0  0  0  0  0  0  0  0  0
  160.8380  214.4080  149.4970 O   0  0  0  0  0  0  0  0  0  0  0  0
  162.3140  213.2190  147.3970 C   0  0  0  0  0  2  0  0  0  0  0  0
  161.4730  212.9180  146.1710 C   0  0  0  0  0  2  0  0  0  0  0  0
  162.0900  213.5900  144.9630 C   0  0  0  0  0  1  0  0  0  0  0  0
  158.5270  213.2660  150.2940 C   0  0  0  0  0  2  0  0  0  0  0  0
  157.3650  213.8840  150.7560 O   0  0  0  0  0  0  0  0  0  0  0  0
  156.7910  213.3260  148.1000 O   0  0  0  0  0  0  0  0  0  0  0  0
  156.3130  213.8560  149.4330 P   0  0  0  0  0  0  0  0  0  0  0  0
  154.8970  214.3620  149.5810 O   0  0  0  0  0  0  0  0  0  0  0  0
  1 26  1  1  0  0  0
  1  7  1  0  0  0  0
  1 24  1  0  0  0  0
  2  7  2  0  0  0  0
  3  9  1  0  0  0  0
  4  6  1  0  0  0  0
  5  2  1  1  0  0  0
  5 10  1  0  0  0  0
  5  6  1  0  0  0  0
  6  3  1  1  0  0  0
  7  4  1  0  0  0  0
  8  9  1  0  0  0  0
 10 11  1  6  0  0  0
 10  8  1  0  0  0  0
 12 11  1  0  0  0  0
 13 15  1  0  0  0  0
 14 17  1  0  0  0  0
 15 12  1  0  0  0  0
 16 17  1  0  0  0  0
 16 18  1  0  0  0  0
 17 13  2  0  0  0  0
 18 15  2  0  0  0  0
 20 19  1  0  0  0  0
 21 25  2  0  0  0  0
 22 23  1  0  0  0  0
 23 20  2  0  0  0  0
 24 22  2  0  0  0  0
 24 21  1  0  0  0  0
 25 20  1  0  0  0  0
 26 35  1  6  0  0  0
 27 26  1  0  0  0  0
 28 29  1  0  0  0  0
 28 30  1  0  0  0  0
 30 27  1  0  0  0  0
 31 30  2  0  0  0  0
 32 28  1  0  0  0  0
 33 32  1  0  0  0  0
 34 33  1  0  0  0  0
 35 36  1  0  0  0  0
 37 38  2  0  0  0  0
 38 39  2  0  0  0  0
 38 36  1  0  0  0  0
M  END
>  <MODEL>
8

>  <REMARK>
 VINA RESULT:      -5.8      4.752      8.065
  Name = 
  13 active torsions:
  status: ('A' for Active; 'I' for Inactive)
    1  A    between atoms: C_2  and  C_12
    2  A    between atoms: C_2  and  C_18
    3  A    between atoms: C_2  and  C_28
    4  A    between atoms: P_5  and  O_10
    5  A    between atoms: C_6  and  C_26
    6  A    between atoms: O_10  and  C_28
    7  A    between atoms: C_12  and  C_24
    8  A    between atoms: N_15  and  C_26
    9  A    between atoms: C_17  and  C_31
   10  A    between atoms: C_17  and  N_38
   11  A    between atoms: C_18  and  C_21
   12  A    between atoms: C_18  and  C_35
   13  A    between atoms: C_30  and  N_38
                            x       y       z     vdW  Elec       q    Type
                         _______ _______ _______ _____ _____    ______ ____

>  <TORSDO>
F 13

$$$$
=
 OpenBabel11072415033D

 39 42  0  0  1  0  0  0  0  0999 V2000
  159.4710  211.3210  152.3280 C   0  0  1  0  0  3  0  0  0  0  0  0
  160.9680  209.4860  151.6170 N   0  0  0  0  0  0  0  0  0  0  0  0
  160.4610  207.0400  154.0020 C   0  0  0  0  0  2  0  0  0  0  0  0
  160.4220  209.4630  153.8240 N   0  0  0  0  0  2  0  0  0  0  0  0
  161.6840  208.3450  152.1680 C   0  0  1  0  0  3  0  0  0  0  0  0
  161.2630  208.2940  153.6560 C   0  0  2  0  0  3  0  0  0  0  0  0
  160.3290  210.0940  152.5570 C   0  0  0  0  0  0  0  0  0  0  0  0
  161.8460  205.8500  152.2020 C   0  0  0  0  0  2  0  0  0  0  0  0
  161.2170  205.7730  153.6000 C   0  0  0  0  0  2  0  0  0  0  0  0
  161.3600  207.0600  151.3960 C   0  0  2  0  0  3  0  0  0  0  0  0
  162.0150  207.0870  150.0960 N   0  0  0  0  0  2  0  0  0  0  0  0
  160.9830  206.9530  149.0770 C   0  0  0  0  0  2  0  0  0  0  0  0
  161.1730  204.6450  148.1540 N   0  0  0  0  0  0  0  0  0  0  0  0
  161.5110  202.5650  146.9300 N   0  0  0  0  0  1  0  0  0  0  0  0
  161.4120  205.9790  148.0350 C   0  0  0  0  0  0  0  0  0  0  0  0
  162.3340  204.9940  145.9570 S   0  0  0  0  0  0  0  0  0  0  0  0
  161.6370  203.9730  147.0840 C   0  0  0  0  0  0  0  0  0  0  0  0
  162.0500  206.3870  146.8630 C   0  0  0  0  0  3  0  0  0  0  0  0
  157.3920  213.1660  157.2600 F   0  0  0  0  0  0  0  0  0  0  0  0
  157.8830  212.7210  156.0790 C   0  0  0  0  0  0  0  0  0  0  0  0
  159.7320  212.4850  154.5330 C   0  0  0  0  0  3  0  0  0  0  0  0
  157.5550  211.5840  153.9670 C   0  0  0  0  0  3  0  0  0  0  0  0
  157.0480  212.0420  155.1870 C   0  0  0  0  0  3  0  0  0  0  0  0
  158.9010  211.8040  153.6360 C   0  0  0  0  0  0  0  0  0  0  0  0
  159.2240  212.9430  155.7520 C   0  0  0  0  0  3  0  0  0  0  0  0
  160.1960  212.4380  151.5430 C   0  0  1  0  0  3  0  0  0  0  0  0
  160.0060  212.2350  150.0440 C   0  0  0  0  0  2  0  0  0  0  0  0
  161.4010  213.5100  148.3390 N   0  0  0  0  0  0  0  0  0  0  0  0
  160.3070  214.4480  148.1380 C   0  0  0  0  0  1  0  0  0  0  0  0
  161.2850  212.4430  149.2920 C   0  0  0  0  0  0  0  0  0  0  0  0
  162.2760  211.6990  149.5290 O   0  0  0  0  0  0  0  0  0  0  0  0
  162.5680  213.6230  147.4760 C   0  0  0  0  0  2  0  0  0  0  0  0
  162.3080  212.9380  146.1470 C   0  0  0  0  0  2  0  0  0  0  0  0
  161.8520  213.9670  145.1350 C   0  0  0  0  0  1  0  0  0  0  0  0
  159.6680  213.8270  151.8970 C   0  0  0  0  0  2  0  0  0  0  0  0
  159.1530  214.4490  150.7590 O   0  0  0  0  0  0  0  0  0  0  0  0
  156.8590  214.3550  152.3160 O   0  0  0  0  0  0  0  0  0  0  0  0
  157.4760  214.3370  150.9360 P   0  0  0  0  0  0  0  0  0  0  0  0
  156.5930  214.2160  149.7160 O   0  0  0  0  0  0  0  0  0  0  0  0
  1 26  1  1  0  0  0
  1  7  1  0  0  0  0
  1 24  1  0  0  0  0
  2  7  2  0  0  0  0
  5  2  1  6  0  0  0
  5  6  1  0  0  0  0
  6  4  1  0  0  0  0
  6  3  1  6  0  0  0
  7  4  1  0  0  0  0
  8  9  1  0  0  0  0
  9  3  1  0  0  0  0
 10 11  1  6  0  0  0
 10  5  1  0  0  0  0
 10  8  1  0  0  0  0
 12 11  1  0  0  0  0
 14 17  1  0  0  0  0
 15 13  1  0  0  0  0
 15 12  1  0  0  0  0
 16 18  1  0  0  0  0
 16 17  1  0  0  0  0
 17 13  2  0  0  0  0
 18 15  2  0  0  0  0
 20 19  1  0  0  0  0
 21 25  2  0  0  0  0
 22 23  1  0  0  0  0
 23 20  2  0  0  0  0
 24 22  2  0  0  0  0
 24 21  1  0  0  0  0
 25 20  1  0  0  0  0
 26 27  1  6  0  0  0
 26 35  1  0  0  0  0
 28 30  1  0  0  0  0
 29 28  1  0  0  0  0
 30 31  2  0  0  0  0
 30 27  1  0  0  0  0
 32 28  1  0  0  0  0
 33 32  1  0  0  0  0
 34 33  1  0  0  0  0
 36 38  1  0  0  0  0
 36 35  1  0  0  0  0
 38 37  2  0  0  0  0
 39 38  2  0  0  0  0
M  END
>  <MODEL>
9

>  <REMARK>
 VINA RESULT:      -5.7      4.377      8.297
  Name = 
  13 active torsions:
  status: ('A' for Active; 'I' for Inactive)
    1  A    between atoms: C_2  and  C_12
    2  A    between atoms: C_2  and  C_18
    3  A    between atoms: C_2  and  C_28
    4  A    between atoms: P_5  and  O_10
    5  A    between atoms: C_6  and  C_26
    6  A    between atoms: O_10  and  C_28
    7  A    between atoms: C_12  and  C_24
    8  A    between atoms: N_15  and  C_26
    9  A    between atoms: C_17  and  C_31
   10  A    between atoms: C_17  and  N_38
   11  A    between atoms: C_18  and  C_21
   12  A    between atoms: C_18  and  C_35
   13  A    between atoms: C_30  and  N_38
                            x       y       z     vdW  Elec       q    Type
                         _______ _______ _______ _____ _____    ______ ____

>  <TORSDO>
F 13

$$$$
