=
 OpenBabel11072413183D

 27 32  0  0  1  0  0  0  0  0999 V2000
  161.3570  205.4630  153.7040 C   0  0  0  0  0  3  0  0  0  0  0  0
  160.9760  207.5960  152.6280 C   0  0  0  0  0  0  0  0  0  0  0  0
  161.1380  204.8230  152.4850 C   0  0  0  0  0  0  0  0  0  0  0  0
  160.6190  204.9480  150.1190 C   0  0  0  0  0  0  0  0  0  0  0  0
  160.8410  205.5970  151.3430 C   0  0  0  0  0  0  0  0  0  0  0  0
  160.6910  203.5530  150.0590 C   0  0  0  0  0  3  0  0  0  0  0  0
  161.2750  206.8550  153.7800 C   0  0  0  0  0  3  0  0  0  0  0  0
  161.2070  203.4690  152.3930 N   0  0  0  0  0  0  0  0  0  0  0  0
  160.7700  206.9530  151.4460 N   0  0  0  0  0  0  0  0  0  0  0  0
  160.9910  202.8260  151.2140 C   0  0  0  0  0  3  0  0  0  0  0  0
  160.9450  211.2670  151.9770 C   0  0  0  0  0  3  0  0  0  0  0  0
  160.8730  209.0620  152.6820 C   0  0  0  0  0  0  0  0  0  0  0  0
  160.5220  209.7020  153.7480 N   0  0  0  0  0  0  0  0  0  0  0  0
  161.1530  209.8920  151.5530 N   0  0  0  0  0  0  0  0  0  0  0  0
  160.5430  211.0720  153.3890 C   0  0  0  0  0  0  0  0  0  0  0  0
  160.2520  212.0000  154.1870 O   0  0  0  0  0  0  0  0  0  0  0  0
  160.2780  205.7170  148.8820 C   0  0  0  0  0  2  0  0  0  0  0  0
  161.2360  206.5490  146.7490 C   0  0  1  0  0  3  0  0  0  0  0  0
  161.7080  203.5220  145.3290 C   0  0  0  0  0  2  0  0  0  0  0  0
  160.6030  204.1970  144.6650 N   0  0  0  0  0  2  0  0  0  0  0  0
  163.0220  207.8700  148.2470 O   0  0  0  0  0  0  0  0  0  0  0  0
  162.0000  205.9030  145.6000 C   0  0  2  0  0  3  0  0  0  0  0  0
  161.4490  205.7500  147.9110 C   0  0  1  0  0  0  0  0  0  0  0  0
  161.0400  205.5710  144.4800 C   0  0  0  0  0  2  0  0  0  0  0  0
  162.2190  207.0580  147.8180 C   0  0  0  0  0  0  0  0  0  0  0  0
  162.5160  204.5630  146.0790 C   0  0  1  0  0  3  0  0  0  0  0  0
  162.2090  204.4860  147.5600 C   0  0  0  0  0  2  0  0  0  0  0  0
  1  7  1  0  0  0  0
  2 12  1  0  0  0  0
  2  7  2  0  0  0  0
  3  1  2  0  0  0  0
  4  5  1  0  0  0  0
  5  9  2  0  0  0  0
  5  3  1  0  0  0  0
  6  4  2  0  0  0  0
  6 10  1  0  0  0  0
  8  3  1  0  0  0  0
  9  2  1  0  0  0  0
 10  8  2  0  0  0  0
 11 15  1  0  0  0  0
 12 13  2  0  0  0  0
 14 11  2  0  0  0  0
 14 12  1  0  0  0  0
 15 13  1  0  0  0  0
 15 16  2  0  0  0  0
 17  4  1  0  0  0  0
 18 25  1  1  0  0  0
 18 23  1  0  0  0  0
 20 19  1  0  0  0  0
 22 24  1  6  0  0  0
 22 26  1  0  0  0  0
 22 18  1  0  0  0  0
 23 17  1  1  0  0  0
 24 20  1  0  0  0  0
 25 23  1  0  0  0  0
 25 21  2  0  0  0  0
 26 19  1  6  0  0  0
 26 27  1  0  0  0  0
 27 23  1  0  0  0  0
M  END
>  <MODEL>
1

>  <REMARK>
 VINA RESULT:      -9.7      0.000      0.000
  Name = 
  3 active torsions:
  status: ('A' for Active; 'I' for Inactive)
    1  A    between atoms: C_6  and  C_7
    2  A    between atoms: C_11  and  C_19
    3  A    between atoms: C_18  and  C_19
                            x       y       z     vdW  Elec       q    Type
                         _______ _______ _______ _____ _____    ______ ____

>  <TORSDO>
F 3

$$$$
=
 OpenBabel11072413183D

 27 32  0  0  1  0  0  0  0  0999 V2000
  160.6150  203.2120  150.6140 C   0  0  0  0  0  3  0  0  0  0  0  0
  161.1620  204.4640  148.6190 C   0  0  0  0  0  0  0  0  0  0  0  0
  161.0260  204.2940  151.3910 C   0  0  0  0  0  0  0  0  0  0  0  0
  161.9180  206.5450  151.5400 C   0  0  0  0  0  0  0  0  0  0  0  0
  161.5010  205.4590  150.7540 C   0  0  0  0  0  0  0  0  0  0  0  0
  161.8560  206.4450  152.9330 C   0  0  0  0  0  3  0  0  0  0  0  0
  160.6830  203.2940  149.2220 C   0  0  0  0  0  3  0  0  0  0  0  0
  160.9740  204.2300  152.7470 N   0  0  0  0  0  0  0  0  0  0  0  0
  161.5550  205.5120  149.3940 N   0  0  0  0  0  0  0  0  0  0  0  0
  161.3770  205.2730  153.5230 C   0  0  0  0  0  3  0  0  0  0  0  0
  161.5540  203.9370  144.9490 C   0  0  0  0  0  3  0  0  0  0  0  0
  161.2530  204.5740  147.1550 C   0  0  0  0  0  0  0  0  0  0  0  0
  161.0680  205.6850  146.5220 N   0  0  0  0  0  0  0  0  0  0  0  0
  161.5510  203.4540  146.3200 N   0  0  0  0  0  0  0  0  0  0  0  0
  161.2380  205.3690  145.1510 C   0  0  0  0  0  0  0  0  0  0  0  0
  161.1300  206.2180  144.2280 O   0  0  0  0  0  0  0  0  0  0  0  0
  162.4520  207.7960  150.9180 C   0  0  0  0  0  2  0  0  0  0  0  0
  162.4920  209.9830  152.0910 C   0  0  1  0  0  3  0  0  0  0  0  0
  160.3030  209.1580  154.5260 C   0  0  0  0  0  2  0  0  0  0  0  0
  161.6400  209.2490  155.0920 N   0  0  0  0  0  2  0  0  0  0  0  0
  161.8640  211.0850  149.7300 O   0  0  0  0  0  0  0  0  0  0  0  0
  161.6120  210.6440  153.1450 C   0  0  2  0  0  3  0  0  0  0  0  0
  161.6920  209.0220  151.4040 C   0  0  1  0  0  0  0  0  0  0  0  0
  162.2290  210.4450  154.5110 C   0  0  0  0  0  2  0  0  0  0  0  0
  161.9790  210.3300  150.6820 C   0  0  0  0  0  0  0  0  0  0  0  0
  160.3010  209.8890  153.1980 C   0  0  1  0  0  3  0  0  0  0  0  0
  160.3310  208.8900  152.0590 C   0  0  0  0  0  2  0  0  0  0  0  0
  1  3  1  0  0  0  0
  2  7  1  0  0  0  0
  2  9  2  0  0  0  0
  3  8  1  0  0  0  0
  4  6  2  0  0  0  0
  5  3  2  0  0  0  0
  5  4  1  0  0  0  0
  6 10  1  0  0  0  0
  7  1  2  0  0  0  0
  8 10  2  0  0  0  0
  9  5  1  0  0  0  0
 11 15  1  0  0  0  0
 11 14  2  0  0  0  0
 12  2  1  0  0  0  0
 13 12  2  0  0  0  0
 14 12  1  0  0  0  0
 15 13  1  0  0  0  0
 16 15  2  0  0  0  0
 17  4  1  0  0  0  0
 18 25  1  6  0  0  0
 18 22  1  0  0  0  0
 19 20  1  0  0  0  0
 21 25  2  0  0  0  0
 22 26  1  0  0  0  0
 22 24  1  1  0  0  0
 23 17  1  6  0  0  0
 23 27  1  0  0  0  0
 23 18  1  0  0  0  0
 24 20  1  0  0  0  0
 25 23  1  0  0  0  0
 26 27  1  6  0  0  0
 26 19  1  0  0  0  0
M  END
>  <MODEL>
2

>  <REMARK>
 VINA RESULT:      -8.5      1.919      7.055
  Name = 
  3 active torsions:
  status: ('A' for Active; 'I' for Inactive)
    1  A    between atoms: C_6  and  C_7
    2  A    between atoms: C_11  and  C_19
    3  A    between atoms: C_18  and  C_19
                            x       y       z     vdW  Elec       q    Type
                         _______ _______ _______ _____ _____    ______ ____

>  <TORSDO>
F 3

$$$$
=
 OpenBabel11072413183D

 27 32  0  0  1  0  0  0  0  0999 V2000
  161.4120  201.6240  151.1290 C   0  0  0  0  0  3  0  0  0  0  0  0
  160.9710  201.6500  148.7520 C   0  0  0  0  0  0  0  0  0  0  0  0
  161.1940  203.0010  151.1720 C   0  0  0  0  0  0  0  0  0  0  0  0
  160.6450  205.0690  150.0310 C   0  0  0  0  0  0  0  0  0  0  0  0
  160.8600  203.6830  149.9840 C   0  0  0  0  0  0  0  0  0  0  0  0
  160.7700  205.7410  151.2510 C   0  0  0  0  0  3  0  0  0  0  0  0
  161.3020  200.9430  149.9160 C   0  0  0  0  0  3  0  0  0  0  0  0
  161.3030  203.6810  152.3430 N   0  0  0  0  0  0  0  0  0  0  0  0
  160.7580  202.9930  148.8140 N   0  0  0  0  0  0  0  0  0  0  0  0
  161.1000  205.0260  152.4040 C   0  0  0  0  0  3  0  0  0  0  0  0
  160.2370  200.5540  145.2650 C   0  0  0  0  0  3  0  0  0  0  0  0
  160.8580  200.9590  147.4580 C   0  0  0  0  0  0  0  0  0  0  0  0
  161.4170  199.8180  147.2220 N   0  0  0  0  0  0  0  0  0  0  0  0
  160.1230  201.5020  146.3600 N   0  0  0  0  0  0  0  0  0  0  0  0
  161.0770  199.5030  145.8830 C   0  0  0  0  0  0  0  0  0  0  0  0
  161.4520  198.4510  145.3040 O   0  0  0  0  0  0  0  0  0  0  0  0
  160.3110  205.8470  148.7970 C   0  0  0  0  0  2  0  0  0  0  0  0
  161.2940  206.7550  146.7080 C   0  0  1  0  0  3  0  0  0  0  0  0
  162.1580  203.7820  145.3600 C   0  0  0  0  0  2  0  0  0  0  0  0
  161.0280  204.3320  144.6270 N   0  0  0  0  0  2  0  0  0  0  0  0
  162.8470  208.2700  148.2810 O   0  0  0  0  0  0  0  0  0  0  0  0
  162.1850  206.1840  145.6120 C   0  0  2  0  0  3  0  0  0  0  0  0
  161.5250  205.9940  147.8910 C   0  0  1  0  0  0  0  0  0  0  0  0
  161.3280  205.7430  144.4460 C   0  0  0  0  0  2  0  0  0  0  0  0
  162.1580  207.3750  147.8210 C   0  0  0  0  0  0  0  0  0  0  0  0
  162.8100  204.9090  146.1370 C   0  0  1  0  0  3  0  0  0  0  0  0
  162.4310  204.8130  147.6010 C   0  0  0  0  0  2  0  0  0  0  0  0
  1  3  1  0  0  0  0
  2  9  2  0  0  0  0
  2  7  1  0  0  0  0
  3  8  1  0  0  0  0
  4  6  2  0  0  0  0
  5  4  1  0  0  0  0
  5  3  2  0  0  0  0
  6 10  1  0  0  0  0
  7  1  2  0  0  0  0
  8 10  2  0  0  0  0
  9  5  1  0  0  0  0
 11 15  1  0  0  0  0
 11 14  2  0  0  0  0
 12  2  1  0  0  0  0
 13 12  2  0  0  0  0
 14 12  1  0  0  0  0
 15 13  1  0  0  0  0
 16 15  2  0  0  0  0
 17  4  1  0  0  0  0
 18 25  1  1  0  0  0
 18 23  1  0  0  0  0
 20 19  1  0  0  0  0
 22 24  1  6  0  0  0
 22 26  1  0  0  0  0
 22 18  1  0  0  0  0
 23 17  1  1  0  0  0
 24 20  1  0  0  0  0
 25 23  1  0  0  0  0
 25 21  2  0  0  0  0
 26 19  1  6  0  0  0
 26 27  1  0  0  0  0
 27 23  1  0  0  0  0
M  END
>  <MODEL>
3

>  <REMARK>
 VINA RESULT:      -8.1      2.963      6.429
  Name = 
  3 active torsions:
  status: ('A' for Active; 'I' for Inactive)
    1  A    between atoms: C_6  and  C_7
    2  A    between atoms: C_11  and  C_19
    3  A    between atoms: C_18  and  C_19
                            x       y       z     vdW  Elec       q    Type
                         _______ _______ _______ _____ _____    ______ ____

>  <TORSDO>
F 3

$$$$
=
 OpenBabel11072413183D

 27 32  0  0  1  0  0  0  0  0999 V2000
  161.1850  205.7360  153.4210 C   0  0  0  0  0  3  0  0  0  0  0  0
  161.1870  206.5430  151.1400 C   0  0  0  0  0  0  0  0  0  0  0  0
  161.1400  207.0540  153.8740 C   0  0  0  0  0  0  0  0  0  0  0  0
  161.0730  209.4300  153.3950 C   0  0  0  0  0  0  0  0  0  0  0  0
  161.1150  208.1050  152.9340 C   0  0  0  0  0  0  0  0  0  0  0  0
  161.0610  209.6780  154.7700 C   0  0  0  0  0  3  0  0  0  0  0  0
  161.2100  205.4760  152.0490 C   0  0  0  0  0  3  0  0  0  0  0  0
  161.1210  207.3260  155.2050 N   0  0  0  0  0  0  0  0  0  0  0  0
  161.1380  207.8220  151.6020 N   0  0  0  0  0  0  0  0  0  0  0  0
  161.0840  208.6060  155.6670 C   0  0  0  0  0  3  0  0  0  0  0  0
  161.2340  206.7390  147.4180 C   0  0  0  0  0  3  0  0  0  0  0  0
  161.2230  206.2970  149.6910 C   0  0  0  0  0  0  0  0  0  0  0  0
  161.3020  205.1120  149.1820 N   0  0  0  0  0  0  0  0  0  0  0  0
  161.1760  207.3560  148.7330 N   0  0  0  0  0  0  0  0  0  0  0  0
  161.3140  205.3060  147.7790 C   0  0  0  0  0  0  0  0  0  0  0  0
  161.3840  204.3590  146.9510 O   0  0  0  0  0  0  0  0  0  0  0  0
  161.0680  210.5850  152.4430 C   0  0  0  0  0  2  0  0  0  0  0  0
  159.9840  212.6700  153.2390 C   0  0  1  0  0  3  0  0  0  0  0  0
  157.8110  211.1930  155.3600 C   0  0  0  0  0  2  0  0  0  0  0  0
  158.8410  211.8770  156.1260 N   0  0  0  0  0  2  0  0  0  0  0  0
  159.5180  213.2280  150.6590 O   0  0  0  0  0  0  0  0  0  0  0  0
  158.7040  212.9810  154.0050 C   0  0  2  0  0  3  0  0  0  0  0  0
  159.8010  211.4150  152.5870 C   0  0  1  0  0  0  0  0  0  0  0  0
  159.0280  213.1620  155.4720 C   0  0  0  0  0  2  0  0  0  0  0  0
  159.7050  212.6640  151.7250 C   0  0  0  0  0  0  0  0  0  0  0  0
  157.8190  211.7550  153.9510 C   0  0  1  0  0  3  0  0  0  0  0  0
  158.4920  210.7770  153.0100 C   0  0  0  0  0  2  0  0  0  0  0  0
  1  3  1  0  0  0  0
  2  9  2  0  0  0  0
  2  7  1  0  0  0  0
  3  8  1  0  0  0  0
  4  6  2  0  0  0  0
  5  4  1  0  0  0  0
  5  3  2  0  0  0  0
  6 10  1  0  0  0  0
  7  1  2  0  0  0  0
  8 10  2  0  0  0  0
  9  5  1  0  0  0  0
 11 15  1  0  0  0  0
 11 14  2  0  0  0  0
 12  2  1  0  0  0  0
 13 12  2  0  0  0  0
 14 12  1  0  0  0  0
 15 13  1  0  0  0  0
 16 15  2  0  0  0  0
 17  4  1  0  0  0  0
 18 25  1  6  0  0  0
 18 22  1  0  0  0  0
 19 20  1  0  0  0  0
 21 25  2  0  0  0  0
 22 24  1  1  0  0  0
 23 17  1  6  0  0  0
 23 27  1  0  0  0  0
 23 18  1  0  0  0  0
 24 20  1  0  0  0  0
 25 23  1  0  0  0  0
 26 27  1  6  0  0  0
 26 22  1  0  0  0  0
 26 19  1  0  0  0  0
M  END
>  <MODEL>
4

>  <REMARK>
 VINA RESULT:      -7.6      2.254      7.841
  Name = 
  3 active torsions:
  status: ('A' for Active; 'I' for Inactive)
    1  A    between atoms: C_6  and  C_7
    2  A    between atoms: C_11  and  C_19
    3  A    between atoms: C_18  and  C_19
                            x       y       z     vdW  Elec       q    Type
                         _______ _______ _______ _____ _____    ______ ____

>  <TORSDO>
F 3

$$$$
=
 OpenBabel11072413183D

 27 32  0  0  1  0  0  0  0  0999 V2000
  161.0160  206.2640  153.8810 C   0  0  0  0  0  3  0  0  0  0  0  0
  161.1790  207.3530  151.7280 C   0  0  0  0  0  0  0  0  0  0  0  0
  160.9110  207.5130  154.4920 C   0  0  0  0  0  0  0  0  0  0  0  0
  160.8370  209.9300  154.3120 C   0  0  0  0  0  0  0  0  0  0  0  0
  160.9390  208.6750  153.6930 C   0  0  0  0  0  0  0  0  0  0  0  0
  160.7140  210.0000  155.7030 C   0  0  0  0  0  3  0  0  0  0  0  0
  161.1520  206.1800  152.4940 C   0  0  0  0  0  3  0  0  0  0  0  0
  160.7850  207.6140  155.8410 N   0  0  0  0  0  0  0  0  0  0  0  0
  161.0710  208.5630  152.3420 N   0  0  0  0  0  0  0  0  0  0  0  0
  160.6880  208.8240  156.4560 C   0  0  0  0  0  3  0  0  0  0  0  0
  162.1340  207.7810  148.1500 C   0  0  0  0  0  3  0  0  0  0  0  0
  161.3310  207.2950  150.2670 C   0  0  0  0  0  0  0  0  0  0  0  0
  160.6370  206.4990  149.5210 N   0  0  0  0  0  0  0  0  0  0  0  0
  162.2630  208.1140  149.5590 N   0  0  0  0  0  0  0  0  0  0  0  0
  161.0790  206.7430  148.1980 C   0  0  0  0  0  0  0  0  0  0  0  0
  160.6190  206.1400  147.1930 O   0  0  0  0  0  0  0  0  0  0  0  0
  160.8840  211.1960  153.5160 C   0  0  0  0  0  2  0  0  0  0  0  0
  159.3480  213.0290  154.1770 C   0  0  1  0  0  3  0  0  0  0  0  0
  156.9990  211.0700  155.6080 C   0  0  0  0  0  2  0  0  0  0  0  0
  157.7150  211.7980  156.6450 N   0  0  0  0  0  2  0  0  0  0  0  0
  159.3990  213.7890  151.6080 O   0  0  0  0  0  0  0  0  0  0  0  0
  157.8960  213.0910  154.6370 C   0  0  2  0  0  3  0  0  0  0  0  0
  159.5080  211.8360  153.4130 C   0  0  1  0  0  0  0  0  0  0  0  0
  157.8490  213.1570  156.1470 C   0  0  0  0  0  2  0  0  0  0  0  0
  159.4220  213.1460  152.6440 C   0  0  0  0  0  0  0  0  0  0  0  0
  157.2400  211.7720  154.2860 C   0  0  1  0  0  3  0  0  0  0  0  0
  158.2480  210.9930  153.4650 C   0  0  0  0  0  2  0  0  0  0  0  0
  1  3  1  0  0  0  0
  2  9  2  0  0  0  0
  2  7  1  0  0  0  0
  3  8  1  0  0  0  0
  4  6  2  0  0  0  0
  5  4  1  0  0  0  0
  5  3  2  0  0  0  0
  6 10  1  0  0  0  0
  7  1  2  0  0  0  0
  8 10  2  0  0  0  0
  9  5  1  0  0  0  0
 11 15  1  0  0  0  0
 11 14  2  0  0  0  0
 12  2  1  0  0  0  0
 13 12  2  0  0  0  0
 14 12  1  0  0  0  0
 15 13  1  0  0  0  0
 16 15  2  0  0  0  0
 17  4  1  0  0  0  0
 18 25  1  6  0  0  0
 18 22  1  0  0  0  0
 19 20  1  0  0  0  0
 21 25  2  0  0  0  0
 22 24  1  1  0  0  0
 23 27  1  0  0  0  0
 23 17  1  1  0  0  0
 23 18  1  0  0  0  0
 24 20  1  0  0  0  0
 25 23  1  0  0  0  0
 26 27  1  6  0  0  0
 26 22  1  0  0  0  0
 26 19  1  0  0  0  0
M  END
>  <MODEL>
5

>  <REMARK>
 VINA RESULT:      -7.5      2.616      8.132
  Name = 
  3 active torsions:
  status: ('A' for Active; 'I' for Inactive)
    1  A    between atoms: C_6  and  C_7
    2  A    between atoms: C_11  and  C_19
    3  A    between atoms: C_18  and  C_19
                            x       y       z     vdW  Elec       q    Type
                         _______ _______ _______ _____ _____    ______ ____

>  <TORSDO>
F 3

$$$$
=
 OpenBabel11072413183D

 27 32  0  0  1  0  0  0  0  0999 V2000
  160.5820  203.5220  150.9190 C   0  0  0  0  0  3  0  0  0  0  0  0
  161.0880  204.8930  148.9910 C   0  0  0  0  0  0  0  0  0  0  0  0
  160.9300  204.5860  151.7500 C   0  0  0  0  0  0  0  0  0  0  0  0
  161.7050  206.8690  152.0160 C   0  0  0  0  0  0  0  0  0  0  0  0
  161.3530  205.8020  151.1740 C   0  0  0  0  0  0  0  0  0  0  0  0
  161.6330  206.7010  153.4010 C   0  0  0  0  0  3  0  0  0  0  0  0
  160.6620  203.6720  149.5330 C   0  0  0  0  0  3  0  0  0  0  0  0
  160.8650  204.4560  153.1020 N   0  0  0  0  0  0  0  0  0  0  0  0
  161.4190  205.9210  149.8190 N   0  0  0  0  0  0  0  0  0  0  0  0
  161.2060  205.4810  153.9300 C   0  0  0  0  0  3  0  0  0  0  0  0
  161.0010  206.0810  145.4590 C   0  0  0  0  0  3  0  0  0  0  0  0
  161.1900  205.0740  147.5350 C   0  0  0  0  0  0  0  0  0  0  0  0
  161.6970  204.1820  146.7510 N   0  0  0  0  0  0  0  0  0  0  0  0
  160.7380  206.2590  146.8770 N   0  0  0  0  0  0  0  0  0  0  0  0
  161.6150  204.7340  145.4490 C   0  0  0  0  0  0  0  0  0  0  0  0
  162.0200  204.1360  144.4180 O   0  0  0  0  0  0  0  0  0  0  0  0
  162.1830  208.1730  151.4590 C   0  0  0  0  0  2  0  0  0  0  0  0
  162.1780  210.3230  152.6980 C   0  0  1  0  0  3  0  0  0  0  0  0
  160.1910  209.3070  155.2320 C   0  0  0  0  0  2  0  0  0  0  0  0
  161.5540  209.4560  155.7200 N   0  0  0  0  0  2  0  0  0  0  0  0
  161.3470  211.4570  150.4170 O   0  0  0  0  0  0  0  0  0  0  0  0
  161.3310  210.9030  153.8240 C   0  0  2  0  0  3  0  0  0  0  0  0
  161.3900  209.3400  152.0290 C   0  0  1  0  0  0  0  0  0  0  0  0
  162.0410  210.6990  155.1440 C   0  0  0  0  0  2  0  0  0  0  0  0
  161.5610  210.6820  151.3340 C   0  0  0  0  0  0  0  0  0  0  0  0
  160.0680  210.0760  153.9310 C   0  0  1  0  0  3  0  0  0  0  0  0
  160.0810  209.1140  152.7600 C   0  0  0  0  0  2  0  0  0  0  0  0
  1  3  1  0  0  0  0
  2  7  1  0  0  0  0
  2  9  2  0  0  0  0
  3  8  1  0  0  0  0
  4  6  2  0  0  0  0
  5  3  2  0  0  0  0
  5  4  1  0  0  0  0
  6 10  1  0  0  0  0
  7  1  2  0  0  0  0
  8 10  2  0  0  0  0
  9  5  1  0  0  0  0
 11 14  2  0  0  0  0
 12  2  1  0  0  0  0
 13 12  2  0  0  0  0
 14 12  1  0  0  0  0
 15 11  1  0  0  0  0
 15 13  1  0  0  0  0
 16 15  2  0  0  0  0
 17  4  1  0  0  0  0
 18 25  1  6  0  0  0
 18 22  1  0  0  0  0
 19 20  1  0  0  0  0
 21 25  2  0  0  0  0
 22 26  1  0  0  0  0
 22 24  1  1  0  0  0
 23 17  1  6  0  0  0
 23 18  1  0  0  0  0
 23 27  1  0  0  0  0
 24 20  1  0  0  0  0
 25 23  1  0  0  0  0
 26 27  1  6  0  0  0
 26 19  1  0  0  0  0
M  END
>  <MODEL>
6

>  <REMARK>
 VINA RESULT:      -7.4      1.943      7.248
  Name = 
  3 active torsions:
  status: ('A' for Active; 'I' for Inactive)
    1  A    between atoms: C_6  and  C_7
    2  A    between atoms: C_11  and  C_19
    3  A    between atoms: C_18  and  C_19
                            x       y       z     vdW  Elec       q    Type
                         _______ _______ _______ _____ _____    ______ ____

>  <TORSDO>
F 3

$$$$
=
 OpenBabel11072413183D

 27 32  0  0  1  0  0  0  0  0999 V2000
  161.2260  207.4420  148.0190 C   0  0  0  0  0  3  0  0  0  0  0  0
  161.3330  205.8610  149.8470 C   0  0  0  0  0  0  0  0  0  0  0  0
  161.5810  208.4640  148.8990 C   0  0  0  0  0  0  0  0  0  0  0  0
  162.1640  209.1890  151.1380 C   0  0  0  0  0  0  0  0  0  0  0  0
  161.8110  208.1560  150.2560 C   0  0  0  0  0  0  0  0  0  0  0  0
  162.2760  210.4960  150.6540 C   0  0  0  0  0  3  0  0  0  0  0  0
  161.1000  206.1340  148.4930 C   0  0  0  0  0  3  0  0  0  0  0  0
  161.7020  209.7430  148.4580 N   0  0  0  0  0  0  0  0  0  0  0  0
  161.6830  206.8720  150.6890 N   0  0  0  0  0  0  0  0  0  0  0  0
  162.0410  210.7560  149.3020 C   0  0  0  0  0  3  0  0  0  0  0  0
  161.2060  202.7470  151.8930 C   0  0  0  0  0  3  0  0  0  0  0  0
  161.1970  204.4950  150.3740 C   0  0  0  0  0  0  0  0  0  0  0  0
  160.8480  203.4920  149.6390 N   0  0  0  0  0  0  0  0  0  0  0  0
  161.4390  204.1740  151.7450 N   0  0  0  0  0  0  0  0  0  0  0  0
  160.8310  202.3750  150.5100 C   0  0  0  0  0  0  0  0  0  0  0  0
  160.5310  201.2110  150.1360 O   0  0  0  0  0  0  0  0  0  0  0  0
  162.3980  208.9250  152.5920 C   0  0  0  0  0  2  0  0  0  0  0  0
  161.0230  210.0090  154.3500 C   0  0  1  0  0  3  0  0  0  0  0  0
  160.7230  207.2960  156.3380 C   0  0  0  0  0  2  0  0  0  0  0  0
  161.6170  208.2570  156.9670 N   0  0  0  0  0  2  0  0  0  0  0  0
  159.3380  210.7030  152.3860 O   0  0  0  0  0  0  0  0  0  0  0  0
  160.1770  209.4980  155.5100 C   0  0  2  0  0  3  0  0  0  0  0  0
  161.0950  208.9690  153.3780 C   0  0  1  0  0  0  0  0  0  0  0  0
  160.9860  209.5540  156.7860 C   0  0  0  0  0  2  0  0  0  0  0  0
  160.1610  210.1310  153.0810 C   0  0  0  0  0  0  0  0  0  0  0  0
  159.9160  208.0240  155.2810 C   0  0  1  0  0  3  0  0  0  0  0  0
  160.4560  207.6980  153.9030 C   0  0  0  0  0  2  0  0  0  0  0  0
  1  7  2  0  0  0  0
  1  3  1  0  0  0  0
  2 12  1  0  0  0  0
  2  9  2  0  0  0  0
  3  5  1  0  0  0  0
  4 17  1  0  0  0  0
  5  9  1  0  0  0  0
  5  4  2  0  0  0  0
  6  4  1  0  0  0  0
  7  2  1  0  0  0  0
  8  3  2  0  0  0  0
  8 10  1  0  0  0  0
 10  6  2  0  0  0  0
 12 14  1  0  0  0  0
 13 12  2  0  0  0  0
 13 15  1  0  0  0  0
 14 11  2  0  0  0  0
 15 11  1  0  0  0  0
 16 15  2  0  0  0  0
 18 25  1  6  0  0  0
 18 22  1  0  0  0  0
 19 20  1  0  0  0  0
 21 25  2  0  0  0  0
 22 24  1  1  0  0  0
 23 17  1  6  0  0  0
 23 27  1  0  0  0  0
 23 18  1  0  0  0  0
 24 20  1  0  0  0  0
 25 23  1  0  0  0  0
 26 27  1  6  0  0  0
 26 22  1  0  0  0  0
 26 19  1  0  0  0  0
M  END
>  <MODEL>
7

>  <REMARK>
 VINA RESULT:      -7.4      2.591      7.875
  Name = 
  3 active torsions:
  status: ('A' for Active; 'I' for Inactive)
    1  A    between atoms: C_6  and  C_7
    2  A    between atoms: C_11  and  C_19
    3  A    between atoms: C_18  and  C_19
                            x       y       z     vdW  Elec       q    Type
                         _______ _______ _______ _____ _____    ______ ____

>  <TORSDO>
F 3

$$$$
=
 OpenBabel11072413183D

 27 32  0  0  1  0  0  0  0  0999 V2000
  161.3000  211.1040  151.9030 C   0  0  0  0  0  3  0  0  0  0  0  0
  161.0360  209.3380  153.5340 C   0  0  0  0  0  0  0  0  0  0  0  0
  161.6260  210.1500  150.9410 C   0  0  0  0  0  0  0  0  0  0  0  0
  161.9800  207.8300  150.3290 C   0  0  0  0  0  0  0  0  0  0  0  0
  161.6470  208.7870  151.3010 C   0  0  0  0  0  0  0  0  0  0  0  0
  162.2860  208.2490  149.0310 C   0  0  0  0  0  3  0  0  0  0  0  0
  161.0040  210.7000  153.2070 C   0  0  0  0  0  3  0  0  0  0  0  0
  161.9230  210.5260  149.6690 N   0  0  0  0  0  0  0  0  0  0  0  0
  161.3530  208.4210  152.5790 N   0  0  0  0  0  0  0  0  0  0  0  0
  162.2510  209.6100  148.7170 C   0  0  0  0  0  3  0  0  0  0  0  0
  160.2850  208.9930  157.1690 C   0  0  0  0  0  3  0  0  0  0  0  0
  160.7390  208.8850  154.9010 C   0  0  0  0  0  0  0  0  0  0  0  0
  160.6100  207.6380  155.2150 N   0  0  0  0  0  0  0  0  0  0  0  0
  160.5650  209.7940  155.9890 N   0  0  0  0  0  0  0  0  0  0  0  0
  160.3280  207.6260  156.6030 C   0  0  0  0  0  0  0  0  0  0  0  0
  160.1390  206.5700  157.2610 O   0  0  0  0  0  0  0  0  0  0  0  0
  162.0410  206.3730  150.6620 C   0  0  0  0  0  2  0  0  0  0  0  0
  161.8680  204.4500  149.1020 C   0  0  1  0  0  3  0  0  0  0  0  0
  161.0680  206.2480  146.3570 C   0  0  0  0  0  2  0  0  0  0  0  0
  162.4310  205.7520  146.2280 N   0  0  0  0  0  2  0  0  0  0  0  0
  160.1250  203.3950  150.8430 O   0  0  0  0  0  0  0  0  0  0  0  0
  161.2850  204.2580  147.7080 C   0  0  2  0  0  3  0  0  0  0  0  0
  161.1900  205.5510  149.7040 C   0  0  1  0  0  0  0  0  0  0  0  0
  162.3890  204.3710  146.6800 C   0  0  0  0  0  2  0  0  0  0  0  0
  160.7970  204.1580  150.1680 C   0  0  0  0  0  0  0  0  0  0  0  0
  160.3660  205.4260  147.4210 C   0  0  1  0  0  3  0  0  0  0  0  0
  160.2670  206.2230  148.7060 C   0  0  0  0  0  2  0  0  0  0  0  0
  1  7  1  0  0  0  0
  2 12  1  0  0  0  0
  3  5  1  0  0  0  0
  3  1  2  0  0  0  0
  4 17  1  0  0  0  0
  4  5  1  0  0  0  0
  5  9  2  0  0  0  0
  6  4  2  0  0  0  0
  7  2  2  0  0  0  0
  8  3  1  0  0  0  0
  9  2  1  0  0  0  0
 10  6  1  0  0  0  0
 10  8  2  0  0  0  0
 12 13  2  0  0  0  0
 12 14  1  0  0  0  0
 13 15  1  0  0  0  0
 14 11  2  0  0  0  0
 15 11  1  0  0  0  0
 15 16  2  0  0  0  0
 18 23  1  0  0  0  0
 18 25  1  1  0  0  0
 20 19  1  0  0  0  0
 20 24  1  0  0  0  0
 22 24  1  6  0  0  0
 22 18  1  0  0  0  0
 23 25  1  0  0  0  0
 23 17  1  1  0  0  0
 25 21  2  0  0  0  0
 26 19  1  6  0  0  0
 26 22  1  0  0  0  0
 26 27  1  0  0  0  0
 27 23  1  0  0  0  0
M  END
>  <MODEL>
8

>  <REMARK>
 VINA RESULT:      -7.3      2.480      4.268
  Name = 
  3 active torsions:
  status: ('A' for Active; 'I' for Inactive)
    1  A    between atoms: C_6  and  C_7
    2  A    between atoms: C_11  and  C_19
    3  A    between atoms: C_18  and  C_19
                            x       y       z     vdW  Elec       q    Type
                         _______ _______ _______ _____ _____    ______ ____

>  <TORSDO>
F 3

$$$$
=
 OpenBabel11072413183D

 27 32  0  0  1  0  0  0  0  0999 V2000
  161.8820  207.7850  148.9030 C   0  0  0  0  0  3  0  0  0  0  0  0
  161.2900  205.6190  149.8010 C   0  0  0  0  0  0  0  0  0  0  0  0
  161.7440  208.3370  150.1770 C   0  0  0  0  0  0  0  0  0  0  0  0
  161.2380  208.0620  152.5330 C   0  0  0  0  0  0  0  0  0  0  0  0
  161.3790  207.5020  151.2530 C   0  0  0  0  0  0  0  0  0  0  0  0
  161.4580  209.4320  152.7090 C   0  0  0  0  0  3  0  0  0  0  0  0
  161.6540  206.4210  148.7110 C   0  0  0  0  0  3  0  0  0  0  0  0
  161.9560  209.6630  150.3810 N   0  0  0  0  0  0  0  0  0  0  0  0
  161.1650  206.1750  151.0370 N   0  0  0  0  0  0  0  0  0  0  0  0
  161.8200  210.2210  151.6150 C   0  0  0  0  0  3  0  0  0  0  0  0
  160.4560  202.0020  150.1540 C   0  0  0  0  0  3  0  0  0  0  0  0
  161.0340  204.1810  149.6250 C   0  0  0  0  0  0  0  0  0  0  0  0
  161.1720  203.5790  148.4900 N   0  0  0  0  0  0  0  0  0  0  0  0
  160.6080  203.3410  150.6990 N   0  0  0  0  0  0  0  0  0  0  0  0
  160.8310  202.2260  148.7390 C   0  0  0  0  0  0  0  0  0  0  0  0
  160.8510  201.3340  147.8520 O   0  0  0  0  0  0  0  0  0  0  0  0
  160.8310  207.2290  153.7060 C   0  0  0  0  0  2  0  0  0  0  0  0
  159.4700  208.3690  155.4390 C   0  0  1  0  0  3  0  0  0  0  0  0
  160.6850  211.4740  154.9070 C   0  0  0  0  0  2  0  0  0  0  0  0
  159.3190  211.4020  154.4110 N   0  0  0  0  0  2  0  0  0  0  0  0
  160.4560  206.5790  157.1710 O   0  0  0  0  0  0  0  0  0  0  0  0
  159.5300  209.7330  156.1160 C   0  0  2  0  0  3  0  0  0  0  0  0
  160.7840  208.0560  154.9820 C   0  0  1  0  0  0  0  0  0  0  0  0
  158.5720  210.6790  155.4290 C   0  0  0  0  0  2  0  0  0  0  0  0
  160.2980  207.3460  156.2360 C   0  0  0  0  0  0  0  0  0  0  0  0
  160.9030  210.3180  155.8630 C   0  0  1  0  0  3  0  0  0  0  0  0
  161.7170  209.2340  155.1850 C   0  0  0  0  0  2  0  0  0  0  0  0
  1  3  1  0  0  0  0
  2  9  2  0  0  0  0
  3  8  2  0  0  0  0
  3  5  1  0  0  0  0
  4  6  1  0  0  0  0
  4 17  1  0  0  0  0
  5  4  2  0  0  0  0
  7  1  2  0  0  0  0
  7  2  1  0  0  0  0
  8 10  1  0  0  0  0
  9  5  1  0  0  0  0
 10  6  2  0  0  0  0
 11 14  2  0  0  0  0
 12  2  1  0  0  0  0
 12 14  1  0  0  0  0
 13 15  1  0  0  0  0
 13 12  2  0  0  0  0
 15 11  1  0  0  0  0
 16 15  2  0  0  0  0
 18 22  1  0  0  0  0
 18 25  1  1  0  0  0
 20 19  1  0  0  0  0
 20 24  1  0  0  0  0
 22 24  1  6  0  0  0
 23 17  1  6  0  0  0
 23 27  1  0  0  0  0
 23 18  1  0  0  0  0
 23 25  1  0  0  0  0
 25 21  2  0  0  0  0
 26 19  1  6  0  0  0
 26 22  1  0  0  0  0
 27 26  1  0  0  0  0
M  END
>  <MODEL>
9

>  <REMARK>
 VINA RESULT:      -7.1      2.744      8.298
  Name = 
  3 active torsions:
  status: ('A' for Active; 'I' for Inactive)
    1  A    between atoms: C_6  and  C_7
    2  A    between atoms: C_11  and  C_19
    3  A    between atoms: C_18  and  C_19
                            x       y       z     vdW  Elec       q    Type
                         _______ _______ _______ _____ _____    ______ ____

>  <TORSDO>
F 3

$$$$
