=
 OpenBabel11072414323D

 36 39  0  0  1  0  0  0  0  0999 V2000
  161.8600  204.0450  148.2890 S   0  0  0  0  0  0  0  0  0  0  0  0
  160.5780  203.7470  150.6910 N   0  0  0  0  0  0  0  0  0  0  0  0
  160.4960  203.3230  149.2870 C   0  0  2  0  0  3  0  0  0  0  0  0
  161.1350  207.4390  150.3350 C   0  0  2  0  0  3  0  0  0  0  0  0
  161.0270  207.4830  155.1760 C   0  0  0  0  0  3  0  0  0  0  0  0
  161.1510  207.0830  153.9420 C   0  0  0  0  0  0  0  0  0  0  0  0
  161.5100  205.7280  148.8170 C   0  0  0  0  0  0  0  0  0  0  0  0
  161.9320  207.9920  149.1440 C   0  0  0  0  0  2  0  0  0  0  0  0
  161.2680  206.6750  152.7100 C   0  0  0  0  0  0  0  0  0  0  0  0
  161.8740  207.5900  151.6690 C   0  0  0  0  0  2  0  0  0  0  0  0
  161.0360  206.0010  150.0050 C   0  0  1  0  0  3  0  0  0  0  0  0
  162.0460  206.8820  148.1970 N   0  0  0  0  0  0  0  0  0  0  0  0
  160.7830  204.9870  151.0230 C   0  0  0  0  0  0  0  0  0  0  0  0
  160.8360  205.3810  152.3650 O   0  0  0  0  0  0  0  0  0  0  0  0
  160.5450  201.8060  149.1940 C   0  0  0  0  0  2  0  0  0  0  0  0
  161.4130  201.3550  148.0270 C   0  0  0  0  0  2  0  0  0  0  0  0
  159.7170  201.1950  144.7760 O   0  0  0  0  0  0  0  0  0  0  0  0
  160.4430  201.6520  145.6950 C   0  0  0  0  0  0  0  0  0  0  0  0
  160.5880  200.9110  146.9100 N   0  0  0  0  0  2  0  0  0  0  0  0
  161.1600  202.9440  145.4820 C   0  0  0  0  0  2  0  0  0  0  0  0
  160.5150  203.6810  144.4890 O   0  0  0  0  0  0  0  0  0  0  0  0
  161.1980  205.2280  144.5730 P   0  0  0  0  0  0  0  0  0  0  0  0
  161.4470  205.8360  143.0140 O   0  0  0  0  0  0  0  0  0  0  0  0
  162.5260  205.1450  145.2890 O   0  0  0  0  0  1  0  0  0  0  0  0
  160.1710  206.2670  145.4260 O   0  0  0  0  0  1  0  0  0  0  0  0
  159.7910  208.2050  155.6070 C   0  0  0  0  0  2  0  0  0  0  0  0
  160.4480  212.3390  157.1760 C   0  0  0  0  0  2  0  0  0  0  0  0
  158.8890  212.0480  156.3780 S   0  0  0  0  0  0  0  0  0  0  0  0
  161.5230  211.5400  156.4660 C   0  0  0  0  0  2  0  0  0  0  0  0
  159.9430  209.7270  155.5780 C   0  0  1  0  0  0  0  0  0  0  0  0
  158.8380  212.7810  155.0660 O   0  0  0  0  0  0  0  0  0  0  0  0
  158.7150  210.3370  156.1130 N   0  0  0  0  0  2  0  0  0  0  0  0
  161.1680  210.0530  156.4500 C   0  0  0  0  0  2  0  0  0  0  0  0
  157.7750  212.5320  157.2610 O   0  0  0  0  0  0  0  0  0  0  0  0
  160.3640  210.4940  153.0410 C   0  0  0  0  0  3  0  0  0  0  0  0
  160.1770  210.1490  154.1800 C   0  0  0  0  0  0  0  0  0  0  0  0
  1  7  1  0  0  0  0
  1  3  1  0  0  0  0
  2 13  2  0  0  0  0
  3 15  1  1  0  0  0
  3  2  1  0  0  0  0
  4  8  1  6  0  0  0
  4 10  1  0  0  0  0
  5 26  1  0  0  0  0
  6  5  2  0  0  0  0
  9  6  2  0  0  0  0
 10  9  1  0  0  0  0
 11  7  1  1  0  0  0
 11  4  1  0  0  0  0
 11 13  1  0  0  0  0
 12  7  2  0  0  0  0
 12  8  1  0  0  0  0
 13 14  1  0  0  0  0
 14  9  1  0  0  0  0
 16 15  1  0  0  0  0
 17 18  2  0  0  0  0
 18 19  1  0  0  0  0
 19 16  1  0  0  0  0
 20 18  1  0  0  0  0
 21 22  1  0  0  0  0
 21 20  1  0  0  0  0
 22 24  1  0  0  0  0
 22 25  1  0  0  0  0
 23 22  2  0  0  0  0
 28 27  1  0  0  0  0
 28 34  2  0  0  0  0
 29 27  1  0  0  0  0
 30 36  1  6  0  0  0
 30 26  1  0  0  0  0
 30 32  1  0  0  0  0
 30 33  1  0  0  0  0
 31 28  2  0  0  0  0
 32 28  1  0  0  0  0
 33 29  1  0  0  0  0
 35 36  3  0  0  0  0
M  END
>  <MODEL>
1

>  <REMARK>
 VINA RESULT:      -8.5      0.000      0.000
  Name = 
  9 active torsions:
  status: ('A' for Active; 'I' for Inactive)
    1  A    between atoms: C_3  and  C_8
    2  A    between atoms: C_3  and  C_36
    3  A    between atoms: C_5  and  C_11
    4  A    between atoms: P_7  and  O_14
    5  A    between atoms: C_11  and  O_14
    6  A    between atoms: C_12  and  C_32
    7  A    between atoms: C_17  and  C_26
    8  A    between atoms: C_17  and  C_32
    9  A    between atoms: N_18  and  C_36
                            x       y       z     vdW  Elec       q    Type
                         _______ _______ _______ _____ _____    ______ ____

>  <TORSDO>
F 9

$$$$
=
 OpenBabel11072414323D

 36 39  0  0  1  0  0  0  0  0999 V2000
  160.0900  212.0270  155.1470 S   0  0  0  0  0  0  0  0  0  0  0  0
  159.4800  211.2600  152.5890 N   0  0  0  0  0  0  0  0  0  0  0  0
  158.9260  212.0090  153.7250 C   0  0  2  0  0  3  0  0  0  0  0  0
  160.7250  208.1470  154.2700 C   0  0  2  0  0  3  0  0  0  0  0  0
  161.9570  206.7470  149.8000 C   0  0  0  0  0  3  0  0  0  0  0  0
  161.6470  207.4880  150.8270 C   0  0  0  0  0  0  0  0  0  0  0  0
  160.2810  210.2400  155.1620 C   0  0  0  0  0  0  0  0  0  0  0  0
  161.2690  208.2050  155.7050 C   0  0  0  0  0  3  0  0  0  0  0  0
  161.3290  208.2340  151.8470 C   0  0  0  0  0  0  0  0  0  0  0  0
  161.8150  207.8630  153.2310 C   0  0  0  0  0  2  0  0  0  0  0  0
  160.2220  209.5230  154.0700 C   0  0  0  0  0  0  0  0  0  0  0  0
  160.8700  209.5130  156.2250 N   0  0  0  0  0  0  0  0  0  0  0  0
  160.0390  210.0960  152.7400 C   0  0  0  0  0  0  0  0  0  0  0  0
  160.5430  209.3840  151.6470 O   0  0  0  0  0  0  0  0  0  0  0  0
  158.6090  213.4360  153.3070 C   0  0  0  0  0  2  0  0  0  0  0  0
  159.4390  213.8530  152.1010 C   0  0  0  0  0  2  0  0  0  0  0  0
  158.3290  214.0830  148.6100 O   0  0  0  0  0  0  0  0  0  0  0  0
  159.1210  213.9810  149.5810 C   0  0  0  0  0  0  0  0  0  0  0  0
  158.6020  213.9760  150.9140 N   0  0  0  0  0  2  0  0  0  0  0  0
  160.5830  213.8360  149.3160 C   0  0  0  0  0  2  0  0  0  0  0  0
  160.9960  212.5470  149.6510 O   0  0  0  0  0  0  0  0  0  0  0  0
  161.7910  211.9660  148.2740 P   0  0  0  0  0  0  0  0  0  0  0  0
  160.7880  212.1180  146.9200 O   0  0  0  0  0  0  0  0  0  0  0  0
  162.1290  210.5080  148.4760 O   0  0  0  0  0  1  0  0  0  0  0  0
  163.2180  212.8380  148.0200 O   0  0  0  0  0  1  0  0  0  0  0  0
  161.0780  205.6010  149.4140 C   0  0  0  0  0  2  0  0  0  0  0  0
  162.7190  205.5050  145.2560 C   0  0  0  0  0  2  0  0  0  0  0  0
  160.9610  205.3080  145.4040 S   0  0  0  0  0  0  0  0  0  0  0  0
  163.3930  204.8230  146.4310 C   0  0  0  0  0  2  0  0  0  0  0  0
  161.3990  205.0410  148.0260 C   0  0  1  0  0  0  0  0  0  0  0  0
  160.5710  203.8980  145.0570 O   0  0  0  0  0  0  0  0  0  0  0  0
  160.5000  205.6690  147.0420 N   0  0  0  0  0  2  0  0  0  0  0  0
  162.8730  205.3860  147.7530 C   0  0  0  0  0  2  0  0  0  0  0  0
  160.2690  206.2580  144.4700 O   0  0  0  0  0  0  0  0  0  0  0  0
  161.0590  202.3800  148.0800 C   0  0  0  0  0  3  0  0  0  0  0  0
  161.2090  203.5750  148.0560 C   0  0  0  0  0  0  0  0  0  0  0  0
  1  7  1  0  0  0  0
  2 13  2  0  0  0  0
  2  3  1  0  0  0  0
  3 15  1  6  0  0  0
  3  1  1  0  0  0  0
  4 10  1  6  0  0  0
  4  8  1  0  0  0  0
  5  6  2  0  0  0  0
  6  9  2  0  0  0  0
  7 12  1  0  0  0  0
  8 12  2  0  0  0  0
  9 10  1  0  0  0  0
 11  4  1  0  0  0  0
 11  7  2  0  0  0  0
 13 11  1  0  0  0  0
 14  9  1  0  0  0  0
 14 13  1  0  0  0  0
 16 15  1  0  0  0  0
 17 18  2  0  0  0  0
 18 19  1  0  0  0  0
 19 16  1  0  0  0  0
 20 18  1  0  0  0  0
 20 21  1  0  0  0  0
 22 24  1  0  0  0  0
 22 21  1  0  0  0  0
 23 22  2  0  0  0  0
 25 22  1  0  0  0  0
 26  5  1  0  0  0  0
 27 28  1  0  0  0  0
 27 29  1  0  0  0  0
 28 32  1  0  0  0  0
 29 33  1  0  0  0  0
 30 36  1  6  0  0  0
 30 26  1  0  0  0  0
 31 28  2  0  0  0  0
 32 30  1  0  0  0  0
 33 30  1  0  0  0  0
 34 28  2  0  0  0  0
 36 35  3  0  0  0  0
M  END
>  <MODEL>
2

>  <REMARK>
 VINA RESULT:      -7.3      3.633      9.616
  Name = 
  9 active torsions:
  status: ('A' for Active; 'I' for Inactive)
    1  A    between atoms: C_3  and  C_8
    2  A    between atoms: C_3  and  C_36
    3  A    between atoms: C_5  and  C_11
    4  A    between atoms: P_7  and  O_14
    5  A    between atoms: C_11  and  O_14
    6  A    between atoms: C_12  and  C_32
    7  A    between atoms: C_17  and  C_26
    8  A    between atoms: C_17  and  C_32
    9  A    between atoms: N_18  and  C_36
                            x       y       z     vdW  Elec       q    Type
                         _______ _______ _______ _____ _____    ______ ____

>  <TORSDO>
F 9

$$$$
=
 OpenBabel11072414323D

 36 39  0  0  1  0  0  0  0  0999 V2000
  161.1060  209.6000  154.8970 S   0  0  0  0  0  0  0  0  0  0  0  0
  160.5780  210.2020  152.2780 N   0  0  0  0  0  0  0  0  0  0  0  0
  160.0920  210.4740  153.6380 C   0  0  2  0  0  3  0  0  0  0  0  0
  161.0040  206.4770  152.3550 C   0  0  2  0  0  3  0  0  0  0  0  0
  162.3090  206.9660  147.7170 C   0  0  0  0  0  3  0  0  0  0  0  0
  162.0700  207.2230  148.9720 C   0  0  0  0  0  0  0  0  0  0  0  0
  160.9230  207.9990  154.1020 C   0  0  0  0  0  0  0  0  0  0  0  0
  161.4200  205.7700  153.6540 C   0  0  0  0  0  3  0  0  0  0  0  0
  161.8230  207.4910  150.2230 C   0  0  0  0  0  0  0  0  0  0  0  0
  162.0990  206.4470  151.2840 C   0  0  0  0  0  2  0  0  0  0  0  0
  160.8150  207.8730  152.8050 C   0  0  0  0  0  0  0  0  0  0  0  0
  161.2550  206.7660  154.7140 N   0  0  0  0  0  0  0  0  0  0  0  0
  160.8700  209.0000  151.8800 C   0  0  0  0  0  0  0  0  0  0  0  0
  161.3110  208.7530  150.5750 O   0  0  0  0  0  0  0  0  0  0  0  0
  160.1140  211.9680  153.9140 C   0  0  0  0  0  2  0  0  0  0  0  0
  160.3460  212.2510  155.3920 C   0  0  0  0  0  2  0  0  0  0  0  0
  157.6650  214.2110  156.9530 O   0  0  0  0  0  0  0  0  0  0  0  0
  158.3170  213.1970  156.5970 C   0  0  0  0  0  0  0  0  0  0  0  0
  159.5200  213.3650  155.8420 N   0  0  0  0  0  2  0  0  0  0  0  0
  157.8330  211.8430  156.9970 C   0  0  0  0  0  2  0  0  0  0  0  0
  157.5070  211.1050  155.8590 O   0  0  0  0  0  0  0  0  0  0  0  0
  155.8510  211.3650  155.6220 P   0  0  0  0  0  0  0  0  0  0  0  0
  155.1170  211.7920  157.0850 O   0  0  0  0  0  1  0  0  0  0  0  0
  155.2190  210.0950  155.1040 O   0  0  0  0  0  1  0  0  0  0  0  0
  155.6180  212.6030  154.4910 O   0  0  0  0  0  0  0  0  0  0  0  0
  161.2510  206.3380  146.8680 C   0  0  0  0  0  2  0  0  0  0  0  0
  160.1310  202.0730  146.1310 C   0  0  0  0  0  2  0  0  0  0  0  0
  160.8920  202.4190  147.6970 S   0  0  0  0  0  0  0  0  0  0  0  0
  160.7530  202.9630  145.0730 C   0  0  0  0  0  2  0  0  0  0  0  0
  161.4420  204.8300  146.6880 C   0  0  1  0  0  0  0  0  0  0  0  0
  162.2740  201.8280  147.7390 O   0  0  0  0  0  0  0  0  0  0  0  0
  160.9730  204.1440  147.9030 N   0  0  0  0  0  2  0  0  0  0  0  0
  160.6110  204.4360  145.4540 C   0  0  0  0  0  2  0  0  0  0  0  0
  160.0640  201.8230  148.8000 O   0  0  0  0  0  0  0  0  0  0  0  0
  164.0460  204.3500  146.2540 C   0  0  0  0  0  3  0  0  0  0  0  0
  162.8770  204.5640  146.4510 C   0  0  0  0  0  0  0  0  0  0  0  0
  2  3  1  0  0  0  0
  3 15  1  1  0  0  0
  3  1  1  0  0  0  0
  4 10  1  6  0  0  0
  4 11  1  0  0  0  0
  4  8  1  0  0  0  0
  5  6  2  0  0  0  0
  6  9  2  0  0  0  0
  7 12  1  0  0  0  0
  7  1  1  0  0  0  0
  8 12  2  0  0  0  0
  9 14  1  0  0  0  0
  9 10  1  0  0  0  0
 11  7  2  0  0  0  0
 13  2  2  0  0  0  0
 13 11  1  0  0  0  0
 14 13  1  0  0  0  0
 15 16  1  0  0  0  0
 16 19  1  0  0  0  0
 18 17  2  0  0  0  0
 18 20  1  0  0  0  0
 19 18  1  0  0  0  0
 21 20  1  0  0  0  0
 22 21  1  0  0  0  0
 22 23  1  0  0  0  0
 24 22  1  0  0  0  0
 25 22  2  0  0  0  0
 26  5  1  0  0  0  0
 27 28  1  0  0  0  0
 28 31  2  0  0  0  0
 28 32  1  0  0  0  0
 28 34  2  0  0  0  0
 29 33  1  0  0  0  0
 29 27  1  0  0  0  0
 30 36  1  6  0  0  0
 30 26  1  0  0  0  0
 30 32  1  0  0  0  0
 33 30  1  0  0  0  0
 35 36  3  0  0  0  0
M  END
>  <MODEL>
3

>  <REMARK>
 VINA RESULT:      -6.6      3.525     11.016
  Name = 
  9 active torsions:
  status: ('A' for Active; 'I' for Inactive)
    1  A    between atoms: C_3  and  C_8
    2  A    between atoms: C_3  and  C_36
    3  A    between atoms: C_5  and  C_11
    4  A    between atoms: P_7  and  O_14
    5  A    between atoms: C_11  and  O_14
    6  A    between atoms: C_12  and  C_32
    7  A    between atoms: C_17  and  C_26
    8  A    between atoms: C_17  and  C_32
    9  A    between atoms: N_18  and  C_36
                            x       y       z     vdW  Elec       q    Type
                         _______ _______ _______ _____ _____    ______ ____

>  <TORSDO>
F 9

$$$$
=
 OpenBabel11072414323D

 36 39  0  0  1  0  0  0  0  0999 V2000
  161.0540  209.7570  154.7650 S   0  0  0  0  0  0  0  0  0  0  0  0
  160.4750  210.2850  152.1410 N   0  0  0  0  0  0  0  0  0  0  0  0
  159.9900  210.5610  153.5000 C   0  0  2  0  0  3  0  0  0  0  0  0
  161.0670  206.5850  152.2820 C   0  0  2  0  0  3  0  0  0  0  0  0
  162.3050  207.0430  147.6230 C   0  0  0  0  0  3  0  0  0  0  0  0
  162.0660  207.3130  148.8750 C   0  0  0  0  0  0  0  0  0  0  0  0
  160.9350  208.1340  154.0010 C   0  0  0  0  0  0  0  0  0  0  0  0
  161.5260  205.9220  153.5890 C   0  0  0  0  0  3  0  0  0  0  0  0
  161.8200  207.5930  150.1230 C   0  0  0  0  0  0  0  0  0  0  0  0
  162.1520  206.5830  151.2000 C   0  0  0  0  0  2  0  0  0  0  0  0
  160.8200  207.9790  152.7080 C   0  0  0  0  0  0  0  0  0  0  0  0
  161.3270  206.9290  154.6330 N   0  0  0  0  0  0  0  0  0  0  0  0
  160.8160  209.0900  151.7610 C   0  0  0  0  0  0  0  0  0  0  0  0
  161.2550  208.8380  150.4570 O   0  0  0  0  0  0  0  0  0  0  0  0
  159.9480  212.0600  153.7480 C   0  0  0  0  0  2  0  0  0  0  0  0
  160.0480  212.8360  152.4420 C   0  0  0  0  0  2  0  0  0  0  0  0
  157.2040  214.1440  150.5270 O   0  0  0  0  0  0  0  0  0  0  0  0
  158.3320  213.6320  150.7440 C   0  0  0  0  0  0  0  0  0  0  0  0
  158.7640  213.4290  152.0920 N   0  0  0  0  0  2  0  0  0  0  0  0
  159.1800  213.2230  149.5860 C   0  0  0  0  0  2  0  0  0  0  0  0
  160.0190  214.2760  149.2230 O   0  0  0  0  0  0  0  0  0  0  0  0
  161.1690  213.5880  148.1870 P   0  0  0  0  0  0  0  0  0  0  0  0
  160.6000  213.6120  146.5940 O   0  0  0  0  0  0  0  0  0  0  0  0
  161.4160  212.1570  148.6020 O   0  0  0  0  0  1  0  0  0  0  0  0
  162.6200  214.4530  148.2810 O   0  0  0  0  0  1  0  0  0  0  0  0
  161.2670  206.3530  146.7960 C   0  0  0  0  0  2  0  0  0  0  0  0
  160.1800  202.0380  146.3660 C   0  0  0  0  0  2  0  0  0  0  0  0
  160.9470  202.4980  147.8990 S   0  0  0  0  0  0  0  0  0  0  0  0
  160.7880  202.8570  145.2440 C   0  0  0  0  0  2  0  0  0  0  0  0
  161.4710  204.8380  146.7200 C   0  0  1  0  0  0  0  0  0  0  0  0
  162.3340  201.9230  147.9730 O   0  0  0  0  0  0  0  0  0  0  0  0
  161.0140  204.2350  147.9840 N   0  0  0  0  0  2  0  0  0  0  0  0
  160.6360  204.3510  145.5230 C   0  0  0  0  0  2  0  0  0  0  0  0
  160.1300  201.9740  149.0460 O   0  0  0  0  0  0  0  0  0  0  0  0
  164.0760  204.3460  146.3120 C   0  0  0  0  0  3  0  0  0  0  0  0
  162.9060  204.5670  146.4930 C   0  0  0  0  0  0  0  0  0  0  0  0
  2  3  1  0  0  0  0
  3 15  1  1  0  0  0
  3  1  1  0  0  0  0
  4 10  1  6  0  0  0
  4 11  1  0  0  0  0
  4  8  1  0  0  0  0
  5  6  2  0  0  0  0
  6  9  2  0  0  0  0
  7 12  1  0  0  0  0
  7  1  1  0  0  0  0
  8 12  2  0  0  0  0
  9 14  1  0  0  0  0
  9 10  1  0  0  0  0
 11  7  2  0  0  0  0
 13  2  2  0  0  0  0
 13 11  1  0  0  0  0
 14 13  1  0  0  0  0
 16 15  1  0  0  0  0
 17 18  2  0  0  0  0
 18 19  1  0  0  0  0
 19 16  1  0  0  0  0
 20 18  1  0  0  0  0
 21 20  1  0  0  0  0
 22 25  1  0  0  0  0
 22 24  1  0  0  0  0
 22 21  1  0  0  0  0
 23 22  2  0  0  0  0
 26  5  1  0  0  0  0
 27 28  1  0  0  0  0
 28 31  2  0  0  0  0
 28 32  1  0  0  0  0
 28 34  2  0  0  0  0
 29 33  1  0  0  0  0
 29 27  1  0  0  0  0
 30 36  1  6  0  0  0
 30 26  1  0  0  0  0
 30 32  1  0  0  0  0
 33 30  1  0  0  0  0
 35 36  3  0  0  0  0
M  END
>  <MODEL>
4

>  <REMARK>
 VINA RESULT:      -6.5      3.895      9.777
  Name = 
  9 active torsions:
  status: ('A' for Active; 'I' for Inactive)
    1  A    between atoms: C_3  and  C_8
    2  A    between atoms: C_3  and  C_36
    3  A    between atoms: C_5  and  C_11
    4  A    between atoms: P_7  and  O_14
    5  A    between atoms: C_11  and  O_14
    6  A    between atoms: C_12  and  C_32
    7  A    between atoms: C_17  and  C_26
    8  A    between atoms: C_17  and  C_32
    9  A    between atoms: N_18  and  C_36
                            x       y       z     vdW  Elec       q    Type
                         _______ _______ _______ _____ _____    ______ ____

>  <TORSDO>
F 9

$$$$
=
 OpenBabel11072414323D

 36 39  0  0  1  0  0  0  0  0999 V2000
  160.5140  211.3520  155.8820 S   0  0  0  0  0  0  0  0  0  0  0  0
  160.2680  210.9520  153.1850 N   0  0  0  0  0  0  0  0  0  0  0  0
  159.7150  211.7620  154.2780 C   0  0  2  0  0  3  0  0  0  0  0  0
  160.2230  207.5160  154.6870 C   0  0  2  0  0  3  0  0  0  0  0  0
  161.9310  206.0850  150.3880 C   0  0  0  0  0  3  0  0  0  0  0  0
  161.6300  206.8210  151.4200 C   0  0  0  0  0  0  0  0  0  0  0  0
  160.1970  209.5900  155.7220 C   0  0  0  0  0  0  0  0  0  0  0  0
  160.4470  207.3250  156.1950 C   0  0  0  0  0  3  0  0  0  0  0  0
  161.3230  207.5660  152.4440 C   0  0  0  0  0  0  0  0  0  0  0  0
  161.3850  206.9860  153.8400 C   0  0  0  0  0  2  0  0  0  0  0  0
  160.1730  208.9880  154.5620 C   0  0  0  0  0  0  0  0  0  0  0  0
  160.3250  208.6600  156.7830 N   0  0  0  0  0  0  0  0  0  0  0  0
  160.4390  209.6680  153.2980 C   0  0  0  0  0  0  0  0  0  0  0  0
  160.9450  208.9050  152.2390 O   0  0  0  0  0  0  0  0  0  0  0  0
  159.9000  213.2410  153.9810 C   0  0  0  0  0  2  0  0  0  0  0  0
  158.7470  214.0620  154.5400 C   0  0  0  0  0  2  0  0  0  0  0  0
  155.3000  213.9340  153.2880 O   0  0  0  0  0  0  0  0  0  0  0  0
  156.2400  213.9770  154.1200 C   0  0  0  0  0  0  0  0  0  0  0  0
  157.5920  214.0050  153.6530 N   0  0  0  0  0  2  0  0  0  0  0  0
  155.9210  214.0270  155.5770 C   0  0  0  0  0  2  0  0  0  0  0  0
  154.8860  213.1370  155.8620 O   0  0  0  0  0  0  0  0  0  0  0  0
  155.6530  211.6890  156.2880 P   0  0  0  0  0  0  0  0  0  0  0  0
  155.8990  210.7380  154.9110 O   0  0  0  0  0  0  0  0  0  0  0  0
  154.7780  210.9320  157.2600 O   0  0  0  0  0  1  0  0  0  0  0  0
  157.1420  212.0180  157.0200 O   0  0  0  0  0  1  0  0  0  0  0  0
  160.8720  205.2730  149.7130 C   0  0  0  0  0  2  0  0  0  0  0  0
  162.5840  205.5960  145.5960 C   0  0  0  0  0  2  0  0  0  0  0  0
  160.8450  205.2500  145.6920 S   0  0  0  0  0  0  0  0  0  0  0  0
  163.2910  204.8890  146.7360 C   0  0  0  0  0  2  0  0  0  0  0  0
  161.2600  204.8370  148.2980 C   0  0  1  0  0  0  0  0  0  0  0  0
  160.5750  203.8420  145.2410 O   0  0  0  0  0  0  0  0  0  0  0  0
  160.3300  205.4590  147.3400 N   0  0  0  0  0  2  0  0  0  0  0  0
  162.7060  205.3160  148.0820 C   0  0  0  0  0  2  0  0  0  0  0  0
  160.0940  206.2060  144.8090 O   0  0  0  0  0  0  0  0  0  0  0  0
  161.1240  202.1610  148.1630 C   0  0  0  0  0  3  0  0  0  0  0  0
  161.1880  203.3630  148.2250 C   0  0  0  0  0  0  0  0  0  0  0  0
  2 13  2  0  0  0  0
  2  3  1  0  0  0  0
  3 15  1  6  0  0  0
  3  1  1  0  0  0  0
  4 10  1  6  0  0  0
  4  8  1  0  0  0  0
  5  6  2  0  0  0  0
  6  9  2  0  0  0  0
  7  1  1  0  0  0  0
  7 12  1  0  0  0  0
  8 12  2  0  0  0  0
  9 10  1  0  0  0  0
 11  4  1  0  0  0  0
 11  7  2  0  0  0  0
 13 11  1  0  0  0  0
 14  9  1  0  0  0  0
 14 13  1  0  0  0  0
 15 16  1  0  0  0  0
 17 18  2  0  0  0  0
 18 20  1  0  0  0  0
 19 18  1  0  0  0  0
 19 16  1  0  0  0  0
 20 21  1  0  0  0  0
 21 22  1  0  0  0  0
 22 25  1  0  0  0  0
 22 24  1  0  0  0  0
 23 22  2  0  0  0  0
 26  5  1  0  0  0  0
 27 28  1  0  0  0  0
 27 29  1  0  0  0  0
 28 32  1  0  0  0  0
 29 33  1  0  0  0  0
 30 36  1  6  0  0  0
 30 26  1  0  0  0  0
 31 28  2  0  0  0  0
 32 30  1  0  0  0  0
 33 30  1  0  0  0  0
 34 28  2  0  0  0  0
 35 36  3  0  0  0  0
M  END
>  <MODEL>
5

>  <REMARK>
 VINA RESULT:      -6.2      3.505     11.016
  Name = 
  9 active torsions:
  status: ('A' for Active; 'I' for Inactive)
    1  A    between atoms: C_3  and  C_8
    2  A    between atoms: C_3  and  C_36
    3  A    between atoms: C_5  and  C_11
    4  A    between atoms: P_7  and  O_14
    5  A    between atoms: C_11  and  O_14
    6  A    between atoms: C_12  and  C_32
    7  A    between atoms: C_17  and  C_26
    8  A    between atoms: C_17  and  C_32
    9  A    between atoms: N_18  and  C_36
                            x       y       z     vdW  Elec       q    Type
                         _______ _______ _______ _____ _____    ______ ____

>  <TORSDO>
F 9

$$$$
=
 OpenBabel11072414323D

 36 39  0  0  1  0  0  0  0  0999 V2000
  162.5840  207.1710  149.2130 S   0  0  0  0  0  0  0  0  0  0  0  0
  161.1190  206.3370  151.3710 N   0  0  0  0  0  0  0  0  0  0  0  0
  161.2620  206.1130  149.9270 C   0  0  2  0  0  3  0  0  0  0  0  0
  161.0830  210.0830  151.5580 C   0  0  2  0  0  3  0  0  0  0  0  0
  160.4470  209.4070  156.3110 C   0  0  0  0  0  3  0  0  0  0  0  0
  160.7700  209.2150  155.0630 C   0  0  0  0  0  0  0  0  0  0  0  0
  161.9020  208.6860  149.8990 C   0  0  0  0  0  0  0  0  0  0  0  0
  161.9000  210.9170  150.5600 C   0  0  0  0  0  2  0  0  0  0  0  0
  161.0850  209.0110  153.8150 C   0  0  0  0  0  0  0  0  0  0  0  0
  161.6380  210.1490  152.9850 C   0  0  0  0  0  2  0  0  0  0  0  0
  161.2630  208.7100  151.0390 C   0  0  1  0  0  3  0  0  0  0  0  0
  162.3010  209.9860  149.5040 N   0  0  0  0  0  0  0  0  0  0  0  0
  161.0760  207.5320  151.8810 C   0  0  0  0  0  0  0  0  0  0  0  0
  160.9170  207.7310  153.2560 O   0  0  0  0  0  0  0  0  0  0  0  0
  161.5750  204.6510  149.6510 C   0  0  0  0  0  2  0  0  0  0  0  0
  161.5090  204.3460  148.1610 C   0  0  0  0  0  2  0  0  0  0  0  0
  160.5590  201.1960  146.5340 O   0  0  0  0  0  0  0  0  0  0  0  0
  161.0070  202.3660  146.6470 C   0  0  0  0  0  0  0  0  0  0  0  0
  161.0040  202.9980  147.9300 N   0  0  0  0  0  2  0  0  0  0  0  0
  161.5570  203.0540  145.4420 C   0  0  0  0  0  2  0  0  0  0  0  0
  160.5670  203.8430  144.8590 O   0  0  0  0  0  0  0  0  0  0  0  0
  161.2540  205.3850  144.7220 P   0  0  0  0  0  0  0  0  0  0  0  0
  161.5120  205.7600  143.0920 O   0  0  0  0  0  0  0  0  0  0  0  0
  162.5770  205.4030  145.4490 O   0  0  0  0  0  1  0  0  0  0  0  0
  160.2250  206.5380  145.4100 O   0  0  0  0  0  1  0  0  0  0  0  0
  159.0680  209.8630  156.6650 C   0  0  0  0  0  2  0  0  0  0  0  0
  156.7840  213.5080  155.4450 C   0  0  0  0  0  2  0  0  0  0  0  0
  158.1380  213.0490  154.3920 S   0  0  0  0  0  0  0  0  0  0  0  0
  157.1500  213.2010  156.8830 C   0  0  0  0  0  2  0  0  0  0  0  0
  158.8170  211.3340  156.3260 C   0  0  1  0  0  0  0  0  0  0  0  0
  159.2530  214.0490  154.5230 O   0  0  0  0  0  0  0  0  0  0  0  0
  158.6940  211.4700  154.8640 N   0  0  0  0  0  2  0  0  0  0  0  0
  157.5140  211.7250  157.0450 C   0  0  0  0  0  2  0  0  0  0  0  0
  157.6730  213.0080  152.9650 O   0  0  0  0  0  0  0  0  0  0  0  0
  160.8690  212.7890  157.2580 C   0  0  0  0  0  3  0  0  0  0  0  0
  159.9490  212.1340  156.8380 C   0  0  0  0  0  0  0  0  0  0  0  0
  1  7  1  0  0  0  0
  1  3  1  0  0  0  0
  2 13  2  0  0  0  0
  3 15  1  1  0  0  0
  3  2  1  0  0  0  0
  4  8  1  6  0  0  0
  4 10  1  0  0  0  0
  5 26  1  0  0  0  0
  6  5  2  0  0  0  0
  9  6  2  0  0  0  0
 10  9  1  0  0  0  0
 11  7  1  1  0  0  0
 11  4  1  0  0  0  0
 11 13  1  0  0  0  0
 12  7  2  0  0  0  0
 12  8  1  0  0  0  0
 13 14  1  0  0  0  0
 14  9  1  0  0  0  0
 16 15  1  0  0  0  0
 17 18  2  0  0  0  0
 18 19  1  0  0  0  0
 19 16  1  0  0  0  0
 20 18  1  0  0  0  0
 21 20  1  0  0  0  0
 22 21  1  0  0  0  0
 22 25  1  0  0  0  0
 22 24  1  0  0  0  0
 23 22  2  0  0  0  0
 27 29  1  0  0  0  0
 28 31  2  0  0  0  0
 28 32  1  0  0  0  0
 28 27  1  0  0  0  0
 29 33  1  0  0  0  0
 30 26  1  1  0  0  0
 30 36  1  0  0  0  0
 30 33  1  0  0  0  0
 32 30  1  0  0  0  0
 34 28  2  0  0  0  0
 36 35  3  0  0  0  0
M  END
>  <MODEL>
6

>  <REMARK>
 VINA RESULT:      -6.1      1.941      2.764
  Name = 
  9 active torsions:
  status: ('A' for Active; 'I' for Inactive)
    1  A    between atoms: C_3  and  C_8
    2  A    between atoms: C_3  and  C_36
    3  A    between atoms: C_5  and  C_11
    4  A    between atoms: P_7  and  O_14
    5  A    between atoms: C_11  and  O_14
    6  A    between atoms: C_12  and  C_32
    7  A    between atoms: C_17  and  C_26
    8  A    between atoms: C_17  and  C_32
    9  A    between atoms: N_18  and  C_36
                            x       y       z     vdW  Elec       q    Type
                         _______ _______ _______ _____ _____    ______ ____

>  <TORSDO>
F 9

$$$$
