=
 OpenBabel11072413023D

 37 41  0  0  1  0  0  0  0  0999 V2000
  162.0530  209.1760  151.6840 C   0  0  1  0  0  3  0  0  0  0  0  0
  161.6220  210.4840  151.0150 C   0  0  0  0  0  2  0  0  0  0  0  0
  160.8620  207.3610  152.7730 N   0  0  0  0  0  2  0  0  0  0  0  0
  160.8930  208.6130  152.4550 C   0  0  0  0  0  0  0  0  0  0  0  0
  160.9360  211.3750  151.9540 N   0  0  0  0  0  0  0  0  0  0  0  0
  160.1430  210.9300  152.8850 C   0  0  0  0  0  0  0  0  0  0  0  0
  160.0030  209.5230  153.1020 N   0  0  0  0  0  2  0  0  0  0  0  0
  158.7280  212.7250  155.9440 C   0  0  1  0  0  3  0  0  0  0  0  0
  157.6740  213.5790  154.0250 O   0  0  0  0  0  0  0  0  0  0  0  0
  157.9610  211.5090  153.9930 C   0  0  1  0  0  3  0  0  0  0  0  0
  157.5400  212.5560  154.9850 C   0  0  1  0  0  3  0  0  0  0  0  0
  158.9480  211.5220  156.8530 C   0  0  0  0  0  2  0  0  0  0  0  0
  158.2370  212.6760  153.0990 C   0  0  2  0  0  3  0  0  0  0  0  0
  160.1770  211.1430  156.0380 C   0  0  1  0  0  3  0  0  0  0  0  0
  159.9520  212.3390  155.1140 C   0  0  1  0  0  3  0  0  0  0  0  0
  159.3890  211.8860  153.7550 C   0  0  2  0  0  0  0  0  0  0  0  0
  162.9600  210.4740  155.2440 O   0  0  0  0  0  0  0  0  0  0  0  0
  161.4100  211.2710  156.8170 N   0  0  0  0  0  2  0  0  0  0  0  0
  162.7400  210.9440  156.3930 C   0  0  0  0  0  0  0  0  0  0  0  0
  163.8030  211.1510  157.2590 O   0  0  0  0  0  1  0  0  0  0  0  0
  161.8620  208.1170  149.5760 C   0  0  0  0  0  3  0  0  0  0  0  0
  162.4990  208.2400  150.6820 N   0  0  0  0  0  0  0  0  0  0  0  0
  162.3280  207.1420  148.5490 C   0  0  0  0  0  2  0  0  0  0  0  0
  161.1910  206.2190  148.1360 C   0  0  2  0  0  3  0  0  0  0  0  0
  160.8060  204.9260  150.2390 C   0  0  0  0  0  1  0  0  0  0  0  0
  160.2460  205.9810  149.3050 C   0  0  0  0  0  2  0  0  0  0  0  0
  161.7820  204.8930  147.6850 C   0  0  0  0  0  2  0  0  0  0  0  0
  161.1820  204.4530  146.3570 C   0  0  1  0  0  3  0  0  0  0  0  0
  163.3250  205.2840  145.3670 O   0  0  0  0  0  1  0  0  0  0  0  0
  161.3680  205.3990  144.1780 O   0  0  0  0  0  0  0  0  0  0  0  0
  161.9590  205.0590  145.2350 C   0  0  0  0  0  0  0  0  0  0  0  0
  161.2030  203.0590  146.2500 O   0  0  0  0  0  0  0  0  0  0  0  0
  161.4690  202.6040  147.5430 C   0  0  0  0  0  2  0  0  0  0  0  0
  160.6550  201.3570  147.8300 C   0  0  1  0  0  3  0  0  0  0  0  0
  161.5030  200.2520  147.9180 O   0  0  0  0  0  1  0  0  0  0  0  0
  159.9750  201.5160  149.0370 O   0  0  0  0  0  0  0  0  0  0  0  0
  160.9370  201.2890  150.0210 C   0  0  0  0  0  1  0  0  0  0  0  0
  1 22  1  6  0  0  0
  1  4  1  0  0  0  0
  2  1  1  0  0  0  0
  2  5  1  0  0  0  0
  4  3  2  0  0  0  0
  4  7  1  0  0  0  0
  5  6  2  0  0  0  0
  6  7  1  0  0  0  0
  6 16  1  0  0  0  0
  8 12  1  1  0  0  0
  9 11  1  0  0  0  0
 10 11  1  0  0  0  0
 11  8  1  0  0  0  0
 13 16  1  0  0  0  0
 13 10  1  0  0  0  0
 13  9  1  0  0  0  0
 14 18  1  0  0  0  0
 14 12  1  0  0  0  0
 15  8  1  0  0  0  0
 15 14  1  0  0  0  0
 16 10  1  0  0  0  0
 16 15  1  0  0  0  0
 17 19  2  0  0  0  0
 19 18  1  0  0  0  0
 19 20  1  0  0  0  0
 21 22  2  0  0  0  0
 23 21  1  0  0  0  0
 24 23  1  0  0  0  0
 24 26  1  0  0  0  0
 26 25  1  0  0  0  0
 27 24  1  0  0  0  0
 28 27  1  0  0  0  0
 30 31  2  0  0  0  0
 31 29  1  0  0  0  0
 31 28  1  0  0  0  0
 32 28  1  0  0  0  0
 32 33  1  0  0  0  0
 33 34  1  0  0  0  0
 34 35  1  0  0  0  0
 34 36  1  0  0  0  0
 36 37  1  0  0  0  0
M  END
>  <MODEL>
1

>  <REMARK>
 VINA RESULT:      -7.0      0.000      0.000
  Name = 
  13 active torsions:
  status: ('A' for Active; 'I' for Inactive)
    1  A    between atoms: O_2  and  C_16
    2  A    between atoms: O_2  and  C_27
    3  A    between atoms: C_3  and  N_37
    4  A    between atoms: O_4  and  C_12
    5  A    between atoms: C_9  and  C_18
    6  A    between atoms: C_9  and  C_26
    7  A    between atoms: C_12  and  C_16
    8  A    between atoms: C_14  and  C_18
    9  A    between atoms: C_14  and  C_27
   10  A    between atoms: N_17  and  C_28
   11  A    between atoms: C_18  and  C_35
   12  A    between atoms: C_25  and  C_36
   13  A    between atoms: C_27  and  C_33
                            x       y       z     vdW  Elec       q    Type
                         _______ _______ _______ _____ _____    ______ ____

>  <TORSDO>
F 13

$$$$
=
 OpenBabel11072413023D

 37 41  0  0  1  0  0  0  0  0999 V2000
  161.3270  208.2690  150.7450 C   0  0  1  0  0  3  0  0  0  0  0  0
  161.3760  207.2120  151.8530 C   0  0  0  0  0  2  0  0  0  0  0  0
  162.3740  210.4360  150.4280 N   0  0  0  0  0  2  0  0  0  0  0  0
  161.9400  209.5420  151.2540 C   0  0  0  0  0  0  0  0  0  0  0  0
  160.8860  207.7380  153.1280 N   0  0  0  0  0  0  0  0  0  0  0  0
  161.1050  208.9640  153.5090 C   0  0  0  0  0  0  0  0  0  0  0  0
  161.7440  209.8890  152.6250 N   0  0  0  0  0  2  0  0  0  0  0  0
  159.8370  211.1410  156.3770 C   0  0  1  0  0  3  0  0  0  0  0  0
  160.5460  209.0820  157.2610 O   0  0  0  0  0  0  0  0  0  0  0  0
  161.7890  209.8420  155.7630 C   0  0  1  0  0  3  0  0  0  0  0  0
  161.0330  210.3670  156.9520 C   0  0  1  0  0  3  0  0  0  0  0  0
  160.2330  212.4360  155.6780 C   0  0  0  0  0  2  0  0  0  0  0  0
  161.0880  208.5570  156.0700 C   0  0  2  0  0  3  0  0  0  0  0  0
  159.9440  211.7860  154.3310 C   0  0  1  0  0  3  0  0  0  0  0  0
  159.5610  210.4800  155.0270 C   0  0  1  0  0  3  0  0  0  0  0  0
  160.6700  209.4240  154.8640 C   0  0  2  0  0  0  0  0  0  0  0  0
  159.7190  212.7100  151.5180 O   0  0  0  0  0  0  0  0  0  0  0  0
  158.8020  212.4080  153.6580 N   0  0  0  0  0  2  0  0  0  0  0  0
  158.7320  212.8340  152.2910 C   0  0  0  0  0  0  0  0  0  0  0  0
  157.5540  213.3870  151.8090 O   0  0  0  0  0  1  0  0  0  0  0  0
  161.5520  206.8420  148.8710 C   0  0  0  0  0  3  0  0  0  0  0  0
  162.0360  207.7910  149.5840 N   0  0  0  0  0  0  0  0  0  0  0  0
  162.2970  206.3500  147.6760 C   0  0  0  0  0  2  0  0  0  0  0  0
  161.8880  204.9240  147.3430 C   0  0  2  0  0  3  0  0  0  0  0  0
  160.5520  206.0460  145.5550 C   0  0  0  0  0  1  0  0  0  0  0  0
  161.3920  204.8340  145.9060 C   0  0  0  0  0  2  0  0  0  0  0  0
  160.7770  204.5020  148.2890 C   0  0  0  0  0  2  0  0  0  0  0  0
  161.1580  203.2410  149.0520 C   0  0  1  0  0  3  0  0  0  0  0  0
  161.7950  202.8700  151.4430 O   0  0  0  0  0  1  0  0  0  0  0  0
  159.9760  204.1580  150.9060 O   0  0  0  0  0  0  0  0  0  0  0  0
  160.9470  203.4610  150.5130 C   0  0  0  0  0  0  0  0  0  0  0  0
  160.3890  202.1570  148.6190 O   0  0  0  0  0  0  0  0  0  0  0  0
  161.3200  201.1790  148.2600 C   0  0  0  0  0  2  0  0  0  0  0  0
  160.8660  200.4730  146.9960 C   0  0  1  0  0  3  0  0  0  0  0  0
  160.8780  201.3700  145.9270 O   0  0  0  0  0  1  0  0  0  0  0  0
  161.7290  199.4120  146.7230 O   0  0  0  0  0  0  0  0  0  0  0  0
  161.2590  198.8700  145.5270 C   0  0  0  0  0  1  0  0  0  0  0  0
  1 22  1  6  0  0  0
  1  4  1  0  0  0  0
  1  2  1  0  0  0  0
  2  5  1  0  0  0  0
  3  4  2  0  0  0  0
  4  7  1  0  0  0  0
  5  6  2  0  0  0  0
  6 16  1  0  0  0  0
  7  6  1  0  0  0  0
  8 12  1  6  0  0  0
  8 11  1  0  0  0  0
 10 13  1  0  0  0  0
 10 11  1  0  0  0  0
 11  9  1  0  0  0  0
 13  9  1  0  0  0  0
 14 15  1  0  0  0  0
 14 12  1  0  0  0  0
 15  8  1  0  0  0  0
 16 15  1  0  0  0  0
 16 10  1  0  0  0  0
 16 13  1  0  0  0  0
 17 19  2  0  0  0  0
 18 14  1  0  0  0  0
 19 18  1  0  0  0  0
 20 19  1  0  0  0  0
 21 22  2  0  0  0  0
 23 21  1  0  0  0  0
 24 23  1  0  0  0  0
 24 27  1  0  0  0  0
 25 26  1  0  0  0  0
 26 24  1  0  0  0  0
 27 28  1  0  0  0  0
 28 31  1  0  0  0  0
 31 30  2  0  0  0  0
 31 29  1  0  0  0  0
 32 28  1  0  0  0  0
 33 32  1  0  0  0  0
 34 33  1  0  0  0  0
 35 34  1  0  0  0  0
 36 34  1  0  0  0  0
 37 36  1  0  0  0  0
M  END
>  <MODEL>
2

>  <REMARK>
 VINA RESULT:      -6.9      1.990      3.993
  Name = 
  13 active torsions:
  status: ('A' for Active; 'I' for Inactive)
    1  A    between atoms: O_2  and  C_16
    2  A    between atoms: O_2  and  C_27
    3  A    between atoms: C_3  and  N_37
    4  A    between atoms: O_4  and  C_12
    5  A    between atoms: C_9  and  C_18
    6  A    between atoms: C_9  and  C_26
    7  A    between atoms: C_12  and  C_16
    8  A    between atoms: C_14  and  C_18
    9  A    between atoms: C_14  and  C_27
   10  A    between atoms: N_17  and  C_28
   11  A    between atoms: C_18  and  C_35
   12  A    between atoms: C_25  and  C_36
   13  A    between atoms: C_27  and  C_33
                            x       y       z     vdW  Elec       q    Type
                         _______ _______ _______ _____ _____    ______ ____

>  <TORSDO>
F 13

$$$$
=
 OpenBabel11072413023D

 37 41  0  0  1  0  0  0  0  0999 V2000
  161.5400  208.1650  150.6250 C   0  0  1  0  0  3  0  0  0  0  0  0
  161.6990  207.1490  151.7600 C   0  0  0  0  0  2  0  0  0  0  0  0
  162.2620  210.4610  150.2970 N   0  0  0  0  0  2  0  0  0  0  0  0
  161.9320  209.5260  151.1270 C   0  0  0  0  0  0  0  0  0  0  0  0
  161.0800  207.6190  153.0010 N   0  0  0  0  0  0  0  0  0  0  0  0
  161.0950  208.8700  153.3600 C   0  0  0  0  0  0  0  0  0  0  0  0
  161.6250  209.8650  152.4790 N   0  0  0  0  0  2  0  0  0  0  0  0
  159.5590  210.9470  156.1710 C   0  0  1  0  0  3  0  0  0  0  0  0
  160.1970  208.8620  157.0470 O   0  0  0  0  0  0  0  0  0  0  0  0
  161.5670  209.6760  155.6940 C   0  0  1  0  0  3  0  0  0  0  0  0
  160.7030  210.1580  156.8260 C   0  0  1  0  0  3  0  0  0  0  0  0
  160.0080  212.2660  155.5530 C   0  0  0  0  0  2  0  0  0  0  0  0
  160.8490  208.3780  155.8940 C   0  0  2  0  0  3  0  0  0  0  0  0
  159.8470  211.6590  154.1650 C   0  0  1  0  0  3  0  0  0  0  0  0
  159.4110  210.3300  154.7800 C   0  0  1  0  0  3  0  0  0  0  0  0
  160.5360  209.2840  154.6840 C   0  0  2  0  0  0  0  0  0  0  0  0
  159.9210  212.8340  151.4380 O   0  0  0  0  0  0  0  0  0  0  0  0
  158.7670  212.3000  153.4110 N   0  0  0  0  0  2  0  0  0  0  0  0
  158.8420  212.8490  152.0890 C   0  0  0  0  0  0  0  0  0  0  0  0
  157.7070  213.4020  151.5140 O   0  0  0  0  0  1  0  0  0  0  0  0
  161.8880  207.0410  148.5720 C   0  0  0  0  0  3  0  0  0  0  0  0
  162.3630  207.7790  149.5070 N   0  0  0  0  0  0  0  0  0  0  0  0
  162.7500  206.6420  147.4230 C   0  0  0  0  0  2  0  0  0  0  0  0
  162.0300  205.6330  146.5410 C   0  0  2  0  0  3  0  0  0  0  0  0
  159.9420  206.2080  145.2950 C   0  0  0  0  0  1  0  0  0  0  0  0
  160.5220  205.8190  146.6410 C   0  0  0  0  0  2  0  0  0  0  0  0
  162.3980  204.2330  147.0030 C   0  0  0  0  0  2  0  0  0  0  0  0
  161.1530  203.3850  147.2210 C   0  0  1  0  0  3  0  0  0  0  0  0
  160.9240  201.0930  146.2450 O   0  0  0  0  0  1  0  0  0  0  0  0
  160.8780  202.9450  144.8960 O   0  0  0  0  0  0  0  0  0  0  0  0
  160.9650  202.4700  146.0570 C   0  0  0  0  0  0  0  0  0  0  0  0
  161.2700  202.6400  148.3970 O   0  0  0  0  0  0  0  0  0  0  0  0
  160.8950  203.5180  149.4170 C   0  0  0  0  0  2  0  0  0  0  0  0
  160.7650  202.7640  150.7270 C   0  0  1  0  0  3  0  0  0  0  0  0
  161.0630  201.4160  150.5240 O   0  0  0  0  0  1  0  0  0  0  0  0
  161.6530  203.3000  151.6590 O   0  0  0  0  0  0  0  0  0  0  0  0
  160.8400  203.8920  152.6260 C   0  0  0  0  0  1  0  0  0  0  0  0
  1 22  1  6  0  0  0
  1  4  1  0  0  0  0
  1  2  1  0  0  0  0
  2  5  1  0  0  0  0
  3  4  2  0  0  0  0
  4  7  1  0  0  0  0
  5  6  2  0  0  0  0
  6 16  1  0  0  0  0
  7  6  1  0  0  0  0
  8 12  1  6  0  0  0
  8 11  1  0  0  0  0
 10 13  1  0  0  0  0
 10 11  1  0  0  0  0
 11  9  1  0  0  0  0
 13  9  1  0  0  0  0
 14 15  1  0  0  0  0
 14 12  1  0  0  0  0
 15  8  1  0  0  0  0
 16 15  1  0  0  0  0
 16 10  1  0  0  0  0
 16 13  1  0  0  0  0
 17 19  2  0  0  0  0
 18 14  1  0  0  0  0
 19 18  1  0  0  0  0
 20 19  1  0  0  0  0
 21 22  2  0  0  0  0
 23 21  1  0  0  0  0
 24 26  1  0  0  0  0
 24 27  1  0  0  0  0
 24 23  1  0  0  0  0
 25 26  1  0  0  0  0
 27 28  1  0  0  0  0
 28 32  1  0  0  0  0
 30 31  2  0  0  0  0
 31 29  1  0  0  0  0
 31 28  1  0  0  0  0
 32 33  1  0  0  0  0
 33 34  1  0  0  0  0
 34 36  1  0  0  0  0
 35 34  1  0  0  0  0
 36 37  1  0  0  0  0
M  END
>  <MODEL>
3

>  <REMARK>
 VINA RESULT:      -6.8      1.946      3.656
  Name = 
  13 active torsions:
  status: ('A' for Active; 'I' for Inactive)
    1  A    between atoms: O_2  and  C_16
    2  A    between atoms: O_2  and  C_27
    3  A    between atoms: C_3  and  N_37
    4  A    between atoms: O_4  and  C_12
    5  A    between atoms: C_9  and  C_18
    6  A    between atoms: C_9  and  C_26
    7  A    between atoms: C_12  and  C_16
    8  A    between atoms: C_14  and  C_18
    9  A    between atoms: C_14  and  C_27
   10  A    between atoms: N_17  and  C_28
   11  A    between atoms: C_18  and  C_35
   12  A    between atoms: C_25  and  C_36
   13  A    between atoms: C_27  and  C_33
                            x       y       z     vdW  Elec       q    Type
                         _______ _______ _______ _____ _____    ______ ____

>  <TORSDO>
F 13

$$$$
=
 OpenBabel11072413023D

 37 41  0  0  1  0  0  0  0  0999 V2000
  161.0030  208.2270  155.0600 C   0  0  1  0  0  3  0  0  0  0  0  0
  160.4750  209.2460  154.0450 C   0  0  0  0  0  2  0  0  0  0  0  0
  160.1150  207.2580  157.1020 N   0  0  0  0  0  2  0  0  0  0  0  0
  160.1350  208.2590  156.2860 C   0  0  0  0  0  0  0  0  0  0  0  0
  160.2240  210.5490  154.6640 N   0  0  0  0  0  0  0  0  0  0  0  0
  159.7630  210.6700  155.8760 C   0  0  0  0  0  0  0  0  0  0  0  0
  159.5940  209.5140  156.7010 N   0  0  0  0  0  2  0  0  0  0  0  0
  157.8460  213.8110  156.8950 C   0  0  1  0  0  3  0  0  0  0  0  0
  160.1380  214.1840  157.2600 O   0  0  0  0  0  0  0  0  0  0  0  0
  159.7110  213.1540  155.4920 C   0  0  1  0  0  3  0  0  0  0  0  0
  159.1520  214.3170  156.2630 C   0  0  1  0  0  3  0  0  0  0  0  0
  156.7380  213.5630  155.8790 C   0  0  0  0  0  2  0  0  0  0  0  0
  160.6060  212.9870  156.6800 C   0  0  2  0  0  3  0  0  0  0  0  0
  156.9310  212.0620  156.0490 C   0  0  1  0  0  3  0  0  0  0  0  0
  158.0550  212.3050  157.0560 C   0  0  1  0  0  3  0  0  0  0  0  0
  159.4300  212.0200  156.4260 C   0  0  2  0  0  0  0  0  0  0  0  0
  155.1190  209.9980  154.9180 O   0  0  0  0  0  0  0  0  0  0  0  0
  155.7650  211.4270  156.6660 N   0  0  0  0  0  2  0  0  0  0  0  0
  154.9180  210.4250  156.0870 C   0  0  0  0  0  0  0  0  0  0  0  0
  153.8620  209.9140  156.8270 O   0  0  0  0  0  1  0  0  0  0  0  0
  161.3280  206.7470  153.2430 C   0  0  0  0  0  3  0  0  0  0  0  0
  161.0050  206.9100  154.4730 N   0  0  0  0  0  0  0  0  0  0  0  0
  161.3200  205.3820  152.6430 C   0  0  0  0  0  2  0  0  0  0  0  0
  161.0450  205.4570  151.1490 C   0  0  2  0  0  3  0  0  0  0  0  0
  161.1880  203.0070  151.6200 C   0  0  0  0  0  1  0  0  0  0  0  0
  160.9450  204.0580  150.5550 C   0  0  0  0  0  2  0  0  0  0  0  0
  162.1840  206.2100  150.4830 C   0  0  0  0  0  2  0  0  0  0  0  0
  161.6810  207.0260  149.3000 C   0  0  1  0  0  3  0  0  0  0  0  0
  162.3310  208.9120  150.8110 O   0  0  0  0  0  1  0  0  0  0  0  0
  161.7660  209.3090  148.6250 O   0  0  0  0  0  0  0  0  0  0  0  0
  161.9380  208.4740  149.5510 C   0  0  0  0  0  0  0  0  0  0  0  0
  162.3210  206.6270  148.1240 O   0  0  0  0  0  0  0  0  0  0  0  0
  161.5170  205.6090  147.6060 C   0  0  0  0  0  2  0  0  0  0  0  0
  162.2140  204.9450  146.4330 C   0  0  1  0  0  3  0  0  0  0  0  0
  161.6030  203.7220  146.1560 O   0  0  0  0  0  1  0  0  0  0  0  0
  162.1260  205.7720  145.3140 O   0  0  0  0  0  0  0  0  0  0  0  0
  160.7900  205.6970  144.9190 C   0  0  0  0  0  1  0  0  0  0  0  0
  1 22  1  6  0  0  0
  1  4  1  0  0  0  0
  2  5  1  0  0  0  0
  2  1  1  0  0  0  0
  4  7  1  0  0  0  0
  4  3  2  0  0  0  0
  5  6  2  0  0  0  0
  6 16  1  0  0  0  0
  6  7  1  0  0  0  0
  8 12  1  6  0  0  0
  8 15  1  0  0  0  0
 10 11  1  0  0  0  0
 10 16  1  0  0  0  0
 10 13  1  0  0  0  0
 11  8  1  0  0  0  0
 11  9  1  0  0  0  0
 12 14  1  0  0  0  0
 13  9  1  0  0  0  0
 14 18  1  0  0  0  0
 14 15  1  0  0  0  0
 16 13  1  0  0  0  0
 16 15  1  0  0  0  0
 17 19  2  0  0  0  0
 19 18  1  0  0  0  0
 19 20  1  0  0  0  0
 21 22  2  0  0  0  0
 23 21  1  0  0  0  0
 24 23  1  0  0  0  0
 26 24  1  0  0  0  0
 26 25  1  0  0  0  0
 27 24  1  0  0  0  0
 28 31  1  0  0  0  0
 28 27  1  0  0  0  0
 30 31  2  0  0  0  0
 31 29  1  0  0  0  0
 32 28  1  0  0  0  0
 33 32  1  0  0  0  0
 34 33  1  0  0  0  0
 35 34  1  0  0  0  0
 36 34  1  0  0  0  0
 37 36  1  0  0  0  0
M  END
>  <MODEL>
4

>  <REMARK>
 VINA RESULT:      -6.8      2.724      4.615
  Name = 
  13 active torsions:
  status: ('A' for Active; 'I' for Inactive)
    1  A    between atoms: O_2  and  C_16
    2  A    between atoms: O_2  and  C_27
    3  A    between atoms: C_3  and  N_37
    4  A    between atoms: O_4  and  C_12
    5  A    between atoms: C_9  and  C_18
    6  A    between atoms: C_9  and  C_26
    7  A    between atoms: C_12  and  C_16
    8  A    between atoms: C_14  and  C_18
    9  A    between atoms: C_14  and  C_27
   10  A    between atoms: N_17  and  C_28
   11  A    between atoms: C_18  and  C_35
   12  A    between atoms: C_25  and  C_36
   13  A    between atoms: C_27  and  C_33
                            x       y       z     vdW  Elec       q    Type
                         _______ _______ _______ _____ _____    ______ ____

>  <TORSDO>
F 13

$$$$
=
 OpenBabel11072413023D

 37 41  0  0  1  0  0  0  0  0999 V2000
  161.5970  206.7890  150.1520 C   0  0  1  0  0  3  0  0  0  0  0  0
  160.4320  205.8510  150.4840 C   0  0  0  0  0  2  0  0  0  0  0  0
  162.5510  207.6340  148.0850 N   0  0  0  0  0  2  0  0  0  0  0  0
  161.9040  206.6900  148.6850 C   0  0  0  0  0  0  0  0  0  0  0  0
  160.6340  204.5140  149.9210 N   0  0  0  0  0  0  0  0  0  0  0  0
  161.2020  204.3200  148.7660 C   0  0  0  0  0  0  0  0  0  0  0  0
  161.7640  205.4210  148.0460 N   0  0  0  0  0  2  0  0  0  0  0  0
  160.9700  201.3530  146.3740 C   0  0  1  0  0  3  0  0  0  0  0  0
  161.6170  200.5580  148.4890 O   0  0  0  0  0  0  0  0  0  0  0  0
  160.1520  202.0460  148.5480 C   0  0  1  0  0  3  0  0  0  0  0  0
  160.4640  200.8270  147.7260 C   0  0  1  0  0  3  0  0  0  0  0  0
  159.8820  202.0110  145.5340 C   0  0  0  0  0  2  0  0  0  0  0  0
  161.4780  201.7760  149.1850 C   0  0  2  0  0  3  0  0  0  0  0  0
  160.4870  203.3750  145.8360 C   0  0  1  0  0  3  0  0  0  0  0  0
  161.5710  202.7220  146.6930 C   0  0  1  0  0  3  0  0  0  0  0  0
  161.2950  202.9430  148.1910 C   0  0  2  0  0  0  0  0  0  0  0  0
  160.4060  206.2330  145.0320 O   0  0  0  0  0  1  0  0  0  0  0  0
  161.0380  204.0070  144.6350 N   0  0  0  0  0  2  0  0  0  0  0  0
  160.9840  205.3970  144.2870 C   0  0  0  0  0  0  0  0  0  0  0  0
  161.5830  205.8290  143.1130 O   0  0  0  0  0  0  0  0  0  0  0  0
  161.9450  208.7870  151.3700 C   0  0  0  0  0  3  0  0  0  0  0  0
  161.2490  208.1420  150.5090 N   0  0  0  0  0  0  0  0  0  0  0  0
  161.5730  210.1830  151.7380 C   0  0  0  0  0  2  0  0  0  0  0  0
  160.7760  210.2000  153.0330 C   0  0  2  0  0  3  0  0  0  0  0  0
  159.6510  212.3090  152.3060 C   0  0  0  0  0  1  0  0  0  0  0  0
  159.4400  210.9010  152.8280 C   0  0  0  0  0  2  0  0  0  0  0  0
  161.5790  210.9410  154.0890 C   0  0  0  0  0  2  0  0  0  0  0  0
  161.8680  210.0440  155.2840 C   0  0  1  0  0  3  0  0  0  0  0  0
  161.3660  211.7480  157.0470 O   0  0  0  0  0  1  0  0  0  0  0  0
  163.4610  210.8360  156.8690 O   0  0  0  0  0  0  0  0  0  0  0  0
  162.2770  210.8840  156.4480 C   0  0  0  0  0  0  0  0  0  0  0  0
  160.7390  209.2910  155.6150 O   0  0  0  0  0  0  0  0  0  0  0  0
  161.2430  208.1170  156.1780 C   0  0  0  0  0  2  0  0  0  0  0  0
  160.4730  206.9190  155.6540 C   0  0  1  0  0  3  0  0  0  0  0  0
  159.1650  206.9530  156.1380 O   0  0  0  0  0  1  0  0  0  0  0  0
  160.4530  206.9560  154.2600 O   0  0  0  0  0  0  0  0  0  0  0  0
  161.5610  206.2040  153.8680 C   0  0  0  0  0  1  0  0  0  0  0  0
  1  2  1  0  0  0  0
  1 22  1  6  0  0  0
  3  4  2  0  0  0  0
  4  1  1  0  0  0  0
  5  2  1  0  0  0  0
  6  5  2  0  0  0  0
  7  4  1  0  0  0  0
  7  6  1  0  0  0  0
  8 12  1  6  0  0  0
  8 15  1  0  0  0  0
  8 11  1  0  0  0  0
  9 13  1  0  0  0  0
 10 13  1  0  0  0  0
 11  9  1  0  0  0  0
 11 10  1  0  0  0  0
 12 14  1  0  0  0  0
 14 15  1  0  0  0  0
 15 16  1  0  0  0  0
 16 10  1  0  0  0  0
 16  6  1  0  0  0  0
 16 13  1  0  0  0  0
 18 14  1  0  0  0  0
 19 18  1  0  0  0  0
 19 17  1  0  0  0  0
 20 19  2  0  0  0  0
 21 23  1  0  0  0  0
 22 21  2  0  0  0  0
 23 24  1  0  0  0  0
 24 27  1  0  0  0  0
 25 26  1  0  0  0  0
 26 24  1  0  0  0  0
 27 28  1  0  0  0  0
 28 32  1  0  0  0  0
 28 31  1  0  0  0  0
 31 30  2  0  0  0  0
 31 29  1  0  0  0  0
 32 33  1  0  0  0  0
 34 35  1  0  0  0  0
 34 33  1  0  0  0  0
 36 34  1  0  0  0  0
 37 36  1  0  0  0  0
M  END
>  <MODEL>
5

>  <REMARK>
 VINA RESULT:      -6.7      2.475     10.369
  Name = 
  13 active torsions:
  status: ('A' for Active; 'I' for Inactive)
    1  A    between atoms: O_2  and  C_16
    2  A    between atoms: O_2  and  C_27
    3  A    between atoms: C_3  and  N_37
    4  A    between atoms: O_4  and  C_12
    5  A    between atoms: C_9  and  C_18
    6  A    between atoms: C_9  and  C_26
    7  A    between atoms: C_12  and  C_16
    8  A    between atoms: C_14  and  C_18
    9  A    between atoms: C_14  and  C_27
   10  A    between atoms: N_17  and  C_28
   11  A    between atoms: C_18  and  C_35
   12  A    between atoms: C_25  and  C_36
   13  A    between atoms: C_27  and  C_33
                            x       y       z     vdW  Elec       q    Type
                         _______ _______ _______ _____ _____    ______ ____

>  <TORSDO>
F 13

$$$$
=
 OpenBabel11072413023D

 37 41  0  0  1  0  0  0  0  0999 V2000
  161.0900  208.2220  154.8970 C   0  0  1  0  0  3  0  0  0  0  0  0
  160.5710  209.2670  153.9050 C   0  0  0  0  0  2  0  0  0  0  0  0
  160.1760  207.1850  156.8930 N   0  0  0  0  0  2  0  0  0  0  0  0
  160.2010  208.2100  156.1080 C   0  0  0  0  0  0  0  0  0  0  0  0
  160.2980  210.5480  154.5580 N   0  0  0  0  0  0  0  0  0  0  0  0
  159.8150  210.6290  155.7650 C   0  0  0  0  0  0  0  0  0  0  0  0
  159.6420  209.4470  156.5510 N   0  0  0  0  0  2  0  0  0  0  0  0
  157.8540  213.7220  156.8440 C   0  0  1  0  0  3  0  0  0  0  0  0
  160.1360  214.1020  157.2600 O   0  0  0  0  0  0  0  0  0  0  0  0
  159.7480  213.1230  155.4550 C   0  0  1  0  0  3  0  0  0  0  0  0
  159.1660  214.2580  156.2510 C   0  0  1  0  0  3  0  0  0  0  0  0
  156.7650  213.4950  155.8030 C   0  0  0  0  0  2  0  0  0  0  0  0
  160.6240  212.9280  156.6520 C   0  0  2  0  0  3  0  0  0  0  0  0
  156.9690  211.9920  155.9310 C   0  0  1  0  0  3  0  0  0  0  0  0
  158.0730  212.2140  156.9640 C   0  0  1  0  0  3  0  0  0  0  0  0
  159.4610  211.9590  156.3500 C   0  0  2  0  0  0  0  0  0  0  0  0
  155.1890  209.9550  154.7040 O   0  0  0  0  0  0  0  0  0  0  0  0
  155.7980  211.3290  156.5080 N   0  0  0  0  0  2  0  0  0  0  0  0
  154.9670  210.3420  155.8830 C   0  0  0  0  0  0  0  0  0  0  0  0
  153.9030  209.7990  156.5890 O   0  0  0  0  0  1  0  0  0  0  0  0
  161.1700  206.8180  152.9940 C   0  0  0  0  0  3  0  0  0  0  0  0
  161.1130  206.9240  154.2700 N   0  0  0  0  0  0  0  0  0  0  0  0
  161.1860  205.4710  152.3550 C   0  0  0  0  0  2  0  0  0  0  0  0
  161.3990  205.5940  150.8540 C   0  0  2  0  0  3  0  0  0  0  0  0
  162.3040  207.5010  149.5170 C   0  0  0  0  0  1  0  0  0  0  0  0
  161.1650  207.0290  150.3990 C   0  0  0  0  0  2  0  0  0  0  0  0
  160.4200  204.6730  150.1470 C   0  0  0  0  0  2  0  0  0  0  0  0
  161.1510  203.5470  149.4290 C   0  0  1  0  0  3  0  0  0  0  0  0
  160.0300  201.3100  149.4540 O   0  0  0  0  0  0  0  0  0  0  0  0
  161.2720  202.0130  151.2480 O   0  0  0  0  0  1  0  0  0  0  0  0
  160.8350  202.2470  150.0920 C   0  0  0  0  0  0  0  0  0  0  0  0
  160.7730  203.4980  148.0850 O   0  0  0  0  0  0  0  0  0  0  0  0
  161.4810  204.5370  147.4750 C   0  0  0  0  0  2  0  0  0  0  0  0
  161.6470  204.2510  145.9940 C   0  0  1  0  0  3  0  0  0  0  0  0
  161.4490  202.8910  145.7540 O   0  0  0  0  0  1  0  0  0  0  0  0
  160.7120  204.9910  145.2730 O   0  0  0  0  0  0  0  0  0  0  0  0
  160.7210  206.2530  145.8670 C   0  0  0  0  0  1  0  0  0  0  0  0
  1 22  1  6  0  0  0
  1  4  1  0  0  0  0
  2  5  1  0  0  0  0
  2  1  1  0  0  0  0
  4  7  1  0  0  0  0
  4  3  2  0  0  0  0
  5  6  2  0  0  0  0
  6 16  1  0  0  0  0
  6  7  1  0  0  0  0
  8 12  1  6  0  0  0
  8 15  1  0  0  0  0
 10 11  1  0  0  0  0
 10 16  1  0  0  0  0
 10 13  1  0  0  0  0
 11  8  1  0  0  0  0
 11  9  1  0  0  0  0
 12 14  1  0  0  0  0
 13  9  1  0  0  0  0
 14 18  1  0  0  0  0
 14 15  1  0  0  0  0
 16 13  1  0  0  0  0
 16 15  1  0  0  0  0
 17 19  2  0  0  0  0
 19 18  1  0  0  0  0
 19 20  1  0  0  0  0
 21 22  2  0  0  0  0
 23 21  1  0  0  0  0
 24 23  1  0  0  0  0
 25 26  1  0  0  0  0
 26 24  1  0  0  0  0
 27 24  1  0  0  0  0
 28 31  1  0  0  0  0
 28 27  1  0  0  0  0
 29 31  2  0  0  0  0
 31 30  1  0  0  0  0
 32 28  1  0  0  0  0
 33 32  1  0  0  0  0
 34 33  1  0  0  0  0
 35 34  1  0  0  0  0
 36 37  1  0  0  0  0
 36 34  1  0  0  0  0
M  END
>  <MODEL>
6

>  <REMARK>
 VINA RESULT:      -6.7      2.390      4.502
  Name = 
  13 active torsions:
  status: ('A' for Active; 'I' for Inactive)
    1  A    between atoms: O_2  and  C_16
    2  A    between atoms: O_2  and  C_27
    3  A    between atoms: C_3  and  N_37
    4  A    between atoms: O_4  and  C_12
    5  A    between atoms: C_9  and  C_18
    6  A    between atoms: C_9  and  C_26
    7  A    between atoms: C_12  and  C_16
    8  A    between atoms: C_14  and  C_18
    9  A    between atoms: C_14  and  C_27
   10  A    between atoms: N_17  and  C_28
   11  A    between atoms: C_18  and  C_35
   12  A    between atoms: C_25  and  C_36
   13  A    between atoms: C_27  and  C_33
                            x       y       z     vdW  Elec       q    Type
                         _______ _______ _______ _____ _____    ______ ____

>  <TORSDO>
F 13

$$$$
=
 OpenBabel11072413023D

 37 41  0  0  1  0  0  0  0  0999 V2000
  162.2250  208.7420  151.4930 C   0  0  1  0  0  3  0  0  0  0  0  0
  161.9370  210.0390  150.7310 C   0  0  0  0  0  2  0  0  0  0  0  0
  160.8350  207.0730  152.5780 N   0  0  0  0  0  2  0  0  0  0  0  0
  160.9760  208.3010  152.2020 C   0  0  0  0  0  0  0  0  0  0  0  0
  161.2510  211.0220  151.5720 N   0  0  0  0  0  0  0  0  0  0  0  0
  160.3640  210.6830  152.4620 C   0  0  0  0  0  0  0  0  0  0  0  0
  160.1100  209.3020  152.7360 N   0  0  0  0  0  2  0  0  0  0  0  0
  158.8200  212.6990  155.3130 C   0  0  1  0  0  3  0  0  0  0  0  0
  158.0590  213.5860  153.2750 O   0  0  0  0  0  0  0  0  0  0  0  0
  158.1450  211.4990  153.3190 C   0  0  1  0  0  3  0  0  0  0  0  0
  157.7270  212.6120  154.2370 C   0  0  1  0  0  3  0  0  0  0  0  0
  158.8280  211.5110  156.2670 C   0  0  0  0  0  2  0  0  0  0  0  0
  158.6240  212.6060  152.4340 C   0  0  2  0  0  3  0  0  0  0  0  0
  160.0920  210.9920  155.5960 C   0  0  1  0  0  3  0  0  0  0  0  0
  160.0810  212.1740  154.6260 C   0  0  1  0  0  3  0  0  0  0  0  0
  159.6200  211.7320  153.2260 C   0  0  2  0  0  0  0  0  0  0  0  0
  162.9290  210.3260  155.0220 O   0  0  0  0  0  0  0  0  0  0  0  0
  161.2450  211.0290  156.4980 N   0  0  0  0  0  2  0  0  0  0  0  0
  162.6040  210.7060  156.1790 C   0  0  0  0  0  0  0  0  0  0  0  0
  163.5810  210.8190  157.1580 O   0  0  0  0  0  1  0  0  0  0  0  0
  161.9560  207.4010  149.5620 C   0  0  0  0  0  3  0  0  0  0  0  0
  162.6740  207.7270  150.5730 N   0  0  0  0  0  0  0  0  0  0  0  0
  162.4260  206.3440  148.6210 C   0  0  0  0  0  2  0  0  0  0  0  0
  161.2670  205.4580  148.1920 C   0  0  2  0  0  3  0  0  0  0  0  0
  160.8990  206.1970  145.8350 C   0  0  0  0  0  1  0  0  0  0  0  0
  160.3430  206.2100  147.2450 C   0  0  0  0  0  2  0  0  0  0  0  0
  160.4910  205.0400  149.4300 C   0  0  0  0  0  2  0  0  0  0  0  0
  160.9730  203.6910  149.9470 C   0  0  1  0  0  3  0  0  0  0  0  0
  160.4900  203.3090  152.3720 O   0  0  0  0  0  1  0  0  0  0  0  0
  162.3950  204.4040  151.7200 O   0  0  0  0  0  0  0  0  0  0  0  0
  161.3350  203.8120  151.3890 C   0  0  0  0  0  0  0  0  0  0  0  0
  159.9780  202.7230  149.7870 O   0  0  0  0  0  0  0  0  0  0  0  0
  160.6700  201.5270  149.5820 C   0  0  0  0  0  2  0  0  0  0  0  0
  161.2820  201.5160  148.1940 C   0  0  1  0  0  3  0  0  0  0  0  0
  161.5800  200.2040  147.8230 O   0  0  0  0  0  1  0  0  0  0  0  0
  160.3770  202.0610  147.2840 O   0  0  0  0  0  0  0  0  0  0  0  0
  161.1520  202.4150  146.1790 C   0  0  0  0  0  1  0  0  0  0  0  0
  1 22  1  6  0  0  0
  1  4  1  0  0  0  0
  2  1  1  0  0  0  0
  2  5  1  0  0  0  0
  4  3  2  0  0  0  0
  4  7  1  0  0  0  0
  5  6  2  0  0  0  0
  6  7  1  0  0  0  0
  6 16  1  0  0  0  0
  8 12  1  1  0  0  0
  9 11  1  0  0  0  0
 10 11  1  0  0  0  0
 11  8  1  0  0  0  0
 13 16  1  0  0  0  0
 13  9  1  0  0  0  0
 13 10  1  0  0  0  0
 14 12  1  0  0  0  0
 14 18  1  0  0  0  0
 15  8  1  0  0  0  0
 15 14  1  0  0  0  0
 16 10  1  0  0  0  0
 16 15  1  0  0  0  0
 17 19  2  0  0  0  0
 19 18  1  0  0  0  0
 19 20  1  0  0  0  0
 21 22  2  0  0  0  0
 23 21  1  0  0  0  0
 24 23  1  0  0  0  0
 24 27  1  0  0  0  0
 25 26  1  0  0  0  0
 26 24  1  0  0  0  0
 27 28  1  0  0  0  0
 28 31  1  0  0  0  0
 31 30  2  0  0  0  0
 31 29  1  0  0  0  0
 32 28  1  0  0  0  0
 33 32  1  0  0  0  0
 34 33  1  0  0  0  0
 35 34  1  0  0  0  0
 36 34  1  0  0  0  0
 37 36  1  0  0  0  0
M  END
>  <MODEL>
7

>  <REMARK>
 VINA RESULT:      -6.6      1.365      2.610
  Name = 
  13 active torsions:
  status: ('A' for Active; 'I' for Inactive)
    1  A    between atoms: O_2  and  C_16
    2  A    between atoms: O_2  and  C_27
    3  A    between atoms: C_3  and  N_37
    4  A    between atoms: O_4  and  C_12
    5  A    between atoms: C_9  and  C_18
    6  A    between atoms: C_9  and  C_26
    7  A    between atoms: C_12  and  C_16
    8  A    between atoms: C_14  and  C_18
    9  A    between atoms: C_14  and  C_27
   10  A    between atoms: N_17  and  C_28
   11  A    between atoms: C_18  and  C_35
   12  A    between atoms: C_25  and  C_36
   13  A    between atoms: C_27  and  C_33
                            x       y       z     vdW  Elec       q    Type
                         _______ _______ _______ _____ _____    ______ ____

>  <TORSDO>
F 13

$$$$
=
 OpenBabel11072413023D

 37 41  0  0  1  0  0  0  0  0999 V2000
  161.6290  206.2830  150.4470 C   0  0  1  0  0  3  0  0  0  0  0  0
  160.9910  205.0500  151.0940 C   0  0  0  0  0  2  0  0  0  0  0  0
  161.3000  207.4490  148.3420 N   0  0  0  0  0  2  0  0  0  0  0  0
  161.2320  206.3380  148.9990 C   0  0  0  0  0  0  0  0  0  0  0  0
  161.1990  203.8450  150.2880 N   0  0  0  0  0  0  0  0  0  0  0  0
  161.1920  203.8660  148.9860 C   0  0  0  0  0  0  0  0  0  0  0  0
  161.0950  205.1090  148.2860 N   0  0  0  0  0  2  0  0  0  0  0  0
  161.0390  201.3000  146.1630 C   0  0  1  0  0  3  0  0  0  0  0  0
  161.6420  200.1920  148.1460 O   0  0  0  0  0  0  0  0  0  0  0  0
  160.1640  201.6480  148.3960 C   0  0  1  0  0  3  0  0  0  0  0  0
  160.5050  200.5710  147.4050 C   0  0  1  0  0  3  0  0  0  0  0  0
  159.9670  202.0740  145.4070 C   0  0  0  0  0  2  0  0  0  0  0  0
  161.4770  201.2880  149.0170 C   0  0  2  0  0  3  0  0  0  0  0  0
  160.5540  203.3780  145.9290 C   0  0  1  0  0  3  0  0  0  0  0  0
  161.6220  202.6060  146.7030 C   0  0  1  0  0  3  0  0  0  0  0  0
  161.3090  202.5930  148.2100 C   0  0  2  0  0  0  0  0  0  0  0  0
  159.9630  206.1970  145.2030 O   0  0  0  0  0  1  0  0  0  0  0  0
  161.1280  204.1890  144.8540 N   0  0  0  0  0  2  0  0  0  0  0  0
  160.8210  205.5540  144.5400 C   0  0  0  0  0  0  0  0  0  0  0  0
  161.4810  206.1790  143.4930 O   0  0  0  0  0  0  0  0  0  0  0  0
  161.2800  207.5500  152.4150 C   0  0  0  0  0  3  0  0  0  0  0  0
  161.1970  207.4730  151.1380 N   0  0  0  0  0  0  0  0  0  0  0  0
  160.8240  208.7830  153.1200 C   0  0  0  0  0  2  0  0  0  0  0  0
  160.9660  208.6190  154.6260 C   0  0  2  0  0  3  0  0  0  0  0  0
  159.7340  207.1330  156.2120 C   0  0  0  0  0  1  0  0  0  0  0  0
  160.6860  207.1780  155.0340 C   0  0  0  0  0  2  0  0  0  0  0  0
  159.9700  209.5410  155.3100 C   0  0  0  0  0  2  0  0  0  0  0  0
  160.6760  210.7320  155.9440 C   0  0  1  0  0  3  0  0  0  0  0  0
  162.2790  209.3320  157.2600 O   0  0  0  0  0  1  0  0  0  0  0  0
  163.0450  210.9500  155.8280 O   0  0  0  0  0  0  0  0  0  0  0  0
  162.0640  210.3410  156.3270 C   0  0  0  0  0  0  0  0  0  0  0  0
  160.7150  211.8070  155.0530 O   0  0  0  0  0  0  0  0  0  0  0  0
  159.4020  211.9390  154.5920 C   0  0  0  0  0  2  0  0  0  0  0  0
  158.6550  212.9490  155.4440 C   0  0  1  0  0  3  0  0  0  0  0  0
  159.3100  214.1800  155.3940 O   0  0  0  0  0  1  0  0  0  0  0  0
  157.3560  213.0940  154.9570 O   0  0  0  0  0  0  0  0  0  0  0  0
  156.8490  211.7960  154.9040 C   0  0  0  0  0  1  0  0  0  0  0  0
  1  2  1  0  0  0  0
  1 22  1  1  0  0  0
  3  4  2  0  0  0  0
  4  1  1  0  0  0  0
  5  2  1  0  0  0  0
  6  5  2  0  0  0  0
  7  6  1  0  0  0  0
  7  4  1  0  0  0  0
  8 12  1  6  0  0  0
  8 15  1  0  0  0  0
  8 11  1  0  0  0  0
  9 13  1  0  0  0  0
 10 13  1  0  0  0  0
 11  9  1  0  0  0  0
 11 10  1  0  0  0  0
 12 14  1  0  0  0  0
 14 15  1  0  0  0  0
 15 16  1  0  0  0  0
 16 10  1  0  0  0  0
 16  6  1  0  0  0  0
 16 13  1  0  0  0  0
 18 14  1  0  0  0  0
 19 18  1  0  0  0  0
 19 17  1  0  0  0  0
 20 19  2  0  0  0  0
 21 23  1  0  0  0  0
 22 21  2  0  0  0  0
 23 24  1  0  0  0  0
 24 26  1  0  0  0  0
 24 27  1  0  0  0  0
 26 25  1  0  0  0  0
 27 28  1  0  0  0  0
 28 31  1  0  0  0  0
 30 31  2  0  0  0  0
 31 29  1  0  0  0  0
 32 28  1  0  0  0  0
 33 32  1  0  0  0  0
 33 34  1  0  0  0  0
 35 34  1  0  0  0  0
 36 34  1  0  0  0  0
 37 36  1  0  0  0  0
M  END
>  <MODEL>
8

>  <REMARK>
 VINA RESULT:      -6.5      2.236     11.057
  Name = 
  13 active torsions:
  status: ('A' for Active; 'I' for Inactive)
    1  A    between atoms: O_2  and  C_16
    2  A    between atoms: O_2  and  C_27
    3  A    between atoms: C_3  and  N_37
    4  A    between atoms: O_4  and  C_12
    5  A    between atoms: C_9  and  C_18
    6  A    between atoms: C_9  and  C_26
    7  A    between atoms: C_12  and  C_16
    8  A    between atoms: C_14  and  C_18
    9  A    between atoms: C_14  and  C_27
   10  A    between atoms: N_17  and  C_28
   11  A    between atoms: C_18  and  C_35
   12  A    between atoms: C_25  and  C_36
   13  A    between atoms: C_27  and  C_33
                            x       y       z     vdW  Elec       q    Type
                         _______ _______ _______ _____ _____    ______ ____

>  <TORSDO>
F 13

$$$$
=
 OpenBabel11072413023D

 37 41  0  0  1  0  0  0  0  0999 V2000
  161.7430  208.8530  151.4020 C   0  0  1  0  0  3  0  0  0  0  0  0
  160.8340  208.0000  152.2920 C   0  0  0  0  0  2  0  0  0  0  0  0
  162.0180  209.0910  149.0010 N   0  0  0  0  0  2  0  0  0  0  0  0
  161.6740  208.3370  149.9930 C   0  0  0  0  0  0  0  0  0  0  0  0
  161.0580  206.5680  152.0820 N   0  0  0  0  0  0  0  0  0  0  0  0
  161.3310  206.0670  150.9120 C   0  0  0  0  0  0  0  0  0  0  0  0
  161.5420  206.9300  149.7910 N   0  0  0  0  0  2  0  0  0  0  0  0
  161.3530  202.5810  149.3540 C   0  0  1  0  0  3  0  0  0  0  0  0
  161.6110  202.3610  151.6790 O   0  0  0  0  0  0  0  0  0  0  0  0
  160.2260  203.8170  151.1080 C   0  0  1  0  0  3  0  0  0  0  0  0
  160.6100  202.4260  150.6900 C   0  0  1  0  0  3  0  0  0  0  0  0
  160.4470  203.0010  148.2030 C   0  0  0  0  0  2  0  0  0  0  0  0
  161.4170  203.7180  152.0080 C   0  0  2  0  0  3  0  0  0  0  0  0
  161.0570  204.3960  148.2440 C   0  0  1  0  0  3  0  0  0  0  0  0
  161.9570  203.9840  149.4090 C   0  0  1  0  0  3  0  0  0  0  0  0
  161.4520  204.5870  150.7320 C   0  0  2  0  0  0  0  0  0  0  0  0
  160.4690  206.3700  146.1040 O   0  0  0  0  0  1  0  0  0  0  0  0
  161.8240  204.6930  147.0320 N   0  0  0  0  0  2  0  0  0  0  0  0
  161.5090  205.6630  146.0250 C   0  0  0  0  0  0  0  0  0  0  0  0
  162.3650  205.8290  144.9460 O   0  0  0  0  0  0  0  0  0  0  0  0
  160.4870  210.6210  152.3480 C   0  0  0  0  0  3  0  0  0  0  0  0
  161.3260  210.2320  151.4600 N   0  0  0  0  0  0  0  0  0  0  0  0
  160.0570  212.0480  152.3940 C   0  0  0  0  0  2  0  0  0  0  0  0
  158.8530  212.2130  153.3090 C   0  0  2  0  0  3  0  0  0  0  0  0
  158.0810  213.4800  151.2990 C   0  0  0  0  0  1  0  0  0  0  0  0
  157.9460  213.3260  152.8010 C   0  0  0  0  0  2  0  0  0  0  0  0
  159.3470  212.5600  154.7040 C   0  0  0  0  0  2  0  0  0  0  0  0
  158.7700  211.6060  155.7400 C   0  0  1  0  0  3  0  0  0  0  0  0
  156.6530  212.8780  156.1410 O   0  0  0  0  0  1  0  0  0  0  0  0
  156.5890  210.7140  155.3900 O   0  0  0  0  0  0  0  0  0  0  0  0
  157.2800  211.7060  155.7330 C   0  0  0  0  0  0  0  0  0  0  0  0
  159.1580  210.2920  155.4640 O   0  0  0  0  0  0  0  0  0  0  0  0
  160.2440  210.0540  156.3090 C   0  0  0  0  0  2  0  0  0  0  0  0
  160.9930  208.8160  155.8520 C   0  0  1  0  0  3  0  0  0  0  0  0
  161.9430  208.4620  156.8110 O   0  0  0  0  0  1  0  0  0  0  0  0
  160.0920  207.7660  155.6820 O   0  0  0  0  0  0  0  0  0  0  0  0
  160.0890  207.0980  156.9070 C   0  0  0  0  0  1  0  0  0  0  0  0
  1 22  1  6  0  0  0
  1  2  1  0  0  0  0
  3  4  2  0  0  0  0
  4  1  1  0  0  0  0
  5  2  1  0  0  0  0
  6  5  2  0  0  0  0
  7  4  1  0  0  0  0
  7  6  1  0  0  0  0
  8 12  1  6  0  0  0
  8 15  1  0  0  0  0
  8 11  1  0  0  0  0
  9 13  1  0  0  0  0
 10 13  1  0  0  0  0
 11 10  1  0  0  0  0
 11  9  1  0  0  0  0
 12 14  1  0  0  0  0
 14 15  1  0  0  0  0
 15 16  1  0  0  0  0
 16  6  1  0  0  0  0
 16 10  1  0  0  0  0
 16 13  1  0  0  0  0
 18 14  1  0  0  0  0
 19 17  1  0  0  0  0
 19 18  1  0  0  0  0
 20 19  2  0  0  0  0
 21 23  1  0  0  0  0
 22 21  2  0  0  0  0
 23 24  1  0  0  0  0
 24 27  1  0  0  0  0
 25 26  1  0  0  0  0
 26 24  1  0  0  0  0
 27 28  1  0  0  0  0
 30 31  2  0  0  0  0
 31 28  1  0  0  0  0
 31 29  1  0  0  0  0
 32 28  1  0  0  0  0
 32 33  1  0  0  0  0
 34 33  1  0  0  0  0
 34 35  1  0  0  0  0
 36 34  1  0  0  0  0
 36 37  1  0  0  0  0
M  END
>  <MODEL>
9

>  <REMARK>
 VINA RESULT:      -6.3      2.115      9.754
  Name = 
  13 active torsions:
  status: ('A' for Active; 'I' for Inactive)
    1  A    between atoms: O_2  and  C_16
    2  A    between atoms: O_2  and  C_27
    3  A    between atoms: C_3  and  N_37
    4  A    between atoms: O_4  and  C_12
    5  A    between atoms: C_9  and  C_18
    6  A    between atoms: C_9  and  C_26
    7  A    between atoms: C_12  and  C_16
    8  A    between atoms: C_14  and  C_18
    9  A    between atoms: C_14  and  C_27
   10  A    between atoms: N_17  and  C_28
   11  A    between atoms: C_18  and  C_35
   12  A    between atoms: C_25  and  C_36
   13  A    between atoms: C_27  and  C_33
                            x       y       z     vdW  Elec       q    Type
                         _______ _______ _______ _____ _____    ______ ____

>  <TORSDO>
F 13

$$$$
