=
 OpenBabel11072411043D

 30 34  0  0  1  0  0  0  0  0999 V2000
  159.4060  211.4500  152.8690 C   0  0  0  0  0  1  0  0  0  0  0  0
  161.4390  207.3160  151.4060 C   0  0  0  0  0  0  0  0  0  0  0  0
  159.3250  210.1160  154.8930 N   0  0  0  0  0  2  0  0  0  0  0  0
  161.2990  207.2210  156.5600 C   0  0  0  0  0  1  0  0  0  0  0  0
  159.7150  209.0180  155.7330 C   0  0  0  0  0  0  0  0  0  0  0  0
  161.1510  206.6390  153.7130 C   0  0  0  0  0  3  0  0  0  0  0  0
  162.1410  210.3510  148.5440 O   0  0  0  0  0  1  0  0  0  0  0  0
  161.5230  210.4180  153.6660 C   0  0  0  0  0  2  0  0  0  0  0  0
  161.2580  207.9730  154.1340 C   0  0  0  0  0  0  0  0  0  0  0  0
  160.1750  211.0180  154.1020 C   0  0  0  0  0  0  0  0  0  0  0  0
  161.2520  206.3130  152.3610 C   0  0  0  0  0  3  0  0  0  0  0  0
  161.7720  209.6850  150.8490 C   0  0  0  0  0  3  0  0  0  0  0  0
  161.4380  208.9950  153.1840 C   0  0  0  0  0  0  0  0  0  0  0  0
  161.9180  207.5050  147.8850 N   0  0  0  0  0  0  0  0  0  0  0  0
  161.5470  207.0350  150.0360 C   0  0  0  0  0  0  0  0  0  0  0  0
  161.0590  208.3640  155.5750 C   0  0  2  0  0  3  0  0  0  0  0  0
  161.9030  209.3600  149.4890 C   0  0  0  0  0  0  0  0  0  0  0  0
  161.5450  208.6760  151.8170 C   0  0  2  0  0  3  0  0  0  0  0  0
  158.8810  208.5630  156.5600 O   0  0  0  0  0  0  0  0  0  0  0  0
  161.7550  206.1900  147.9890 N   0  0  0  0  0  0  0  0  0  0  0  0
  160.4660  212.2530  154.9290 C   0  0  0  0  0  1  0  0  0  0  0  0
  161.7910  208.0230  149.1190 C   0  0  0  0  0  0  0  0  0  0  0  0
  161.5160  205.8740  149.2820 C   0  0  0  0  0  0  0  0  0  0  0  0
  160.8350  201.8930  150.6840 C   0  0  0  0  0  3  0  0  0  0  0  0
  161.2640  204.5000  149.7420 C   0  0  0  0  0  0  0  0  0  0  0  0
  160.8490  202.1450  149.3100 C   0  0  0  0  0  3  0  0  0  0  0  0
  161.1200  203.6620  147.4610 O   0  0  0  0  0  1  0  0  0  0  0  0
  161.0510  202.9360  151.5870 C   0  0  0  0  0  3  0  0  0  0  0  0
  161.2710  204.2340  151.1180 C   0  0  0  0  0  3  0  0  0  0  0  0
  161.0720  203.4410  148.8340 C   0  0  0  0  0  0  0  0  0  0  0  0
  1 10  1  0  0  0  0
  2 18  1  0  0  0  0
  2 11  1  0  0  0  0
  3  5  1  0  0  0  0
  5 19  2  0  0  0  0
  6  9  1  0  0  0  0
  7 17  1  0  0  0  0
  8 10  1  0  0  0  0
  9 16  1  0  0  0  0
 10  3  1  0  0  0  0
 10 21  1  0  0  0  0
 11  6  2  0  0  0  0
 13  8  1  0  0  0  0
 13  9  2  0  0  0  0
 14 20  1  0  0  0  0
 14 22  2  0  0  0  0
 15  2  2  0  0  0  0
 16  5  1  0  0  0  0
 16  4  1  1  0  0  0
 17 12  2  0  0  0  0
 18 12  1  1  0  0  0
 18 13  1  0  0  0  0
 20 23  2  0  0  0  0
 22 17  1  0  0  0  0
 22 15  1  0  0  0  0
 23 25  1  0  0  0  0
 23 15  1  0  0  0  0
 24 28  1  0  0  0  0
 25 29  1  0  0  0  0
 26 24  2  0  0  0  0
 27 30  1  0  0  0  0
 29 28  2  0  0  0  0
 30 26  1  0  0  0  0
 30 25  2  0  0  0  0
M  END
>  <MODEL>
1

>  <REMARK>
 VINA RESULT:     -10.5      0.000      0.000
  Name = 
  1 active torsions:
  status: ('A' for Active; 'I' for Inactive)
    1  A    between atoms: C_7  and  C_30
                            x       y       z     vdW  Elec       q    Type
                         _______ _______ _______ _____ _____    ______ ____

>  <TORSDO>
F 1

$$$$
=
 OpenBabel11072411043D

 30 34  0  0  1  0  0  0  0  0999 V2000
  158.8530  212.3430  152.4070 C   0  0  0  0  0  1  0  0  0  0  0  0
  161.2310  208.2110  151.6120 C   0  0  0  0  0  0  0  0  0  0  0  0
  158.4590  211.1410  154.4750 N   0  0  0  0  0  2  0  0  0  0  0  0
  160.1960  208.4440  156.6580 C   0  0  0  0  0  1  0  0  0  0  0  0
  158.7290  210.1160  155.4460 C   0  0  0  0  0  0  0  0  0  0  0  0
  160.5650  207.6740  153.8760 C   0  0  0  0  0  3  0  0  0  0  0  0
  162.3320  211.0820  148.7060 O   0  0  0  0  0  1  0  0  0  0  0  0
  160.8270  211.4530  153.6280 C   0  0  0  0  0  2  0  0  0  0  0  0
  160.5570  209.0350  154.2140 C   0  0  0  0  0  0  0  0  0  0  0  0
  159.4070  212.0240  153.7810 C   0  0  0  0  0  0  0  0  0  0  0  0
  160.9100  207.2650  152.5880 C   0  0  0  0  0  3  0  0  0  0  0  0
  161.5870  210.5510  150.9540 C   0  0  0  0  0  3  0  0  0  0  0  0
  160.8700  210.0000  153.2400 C   0  0  0  0  0  0  0  0  0  0  0  0
  162.3120  208.1920  148.2220 N   0  0  0  0  0  0  0  0  0  0  0  0
  161.5850  207.8480  150.3040 C   0  0  0  0  0  0  0  0  0  0  0  0
  160.0990  209.5090  155.5690 C   0  0  2  0  0  3  0  0  0  0  0  0
  161.9620  210.1450  149.6640 C   0  0  0  0  0  0  0  0  0  0  0  0
  161.2230  209.5980  151.9370 C   0  0  2  0  0  3  0  0  0  0  0  0
  157.7770  209.6810  156.1470 O   0  0  0  0  0  0  0  0  0  0  0  0
  162.1720  206.8820  148.3880 N   0  0  0  0  0  0  0  0  0  0  0  0
  159.5120  213.3210  154.5560 C   0  0  0  0  0  1  0  0  0  0  0  0
  161.9560  208.7840  149.3760 C   0  0  0  0  0  0  0  0  0  0  0  0
  161.7210  206.6390  149.6400 C   0  0  0  0  0  0  0  0  0  0  0  0
  160.9470  202.7210  151.1640 C   0  0  0  0  0  3  0  0  0  0  0  0
  161.4330  205.2890  150.1460 C   0  0  0  0  0  0  0  0  0  0  0  0
  160.7490  202.9820  149.8060 C   0  0  0  0  0  3  0  0  0  0  0  0
  160.8310  204.4850  147.9290 O   0  0  0  0  0  1  0  0  0  0  0  0
  161.4030  203.7340  152.0110 C   0  0  0  0  0  3  0  0  0  0  0  0
  161.6500  205.0120  151.5020 C   0  0  0  0  0  3  0  0  0  0  0  0
  160.9980  204.2580  149.2910 C   0  0  0  0  0  0  0  0  0  0  0  0
  1 10  1  0  0  0  0
  2 18  1  0  0  0  0
  2 11  1  0  0  0  0
  3  5  1  0  0  0  0
  5 16  1  0  0  0  0
  5 19  2  0  0  0  0
  6  9  1  0  0  0  0
  7 17  1  0  0  0  0
  8 10  1  0  0  0  0
  9 16  1  0  0  0  0
 10  3  1  0  0  0  0
 10 21  1  0  0  0  0
 11  6  2  0  0  0  0
 13  8  1  0  0  0  0
 13  9  2  0  0  0  0
 14 20  1  0  0  0  0
 14 22  2  0  0  0  0
 15  2  2  0  0  0  0
 16  4  1  1  0  0  0
 17 12  2  0  0  0  0
 18 12  1  1  0  0  0
 18 13  1  0  0  0  0
 20 23  2  0  0  0  0
 22 17  1  0  0  0  0
 22 15  1  0  0  0  0
 23 25  1  0  0  0  0
 23 15  1  0  0  0  0
 24 28  1  0  0  0  0
 25 29  1  0  0  0  0
 26 24  2  0  0  0  0
 27 30  1  0  0  0  0
 29 28  2  0  0  0  0
 30 26  1  0  0  0  0
 30 25  2  0  0  0  0
M  END
>  <MODEL>
2

>  <REMARK>
 VINA RESULT:     -10.2      1.010      1.127
  Name = 
  1 active torsions:
  status: ('A' for Active; 'I' for Inactive)
    1  A    between atoms: C_7  and  C_30
                            x       y       z     vdW  Elec       q    Type
                         _______ _______ _______ _____ _____    ______ ____

>  <TORSDO>
F 1

$$$$
=
 OpenBabel11072411043D

 30 34  0  0  1  0  0  0  0  0999 V2000
  160.2740  204.1140  152.7610 C   0  0  0  0  0  1  0  0  0  0  0  0
  160.5270  208.8980  153.4000 C   0  0  0  0  0  0  0  0  0  0  0  0
  160.6210  204.8970  150.4920 N   0  0  0  0  0  2  0  0  0  0  0  0
  162.2880  207.8840  148.6610 C   0  0  0  0  0  1  0  0  0  0  0  0
  161.0090  205.8670  149.5050 C   0  0  0  0  0  0  0  0  0  0  0  0
  160.9570  208.9500  151.0180 C   0  0  0  0  0  3  0  0  0  0  0  0
  160.8470  206.9330  157.1330 O   0  0  0  0  0  1  0  0  0  0  0  0
  162.2080  205.6150  152.3330 C   0  0  0  0  0  2  0  0  0  0  0  0
  161.5390  207.6760  151.0790 C   0  0  0  0  0  0  0  0  0  0  0  0
  161.3120  204.5190  151.7330 C   0  0  0  0  0  0  0  0  0  0  0  0
  160.4650  209.5610  152.1720 C   0  0  0  0  0  3  0  0  0  0  0  0
  161.2060  206.9490  154.7320 C   0  0  0  0  0  3  0  0  0  0  0  0
  161.6010  206.9920  152.3070 C   0  0  0  0  0  0  0  0  0  0  0  0
  159.6980  209.6060  156.7870 N   0  0  0  0  0  0  0  0  0  0  0  0
  160.0460  209.4720  154.5860 C   0  0  0  0  0  0  0  0  0  0  0  0
  161.9920  206.9550  149.8360 C   0  0  2  0  0  3  0  0  0  0  0  0
  160.7390  207.5690  155.9020 C   0  0  0  0  0  0  0  0  0  0  0  0
  161.1110  207.6010  153.4780 C   0  0  0  0  0  0  0  0  0  0  0  0
  160.4560  205.8330  148.3740 O   0  0  0  0  0  0  0  0  0  0  0  0
  159.2650  210.7360  156.2410 N   0  0  0  0  0  2  0  0  0  0  0  0
  162.1850  203.3140  151.4490 C   0  0  0  0  0  1  0  0  0  0  0  0
  160.1700  208.8340  155.7920 C   0  0  0  0  0  0  0  0  0  0  0  0
  159.4520  210.6820  154.9020 C   0  0  0  0  0  0  0  0  0  0  0  0
  158.3730  213.8680  152.2630 C   0  0  0  0  0  3  0  0  0  0  0  0
  159.0560  211.7640  153.9880 C   0  0  0  0  0  0  0  0  0  0  0  0
  157.3820  213.2300  153.0130 C   0  0  0  0  0  3  0  0  0  0  0  0
  156.7190  211.5930  154.6470 O   0  0  0  0  0  1  0  0  0  0  0  0
  159.7060  213.4690  152.3860 C   0  0  0  0  0  3  0  0  0  0  0  0
  160.0470  212.4240  153.2500 C   0  0  0  0  0  3  0  0  0  0  0  0
  157.7170  212.1870  153.8820 C   0  0  0  0  0  0  0  0  0  0  0  0
  2 18  1  0  0  0  0
  2 15  1  0  0  0  0
  3 10  1  0  0  0  0
  5 16  1  0  0  0  0
  5  3  1  0  0  0  0
  6  9  2  0  0  0  0
  6 11  1  0  0  0  0
  9 13  1  0  0  0  0
 10  8  1  0  0  0  0
 10  1  1  0  0  0  0
 11  2  2  0  0  0  0
 12 17  2  0  0  0  0
 13  8  1  0  0  0  0
 13 18  2  0  0  0  0
 15 23  2  0  0  0  0
 15 22  1  0  0  0  0
 16  4  1  6  0  0  0
 16  9  1  0  0  0  0
 17  7  1  0  0  0  0
 18 12  1  0  0  0  0
 19  5  2  0  0  0  0
 20 14  1  0  0  0  0
 21 10  1  0  0  0  0
 22 17  1  0  0  0  0
 22 14  2  0  0  0  0
 23 20  1  0  0  0  0
 24 28  2  0  0  0  0
 24 26  1  0  0  0  0
 25 23  1  0  0  0  0
 26 30  2  0  0  0  0
 28 29  1  0  0  0  0
 29 25  2  0  0  0  0
 30 25  1  0  0  0  0
 30 27  1  0  0  0  0
M  END
>  <MODEL>
3

>  <REMARK>
 VINA RESULT:      -9.8      1.879      7.818
  Name = 
  1 active torsions:
  status: ('A' for Active; 'I' for Inactive)
    1  A    between atoms: C_7  and  C_30
                            x       y       z     vdW  Elec       q    Type
                         _______ _______ _______ _____ _____    ______ ____

>  <TORSDO>
F 1

$$$$
=
 OpenBabel11072411043D

 30 34  0  0  1  0  0  0  0  0999 V2000
  158.3960  212.2970  152.1200 C   0  0  0  0  0  1  0  0  0  0  0  0
  161.1230  208.3370  151.6220 C   0  0  0  0  0  0  0  0  0  0  0  0
  158.1620  211.2580  154.2990 N   0  0  0  0  0  2  0  0  0  0  0  0
  160.1890  208.9380  156.6580 C   0  0  0  0  0  1  0  0  0  0  0  0
  158.5470  210.3550  155.3480 C   0  0  0  0  0  0  0  0  0  0  0  0
  160.5620  207.9520  153.9450 C   0  0  0  0  0  3  0  0  0  0  0  0
  161.8880  211.0160  148.4390 O   0  0  0  0  0  1  0  0  0  0  0  0
  160.4710  211.7020  153.3530 C   0  0  0  0  0  2  0  0  0  0  0  0
  160.4380  209.3330  154.1610 C   0  0  0  0  0  0  0  0  0  0  0  0
  159.0090  212.1550  153.4990 C   0  0  0  0  0  0  0  0  0  0  0  0
  160.9130  207.4590  152.6880 C   0  0  0  0  0  3  0  0  0  0  0  0
  161.2470  210.6290  150.7470 C   0  0  0  0  0  3  0  0  0  0  0  0
  160.6380  210.2290  153.0940 C   0  0  0  0  0  0  0  0  0  0  0  0
  162.1210  208.1040  148.2140 N   0  0  0  0  0  0  0  0  0  0  0  0
  161.4780  207.8890  150.3410 C   0  0  0  0  0  0  0  0  0  0  0  0
  159.9690  209.8870  155.4810 C   0  0  2  0  0  3  0  0  0  0  0  0
  161.6280  210.1430  149.4870 C   0  0  0  0  0  0  0  0  0  0  0  0
  160.9960  209.7420  151.8220 C   0  0  2  0  0  3  0  0  0  0  0  0
  157.6560  209.9030  156.1150 O   0  0  0  0  0  0  0  0  0  0  0  0
  162.1060  206.8070  148.5010 N   0  0  0  0  0  0  0  0  0  0  0  0
  159.0130  213.5220  154.1520 C   0  0  0  0  0  1  0  0  0  0  0  0
  161.7400  208.7650  149.3220 C   0  0  0  0  0  0  0  0  0  0  0  0
  161.7080  206.6420  149.7840 C   0  0  0  0  0  0  0  0  0  0  0  0
  161.1850  202.8110  151.6080 C   0  0  0  0  0  3  0  0  0  0  0  0
  161.5570  205.3230  150.4170 C   0  0  0  0  0  0  0  0  0  0  0  0
  162.1430  203.6910  152.1190 C   0  0  0  0  0  3  0  0  0  0  0  0
  163.2580  205.8230  152.0850 O   0  0  0  0  0  1  0  0  0  0  0  0
  160.4020  203.1890  150.5150 C   0  0  0  0  0  3  0  0  0  0  0  0
  160.5840  204.4430  149.9250 C   0  0  0  0  0  3  0  0  0  0  0  0
  162.3260  204.9480  151.5350 C   0  0  0  0  0  0  0  0  0  0  0  0
  1 10  1  0  0  0  0
  2 18  1  0  0  0  0
  2 11  1  0  0  0  0
  3  5  1  0  0  0  0
  5 16  1  0  0  0  0
  5 19  2  0  0  0  0
  6  9  1  0  0  0  0
  7 17  1  0  0  0  0
  8 10  1  0  0  0  0
  9 16  1  0  0  0  0
 10 21  1  0  0  0  0
 10  3  1  0  0  0  0
 11  6  2  0  0  0  0
 13  8  1  0  0  0  0
 13  9  2  0  0  0  0
 14 20  1  0  0  0  0
 14 22  2  0  0  0  0
 15  2  2  0  0  0  0
 16  4  1  1  0  0  0
 17 12  2  0  0  0  0
 18 12  1  1  0  0  0
 18 13  1  0  0  0  0
 20 23  2  0  0  0  0
 22 17  1  0  0  0  0
 22 15  1  0  0  0  0
 23 15  1  0  0  0  0
 23 25  1  0  0  0  0
 24 26  1  0  0  0  0
 25 30  1  0  0  0  0
 28 24  2  0  0  0  0
 29 25  2  0  0  0  0
 29 28  1  0  0  0  0
 30 27  1  0  0  0  0
 30 26  2  0  0  0  0
M  END
>  <MODEL>
4

>  <REMARK>
 VINA RESULT:      -8.8      1.553      1.891
  Name = 
  1 active torsions:
  status: ('A' for Active; 'I' for Inactive)
    1  A    between atoms: C_7  and  C_30
                            x       y       z     vdW  Elec       q    Type
                         _______ _______ _______ _____ _____    ______ ____

>  <TORSDO>
F 1

$$$$
=
 OpenBabel11072411043D

 30 34  0  0  1  0  0  0  0  0999 V2000
  163.4270  205.0900  146.6960 C   0  0  0  0  0  1  0  0  0  0  0  0
  161.1110  206.8700  150.5470 C   0  0  0  0  0  0  0  0  0  0  0  0
  162.4330  203.0910  147.6420 N   0  0  0  0  0  2  0  0  0  0  0  0
  159.3360  202.0930  149.7560 C   0  0  0  0  0  1  0  0  0  0  0  0
  161.5040  202.3800  148.4770 C   0  0  0  0  0  0  0  0  0  0  0  0
  160.3610  204.5870  150.8490 C   0  0  0  0  0  3  0  0  0  0  0  0
  162.2750  210.0300  147.9870 O   0  0  0  0  0  1  0  0  0  0  0  0
  160.9810  205.1070  147.1390 C   0  0  0  0  0  2  0  0  0  0  0  0
  160.4420  204.3610  149.4670 C   0  0  0  0  0  0  0  0  0  0  0  0
  162.1800  204.2290  146.7460 C   0  0  0  0  0  0  0  0  0  0  0  0
  160.6820  205.8350  151.3830 C   0  0  0  0  0  3  0  0  0  0  0  0
  161.6010  207.7180  148.2950 C   0  0  0  0  0  3  0  0  0  0  0  0
  160.8800  205.3900  148.6130 C   0  0  0  0  0  0  0  0  0  0  0  0
  162.0100  210.2950  150.8930 N   0  0  0  0  0  0  0  0  0  0  0  0
  161.4440  208.1410  151.0380 C   0  0  0  0  0  0  0  0  0  0  0  0
  160.1930  202.9990  148.8740 C   0  0  2  0  0  3  0  0  0  0  0  0
  161.8990  208.9840  148.8220 C   0  0  0  0  0  0  0  0  0  0  0  0
  161.2030  206.6550  149.1420 C   0  0  0  0  0  0  0  0  0  0  0  0
  161.8390  201.2550  148.9330 O   0  0  0  0  0  0  0  0  0  0  0  0
  161.7930  210.0210  152.1740 N   0  0  0  0  0  2  0  0  0  0  0  0
  161.9240  203.6950  145.3510 C   0  0  0  0  0  1  0  0  0  0  0  0
  161.8030  209.1620  150.1990 C   0  0  0  0  0  0  0  0  0  0  0  0
  161.4580  208.7160  152.2980 C   0  0  0  0  0  0  0  0  0  0  0  0
  160.6300  206.7800  156.0190 C   0  0  0  0  0  3  0  0  0  0  0  0
  161.1770  208.0750  153.5920 C   0  0  0  0  0  0  0  0  0  0  0  0
  160.2070  208.0970  155.8190 C   0  0  0  0  0  3  0  0  0  0  0  0
  160.0030  210.0420  154.4180 O   0  0  0  0  0  1  0  0  0  0  0  0
  161.3090  206.1040  155.0030 C   0  0  0  0  0  3  0  0  0  0  0  0
  161.5770  206.7480  153.7910 C   0  0  0  0  0  3  0  0  0  0  0  0
  160.4680  208.7450  154.6080 C   0  0  0  0  0  0  0  0  0  0  0  0
  1 10  1  0  0  0  0
  2 15  1  0  0  0  0
  2 11  2  0  0  0  0
  3  5  1  0  0  0  0
  5 16  1  0  0  0  0
  5 19  2  0  0  0  0
  6 11  1  0  0  0  0
  7 17  1  0  0  0  0
  8 13  1  0  0  0  0
  9  6  2  0  0  0  0
 10  8  1  0  0  0  0
 10  3  1  0  0  0  0
 12 17  2  0  0  0  0
 12 18  1  0  0  0  0
 13 18  2  0  0  0  0
 13  9  1  0  0  0  0
 14 20  1  0  0  0  0
 15 23  2  0  0  0  0
 16  9  1  0  0  0  0
 16  4  1  1  0  0  0
 17 22  1  0  0  0  0
 18  2  1  0  0  0  0
 20 23  1  0  0  0  0
 21 10  1  0  0  0  0
 22 14  2  0  0  0  0
 22 15  1  0  0  0  0
 23 25  1  0  0  0  0
 25 29  2  0  0  0  0
 25 30  1  0  0  0  0
 26 24  1  0  0  0  0
 27 30  1  0  0  0  0
 28 24  2  0  0  0  0
 29 28  1  0  0  0  0
 30 26  2  0  0  0  0
M  END
>  <MODEL>
5

>  <REMARK>
 VINA RESULT:      -8.2      1.937      6.939
  Name = 
  1 active torsions:
  status: ('A' for Active; 'I' for Inactive)
    1  A    between atoms: C_7  and  C_30
                            x       y       z     vdW  Elec       q    Type
                         _______ _______ _______ _____ _____    ______ ____

>  <TORSDO>
F 1

$$$$
=
 OpenBabel11072411043D

 30 34  0  0  1  0  0  0  0  0999 V2000
  161.9850  209.6620  155.8370 C   0  0  0  0  0  1  0  0  0  0  0  0
  160.8800  210.7530  151.2600 C   0  0  0  0  0  0  0  0  0  0  0  0
  160.7910  211.7550  156.1030 N   0  0  0  0  0  2  0  0  0  0  0  0
  158.0170  213.7810  154.2970 C   0  0  0  0  0  1  0  0  0  0  0  0
  159.9110  212.8050  155.6690 C   0  0  0  0  0  0  0  0  0  0  0  0
  159.7370  212.6480  152.2410 C   0  0  0  0  0  3  0  0  0  0  0  0
  162.1720  206.7320  151.5040 O   0  0  0  0  0  1  0  0  0  0  0  0
  159.7290  209.8510  154.8100 C   0  0  0  0  0  2  0  0  0  0  0  0
  159.5020  211.9180  153.4160 C   0  0  0  0  0  0  0  0  0  0  0  0
  160.6180  210.3010  155.9820 C   0  0  0  0  0  0  0  0  0  0  0  0
  160.4110  212.0660  151.1680 C   0  0  0  0  0  3  0  0  0  0  0  0
  161.0970  208.6560  152.5210 C   0  0  0  0  0  3  0  0  0  0  0  0
  159.9750  210.5980  153.5270 C   0  0  0  0  0  0  0  0  0  0  0  0
  162.5310  208.4230  149.1380 N   0  0  0  0  0  0  0  0  0  0  0  0
  161.5620  210.1250  150.2070 C   0  0  0  0  0  0  0  0  0  0  0  0
  158.8610  212.5510  154.6240 C   0  0  2  0  0  3  0  0  0  0  0  0
  161.7510  208.0550  151.4340 C   0  0  0  0  0  0  0  0  0  0  0  0
  160.6530  209.9990  152.4480 C   0  0  2  0  0  3  0  0  0  0  0  0
  160.0810  213.9660  156.1280 O   0  0  0  0  0  0  0  0  0  0  0  0
  162.5120  209.4600  148.3090 N   0  0  0  0  0  0  0  0  0  0  0  0
  159.9920  209.7820  157.2600 C   0  0  0  0  0  1  0  0  0  0  0  0
  161.9610  208.8180  150.2900 C   0  0  0  0  0  0  0  0  0  0  0  0
  161.9380  210.5150  148.9320 C   0  0  0  0  0  0  0  0  0  0  0  0
  161.4180  214.3220  147.0580 C   0  0  0  0  0  3  0  0  0  0  0  0
  161.7810  211.8350  148.3030 C   0  0  0  0  0  0  0  0  0  0  0  0
  162.7050  213.8840  147.3790 C   0  0  0  0  0  3  0  0  0  0  0  0
  164.1860  212.2080  148.2660 O   0  0  0  0  0  1  0  0  0  0  0  0
  160.3140  213.5140  147.3420 C   0  0  0  0  0  3  0  0  0  0  0  0
  160.4960  212.2720  147.9570 C   0  0  0  0  0  3  0  0  0  0  0  0
  162.8930  212.6410  147.9910 C   0  0  0  0  0  0  0  0  0  0  0  0
  1 10  1  0  0  0  0
  2 18  1  0  0  0  0
  5  3  1  0  0  0  0
  5 19  2  0  0  0  0
  6  9  1  0  0  0  0
  8 10  1  0  0  0  0
  9 13  2  0  0  0  0
  9 16  1  0  0  0  0
 10  3  1  0  0  0  0
 10 21  1  0  0  0  0
 11  2  1  0  0  0  0
 11  6  2  0  0  0  0
 13  8  1  0  0  0  0
 14 22  2  0  0  0  0
 15 22  1  0  0  0  0
 15  2  2  0  0  0  0
 16  4  1  6  0  0  0
 16  5  1  0  0  0  0
 17  7  1  0  0  0  0
 17 12  2  0  0  0  0
 18 12  1  6  0  0  0
 18 13  1  0  0  0  0
 20 23  2  0  0  0  0
 20 14  1  0  0  0  0
 22 17  1  0  0  0  0
 23 15  1  0  0  0  0
 24 28  2  0  0  0  0
 24 26  1  0  0  0  0
 25 23  1  0  0  0  0
 26 30  2  0  0  0  0
 28 29  1  0  0  0  0
 29 25  2  0  0  0  0
 30 27  1  0  0  0  0
 30 25  1  0  0  0  0
M  END
>  <MODEL>
6

>  <REMARK>
 VINA RESULT:      -7.9      3.127      6.093
  Name = 
  1 active torsions:
  status: ('A' for Active; 'I' for Inactive)
    1  A    between atoms: C_7  and  C_30
                            x       y       z     vdW  Elec       q    Type
                         _______ _______ _______ _____ _____    ______ ____

>  <TORSDO>
F 1

$$$$
=
 OpenBabel11072411043D

 30 34  0  0  1  0  0  0  0  0999 V2000
  159.3540  201.6870  147.9430 C   0  0  0  0  0  1  0  0  0  0  0  0
  161.4680  205.5920  149.8520 C   0  0  0  0  0  0  0  0  0  0  0  0
  160.0700  202.8820  145.9580 N   0  0  0  0  0  2  0  0  0  0  0  0
  162.8570  205.3620  144.8910 C   0  0  0  0  0  1  0  0  0  0  0  0
  160.8490  203.8580  145.2470 C   0  0  0  0  0  0  0  0  0  0  0  0
  161.9730  206.1470  147.5500 C   0  0  0  0  0  3  0  0  0  0  0  0
  160.8380  202.6870  152.8610 O   0  0  0  0  0  1  0  0  0  0  0  0
  161.7420  202.3650  147.7910 C   0  0  0  0  0  2  0  0  0  0  0  0
  161.9960  204.7860  147.2100 C   0  0  0  0  0  0  0  0  0  0  0  0
  160.5060  201.9270  146.9870 C   0  0  0  0  0  0  0  0  0  0  0  0
  161.7220  206.5460  148.8630 C   0  0  0  0  0  3  0  0  0  0  0  0
  161.2640  203.2430  150.5370 C   0  0  0  0  0  3  0  0  0  0  0  0
  161.7340  203.8150  148.1940 C   0  0  0  0  0  0  0  0  0  0  0  0
  160.8630  205.5740  153.3580 N   0  0  0  0  0  0  0  0  0  0  0  0
  161.2120  205.9460  151.1850 C   0  0  0  0  0  0  0  0  0  0  0  0
  162.1710  204.3310  145.7850 C   0  0  2  0  0  3  0  0  0  0  0  0
  161.0390  203.6350  151.8660 C   0  0  0  0  0  0  0  0  0  0  0  0
  161.4840  204.2060  149.5230 C   0  0  0  0  0  0  0  0  0  0  0  0
  160.3720  204.3670  144.1990 O   0  0  0  0  0  0  0  0  0  0  0  0
  160.9370  206.8890  153.1810 N   0  0  0  0  0  2  0  0  0  0  0  0
  160.8360  200.6110  146.3130 C   0  0  0  0  0  1  0  0  0  0  0  0
  161.0260  204.9970  152.1550 C   0  0  0  0  0  0  0  0  0  0  0  0
  161.1370  207.1480  151.8680 C   0  0  0  0  0  0  0  0  0  0  0  0
  161.5110  211.0870  150.2490 C   0  0  0  0  0  3  0  0  0  0  0  0
  161.2400  208.5100  151.3220 C   0  0  0  0  0  0  0  0  0  0  0  0
  160.8730  210.9070  151.4800 C   0  0  0  0  0  3  0  0  0  0  0  0
  160.1400  209.4740  153.2680 O   0  0  0  0  0  1  0  0  0  0  0  0
  162.0280  209.9860  149.5630 C   0  0  0  0  0  3  0  0  0  0  0  0
  161.8980  208.7030  150.1010 C   0  0  0  0  0  3  0  0  0  0  0  0
  160.7440  209.6260  152.0240 C   0  0  0  0  0  0  0  0  0  0  0  0
  2 15  1  0  0  0  0
  3 10  1  0  0  0  0
  5 16  1  0  0  0  0
  5  3  1  0  0  0  0
  6 11  1  0  0  0  0
  8 13  1  0  0  0  0
  9  6  2  0  0  0  0
  9 13  1  0  0  0  0
 10  8  1  0  0  0  0
 10  1  1  0  0  0  0
 11  2  2  0  0  0  0
 12 17  2  0  0  0  0
 13 18  2  0  0  0  0
 15 23  2  0  0  0  0
 15 22  1  0  0  0  0
 16  4  1  6  0  0  0
 16  9  1  0  0  0  0
 17 22  1  0  0  0  0
 17  7  1  0  0  0  0
 18  2  1  0  0  0  0
 18 12  1  0  0  0  0
 19  5  2  0  0  0  0
 20 14  1  0  0  0  0
 21 10  1  0  0  0  0
 22 14  2  0  0  0  0
 23 20  1  0  0  0  0
 24 26  1  0  0  0  0
 25 23  1  0  0  0  0
 25 30  1  0  0  0  0
 26 30  2  0  0  0  0
 28 29  1  0  0  0  0
 28 24  2  0  0  0  0
 29 25  2  0  0  0  0
 30 27  1  0  0  0  0
M  END
>  <MODEL>
7

>  <REMARK>
 VINA RESULT:      -7.5      2.715      8.336
  Name = 
  1 active torsions:
  status: ('A' for Active; 'I' for Inactive)
    1  A    between atoms: C_7  and  C_30
                            x       y       z     vdW  Elec       q    Type
                         _______ _______ _______ _____ _____    ______ ____

>  <TORSDO>
F 1

$$$$
