=
 OpenBabel11072413013D

 37 41  0  0  1  0  0  0  0  0999 V2000
  161.1070  206.4800  154.0060 C   0  0  0  0  0  2  0  0  0  0  0  0
  160.7780  207.3300  155.1500 N   0  0  0  0  0  2  0  0  0  0  0  0
  160.8350  209.3400  153.8620 C   0  0  0  0  0  0  0  0  0  0  0  0
  160.9310  208.5310  152.6830 N   0  0  0  0  0  0  0  0  0  0  0  0
  161.1740  206.5020  151.4850 N   0  0  0  0  0  2  0  0  0  0  0  0
  160.7530  208.7570  155.0640 C   0  0  0  0  0  0  0  0  0  0  0  0
  161.0330  207.2330  152.7060 C   0  0  0  0  0  0  0  0  0  0  0  0
  162.7970  207.6320  148.2710 C   0  0  0  0  0  2  0  0  0  0  0  0
  160.5370  206.4660  147.9110 C   0  0  0  0  0  0  0  0  0  0  0  0
  161.8450  206.9050  147.2930 C   0  0  2  0  0  3  0  0  0  0  0  0
  161.2940  207.1490  150.1850 C   0  0  2  0  0  3  0  0  0  0  0  0
  160.3120  206.5380  149.2280 C   0  0  0  0  0  3  0  0  0  0  0  0
  159.5490  205.9370  147.0910 O   0  0  0  0  0  1  0  0  0  0  0  0
  162.7230  207.0260  149.6660 C   0  0  0  0  0  2  0  0  0  0  0  0
  162.4740  205.8030  146.5460 N   0  0  0  0  0  0  0  0  0  0  0  0
  161.9160  203.5290  146.0680 C   0  0  0  0  0  2  0  0  0  0  0  0
  161.4620  204.3560  144.8970 C   0  0  0  0  0  2  0  0  0  0  0  0
  162.0020  205.7460  145.1610 C   0  0  0  0  0  2  0  0  0  0  0  0
  162.1230  204.5340  147.1730 C   0  0  0  0  0  2  0  0  0  0  0  0
  161.8000  209.3850  157.0860 O   0  0  0  0  0  1  0  0  0  0  0  0
  160.6430  209.5510  156.3240 C   0  0  0  0  0  2  0  0  0  0  0  0
  160.8320  211.1250  153.6720 S   0  0  0  0  0  0  0  0  0  0  0  0
  159.2420  211.0790  152.8000 C   0  0  0  0  0  2  0  0  0  0  0  0
  158.4020  214.2690  153.7870 N   0  0  0  0  0  0  0  0  0  0  0  0
  158.8390  213.6920  154.8500 C   0  0  0  0  0  0  0  0  0  0  0  0
  158.7410  212.2790  154.8440 N   0  0  0  0  0  2  0  0  0  0  0  0
  159.4330  214.4510  155.9800 C   0  0  0  0  0  1  0  0  0  0  0  0
  157.8720  213.2590  152.8820 C   0  0  2  0  0  3  0  0  0  0  0  0
  158.2020  211.9030  153.5490 C   0  0  1  0  0  3  0  0  0  0  0  0
  157.9450  213.3230  149.0970 C   0  0  0  0  0  0  0  0  0  0  0  0
  157.4920  213.1780  150.4110 C   0  0  0  0  0  3  0  0  0  0  0  0
  160.0880  213.9890  149.8730 C   0  0  0  0  0  0  0  0  0  0  0  0
  159.2230  213.7220  148.8580 N   0  0  0  0  0  0  0  0  0  0  0  0
  159.6720  213.8590  151.1990 C   0  0  0  0  0  3  0  0  0  0  0  0
  158.3580  213.4550  151.4710 C   0  0  0  0  0  0  0  0  0  0  0  0
  157.1110  213.0650  148.0620 F   0  0  0  0  0  0  0  0  0  0  0  0
  161.3570  214.3770  149.5960 F   0  0  0  0  0  0  0  0  0  0  0  0
  1  2  1  0  0  0  0
  3  6  2  0  0  0  0
  4  7  2  0  0  0  0
  4  3  1  0  0  0  0
  5  7  1  0  0  0  0
  6  2  1  0  0  0  0
  6 21  1  0  0  0  0
  7  1  1  0  0  0  0
  8 14  1  0  0  0  0
  9 12  2  0  0  0  0
 10 15  1  1  0  0  0
 10  9  1  0  0  0  0
 10  8  1  0  0  0  0
 11  5  1  1  0  0  0
 12 11  1  0  0  0  0
 13  9  1  0  0  0  0
 14 11  1  0  0  0  0
 15 19  1  0  0  0  0
 16 19  1  0  0  0  0
 17 18  1  0  0  0  0
 17 16  1  0  0  0  0
 18 15  1  0  0  0  0
 21 20  1  0  0  0  0
 22  3  1  0  0  0  0
 23 22  1  0  0  0  0
 24 25  2  0  0  0  0
 25 27  1  0  0  0  0
 26 25  1  0  0  0  0
 28 35  1  6  0  0  0
 28 29  1  0  0  0  0
 28 24  1  0  0  0  0
 29 23  1  6  0  0  0
 29 26  1  0  0  0  0
 30 31  1  0  0  0  0
 31 35  2  0  0  0  0
 32 34  2  0  0  0  0
 33 30  2  0  0  0  0
 33 32  1  0  0  0  0
 34 35  1  0  0  0  0
 36 30  1  0  0  0  0
 37 32  1  0  0  0  0
M  END
>  <MODEL>
1

>  <REMARK>
 VINA RESULT:      -6.9      0.000      0.000
  Name = 
  7 active torsions:
  status: ('A' for Active; 'I' for Inactive)
    1  A    between atoms: C_8  and  S_16
    2  A    between atoms: N_9  and  C_14
    3  A    between atoms: S_16  and  C_20
    4  A    between atoms: C_18  and  N_26
    5  A    between atoms: C_20  and  C_33
    6  A    between atoms: C_24  and  C_29
    7  A    between atoms: C_28  and  CA_31
                            x       y       z     vdW  Elec       q    Type
                         _______ _______ _______ _____ _____    ______ ____

>  <TORSDO>
F 7

$$$$
=
 OpenBabel11072413013D

 37 41  0  0  1  0  0  0  0  0999 V2000
  162.3550  208.3830  149.9450 C   0  0  0  0  0  2  0  0  0  0  0  0
  161.9500  207.7960  151.2210 N   0  0  0  0  0  2  0  0  0  0  0  0
  161.3280  209.9010  152.1620 C   0  0  0  0  0  0  0  0  0  0  0  0
  161.4940  210.4820  150.8630 N   0  0  0  0  0  0  0  0  0  0  0  0
  162.1190  210.4900  148.5780 N   0  0  0  0  0  2  0  0  0  0  0  0
  161.5430  208.5910  152.3370 C   0  0  0  0  0  0  0  0  0  0  0  0
  161.9350  209.8230  149.8290 C   0  0  0  0  0  0  0  0  0  0  0  0
  162.8840  214.0430  147.5610 C   0  0  0  0  0  2  0  0  0  0  0  0
  160.5910  213.2250  146.7450 C   0  0  0  0  0  0  0  0  0  0  0  0
  161.7040  214.2350  146.5810 C   0  0  2  0  0  3  0  0  0  0  0  0
  161.9130  211.9220  148.4070 C   0  0  2  0  0  3  0  0  0  0  0  0
  160.7100  212.1560  147.5390 C   0  0  0  0  0  3  0  0  0  0  0  0
  159.4190  213.3930  146.0180 O   0  0  0  0  0  1  0  0  0  0  0  0
  163.1600  212.5660  147.8100 C   0  0  0  0  0  2  0  0  0  0  0  0
  162.1060  214.3570  145.1690 N   0  0  0  0  0  0  0  0  0  0  0  0
  162.5700  212.8320  143.3900 C   0  0  0  0  0  2  0  0  0  0  0  0
  161.1360  213.2600  143.2470 C   0  0  0  0  0  2  0  0  0  0  0  0
  160.9470  214.3580  144.2730 C   0  0  0  0  0  2  0  0  0  0  0  0
  162.9330  213.2130  144.8030 C   0  0  0  0  0  2  0  0  0  0  0  0
  160.7370  206.7030  153.5040 O   0  0  0  0  0  1  0  0  0  0  0  0
  161.3760  207.9310  153.6670 C   0  0  0  0  0  2  0  0  0  0  0  0
  160.8350  210.9690  153.5160 S   0  0  0  0  0  0  0  0  0  0  0  0
  159.1060  210.9480  152.9700 C   0  0  0  0  0  2  0  0  0  0  0  0
  158.5000  213.9830  154.4800 N   0  0  0  0  0  0  0  0  0  0  0  0
  159.0980  213.2750  155.3730 C   0  0  0  0  0  0  0  0  0  0  0  0
  158.9750  211.8750  155.2050 N   0  0  0  0  0  2  0  0  0  0  0  0
  159.8870  213.8860  156.4740 C   0  0  0  0  0  1  0  0  0  0  0  0
  157.8080  213.0940  153.5570 C   0  0  2  0  0  3  0  0  0  0  0  0
  158.2200  211.6650  153.9810 C   0  0  1  0  0  3  0  0  0  0  0  0
  159.5900  214.1630  150.3930 C   0  0  0  0  0  0  0  0  0  0  0  0
  159.3560  213.7770  151.7140 C   0  0  0  0  0  3  0  0  0  0  0  0
  157.2780  213.9640  149.8880 C   0  0  0  0  0  0  0  0  0  0  0  0
  158.5550  214.2470  149.5140 N   0  0  0  0  0  0  0  0  0  0  0  0
  157.0040  213.5720  151.1990 C   0  0  0  0  0  3  0  0  0  0  0  0
  158.0550  213.4710  152.1200 C   0  0  0  0  0  0  0  0  0  0  0  0
  160.8490  214.4530  149.9860 F   0  0  0  0  0  0  0  0  0  0  0  0
  156.2710  214.0670  148.9870 F   0  0  0  0  0  0  0  0  0  0  0  0
  1  2  1  0  0  0  0
  2  6  1  0  0  0  0
  3  6  2  0  0  0  0
  3 22  1  0  0  0  0
  4  3  1  0  0  0  0
  5  7  1  0  0  0  0
  6 21  1  0  0  0  0
  7  1  1  0  0  0  0
  7  4  2  0  0  0  0
  8 14  1  0  0  0  0
  9 12  2  0  0  0  0
 10 15  1  6  0  0  0
 10  9  1  0  0  0  0
 10  8  1  0  0  0  0
 11  5  1  6  0  0  0
 12 11  1  0  0  0  0
 13  9  1  0  0  0  0
 14 11  1  0  0  0  0
 16 19  1  0  0  0  0
 17 16  1  0  0  0  0
 17 18  1  0  0  0  0
 18 15  1  0  0  0  0
 19 15  1  0  0  0  0
 20 21  1  0  0  0  0
 23 22  1  0  0  0  0
 24 25  2  0  0  0  0
 25 27  1  0  0  0  0
 26 25  1  0  0  0  0
 28 35  1  6  0  0  0
 28 29  1  0  0  0  0
 28 24  1  0  0  0  0
 29 23  1  6  0  0  0
 29 26  1  0  0  0  0
 30 31  1  0  0  0  0
 31 35  2  0  0  0  0
 32 34  2  0  0  0  0
 33 32  1  0  0  0  0
 33 30  2  0  0  0  0
 34 35  1  0  0  0  0
 36 30  1  0  0  0  0
 37 32  1  0  0  0  0
M  END
>  <MODEL>
2

>  <REMARK>
 VINA RESULT:      -6.2      3.242      4.961
  Name = 
  7 active torsions:
  status: ('A' for Active; 'I' for Inactive)
    1  A    between atoms: C_8  and  S_16
    2  A    between atoms: N_9  and  C_14
    3  A    between atoms: S_16  and  C_20
    4  A    between atoms: C_18  and  N_26
    5  A    between atoms: C_20  and  C_33
    6  A    between atoms: C_24  and  C_29
    7  A    between atoms: C_28  and  CA_31
                            x       y       z     vdW  Elec       q    Type
                         _______ _______ _______ _____ _____    ______ ____

>  <TORSDO>
F 7

$$$$
=
 OpenBabel11072413013D

 37 41  0  0  1  0  0  0  0  0999 V2000
  160.7020  206.5110  154.2390 C   0  0  0  0  0  2  0  0  0  0  0  0
  160.4490  207.3900  155.3790 N   0  0  0  0  0  2  0  0  0  0  0  0
  160.9130  209.3780  154.1400 C   0  0  0  0  0  0  0  0  0  0  0  0
  160.9450  208.5780  152.9510 N   0  0  0  0  0  0  0  0  0  0  0  0
  160.9240  206.5510  151.7270 N   0  0  0  0  0  2  0  0  0  0  0  0
  160.6640  208.8020  155.3230 C   0  0  0  0  0  0  0  0  0  0  0  0
  160.8310  207.2800  152.9530 C   0  0  0  0  0  0  0  0  0  0  0  0
  162.9410  207.5190  148.6870 C   0  0  0  0  0  2  0  0  0  0  0  0
  160.6200  206.5820  148.1090 C   0  0  0  0  0  0  0  0  0  0  0  0
  162.0170  206.8890  147.6190 C   0  0  2  0  0  3  0  0  0  0  0  0
  161.2270  207.1840  150.4500 C   0  0  2  0  0  3  0  0  0  0  0  0
  160.2820  206.6740  149.4000 C   0  0  0  0  0  3  0  0  0  0  0  0
  159.6660  206.1530  147.1960 O   0  0  0  0  0  1  0  0  0  0  0  0
  162.6790  206.9210  150.0630 C   0  0  0  0  0  2  0  0  0  0  0  0
  162.6010  205.7310  146.9220 N   0  0  0  0  0  0  0  0  0  0  0  0
  161.8250  203.5720  146.2550 C   0  0  0  0  0  2  0  0  0  0  0  0
  161.6730  204.4860  145.0700 C   0  0  0  0  0  2  0  0  0  0  0  0
  162.3460  205.7790  145.4800 C   0  0  0  0  0  2  0  0  0  0  0  0
  161.9900  204.5070  147.4260 C   0  0  0  0  0  2  0  0  0  0  0  0
  159.3600  210.1970  156.7130 O   0  0  0  0  0  1  0  0  0  0  0  0
  160.6100  209.5890  156.5920 C   0  0  0  0  0  2  0  0  0  0  0  0
  161.2140  211.1400  153.9890 S   0  0  0  0  0  0  0  0  0  0  0  0
  159.5840  211.4050  153.2390 C   0  0  0  0  0  2  0  0  0  0  0  0
  157.4540  213.6990  151.8040 N   0  0  0  0  0  0  0  0  0  0  0  0
  158.1050  213.1830  150.8220 C   0  0  0  0  0  0  0  0  0  0  0  0
  159.3660  212.6370  151.1640 N   0  0  0  0  0  2  0  0  0  0  0  0
  157.5570  213.1350  149.4420 C   0  0  0  0  0  1  0  0  0  0  0  0
  158.2640  213.6060  153.0110 C   0  0  2  0  0  3  0  0  0  0  0  0
  159.5110  212.7870  152.6020 C   0  0  1  0  0  3  0  0  0  0  0  0
  156.3450  211.2610  155.2820 C   0  0  0  0  0  0  0  0  0  0  0  0
  157.1110  211.7410  154.2170 C   0  0  0  0  0  3  0  0  0  0  0  0
  156.2760  213.4260  156.2540 C   0  0  0  0  0  0  0  0  0  0  0  0
  155.9470  212.1070  156.2700 N   0  0  0  0  0  0  0  0  0  0  0  0
  157.0430  213.9440  155.2080 C   0  0  0  0  0  3  0  0  0  0  0  0
  157.4710  213.0910  154.1830 C   0  0  0  0  0  0  0  0  0  0  0  0
  155.9990  209.9530  155.3290 F   0  0  0  0  0  0  0  0  0  0  0  0
  155.8540  214.2400  157.2520 F   0  0  0  0  0  0  0  0  0  0  0  0
  1  2  1  0  0  0  0
  3  6  2  0  0  0  0
  4  7  2  0  0  0  0
  4  3  1  0  0  0  0
  5  7  1  0  0  0  0
  6  2  1  0  0  0  0
  6 21  1  0  0  0  0
  7  1  1  0  0  0  0
  8 14  1  0  0  0  0
  9 12  2  0  0  0  0
 10 15  1  1  0  0  0
 10  9  1  0  0  0  0
 10  8  1  0  0  0  0
 11  5  1  1  0  0  0
 12 11  1  0  0  0  0
 13  9  1  0  0  0  0
 14 11  1  0  0  0  0
 15 19  1  0  0  0  0
 16 19  1  0  0  0  0
 17 18  1  0  0  0  0
 17 16  1  0  0  0  0
 18 15  1  0  0  0  0
 21 20  1  0  0  0  0
 22  3  1  0  0  0  0
 23 22  1  0  0  0  0
 24 28  1  0  0  0  0
 25 26  1  0  0  0  0
 25 24  2  0  0  0  0
 26 29  1  0  0  0  0
 27 25  1  0  0  0  0
 28 35  1  1  0  0  0
 29 28  1  0  0  0  0
 29 23  1  1  0  0  0
 30 36  1  0  0  0  0
 30 33  1  0  0  0  0
 31 30  2  0  0  0  0
 32 33  2  0  0  0  0
 32 37  1  0  0  0  0
 34 32  1  0  0  0  0
 35 31  1  0  0  0  0
 35 34  2  0  0  0  0
M  END
>  <MODEL>
3

>  <REMARK>
 VINA RESULT:      -6.1      2.376      3.553
  Name = 
  7 active torsions:
  status: ('A' for Active; 'I' for Inactive)
    1  A    between atoms: C_8  and  S_16
    2  A    between atoms: N_9  and  C_14
    3  A    between atoms: S_16  and  C_20
    4  A    between atoms: C_18  and  N_26
    5  A    between atoms: C_20  and  C_33
    6  A    between atoms: C_24  and  C_29
    7  A    between atoms: C_28  and  CA_31
                            x       y       z     vdW  Elec       q    Type
                         _______ _______ _______ _____ _____    ______ ____

>  <TORSDO>
F 7

$$$$
=
 OpenBabel11072413013D

 37 41  0  0  1  0  0  0  0  0999 V2000
  163.5790  211.5800  148.2380 C   0  0  0  0  0  2  0  0  0  0  0  0
  163.2040  212.8890  147.7040 N   0  0  0  0  0  2  0  0  0  0  0  0
  160.8990  212.3040  147.4820 C   0  0  0  0  0  0  0  0  0  0  0  0
  161.1790  211.1010  148.2090 N   0  0  0  0  0  0  0  0  0  0  0  0
  162.5750  209.5070  149.2670 N   0  0  0  0  0  2  0  0  0  0  0  0
  161.8840  213.1800  147.2420 C   0  0  0  0  0  0  0  0  0  0  0  0
  162.3740  210.7490  148.5880 C   0  0  0  0  0  0  0  0  0  0  0  0
  160.3190  206.5530  148.6140 C   0  0  0  0  0  2  0  0  0  0  0  0
  161.3510  206.5410  150.9650 C   0  0  0  0  0  0  0  0  0  0  0  0
  160.6790  205.7360  149.8760 C   0  0  2  0  0  3  0  0  0  0  0  0
  161.5030  208.5470  149.4950 C   0  0  2  0  0  3  0  0  0  0  0  0
  161.7620  207.7990  150.7710 C   0  0  0  0  0  3  0  0  0  0  0  0
  161.5840  205.9430  152.1970 O   0  0  0  0  0  1  0  0  0  0  0  0
  161.3860  207.5960  148.3090 C   0  0  0  0  0  2  0  0  0  0  0  0
  161.4210  204.4940  149.6000 N   0  0  0  0  0  0  0  0  0  0  0  0
  160.8710  202.1730  149.4650 C   0  0  0  0  0  2  0  0  0  0  0  0
  160.8350  202.7220  148.0650 C   0  0  0  0  0  2  0  0  0  0  0  0
  161.3690  204.1340  148.1810 C   0  0  0  0  0  2  0  0  0  0  0  0
  160.8160  203.3960  150.3450 C   0  0  0  0  0  2  0  0  0  0  0  0
  161.9660  214.2740  145.1510 O   0  0  0  0  0  1  0  0  0  0  0  0
  161.6470  214.4530  146.4970 C   0  0  0  0  0  2  0  0  0  0  0  0
  159.2200  212.5870  146.9170 S   0  0  0  0  0  0  0  0  0  0  0  0
  158.5860  212.5400  148.6160 C   0  0  0  0  0  2  0  0  0  0  0  0
  156.5640  214.2300  150.8310 N   0  0  0  0  0  0  0  0  0  0  0  0
  155.9430  214.2760  149.7060 C   0  0  0  0  0  0  0  0  0  0  0  0
  156.7690  214.1410  148.5630 N   0  0  0  0  0  2  0  0  0  0  0  0
  154.4670  214.4240  149.6180 C   0  0  0  0  0  1  0  0  0  0  0  0
  157.9930  214.0970  150.5800 C   0  0  2  0  0  3  0  0  0  0  0  0
  158.1210  213.9240  149.0480 C   0  0  1  0  0  3  0  0  0  0  0  0
  158.4520  211.4990  153.2950 C   0  0  0  0  0  0  0  0  0  0  0  0
  157.8690  212.4660  152.4720 C   0  0  0  0  0  3  0  0  0  0  0  0
  160.4950  211.6580  152.0940 C   0  0  0  0  0  0  0  0  0  0  0  0
  159.7420  211.1190  153.0900 N   0  0  0  0  0  0  0  0  0  0  0  0
  159.9470  212.6250  151.2490 C   0  0  0  0  0  3  0  0  0  0  0  0
  158.6180  213.0280  151.4360 C   0  0  0  0  0  0  0  0  0  0  0  0
  157.7320  210.9410  154.2970 F   0  0  0  0  0  0  0  0  0  0  0  0
  161.7790  211.2600  151.9250 F   0  0  0  0  0  0  0  0  0  0  0  0
  1  7  1  0  0  0  0
  2  1  1  0  0  0  0
  3  4  1  0  0  0  0
  4  7  2  0  0  0  0
  6  3  2  0  0  0  0
  6  2  1  0  0  0  0
  7  5  1  0  0  0  0
  9 13  1  0  0  0  0
 10  8  1  6  0  0  0
 10  9  1  0  0  0  0
 11  5  1  6  0  0  0
 11 12  1  0  0  0  0
 12  9  2  0  0  0  0
 14  8  1  0  0  0  0
 14 11  1  0  0  0  0
 15 10  1  0  0  0  0
 15 19  1  0  0  0  0
 16 19  1  0  0  0  0
 17 18  1  0  0  0  0
 17 16  1  0  0  0  0
 18 15  1  0  0  0  0
 20 21  1  0  0  0  0
 21  6  1  0  0  0  0
 22  3  1  0  0  0  0
 22 23  1  0  0  0  0
 25 24  2  0  0  0  0
 26 29  1  0  0  0  0
 26 25  1  0  0  0  0
 27 25  1  0  0  0  0
 28 24  1  0  0  0  0
 28 35  1  1  0  0  0
 29 23  1  1  0  0  0
 29 28  1  0  0  0  0
 30 36  1  0  0  0  0
 31 30  2  0  0  0  0
 32 33  2  0  0  0  0
 33 30  1  0  0  0  0
 34 35  2  0  0  0  0
 34 32  1  0  0  0  0
 35 31  1  0  0  0  0
 37 32  1  0  0  0  0
M  END
>  <MODEL>
4

>  <REMARK>
 VINA RESULT:      -6.1      3.355      5.618
  Name = 
  7 active torsions:
  status: ('A' for Active; 'I' for Inactive)
    1  A    between atoms: C_8  and  S_16
    2  A    between atoms: N_9  and  C_14
    3  A    between atoms: S_16  and  C_20
    4  A    between atoms: C_18  and  N_26
    5  A    between atoms: C_20  and  C_33
    6  A    between atoms: C_24  and  C_29
    7  A    between atoms: C_28  and  CA_31
                            x       y       z     vdW  Elec       q    Type
                         _______ _______ _______ _____ _____    ______ ____

>  <TORSDO>
F 7

$$$$
=
 OpenBabel11072413013D

 37 41  0  0  1  0  0  0  0  0999 V2000
  159.6420  213.8840  149.2920 C   0  0  0  0  0  2  0  0  0  0  0  0
  158.6360  214.3920  150.2230 N   0  0  0  0  0  2  0  0  0  0  0  0
  158.9340  212.5900  151.7610 C   0  0  0  0  0  0  0  0  0  0  0  0
  160.0770  212.1840  150.9980 N   0  0  0  0  0  0  0  0  0  0  0  0
  161.5680  212.2610  149.1600 N   0  0  0  0  0  2  0  0  0  0  0  0
  158.2350  213.6700  151.3890 C   0  0  0  0  0  0  0  0  0  0  0  0
  160.4430  212.7580  149.8880 C   0  0  0  0  0  0  0  0  0  0  0  0
  162.7030  209.4160  151.3640 C   0  0  0  0  0  2  0  0  0  0  0  0
  161.9640  208.6550  149.0250 C   0  0  0  0  0  0  0  0  0  0  0  0
  162.2350  208.2540  150.4580 C   0  0  2  0  0  3  0  0  0  0  0  0
  162.3020  211.0660  149.5560 C   0  0  2  0  0  3  0  0  0  0  0  0
  161.9520  209.9340  148.6340 C   0  0  0  0  0  3  0  0  0  0  0  0
  161.6820  207.6660  148.0920 O   0  0  0  0  0  1  0  0  0  0  0  0
  161.9920  210.7150  151.0070 C   0  0  0  0  0  2  0  0  0  0  0  0
  161.1160  207.4710  151.0090 N   0  0  0  0  0  0  0  0  0  0  0  0
  160.8530  205.2740  151.9120 C   0  0  0  0  0  2  0  0  0  0  0  0
  161.0570  206.2110  153.0710 C   0  0  0  0  0  2  0  0  0  0  0  0
  161.0290  207.5990  152.4660 C   0  0  0  0  0  2  0  0  0  0  0  0
  161.3250  206.0580  150.7130 C   0  0  0  0  0  2  0  0  0  0  0  0
  155.9240  214.1510  151.3170 O   0  0  0  0  0  1  0  0  0  0  0  0
  157.0410  214.1420  152.1530 C   0  0  0  0  0  2  0  0  0  0  0  0
  158.4820  211.6180  153.2000 S   0  0  0  0  0  0  0  0  0  0  0  0
  159.8120  212.3620  154.1830 C   0  0  0  0  0  2  0  0  0  0  0  0
  157.8500  211.8110  156.9580 N   0  0  0  0  0  0  0  0  0  0  0  0
  157.1190  212.5070  156.1610 C   0  0  0  0  0  0  0  0  0  0  0  0
  157.8360  213.2960  155.2290 N   0  0  0  0  0  2  0  0  0  0  0  0
  155.6340  212.4580  156.1960 C   0  0  0  0  0  1  0  0  0  0  0  0
  159.2520  212.0920  156.6830 C   0  0  2  0  0  3  0  0  0  0  0  0
  159.2460  213.0120  155.4390 C   0  0  1  0  0  3  0  0  0  0  0  0
  160.1890  208.4640  156.1430 C   0  0  0  0  0  0  0  0  0  0  0  0
  159.4460  209.6450  156.1990 C   0  0  0  0  0  3  0  0  0  0  0  0
  162.1370  209.6130  156.8670 C   0  0  0  0  0  0  0  0  0  0  0  0
  161.5080  208.4730  156.4750 N   0  0  0  0  0  0  0  0  0  0  0  0
  161.4290  210.8150  156.9330 C   0  0  0  0  0  3  0  0  0  0  0  0
  160.0710  210.8320  156.5880 C   0  0  0  0  0  0  0  0  0  0  0  0
  159.5960  207.3090  155.7580 F   0  0  0  0  0  0  0  0  0  0  0  0
  163.4500  209.5820  157.1980 F   0  0  0  0  0  0  0  0  0  0  0  0
  1  7  1  0  0  0  0
  1  2  1  0  0  0  0
  2  6  1  0  0  0  0
  3 22  1  0  0  0  0
  4  3  1  0  0  0  0
  5  7  1  0  0  0  0
  6  3  2  0  0  0  0
  6 21  1  0  0  0  0
  7  4  2  0  0  0  0
  9 10  1  0  0  0  0
 10 15  1  1  0  0  0
 10  8  1  0  0  0  0
 11  5  1  6  0  0  0
 11 14  1  0  0  0  0
 12  9  2  0  0  0  0
 12 11  1  0  0  0  0
 13  9  1  0  0  0  0
 14  8  1  0  0  0  0
 15 18  1  0  0  0  0
 16 17  1  0  0  0  0
 18 17  1  0  0  0  0
 19 15  1  0  0  0  0
 19 16  1  0  0  0  0
 20 21  1  0  0  0  0
 22 23  1  0  0  0  0
 25 27  1  0  0  0  0
 25 24  2  0  0  0  0
 26 29  1  0  0  0  0
 26 25  1  0  0  0  0
 28 35  1  6  0  0  0
 28 24  1  0  0  0  0
 29 23  1  6  0  0  0
 29 28  1  0  0  0  0
 30 31  2  0  0  0  0
 30 33  1  0  0  0  0
 31 35  1  0  0  0  0
 32 34  1  0  0  0  0
 32 37  1  0  0  0  0
 33 32  2  0  0  0  0
 35 34  2  0  0  0  0
 36 30  1  0  0  0  0
M  END
>  <MODEL>
5

>  <REMARK>
 VINA RESULT:      -6.0      3.598      6.117
  Name = 
  7 active torsions:
  status: ('A' for Active; 'I' for Inactive)
    1  A    between atoms: C_8  and  S_16
    2  A    between atoms: N_9  and  C_14
    3  A    between atoms: S_16  and  C_20
    4  A    between atoms: C_18  and  N_26
    5  A    between atoms: C_20  and  C_33
    6  A    between atoms: C_24  and  C_29
    7  A    between atoms: C_28  and  CA_31
                            x       y       z     vdW  Elec       q    Type
                         _______ _______ _______ _____ _____    ______ ____

>  <TORSDO>
F 7

$$$$
=
 OpenBabel11072413013D

 37 41  0  0  1  0  0  0  0  0999 V2000
  159.7530  207.3600  156.1410 C   0  0  0  0  0  2  0  0  0  0  0  0
  159.3370  208.7200  156.4790 N   0  0  0  0  0  2  0  0  0  0  0  0
  160.5540  209.7000  154.6730 C   0  0  0  0  0  0  0  0  0  0  0  0
  160.7960  208.3790  154.1750 N   0  0  0  0  0  0  0  0  0  0  0  0
  160.7540  206.0120  154.2580 N   0  0  0  0  0  2  0  0  0  0  0  0
  159.8370  209.8690  155.7920 C   0  0  0  0  0  0  0  0  0  0  0  0
  160.4300  207.2960  154.7990 C   0  0  0  0  0  0  0  0  0  0  0  0
  162.3710  204.2350  151.3480 C   0  0  0  0  0  2  0  0  0  0  0  0
  161.1200  206.3710  150.6640 C   0  0  0  0  0  0  0  0  0  0  0  0
  161.7120  205.0540  150.2150 C   0  0  2  0  0  3  0  0  0  0  0  0
  161.5620  205.8400  153.0580 C   0  0  2  0  0  3  0  0  0  0  0  0
  161.0150  206.7000  151.9570 C   0  0  0  0  0  3  0  0  0  0  0  0
  160.6350  207.2520  149.7070 O   0  0  0  0  0  1  0  0  0  0  0  0
  161.5930  204.3700  152.6510 C   0  0  0  0  0  2  0  0  0  0  0  0
  160.7510  204.2930  149.3990 N   0  0  0  0  0  0  0  0  0  0  0  0
  160.9060  202.7170  147.6090 C   0  0  0  0  0  2  0  0  0  0  0  0
  160.7800  201.9310  148.8860 C   0  0  0  0  0  2  0  0  0  0  0  0
  160.4980  202.9620  149.9580 C   0  0  0  0  0  2  0  0  0  0  0  0
  161.3010  204.1000  148.0620 C   0  0  0  0  0  2  0  0  0  0  0  0
  160.6930  211.7350  156.9590 O   0  0  0  0  0  1  0  0  0  0  0  0
  159.5470  211.2240  156.3500 C   0  0  0  0  0  2  0  0  0  0  0  0
  161.2340  211.0910  153.7650 S   0  0  0  0  0  0  0  0  0  0  0  0
  159.6190  211.4640  153.0280 C   0  0  0  0  0  2  0  0  0  0  0  0
  157.6240  213.8810  151.6020 N   0  0  0  0  0  0  0  0  0  0  0  0
  158.2820  213.3660  150.6240 C   0  0  0  0  0  0  0  0  0  0  0  0
  159.5090  212.7590  150.9840 N   0  0  0  0  0  2  0  0  0  0  0  0
  157.7700  213.3780  149.2290 C   0  0  0  0  0  1  0  0  0  0  0  0
  158.3950  213.7220  152.8280 C   0  0  2  0  0  3  0  0  0  0  0  0
  159.6190  212.8640  152.4290 C   0  0  1  0  0  3  0  0  0  0  0  0
  156.0980  211.5020  154.8590 C   0  0  0  0  0  0  0  0  0  0  0  0
  156.9130  211.9720  153.8270 C   0  0  0  0  0  3  0  0  0  0  0  0
  156.5210  213.4610  156.1320 C   0  0  0  0  0  0  0  0  0  0  0  0
  155.9200  212.2510  155.9810 N   0  0  0  0  0  0  0  0  0  0  0  0
  157.3460  213.9640  155.1240 C   0  0  0  0  0  3  0  0  0  0  0  0
  157.5500  213.2080  153.9620 C   0  0  0  0  0  0  0  0  0  0  0  0
  155.4830  210.3010  154.7420 F   0  0  0  0  0  0  0  0  0  0  0  0
  156.3150  214.1830  157.2600 F   0  0  0  0  0  0  0  0  0  0  0  0
  1  2  1  0  0  0  0
  3  6  2  0  0  0  0
  4  3  1  0  0  0  0
  4  7  2  0  0  0  0
  5  7  1  0  0  0  0
  6 21  1  0  0  0  0
  6  2  1  0  0  0  0
  7  1  1  0  0  0  0
  8 14  1  0  0  0  0
  9 12  2  0  0  0  0
 10 15  1  1  0  0  0
 10  9  1  0  0  0  0
 10  8  1  0  0  0  0
 11  5  1  1  0  0  0
 12 11  1  0  0  0  0
 13  9  1  0  0  0  0
 14 11  1  0  0  0  0
 15 18  1  0  0  0  0
 16 19  1  0  0  0  0
 16 17  1  0  0  0  0
 17 18  1  0  0  0  0
 19 15  1  0  0  0  0
 21 20  1  0  0  0  0
 22  3  1  0  0  0  0
 23 22  1  0  0  0  0
 24 28  1  0  0  0  0
 25 26  1  0  0  0  0
 25 24  2  0  0  0  0
 26 29  1  0  0  0  0
 27 25  1  0  0  0  0
 28 35  1  1  0  0  0
 29 28  1  0  0  0  0
 29 23  1  1  0  0  0
 30 33  1  0  0  0  0
 31 35  1  0  0  0  0
 31 30  2  0  0  0  0
 32 37  1  0  0  0  0
 33 32  2  0  0  0  0
 34 32  1  0  0  0  0
 35 34  2  0  0  0  0
 36 30  1  0  0  0  0
M  END
>  <MODEL>
6

>  <REMARK>
 VINA RESULT:      -5.9      2.778      4.137
  Name = 
  7 active torsions:
  status: ('A' for Active; 'I' for Inactive)
    1  A    between atoms: C_8  and  S_16
    2  A    between atoms: N_9  and  C_14
    3  A    between atoms: S_16  and  C_20
    4  A    between atoms: C_18  and  N_26
    5  A    between atoms: C_20  and  C_33
    6  A    between atoms: C_24  and  C_29
    7  A    between atoms: C_28  and  CA_31
                            x       y       z     vdW  Elec       q    Type
                         _______ _______ _______ _____ _____    ______ ____

>  <TORSDO>
F 7

$$$$
=
 OpenBabel11072413013D

 37 41  0  0  1  0  0  0  0  0999 V2000
  158.8900  214.3850  148.9410 C   0  0  0  0  0  2  0  0  0  0  0  0
  159.6250  214.0140  147.7330 N   0  0  0  0  0  2  0  0  0  0  0  0
  161.0650  212.5040  148.8950 C   0  0  0  0  0  0  0  0  0  0  0  0
  160.2300  212.6630  150.0490 N   0  0  0  0  0  0  0  0  0  0  0  0
  158.4690  213.6240  151.3090 N   0  0  0  0  0  2  0  0  0  0  0  0
  160.7680  213.1550  147.7630 C   0  0  0  0  0  0  0  0  0  0  0  0
  159.2230  213.4880  150.1010 C   0  0  0  0  0  0  0  0  0  0  0  0
  159.4830  213.2000  154.9190 C   0  0  0  0  0  2  0  0  0  0  0  0
  157.4270  211.8040  154.2720 C   0  0  0  0  0  0  0  0  0  0  0  0
  158.2370  212.4170  155.3920 C   0  0  2  0  0  3  0  0  0  0  0  0
  158.8210  212.9340  152.5430 C   0  0  2  0  0  3  0  0  0  0  0  0
  157.6690  212.0790  152.9860 C   0  0  0  0  0  3  0  0  0  0  0  0
  156.3730  210.9580  154.5900 O   0  0  0  0  0  1  0  0  0  0  0  0
  159.2070  213.9440  153.6190 C   0  0  0  0  0  2  0  0  0  0  0  0
  157.3740  213.1620  156.3240 N   0  0  0  0  0  0  0  0  0  0  0  0
  155.0750  213.8100  156.3730 C   0  0  0  0  0  2  0  0  0  0  0  0
  155.1950  212.5330  157.1580 C   0  0  0  0  0  2  0  0  0  0  0  0
  156.6820  212.2680  157.2570 C   0  0  0  0  0  2  0  0  0  0  0  0
  156.3490  213.8720  155.5690 C   0  0  0  0  0  2  0  0  0  0  0  0
  160.7980  212.5830  145.4720 O   0  0  0  0  0  1  0  0  0  0  0  0
  161.5980  213.0190  146.5290 C   0  0  0  0  0  2  0  0  0  0  0  0
  162.4930  211.4240  149.0190 S   0  0  0  0  0  0  0  0  0  0  0  0
  161.5500  210.2040  149.9740 C   0  0  0  0  0  2  0  0  0  0  0  0
  161.5060  208.1370  152.7280 N   0  0  0  0  0  0  0  0  0  0  0  0
  161.1450  209.2900  153.1670 C   0  0  0  0  0  0  0  0  0  0  0  0
  161.5860  210.3890  152.3900 N   0  0  0  0  0  2  0  0  0  0  0  0
  160.2990  209.4510  154.3780 C   0  0  0  0  0  1  0  0  0  0  0  0
  162.3350  208.3180  151.5440 C   0  0  2  0  0  3  0  0  0  0  0  0
  162.2970  209.8360  151.2500 C   0  0  1  0  0  3  0  0  0  0  0  0
  160.8220  205.3830  149.6920 C   0  0  0  0  0  0  0  0  0  0  0  0
  161.1790  206.2580  150.7210 C   0  0  0  0  0  3  0  0  0  0  0  0
  161.9410  206.7420  148.0990 C   0  0  0  0  0  0  0  0  0  0  0  0
  161.2080  205.6410  148.4130 N   0  0  0  0  0  0  0  0  0  0  0  0
  162.3140  207.6430  149.0990 C   0  0  0  0  0  3  0  0  0  0  0  0
  161.9230  207.4010  150.4220 C   0  0  0  0  0  0  0  0  0  0  0  0
  160.0930  204.2750  149.9690 F   0  0  0  0  0  0  0  0  0  0  0  0
  162.3130  206.9640  146.8150 F   0  0  0  0  0  0  0  0  0  0  0  0
  1  7  1  0  0  0  0
  2  6  1  0  0  0  0
  2  1  1  0  0  0  0
  3 22  1  0  0  0  0
  3  4  1  0  0  0  0
  4  7  2  0  0  0  0
  6  3  2  0  0  0  0
  7  5  1  0  0  0  0
  9 13  1  0  0  0  0
  9 10  1  0  0  0  0
 10  8  1  6  0  0  0
 10 15  1  0  0  0  0
 11  5  1  6  0  0  0
 11 12  1  0  0  0  0
 11 14  1  0  0  0  0
 12  9  2  0  0  0  0
 14  8  1  0  0  0  0
 15 18  1  0  0  0  0
 16 17  1  0  0  0  0
 17 18  1  0  0  0  0
 19 15  1  0  0  0  0
 19 16  1  0  0  0  0
 20 21  1  0  0  0  0
 21  6  1  0  0  0  0
 22 23  1  0  0  0  0
 24 25  2  0  0  0  0
 25 27  1  0  0  0  0
 26 25  1  0  0  0  0
 28 35  1  6  0  0  0
 28 24  1  0  0  0  0
 29 23  1  6  0  0  0
 29 28  1  0  0  0  0
 29 26  1  0  0  0  0
 30 36  1  0  0  0  0
 30 31  1  0  0  0  0
 32 33  1  0  0  0  0
 32 34  2  0  0  0  0
 33 30  2  0  0  0  0
 34 35  1  0  0  0  0
 35 31  2  0  0  0  0
 37 32  1  0  0  0  0
M  END
>  <MODEL>
7

>  <REMARK>
 VINA RESULT:      -5.8      3.328      9.115
  Name = 
  7 active torsions:
  status: ('A' for Active; 'I' for Inactive)
    1  A    between atoms: C_8  and  S_16
    2  A    between atoms: N_9  and  C_14
    3  A    between atoms: S_16  and  C_20
    4  A    between atoms: C_18  and  N_26
    5  A    between atoms: C_20  and  C_33
    6  A    between atoms: C_24  and  C_29
    7  A    between atoms: C_28  and  CA_31
                            x       y       z     vdW  Elec       q    Type
                         _______ _______ _______ _____ _____    ______ ____

>  <TORSDO>
F 7

$$$$
=
 OpenBabel11072413013D

 37 41  0  0  1  0  0  0  0  0999 V2000
  160.3040  213.5430  150.4590 C   0  0  0  0  0  2  0  0  0  0  0  0
  161.0450  213.0280  149.3080 N   0  0  0  0  0  2  0  0  0  0  0  0
  161.5080  210.9330  150.3550 C   0  0  0  0  0  0  0  0  0  0  0  0
  160.6040  211.3050  151.4030 N   0  0  0  0  0  0  0  0  0  0  0  0
  159.1710  212.7800  152.5790 N   0  0  0  0  0  2  0  0  0  0  0  0
  161.7190  211.7680  149.3300 C   0  0  0  0  0  0  0  0  0  0  0  0
  160.0220  212.4680  151.4730 C   0  0  0  0  0  0  0  0  0  0  0  0
  159.1810  211.5910  156.1610 C   0  0  0  0  0  2  0  0  0  0  0  0
  156.9330  211.2210  154.9750 C   0  0  0  0  0  0  0  0  0  0  0  0
  157.6630  211.3290  156.2950 C   0  0  2  0  0  3  0  0  0  0  0  0
  158.9750  211.8760  153.7050 C   0  0  2  0  0  3  0  0  0  0  0  0
  157.5210  211.5140  153.8100 C   0  0  0  0  0  3  0  0  0  0  0  0
  155.5970  210.8410  154.9740 O   0  0  0  0  0  1  0  0  0  0  0  0
  159.4790  212.5210  154.9920 C   0  0  0  0  0  2  0  0  0  0  0  0
  156.9700  212.2510  157.2100 N   0  0  0  0  0  0  0  0  0  0  0  0
  155.8420  214.3460  156.9900 C   0  0  0  0  0  2  0  0  0  0  0  0
  154.7950  213.2680  156.9310 C   0  0  0  0  0  2  0  0  0  0  0  0
  155.5300  211.9860  157.2610 C   0  0  0  0  0  2  0  0  0  0  0  0
  157.1380  213.6190  156.7340 C   0  0  0  0  0  2  0  0  0  0  0  0
  163.3760  212.5570  147.8440 O   0  0  0  0  0  1  0  0  0  0  0  0
  162.6430  211.4270  148.2070 C   0  0  0  0  0  2  0  0  0  0  0  0
  162.3310  209.3420  150.4660 S   0  0  0  0  0  0  0  0  0  0  0  0
  161.0930  208.7270  151.6400 C   0  0  0  0  0  2  0  0  0  0  0  0
  160.8430  206.5080  154.2610 N   0  0  0  0  0  0  0  0  0  0  0  0
  160.5070  207.6480  154.7520 C   0  0  0  0  0  0  0  0  0  0  0  0
  161.0260  208.7700  154.0620 N   0  0  0  0  0  2  0  0  0  0  0  0
  159.6130  207.7740  155.9320 C   0  0  0  0  0  1  0  0  0  0  0  0
  161.7310  206.7220  153.1270 C   0  0  2  0  0  3  0  0  0  0  0  0
  161.7660  208.2550  152.9230 C   0  0  1  0  0  3  0  0  0  0  0  0
  160.5010  205.7680  149.6760 C   0  0  0  0  0  0  0  0  0  0  0  0
  160.9040  206.5320  150.7740 C   0  0  0  0  0  3  0  0  0  0  0  0
  160.9300  203.7620  150.8710 C   0  0  0  0  0  0  0  0  0  0  0  0
  160.5220  204.4100  149.7470 N   0  0  0  0  0  0  0  0  0  0  0  0
  161.3430  204.4900  151.9880 C   0  0  0  0  0  3  0  0  0  0  0  0
  161.3360  205.8900  151.9360 C   0  0  0  0  0  0  0  0  0  0  0  0
  160.0890  206.3810  148.5410 F   0  0  0  0  0  0  0  0  0  0  0  0
  160.9300  202.4070  150.9070 F   0  0  0  0  0  0  0  0  0  0  0  0
  1  7  1  0  0  0  0
  2  6  1  0  0  0  0
  2  1  1  0  0  0  0
  3 22  1  0  0  0  0
  3  4  1  0  0  0  0
  4  7  2  0  0  0  0
  6  3  2  0  0  0  0
  7  5  1  0  0  0  0
  9 10  1  0  0  0  0
 10  8  1  6  0  0  0
 10 15  1  0  0  0  0
 11  5  1  6  0  0  0
 11 12  1  0  0  0  0
 11 14  1  0  0  0  0
 12  9  2  0  0  0  0
 13  9  1  0  0  0  0
 14  8  1  0  0  0  0
 15 18  1  0  0  0  0
 17 16  1  0  0  0  0
 17 18  1  0  0  0  0
 19 16  1  0  0  0  0
 19 15  1  0  0  0  0
 20 21  1  0  0  0  0
 21  6  1  0  0  0  0
 22 23  1  0  0  0  0
 24 25  2  0  0  0  0
 25 27  1  0  0  0  0
 26 25  1  0  0  0  0
 28 35  1  6  0  0  0
 28 24  1  0  0  0  0
 29 23  1  6  0  0  0
 29 28  1  0  0  0  0
 29 26  1  0  0  0  0
 30 33  2  0  0  0  0
 30 31  1  0  0  0  0
 31 35  2  0  0  0  0
 32 37  1  0  0  0  0
 32 34  2  0  0  0  0
 33 32  1  0  0  0  0
 35 34  1  0  0  0  0
 36 30  1  0  0  0  0
M  END
>  <MODEL>
8

>  <REMARK>
 VINA RESULT:      -5.4      3.675      9.163
  Name = 
  7 active torsions:
  status: ('A' for Active; 'I' for Inactive)
    1  A    between atoms: C_8  and  S_16
    2  A    between atoms: N_9  and  C_14
    3  A    between atoms: S_16  and  C_20
    4  A    between atoms: C_18  and  N_26
    5  A    between atoms: C_20  and  C_33
    6  A    between atoms: C_24  and  C_29
    7  A    between atoms: C_28  and  CA_31
                            x       y       z     vdW  Elec       q    Type
                         _______ _______ _______ _____ _____    ______ ____

>  <TORSDO>
F 7

$$$$
=
 OpenBabel11072413013D

 37 41  0  0  1  0  0  0  0  0999 V2000
  160.3340  209.8240  153.3850 C   0  0  0  0  0  2  0  0  0  0  0  0
  160.9980  208.5220  153.3820 N   0  0  0  0  0  2  0  0  0  0  0  0
  161.8410  208.7900  151.1640 C   0  0  0  0  0  0  0  0  0  0  0  0
  161.4040  210.1540  151.2090 N   0  0  0  0  0  0  0  0  0  0  0  0
  160.2980  212.0240  152.1520 N   0  0  0  0  0  2  0  0  0  0  0  0
  161.6510  207.9950  152.2250 C   0  0  0  0  0  0  0  0  0  0  0  0
  160.7400  210.6660  152.2060 C   0  0  0  0  0  0  0  0  0  0  0  0
  161.2160  212.9560  148.6110 C   0  0  0  0  0  2  0  0  0  0  0  0
  158.8710  213.7500  149.2940 C   0  0  0  0  0  0  0  0  0  0  0  0
  159.8200  213.4420  148.1580 C   0  0  2  0  0  3  0  0  0  0  0  0
  160.4820  212.8700  150.9800 C   0  0  2  0  0  3  0  0  0  0  0  0
  159.1590  213.4470  150.5650 C   0  0  0  0  0  3  0  0  0  0  0  0
  157.6440  214.3330  149.0060 O   0  0  0  0  0  1  0  0  0  0  0  0
  161.1180  212.0710  149.8470 C   0  0  0  0  0  2  0  0  0  0  0  0
  159.1790  212.5810  147.1500 N   0  0  0  0  0  0  0  0  0  0  0  0
  158.4730  212.8420  144.8830 C   0  0  0  0  0  2  0  0  0  0  0  0
  159.8450  212.2280  144.8550 C   0  0  0  0  0  2  0  0  0  0  0  0
  160.1670  211.9110  146.3000 C   0  0  0  0  0  2  0  0  0  0  0  0
  158.3440  213.3990  146.2780 C   0  0  0  0  0  2  0  0  0  0  0  0
  161.9650  206.0470  153.5230 O   0  0  0  0  0  1  0  0  0  0  0  0
  162.0930  206.5680  152.2350 C   0  0  0  0  0  2  0  0  0  0  0  0
  162.6330  208.1980  149.6660 S   0  0  0  0  0  0  0  0  0  0  0  0
  161.6690  206.6620  149.7040 C   0  0  0  0  0  2  0  0  0  0  0  0
  161.2510  204.7440  146.8750 N   0  0  0  0  0  0  0  0  0  0  0  0
  161.8520  205.8080  146.4750 C   0  0  0  0  0  0  0  0  0  0  0  0
  161.6630  206.9450  147.2970 N   0  0  0  0  0  2  0  0  0  0  0  0
  162.7070  205.8290  145.2590 C   0  0  0  0  0  1  0  0  0  0  0  0
  160.4870  205.0540  148.0760 C   0  0  2  0  0  3  0  0  0  0  0  0
  160.8540  206.5150  148.4250 C   0  0  1  0  0  3  0  0  0  0  0  0
  161.2130  201.7570  149.7880 C   0  0  0  0  0  0  0  0  0  0  0  0
  161.0530  202.7260  148.7950 C   0  0  0  0  0  3  0  0  0  0  0  0
  160.6540  203.3370  151.4700 C   0  0  0  0  0  0  0  0  0  0  0  0
  161.0120  202.0800  151.0940 N   0  0  0  0  0  0  0  0  0  0  0  0
  160.4860  204.3340  150.5080 C   0  0  0  0  0  3  0  0  0  0  0  0
  160.6950  204.0270  149.1570 C   0  0  0  0  0  0  0  0  0  0  0  0
  161.5680  200.4950  149.4500 F   0  0  0  0  0  0  0  0  0  0  0  0
  160.4550  203.6200  152.7800 F   0  0  0  0  0  0  0  0  0  0  0  0
  2  1  1  0  0  0  0
  3  4  1  0  0  0  0
  3  6  2  0  0  0  0
  4  7  2  0  0  0  0
  5  7  1  0  0  0  0
  6 21  1  0  0  0  0
  6  2  1  0  0  0  0
  7  1  1  0  0  0  0
  8 14  1  0  0  0  0
  9 12  2  0  0  0  0
 10 15  1  6  0  0  0
 10  8  1  0  0  0  0
 10  9  1  0  0  0  0
 11  5  1  1  0  0  0
 12 11  1  0  0  0  0
 13  9  1  0  0  0  0
 14 11  1  0  0  0  0
 16 19  1  0  0  0  0
 17 16  1  0  0  0  0
 17 18  1  0  0  0  0
 18 15  1  0  0  0  0
 19 15  1  0  0  0  0
 21 20  1  0  0  0  0
 22 23  1  0  0  0  0
 22  3  1  0  0  0  0
 24 28  1  0  0  0  0
 25 24  2  0  0  0  0
 25 26  1  0  0  0  0
 26 29  1  0  0  0  0
 27 25  1  0  0  0  0
 28 29  1  0  0  0  0
 28 35  1  1  0  0  0
 29 23  1  1  0  0  0
 30 33  1  0  0  0  0
 31 35  1  0  0  0  0
 31 30  2  0  0  0  0
 32 37  1  0  0  0  0
 33 32  2  0  0  0  0
 34 32  1  0  0  0  0
 35 34  2  0  0  0  0
 36 30  1  0  0  0  0
M  END
>  <MODEL>
9

>  <REMARK>
 VINA RESULT:      -5.4      4.101      8.467
  Name = 
  7 active torsions:
  status: ('A' for Active; 'I' for Inactive)
    1  A    between atoms: C_8  and  S_16
    2  A    between atoms: N_9  and  C_14
    3  A    between atoms: S_16  and  C_20
    4  A    between atoms: C_18  and  N_26
    5  A    between atoms: C_20  and  C_33
    6  A    between atoms: C_24  and  C_29
    7  A    between atoms: C_28  and  CA_31
                            x       y       z     vdW  Elec       q    Type
                         _______ _______ _______ _____ _____    ______ ____

>  <TORSDO>
F 7

$$$$
