=
 OpenBabel11072413243D

 41 44  0  0  1  0  0  0  0  0999 V2000
  161.3690  208.9750  153.6020 C   0  0  1  0  0  3  0  0  0  0  0  0
  160.0460  210.0330  155.2600 N   0  0  0  0  0  0  0  0  0  0  0  0
  160.6650  210.1680  153.0310 C   0  0  0  0  0  0  0  0  0  0  0  0
  160.8590  206.5610  153.8420 C   0  0  0  0  0  3  0  0  0  0  0  0
  159.2530  211.9510  153.8660 C   0  0  0  0  0  3  0  0  0  0  0  0
  160.8300  210.8180  151.7990 C   0  0  0  0  0  0  0  0  0  0  0  0
  160.8910  207.8950  155.8620 N   0  0  0  0  0  0  0  0  0  0  0  0
  160.8520  209.0480  155.0200 C   0  0  0  0  0  0  0  0  0  0  0  0
  159.9460  210.7570  154.0470 C   0  0  0  0  0  0  0  0  0  0  0  0
  160.9170  206.7150  155.3160 C   0  0  0  0  0  3  0  0  0  0  0  0
  160.9870  207.6220  153.0250 C   0  0  0  0  0  0  0  0  0  0  0  0
  159.3280  212.5740  152.6120 C   0  0  0  0  0  0  0  0  0  0  0  0
  160.1360  212.0300  151.5970 C   0  0  0  0  0  3  0  0  0  0  0  0
  161.8460  210.3490  150.8010 C   0  0  2  0  0  3  0  0  0  0  0  0
  163.1040  210.8210  151.1830 O   0  0  0  0  0  1  0  0  0  0  0  0
  161.5100  210.8180  149.3800 C   0  0  2  0  0  3  0  0  0  0  0  0
  161.7930  209.8050  148.4610 O   0  0  0  0  0  1  0  0  0  0  0  0
  162.2580  212.1000  149.0080 C   0  0  2  0  0  3  0  0  0  0  0  0
  161.0800  214.2820  148.7840 C   0  0  0  0  0  2  0  0  0  0  0  0
  160.0430  213.1790  148.7570 C   0  0  0  0  0  2  0  0  0  0  0  0
  161.3920  212.9650  148.1010 C   0  0  0  0  0  3  0  0  0  0  0  0
  163.4670  211.7990  148.3740 O   0  0  0  0  0  0  0  0  0  0  0  0
  163.4410  212.5200  147.1820 C   0  0  0  0  0  1  0  0  0  0  0  0
  157.5360  213.7580  151.1600 O   0  0  0  0  0  0  0  0  0  0  0  0
  158.4560  214.0890  152.3280 S   0  0  0  0  0  3  0  0  0  0  0  0
  160.8910  207.4170  151.5480 C   0  0  0  0  0  2  0  0  0  0  0  0
  161.2050  205.9760  151.1710 C   0  0  0  0  0  2  0  0  0  0  0  0
  160.6710  206.7030  148.8530 C   0  0  0  0  0  1  0  0  0  0  0  0
  160.5070  205.5850  149.8750 C   0  0  1  0  0  3  0  0  0  0  0  0
  161.8240  203.8670  146.9160 C   0  0  0  0  0  0  0  0  0  0  0  0
  160.9730  204.2390  149.3680 C   0  0  0  0  0  0  0  0  0  0  0  0
  161.4050  204.0670  148.1420 C   0  0  0  0  0  0  0  0  0  0  0  0
  163.9890  204.5350  146.2440 O   0  0  0  0  0  1  0  0  0  0  0  0
  162.3110  206.0200  145.7640 O   0  0  0  0  0  0  0  0  0  0  0  0
  162.7630  204.8170  146.2990 C   0  0  0  0  0  0  0  0  0  0  0  0
  160.5660  201.8030  149.5260 C   0  0  0  0  0  1  0  0  0  0  0  0
  160.9720  203.0570  150.2800 C   0  0  0  0  0  2  0  0  0  0  0  0
  161.4360  202.7300  146.1870 O   0  0  0  0  0  0  0  0  0  0  0  0
  160.4800  202.7130  145.1600 C   0  0  0  0  0  0  0  0  0  0  0  0
  159.8420  201.6630  144.8810 O   0  0  0  0  0  1  0  0  0  0  0  0
  160.1860  203.8890  144.4860 O   0  0  0  0  0  0  0  0  0  0  0  0
  1 11  1  6  0  0  0
  1  8  1  0  0  0  0
  3  1  1  0  0  0  0
  3  9  1  0  0  0  0
  4 10  1  0  0  0  0
  5  9  2  0  0  0  0
  6  3  2  0  0  0  0
  8  2  2  0  0  0  0
  8  7  1  0  0  0  0
  9  2  1  0  0  0  0
 10  7  2  0  0  0  0
 11  4  2  0  0  0  0
 12  5  1  0  0  0  0
 13  6  1  0  0  0  0
 13 12  2  0  0  0  0
 14 15  1  1  0  0  0
 14  6  1  0  0  0  0
 16 17  1  6  0  0  0
 16 14  1  0  0  0  0
 18 22  1  6  0  0  0
 18 16  1  0  0  0  0
 20 19  1  0  0  0  0
 21 20  1  0  0  0  0
 21 19  1  0  0  0  0
 21 18  1  0  0  0  0
 23 22  1  0  0  0  0
 24 25  2  0  0  0  0
 25 12  1  0  0  0  0
 26 11  1  0  0  0  0
 27 26  1  0  0  0  0
 29 28  1  6  0  0  0
 29 27  1  0  0  0  0
 30 32  2  0  0  0  0
 31 29  1  0  0  0  0
 31 37  1  0  0  0  0
 32 31  2  0  0  0  0
 33 35  1  0  0  0  0
 34 35  2  0  0  0  0
 35 30  1  0  0  0  0
 36 37  1  0  0  0  0
 38 30  1  0  0  0  0
 39 38  1  0  0  0  0
 40 39  1  0  0  0  0
 41 39  2  0  0  0  0
M  END
>  <MODEL>
1

>  <REMARK>
 VINA RESULT:      -7.3      0.000      0.000
  Name = 
  14 active torsions:
  status: ('A' for Active; 'I' for Inactive)
    1  A    between atoms: C_4  and  C_9
    2  A    between atoms: C_4  and  C_18
    3  A    between atoms: O_6  and  C_14
    4  A    between atoms: C_9  and  C_14
    5  A    between atoms: C_12  and  O_35
    6  A    between atoms: C_14  and  C_30
    7  A    between atoms: C_20  and  O_35
    8  A    between atoms: C_20  and  C_39
    9  A    between atoms: C_21  and  C_34
   10  A    between atoms: C_21  and  C_36
   11  A    between atoms: C_22  and  C_25
   12  A    between atoms: C_22  and  C_37
   13  A    between atoms: C_25  and  C_36
   14  A    between atoms: S_33  and  C_38
                            x       y       z     vdW  Elec       q    Type
                         _______ _______ _______ _____ _____    ______ ____

>  <TORSDO>
F 14

$$$$
=
 OpenBabel11072413243D

 41 44  0  0  1  0  0  0  0  0999 V2000
  161.3730  209.0500  153.8200 C   0  0  1  0  0  3  0  0  0  0  0  0
  160.0620  210.2360  155.3990 N   0  0  0  0  0  0  0  0  0  0  0  0
  160.6980  210.2200  153.1710 C   0  0  0  0  0  0  0  0  0  0  0  0
  160.8110  206.6670  154.2020 C   0  0  0  0  0  3  0  0  0  0  0  0
  159.3190  212.0800  153.8850 C   0  0  0  0  0  3  0  0  0  0  0  0
  160.8850  210.7900  151.9030 C   0  0  0  0  0  0  0  0  0  0  0  0
  160.8570  208.1210  156.1370 N   0  0  0  0  0  0  0  0  0  0  0  0
  160.8480  209.2210  155.2260 C   0  0  0  0  0  0  0  0  0  0  0  0
  159.9850  210.8850  154.1440 C   0  0  0  0  0  0  0  0  0  0  0  0
  160.8620  206.9090  155.6640 C   0  0  0  0  0  3  0  0  0  0  0  0
  160.9670  207.6730  153.3230 C   0  0  0  0  0  0  0  0  0  0  0  0
  159.4150  212.6230  152.5950 C   0  0  0  0  0  0  0  0  0  0  0  0
  160.2190  212.0020  151.6220 C   0  0  0  0  0  3  0  0  0  0  0  0
  161.8990  210.2410  150.9440 C   0  0  2  0  0  3  0  0  0  0  0  0
  163.1550  210.7550  151.2720 O   0  0  0  0  0  1  0  0  0  0  0  0
  161.5490  210.5760  149.4890 C   0  0  2  0  0  3  0  0  0  0  0  0
  161.8960  209.5120  148.6530 O   0  0  0  0  0  1  0  0  0  0  0  0
  162.2250  211.8660  149.0200 C   0  0  2  0  0  3  0  0  0  0  0  0
  161.1950  214.0740  148.5080 C   0  0  0  0  0  2  0  0  0  0  0  0
  160.0850  213.0990  148.8400 C   0  0  0  0  0  2  0  0  0  0  0  0
  161.3040  212.6250  148.0740 C   0  0  0  0  0  3  0  0  0  0  0  0
  163.4390  211.5840  148.3860 O   0  0  0  0  0  0  0  0  0  0  0  0
  163.6660  212.6680  147.5390 C   0  0  0  0  0  1  0  0  0  0  0  0
  157.1750  213.6810  151.8300 O   0  0  0  0  0  0  0  0  0  0  0  0
  158.5770  214.1360  152.2120 S   0  0  0  0  0  3  0  0  0  0  0  0
  160.8760  207.3800  151.8600 C   0  0  0  0  0  2  0  0  0  0  0  0
  160.4120  205.9510  151.6140 C   0  0  0  0  0  2  0  0  0  0  0  0
  161.7160  203.8400  151.4460 C   0  0  0  0  0  1  0  0  0  0  0  0
  161.4300  205.1820  150.7830 C   0  0  1  0  0  3  0  0  0  0  0  0
  161.2510  202.8300  147.9760 C   0  0  0  0  0  0  0  0  0  0  0  0
  160.9980  205.0560  149.3390 C   0  0  0  0  0  0  0  0  0  0  0  0
  161.1220  203.9350  148.6700 C   0  0  0  0  0  0  0  0  0  0  0  0
  159.9900  201.5110  149.4780 O   0  0  0  0  0  1  0  0  0  0  0  0
  161.4400  200.3520  148.1350 O   0  0  0  0  0  0  0  0  0  0  0  0
  160.8630  201.5420  148.5710 C   0  0  0  0  0  0  0  0  0  0  0  0
  161.0630  206.4500  147.2950 C   0  0  0  0  0  1  0  0  0  0  0  0
  160.3900  206.2240  148.6370 C   0  0  0  0  0  2  0  0  0  0  0  0
  161.7080  202.8510  146.6470 O   0  0  0  0  0  0  0  0  0  0  0  0
  160.8880  202.8790  145.5090 C   0  0  0  0  0  0  0  0  0  0  0  0
  160.7870  203.9180  144.8040 O   0  0  0  0  0  0  0  0  0  0  0  0
  160.2290  201.7220  145.1160 O   0  0  0  0  0  1  0  0  0  0  0  0
  1  3  1  6  0  0  0
  1  8  1  0  0  0  0
  3  9  1  0  0  0  0
  4 10  1  0  0  0  0
  5  9  2  0  0  0  0
  6  3  2  0  0  0  0
  8  2  2  0  0  0  0
  8  7  1  0  0  0  0
  9  2  1  0  0  0  0
 10  7  2  0  0  0  0
 11  1  1  0  0  0  0
 11  4  2  0  0  0  0
 12  5  1  0  0  0  0
 13  6  1  0  0  0  0
 13 12  2  0  0  0  0
 14 15  1  1  0  0  0
 14  6  1  0  0  0  0
 16 17  1  6  0  0  0
 16 14  1  0  0  0  0
 18 22  1  6  0  0  0
 18 16  1  0  0  0  0
 19 20  1  0  0  0  0
 21 19  1  0  0  0  0
 21 20  1  0  0  0  0
 21 18  1  0  0  0  0
 23 22  1  0  0  0  0
 24 25  2  0  0  0  0
 25 12  1  0  0  0  0
 26 11  1  0  0  0  0
 27 26  1  0  0  0  0
 29 28  1  1  0  0  0
 29 27  1  0  0  0  0
 30 35  1  0  0  0  0
 30 32  2  0  0  0  0
 31 29  1  0  0  0  0
 32 31  2  0  0  0  0
 34 35  2  0  0  0  0
 35 33  1  0  0  0  0
 36 37  1  0  0  0  0
 37 31  1  0  0  0  0
 38 30  1  0  0  0  0
 39 38  1  0  0  0  0
 40 39  2  0  0  0  0
 41 39  1  0  0  0  0
M  END
>  <MODEL>
2

>  <REMARK>
 VINA RESULT:      -6.9      0.968      2.035
  Name = 
  14 active torsions:
  status: ('A' for Active; 'I' for Inactive)
    1  A    between atoms: C_4  and  C_9
    2  A    between atoms: C_4  and  C_18
    3  A    between atoms: O_6  and  C_14
    4  A    between atoms: C_9  and  C_14
    5  A    between atoms: C_12  and  O_35
    6  A    between atoms: C_14  and  C_30
    7  A    between atoms: C_20  and  O_35
    8  A    between atoms: C_20  and  C_39
    9  A    between atoms: C_21  and  C_34
   10  A    between atoms: C_21  and  C_36
   11  A    between atoms: C_22  and  C_25
   12  A    between atoms: C_22  and  C_37
   13  A    between atoms: C_25  and  C_36
   14  A    between atoms: S_33  and  C_38
                            x       y       z     vdW  Elec       q    Type
                         _______ _______ _______ _____ _____    ______ ____

>  <TORSDO>
F 14

$$$$
=
 OpenBabel11072413243D

 41 44  0  0  1  0  0  0  0  0999 V2000
  160.6610  208.1570  152.1590 C   0  0  1  0  0  3  0  0  0  0  0  0
  160.7540  206.8170  154.1120 N   0  0  0  0  0  0  0  0  0  0  0  0
  161.0560  206.7530  151.8150 C   0  0  0  0  0  0  0  0  0  0  0  0
  161.8600  210.2380  152.7690 C   0  0  0  0  0  3  0  0  0  0  0  0
  161.2890  204.6480  152.9910 C   0  0  0  0  0  3  0  0  0  0  0  0
  161.1670  206.1180  150.5690 C   0  0  0  0  0  0  0  0  0  0  0  0
  160.5650  209.1540  154.5030 N   0  0  0  0  0  0  0  0  0  0  0  0
  160.5170  208.0060  153.6550 C   0  0  0  0  0  0  0  0  0  0  0  0
  161.0560  206.0200  152.9810 C   0  0  0  0  0  0  0  0  0  0  0  0
  161.1780  210.2230  154.0860 C   0  0  0  0  0  3  0  0  0  0  0  0
  161.6930  209.2380  151.8850 C   0  0  0  0  0  0  0  0  0  0  0  0
  161.4950  204.0040  151.7620 C   0  0  0  0  0  0  0  0  0  0  0  0
  161.4020  204.7270  150.5590 C   0  0  0  0  0  3  0  0  0  0  0  0
  160.8640  206.8470  149.2940 C   0  0  2  0  0  3  0  0  0  0  0  0
  159.6100  206.4420  148.8300 O   0  0  0  0  0  1  0  0  0  0  0  0
  161.9340  206.5970  148.2250 C   0  0  2  0  0  3  0  0  0  0  0  0
  162.4200  207.8130  147.7370 O   0  0  0  0  0  1  0  0  0  0  0  0
  161.4050  205.7340  147.0760 C   0  0  2  0  0  3  0  0  0  0  0  0
  161.4800  203.4290  146.1400 C   0  0  0  0  0  2  0  0  0  0  0  0
  161.5080  203.3280  147.6510 C   0  0  0  0  0  2  0  0  0  0  0  0
  162.2330  204.4620  146.9550 C   0  0  0  0  0  3  0  0  0  0  0  0
  161.4350  206.4450  145.8720 O   0  0  0  0  0  0  0  0  0  0  0  0
  160.1810  206.2410  145.3000 C   0  0  0  0  0  1  0  0  0  0  0  0
  160.8550  201.7550  150.6450 O   0  0  0  0  0  0  0  0  0  0  0  0
  161.8050  202.2610  151.7220 S   0  0  0  0  0  3  0  0  0  0  0  0
  162.4280  209.2880  150.5850 C   0  0  0  0  0  2  0  0  0  0  0  0
  162.6360  210.7240  150.1260 C   0  0  0  0  0  2  0  0  0  0  0  0
  160.6360  212.1720  150.4230 C   0  0  0  0  0  1  0  0  0  0  0  0
  161.3850  211.2690  149.4520 C   0  0  1  0  0  3  0  0  0  0  0  0
  159.9150  212.2640  146.2440 C   0  0  0  0  0  0  0  0  0  0  0  0
  161.7020  211.9410  148.1340 C   0  0  0  0  0  0  0  0  0  0  0  0
  160.7980  212.1050  147.2000 C   0  0  0  0  0  0  0  0  0  0  0  0
  157.6850  212.7940  145.6680 O   0  0  0  0  0  0  0  0  0  0  0  0
  158.2420  213.1520  147.8610 O   0  0  0  0  0  1  0  0  0  0  0  0
  158.5650  212.7500  146.5680 C   0  0  0  0  0  0  0  0  0  0  0  0
  163.0590  213.9750  147.7540 C   0  0  0  0  0  1  0  0  0  0  0  0
  163.0770  212.4620  147.8740 C   0  0  0  0  0  2  0  0  0  0  0  0
  160.2430  212.0290  144.8970 O   0  0  0  0  0  0  0  0  0  0  0  0
  160.9600  212.9090  144.0730 C   0  0  0  0  0  0  0  0  0  0  0  0
  160.6790  214.1370  144.0290 O   0  0  0  0  0  1  0  0  0  0  0  0
  162.0390  212.4310  143.3430 O   0  0  0  0  0  0  0  0  0  0  0  0
  1  3  1  6  0  0  0
  1  8  1  0  0  0  0
  3  9  1  0  0  0  0
  4 10  1  0  0  0  0
  6  3  2  0  0  0  0
  8  2  2  0  0  0  0
  8  7  1  0  0  0  0
  9  5  2  0  0  0  0
  9  2  1  0  0  0  0
 10  7  2  0  0  0  0
 11  1  1  0  0  0  0
 11  4  2  0  0  0  0
 12  5  1  0  0  0  0
 13  6  1  0  0  0  0
 13 12  2  0  0  0  0
 14 15  1  6  0  0  0
 14  6  1  0  0  0  0
 16 17  1  6  0  0  0
 16 14  1  0  0  0  0
 18 22  1  6  0  0  0
 18 16  1  0  0  0  0
 19 21  1  0  0  0  0
 19 20  1  0  0  0  0
 21 18  1  0  0  0  0
 21 20  1  0  0  0  0
 23 22  1  0  0  0  0
 24 25  2  0  0  0  0
 25 12  1  0  0  0  0
 26 11  1  0  0  0  0
 27 26  1  0  0  0  0
 29 27  1  0  0  0  0
 29 28  1  1  0  0  0
 30 35  1  0  0  0  0
 30 32  2  0  0  0  0
 31 29  1  0  0  0  0
 32 31  2  0  0  0  0
 33 35  2  0  0  0  0
 35 34  1  0  0  0  0
 36 37  1  0  0  0  0
 37 31  1  0  0  0  0
 38 30  1  0  0  0  0
 39 38  1  0  0  0  0
 40 39  1  0  0  0  0
 41 39  2  0  0  0  0
M  END
>  <MODEL>
3

>  <REMARK>
 VINA RESULT:      -6.9      3.122      7.616
  Name = 
  14 active torsions:
  status: ('A' for Active; 'I' for Inactive)
    1  A    between atoms: C_4  and  C_9
    2  A    between atoms: C_4  and  C_18
    3  A    between atoms: O_6  and  C_14
    4  A    between atoms: C_9  and  C_14
    5  A    between atoms: C_12  and  O_35
    6  A    between atoms: C_14  and  C_30
    7  A    between atoms: C_20  and  O_35
    8  A    between atoms: C_20  and  C_39
    9  A    between atoms: C_21  and  C_34
   10  A    between atoms: C_21  and  C_36
   11  A    between atoms: C_22  and  C_25
   12  A    between atoms: C_22  and  C_37
   13  A    between atoms: C_25  and  C_36
   14  A    between atoms: S_33  and  C_38
                            x       y       z     vdW  Elec       q    Type
                         _______ _______ _______ _____ _____    ______ ____

>  <TORSDO>
F 14

$$$$
=
 OpenBabel11072413243D

 41 44  0  0  1  0  0  0  0  0999 V2000
  160.5670  210.0600  154.3090 C   0  0  1  0  0  3  0  0  0  0  0  0
  159.1410  210.2250  156.1960 N   0  0  0  0  0  0  0  0  0  0  0  0
  159.3500  210.8680  153.9790 C   0  0  0  0  0  0  0  0  0  0  0  0
  161.1870  207.6630  154.2010 C   0  0  0  0  0  3  0  0  0  0  0  0
  157.4260  211.7280  155.1740 C   0  0  0  0  0  3  0  0  0  0  0  0
  159.0570  211.6560  152.8560 C   0  0  0  0  0  0  0  0  0  0  0  0
  160.8980  208.6370  156.3990 N   0  0  0  0  0  0  0  0  0  0  0  0
  160.2560  209.7370  155.7520 C   0  0  0  0  0  0  0  0  0  0  0  0
  158.5830  210.9580  155.1200 C   0  0  0  0  0  0  0  0  0  0  0  0
  161.3620  207.6610  155.6740 C   0  0  0  0  0  3  0  0  0  0  0  0
  160.7380  208.7530  153.5540 C   0  0  0  0  0  0  0  0  0  0  0  0
  157.0610  212.4540  154.0310 C   0  0  0  0  0  0  0  0  0  0  0  0
  157.8880  212.4450  152.8920 C   0  0  0  0  0  3  0  0  0  0  0  0
  160.0390  211.8050  151.7320 C   0  0  2  0  0  3  0  0  0  0  0  0
  161.3150  211.4890  152.2030 O   0  0  0  0  0  1  0  0  0  0  0  0
  160.0240  213.2200  151.1440 C   0  0  2  0  0  3  0  0  0  0  0  0
  159.3700  214.0960  152.0140 O   0  0  0  0  0  1  0  0  0  0  0  0
  159.3730  213.2590  149.7590 C   0  0  2  0  0  3  0  0  0  0  0  0
  160.4090  212.7600  147.5510 C   0  0  0  0  0  2  0  0  0  0  0  0
  161.4920  212.6990  148.6070 C   0  0  0  0  0  2  0  0  0  0  0  0
  160.3830  213.7250  148.7190 C   0  0  0  0  0  3  0  0  0  0  0  0
  158.2600  214.1040  149.7610 O   0  0  0  0  0  0  0  0  0  0  0  0
  157.1900  213.2960  149.3790 C   0  0  0  0  0  1  0  0  0  0  0  0
  155.7610  214.3510  152.8350 O   0  0  0  0  0  0  0  0  0  0  0  0
  155.5920  213.4420  154.0450 S   0  0  0  0  0  3  0  0  0  0  0  0
  160.5510  208.6920  152.0720 C   0  0  0  0  0  2  0  0  0  0  0  0
  161.6000  207.8010  151.4220 C   0  0  0  0  0  2  0  0  0  0  0  0
  161.5040  207.5120  148.9540 C   0  0  0  0  0  1  0  0  0  0  0  0
  160.9960  206.9830  150.2890 C   0  0  1  0  0  3  0  0  0  0  0  0
  161.0330  203.7780  148.5090 C   0  0  0  0  0  0  0  0  0  0  0  0
  161.2350  205.5010  150.4750 C   0  0  0  0  0  0  0  0  0  0  0  0
  161.1390  204.6500  149.4820 C   0  0  0  0  0  0  0  0  0  0  0  0
  162.4850  204.9900  147.0910 O   0  0  0  0  0  1  0  0  0  0  0  0
  161.2830  203.3260  146.0730 O   0  0  0  0  0  0  0  0  0  0  0  0
  161.6340  204.0670  147.1980 C   0  0  0  0  0  0  0  0  0  0  0  0
  160.7280  203.7940  152.1930 C   0  0  0  0  0  1  0  0  0  0  0  0
  161.6130  204.9680  151.8170 C   0  0  0  0  0  2  0  0  0  0  0  0
  160.3980  202.5390  148.7020 O   0  0  0  0  0  0  0  0  0  0  0  0
  161.0490  201.3310  148.9910 C   0  0  0  0  0  0  0  0  0  0  0  0
  161.5660  200.6340  148.0770 O   0  0  0  0  0  0  0  0  0  0  0  0
  161.1840  200.9300  150.3120 O   0  0  0  0  0  1  0  0  0  0  0  0
  1 11  1  6  0  0  0
  1  8  1  0  0  0  0
  3  1  1  0  0  0  0
  3  9  1  0  0  0  0
  4 10  1  0  0  0  0
  6 13  1  0  0  0  0
  6  3  2  0  0  0  0
  8  2  2  0  0  0  0
  8  7  1  0  0  0  0
  9  5  2  0  0  0  0
  9  2  1  0  0  0  0
 10  7  2  0  0  0  0
 11  4  2  0  0  0  0
 12 25  1  0  0  0  0
 12  5  1  0  0  0  0
 13 12  2  0  0  0  0
 14 15  1  1  0  0  0
 14  6  1  0  0  0  0
 16 14  1  0  0  0  0
 16 17  1  1  0  0  0
 18 22  1  1  0  0  0
 18 16  1  0  0  0  0
 19 20  1  0  0  0  0
 19 21  1  0  0  0  0
 20 21  1  0  0  0  0
 21 18  1  0  0  0  0
 23 22  1  0  0  0  0
 24 25  2  0  0  0  0
 26 11  1  0  0  0  0
 27 26  1  0  0  0  0
 29 28  1  6  0  0  0
 29 31  1  0  0  0  0
 29 27  1  0  0  0  0
 30 38  1  0  0  0  0
 30 32  2  0  0  0  0
 31 37  1  0  0  0  0
 32 31  2  0  0  0  0
 33 35  1  0  0  0  0
 34 35  2  0  0  0  0
 35 30  1  0  0  0  0
 37 36  1  0  0  0  0
 38 39  1  0  0  0  0
 39 41  1  0  0  0  0
 40 39  2  0  0  0  0
M  END
>  <MODEL>
4

>  <REMARK>
 VINA RESULT:      -6.7      1.734      2.909
  Name = 
  14 active torsions:
  status: ('A' for Active; 'I' for Inactive)
    1  A    between atoms: C_4  and  C_9
    2  A    between atoms: C_4  and  C_18
    3  A    between atoms: O_6  and  C_14
    4  A    between atoms: C_9  and  C_14
    5  A    between atoms: C_12  and  O_35
    6  A    between atoms: C_14  and  C_30
    7  A    between atoms: C_20  and  O_35
    8  A    between atoms: C_20  and  C_39
    9  A    between atoms: C_21  and  C_34
   10  A    between atoms: C_21  and  C_36
   11  A    between atoms: C_22  and  C_25
   12  A    between atoms: C_22  and  C_37
   13  A    between atoms: C_25  and  C_36
   14  A    between atoms: S_33  and  C_38
                            x       y       z     vdW  Elec       q    Type
                         _______ _______ _______ _____ _____    ______ ____

>  <TORSDO>
F 14

$$$$
=
 OpenBabel11072413243D

 41 44  0  0  1  0  0  0  0  0999 V2000
  161.6930  207.7780  152.4940 C   0  0  1  0  0  3  0  0  0  0  0  0
  160.5270  208.0730  154.5360 N   0  0  0  0  0  0  0  0  0  0  0  0
  161.0240  209.1180  152.5290 C   0  0  0  0  0  0  0  0  0  0  0  0
  161.0660  205.5020  151.7380 C   0  0  0  0  0  3  0  0  0  0  0  0
  159.7630  210.4190  154.1370 C   0  0  0  0  0  3  0  0  0  0  0  0
  161.1540  210.2230  151.6740 C   0  0  0  0  0  0  0  0  0  0  0  0
  161.2860  205.8590  154.1220 N   0  0  0  0  0  0  0  0  0  0  0  0
  161.2620  207.2600  153.8460 C   0  0  0  0  0  0  0  0  0  0  0  0
  160.3980  209.2430  153.7490 C   0  0  0  0  0  0  0  0  0  0  0  0
  161.2160  205.0190  153.1320 C   0  0  0  0  0  3  0  0  0  0  0  0
  161.2060  206.8060  151.4330 C   0  0  0  0  0  0  0  0  0  0  0  0
  159.8000  211.5110  153.2570 C   0  0  0  0  0  0  0  0  0  0  0  0
  160.5180  211.4240  152.0500 C   0  0  0  0  0  3  0  0  0  0  0  0
  162.0850  210.1930  150.4980 C   0  0  2  0  0  3  0  0  0  0  0  0
  163.2800  210.8220  150.8530 O   0  0  0  0  0  1  0  0  0  0  0  0
  161.4730  210.8690  149.2660 C   0  0  2  0  0  3  0  0  0  0  0  0
  161.5280  210.0080  148.1680 O   0  0  0  0  0  1  0  0  0  0  0  0
  162.1610  212.1960  148.9400 C   0  0  2  0  0  3  0  0  0  0  0  0
  161.0940  214.4030  149.3770 C   0  0  0  0  0  2  0  0  0  0  0  0
  160.0260  213.3330  149.4680 C   0  0  0  0  0  2  0  0  0  0  0  0
  161.1370  213.2080  148.4440 C   0  0  0  0  0  3  0  0  0  0  0  0
  163.1580  212.0100  147.9770 O   0  0  0  0  0  0  0  0  0  0  0  0
  162.8520  212.9130  146.9600 C   0  0  0  0  0  1  0  0  0  0  0  0
  157.6920  212.5680  154.3350 O   0  0  0  0  0  0  0  0  0  0  0  0
  158.9980  213.0260  153.6990 S   0  0  0  0  0  3  0  0  0  0  0  0
  161.0140  207.2450  150.0170 C   0  0  0  0  0  2  0  0  0  0  0  0
  160.6000  206.0780  149.1310 C   0  0  0  0  0  2  0  0  0  0  0  0
  162.8370  206.3870  148.0880 C   0  0  0  0  0  1  0  0  0  0  0  0
  161.3670  206.0930  147.8160 C   0  0  1  0  0  3  0  0  0  0  0  0
  161.0930  202.4510  148.1320 C   0  0  0  0  0  0  0  0  0  0  0  0
  161.1470  204.8250  147.0210 C   0  0  0  0  0  0  0  0  0  0  0  0
  161.1140  203.6440  147.5890 C   0  0  0  0  0  0  0  0  0  0  0  0
  159.2050  201.6680  149.3180 O   0  0  0  0  0  0  0  0  0  0  0  0
  160.8530  202.6030  150.6060 O   0  0  0  0  0  1  0  0  0  0  0  0
  160.3340  202.2230  149.3710 C   0  0  0  0  0  0  0  0  0  0  0  0
  160.3060  206.2210  145.1590 C   0  0  0  0  0  1  0  0  0  0  0  0
  160.9380  204.8960  145.5450 C   0  0  0  0  0  2  0  0  0  0  0  0
  161.7430  201.3600  147.5280 O   0  0  0  0  0  0  0  0  0  0  0  0
  161.2370  200.6070  146.4590 C   0  0  0  0  0  0  0  0  0  0  0  0
  161.5290  199.3880  146.3240 O   0  0  0  0  0  1  0  0  0  0  0  0
  160.3460  201.1950  145.5730 O   0  0  0  0  0  0  0  0  0  0  0  0
  1 11  1  6  0  0  0
  1  3  1  0  0  0  0
  1  8  1  0  0  0  0
  3  9  1  0  0  0  0
  4 10  1  0  0  0  0
  6 13  1  0  0  0  0
  6  3  2  0  0  0  0
  8  7  1  0  0  0  0
  8  2  2  0  0  0  0
  9  5  2  0  0  0  0
  9  2  1  0  0  0  0
 10  7  2  0  0  0  0
 11  4  2  0  0  0  0
 12 25  1  0  0  0  0
 12  5  1  0  0  0  0
 13 12  2  0  0  0  0
 14 15  1  1  0  0  0
 14  6  1  0  0  0  0
 16 17  1  6  0  0  0
 16 14  1  0  0  0  0
 18 22  1  6  0  0  0
 18 16  1  0  0  0  0
 19 20  1  0  0  0  0
 21 18  1  0  0  0  0
 21 19  1  0  0  0  0
 21 20  1  0  0  0  0
 23 22  1  0  0  0  0
 25 24  2  0  0  0  0
 26 11  1  0  0  0  0
 27 26  1  0  0  0  0
 29 28  1  1  0  0  0
 29 27  1  0  0  0  0
 30 35  1  0  0  0  0
 31 32  2  0  0  0  0
 31 29  1  0  0  0  0
 32 30  2  0  0  0  0
 33 35  2  0  0  0  0
 35 34  1  0  0  0  0
 36 37  1  0  0  0  0
 37 31  1  0  0  0  0
 38 30  1  0  0  0  0
 39 38  1  0  0  0  0
 40 39  1  0  0  0  0
 41 39  2  0  0  0  0
M  END
>  <MODEL>
5

>  <REMARK>
 VINA RESULT:      -6.6      1.720      2.634
  Name = 
  14 active torsions:
  status: ('A' for Active; 'I' for Inactive)
    1  A    between atoms: C_4  and  C_9
    2  A    between atoms: C_4  and  C_18
    3  A    between atoms: O_6  and  C_14
    4  A    between atoms: C_9  and  C_14
    5  A    between atoms: C_12  and  O_35
    6  A    between atoms: C_14  and  C_30
    7  A    between atoms: C_20  and  O_35
    8  A    between atoms: C_20  and  C_39
    9  A    between atoms: C_21  and  C_34
   10  A    between atoms: C_21  and  C_36
   11  A    between atoms: C_22  and  C_25
   12  A    between atoms: C_22  and  C_37
   13  A    between atoms: C_25  and  C_36
   14  A    between atoms: S_33  and  C_38
                            x       y       z     vdW  Elec       q    Type
                         _______ _______ _______ _____ _____    ______ ____

>  <TORSDO>
F 14

$$$$
=
 OpenBabel11072413243D

 41 44  0  0  1  0  0  0  0  0999 V2000
  160.7000  208.3460  151.5930 C   0  0  1  0  0  3  0  0  0  0  0  0
  160.9050  207.1910  153.6530 N   0  0  0  0  0  0  0  0  0  0  0  0
  161.1060  206.9230  151.3600 C   0  0  0  0  0  0  0  0  0  0  0  0
  161.8850  210.4920  151.9580 C   0  0  0  0  0  3  0  0  0  0  0  0
  161.4300  204.9370  152.7100 C   0  0  0  0  0  3  0  0  0  0  0  0
  161.1740  206.1790  150.1730 C   0  0  0  0  0  0  0  0  0  0  0  0
  160.6890  209.5510  153.8400 N   0  0  0  0  0  0  0  0  0  0  0  0
  160.6250  208.3300  153.1020 C   0  0  0  0  0  0  0  0  0  0  0  0
  161.1720  206.2990  152.5870 C   0  0  0  0  0  0  0  0  0  0  0  0
  161.2630  210.5860  153.3000 C   0  0  0  0  0  3  0  0  0  0  0  0
  161.6980  209.4120  151.1770 C   0  0  0  0  0  0  0  0  0  0  0  0
  161.5940  204.1870  151.5360 C   0  0  0  0  0  0  0  0  0  0  0  0
  161.4340  204.7960  150.2780 C   0  0  0  0  0  3  0  0  0  0  0  0
  160.8000  206.7830  148.8520 C   0  0  2  0  0  3  0  0  0  0  0  0
  159.4580  206.5020  148.5910 O   0  0  0  0  0  1  0  0  0  0  0  0
  161.6850  206.2620  147.7150 C   0  0  2  0  0  3  0  0  0  0  0  0
  162.3970  207.3160  147.1370 O   0  0  0  0  0  1  0  0  0  0  0  0
  160.8730  205.5200  146.6510 C   0  0  2  0  0  3  0  0  0  0  0  0
  160.8340  203.0300  146.6450 C   0  0  0  0  0  2  0  0  0  0  0  0
  162.0380  203.4840  147.4430 C   0  0  0  0  0  2  0  0  0  0  0  0
  161.6090  204.2600  146.2150 C   0  0  0  0  0  3  0  0  0  0  0  0
  160.6360  206.3450  145.5470 O   0  0  0  0  0  0  0  0  0  0  0  0
  161.0670  205.6080  144.4450 C   0  0  0  0  0  1  0  0  0  0  0  0
  161.0790  201.8540  150.5310 O   0  0  0  0  0  0  0  0  0  0  0  0
  161.9350  202.4530  151.6390 S   0  0  0  0  0  3  0  0  0  0  0  0
  162.3730  209.3540  149.8450 C   0  0  0  0  0  2  0  0  0  0  0  0
  161.7130  210.3010  148.8510 C   0  0  0  0  0  2  0  0  0  0  0  0
  163.5980  211.8090  148.2550 C   0  0  0  0  0  1  0  0  0  0  0  0
  162.2670  211.7120  148.9900 C   0  0  1  0  0  3  0  0  0  0  0  0
  159.0330  213.2080  149.8520 C   0  0  0  0  0  0  0  0  0  0  0  0
  161.2650  212.7560  148.5520 C   0  0  0  0  0  0  0  0  0  0  0  0
  160.1560  212.9790  149.2150 C   0  0  0  0  0  0  0  0  0  0  0  0
  158.5890  212.3630  152.0140 O   0  0  0  0  0  1  0  0  0  0  0  0
  159.5270  214.4530  151.9520 O   0  0  0  0  0  0  0  0  0  0  0  0
  159.0320  213.3150  151.3190 C   0  0  0  0  0  0  0  0  0  0  0  0
  161.0000  212.9030  146.0960 C   0  0  0  0  0  1  0  0  0  0  0  0
  161.5330  213.5870  147.3420 C   0  0  0  0  0  2  0  0  0  0  0  0
  157.8260  213.4060  149.1590 O   0  0  0  0  0  0  0  0  0  0  0  0
  157.6570  213.2770  147.7730 C   0  0  0  0  0  0  0  0  0  0  0  0
  157.2060  212.2150  147.2670 O   0  0  0  0  0  1  0  0  0  0  0  0
  157.9290  214.3610  146.9510 O   0  0  0  0  0  0  0  0  0  0  0  0
  1 11  1  1  0  0  0
  1  8  1  0  0  0  0
  3  1  1  0  0  0  0
  3  9  1  0  0  0  0
  4 10  1  0  0  0  0
  6 13  1  0  0  0  0
  6  3  2  0  0  0  0
  8  2  2  0  0  0  0
  8  7  1  0  0  0  0
  9  5  2  0  0  0  0
  9  2  1  0  0  0  0
 10  7  2  0  0  0  0
 11  4  2  0  0  0  0
 12 25  1  0  0  0  0
 12  5  1  0  0  0  0
 13 12  2  0  0  0  0
 14 15  1  6  0  0  0
 14  6  1  0  0  0  0
 16 17  1  6  0  0  0
 16 14  1  0  0  0  0
 18 22  1  6  0  0  0
 18 16  1  0  0  0  0
 19 20  1  0  0  0  0
 21 19  1  0  0  0  0
 21 18  1  0  0  0  0
 21 20  1  0  0  0  0
 23 22  1  0  0  0  0
 24 25  2  0  0  0  0
 26 11  1  0  0  0  0
 27 29  1  0  0  0  0
 27 26  1  0  0  0  0
 29 28  1  6  0  0  0
 30 35  1  0  0  0  0
 31 29  1  0  0  0  0
 31 32  2  0  0  0  0
 32 30  2  0  0  0  0
 35 34  2  0  0  0  0
 35 33  1  0  0  0  0
 36 37  1  0  0  0  0
 37 31  1  0  0  0  0
 38 30  1  0  0  0  0
 39 38  1  0  0  0  0
 40 39  1  0  0  0  0
 41 39  2  0  0  0  0
M  END
>  <MODEL>
6

>  <REMARK>
 VINA RESULT:      -6.5      2.846      8.061
  Name = 
  14 active torsions:
  status: ('A' for Active; 'I' for Inactive)
    1  A    between atoms: C_4  and  C_9
    2  A    between atoms: C_4  and  C_18
    3  A    between atoms: O_6  and  C_14
    4  A    between atoms: C_9  and  C_14
    5  A    between atoms: C_12  and  O_35
    6  A    between atoms: C_14  and  C_30
    7  A    between atoms: C_20  and  O_35
    8  A    between atoms: C_20  and  C_39
    9  A    between atoms: C_21  and  C_34
   10  A    between atoms: C_21  and  C_36
   11  A    between atoms: C_22  and  C_25
   12  A    between atoms: C_22  and  C_37
   13  A    between atoms: C_25  and  C_36
   14  A    between atoms: S_33  and  C_38
                            x       y       z     vdW  Elec       q    Type
                         _______ _______ _______ _____ _____    ______ ____

>  <TORSDO>
F 14

$$$$
=
 OpenBabel11072413243D

 41 44  0  0  1  0  0  0  0  0999 V2000
  161.1760  209.3540  153.8320 C   0  0  1  0  0  3  0  0  0  0  0  0
  159.9760  209.9720  155.7810 N   0  0  0  0  0  0  0  0  0  0  0  0
  160.2370  210.4840  153.5360 C   0  0  0  0  0  0  0  0  0  0  0  0
  161.0470  206.8800  153.7760 C   0  0  0  0  0  3  0  0  0  0  0  0
  158.7300  211.9010  154.7950 C   0  0  0  0  0  3  0  0  0  0  0  0
  160.1280  211.3030  152.4020 C   0  0  0  0  0  0  0  0  0  0  0  0
  161.1890  207.9350  155.9500 N   0  0  0  0  0  0  0  0  0  0  0  0
  160.8670  209.1650  155.2990 C   0  0  0  0  0  0  0  0  0  0  0  0
  159.6000  210.8190  154.7100 C   0  0  0  0  0  0  0  0  0  0  0  0
  161.2990  206.8520  155.2370 C   0  0  0  0  0  3  0  0  0  0  0  0
  160.9060  208.0430  153.1140 C   0  0  0  0  0  0  0  0  0  0  0  0
  158.5320  212.6820  153.6480 C   0  0  0  0  0  0  0  0  0  0  0  0
  159.2510  212.4060  152.4700 C   0  0  0  0  0  3  0  0  0  0  0  0
  161.0430  211.1310  151.2260 C   0  0  2  0  0  3  0  0  0  0  0  0
  162.3270  210.8420  151.6920 O   0  0  0  0  0  1  0  0  0  0  0  0
  161.0670  212.3770  150.3340 C   0  0  2  0  0  3  0  0  0  0  0  0
  159.7690  212.8590  150.1460 O   0  0  0  0  0  1  0  0  0  0  0  0
  161.7350  212.1030  148.9840 C   0  0  2  0  0  3  0  0  0  0  0  0
  162.6360  213.5070  147.1360 C   0  0  0  0  0  2  0  0  0  0  0  0
  162.3320  214.4100  148.3130 C   0  0  0  0  0  2  0  0  0  0  0  0
  161.4280  213.2320  148.0100 C   0  0  0  0  0  3  0  0  0  0  0  0
  161.3010  210.8830  148.4580 O   0  0  0  0  0  0  0  0  0  0  0  0
  162.4310  210.0670  148.4550 C   0  0  0  0  0  1  0  0  0  0  0  0
  156.5770  213.8910  152.4500 O   0  0  0  0  0  0  0  0  0  0  0  0
  157.4270  214.0640  153.7010 S   0  0  0  0  0  3  0  0  0  0  0  0
  160.6230  208.0140  151.6470 C   0  0  0  0  0  2  0  0  0  0  0  0
  161.5380  207.0300  150.9300 C   0  0  0  0  0  2  0  0  0  0  0  0
  160.8250  206.9460  148.5490 C   0  0  0  0  0  1  0  0  0  0  0  0
  160.7690  206.2270  149.8910 C   0  0  1  0  0  3  0  0  0  0  0  0
  161.3370  203.4400  147.5780 C   0  0  0  0  0  0  0  0  0  0  0  0
  161.2450  204.7930  149.8210 C   0  0  0  0  0  0  0  0  0  0  0  0
  161.2950  204.1290  148.6920 C   0  0  0  0  0  0  0  0  0  0  0  0
  161.2870  203.9060  145.2610 O   0  0  0  0  0  0  0  0  0  0  0  0
  163.0610  204.7990  146.4030 O   0  0  0  0  0  1  0  0  0  0  0  0
  161.8880  204.0510  146.3590 C   0  0  0  0  0  0  0  0  0  0  0  0
  160.5090  203.6810  151.9060 C   0  0  0  0  0  1  0  0  0  0  0  0
  161.7000  204.0970  151.0610 C   0  0  0  0  0  2  0  0  0  0  0  0
  160.9110  202.1000  147.5290 O   0  0  0  0  0  0  0  0  0  0  0  0
  160.6880  201.2800  148.6450 C   0  0  0  0  0  0  0  0  0  0  0  0
  161.5920  200.5230  149.0890 O   0  0  0  0  0  0  0  0  0  0  0  0
  159.4730  201.3550  149.3120 O   0  0  0  0  0  1  0  0  0  0  0  0
  1 11  1  6  0  0  0
  1  8  1  0  0  0  0
  3  1  1  0  0  0  0
  3  9  1  0  0  0  0
  4 10  1  0  0  0  0
  6 13  1  0  0  0  0
  6  3  2  0  0  0  0
  8  2  2  0  0  0  0
  8  7  1  0  0  0  0
  9  5  2  0  0  0  0
  9  2  1  0  0  0  0
 10  7  2  0  0  0  0
 11  4  2  0  0  0  0
 12 25  1  0  0  0  0
 12  5  1  0  0  0  0
 13 12  2  0  0  0  0
 14 15  1  1  0  0  0
 14  6  1  0  0  0  0
 16 17  1  6  0  0  0
 16 14  1  0  0  0  0
 18 22  1  6  0  0  0
 18 16  1  0  0  0  0
 19 21  1  0  0  0  0
 19 20  1  0  0  0  0
 21 20  1  0  0  0  0
 21 18  1  0  0  0  0
 23 22  1  0  0  0  0
 24 25  2  0  0  0  0
 26 11  1  0  0  0  0
 27 26  1  0  0  0  0
 29 28  1  6  0  0  0
 29 27  1  0  0  0  0
 30 32  2  0  0  0  0
 31 29  1  0  0  0  0
 31 37  1  0  0  0  0
 32 31  2  0  0  0  0
 33 35  2  0  0  0  0
 35 34  1  0  0  0  0
 35 30  1  0  0  0  0
 37 36  1  0  0  0  0
 38 30  1  0  0  0  0
 38 39  1  0  0  0  0
 39 40  2  0  0  0  0
 39 41  1  0  0  0  0
M  END
>  <MODEL>
7

>  <REMARK>
 VINA RESULT:      -6.3      1.343      1.975
  Name = 
  14 active torsions:
  status: ('A' for Active; 'I' for Inactive)
    1  A    between atoms: C_4  and  C_9
    2  A    between atoms: C_4  and  C_18
    3  A    between atoms: O_6  and  C_14
    4  A    between atoms: C_9  and  C_14
    5  A    between atoms: C_12  and  O_35
    6  A    between atoms: C_14  and  C_30
    7  A    between atoms: C_20  and  O_35
    8  A    between atoms: C_20  and  C_39
    9  A    between atoms: C_21  and  C_34
   10  A    between atoms: C_21  and  C_36
   11  A    between atoms: C_22  and  C_25
   12  A    between atoms: C_22  and  C_37
   13  A    between atoms: C_25  and  C_36
   14  A    between atoms: S_33  and  C_38
                            x       y       z     vdW  Elec       q    Type
                         _______ _______ _______ _____ _____    ______ ____

>  <TORSDO>
F 14

$$$$
=
 OpenBabel11072413243D

 41 44  0  0  1  0  0  0  0  0999 V2000
  161.8050  207.2540  151.7980 C   0  0  1  0  0  3  0  0  0  0  0  0
  160.8560  207.2050  153.9700 N   0  0  0  0  0  0  0  0  0  0  0  0
  161.1570  208.5670  152.1190 C   0  0  0  0  0  0  0  0  0  0  0  0
  161.0790  205.1290  150.7500 C   0  0  0  0  0  3  0  0  0  0  0  0
  160.0800  209.5800  154.0380 C   0  0  0  0  0  3  0  0  0  0  0  0
  161.2110  209.7970  151.4470 C   0  0  0  0  0  0  0  0  0  0  0  0
  161.5450  205.0930  153.1250 N   0  0  0  0  0  0  0  0  0  0  0  0
  161.5080  206.5200  153.0850 C   0  0  0  0  0  0  0  0  0  0  0  0
  160.6600  208.4870  153.4010 C   0  0  0  0  0  0  0  0  0  0  0  0
  161.3660  204.4250  152.0230 C   0  0  0  0  0  3  0  0  0  0  0  0
  161.2010  206.4650  150.6490 C   0  0  0  0  0  0  0  0  0  0  0  0
  160.0390  210.8010  153.3490 C   0  0  0  0  0  0  0  0  0  0  0  0
  160.6300  210.9170  152.0770 C   0  0  0  0  0  3  0  0  0  0  0  0
  162.0170  209.9640  150.1930 C   0  0  2  0  0  3  0  0  0  0  0  0
  163.2680  210.4870  150.5280 O   0  0  0  0  0  1  0  0  0  0  0  0
  161.3140  210.8740  149.1790 C   0  0  2  0  0  3  0  0  0  0  0  0
  161.2040  210.2260  147.9470 O   0  0  0  0  0  1  0  0  0  0  0  0
  162.0350  212.2140  149.0150 C   0  0  2  0  0  3  0  0  0  0  0  0
  160.8970  214.2980  149.7640 C   0  0  0  0  0  2  0  0  0  0  0  0
  159.8440  213.2300  149.5600 C   0  0  0  0  0  2  0  0  0  0  0  0
  161.0390  213.3000  148.6310 C   0  0  0  0  0  3  0  0  0  0  0  0
  163.0390  212.1180  148.0470 O   0  0  0  0  0  0  0  0  0  0  0  0
  162.7250  213.0930  147.1010 C   0  0  0  0  0  1  0  0  0  0  0  0
  158.3880  211.6200  155.1720 O   0  0  0  0  0  0  0  0  0  0  0  0
  159.3030  212.2190  154.1120 S   0  0  0  0  0  3  0  0  0  0  0  0
  160.8710  207.1280  149.3510 C   0  0  0  0  0  2  0  0  0  0  0  0
  160.3090  206.1280  148.3500 C   0  0  0  0  0  2  0  0  0  0  0  0
  161.9790  207.3850  147.0020 C   0  0  0  0  0  1  0  0  0  0  0  0
  161.1240  206.1260  147.0640 C   0  0  1  0  0  3  0  0  0  0  0  0
  160.8490  202.5990  146.1000 C   0  0  0  0  0  0  0  0  0  0  0  0
  161.9220  204.8510  146.9060 C   0  0  0  0  0  0  0  0  0  0  0  0
  161.3760  203.7330  146.4940 C   0  0  0  0  0  0  0  0  0  0  0  0
  159.6810  203.6470  144.3320 O   0  0  0  0  0  0  0  0  0  0  0  0
  159.3320  201.3910  144.5370 O   0  0  0  0  0  1  0  0  0  0  0  0
  159.9280  202.5790  144.9530 C   0  0  0  0  0  0  0  0  0  0  0  0
  164.1680  204.3180  146.0120 C   0  0  0  0  0  1  0  0  0  0  0  0
  163.3860  204.8460  147.2010 C   0  0  0  0  0  2  0  0  0  0  0  0
  161.1840  201.3820  146.7190 O   0  0  0  0  0  0  0  0  0  0  0  0
  160.8940  201.0430  148.0480 C   0  0  0  0  0  0  0  0  0  0  0  0
  161.5960  200.2060  148.6760 O   0  0  0  0  0  0  0  0  0  0  0  0
  159.8560  201.6890  148.7050 O   0  0  0  0  0  1  0  0  0  0  0  0
  1 11  1  6  0  0  0
  1  3  1  0  0  0  0
  1  8  1  0  0  0  0
  3  9  1  0  0  0  0
  4 10  1  0  0  0  0
  6 13  1  0  0  0  0
  6  3  2  0  0  0  0
  8  7  1  0  0  0  0
  8  2  2  0  0  0  0
  9  2  1  0  0  0  0
  9  5  2  0  0  0  0
 10  7  2  0  0  0  0
 11  4  2  0  0  0  0
 12  5  1  0  0  0  0
 12 25  1  0  0  0  0
 13 12  2  0  0  0  0
 14 15  1  1  0  0  0
 14  6  1  0  0  0  0
 16 17  1  6  0  0  0
 16 14  1  0  0  0  0
 18 22  1  6  0  0  0
 18 16  1  0  0  0  0
 20 19  1  0  0  0  0
 21 18  1  0  0  0  0
 21 20  1  0  0  0  0
 21 19  1  0  0  0  0
 23 22  1  0  0  0  0
 25 24  2  0  0  0  0
 26 11  1  0  0  0  0
 27 26  1  0  0  0  0
 29 28  1  1  0  0  0
 29 27  1  0  0  0  0
 30 32  2  0  0  0  0
 30 38  1  0  0  0  0
 31 29  1  0  0  0  0
 31 37  1  0  0  0  0
 32 31  2  0  0  0  0
 33 35  2  0  0  0  0
 34 35  1  0  0  0  0
 35 30  1  0  0  0  0
 36 37  1  0  0  0  0
 38 39  1  0  0  0  0
 39 40  2  0  0  0  0
 39 41  1  0  0  0  0
M  END
>  <MODEL>
8

>  <REMARK>
 VINA RESULT:      -5.6      1.721      2.932
  Name = 
  14 active torsions:
  status: ('A' for Active; 'I' for Inactive)
    1  A    between atoms: C_4  and  C_9
    2  A    between atoms: C_4  and  C_18
    3  A    between atoms: O_6  and  C_14
    4  A    between atoms: C_9  and  C_14
    5  A    between atoms: C_12  and  O_35
    6  A    between atoms: C_14  and  C_30
    7  A    between atoms: C_20  and  O_35
    8  A    between atoms: C_20  and  C_39
    9  A    between atoms: C_21  and  C_34
   10  A    between atoms: C_21  and  C_36
   11  A    between atoms: C_22  and  C_25
   12  A    between atoms: C_22  and  C_37
   13  A    between atoms: C_25  and  C_36
   14  A    between atoms: S_33  and  C_38
                            x       y       z     vdW  Elec       q    Type
                         _______ _______ _______ _____ _____    ______ ____

>  <TORSDO>
F 14

$$$$
=
 OpenBabel11072413243D

 41 44  0  0  1  0  0  0  0  0999 V2000
  160.7360  205.6400  151.7920 C   0  0  1  0  0  3  0  0  0  0  0  0
  160.8100  203.4200  152.6190 N   0  0  0  0  0  0  0  0  0  0  0  0
  160.9980  204.6720  150.6790 C   0  0  0  0  0  0  0  0  0  0  0  0
  162.1290  206.9440  153.3730 C   0  0  0  0  0  3  0  0  0  0  0  0
  161.1120  202.2660  150.4230 C   0  0  0  0  0  3  0  0  0  0  0  0
  160.9990  204.8620  149.2890 C   0  0  0  0  0  0  0  0  0  0  0  0
  160.8310  205.1150  154.2850 N   0  0  0  0  0  0  0  0  0  0  0  0
  160.6500  204.6640  152.9420 C   0  0  0  0  0  0  0  0  0  0  0  0
  160.9930  203.4040  151.2160 C   0  0  0  0  0  0  0  0  0  0  0  0
  161.5100  206.2040  154.5000 C   0  0  0  0  0  3  0  0  0  0  0  0
  161.8390  206.6390  152.0950 C   0  0  0  0  0  0  0  0  0  0  0  0
  161.2070  202.4350  149.0340 C   0  0  0  0  0  0  0  0  0  0  0  0
  161.1180  203.7210  148.4690 C   0  0  0  0  0  3  0  0  0  0  0  0
  160.6970  206.2020  148.6860 C   0  0  2  0  0  3  0  0  0  0  0  0
  159.3840  206.1980  148.2110 O   0  0  0  0  0  1  0  0  0  0  0  0
  161.6720  206.5520  147.5560 C   0  0  2  0  0  3  0  0  0  0  0  0
  161.6870  207.9330  147.3440 O   0  0  0  0  0  1  0  0  0  0  0  0
  161.3310  205.8170  146.2570 C   0  0  2  0  0  3  0  0  0  0  0  0
  162.7380  204.0210  145.2600 C   0  0  0  0  0  2  0  0  0  0  0  0
  163.5400  204.7030  146.3490 C   0  0  0  0  0  2  0  0  0  0  0  0
  162.6040  205.5160  145.4780 C   0  0  0  0  0  3  0  0  0  0  0  0
  160.4560  206.5780  145.4750 O   0  0  0  0  0  0  0  0  0  0  0  0
  159.5980  205.6520  144.8860 C   0  0  0  0  0  1  0  0  0  0  0  0
  160.8310  201.5040  146.6440 O   0  0  0  0  0  0  0  0  0  0  0  0
  161.3710  201.0190  147.9830 S   0  0  0  0  0  3  0  0  0  0  0  0
  162.5140  207.3950  150.9980 C   0  0  0  0  0  2  0  0  0  0  0  0
  161.6960  208.6110  150.5840 C   0  0  0  0  0  2  0  0  0  0  0  0
  162.7080  210.8640  150.2920 C   0  0  0  0  0  1  0  0  0  0  0  0
  162.1730  209.8630  151.3070 C   0  0  1  0  0  3  0  0  0  0  0  0
  160.9470  209.8750  154.7620 C   0  0  0  0  0  0  0  0  0  0  0  0
  161.1010  210.4370  152.2060 C   0  0  0  0  0  0  0  0  0  0  0  0
  161.0390  210.1550  153.4850 C   0  0  0  0  0  0  0  0  0  0  0  0
  163.0810  210.7040  155.3530 O   0  0  0  0  0  0  0  0  0  0  0  0
  162.2800  209.0200  156.6850 O   0  0  0  0  0  1  0  0  0  0  0  0
  162.1530  209.8890  155.6040 C   0  0  0  0  0  0  0  0  0  0  0  0
  159.7300  212.4450  152.6630 C   0  0  0  0  0  1  0  0  0  0  0  0
  160.0820  211.3730  151.6480 C   0  0  0  0  0  2  0  0  0  0  0  0
  159.7050  209.6080  155.3650 O   0  0  0  0  0  0  0  0  0  0  0  0
  158.8680  210.5670  155.9530 C   0  0  0  0  0  0  0  0  0  0  0  0
  159.1360  211.0640  157.0800 O   0  0  0  0  0  1  0  0  0  0  0  0
  157.7610  211.0250  155.2530 O   0  0  0  0  0  0  0  0  0  0  0  0
  1  3  1  6  0  0  0
  1 11  1  0  0  0  0
  1  8  1  0  0  0  0
  2  8  2  0  0  0  0
  3  9  1  0  0  0  0
  4 10  1  0  0  0  0
  5  9  2  0  0  0  0
  6  3  2  0  0  0  0
  7 10  2  0  0  0  0
  8  7  1  0  0  0  0
  9  2  1  0  0  0  0
 11  4  2  0  0  0  0
 12  5  1  0  0  0  0
 13 12  2  0  0  0  0
 13  6  1  0  0  0  0
 14 15  1  6  0  0  0
 14  6  1  0  0  0  0
 16 17  1  6  0  0  0
 16 14  1  0  0  0  0
 18 22  1  6  0  0  0
 18 16  1  0  0  0  0
 19 21  1  0  0  0  0
 19 20  1  0  0  0  0
 21 18  1  0  0  0  0
 21 20  1  0  0  0  0
 23 22  1  0  0  0  0
 24 25  2  0  0  0  0
 25 12  1  0  0  0  0
 26 11  1  0  0  0  0
 27 26  1  0  0  0  0
 27 29  1  0  0  0  0
 29 28  1  6  0  0  0
 29 31  1  0  0  0  0
 30 38  1  0  0  0  0
 30 35  1  0  0  0  0
 31 32  2  0  0  0  0
 32 30  2  0  0  0  0
 33 35  2  0  0  0  0
 35 34  1  0  0  0  0
 37 31  1  0  0  0  0
 37 36  1  0  0  0  0
 38 39  1  0  0  0  0
 39 40  1  0  0  0  0
 41 39  2  0  0  0  0
M  END
>  <MODEL>
9

>  <REMARK>
 VINA RESULT:      -5.5      3.374      8.573
  Name = 
  14 active torsions:
  status: ('A' for Active; 'I' for Inactive)
    1  A    between atoms: C_4  and  C_9
    2  A    between atoms: C_4  and  C_18
    3  A    between atoms: O_6  and  C_14
    4  A    between atoms: C_9  and  C_14
    5  A    between atoms: C_12  and  O_35
    6  A    between atoms: C_14  and  C_30
    7  A    between atoms: C_20  and  O_35
    8  A    between atoms: C_20  and  C_39
    9  A    between atoms: C_21  and  C_34
   10  A    between atoms: C_21  and  C_36
   11  A    between atoms: C_22  and  C_25
   12  A    between atoms: C_22  and  C_37
   13  A    between atoms: C_25  and  C_36
   14  A    between atoms: S_33  and  C_38
                            x       y       z     vdW  Elec       q    Type
                         _______ _______ _______ _____ _____    ______ ____

>  <TORSDO>
F 14

$$$$
