=
 OpenBabel11072410063D

 69 80  0  0  1  0  0  0  0  0999 V2000
  162.7270  201.5670  150.2620 C   0  0  0  0  0  2  0  0  0  0  0  0
  161.6080  204.2200  149.3390 C   0  0  1  0  0  3  0  0  0  0  0  0
  160.3800  211.6450  153.8850 C   0  0  0  0  0  0  0  0  0  0  0  0
  160.8740  203.0390  147.2820 O   0  0  0  0  0  0  0  0  0  0  0  0
  160.2000  205.4610  151.0320 C   0  0  1  0  0  3  0  0  0  0  0  0
  164.2980  210.0100  148.4570 C   0  0  0  0  0  2  0  0  0  0  0  0
  163.3820  209.0370  147.7030 C   0  0  0  0  0  2  0  0  0  0  0  0
  161.9580  201.5570  148.9670 C   0  0  1  0  0  3  0  0  0  0  0  0
  160.6120  206.4480  149.9810 C   0  0  1  0  0  3  0  0  0  0  0  0
  161.7940  208.8920  149.6470 C   0  0  2  0  0  3  0  0  0  0  0  0
  161.1300  210.7360  151.3320 C   0  0  1  0  0  3  0  0  0  0  0  0
  161.9720  209.3110  148.2200 C   0  0  2  0  0  0  0  0  0  0  0  0
  161.0890  211.7940  148.2460 C   0  0  0  0  0  1  0  0  0  0  0  0
  160.8890  207.9560  150.3820 C   0  0  2  0  0  3  0  0  0  0  0  0
  160.5580  208.3340  151.6960 C   0  0  0  0  0  0  0  0  0  0  0  0
  161.6310  210.2890  150.1510 N   0  0  2  0  0  0  0  0  0  0  0  0
  161.1830  205.6150  148.7490 C   0  0  1  0  0  3  0  0  0  0  0  0
  161.3640  203.1730  151.7260 C   0  0  0  0  0  0  0  0  0  0  0  0
  160.7320  204.0290  150.6080 C   0  0  2  0  0  3  0  0  0  0  0  0
  159.9490  207.3490  152.6510 C   0  0  0  0  0  2  0  0  0  0  0  0
  160.0980  210.2060  153.5190 C   0  0  0  0  0  2  0  0  0  0  0  0
  160.6840  212.5360  152.9780 N   0  0  0  0  0  0  0  0  0  0  0  0
  160.8810  212.1750  151.5770 C   0  0  0  0  0  2  0  0  0  0  0  0
  161.4050  203.5280  152.8540 O   0  0  0  0  0  0  0  0  0  0  0  0
  160.7670  209.0390  147.3080 C   0  0  0  0  0  1  0  0  0  0  0  0
  161.9880  210.7250  148.7810 C   0  0  1  0  0  0  0  0  0  0  0  0
  161.8130  203.0070  148.2960 C   0  0  2  0  0  3  0  0  0  0  0  0
  160.6990  209.7520  152.2510 C   0  0  0  0  0  0  0  0  0  0  0  0
  163.4550  211.2200  148.7220 C   0  0  0  0  0  2  0  0  0  0  0  0
  161.7830  201.7330  151.4290 C   0  0  0  0  0  2  0  0  0  0  0  0
  160.5180  205.9610  152.4540 C   0  0  0  0  0  2  0  0  0  0  0  0
  163.2200  205.6140  147.1990 C   0  0  0  0  0  2  0  0  0  0  0  0
  162.3010  206.3820  148.0180 C   0  0  1  0  0  3  0  0  0  0  0  0
  162.1500  206.3340  146.5340 N   0  0  0  0  0  0  0  0  0  0  0  0
  161.3830  205.2490  145.8820 C   0  0  0  0  0  2  0  0  0  0  0  0
  160.0930  206.8390  144.5810 O   0  0  0  0  0  1  0  0  0  0  0  0
  160.8720  205.6870  144.4620 C   0  0  1  0  0  3  0  0  0  0  0  0
  162.0420  205.9190  143.4880 C   0  0  0  0  0  2  0  0  0  0  0  0
  161.6960  206.0570  142.0620 N   0  0  0  0  0  0  0  0  0  0  0  0
  162.4550  206.8990  141.1330 C   0  0  0  0  0  0  0  0  0  0  0  0
  160.8860  205.1280  141.4840 O   0  0  0  0  0  1  0  0  0  0  0  0
  163.5310  207.3700  141.6470 O   0  0  0  0  0  0  0  0  0  0  0  0
  162.0720  207.0070  139.6450 C   0  0  0  0  0  2  0  0  0  0  0  0
  160.9220  207.9600  139.2180 C   0  0  0  0  0  2  0  0  0  0  0  0
  161.4720  209.4550  139.1910 C   0  0  0  0  0  2  0  0  0  0  0  0
  160.3930  210.4570  138.8260 N   0  0  0  0  0  0  0  0  0  0  0  0
  160.2010  211.5380  139.8600 C   0  0  0  0  0  2  0  0  0  0  0  0
  159.0280  212.6060  139.5650 C   0  0  0  0  0  1  0  0  0  0  0  0
  158.4530  209.6540  139.1990 F   0  0  0  0  0  0  0  0  0  0  0  0
  159.3150  209.5900  138.2140 C   0  0  0  0  0  2  0  0  0  0  0  0
  162.5740  200.3880  148.0430 C   0  0  0  0  0  2  0  0  0  0  0  0
  160.2740  202.0270  146.1490 C   0  0  1  0  0  3  0  0  0  0  0  0
  159.8540  199.7500  145.4680 C   0  0  1  0  0  3  0  0  0  0  0  0
  160.0090  202.0340  144.7120 C   0  0  1  0  0  3  0  0  0  0  0  0
  161.8310  198.8090  146.3060 N   0  0  0  0  0  2  0  0  0  0  0  0
  160.4250  200.5760  146.5350 N   0  0  1  0  0  0  0  0  0  0  0  0
  160.0160  200.5980  144.1790 C   0  0  0  0  0  2  0  0  0  0  0  0
  161.6910  200.0130  146.8310 C   0  0  1  0  0  3  0  0  0  0  0  0
  160.7410  198.6020  145.4510 N   0  0  0  0  0  2  0  0  0  0  0  0
  158.5530  202.4300  144.5010 C   0  0  0  0  0  2  0  0  0  0  0  0
  158.4830  203.6510  143.8620 O   0  0  0  0  0  1  0  0  0  0  0  0
  160.2020  212.0800  155.2570 O   0  0  0  0  0  0  0  0  0  0  0  0
  158.3350  211.4110  156.3900 O   0  0  0  0  0  0  0  0  0  0  0  0
  158.0830  213.4330  155.1470 C   0  0  0  0  0  2  0  0  0  0  0  0
  156.7300  212.7670  155.2580 C   0  0  0  0  0  2  0  0  0  0  0  0
  157.0830  211.3780  155.7170 C   0  0  0  0  0  2  0  0  0  0  0  0
  159.0300  212.5950  155.9620 C   0  0  2  0  0  0  0  0  0  0  0  0
  159.4850  213.3270  157.2480 C   0  0  0  0  0  2  0  0  0  0  0  0
  160.7700  213.8770  157.0940 O   0  0  0  0  0  1  0  0  0  0  0  0
  1 30  1  0  0  0  0
  2 19  1  0  0  0  0
  3 62  1  0  0  0  0
  4 27  1  0  0  0  0
  5 31  1  0  0  0  0
  6 29  1  0  0  0  0
  7 12  1  0  0  0  0
  7  6  1  0  0  0  0
  8  1  1  0  0  0  0
  9 14  1  0  0  0  0
  9  5  1  0  0  0  0
 10 16  1  0  0  0  0
 10 14  1  0  0  0  0
 11 23  1  0  0  0  0
 11 28  1  0  0  0  0
 12 26  1  0  0  0  0
 12 10  1  0  0  0  0
 13 26  1  0  0  0  0
 14 15  1  0  0  0  0
 15 28  2  0  0  0  0
 15 20  1  0  0  0  0
 16 11  1  0  0  0  0
 17  2  1  0  0  0  0
 17  9  1  0  0  0  0
 18 24  2  0  0  0  0
 19  5  1  0  0  0  0
 19 18  1  0  0  0  0
 21  3  1  0  0  0  0
 22  3  2  0  0  0  0
 23 22  1  0  0  0  0
 25 12  1  0  0  0  0
 26 16  1  0  0  0  0
 27  8  1  0  0  0  0
 27  2  1  0  0  0  0
 28 21  1  0  0  0  0
 29 26  1  0  0  0  0
 30 18  1  0  0  0  0
 31 20  1  0  0  0  0
 32 33  1  0  0  0  0
 33 17  1  0  0  0  0
 34 32  1  0  0  0  0
 34 33  1  0  0  0  0
 35 34  1  0  0  0  0
 37 36  1  0  0  0  0
 37 35  1  0  0  0  0
 38 37  1  0  0  0  0
 39 38  1  0  0  0  0
 40 42  2  0  0  0  0
 40 39  1  0  0  0  0
 41 39  1  0  0  0  0
 43 40  1  0  0  0  0
 44 43  1  0  0  0  0
 45 44  1  0  0  0  0
 46 45  1  0  0  0  0
 46 47  1  0  0  0  0
 48 47  1  0  0  0  0
 50 46  1  0  0  0  0
 50 49  1  0  0  0  0
 51  8  1  0  0  0  0
 52 56  1  0  0  0  0
 52  4  1  0  0  0  0
 53 56  1  0  0  0  0
 54 52  1  0  0  0  0
 55 58  1  0  0  0  0
 56 58  1  0  0  0  0
 57 54  1  0  0  0  0
 57 53  1  0  0  0  0
 58 51  1  0  0  0  0
 59 53  1  0  0  0  0
 59 55  1  0  0  0  0
 60 54  1  0  0  0  0
 61 60  1  0  0  0  0
 62 67  1  0  0  0  0
 64 65  1  0  0  0  0
 64 67  1  0  0  0  0
 65 66  1  0  0  0  0
 66 63  1  0  0  0  0
 67 63  1  0  0  0  0
 67 68  1  0  0  0  0
 69 68  1  0  0  0  0
M  END
>  <MODEL>
1

>  <REMARK>
 VINA RESULT:      11.9      0.000      0.000
  Name = 
  17 active torsions:
  status: ('A' for Active; 'I' for Inactive)
    1  A    between atoms: N_1  and  C_5
    2  A    between atoms: N_1  and  C_53
    3  A    between atoms: N_1  and  C_63
    4  A    between atoms: C_8  and  O_28
    5  A    between atoms: N_13  and  C_61
    6  A    between atoms: C_17  and  C_59
    7  A    between atoms: C_18  and  C_43
    8  A    between atoms: C_19  and  C_56
    9  A    between atoms: C_20  and  C_37
   10  A    between atoms: C_23  and  C_48
   11  A    between atoms: C_23  and  C_61
   12  A    between atoms: O_28  and  C_59
   13  A    between atoms: C_32  and  C_44
   14  A    between atoms: C_37  and  C_45
   15  A    between atoms: C_48  and  N_67
   16  A    between atoms: C_53  and  C_69
   17  A    between atoms: C_56  and  C_69
                            x       y       z     vdW  Elec       q    Type
                         _______ _______ _______ _____ _____    ______ ____

>  <TORSDO>
F 17

$$$$
