=
 OpenBabel11072409573D

 48 53  0  0  1  0  0  0  0  0999 V2000
  160.7840  210.6400  152.5370 C   0  0  0  0  0  3  0  0  0  0  0  0
  161.1760  210.6630  153.8110 C   0  0  0  0  0  0  0  0  0  0  0  0
  160.3470  211.8220  151.8690 N   0  0  0  0  0  2  0  0  0  0  0  0
  158.9840  212.2470  151.9210 C   0  0  0  0  0  0  0  0  0  0  0  0
  158.1100  211.5130  152.4540 O   0  0  0  0  0  0  0  0  0  0  0  0
  157.2080  213.6820  151.2230 O   0  0  0  0  0  1  0  0  0  0  0  0
  158.5970  213.5690  151.3280 C   0  0  2  0  0  3  0  0  0  0  0  0
  159.2700  213.8490  149.9790 C   0  0  0  0  0  2  0  0  0  0  0  0
  160.3150  213.8470  145.4390 C   0  0  2  0  0  0  0  0  0  0  0  0
  159.9860  212.1230  147.5000 C   0  0  2  0  0  3  0  0  0  0  0  0
  160.4290  214.3910  144.0050 C   0  0  2  0  0  3  0  0  0  0  0  0
  158.9690  214.4190  147.5360 C   0  0  1  0  0  3  0  0  0  0  0  0
  159.6800  213.3490  143.2050 C   0  0  0  0  0  2  0  0  0  0  0  0
  161.4910  213.9950  146.4480 C   0  0  2  0  0  3  0  0  0  0  0  0
  160.2450  212.3430  145.1670 C   0  0  2  0  0  3  0  0  0  0  0  0
  158.2930  213.9010  148.8060 C   0  0  1  0  0  3  0  0  0  0  0  0
  162.7350  213.7740  145.8460 O   0  0  0  0  0  1  0  0  0  0  0  0
  161.7490  214.4530  143.5530 O   0  0  0  0  0  1  0  0  0  0  0  0
  159.5440  212.1980  143.8700 C   0  0  0  0  0  2  0  0  0  0  0  0
  158.6730  212.9160  147.7610 C   0  0  2  0  0  0  0  0  0  0  0  0
  158.9790  214.4510  146.0070 C   0  0  0  0  0  2  0  0  0  0  0  0
  161.3180  212.9580  147.6070 C   0  0  0  0  0  2  0  0  0  0  0  0
  159.8520  211.4840  146.2300 O   0  0  0  0  0  0  0  0  0  0  0  0
  157.3970  212.3540  147.1300 C   0  0  0  0  0  1  0  0  0  0  0  0
  161.1960  211.8690  154.5100 O   0  0  0  0  0  0  0  0  0  0  0  0
  160.1200  212.2910  155.1920 O   0  0  0  0  0  1  0  0  0  0  0  0
  161.5750  209.3880  154.4960 C   0  0  1  0  0  3  0  0  0  0  0  0
  161.7590  209.6100  156.0010 C   0  0  0  0  0  3  0  0  0  0  0  0
  161.7650  208.3950  156.6950 O   0  0  0  0  0  1  0  0  0  0  0  0
  162.9530  210.2930  156.2410 O   0  0  0  0  0  1  0  0  0  0  0  0
  160.6450  208.3710  154.2390 O   0  0  0  0  0  0  0  0  0  0  0  0
  160.8040  204.8120  150.5260 C   0  0  0  0  0  0  0  0  0  0  0  0
  161.5610  207.7450  152.1190 C   0  0  0  0  0  2  0  0  0  0  0  0
  162.2960  206.6240  151.3790 C   0  0  0  0  0  2  0  0  0  0  0  0
  161.3620  207.3640  153.5870 C   0  0  2  0  0  3  0  0  0  0  0  0
  159.5450  204.8040  150.6210 O   0  0  0  0  0  0  0  0  0  0  0  0
  160.5890  206.0500  153.6900 C   0  0  0  0  0  2  0  0  0  0  0  0
  161.5920  205.3640  151.5850 N   0  0  0  0  0  0  0  0  0  0  0  0
  161.3400  204.9450  152.9580 C   0  0  0  0  0  2  0  0  0  0  0  0
  161.5690  205.0680  148.1720 C   0  0  0  0  0  0  0  0  0  0  0  0
  160.7150  202.9200  148.9940 N   0  0  0  0  0  2  0  0  0  0  0  0
  161.7810  206.3000  148.3540 O   0  0  0  0  0  0  0  0  0  0  0  0
  161.5550  204.5270  146.8370 N   0  0  0  0  0  0  0  0  0  0  0  0
  161.4490  204.1330  149.3540 C   0  0  2  0  0  3  0  0  0  0  0  0
  161.1440  203.1420  146.6030 C   0  0  0  0  0  2  0  0  0  0  0  0
  161.3690  202.2900  147.8510 C   0  0  0  0  0  2  0  0  0  0  0  0
  161.1720  204.7220  144.4310 C   0  0  0  0  0  1  0  0  0  0  0  0
  161.7310  205.3920  145.6780 C   0  0  0  0  0  2  0  0  0  0  0  0
  1  2  2  0  0  0  0
  2 25  1  0  0  0  0
  3  4  1  0  0  0  0
  3  1  1  0  0  0  0
  4  5  2  0  0  0  0
  7  6  1  6  0  0  0
  7  4  1  0  0  0  0
  8  7  1  0  0  0  0
  9 21  1  1  0  0  0
  9 14  1  0  0  0  0
 10 22  1  6  0  0  0
 10 20  1  0  0  0  0
 11 18  1  6  0  0  0
 11  9  1  0  0  0  0
 12 21  1  6  0  0  0
 12 20  1  0  0  0  0
 12 16  1  0  0  0  0
 13 19  1  0  0  0  0
 13 11  1  0  0  0  0
 14 17  1  6  0  0  0
 14 22  1  0  0  0  0
 15 19  1  6  0  0  0
 15  9  1  0  0  0  0
 15 23  1  0  0  0  0
 16  8  1  1  0  0  0
 20 24  1  6  0  0  0
 20 16  1  0  0  0  0
 23 10  1  0  0  0  0
 25 26  1  0  0  0  0
 27  2  1  6  0  0  0
 27 28  1  0  0  0  0
 28 30  1  0  0  0  0
 28 29  1  0  0  0  0
 31 27  1  0  0  0  0
 32 36  2  0  0  0  0
 32 38  1  0  0  0  0
 33 35  1  0  0  0  0
 34 38  1  0  0  0  0
 34 33  1  0  0  0  0
 35 37  1  0  0  0  0
 35 31  1  1  0  0  0
 38 39  1  0  0  0  0
 39 37  1  0  0  0  0
 40 42  2  0  0  0  0
 40 44  1  0  0  0  0
 41 44  1  0  0  0  0
 43 40  1  0  0  0  0
 44 32  1  1  0  0  0
 45 43  1  0  0  0  0
 45 46  1  0  0  0  0
 46 41  1  0  0  0  0
 47 48  1  0  0  0  0
 48 43  1  0  0  0  0
M  END
>  <MODEL>
1

>  <REMARK>
 VINA RESULT:      -6.8      0.000      0.000
  Name = 
  11 active torsions:
  status: ('A' for Active; 'I' for Inactive)
    1  A    between atoms: C_4  and  C_8
    2  A    between atoms: C_4  and  O_27
    3  A    between atoms: C_4  and  C_33
    4  A    between atoms: C_6  and  C_32
    5  A    between atoms: C_7  and  N_19
    6  A    between atoms: O_11  and  C_33
    7  A    between atoms: C_21  and  O_27
    8  A    between atoms: C_22  and  C_37
    9  A    between atoms: C_23  and  N_25
   10  A    between atoms: C_37  and  C_46
   11  A    between atoms: C_40  and  C_46
                            x       y       z     vdW  Elec       q    Type
                         _______ _______ _______ _____ _____    ______ ____

>  <TORSDO>
F 11

$$$$
=
 OpenBabel11072409573D

 48 53  0  0  1  0  0  0  0  0999 V2000
  161.8820  211.4060  150.2220 C   0  0  0  0  0  3  0  0  0  0  0  0
  161.1780  210.9610  151.2630 C   0  0  0  0  0  0  0  0  0  0  0  0
  161.5130  212.5950  149.5260 N   0  0  0  0  0  2  0  0  0  0  0  0
  162.0720  212.9160  148.2510 C   0  0  0  0  0  0  0  0  0  0  0  0
  163.0030  212.2160  147.7710 O   0  0  0  0  0  0  0  0  0  0  0  0
  160.2200  214.3610  147.8240 O   0  0  0  0  0  1  0  0  0  0  0  0
  161.5510  214.0990  147.4900 C   0  0  2  0  0  3  0  0  0  0  0  0
  161.7160  213.9640  145.9720 C   0  0  0  0  0  2  0  0  0  0  0  0
  161.0840  213.7780  141.3600 C   0  0  2  0  0  0  0  0  0  0  0  0
  161.7990  212.1860  143.4290 C   0  0  2  0  0  3  0  0  0  0  0  0
  160.5930  214.2230  139.9720 C   0  0  2  0  0  3  0  0  0  0  0  0
  160.4840  214.2940  143.7910 C   0  0  1  0  0  3  0  0  0  0  0  0
  159.8000  213.0210  139.5110 C   0  0  0  0  0  2  0  0  0  0  0  0
  162.4960  214.1820  141.8770 C   0  0  2  0  0  3  0  0  0  0  0  0
  161.1810  212.2650  141.1540 C   0  0  2  0  0  3  0  0  0  0  0  0
  160.3960  213.7760  145.2270 C   0  0  1  0  0  3  0  0  0  0  0  0
  163.4680  214.1090  140.8730 O   0  0  0  0  0  1  0  0  0  0  0  0
  161.6390  214.4530  139.0760 O   0  0  0  0  0  1  0  0  0  0  0  0
  160.1040  211.9170  140.1980 C   0  0  0  0  0  2  0  0  0  0  0  0
  160.5460  212.7850  144.1310 C   0  0  2  0  0  0  0  0  0  0  0  0
  159.9510  214.2110  142.3590 C   0  0  0  0  0  2  0  0  0  0  0  0
  162.9210  213.2210  143.0370 C   0  0  0  0  0  2  0  0  0  0  0  0
  161.3380  211.4390  142.3010 O   0  0  0  0  0  0  0  0  0  0  0  0
  159.2460  211.9880  144.0090 C   0  0  0  0  0  1  0  0  0  0  0  0
  160.0720  211.6810  151.7130 O   0  0  0  0  0  0  0  0  0  0  0  0
  160.2030  212.6420  152.6400 O   0  0  0  0  0  1  0  0  0  0  0  0
  161.5650  209.6740  151.9350 C   0  0  1  0  0  3  0  0  0  0  0  0
  161.6380  209.8520  153.4550 C   0  0  0  0  0  3  0  0  0  0  0  0
  161.6560  208.6150  154.1080 O   0  0  0  0  0  1  0  0  0  0  0  0
  162.7790  210.5800  153.7980 O   0  0  0  0  0  1  0  0  0  0  0  0
  160.6840  208.6430  151.5820 O   0  0  0  0  0  0  0  0  0  0  0  0
  161.0260  203.8210  149.8180 C   0  0  0  0  0  0  0  0  0  0  0  0
  161.1840  207.2380  149.7100 C   0  0  0  0  0  2  0  0  0  0  0  0
  162.0250  206.0420  149.2610 C   0  0  0  0  0  2  0  0  0  0  0  0
  161.4960  207.5830  151.1680 C   0  0  2  0  0  3  0  0  0  0  0  0
  159.9030  203.6490  150.3680 O   0  0  0  0  0  0  0  0  0  0  0  0
  161.2360  206.3720  152.0630 C   0  0  0  0  0  2  0  0  0  0  0  0
  161.8370  204.9380  150.1950 N   0  0  0  0  0  0  0  0  0  0  0  0
  162.0880  205.1950  151.6070 C   0  0  0  0  0  2  0  0  0  0  0  0
  161.0980  203.0720  147.4450 C   0  0  0  0  0  0  0  0  0  0  0  0
  161.1090  201.4460  149.2830 N   0  0  0  0  0  2  0  0  0  0  0  0
  160.9900  204.2660  147.0450 O   0  0  0  0  0  0  0  0  0  0  0  0
  160.9160  201.9810  146.5230 N   0  0  0  0  0  0  0  0  0  0  0  0
  161.5350  202.7810  148.8630 C   0  0  2  0  0  3  0  0  0  0  0  0
  160.8700  200.6010  147.0070 C   0  0  0  0  0  2  0  0  0  0  0  0
  161.6200  200.4640  148.3300 C   0  0  0  0  0  2  0  0  0  0  0  0
  159.5410  201.2000  144.6600 C   0  0  0  0  0  1  0  0  0  0  0  0
  160.5570  202.2300  145.1330 C   0  0  0  0  0  2  0  0  0  0  0  0
  1  2  2  0  0  0  0
  2 25  1  0  0  0  0
  3  1  1  0  0  0  0
  4  3  1  0  0  0  0
  5  4  2  0  0  0  0
  7  6  1  6  0  0  0
  7  4  1  0  0  0  0
  8  7  1  0  0  0  0
  9 14  1  0  0  0  0
  9 21  1  1  0  0  0
 10 22  1  6  0  0  0
 10 20  1  0  0  0  0
 11 18  1  6  0  0  0
 11  9  1  0  0  0  0
 12 21  1  6  0  0  0
 12 20  1  0  0  0  0
 12 16  1  0  0  0  0
 13 11  1  0  0  0  0
 13 19  1  0  0  0  0
 14 17  1  6  0  0  0
 14 22  1  0  0  0  0
 15 19  1  1  0  0  0
 15  9  1  0  0  0  0
 15 23  1  0  0  0  0
 16  8  1  1  0  0  0
 20 24  1  6  0  0  0
 20 16  1  0  0  0  0
 23 10  1  0  0  0  0
 25 26  1  0  0  0  0
 27  2  1  6  0  0  0
 27 28  1  0  0  0  0
 28 30  1  0  0  0  0
 28 29  1  0  0  0  0
 31 27  1  0  0  0  0
 32 38  1  0  0  0  0
 32 36  2  0  0  0  0
 33 35  1  0  0  0  0
 34 33  1  0  0  0  0
 34 38  1  0  0  0  0
 35 31  1  1  0  0  0
 35 37  1  0  0  0  0
 38 39  1  0  0  0  0
 39 37  1  0  0  0  0
 40 44  1  0  0  0  0
 42 40  2  0  0  0  0
 43 45  1  0  0  0  0
 43 40  1  0  0  0  0
 44 41  1  0  0  0  0
 44 32  1  1  0  0  0
 45 46  1  0  0  0  0
 46 41  1  0  0  0  0
 47 48  1  0  0  0  0
 48 43  1  0  0  0  0
M  END
>  <MODEL>
2

>  <REMARK>
 VINA RESULT:      -5.7      2.201      3.473
  Name = 
  11 active torsions:
  status: ('A' for Active; 'I' for Inactive)
    1  A    between atoms: C_4  and  C_8
    2  A    between atoms: C_4  and  O_27
    3  A    between atoms: C_4  and  C_33
    4  A    between atoms: C_6  and  C_32
    5  A    between atoms: C_7  and  N_19
    6  A    between atoms: O_11  and  C_33
    7  A    between atoms: C_21  and  O_27
    8  A    between atoms: C_22  and  C_37
    9  A    between atoms: C_23  and  N_25
   10  A    between atoms: C_37  and  C_46
   11  A    between atoms: C_40  and  C_46
                            x       y       z     vdW  Elec       q    Type
                         _______ _______ _______ _____ _____    ______ ____

>  <TORSDO>
F 11

$$$$
=
 OpenBabel11072409573D

 48 53  0  0  1  0  0  0  0  0999 V2000
  160.1030  210.8420  152.2230 C   0  0  0  0  0  3  0  0  0  0  0  0
  159.8540  210.2990  153.4160 C   0  0  0  0  0  0  0  0  0  0  0  0
  159.1580  211.6960  151.5810 N   0  0  0  0  0  2  0  0  0  0  0  0
  159.5510  212.5930  150.5410 C   0  0  0  0  0  0  0  0  0  0  0  0
  160.7690  212.7400  150.2560 O   0  0  0  0  0  0  0  0  0  0  0  0
  157.2280  212.8670  150.0630 O   0  0  0  0  0  1  0  0  0  0  0  0
  158.5050  213.3660  149.7950 C   0  0  2  0  0  3  0  0  0  0  0  0
  158.7600  213.4310  148.2850 C   0  0  0  0  0  2  0  0  0  0  0  0
  160.0290  212.5410  143.8920 C   0  0  2  0  0  0  0  0  0  0  0  0
  160.3810  214.4050  145.8240 C   0  0  2  0  0  3  0  0  0  0  0  0
  160.2520  211.7140  142.6140 C   0  0  2  0  0  3  0  0  0  0  0  0
  159.6860  212.0560  146.3780 C   0  0  1  0  0  3  0  0  0  0  0  0
  161.7260  211.9210  142.3500 C   0  0  0  0  0  2  0  0  0  0  0  0
  158.7070  213.3340  144.1130 C   0  0  2  0  0  3  0  0  0  0  0  0
  161.0900  213.6300  143.7120 C   0  0  2  0  0  3  0  0  0  0  0  0
  159.8990  212.5270  147.8170 C   0  0  1  0  0  3  0  0  0  0  0  0
  158.2600  213.9530  142.9400 O   0  0  0  0  0  1  0  0  0  0  0  0
  159.5190  212.1910  141.5260 O   0  0  0  0  0  1  0  0  0  0  0  0
  162.2140  212.9850  142.9940 C   0  0  0  0  0  2  0  0  0  0  0  0
  160.6830  213.1840  146.7400 C   0  0  2  0  0  0  0  0  0  0  0  0
  160.3250  211.5570  145.0810 C   0  0  0  0  0  2  0  0  0  0  0  0
  158.9370  214.4420  145.1930 C   0  0  0  0  0  2  0  0  0  0  0  0
  161.4040  214.4530  144.8280 O   0  0  0  0  0  0  0  0  0  0  0  0
  162.1540  212.7920  146.8960 C   0  0  0  0  0  1  0  0  0  0  0  0
  158.6610  210.5880  154.0760 O   0  0  0  0  0  0  0  0  0  0  0  0
  158.5200  211.7150  154.7900 O   0  0  0  0  0  1  0  0  0  0  0  0
  160.8500  209.3590  154.0350 C   0  0  1  0  0  3  0  0  0  0  0  0
  161.4020  209.9330  155.3440 C   0  0  0  0  0  3  0  0  0  0  0  0
  161.7530  211.2790  155.1980 O   0  0  0  0  0  1  0  0  0  0  0  0
  160.4540  209.8020  156.3610 O   0  0  0  0  0  1  0  0  0  0  0  0
  160.2850  208.0920  154.2290 O   0  0  0  0  0  0  0  0  0  0  0  0
  160.8540  204.8360  150.2850 C   0  0  0  0  0  0  0  0  0  0  0  0
  161.2990  207.7050  152.0960 C   0  0  0  0  0  2  0  0  0  0  0  0
  162.1520  206.7130  151.3020 C   0  0  0  0  0  2  0  0  0  0  0  0
  161.1060  207.2040  153.5290 C   0  0  2  0  0  3  0  0  0  0  0  0
  159.6000  204.7050  150.3450 O   0  0  0  0  0  0  0  0  0  0  0  0
  160.4580  205.8200  153.5200 C   0  0  0  0  0  2  0  0  0  0  0  0
  161.5640  205.3820  151.4000 N   0  0  0  0  0  0  0  0  0  0  0  0
  161.3250  204.8450  152.7340 C   0  0  0  0  0  2  0  0  0  0  0  0
  161.5680  205.2970  147.9460 C   0  0  0  0  0  0  0  0  0  0  0  0
  161.0270  203.0170  148.6740 N   0  0  0  0  0  2  0  0  0  0  0  0
  161.6040  206.5380  148.1810 O   0  0  0  0  0  0  0  0  0  0  0  0
  161.6250  204.8160  146.5890 N   0  0  0  0  0  0  0  0  0  0  0  0
  161.5840  204.3050  149.0860 C   0  0  2  0  0  3  0  0  0  0  0  0
  161.4120  203.3980  146.2950 C   0  0  0  0  0  2  0  0  0  0  0  0
  161.7590  202.5350  147.5060 C   0  0  0  0  0  2  0  0  0  0  0  0
  160.2700  206.0130  144.9440 C   0  0  0  0  0  1  0  0  0  0  0  0
  161.6740  205.7460  145.4680 C   0  0  0  0  0  2  0  0  0  0  0  0
  1  2  2  0  0  0  0
  2 25  1  0  0  0  0
  3  1  1  0  0  0  0
  4  3  1  0  0  0  0
  5  4  2  0  0  0  0
  7  6  1  6  0  0  0
  7  4  1  0  0  0  0
  8  7  1  0  0  0  0
  9 14  1  0  0  0  0
  9 21  1  1  0  0  0
 10 22  1  6  0  0  0
 10 20  1  0  0  0  0
 11 18  1  6  0  0  0
 11  9  1  0  0  0  0
 12 21  1  1  0  0  0
 12 20  1  0  0  0  0
 12 16  1  0  0  0  0
 13 11  1  0  0  0  0
 13 19  1  0  0  0  0
 14 17  1  6  0  0  0
 14 22  1  0  0  0  0
 15 19  1  1  0  0  0
 15  9  1  0  0  0  0
 15 23  1  0  0  0  0
 16  8  1  6  0  0  0
 20 24  1  6  0  0  0
 20 16  1  0  0  0  0
 23 10  1  0  0  0  0
 25 26  1  0  0  0  0
 27  2  1  1  0  0  0
 27 31  1  0  0  0  0
 27 28  1  0  0  0  0
 28 30  1  0  0  0  0
 29 28  1  0  0  0  0
 32 36  2  0  0  0  0
 32 38  1  0  0  0  0
 33 35  1  0  0  0  0
 34 38  1  0  0  0  0
 34 33  1  0  0  0  0
 35 31  1  1  0  0  0
 37 35  1  0  0  0  0
 38 39  1  0  0  0  0
 39 37  1  0  0  0  0
 40 42  2  0  0  0  0
 40 44  1  0  0  0  0
 41 44  1  0  0  0  0
 43 40  1  0  0  0  0
 44 32  1  1  0  0  0
 45 43  1  0  0  0  0
 45 46  1  0  0  0  0
 46 41  1  0  0  0  0
 47 48  1  0  0  0  0
 48 43  1  0  0  0  0
M  END
>  <MODEL>
3

>  <REMARK>
 VINA RESULT:      -5.3      1.400      2.231
  Name = 
  11 active torsions:
  status: ('A' for Active; 'I' for Inactive)
    1  A    between atoms: C_4  and  C_8
    2  A    between atoms: C_4  and  O_27
    3  A    between atoms: C_4  and  C_33
    4  A    between atoms: C_6  and  C_32
    5  A    between atoms: C_7  and  N_19
    6  A    between atoms: O_11  and  C_33
    7  A    between atoms: C_21  and  O_27
    8  A    between atoms: C_22  and  C_37
    9  A    between atoms: C_23  and  N_25
   10  A    between atoms: C_37  and  C_46
   11  A    between atoms: C_40  and  C_46
                            x       y       z     vdW  Elec       q    Type
                         _______ _______ _______ _____ _____    ______ ____

>  <TORSDO>
F 11

$$$$
