=
 OpenBabel11072413043D

 37 40  0  0  1  0  0  0  0  0999 V2000
  161.3690  204.0340  150.8410 N   0  0  0  0  0  1  0  0  0  0  0  0
  162.9480  210.1290  152.2160 C   0  0  0  0  0  0  0  0  0  0  0  0
  161.0850  205.4440  154.0600 N   0  0  0  0  0  0  0  0  0  0  0  0
  162.1240  210.6360  153.2250 O   0  0  0  0  0  0  0  0  0  0  0  0
  160.8150  207.9370  153.8260 C   0  0  0  0  0  2  0  0  0  0  0  0
  161.3620  204.8660  151.9890 C   0  0  0  0  0  0  0  0  0  0  0  0
  160.7240  210.3530  153.2420 C   0  0  2  0  0  3  0  0  0  0  0  0
  161.0170  206.5560  153.3080 C   0  0  1  0  0  3  0  0  0  0  0  0
  160.4250  208.9360  152.6950 C   0  0  1  0  0  3  0  0  0  0  0  0
  161.2740  204.4040  153.2520 N   0  0  0  0  0  0  0  0  0  0  0  0
  161.2140  206.2410  151.9930 C   0  0  0  0  0  0  0  0  0  0  0  0
  162.4790  209.1330  151.3380 O   0  0  0  0  0  0  0  0  0  0  0  0
  164.1430  210.5350  152.1340 O   0  0  0  0  0  0  0  0  0  0  0  0
  161.0490  207.2030  150.8520 C   0  0  1  0  0  3  0  0  0  0  0  0
  160.4240  209.4360  150.3580 O   0  0  0  0  0  1  0  0  0  0  0  0
  161.1170  208.6920  151.3120 C   0  0  1  0  0  0  0  0  0  0  0  0
  158.6270  211.0600  152.3560 F   0  0  0  0  0  0  0  0  0  0  0  0
  160.4900  211.9380  151.4530 F   0  0  0  0  0  0  0  0  0  0  0  0
  159.8350  212.5650  153.5130 F   0  0  0  0  0  0  0  0  0  0  0  0
  159.9180  211.5050  152.6280 C   0  0  0  0  0  0  0  0  0  0  0  0
  161.9640  206.8120  149.6530 C   0  0  2  0  0  3  0  0  0  0  0  0
  162.4910  208.6780  148.2880 O   0  0  0  0  0  0  0  0  0  0  0  0
  162.8650  207.9040  149.1550 C   0  0  0  0  0  3  0  0  0  0  0  0
  161.3310  205.9650  148.5320 C   0  0  1  0  0  3  0  0  0  0  0  0
  159.9530  206.5220  148.1860 C   0  0  0  0  0  1  0  0  0  0  0  0
  162.2240  205.8610  147.2770 C   0  0  1  0  0  3  0  0  0  0  0  0
  162.2720  204.4460  146.6630 C   0  0  1  0  0  0  0  0  0  0  0  0
  161.5250  205.5760  145.9290 C   0  0  1  0  0  0  0  0  0  0  0  0
  159.9900  205.6740  145.9420 C   0  0  0  0  0  1  0  0  0  0  0  0
  163.6450  204.0820  146.1200 C   0  0  0  0  0  1  0  0  0  0  0  0
  161.4070  203.3020  147.1730 C   0  0  0  0  0  0  0  0  0  0  0  0
  160.8190  202.4840  146.3010 C   0  0  0  0  0  2  0  0  0  0  0  0
  161.2840  201.4300  148.6190 O   0  0  0  0  0  1  0  0  0  0  0  0
  161.6260  202.7770  148.5580 C   0  0  0  0  0  2  0  0  0  0  0  0
  162.1900  206.1960  144.8530 O   0  0  0  0  0  0  0  0  0  0  0  0
  161.8780  205.4500  143.7060 C   0  0  0  0  0  2  0  0  0  0  0  0
  161.5160  206.3150  142.6760 O   0  0  0  0  0  1  0  0  0  0  0  0
  1  6  1  0  0  0  0
  2  4  1  0  0  0  0
  4  7  1  0  0  0  0
  6 11  2  0  0  0  0
  6 10  1  0  0  0  0
  7 20  1  6  0  0  0
  8  5  1  1  0  0  0
  8  3  1  0  0  0  0
  9  7  1  0  0  0  0
  9  5  1  1  0  0  0
 10  3  2  0  0  0  0
 11  8  1  0  0  0  0
 12  2  1  0  0  0  0
 13  2  2  0  0  0  0
 14 21  1  6  0  0  0
 14 16  1  0  0  0  0
 14 11  1  0  0  0  0
 16 15  1  6  0  0  0
 16 12  1  0  0  0  0
 16  9  1  0  0  0  0
 17 20  1  0  0  0  0
 18 20  1  0  0  0  0
 20 19  1  0  0  0  0
 21 23  1  6  0  0  0
 22 23  2  0  0  0  0
 24 25  1  6  0  0  0
 24 21  1  0  0  0  0
 26 24  1  1  0  0  0
 27 30  1  6  0  0  0
 27 31  1  0  0  0  0
 27 26  1  0  0  0  0
 28 29  1  6  0  0  0
 28 27  1  0  0  0  0
 28 26  1  0  0  0  0
 31 34  1  0  0  0  0
 32 31  2  0  0  0  0
 34 33  1  0  0  0  0
 35 28  1  0  0  0  0
 36 35  1  0  0  0  0
 37 36  1  0  0  0  0
M  END
>  <MODEL>
1

>  <REMARK>
 VINA RESULT:      -3.5      0.000      0.000
  Name = 
  9 active torsions:
  status: ('A' for Active; 'I' for Inactive)
    1  A    between atoms: C_1  and  C_10
    2  A    between atoms: C_1  and  C_26
    3  A    between atoms: C_4  and  C_9
    4  A    between atoms: C_9  and  C_19
    5  A    between atoms: C_12  and  O_28
    6  A    between atoms: C_17  and  O_28
    7  A    between atoms: C_18  and  C_23
    8  A    between atoms: C_19  and  C_24
    9  A    between atoms: C_19  and  C_34
                            x       y       z     vdW  Elec       q    Type
                         _______ _______ _______ _____ _____    ______ ____

>  <TORSDO>
F 9

$$$$
=
 OpenBabel11072413043D

 37 40  0  0  1  0  0  0  0  0999 V2000
  160.5160  205.7160  152.6610 N   0  0  0  0  0  1  0  0  0  0  0  0
  160.2810  205.6660  146.2210 C   0  0  0  0  0  0  0  0  0  0  0  0
  160.3730  202.7650  150.7370 N   0  0  0  0  0  0  0  0  0  0  0  0
  160.9400  204.5440  145.7120 O   0  0  0  0  0  0  0  0  0  0  0  0
  161.3250  203.2440  148.4550 C   0  0  0  0  0  2  0  0  0  0  0  0
  160.4620  204.7340  151.6400 C   0  0  0  0  0  0  0  0  0  0  0  0
  162.1730  204.0970  146.2780 C   0  0  2  0  0  3  0  0  0  0  0  0
  160.9040  203.6090  149.8360 C   0  0  0  0  0  0  0  0  0  0  0  0
  162.2190  204.3430  147.8050 C   0  0  1  0  0  3  0  0  0  0  0  0
  160.1220  203.4480  151.8510 N   0  0  0  0  0  2  0  0  0  0  0  0
  160.9550  204.8730  150.3540 C   0  0  0  0  0  0  0  0  0  0  0  0
  160.6740  206.2370  147.4470 O   0  0  0  0  0  0  0  0  0  0  0  0
  159.2860  206.1340  145.5940 O   0  0  0  0  0  0  0  0  0  0  0  0
  161.6300  206.0390  149.6950 C   0  0  1  0  0  3  0  0  0  0  0  0
  162.9100  206.6320  147.7890 O   0  0  0  0  0  1  0  0  0  0  0  0
  161.8410  205.8200  148.1650 C   0  0  1  0  0  0  0  0  0  0  0  0
  163.6180  203.7290  144.4170 F   0  0  0  0  0  0  0  0  0  0  0  0
  164.5030  204.6820  146.2520 F   0  0  0  0  0  0  0  0  0  0  0  0
  163.1020  205.8560  144.9380 F   0  0  0  0  0  0  0  0  0  0  0  0
  163.3730  204.6080  145.4690 C   0  0  0  0  0  0  0  0  0  0  0  0
  160.9620  207.3830  150.1100 C   0  0  2  0  0  3  0  0  0  0  0  0
  162.0320  209.1430  148.9370 O   0  0  0  0  0  0  0  0  0  0  0  0
  161.0220  208.4720  149.0790 C   0  0  0  0  0  3  0  0  0  0  0  0
  161.2020  207.8730  151.5510 C   0  0  1  0  0  3  0  0  0  0  0  0
  162.6950  208.0960  151.7730 C   0  0  0  0  0  1  0  0  0  0  0  0
  160.3890  209.1380  151.9020 C   0  0  1  0  0  3  0  0  0  0  0  0
  160.4820  209.5460  153.3870 C   0  0  1  0  0  0  0  0  0  0  0  0
  161.1810  210.4000  152.3130 C   0  0  1  0  0  0  0  0  0  0  0  0
  162.7010  210.3340  152.0870 C   0  0  0  0  0  1  0  0  0  0  0  0
  159.1720  210.0900  153.9350 C   0  0  0  0  0  1  0  0  0  0  0  0
  161.4010  208.8400  154.3740 C   0  0  0  0  0  0  0  0  0  0  0  0
  162.1810  209.5630  155.1780 C   0  0  0  0  0  2  0  0  0  0  0  0
  160.2690  207.4800  155.9480 O   0  0  0  0  0  1  0  0  0  0  0  0
  161.0750  207.4470  154.8140 C   0  0  0  0  0  2  0  0  0  0  0  0
  160.5310  211.5820  151.9050 O   0  0  0  0  0  0  0  0  0  0  0  0
  161.1090  211.9550  150.6820 C   0  0  0  0  0  2  0  0  0  0  0  0
  160.4040  213.0310  150.1470 O   0  0  0  0  0  1  0  0  0  0  0  0
  2 12  1  0  0  0  0
  3 10  1  0  0  0  0
  4  2  1  0  0  0  0
  4  7  1  0  0  0  0
  5  8  1  0  0  0  0
  6 10  1  0  0  0  0
  6  1  1  0  0  0  0
  7 20  1  6  0  0  0
  7  9  1  0  0  0  0
  8 11  1  0  0  0  0
  8  3  2  0  0  0  0
  9 16  1  0  0  0  0
  9  5  1  1  0  0  0
 11  6  2  0  0  0  0
 12 16  1  0  0  0  0
 13  2  2  0  0  0  0
 14 21  1  6  0  0  0
 14 11  1  0  0  0  0
 16 15  1  6  0  0  0
 16 14  1  0  0  0  0
 17 20  1  0  0  0  0
 19 20  1  0  0  0  0
 20 18  1  0  0  0  0
 21 23  1  6  0  0  0
 21 24  1  0  0  0  0
 22 23  2  0  0  0  0
 24 25  1  6  0  0  0
 26 24  1  1  0  0  0
 26 28  1  0  0  0  0
 26 27  1  0  0  0  0
 27 30  1  1  0  0  0
 27 31  1  0  0  0  0
 28 29  1  6  0  0  0
 28 27  1  0  0  0  0
 31 34  1  0  0  0  0
 31 32  2  0  0  0  0
 34 33  1  0  0  0  0
 35 28  1  0  0  0  0
 36 35  1  0  0  0  0
 37 36  1  0  0  0  0
M  END
>  <MODEL>
2

>  <REMARK>
 VINA RESULT:      -2.8      3.414      7.491
  Name = 
  9 active torsions:
  status: ('A' for Active; 'I' for Inactive)
    1  A    between atoms: C_1  and  C_10
    2  A    between atoms: C_1  and  C_26
    3  A    between atoms: C_4  and  C_9
    4  A    between atoms: C_9  and  C_19
    5  A    between atoms: C_12  and  O_28
    6  A    between atoms: C_17  and  O_28
    7  A    between atoms: C_18  and  C_23
    8  A    between atoms: C_19  and  C_24
    9  A    between atoms: C_19  and  C_34
                            x       y       z     vdW  Elec       q    Type
                         _______ _______ _______ _____ _____    ______ ____

>  <TORSDO>
F 9

$$$$
=
 OpenBabel11072413043D

 37 40  0  0  1  0  0  0  0  0999 V2000
  161.0140  206.1920  149.2180 N   0  0  0  0  0  1  0  0  0  0  0  0
  162.8580  210.3340  153.7990 C   0  0  0  0  0  0  0  0  0  0  0  0
  161.1350  205.3820  152.6480 N   0  0  0  0  0  0  0  0  0  0  0  0
  162.1670  210.0920  154.9890 O   0  0  0  0  0  0  0  0  0  0  0  0
  160.8870  207.5020  153.9860 C   0  0  0  0  0  2  0  0  0  0  0  0
  161.1570  206.1720  150.6290 C   0  0  0  0  0  0  0  0  0  0  0  0
  160.7740  209.7780  154.9800 C   0  0  2  0  0  3  0  0  0  0  0  0
  161.0000  206.7170  152.7250 C   0  0  1  0  0  3  0  0  0  0  0  0
  160.3860  208.9550  153.7280 C   0  0  1  0  0  3  0  0  0  0  0  0
  161.2080  205.0440  151.3630 N   0  0  0  0  0  0  0  0  0  0  0  0
  161.0360  207.2620  151.4720 C   0  0  0  0  0  0  0  0  0  0  0  0
  162.2710  210.0360  152.5540 O   0  0  0  0  0  0  0  0  0  0  0  0
  164.0430  210.7740  153.8520 O   0  0  0  0  0  0  0  0  0  0  0  0
  160.7580  208.7030  151.1610 C   0  0  1  0  0  3  0  0  0  0  0  0
  160.1220  210.7510  152.1730 O   0  0  0  0  0  1  0  0  0  0  0  0
  160.9070  209.6240  152.4110 C   0  0  1  0  0  0  0  0  0  0  0  0
  158.6550  210.8410  154.7220 F   0  0  0  0  0  0  0  0  0  0  0  0
  160.4860  212.1480  154.7070 F   0  0  0  0  0  0  0  0  0  0  0  0
  159.7870  211.2120  156.6310 F   0  0  0  0  0  0  0  0  0  0  0  0
  159.9230  211.0220  155.2680 C   0  0  0  0  0  0  0  0  0  0  0  0
  161.5190  209.1580  149.8800 C   0  0  2  0  0  3  0  0  0  0  0  0
  162.9450  207.9180  148.4480 O   0  0  0  0  0  0  0  0  0  0  0  0
  162.7610  208.3780  149.5630 C   0  0  0  0  0  3  0  0  0  0  0  0
  161.6570  210.6750  149.6440 C   0  0  1  0  0  3  0  0  0  0  0  0
  163.1100  211.0930  149.8490 C   0  0  0  0  0  1  0  0  0  0  0  0
  161.1360  211.1200  148.2610 C   0  0  1  0  0  3  0  0  0  0  0  0
  160.4410  212.4980  148.2730 C   0  0  1  0  0  0  0  0  0  0  0  0
  161.8190  212.3410  147.6040 C   0  0  1  0  0  0  0  0  0  0  0  0
  163.1100  212.8270  148.2840 C   0  0  0  0  0  1  0  0  0  0  0  0
  159.2420  212.5630  147.3390 C   0  0  0  0  0  1  0  0  0  0  0  0
  160.4000  213.3850  149.5090 C   0  0  0  0  0  0  0  0  0  0  0  0
  161.1960  214.4520  149.5770 C   0  0  0  0  0  2  0  0  0  0  0  0
  159.4010  214.1410  151.5180 O   0  0  0  0  0  1  0  0  0  0  0  0
  159.1740  213.3930  150.3670 C   0  0  0  0  0  2  0  0  0  0  0  0
  161.8460  212.2320  146.1990 O   0  0  0  0  0  0  0  0  0  0  0  0
  162.3100  213.4620  145.7110 C   0  0  0  0  0  2  0  0  0  0  0  0
  163.1400  213.2430  144.6140 O   0  0  0  0  0  1  0  0  0  0  0  0
  1  6  1  0  0  0  0
  2 13  2  0  0  0  0
  2  4  1  0  0  0  0
  3  8  1  0  0  0  0
  6 10  1  0  0  0  0
  6 11  2  0  0  0  0
  7  4  1  0  0  0  0
  7 20  1  6  0  0  0
  8  5  1  1  0  0  0
  9  5  1  1  0  0  0
  9  7  1  0  0  0  0
 10  3  2  0  0  0  0
 11  8  1  0  0  0  0
 12  2  1  0  0  0  0
 14 21  1  6  0  0  0
 14 11  1  0  0  0  0
 14 16  1  0  0  0  0
 16 15  1  6  0  0  0
 16 12  1  0  0  0  0
 16  9  1  0  0  0  0
 17 20  1  0  0  0  0
 18 20  1  0  0  0  0
 20 19  1  0  0  0  0
 21 23  1  1  0  0  0
 22 23  2  0  0  0  0
 24 25  1  6  0  0  0
 24 21  1  0  0  0  0
 26 27  1  0  0  0  0
 26 24  1  1  0  0  0
 27 30  1  6  0  0  0
 27 31  1  0  0  0  0
 28 26  1  0  0  0  0
 28 27  1  0  0  0  0
 28 29  1  1  0  0  0
 31 32  2  0  0  0  0
 31 34  1  0  0  0  0
 34 33  1  0  0  0  0
 35 28  1  0  0  0  0
 36 35  1  0  0  0  0
 37 36  1  0  0  0  0
M  END
>  <MODEL>
3

>  <REMARK>
 VINA RESULT:      -2.6      3.224      5.625
  Name = 
  9 active torsions:
  status: ('A' for Active; 'I' for Inactive)
    1  A    between atoms: C_1  and  C_10
    2  A    between atoms: C_1  and  C_26
    3  A    between atoms: C_4  and  C_9
    4  A    between atoms: C_9  and  C_19
    5  A    between atoms: C_12  and  O_28
    6  A    between atoms: C_17  and  O_28
    7  A    between atoms: C_18  and  C_23
    8  A    between atoms: C_19  and  C_24
    9  A    between atoms: C_19  and  C_34
                            x       y       z     vdW  Elec       q    Type
                         _______ _______ _______ _____ _____    ______ ____

>  <TORSDO>
F 9

$$$$
=
 OpenBabel11072413043D

 37 40  0  0  1  0  0  0  0  0999 V2000
  161.3750  211.8380  150.9240 N   0  0  0  0  0  1  0  0  0  0  0  0
  163.0770  205.7330  152.0940 C   0  0  0  0  0  0  0  0  0  0  0  0
  162.3440  209.5660  148.4070 N   0  0  0  0  0  0  0  0  0  0  0  0
  162.7060  204.9050  151.0300 O   0  0  0  0  0  0  0  0  0  0  0  0
  161.8830  207.2250  149.2140 C   0  0  0  0  0  2  0  0  0  0  0  0
  161.7910  210.7190  150.1580 C   0  0  0  0  0  0  0  0  0  0  0  0
  161.4470  205.0700  150.3750 C   0  0  2  0  0  3  0  0  0  0  0  0
  161.9250  208.7080  149.3520 C   0  0  1  0  0  3  0  0  0  0  0  0
  161.0220  206.5580  150.3290 C   0  0  1  0  0  3  0  0  0  0  0  0
  162.2420  210.8020  148.8910 N   0  0  0  0  0  0  0  0  0  0  0  0
  161.5900  209.3910  150.4870 C   0  0  0  0  0  0  0  0  0  0  0  0
  162.3420  206.8980  152.3880 O   0  0  0  0  0  0  0  0  0  0  0  0
  164.1170  205.4540  152.7580 O   0  0  0  0  0  0  0  0  0  0  0  0
  160.9330  208.7780  151.6890 C   0  0  1  0  0  3  0  0  0  0  0  0
  160.0550  206.7330  152.5080 O   0  0  0  0  0  1  0  0  0  0  0  0
  161.1090  207.2290  151.7410 C   0  0  1  0  0  0  0  0  0  0  0  0
  159.1330  204.6010  150.7070 F   0  0  0  0  0  0  0  0  0  0  0  0
  160.5780  203.8710  152.2680 F   0  0  0  0  0  0  0  0  0  0  0  0
  160.4970  202.8700  150.2530 F   0  0  0  0  0  0  0  0  0  0  0  0
  160.4070  204.0800  150.9170 C   0  0  0  0  0  0  0  0  0  0  0  0
  161.3050  209.5540  152.9890 C   0  0  2  0  0  3  0  0  0  0  0  0
  161.3040  208.1590  154.9050 O   0  0  0  0  0  0  0  0  0  0  0  0
  161.9670  208.7330  154.0560 C   0  0  0  0  0  3  0  0  0  0  0  0
  160.2710  210.5620  153.5270 C   0  0  1  0  0  3  0  0  0  0  0  0
  159.3860  211.0460  152.3820 C   0  0  0  0  0  1  0  0  0  0  0  0
  159.4250  209.9960  154.6880 C   0  0  1  0  0  3  0  0  0  0  0  0
  159.7820  210.5930  156.0660 C   0  0  1  0  0  0  0  0  0  0  0  0
  158.4480  210.9640  155.3920 C   0  0  1  0  0  0  0  0  0  0  0  0
  158.2400  212.3210  154.6980 C   0  0  0  0  0  1  0  0  0  0  0  0
  159.7090  209.5710  157.1900 C   0  0  0  0  0  1  0  0  0  0  0  0
  160.7800  211.7300  156.2320 C   0  0  0  0  0  0  0  0  0  0  0  0
  160.3410  212.9870  156.2760 C   0  0  0  0  0  2  0  0  0  0  0  0
  162.9960  210.9650  155.8940 O   0  0  0  0  0  1  0  0  0  0  0  0
  162.1130  211.4510  156.8530 C   0  0  0  0  0  2  0  0  0  0  0  0
  157.2900  210.3010  155.8450 O   0  0  0  0  0  0  0  0  0  0  0  0
  156.3420  211.2970  156.1250 C   0  0  0  0  0  2  0  0  0  0  0  0
  155.0970  210.7070  156.3280 O   0  0  0  0  0  1  0  0  0  0  0  0
  2 12  1  0  0  0  0
  2 13  2  0  0  0  0
  3 10  2  0  0  0  0
  3  8  1  0  0  0  0
  4  2  1  0  0  0  0
  6 11  2  0  0  0  0
  6  1  1  0  0  0  0
  7 20  1  1  0  0  0
  7  4  1  0  0  0  0
  8  5  1  1  0  0  0
  8 11  1  0  0  0  0
  9  5  1  6  0  0  0
  9  7  1  0  0  0  0
  9 16  1  0  0  0  0
 10  6  1  0  0  0  0
 11 14  1  0  0  0  0
 14 16  1  0  0  0  0
 14 21  1  1  0  0  0
 16 12  1  0  0  0  0
 16 15  1  1  0  0  0
 17 20  1  0  0  0  0
 19 20  1  0  0  0  0
 20 18  1  0  0  0  0
 21 24  1  0  0  0  0
 21 23  1  1  0  0  0
 23 22  2  0  0  0  0
 24 25  1  6  0  0  0
 26 24  1  6  0  0  0
 26 28  1  0  0  0  0
 26 27  1  0  0  0  0
 27 31  1  0  0  0  0
 27 30  1  1  0  0  0
 28 29  1  6  0  0  0
 28 35  1  0  0  0  0
 28 27  1  0  0  0  0
 31 32  2  0  0  0  0
 31 34  1  0  0  0  0
 33 34  1  0  0  0  0
 35 36  1  0  0  0  0
 36 37  1  0  0  0  0
M  END
>  <MODEL>
4

>  <REMARK>
 VINA RESULT:      -1.2      4.299      8.677
  Name = 
  9 active torsions:
  status: ('A' for Active; 'I' for Inactive)
    1  A    between atoms: C_1  and  C_10
    2  A    between atoms: C_1  and  C_26
    3  A    between atoms: C_4  and  C_9
    4  A    between atoms: C_9  and  C_19
    5  A    between atoms: C_12  and  O_28
    6  A    between atoms: C_17  and  O_28
    7  A    between atoms: C_18  and  C_23
    8  A    between atoms: C_19  and  C_24
    9  A    between atoms: C_19  and  C_34
                            x       y       z     vdW  Elec       q    Type
                         _______ _______ _______ _____ _____    ______ ____

>  <TORSDO>
F 9

$$$$
=
 OpenBabel11072413043D

 37 40  0  0  1  0  0  0  0  0999 V2000
  161.1790  211.9260  150.4790 N   0  0  0  0  0  1  0  0  0  0  0  0
  163.0800  206.0190  152.2210 C   0  0  0  0  0  0  0  0  0  0  0  0
  162.1260  209.4240  148.1820 N   0  0  0  0  0  0  0  0  0  0  0  0
  162.6960  205.0760  151.2640 O   0  0  0  0  0  0  0  0  0  0  0  0
  161.7530  207.1720  149.2450 C   0  0  0  0  0  2  0  0  0  0  0  0
  161.6000  210.7430  149.8200 C   0  0  0  0  0  0  0  0  0  0  0  0
  161.4130  205.1410  150.6400 C   0  0  2  0  0  3  0  0  0  0  0  0
  161.7610  208.6610  149.2260 C   0  0  1  0  0  3  0  0  0  0  0  0
  160.9470  206.6060  150.4530 C   0  0  1  0  0  3  0  0  0  0  0  0
  162.0060  210.7010  148.5370 N   0  0  0  0  0  0  0  0  0  0  0  0
  161.4450  209.4520  150.2940 C   0  0  0  0  0  0  0  0  0  0  0  0
  162.3240  207.1920  152.4170 O   0  0  0  0  0  0  0  0  0  0  0  0
  164.1480  205.8360  152.8740 O   0  0  0  0  0  0  0  0  0  0  0  0
  160.8440  208.9550  151.5760 C   0  0  1  0  0  3  0  0  0  0  0  0
  160.0470  206.9880  152.6340 O   0  0  0  0  0  1  0  0  0  0  0  0
  161.0620  207.4240  151.7830 C   0  0  1  0  0  0  0  0  0  0  0  0
  159.1220  204.5820  150.9920 F   0  0  0  0  0  0  0  0  0  0  0  0
  160.5550  204.2260  152.6890 F   0  0  0  0  0  0  0  0  0  0  0  0
  160.6050  202.8940  150.8740 F   0  0  0  0  0  0  0  0  0  0  0  0
  160.4180  204.1910  151.3190 C   0  0  0  0  0  0  0  0  0  0  0  0
  161.2370  209.8720  152.7730 C   0  0  2  0  0  3  0  0  0  0  0  0
  163.5060  210.3100  152.2420 O   0  0  0  0  0  0  0  0  0  0  0  0
  162.7050  209.9280  153.0800 C   0  0  0  0  0  3  0  0  0  0  0  0
  160.3390  209.8200  154.0240 C   0  0  1  0  0  3  0  0  0  0  0  0
  160.7810  208.6690  154.9230 C   0  0  0  0  0  1  0  0  0  0  0  0
  160.3060  211.1540  154.7990 C   0  0  1  0  0  3  0  0  0  0  0  0
  159.2560  212.1540  154.2700 C   0  0  1  0  0  0  0  0  0  0  0  0
  159.0390  211.4620  155.6290 C   0  0  1  0  0  0  0  0  0  0  0  0
  158.0530  210.2940  155.7960 C   0  0  0  0  0  1  0  0  0  0  0  0
  159.7360  213.5970  154.3170 C   0  0  0  0  0  1  0  0  0  0  0  0
  158.2600  211.7950  153.1770 C   0  0  0  0  0  0  0  0  0  0  0  0
  156.9870  211.5640  153.4990 C   0  0  0  0  0  2  0  0  0  0  0  0
  157.8860  213.3900  151.4670 O   0  0  0  0  0  1  0  0  0  0  0  0
  158.5430  212.2000  151.7640 C   0  0  0  0  0  2  0  0  0  0  0  0
  159.3410  212.2060  156.7880 O   0  0  0  0  0  0  0  0  0  0  0  0
  158.1280  212.7380  157.2490 C   0  0  0  0  0  2  0  0  0  0  0  0
  158.1070  214.1120  157.0160 O   0  0  0  0  0  1  0  0  0  0  0  0
  2 12  1  0  0  0  0
  2 13  2  0  0  0  0
  3 10  2  0  0  0  0
  3  8  1  0  0  0  0
  4  2  1  0  0  0  0
  6 11  2  0  0  0  0
  6  1  1  0  0  0  0
  7  4  1  0  0  0  0
  7 20  1  1  0  0  0
  8  5  1  1  0  0  0
  8 11  1  0  0  0  0
  9  5  1  6  0  0  0
  9  7  1  0  0  0  0
  9 16  1  0  0  0  0
 10  6  1  0  0  0  0
 11 14  1  0  0  0  0
 14 16  1  0  0  0  0
 14 21  1  1  0  0  0
 16 12  1  0  0  0  0
 16 15  1  1  0  0  0
 17 20  1  0  0  0  0
 19 20  1  0  0  0  0
 20 18  1  0  0  0  0
 21 23  1  1  0  0  0
 21 24  1  0  0  0  0
 22 23  2  0  0  0  0
 24 25  1  1  0  0  0
 26 24  1  6  0  0  0
 26 28  1  0  0  0  0
 27 30  1  1  0  0  0
 27 26  1  0  0  0  0
 27 28  1  0  0  0  0
 28 29  1  1  0  0  0
 28 35  1  0  0  0  0
 31 32  2  0  0  0  0
 31 27  1  0  0  0  0
 33 34  1  0  0  0  0
 34 31  1  0  0  0  0
 35 36  1  0  0  0  0
 37 36  1  0  0  0  0
M  END
>  <MODEL>
5

>  <REMARK>
 VINA RESULT:      -1.0      4.261      8.589
  Name = 
  9 active torsions:
  status: ('A' for Active; 'I' for Inactive)
    1  A    between atoms: C_1  and  C_10
    2  A    between atoms: C_1  and  C_26
    3  A    between atoms: C_4  and  C_9
    4  A    between atoms: C_9  and  C_19
    5  A    between atoms: C_12  and  O_28
    6  A    between atoms: C_17  and  O_28
    7  A    between atoms: C_18  and  C_23
    8  A    between atoms: C_19  and  C_24
    9  A    between atoms: C_19  and  C_34
                            x       y       z     vdW  Elec       q    Type
                         _______ _______ _______ _____ _____    ______ ____

>  <TORSDO>
F 9

$$$$
=
 OpenBabel11072413043D

 37 40  0  0  1  0  0  0  0  0999 V2000
  160.8260  211.4760  151.9900 N   0  0  0  0  0  1  0  0  0  0  0  0
  163.1140  205.4590  152.2890 C   0  0  0  0  0  0  0  0  0  0  0  0
  162.0280  209.7040  149.1880 N   0  0  0  0  0  0  0  0  0  0  0  0
  162.8320  204.7650  151.1090 O   0  0  0  0  0  0  0  0  0  0  0  0
  161.7940  207.2370  149.6350 C   0  0  0  0  0  2  0  0  0  0  0  0
  161.3540  210.5280  151.0780 C   0  0  0  0  0  0  0  0  0  0  0  0
  161.5670  204.9020  150.4600 C   0  0  2  0  0  3  0  0  0  0  0  0
  161.6900  208.6800  149.9890 C   0  0  1  0  0  3  0  0  0  0  0  0
  160.9980  206.3320  150.6230 C   0  0  1  0  0  3  0  0  0  0  0  0
  161.8010  210.8390  149.8450 N   0  0  0  0  0  0  0  0  0  0  0  0
  161.2830  209.1530  151.2050 C   0  0  0  0  0  0  0  0  0  0  0  0
  162.2670  206.4910  152.7360 O   0  0  0  0  0  0  0  0  0  0  0  0
  164.1730  205.1870  152.9260 O   0  0  0  0  0  0  0  0  0  0  0  0
  160.6840  208.3090  152.2920 C   0  0  1  0  0  3  0  0  0  0  0  0
  160.0060  206.0910  152.7850 O   0  0  0  0  0  1  0  0  0  0  0  0
  161.0110  206.7930  152.1190 C   0  0  1  0  0  0  0  0  0  0  0  0
  160.8790  202.6680  149.9890 F   0  0  0  0  0  0  0  0  0  0  0  0
  159.3070  204.1180  150.6870 F   0  0  0  0  0  0  0  0  0  0  0  0
  160.8460  203.3430  152.1350 F   0  0  0  0  0  0  0  0  0  0  0  0
  160.6260  203.7480  150.8310 C   0  0  0  0  0  0  0  0  0  0  0  0
  160.9710  208.9170  153.6970 C   0  0  2  0  0  3  0  0  0  0  0  0
  162.1180  208.3960  155.7050 O   0  0  0  0  0  0  0  0  0  0  0  0
  161.5940  207.9760  154.6860 C   0  0  0  0  0  3  0  0  0  0  0  0
  159.8880  209.8320  154.3030 C   0  0  1  0  0  3  0  0  0  0  0  0
  159.1030  209.0630  155.3620 C   0  0  0  0  0  1  0  0  0  0  0  0
  160.4600  211.1470  154.8740 C   0  0  1  0  0  3  0  0  0  0  0  0
  159.3940  212.0630  155.5110 C   0  0  1  0  0  0  0  0  0  0  0  0
  160.4140  211.3340  156.4070 C   0  0  1  0  0  0  0  0  0  0  0  0
  160.0320  210.0850  157.2190 C   0  0  0  0  0  1  0  0  0  0  0  0
  159.6550  213.5400  155.2560 C   0  0  0  0  0  1  0  0  0  0  0  0
  157.9420  211.6390  155.6780 C   0  0  0  0  0  0  0  0  0  0  0  0
  157.3850  211.6670  156.8880 C   0  0  0  0  0  2  0  0  0  0  0  0
  156.0120  210.7510  154.6320 O   0  0  0  0  0  1  0  0  0  0  0  0
  157.0200  211.7020  154.5010 C   0  0  0  0  0  2  0  0  0  0  0  0
  161.5120  212.0830  156.8760 O   0  0  0  0  0  0  0  0  0  0  0  0
  162.4930  211.1570  157.2600 C   0  0  0  0  0  2  0  0  0  0  0  0
  163.4220  211.0130  156.2320 O   0  0  0  0  0  1  0  0  0  0  0  0
  2 12  1  0  0  0  0
  2 13  2  0  0  0  0
  3 10  2  0  0  0  0
  3  8  1  0  0  0  0
  4  2  1  0  0  0  0
  6 11  2  0  0  0  0
  6  1  1  0  0  0  0
  7  9  1  0  0  0  0
  7 20  1  1  0  0  0
  7  4  1  0  0  0  0
  8  5  1  1  0  0  0
  8 11  1  0  0  0  0
  9  5  1  6  0  0  0
  9 16  1  0  0  0  0
 10  6  1  0  0  0  0
 11 14  1  0  0  0  0
 14 21  1  1  0  0  0
 16 14  1  0  0  0  0
 16 12  1  0  0  0  0
 16 15  1  1  0  0  0
 17 20  1  0  0  0  0
 18 20  1  0  0  0  0
 20 19  1  0  0  0  0
 21 24  1  0  0  0  0
 21 23  1  1  0  0  0
 23 22  2  0  0  0  0
 24 25  1  1  0  0  0
 26 24  1  1  0  0  0
 26 27  1  0  0  0  0
 26 28  1  0  0  0  0
 27 30  1  6  0  0  0
 27 31  1  0  0  0  0
 27 28  1  0  0  0  0
 28 35  1  0  0  0  0
 28 29  1  1  0  0  0
 31 32  2  0  0  0  0
 34 33  1  0  0  0  0
 34 31  1  0  0  0  0
 35 36  1  0  0  0  0
 37 36  1  0  0  0  0
M  END
>  <MODEL>
6

>  <REMARK>
 VINA RESULT:      -0.8      4.421      8.832
  Name = 
  9 active torsions:
  status: ('A' for Active; 'I' for Inactive)
    1  A    between atoms: C_1  and  C_10
    2  A    between atoms: C_1  and  C_26
    3  A    between atoms: C_4  and  C_9
    4  A    between atoms: C_9  and  C_19
    5  A    between atoms: C_12  and  O_28
    6  A    between atoms: C_17  and  O_28
    7  A    between atoms: C_18  and  C_23
    8  A    between atoms: C_19  and  C_24
    9  A    between atoms: C_19  and  C_34
                            x       y       z     vdW  Elec       q    Type
                         _______ _______ _______ _____ _____    ______ ____

>  <TORSDO>
F 9

$$$$
=
 OpenBabel11072413043D

 37 40  0  0  1  0  0  0  0  0999 V2000
  158.0900  213.4010  150.6590 N   0  0  0  0  0  1  0  0  0  0  0  0
  160.5220  208.6530  154.2750 C   0  0  0  0  0  0  0  0  0  0  0  0
  157.0540  212.7400  153.9640 N   0  0  0  0  0  0  0  0  0  0  0  0
  160.5390  209.0200  155.6240 O   0  0  0  0  0  0  0  0  0  0  0  0
  158.9340  211.5860  155.1810 C   0  0  0  0  0  2  0  0  0  0  0  0
  157.8960  212.9040  151.9720 C   0  0  0  0  0  0  0  0  0  0  0  0
  160.9150  210.3400  156.0220 C   0  0  2  0  0  3  0  0  0  0  0  0
  158.2870  212.2050  153.9900 C   0  0  1  0  0  3  0  0  0  0  0  0
  160.4670  211.3950  154.9810 C   0  0  1  0  0  3  0  0  0  0  0  0
  156.8210  213.1890  152.7330 N   0  0  0  0  0  0  0  0  0  0  0  0
  158.8470  212.2630  152.7450 C   0  0  0  0  0  0  0  0  0  0  0  0
  160.6300  209.6270  153.2640 O   0  0  0  0  0  0  0  0  0  0  0  0
  160.3510  207.4380  153.9690 O   0  0  0  0  0  0  0  0  0  0  0  0
  160.2710  211.9050  152.4330 C   0  0  1  0  0  3  0  0  0  0  0  0
  162.2930  211.2000  153.4500 O   0  0  0  0  0  1  0  0  0  0  0  0
  160.9150  211.0050  153.5320 C   0  0  1  0  0  0  0  0  0  0  0  0
  162.6880  209.2350  157.1710 F   0  0  0  0  0  0  0  0  0  0  0  0
  162.6270  211.4820  157.2600 F   0  0  0  0  0  0  0  0  0  0  0  0
  163.2150  210.4470  155.3500 F   0  0  0  0  0  0  0  0  0  0  0  0
  162.3850  210.3910  156.4550 C   0  0  0  0  0  0  0  0  0  0  0  0
  160.4140  211.4040  150.9650 C   0  0  2  0  0  3  0  0  0  0  0  0
  162.5930  210.4700  151.0010 O   0  0  0  0  0  0  0  0  0  0  0  0
  161.4090  210.2990  150.7610 C   0  0  0  0  0  3  0  0  0  0  0  0
  160.4330  212.4730  149.8550 C   0  0  1  0  0  3  0  0  0  0  0  0
  161.1720  213.7130  150.3520 C   0  0  0  0  0  1  0  0  0  0  0  0
  161.0330  211.9570  148.5300 C   0  0  1  0  0  3  0  0  0  0  0  0
  160.1990  212.3240  147.2850 C   0  0  1  0  0  0  0  0  0  0  0  0
  161.5560  213.0120  147.5280 C   0  0  1  0  0  0  0  0  0  0  0  0
  161.6500  214.4500  148.0650 C   0  0  0  0  0  1  0  0  0  0  0  0
  160.1810  211.2200  146.2380 C   0  0  0  0  0  1  0  0  0  0  0  0
  158.9760  213.2270  147.3550 C   0  0  0  0  0  0  0  0  0  0  0  0
  159.0040  214.4180  146.7580 C   0  0  0  0  0  2  0  0  0  0  0  0
  156.6460  213.3600  146.9540 O   0  0  0  0  0  1  0  0  0  0  0  0
  157.6300  212.6210  147.6030 C   0  0  0  0  0  2  0  0  0  0  0  0
  162.6620  212.5360  146.7960 O   0  0  0  0  0  0  0  0  0  0  0  0
  163.1290  213.6150  146.0310 C   0  0  0  0  0  2  0  0  0  0  0  0
  162.2000  213.9150  145.0370 O   0  0  0  0  0  1  0  0  0  0  0  0
  1  6  1  0  0  0  0
  2  4  1  0  0  0  0
  3  8  1  0  0  0  0
  4  7  1  0  0  0  0
  6 10  1  0  0  0  0
  6 11  2  0  0  0  0
  7 20  1  6  0  0  0
  8  5  1  6  0  0  0
  9  5  1  6  0  0  0
  9  7  1  0  0  0  0
 10  3  2  0  0  0  0
 11  8  1  0  0  0  0
 12 16  1  0  0  0  0
 12  2  1  0  0  0  0
 13  2  2  0  0  0  0
 14 21  1  6  0  0  0
 14 11  1  0  0  0  0
 14 16  1  0  0  0  0
 16 15  1  6  0  0  0
 16  9  1  0  0  0  0
 19 20  1  0  0  0  0
 20 17  1  0  0  0  0
 20 18  1  0  0  0  0
 21 23  1  1  0  0  0
 23 22  2  0  0  0  0
 24 25  1  1  0  0  0
 24 21  1  0  0  0  0
 26 24  1  1  0  0  0
 27 30  1  6  0  0  0
 27 31  1  0  0  0  0
 27 28  1  0  0  0  0
 27 26  1  0  0  0  0
 28 29  1  1  0  0  0
 28 26  1  0  0  0  0
 31 34  1  0  0  0  0
 32 31  2  0  0  0  0
 33 34  1  0  0  0  0
 35 28  1  0  0  0  0
 36 35  1  0  0  0  0
 37 36  1  0  0  0  0
M  END
>  <MODEL>
7

>  <REMARK>
 VINA RESULT:      -0.5      5.459      7.105
  Name = 
  9 active torsions:
  status: ('A' for Active; 'I' for Inactive)
    1  A    between atoms: C_1  and  C_10
    2  A    between atoms: C_1  and  C_26
    3  A    between atoms: C_4  and  C_9
    4  A    between atoms: C_9  and  C_19
    5  A    between atoms: C_12  and  O_28
    6  A    between atoms: C_17  and  O_28
    7  A    between atoms: C_18  and  C_23
    8  A    between atoms: C_19  and  C_24
    9  A    between atoms: C_19  and  C_34
                            x       y       z     vdW  Elec       q    Type
                         _______ _______ _______ _____ _____    ______ ____

>  <TORSDO>
F 9

$$$$
=
 OpenBabel11072413043D

 37 40  0  0  1  0  0  0  0  0999 V2000
  162.2410  208.8780  150.0810 N   0  0  0  0  0  1  0  0  0  0  0  0
  162.3250  202.5020  151.0160 C   0  0  0  0  0  0  0  0  0  0  0  0
  162.3350  206.5230  147.4590 N   0  0  0  0  0  0  0  0  0  0  0  0
  161.6520  201.8440  149.9840 O   0  0  0  0  0  0  0  0  0  0  0  0
  161.3310  204.3640  148.2790 C   0  0  0  0  0  2  0  0  0  0  0  0
  162.2710  207.7180  149.2670 C   0  0  0  0  0  0  0  0  0  0  0  0
  160.4320  202.3630  149.4520 C   0  0  2  0  0  3  0  0  0  0  0  0
  161.7840  205.7740  148.4290 C   0  0  1  0  0  3  0  0  0  0  0  0
  160.4230  203.9110  149.4620 C   0  0  1  0  0  3  0  0  0  0  0  0
  162.6140  207.7220  147.9640 N   0  0  0  0  0  0  0  0  0  0  0  0
  161.7480  206.4810  149.5990 C   0  0  0  0  0  0  0  0  0  0  0  0
  161.9620  203.8100  151.3920 O   0  0  0  0  0  0  0  0  0  0  0  0
  163.3050  201.9310  151.5770 O   0  0  0  0  0  0  0  0  0  0  0  0
  161.0580  206.0230  150.8500 C   0  0  1  0  0  3  0  0  0  0  0  0
  159.7350  204.2610  151.7250 O   0  0  0  0  0  1  0  0  0  0  0  0
  160.8120  204.4830  150.8670 C   0  0  1  0  0  0  0  0  0  0  0  0
  159.6460  200.8400  151.1090 F   0  0  0  0  0  0  0  0  0  0  0  0
  158.5470  200.9050  149.1480 F   0  0  0  0  0  0  0  0  0  0  0  0
  158.3440  202.6060  150.6090 F   0  0  0  0  0  0  0  0  0  0  0  0
  159.2150  201.6700  150.0780 C   0  0  0  0  0  0  0  0  0  0  0  0
  161.7380  206.6230  152.1170 C   0  0  2  0  0  3  0  0  0  0  0  0
  163.9620  205.8080  152.0110 O   0  0  0  0  0  0  0  0  0  0  0  0
  162.9150  205.8510  152.6370 C   0  0  0  0  0  3  0  0  0  0  0  0
  160.8120  207.1690  153.2220 C   0  0  1  0  0  3  0  0  0  0  0  0
  160.0730  206.0120  153.8870 C   0  0  0  0  0  1  0  0  0  0  0  0
  161.5580  208.0300  154.2640 C   0  0  1  0  0  3  0  0  0  0  0  0
  161.4390  209.5480  154.0170 C   0  0  1  0  0  0  0  0  0  0  0  0
  160.7020  208.9050  155.2060 C   0  0  1  0  0  0  0  0  0  0  0  0
  159.1880  208.6350  155.1720 C   0  0  0  0  0  1  0  0  0  0  0  0
  162.7180  210.3030  154.3440 C   0  0  0  0  0  1  0  0  0  0  0  0
  160.5530  210.1330  152.9260 C   0  0  0  0  0  0  0  0  0  0  0  0
  159.3120  210.5180  153.2240 C   0  0  0  0  0  2  0  0  0  0  0  0
  160.3100  211.6570  151.1290 O   0  0  0  0  0  1  0  0  0  0  0  0
  161.1870  210.7520  151.7190 C   0  0  0  0  0  2  0  0  0  0  0  0
  161.2930  209.0360  156.4790 O   0  0  0  0  0  0  0  0  0  0  0  0
  160.4140  209.8120  157.2500 C   0  0  0  0  0  2  0  0  0  0  0  0
  160.4730  211.1380  156.8250 O   0  0  0  0  0  1  0  0  0  0  0  0
  2 12  1  0  0  0  0
  2 13  2  0  0  0  0
  3 10  2  0  0  0  0
  3  8  1  0  0  0  0
  4  2  1  0  0  0  0
  6 11  2  0  0  0  0
  6  1  1  0  0  0  0
  7  9  1  0  0  0  0
  7  4  1  0  0  0  0
  7 20  1  1  0  0  0
  8  5  1  1  0  0  0
  8 11  1  0  0  0  0
  9  5  1  6  0  0  0
  9 16  1  0  0  0  0
 10  6  1  0  0  0  0
 11 14  1  0  0  0  0
 14 16  1  0  0  0  0
 14 21  1  1  0  0  0
 16 12  1  0  0  0  0
 16 15  1  1  0  0  0
 18 20  1  0  0  0  0
 20 19  1  0  0  0  0
 20 17  1  0  0  0  0
 21 23  1  1  0  0  0
 21 24  1  0  0  0  0
 22 23  2  0  0  0  0
 24 25  1  1  0  0  0
 26 24  1  6  0  0  0
 26 28  1  0  0  0  0
 27 26  1  0  0  0  0
 27 30  1  1  0  0  0
 27 28  1  0  0  0  0
 28 29  1  6  0  0  0
 28 35  1  0  0  0  0
 31 32  2  0  0  0  0
 31 27  1  0  0  0  0
 33 34  1  0  0  0  0
 34 31  1  0  0  0  0
 35 36  1  0  0  0  0
 37 36  1  0  0  0  0
M  END
>  <MODEL>
8

>  <REMARK>
 VINA RESULT:      -0.5      4.116      8.319
  Name = 
  9 active torsions:
  status: ('A' for Active; 'I' for Inactive)
    1  A    between atoms: C_1  and  C_10
    2  A    between atoms: C_1  and  C_26
    3  A    between atoms: C_4  and  C_9
    4  A    between atoms: C_9  and  C_19
    5  A    between atoms: C_12  and  O_28
    6  A    between atoms: C_17  and  O_28
    7  A    between atoms: C_18  and  C_23
    8  A    between atoms: C_19  and  C_24
    9  A    between atoms: C_19  and  C_34
                            x       y       z     vdW  Elec       q    Type
                         _______ _______ _______ _____ _____    ______ ____

>  <TORSDO>
F 9

$$$$
