=
 OpenBabel11072412313D

 56 60  0  0  1  0  0  0  0  0999 V2000
  160.3550  206.3010  147.3480 O   0  0  0  0  0  0  0  0  0  0  0  0
  160.9420  205.3750  146.4710 C   0  0  2  0  0  3  0  0  0  0  0  0
  163.5050  205.2290  146.6110 C   0  0  0  0  0  1  0  0  0  0  0  0
  162.1710  204.7740  147.0990 C   0  0  0  0  0  0  0  0  0  0  0  0
  162.1290  203.8900  148.1040 C   0  0  0  0  0  3  0  0  0  0  0  0
  160.8530  203.3780  148.7270 C   0  0  1  0  0  3  0  0  0  0  0  0
  160.9570  201.4550  150.2080 N   0  0  0  0  0  2  0  0  0  0  0  0
  160.9050  201.8600  148.8020 C   0  0  1  0  0  3  0  0  0  0  0  0
  160.4690  202.5860  152.3050 C   0  0  0  0  0  1  0  0  0  0  0  0
  161.2040  202.6630  150.9830 C   0  0  2  0  0  3  0  0  0  0  0  0
  160.6940  203.8260  150.1720 C   0  0  1  0  0  3  0  0  0  0  0  0
  159.6680  201.2740  148.1470 C   0  0  0  0  0  2  0  0  0  0  0  0
  159.8310  201.2210  146.6380 C   0  0  0  0  0  1  0  0  0  0  0  0
  161.4300  204.9800  150.4620 O   0  0  0  0  0  0  0  0  0  0  0  0
  160.7750  205.5740  151.5460 C   0  0  0  0  0  2  0  0  0  0  0  0
  161.3540  206.9550  151.8230 C   0  0  1  0  0  3  0  0  0  0  0  0
  161.2400  207.2860  153.2840 C   0  0  0  0  0  0  0  0  0  0  0  0
  161.5520  208.6050  153.7310 N   0  0  0  0  0  2  0  0  0  0  0  0
  160.8190  206.4200  154.0980 O   0  0  0  0  0  0  0  0  0  0  0  0
  160.3160  211.3970  155.3780 P   0  0  1  0  0  0  0  0  0  0  0  0
  159.9840  212.0790  156.8900 O   0  0  0  0  0  1  0  0  0  0  0  0
  159.4070  209.5370  155.0780 S   0  0  0  0  0  0  0  0  0  0  0  0
  160.1270  212.3530  154.2210 O   0  0  0  0  0  0  0  0  0  0  0  0
  161.8360  210.4410  155.3140 C   0  0  0  0  0  2  0  0  0  0  0  0
  161.1910  209.0730  155.0600 C   0  0  2  0  0  3  0  0  0  0  0  0
  162.6900  207.0010  151.4080 O   0  0  0  0  0  0  0  0  0  0  0  0
  163.3210  205.9560  152.0900 C   0  0  0  0  0  1  0  0  0  0  0  0
  160.9800  204.9910  144.2840 C   0  0  0  0  0  1  0  0  0  0  0  0
  161.2600  205.9730  145.2420 O   0  0  0  0  0  0  0  0  0  0  0  0
  161.1830  207.4310  147.3460 C   0  0  0  0  0  2  0  0  0  0  0  0
  161.4580  207.9090  148.7650 C   0  0  0  0  0  2  0  0  0  0  0  0
  162.3840  209.0360  148.7750 N   0  0  0  0  0  2  0  0  0  0  0  0
  159.6640  214.4220  147.4970 O   0  0  0  0  0  0  0  0  0  0  0  0
  160.2620  214.1790  146.2210 C   0  0  1  0  0  3  0  0  0  0  0  0
  161.9790  210.4110  148.7800 C   0  0  0  0  0  0  0  0  0  0  0  0
  161.7860  212.5270  147.6200 C   0  0  0  0  0  0  0  0  0  0  0  0
  162.1660  211.1830  147.6240 C   0  0  0  0  0  3  0  0  0  0  0  0
  160.9850  212.3360  149.8960 C   0  0  0  0  0  3  0  0  0  0  0  0
  161.4000  210.9980  149.9250 C   0  0  0  0  0  3  0  0  0  0  0  0
  160.5980  214.4530  148.5570 C   0  0  0  0  0  2  0  0  0  0  0  0
  161.1830  213.0940  148.7370 C   0  0  0  0  0  0  0  0  0  0  0  0
  162.0080  213.5700  146.1850 S   0  0  0  0  0  0  0  0  0  0  0  0
  159.3970  213.2130  145.4250 C   0  0  0  0  0  2  0  0  0  0  0  0
  158.8170  213.8430  144.1630 C   0  0  0  0  0  2  0  0  0  0  0  0
  159.9060  214.1580  143.1430 C   0  0  0  0  0  2  0  0  0  0  0  0
  160.2720  214.4360  140.8520 C   0  0  0  0  0  1  0  0  0  0  0  0
  159.5050  213.6780  141.8260 N   0  0  0  0  0  0  0  0  0  0  0  0
  159.9410  212.2890  141.7230 C   0  0  0  0  0  2  0  0  0  0  0  0
  160.0650  210.7870  139.6910 C   0  0  0  0  0  2  0  0  0  0  0  0
  162.0910  211.1540  138.1490 C   0  0  1  0  0  3  0  0  0  0  0  0
  162.7630  210.4310  137.1780 F   0  0  0  0  0  0  0  0  0  0  0  0
  160.6580  210.6180  138.2860 C   0  0  0  0  0  2  0  0  0  0  0  0
  162.1580  211.9620  140.5440 C   0  0  0  0  0  2  0  0  0  0  0  0
  160.6300  212.0250  140.3870 C   0  0  2  0  0  3  0  0  0  0  0  0
  164.1480  211.5030  139.3120 F   0  0  0  0  0  0  0  0  0  0  0  0
  162.8400  211.0880  139.4800 C   0  0  2  0  0  3  0  0  0  0  0  0
  2 29  1  6  0  0  0
  2  4  1  0  0  0  0
  2  1  1  0  0  0  0
  3  4  1  0  0  0  0
  4  5  2  0  0  0  0
  6  5  1  1  0  0  0
  6  8  1  0  0  0  0
  6 11  1  0  0  0  0
  7 10  1  0  0  0  0
  8 12  1  1  0  0  0
  8  7  1  0  0  0  0
 10  9  1  1  0  0  0
 11 14  1  6  0  0  0
 11 10  1  0  0  0  0
 13 12  1  0  0  0  0
 14 15  1  0  0  0  0
 16 15  1  1  0  0  0
 16 17  1  0  0  0  0
 17 18  1  0  0  0  0
 17 19  2  0  0  0  0
 20 23  2  6  0  0  0
 20 21  1  0  0  0  0
 22 20  1  0  0  0  0
 24 20  1  0  0  0  0
 25 18  1  6  0  0  0
 25 22  1  0  0  0  0
 25 24  1  0  0  0  0
 26 16  1  0  0  0  0
 26 27  1  0  0  0  0
 28 29  1  0  0  0  0
 30  1  1  0  0  0  0
 30 31  1  0  0  0  0
 31 32  1  0  0  0  0
 32 35  1  0  0  0  0
 33 40  1  0  0  0  0
 34 43  1  1  0  0  0
 34 33  1  0  0  0  0
 35 39  1  0  0  0  0
 36 37  1  0  0  0  0
 36 41  2  0  0  0  0
 37 35  2  0  0  0  0
 38 39  2  0  0  0  0
 40 41  1  0  0  0  0
 41 38  1  0  0  0  0
 42 34  1  0  0  0  0
 42 36  1  0  0  0  0
 44 43  1  0  0  0  0
 45 44  1  0  0  0  0
 46 47  1  0  0  0  0
 47 45  1  0  0  0  0
 48 47  1  0  0  0  0
 49 54  1  0  0  0  0
 50 51  1  6  0  0  0
 50 52  1  0  0  0  0
 50 56  1  0  0  0  0
 52 49  1  0  0  0  0
 54 53  1  0  0  0  0
 54 48  1  1  0  0  0
 56 55  1  6  0  0  0
 56 53  1  0  0  0  0
M  END
>  <MODEL>
1

>  <REMARK>
 VINA RESULT:      -4.8      0.000      0.000
  Name = 
  21 active torsions:
  status: ('A' for Active; 'I' for Inactive)
    1  A    between atoms: C_3  and  C_13
    2  A    between atoms: C_4  and  N_16
    3  A    between atoms: C_7  and  C_35
    4  A    between atoms: O_8  and  C_35
    5  A    between atoms: C_13  and  C_24
    6  A    between atoms: C_14  and  C_54
    7  A    between atoms: N_16  and  C_45
    8  A    between atoms: N_17  and  C_52
    9  A    between atoms: C_22  and  C_27
   10  A    between atoms: C_24  and  C_40
   11  A    between atoms: O_25  and  C_53
   12  A    between atoms: O_29  and  C_41
   13  A    between atoms: O_29  and  C_42
   14  A    between atoms: C_35  and  C_42
   15  A    between atoms: O_38  and  C_49
   16  A    between atoms: O_38  and  C_53
   17  A    between atoms: C_40  and  N_55
   18  A    between atoms: C_45  and  C_49
   19  A    between atoms: C_46  and  C_50
   20  A    between atoms: C_46  and  N_55
   21  A    between atoms: C_48  and  C_53
                            x       y       z     vdW  Elec       q    Type
                         _______ _______ _______ _____ _____    ______ ____

>  <TORSDO>
F 21

$$$$
=
 OpenBabel11072412313D

 56 60  0  0  1  0  0  0  0  0999 V2000
  161.0140  208.9260  148.5210 O   0  0  0  0  0  0  0  0  0  0  0  0
  161.6490  209.9470  149.2460 C   0  0  2  0  0  3  0  0  0  0  0  0
  163.6340  210.8620  147.8930 C   0  0  0  0  0  1  0  0  0  0  0  0
  162.2050  210.9810  148.3040 C   0  0  0  0  0  0  0  0  0  0  0  0
  161.4730  211.9720  147.7790 C   0  0  0  0  0  3  0  0  0  0  0  0
  160.0080  212.1850  148.0690 C   0  0  1  0  0  3  0  0  0  0  0  0
  159.1420  214.4530  148.1500 N   0  0  0  0  0  2  0  0  0  0  0  0
  159.8410  213.4280  148.9270 C   0  0  1  0  0  3  0  0  0  0  0  0
  157.8140  214.4090  146.1140 C   0  0  0  0  0  1  0  0  0  0  0  0
  159.1100  213.9840  146.7720 C   0  0  2  0  0  3  0  0  0  0  0  0
  159.2060  212.4810  146.8090 C   0  0  1  0  0  3  0  0  0  0  0  0
  159.0330  213.0880  150.1660 C   0  0  0  0  0  2  0  0  0  0  0  0
  159.8830  213.2220  151.4180 C   0  0  0  0  0  1  0  0  0  0  0  0
  159.8280  212.0050  145.6510 O   0  0  0  0  0  0  0  0  0  0  0  0
  160.0200  213.1310  144.8440 C   0  0  0  0  0  2  0  0  0  0  0  0
  161.1840  212.9060  143.8870 C   0  0  1  0  0  3  0  0  0  0  0  0
  160.6980  212.8970  142.4660 C   0  0  0  0  0  0  0  0  0  0  0  0
  161.5890  212.5060  141.4220 N   0  0  0  0  0  2  0  0  0  0  0  0
  159.4960  213.1780  142.2050 O   0  0  0  0  0  0  0  0  0  0  0  0
  161.5380  209.9340  139.0950 P   0  0  1  0  0  0  0  0  0  0  0  0
  161.1410  209.5110  137.5060 O   0  0  0  0  0  0  0  0  0  0  0  0
  159.9480  210.7720  140.1640 S   0  0  0  0  0  0  0  0  0  0  0  0
  162.2650  208.8440  139.8530 O   0  0  0  0  0  1  0  0  0  0  0  0
  162.2570  211.5710  139.2680 C   0  0  0  0  0  2  0  0  0  0  0  0
  161.1160  212.1950  140.0820 C   0  0  2  0  0  3  0  0  0  0  0  0
  162.1480  213.9030  144.0740 O   0  0  0  0  0  0  0  0  0  0  0  0
  163.0720  213.3560  144.9690 C   0  0  0  0  0  1  0  0  0  0  0  0
  162.3890  209.9450  151.3400 C   0  0  0  0  0  1  0  0  0  0  0  0
  162.6640  209.4310  150.0660 O   0  0  0  0  0  0  0  0  0  0  0  0
  162.0300  208.1970  147.8890 C   0  0  0  0  0  2  0  0  0  0  0  0
  161.4480  207.0810  147.0320 C   0  0  0  0  0  2  0  0  0  0  0  0
  161.9150  205.7720  147.4790 N   0  0  0  0  0  2  0  0  0  0  0  0
  160.3390  205.0690  153.4010 O   0  0  0  0  0  0  0  0  0  0  0  0
  161.2480  206.1630  153.5520 C   0  0  1  0  0  3  0  0  0  0  0  0
  161.6900  205.2430  148.7920 C   0  0  0  0  0  0  0  0  0  0  0  0
  162.0940  205.3550  151.1770 C   0  0  0  0  0  0  0  0  0  0  0  0
  162.2950  205.8690  149.8930 C   0  0  0  0  0  3  0  0  0  0  0  0
  160.6500  203.6260  150.2910 C   0  0  0  0  0  3  0  0  0  0  0  0
  160.8780  204.1080  148.9940 C   0  0  0  0  0  3  0  0  0  0  0  0
  160.9220  203.9360  152.7920 C   0  0  0  0  0  2  0  0  0  0  0  0
  161.2650  204.2580  151.3780 C   0  0  0  0  0  0  0  0  0  0  0  0
  162.8440  206.0950  152.6210 S   0  0  0  0  0  0  0  0  0  0  0  0
  160.5430  207.4670  153.2100 C   0  0  0  0  0  2  0  0  0  0  0  0
  161.0200  208.6360  154.0640 C   0  0  0  0  0  2  0  0  0  0  0  0
  160.7540  208.3930  155.5460 C   0  0  0  0  0  2  0  0  0  0  0  0
  160.2800  209.9110  157.2580 C   0  0  0  0  0  1  0  0  0  0  0  0
  159.7540  209.3370  156.0310 N   0  0  0  0  0  0  0  0  0  0  0  0
  159.6750  210.4190  155.0550 C   0  0  0  0  0  2  0  0  0  0  0  0
  157.2410  210.7240  155.6750 C   0  0  0  0  0  2  0  0  0  0  0  0
  156.3800  213.1490  155.6720 C   0  0  1  0  0  3  0  0  0  0  0  0
  155.1510  213.7820  155.6020 F   0  0  0  0  0  0  0  0  0  0  0  0
  156.1900  211.7160  156.1910 C   0  0  0  0  0  2  0  0  0  0  0  0
  158.4710  212.5440  154.3860 C   0  0  0  0  0  2  0  0  0  0  0  0
  158.5810  211.4160  155.4250 C   0  0  2  0  0  3  0  0  0  0  0  0
  157.1560  214.4530  153.8280 F   0  0  0  0  0  0  0  0  0  0  0  0
  157.0660  213.1590  154.3050 C   0  0  2  0  0  3  0  0  0  0  0  0
  1  2  1  0  0  0  0
  2  4  1  6  0  0  0
  2 29  1  0  0  0  0
  3  4  1  0  0  0  0
  5  4  2  0  0  0  0
  6  5  1  6  0  0  0
  6  8  1  0  0  0  0
  7  8  1  0  0  0  0
  8 12  1  1  0  0  0
 10  9  1  1  0  0  0
 10 11  1  0  0  0  0
 10  7  1  0  0  0  0
 11 14  1  6  0  0  0
 11  6  1  0  0  0  0
 12 13  1  0  0  0  0
 15 14  1  0  0  0  0
 16 26  1  0  0  0  0
 16 15  1  1  0  0  0
 17 16  1  0  0  0  0
 18 17  1  0  0  0  0
 19 17  2  0  0  0  0
 20 21  2  6  0  0  0
 20 24  1  0  0  0  0
 20 23  1  0  0  0  0
 20 22  1  0  0  0  0
 24 25  1  0  0  0  0
 25 22  1  0  0  0  0
 25 18  1  1  0  0  0
 26 27  1  0  0  0  0
 29 28  1  0  0  0  0
 30  1  1  0  0  0  0
 31 32  1  0  0  0  0
 31 30  1  0  0  0  0
 32 35  1  0  0  0  0
 33 34  1  0  0  0  0
 34 43  1  6  0  0  0
 35 39  2  0  0  0  0
 35 37  1  0  0  0  0
 36 41  1  0  0  0  0
 36 42  1  0  0  0  0
 37 36  2  0  0  0  0
 38 41  2  0  0  0  0
 39 38  1  0  0  0  0
 40 33  1  0  0  0  0
 41 40  1  0  0  0  0
 42 34  1  0  0  0  0
 43 44  1  0  0  0  0
 44 45  1  0  0  0  0
 45 47  1  0  0  0  0
 47 46  1  0  0  0  0
 48 47  1  0  0  0  0
 49 52  1  0  0  0  0
 50 51  1  6  0  0  0
 50 52  1  0  0  0  0
 53 54  1  0  0  0  0
 54 48  1  6  0  0  0
 54 49  1  0  0  0  0
 56 55  1  1  0  0  0
 56 53  1  0  0  0  0
 56 50  1  0  0  0  0
M  END
>  <MODEL>
2

>  <REMARK>
 VINA RESULT:      -3.5      5.081     12.131
  Name = 
  21 active torsions:
  status: ('A' for Active; 'I' for Inactive)
    1  A    between atoms: C_3  and  C_13
    2  A    between atoms: C_4  and  N_16
    3  A    between atoms: C_7  and  C_35
    4  A    between atoms: O_8  and  C_35
    5  A    between atoms: C_13  and  C_24
    6  A    between atoms: C_14  and  C_54
    7  A    between atoms: N_16  and  C_45
    8  A    between atoms: N_17  and  C_52
    9  A    between atoms: C_22  and  C_27
   10  A    between atoms: C_24  and  C_40
   11  A    between atoms: O_25  and  C_53
   12  A    between atoms: O_29  and  C_41
   13  A    between atoms: O_29  and  C_42
   14  A    between atoms: C_35  and  C_42
   15  A    between atoms: O_38  and  C_49
   16  A    between atoms: O_38  and  C_53
   17  A    between atoms: C_40  and  N_55
   18  A    between atoms: C_45  and  C_49
   19  A    between atoms: C_46  and  C_50
   20  A    between atoms: C_46  and  N_55
   21  A    between atoms: C_48  and  C_53
                            x       y       z     vdW  Elec       q    Type
                         _______ _______ _______ _____ _____    ______ ____

>  <TORSDO>
F 21

$$$$
=
 OpenBabel11072412313D

 56 60  0  0  1  0  0  0  0  0999 V2000
  162.2330  210.5840  148.3750 O   0  0  0  0  0  0  0  0  0  0  0  0
  161.8240  211.2790  149.5250 C   0  0  2  0  0  3  0  0  0  0  0  0
  162.2970  213.4410  148.2170 C   0  0  0  0  0  1  0  0  0  0  0  0
  161.4290  212.6860  149.1660 C   0  0  0  0  0  0  0  0  0  0  0  0
  160.3140  213.2770  149.6160 C   0  0  0  0  0  3  0  0  0  0  0  0
  159.3230  212.6180  150.5430 C   0  0  1  0  0  3  0  0  0  0  0  0
  159.0400  213.5060  152.7870 N   0  0  0  0  0  2  0  0  0  0  0  0
  159.8740  212.6310  151.9600 C   0  0  1  0  0  3  0  0  0  0  0  0
  156.8130  214.4470  152.5270 C   0  0  0  0  0  1  0  0  0  0  0  0
  158.1640  214.2310  151.8770 C   0  0  2  0  0  3  0  0  0  0  0  0
  158.0150  213.3910  150.6350 C   0  0  1  0  0  3  0  0  0  0  0  0
  159.8560  211.2230  152.5270 C   0  0  0  0  0  2  0  0  0  0  0  0
  160.3470  211.2150  153.9640 C   0  0  0  0  0  1  0  0  0  0  0  0
  157.7920  214.2070  149.5210 O   0  0  0  0  0  0  0  0  0  0  0  0
  157.7990  213.3420  148.4220 C   0  0  0  0  0  2  0  0  0  0  0  0
  157.7970  214.1360  147.1220 C   0  0  1  0  0  3  0  0  0  0  0  0
  158.4800  213.3580  146.0330 C   0  0  0  0  0  0  0  0  0  0  0  0
  159.7220  213.8260  145.5100 N   0  0  0  0  0  2  0  0  0  0  0  0
  157.9860  212.2720  145.6260 O   0  0  0  0  0  0  0  0  0  0  0  0
  160.0260  212.6570  142.2580 P   0  0  1  0  0  0  0  0  0  0  0  0
  160.8750  211.6090  141.2370 O   0  0  0  0  0  0  0  0  0  0  0  0
  161.2540  213.9960  143.2950 S   0  0  0  0  0  0  0  0  0  0  0  0
  158.8340  213.3180  141.6020 O   0  0  0  0  0  1  0  0  0  0  0  0
  159.7030  211.9940  143.8970 C   0  0  0  0  0  2  0  0  0  0  0  0
  160.5720  212.9880  144.6790 C   0  0  2  0  0  3  0  0  0  0  0  0
  156.4810  214.4450  146.7590 O   0  0  0  0  0  0  0  0  0  0  0  0
  156.4630  214.3840  145.3620 C   0  0  0  0  0  1  0  0  0  0  0  0
  162.5730  210.1560  151.2880 C   0  0  0  0  0  1  0  0  0  0  0  0
  162.8330  211.2840  150.5000 O   0  0  0  0  0  0  0  0  0  0  0  0
  161.3830  209.4760  148.2570 C   0  0  0  0  0  2  0  0  0  0  0  0
  161.9790  208.2570  148.9480 C   0  0  0  0  0  2  0  0  0  0  0  0
  161.2180  207.8990  150.1410 N   0  0  0  0  0  2  0  0  0  0  0  0
  161.8310  201.8470  151.1600 O   0  0  0  0  0  0  0  0  0  0  0  0
  160.9420  201.7840  150.0400 C   0  0  1  0  0  3  0  0  0  0  0  0
  161.2190  206.5940  150.7340 C   0  0  0  0  0  0  0  0  0  0  0  0
  160.4520  204.2980  150.7110 C   0  0  0  0  0  0  0  0  0  0  0  0
  160.4690  205.5710  150.1350 C   0  0  0  0  0  3  0  0  0  0  0  0
  161.9640  205.0340  152.4530 C   0  0  0  0  0  3  0  0  0  0  0  0
  161.9550  206.3260  151.9070 C   0  0  0  0  0  3  0  0  0  0  0  0
  161.3150  202.5930  152.2430 C   0  0  0  0  0  2  0  0  0  0  0  0
  161.2070  204.0260  151.8460 C   0  0  0  0  0  0  0  0  0  0  0  0
  159.5090  202.9520  150.0070 S   0  0  0  0  0  0  0  0  0  0  0  0
  161.7310  201.9500  148.7490 C   0  0  0  0  0  2  0  0  0  0  0  0
  161.5230  200.7910  147.7800 C   0  0  0  0  0  2  0  0  0  0  0  0
  160.3220  201.0300  146.8700 C   0  0  0  0  0  2  0  0  0  0  0  0
  160.0980  199.7920  144.9010 C   0  0  0  0  0  1  0  0  0  0  0  0
  160.7380  200.9650  145.4740 N   0  0  0  0  0  0  0  0  0  0  0  0
  160.1720  202.1290  144.8020 C   0  0  0  0  0  2  0  0  0  0  0  0
  160.2240  204.6540  144.6400 C   0  0  0  0  0  2  0  0  0  0  0  0
  161.8660  205.8450  146.2230 C   0  0  1  0  0  3  0  0  0  0  0  0
  162.4850  207.0810  146.2890 F   0  0  0  0  0  0  0  0  0  0  0  0
  160.5950  205.9530  145.3670 C   0  0  0  0  0  2  0  0  0  0  0  0
  162.1840  203.3980  145.6720 C   0  0  0  0  0  2  0  0  0  0  0  0
  160.6650  203.4270  145.4370 C   0  0  2  0  0  3  0  0  0  0  0  0
  163.9910  204.7710  146.4060 F   0  0  0  0  0  0  0  0  0  0  0  0
  162.8250  204.7940  145.6640 C   0  0  2  0  0  3  0  0  0  0  0  0
  2  1  1  6  0  0  0
  2 29  1  0  0  0  0
  3  4  1  0  0  0  0
  4  2  1  0  0  0  0
  4  5  2  0  0  0  0
  6  5  1  6  0  0  0
  6 11  1  0  0  0  0
  6  8  1  0  0  0  0
  8 12  1  1  0  0  0
  8  7  1  0  0  0  0
 10  9  1  1  0  0  0
 10  7  1  0  0  0  0
 11 14  1  6  0  0  0
 11 10  1  0  0  0  0
 12 13  1  0  0  0  0
 15 14  1  0  0  0  0
 16 15  1  1  0  0  0
 17 16  1  0  0  0  0
 18 17  1  0  0  0  0
 19 17  2  0  0  0  0
 20 21  2  6  0  0  0
 20 22  1  0  0  0  0
 20 24  1  0  0  0  0
 22 25  1  0  0  0  0
 23 20  1  0  0  0  0
 24 25  1  0  0  0  0
 25 18  1  1  0  0  0
 26 16  1  0  0  0  0
 27 26  1  0  0  0  0
 29 28  1  0  0  0  0
 30  1  1  0  0  0  0
 30 31  1  0  0  0  0
 31 32  1  0  0  0  0
 32 35  1  0  0  0  0
 33 40  1  0  0  0  0
 34 43  1  6  0  0  0
 34 33  1  0  0  0  0
 35 39  1  0  0  0  0
 36 41  2  0  0  0  0
 37 36  1  0  0  0  0
 37 35  2  0  0  0  0
 39 38  2  0  0  0  0
 41 40  1  0  0  0  0
 41 38  1  0  0  0  0
 42 34  1  0  0  0  0
 42 36  1  0  0  0  0
 44 43  1  0  0  0  0
 45 44  1  0  0  0  0
 46 47  1  0  0  0  0
 47 45  1  0  0  0  0
 48 47  1  0  0  0  0
 49 52  1  0  0  0  0
 49 54  1  0  0  0  0
 50 51  1  6  0  0  0
 52 50  1  0  0  0  0
 54 48  1  6  0  0  0
 54 53  1  0  0  0  0
 56 53  1  0  0  0  0
 56 50  1  0  0  0  0
 56 55  1  1  0  0  0
M  END
>  <MODEL>
3

>  <REMARK>
 VINA RESULT:      -3.4      4.023     10.379
  Name = 
  21 active torsions:
  status: ('A' for Active; 'I' for Inactive)
    1  A    between atoms: C_3  and  C_13
    2  A    between atoms: C_4  and  N_16
    3  A    between atoms: C_7  and  C_35
    4  A    between atoms: O_8  and  C_35
    5  A    between atoms: C_13  and  C_24
    6  A    between atoms: C_14  and  C_54
    7  A    between atoms: N_16  and  C_45
    8  A    between atoms: N_17  and  C_52
    9  A    between atoms: C_22  and  C_27
   10  A    between atoms: C_24  and  C_40
   11  A    between atoms: O_25  and  C_53
   12  A    between atoms: O_29  and  C_41
   13  A    between atoms: O_29  and  C_42
   14  A    between atoms: C_35  and  C_42
   15  A    between atoms: O_38  and  C_49
   16  A    between atoms: O_38  and  C_53
   17  A    between atoms: C_40  and  N_55
   18  A    between atoms: C_45  and  C_49
   19  A    between atoms: C_46  and  C_50
   20  A    between atoms: C_46  and  N_55
   21  A    between atoms: C_48  and  C_53
                            x       y       z     vdW  Elec       q    Type
                         _______ _______ _______ _____ _____    ______ ____

>  <TORSDO>
F 21

$$$$
