=
 OpenBabel11072415253D

 25 27  0  0  1  0  0  0  0  0999 V2000
  160.7700  205.1170  148.6120 C   0  0  0  0  0  2  0  0  0  0  0  0
  161.8650  207.3730  154.0260 O   0  0  0  0  0  0  0  0  0  0  0  0
  161.2800  204.9950  152.3340 N   0  0  0  0  0  2  0  0  0  0  0  0
  161.9160  206.0790  152.0150 C   0  0  1  0  0  3  0  0  0  0  0  0
  160.8680  204.4310  151.0990 C   0  0  0  0  0  0  0  0  0  0  0  0
  161.8950  208.5910  149.3920 C   0  0  0  0  0  1  0  0  0  0  0  0
  161.4940  208.4340  151.8600 C   0  0  2  0  0  3  0  0  0  0  0  0
  161.9340  206.3870  150.5660 C   0  0  2  0  0  3  0  0  0  0  0  0
  160.2750  209.1020  152.2830 N   0  0  0  0  0  1  0  0  0  0  0  0
  161.2620  207.7620  150.4920 C   0  0  2  0  0  3  0  0  0  0  0  0
  161.7940  207.2960  152.7700 C   0  0  0  0  0  0  0  0  0  0  0  0
  160.0470  203.3900  151.0250 C   0  0  0  0  0  2  0  0  0  0  0  0
  161.1270  205.3120  150.0150 N   0  0  0  0  0  0  0  0  0  0  0  0
  161.8460  204.3590  147.8280 C   0  0  1  0  0  3  0  0  0  0  0  0
  160.1810  201.0500  144.6480 F   0  0  0  0  0  0  0  0  0  0  0  0
  160.6630  201.3270  145.8830 C   0  0  0  0  0  0  0  0  0  0  0  0
  161.4790  202.9380  147.5040 C   0  0  0  0  0  0  0  0  0  0  0  0
  161.3480  200.5820  148.0810 C   0  0  0  0  0  3  0  0  0  0  0  0
  160.9820  202.6430  146.2290 C   0  0  0  0  0  3  0  0  0  0  0  0
  160.8470  200.2960  146.8090 C   0  0  0  0  0  3  0  0  0  0  0  0
  161.6660  201.8980  148.4290 C   0  0  0  0  0  3  0  0  0  0  0  0
  163.5350  204.8540  146.2340 O   0  0  0  0  0  0  0  0  0  0  0  0
  162.4340  205.1350  146.6820 C   0  0  0  0  0  0  0  0  0  0  0  0
  161.6720  206.2820  146.1110 C   0  0  0  0  0  2  0  0  0  0  0  0
  160.9880  205.8720  144.9660 O   0  0  0  0  0  1  0  0  0  0  0  0
  1 13  1  0  0  0  0
  4  3  1  6  0  0  0
  4 11  1  0  0  0  0
  5  3  1  0  0  0  0
  7  9  1  1  0  0  0
  7 11  1  0  0  0  0
  8 13  1  6  0  0  0
  8  4  1  0  0  0  0
 10  6  1  6  0  0  0
 10  8  1  0  0  0  0
 10  7  1  0  0  0  0
 11  2  2  0  0  0  0
 12  5  2  0  0  0  0
 13  5  1  0  0  0  0
 14  1  1  6  0  0  0
 15 16  1  0  0  0  0
 16 19  2  0  0  0  0
 16 20  1  0  0  0  0
 17 14  1  0  0  0  0
 17 21  2  0  0  0  0
 18 21  1  0  0  0  0
 19 17  1  0  0  0  0
 20 18  2  0  0  0  0
 22 23  2  0  0  0  0
 23 14  1  0  0  0  0
 24 23  1  0  0  0  0
 25 24  1  0  0  0  0
M  END
>  <MODEL>
1

>  <REMARK>
 VINA RESULT:      -7.7      0.000      0.000
  Name = 
  5 active torsions:
  status: ('A' for Active; 'I' for Inactive)
    1  A    between atoms: C_4  and  C_6
    2  A    between atoms: C_4  and  C_21
    3  A    between atoms: C_4  and  C_23
    4  A    between atoms: C_15  and  C_21
    5  A    between atoms: C_23  and  N_24
                            x       y       z     vdW  Elec       q    Type
                         _______ _______ _______ _____ _____    ______ ____

>  <TORSDO>
F 5

$$$$
=
 OpenBabel11072415253D

 25 27  0  0  1  0  0  0  0  0999 V2000
  161.9840  206.2990  150.8950 C   0  0  0  0  0  2  0  0  0  0  0  0
  160.3360  211.2730  153.7490 O   0  0  0  0  0  0  0  0  0  0  0  0
  161.0970  209.9400  151.1990 N   0  0  0  0  0  2  0  0  0  0  0  0
  160.4950  209.4330  152.2300 C   0  0  1  0  0  3  0  0  0  0  0  0
  161.6350  208.8270  150.5020 C   0  0  0  0  0  0  0  0  0  0  0  0
  160.7780  206.5490  154.4200 C   0  0  0  0  0  1  0  0  0  0  0  0
  160.9250  209.0470  154.5560 C   0  0  2  0  0  3  0  0  0  0  0  0
  160.6240  207.9640  152.3670 C   0  0  2  0  0  3  0  0  0  0  0  0
  162.0920  209.5100  155.2860 N   0  0  0  0  0  1  0  0  0  0  0  0
  161.2960  207.7980  153.7340 C   0  0  2  0  0  3  0  0  0  0  0  0
  160.5360  210.0490  153.5280 C   0  0  0  0  0  0  0  0  0  0  0  0
  162.4610  208.9580  149.4710 C   0  0  0  0  0  2  0  0  0  0  0  0
  161.4850  207.6260  151.2470 N   0  0  0  0  0  0  0  0  0  0  0  0
  161.0060  205.5140  150.0160 C   0  0  1  0  0  3  0  0  0  0  0  0
  163.7770  204.6200  146.0970 F   0  0  0  0  0  0  0  0  0  0  0  0
  162.6580  205.1760  146.6200 C   0  0  0  0  0  0  0  0  0  0  0  0
  161.2580  205.6610  148.5420 C   0  0  0  0  0  0  0  0  0  0  0  0
  160.5930  206.4020  146.3250 C   0  0  0  0  0  3  0  0  0  0  0  0
  162.4110  205.0880  147.9930 C   0  0  0  0  0  3  0  0  0  0  0  0
  161.7490  205.8320  145.7860 C   0  0  0  0  0  3  0  0  0  0  0  0
  160.3450  206.3150  147.6980 C   0  0  0  0  0  3  0  0  0  0  0  0
  160.3300  203.2590  149.7050 O   0  0  0  0  0  0  0  0  0  0  0  0
  160.7610  204.1040  150.4750 C   0  0  0  0  0  0  0  0  0  0  0  0
  161.0170  203.7450  151.9000 C   0  0  0  0  0  2  0  0  0  0  0  0
  161.4680  202.4270  151.9810 O   0  0  0  0  0  1  0  0  0  0  0  0
  1 13  1  0  0  0  0
  4  3  1  6  0  0  0
  4  8  1  0  0  0  0
  4 11  1  0  0  0  0
  5  3  1  0  0  0  0
  5 13  1  0  0  0  0
  7  9  1  6  0  0  0
  8 13  1  6  0  0  0
  8 10  1  0  0  0  0
 10  6  1  1  0  0  0
 10  7  1  0  0  0  0
 11  2  2  0  0  0  0
 11  7  1  0  0  0  0
 12  5  2  0  0  0  0
 14 23  1  0  0  0  0
 14  1  1  1  0  0  0
 15 16  1  0  0  0  0
 16 19  1  0  0  0  0
 17 14  1  0  0  0  0
 18 21  2  0  0  0  0
 19 17  2  0  0  0  0
 20 18  1  0  0  0  0
 20 16  2  0  0  0  0
 21 17  1  0  0  0  0
 22 23  2  0  0  0  0
 23 24  1  0  0  0  0
 24 25  1  0  0  0  0
M  END
>  <MODEL>
2

>  <REMARK>
 VINA RESULT:      -7.0      2.944      4.562
  Name = 
  5 active torsions:
  status: ('A' for Active; 'I' for Inactive)
    1  A    between atoms: C_4  and  C_6
    2  A    between atoms: C_4  and  C_21
    3  A    between atoms: C_4  and  C_23
    4  A    between atoms: C_15  and  C_21
    5  A    between atoms: C_23  and  N_24
                            x       y       z     vdW  Elec       q    Type
                         _______ _______ _______ _____ _____    ______ ____

>  <TORSDO>
F 5

$$$$
=
 OpenBabel11072415253D

 25 27  0  0  1  0  0  0  0  0999 V2000
  160.4760  208.2660  152.2750 C   0  0  0  0  0  2  0  0  0  0  0  0
  161.0150  211.9410  156.9440 O   0  0  0  0  0  0  0  0  0  0  0  0
  161.3270  209.2060  155.8140 N   0  0  0  0  0  2  0  0  0  0  0  0
  161.4190  210.3480  155.2080 C   0  0  1  0  0  3  0  0  0  0  0  0
  161.0780  208.2600  154.7860 C   0  0  0  0  0  0  0  0  0  0  0  0
  160.1100  211.9810  152.2390 C   0  0  0  0  0  1  0  0  0  0  0  0
  160.0380  212.2480  154.7300 C   0  0  2  0  0  3  0  0  0  0  0  0
  161.1740  210.2990  153.7470 C   0  0  2  0  0  3  0  0  0  0  0  0
  158.6950  212.4650  155.2400 N   0  0  0  0  0  1  0  0  0  0  0  0
  159.9860  211.2470  153.5590 C   0  0  2  0  0  3  0  0  0  0  0  0
  160.8680  211.5580  155.7530 C   0  0  0  0  0  0  0  0  0  0  0  0
  160.7660  206.9950  155.0360 C   0  0  0  0  0  2  0  0  0  0  0  0
  160.8450  208.8990  153.5390 N   0  0  0  0  0  0  0  0  0  0  0  0
  161.6360  207.4880  151.6430 C   0  0  1  0  0  3  0  0  0  0  0  0
  160.6120  203.8510  148.5520 F   0  0  0  0  0  0  0  0  0  0  0  0
  160.8470  204.2580  149.8220 C   0  0  0  0  0  0  0  0  0  0  0  0
  161.3350  206.0360  151.3990 C   0  0  0  0  0  0  0  0  0  0  0  0
  161.0910  203.7460  152.1750 C   0  0  0  0  0  3  0  0  0  0  0  0
  161.0940  205.6070  150.0890 C   0  0  0  0  0  3  0  0  0  0  0  0
  160.8460  203.3270  150.8650 C   0  0  0  0  0  3  0  0  0  0  0  0
  161.3380  205.0960  152.4430 C   0  0  0  0  0  3  0  0  0  0  0  0
  163.0910  207.6130  149.7710 O   0  0  0  0  0  0  0  0  0  0  0  0
  162.2980  208.1960  150.4940 C   0  0  0  0  0  0  0  0  0  0  0  0
  162.0040  209.6390  150.2590 C   0  0  0  0  0  2  0  0  0  0  0  0
  162.0640  209.9160  148.8930 O   0  0  0  0  0  1  0  0  0  0  0  0
  1 13  1  0  0  0  0
  4 11  1  1  0  0  0
  4  3  1  0  0  0  0
  5 12  2  0  0  0  0
  5  3  1  0  0  0  0
  7  9  1  1  0  0  0
  7 11  1  0  0  0  0
  8 13  1  1  0  0  0
  8  4  1  0  0  0  0
 10  6  1  6  0  0  0
 10  8  1  0  0  0  0
 10  7  1  0  0  0  0
 11  2  2  0  0  0  0
 13  5  1  0  0  0  0
 14  1  1  6  0  0  0
 15 16  1  0  0  0  0
 16 19  2  0  0  0  0
 16 20  1  0  0  0  0
 17 14  1  0  0  0  0
 17 21  2  0  0  0  0
 18 21  1  0  0  0  0
 19 17  1  0  0  0  0
 20 18  2  0  0  0  0
 22 23  2  0  0  0  0
 23 14  1  0  0  0  0
 24 23  1  0  0  0  0
 25 24  1  0  0  0  0
M  END
>  <MODEL>
3

>  <REMARK>
 VINA RESULT:      -6.9      3.344      5.090
  Name = 
  5 active torsions:
  status: ('A' for Active; 'I' for Inactive)
    1  A    between atoms: C_4  and  C_6
    2  A    between atoms: C_4  and  C_21
    3  A    between atoms: C_4  and  C_23
    4  A    between atoms: C_15  and  C_21
    5  A    between atoms: C_23  and  N_24
                            x       y       z     vdW  Elec       q    Type
                         _______ _______ _______ _____ _____    ______ ____

>  <TORSDO>
F 5

$$$$
=
 OpenBabel11072415253D

 25 27  0  0  1  0  0  0  0  0999 V2000
  160.5910  206.4560  149.5890 C   0  0  0  0  0  2  0  0  0  0  0  0
  161.2970  201.0290  147.2130 O   0  0  0  0  0  0  0  0  0  0  0  0
  161.2820  203.9820  146.8440 N   0  0  0  0  0  2  0  0  0  0  0  0
  161.5960  203.3000  147.9010 C   0  0  1  0  0  3  0  0  0  0  0  0
  160.9770  205.2830  147.3210 C   0  0  0  0  0  0  0  0  0  0  0  0
  160.7980  203.2220  151.4430 C   0  0  0  0  0  1  0  0  0  0  0  0
  160.5630  201.7600  149.4210 C   0  0  2  0  0  3  0  0  0  0  0  0
  161.4670  204.0370  149.1800 C   0  0  2  0  0  3  0  0  0  0  0  0
  159.2320  201.1970  149.2770 N   0  0  0  0  0  1  0  0  0  0  0  0
  160.4560  203.1980  149.9670 C   0  0  2  0  0  3  0  0  0  0  0  0
  161.1920  201.9330  148.0850 C   0  0  0  0  0  0  0  0  0  0  0  0
  160.4570  206.2270  146.5470 C   0  0  0  0  0  2  0  0  0  0  0  0
  160.9470  205.3210  148.7410 N   0  0  0  0  0  0  0  0  0  0  0  0
  161.8040  207.0630  150.3040 C   0  0  1  0  0  3  0  0  0  0  0  0
  161.9600  211.0630  147.5100 F   0  0  0  0  0  0  0  0  0  0  0  0
  161.9560  210.5170  148.7500 C   0  0  0  0  0  0  0  0  0  0  0  0
  161.9010  208.5570  150.1790 C   0  0  0  0  0  0  0  0  0  0  0  0
  161.9940  210.7800  151.1550 C   0  0  0  0  0  3  0  0  0  0  0  0
  161.9030  209.1290  148.9010 C   0  0  0  0  0  3  0  0  0  0  0  0
  162.0010  211.3430  149.8760 C   0  0  0  0  0  3  0  0  0  0  0  0
  161.9410  209.3910  151.3080 C   0  0  0  0  0  3  0  0  0  0  0  0
  163.0810  205.9860  151.9920 O   0  0  0  0  0  0  0  0  0  0  0  0
  162.0290  206.5310  151.6920 C   0  0  0  0  0  0  0  0  0  0  0  0
  160.9380  206.6420  152.7030 C   0  0  0  0  0  2  0  0  0  0  0  0
  161.2080  205.8010  153.7830 O   0  0  0  0  0  1  0  0  0  0  0  0
  2 11  2  0  0  0  0
  3  5  1  0  0  0  0
  4  3  1  6  0  0  0
  4 11  1  0  0  0  0
  4  8  1  0  0  0  0
  5 13  1  0  0  0  0
  7  9  1  6  0  0  0
  7 10  1  0  0  0  0
  8 13  1  6  0  0  0
  8 10  1  0  0  0  0
 10  6  1  1  0  0  0
 11  7  1  0  0  0  0
 12  5  2  0  0  0  0
 13  1  1  0  0  0  0
 14  1  1  1  0  0  0
 14 23  1  0  0  0  0
 15 16  1  0  0  0  0
 16 19  2  0  0  0  0
 16 20  1  0  0  0  0
 17 14  1  0  0  0  0
 17 21  2  0  0  0  0
 18 21  1  0  0  0  0
 19 17  1  0  0  0  0
 20 18  2  0  0  0  0
 23 22  2  0  0  0  0
 23 24  1  0  0  0  0
 24 25  1  0  0  0  0
M  END
>  <MODEL>
4

>  <REMARK>
 VINA RESULT:      -6.9      3.073      7.022
  Name = 
  5 active torsions:
  status: ('A' for Active; 'I' for Inactive)
    1  A    between atoms: C_4  and  C_6
    2  A    between atoms: C_4  and  C_21
    3  A    between atoms: C_4  and  C_23
    4  A    between atoms: C_15  and  C_21
    5  A    between atoms: C_23  and  N_24
                            x       y       z     vdW  Elec       q    Type
                         _______ _______ _______ _____ _____    ______ ____

>  <TORSDO>
F 5

$$$$
=
 OpenBabel11072415253D

 25 27  0  0  1  0  0  0  0  0999 V2000
  162.3270  207.3190  151.0100 C   0  0  0  0  0  2  0  0  0  0  0  0
  159.7160  211.3260  154.5770 O   0  0  0  0  0  0  0  0  0  0  0  0
  160.8030  210.6400  151.8920 N   0  0  0  0  0  2  0  0  0  0  0  0
  160.2570  209.8570  152.7690 C   0  0  1  0  0  3  0  0  0  0  0  0
  161.5560  209.7820  151.0490 C   0  0  0  0  0  0  0  0  0  0  0  0
  160.9500  206.6990  154.4250 C   0  0  0  0  0  1  0  0  0  0  0  0
  160.6520  209.1160  155.0150 C   0  0  2  0  0  3  0  0  0  0  0  0
  160.6360  208.4290  152.6520 C   0  0  2  0  0  3  0  0  0  0  0  0
  161.6900  209.6190  155.8990 N   0  0  0  0  0  1  0  0  0  0  0  0
  161.2700  208.1220  154.0120 C   0  0  2  0  0  3  0  0  0  0  0  0
  160.1370  210.2150  154.1560 C   0  0  0  0  0  0  0  0  0  0  0  0
  162.3880  210.2390  150.1210 C   0  0  0  0  0  2  0  0  0  0  0  0
  161.5890  208.4550  151.5550 N   0  0  0  0  0  0  0  0  0  0  0  0
  161.4140  206.1460  150.6350 C   0  0  1  0  0  3  0  0  0  0  0  0
  161.5300  202.9910  146.9110 F   0  0  0  0  0  0  0  0  0  0  0  0
  161.3890  204.2670  147.3420 C   0  0  0  0  0  0  0  0  0  0  0  0
  161.3430  205.8760  149.1590 C   0  0  0  0  0  0  0  0  0  0  0  0
  160.9950  206.6070  146.8680 C   0  0  0  0  0  3  0  0  0  0  0  0
  161.4850  204.5590  148.7060 C   0  0  0  0  0  3  0  0  0  0  0  0
  161.1430  205.2910  146.4230 C   0  0  0  0  0  3  0  0  0  0  0  0
  161.0910  206.9000  148.2320 C   0  0  0  0  0  3  0  0  0  0  0  0
  162.6760  204.6790  152.0110 O   0  0  0  0  0  0  0  0  0  0  0  0
  161.5980  204.9240  151.4920 C   0  0  0  0  0  0  0  0  0  0  0  0
  160.4550  203.9850  151.6790 C   0  0  0  0  0  2  0  0  0  0  0  0
  160.9310  202.6770  151.7760 O   0  0  0  0  0  1  0  0  0  0  0  0
  1 13  1  0  0  0  0
  4  3  1  1  0  0  0
  4 11  1  0  0  0  0
  5 13  1  0  0  0  0
  5  3  1  0  0  0  0
  7  9  1  1  0  0  0
  8 13  1  6  0  0  0
  8  4  1  0  0  0  0
  8 10  1  0  0  0  0
 10  6  1  1  0  0  0
 10  7  1  0  0  0  0
 11  2  2  0  0  0  0
 11  7  1  0  0  0  0
 12  5  2  0  0  0  0
 14  1  1  6  0  0  0
 14 23  1  0  0  0  0
 15 16  1  0  0  0  0
 16 19  1  0  0  0  0
 17 14  1  0  0  0  0
 18 21  2  0  0  0  0
 19 17  2  0  0  0  0
 20 18  1  0  0  0  0
 20 16  2  0  0  0  0
 21 17  1  0  0  0  0
 23 24  1  0  0  0  0
 23 22  2  0  0  0  0
 24 25  1  0  0  0  0
M  END
>  <MODEL>
5

>  <REMARK>
 VINA RESULT:      -6.9      2.897      4.758
  Name = 
  5 active torsions:
  status: ('A' for Active; 'I' for Inactive)
    1  A    between atoms: C_4  and  C_6
    2  A    between atoms: C_4  and  C_21
    3  A    between atoms: C_4  and  C_23
    4  A    between atoms: C_15  and  C_21
    5  A    between atoms: C_23  and  N_24
                            x       y       z     vdW  Elec       q    Type
                         _______ _______ _______ _____ _____    ______ ____

>  <TORSDO>
F 5

$$$$
=
 OpenBabel11072415253D

 25 27  0  0  1  0  0  0  0  0999 V2000
  160.4270  205.1540  149.9110 C   0  0  0  0  0  2  0  0  0  0  0  0
  162.8260  204.4490  144.4930 O   0  0  0  0  0  0  0  0  0  0  0  0
  162.3370  206.2030  146.8480 N   0  0  0  0  0  0  0  0  0  0  0  0
  162.4660  204.9140  146.8110 C   0  0  1  0  0  3  0  0  0  0  0  0
  161.6610  206.4730  148.0660 C   0  0  0  0  0  0  0  0  0  0  0  0
  160.7300  201.9560  148.0070 C   0  0  0  0  0  1  0  0  0  0  0  0
  161.3680  203.0210  145.8310 C   0  0  2  0  0  3  0  0  0  0  0  0
  161.8390  204.1920  147.9440 C   0  0  2  0  0  3  0  0  0  0  0  0
  160.2690  203.0820  144.8820 N   0  0  0  0  0  1  0  0  0  0  0  0
  160.8310  203.2670  147.2540 C   0  0  2  0  0  3  0  0  0  0  0  0
  162.3030  204.1550  145.6020 C   0  0  0  0  0  0  0  0  0  0  0  0
  161.2070  207.6790  148.3820 C   0  0  0  0  0  1  0  0  0  0  0  0
  161.2230  205.2750  148.6920 N   0  0  0  0  0  0  0  0  0  0  0  0
  161.2900  204.9850  151.1660 C   0  0  1  0  0  3  0  0  0  0  0  0
  160.6010  209.7480  151.9870 F   0  0  0  0  0  0  0  0  0  0  0  0
  160.8370  208.5110  152.4850 C   0  0  0  0  0  0  0  0  0  0  0  0
  161.2040  206.1390  152.1250 C   0  0  0  0  0  0  0  0  0  0  0  0
  161.1960  207.0470  154.3780 C   0  0  0  0  0  3  0  0  0  0  0  0
  160.9580  207.4200  151.6180 C   0  0  0  0  0  3  0  0  0  0  0  0
  160.9550  208.3240  153.8650 C   0  0  0  0  0  3  0  0  0  0  0  0
  161.3170  205.9560  153.5120 C   0  0  0  0  0  3  0  0  0  0  0  0
  160.4520  203.4360  152.7590 O   0  0  0  0  0  0  0  0  0  0  0  0
  161.1890  203.6270  151.8040 C   0  0  0  0  0  0  0  0  0  0  0  0
  162.0270  202.5110  151.2810 C   0  0  0  0  0  2  0  0  0  0  0  0
  161.2140  201.4280  150.9440 O   0  0  0  0  0  1  0  0  0  0  0  0
  2 11  2  0  0  0  0
  3  5  2  0  0  0  0
  4 11  1  6  0  0  0
  4  3  1  0  0  0  0
  4  8  1  0  0  0  0
  5 12  1  0  0  0  0
  5 13  1  0  0  0  0
  7  9  1  6  0  0  0
  7 10  1  0  0  0  0
  8 13  1  1  0  0  0
 10  8  1  0  0  0  0
 10  6  1  1  0  0  0
 11  7  1  0  0  0  0
 13  1  1  0  0  0  0
 14  1  1  6  0  0  0
 14 23  1  0  0  0  0
 14 17  1  0  0  0  0
 15 16  1  0  0  0  0
 16 20  1  0  0  0  0
 17 21  2  0  0  0  0
 19 17  1  0  0  0  0
 19 16  2  0  0  0  0
 20 18  2  0  0  0  0
 21 18  1  0  0  0  0
 23 22  2  0  0  0  0
 24 23  1  0  0  0  0
 25 24  1  0  0  0  0
M  END
>  <MODEL>
6

>  <REMARK>
 VINA RESULT:      -6.7      3.268      7.081
  Name = 
  5 active torsions:
  status: ('A' for Active; 'I' for Inactive)
    1  A    between atoms: C_4  and  C_6
    2  A    between atoms: C_4  and  C_21
    3  A    between atoms: C_4  and  C_23
    4  A    between atoms: C_15  and  C_21
    5  A    between atoms: C_23  and  N_24
                            x       y       z     vdW  Elec       q    Type
                         _______ _______ _______ _____ _____    ______ ____

>  <TORSDO>
F 5

$$$$
=
 OpenBabel11072415253D

 25 27  0  0  1  0  0  0  0  0999 V2000
  162.0150  206.2100  151.0770 C   0  0  0  0  0  2  0  0  0  0  0  0
  160.2510  211.2320  153.7730 O   0  0  0  0  0  0  0  0  0  0  0  0
  161.0280  209.8320  151.2640 N   0  0  0  0  0  2  0  0  0  0  0  0
  160.4490  209.3450  152.3170 C   0  0  1  0  0  3  0  0  0  0  0  0
  161.5910  208.7110  150.6000 C   0  0  0  0  0  0  0  0  0  0  0  0
  160.8320  206.5480  154.6020 C   0  0  0  0  0  1  0  0  0  0  0  0
  160.9090  209.0530  154.6510 C   0  0  2  0  0  3  0  0  0  0  0  0
  160.6210  207.8850  152.5040 C   0  0  2  0  0  3  0  0  0  0  0  0
  162.0700  209.5730  155.3540 N   0  0  0  0  0  1  0  0  0  0  0  0
  161.3090  207.7860  153.8690 C   0  0  2  0  0  3  0  0  0  0  0  0
  160.4840  210.0060  153.5930 C   0  0  0  0  0  0  0  0  0  0  0  0
  162.4040  208.8290  149.5580 C   0  0  0  0  0  2  0  0  0  0  0  0
  161.4820  207.5340  151.3880 N   0  0  0  0  0  0  0  0  0  0  0  0
  160.9720  205.2870  150.4380 C   0  0  1  0  0  3  0  0  0  0  0  0
  160.3650  206.9880  145.9030 F   0  0  0  0  0  0  0  0  0  0  0  0
  160.8290  206.0130  146.7190 C   0  0  0  0  0  0  0  0  0  0  0  0
  161.1360  205.1170  148.9540 C   0  0  0  0  0  0  0  0  0  0  0  0
  161.9610  203.8960  147.0220 C   0  0  0  0  0  3  0  0  0  0  0  0
  160.6610  206.1220  148.1030 C   0  0  0  0  0  3  0  0  0  0  0  0
  161.4790  204.9000  146.1790 C   0  0  0  0  0  3  0  0  0  0  0  0
  161.7930  204.0040  148.4060 C   0  0  0  0  0  3  0  0  0  0  0  0
  160.8280  203.9770  152.4130 O   0  0  0  0  0  0  0  0  0  0  0  0
  160.7320  204.0110  151.1960 C   0  0  0  0  0  0  0  0  0  0  0  0
  160.4060  202.7660  150.4430 C   0  0  0  0  0  2  0  0  0  0  0  0
  161.2040  201.7160  150.8980 O   0  0  0  0  0  1  0  0  0  0  0  0
  1 13  1  0  0  0  0
  4  3  1  6  0  0  0
  4  8  1  0  0  0  0
  4 11  1  0  0  0  0
  5  3  1  0  0  0  0
  5 13  1  0  0  0  0
  7  9  1  6  0  0  0
  8 13  1  6  0  0  0
  8 10  1  0  0  0  0
 10  6  1  1  0  0  0
 10  7  1  0  0  0  0
 11  2  2  0  0  0  0
 11  7  1  0  0  0  0
 12  5  2  0  0  0  0
 14  1  1  1  0  0  0
 14 23  1  0  0  0  0
 15 16  1  0  0  0  0
 16 19  1  0  0  0  0
 17 14  1  0  0  0  0
 18 21  2  0  0  0  0
 19 17  2  0  0  0  0
 20 16  2  0  0  0  0
 20 18  1  0  0  0  0
 21 17  1  0  0  0  0
 23 22  2  0  0  0  0
 24 25  1  0  0  0  0
 24 23  1  0  0  0  0
M  END
>  <MODEL>
7

>  <REMARK>
 VINA RESULT:      -6.7      2.912      4.452
  Name = 
  5 active torsions:
  status: ('A' for Active; 'I' for Inactive)
    1  A    between atoms: C_4  and  C_6
    2  A    between atoms: C_4  and  C_21
    3  A    between atoms: C_4  and  C_23
    4  A    between atoms: C_15  and  C_21
    5  A    between atoms: C_23  and  N_24
                            x       y       z     vdW  Elec       q    Type
                         _______ _______ _______ _____ _____    ______ ____

>  <TORSDO>
F 5

$$$$
=
 OpenBabel11072415253D

 25 27  0  0  1  0  0  0  0  0999 V2000
  160.5490  205.5580  149.8660 C   0  0  0  0  0  2  0  0  0  0  0  0
  162.7200  203.9840  144.5360 O   0  0  0  0  0  0  0  0  0  0  0  0
  162.2990  206.1020  146.5840 N   0  0  0  0  0  0  0  0  0  0  0  0
  162.4530  204.8270  146.7580 C   0  0  1  0  0  3  0  0  0  0  0  0
  161.6720  206.5640  147.7700 C   0  0  0  0  0  0  0  0  0  0  0  0
  160.8340  202.0900  148.5130 C   0  0  0  0  0  1  0  0  0  0  0  0
  161.3530  202.7820  146.1610 C   0  0  2  0  0  3  0  0  0  0  0  0
  161.8930  204.2980  148.0240 C   0  0  2  0  0  3  0  0  0  0  0  0
  160.2120  202.6680  145.2690 N   0  0  0  0  0  1  0  0  0  0  0  0
  160.8750  203.2570  147.5470 C   0  0  2  0  0  3  0  0  0  0  0  0
  162.2530  203.8740  145.7010 C   0  0  0  0  0  0  0  0  0  0  0  0
  161.2060  207.8000  147.9010 C   0  0  0  0  0  1  0  0  0  0  0  0
  161.2880  205.4830  148.6080 N   0  0  0  0  0  0  0  0  0  0  0  0
  161.4610  205.7970  151.0740 C   0  0  1  0  0  3  0  0  0  0  0  0
  160.2120  209.2660  154.2740 F   0  0  0  0  0  0  0  0  0  0  0  0
  160.8830  208.9160  153.1510 C   0  0  0  0  0  0  0  0  0  0  0  0
  161.5140  207.2290  151.5240 C   0  0  0  0  0  0  0  0  0  0  0  0
  162.3320  209.5070  151.3050 C   0  0  0  0  0  3  0  0  0  0  0  0
  160.8260  207.5990  152.6850 C   0  0  0  0  0  3  0  0  0  0  0  0
  161.6370  209.8700  152.4620 C   0  0  0  0  0  3  0  0  0  0  0  0
  162.2740  208.1910  150.8380 C   0  0  0  0  0  3  0  0  0  0  0  0
  161.5810  205.0780  153.3340 O   0  0  0  0  0  0  0  0  0  0  0  0
  161.2910  204.7940  152.1820 C   0  0  0  0  0  0  0  0  0  0  0  0
  160.7920  203.4270  151.8590 C   0  0  0  0  0  2  0  0  0  0  0  0
  161.8660  202.5400  151.7790 O   0  0  0  0  0  1  0  0  0  0  0  0
  2 11  2  0  0  0  0
  3  4  1  0  0  0  0
  3  5  2  0  0  0  0
  4 11  1  6  0  0  0
  4  8  1  0  0  0  0
  5 12  1  0  0  0  0
  5 13  1  0  0  0  0
  7  9  1  6  0  0  0
  7 10  1  0  0  0  0
  8 13  1  6  0  0  0
 10  8  1  0  0  0  0
 10  6  1  1  0  0  0
 11  7  1  0  0  0  0
 13  1  1  0  0  0  0
 14  1  1  6  0  0  0
 14 17  1  0  0  0  0
 14 23  1  0  0  0  0
 16 15  1  0  0  0  0
 17 19  2  0  0  0  0
 18 20  1  0  0  0  0
 19 16  1  0  0  0  0
 20 16  2  0  0  0  0
 21 18  2  0  0  0  0
 21 17  1  0  0  0  0
 23 22  2  0  0  0  0
 24 23  1  0  0  0  0
 25 24  1  0  0  0  0
M  END
>  <MODEL>
8

>  <REMARK>
 VINA RESULT:      -6.6      3.293      7.349
  Name = 
  5 active torsions:
  status: ('A' for Active; 'I' for Inactive)
    1  A    between atoms: C_4  and  C_6
    2  A    between atoms: C_4  and  C_21
    3  A    between atoms: C_4  and  C_23
    4  A    between atoms: C_15  and  C_21
    5  A    between atoms: C_23  and  N_24
                            x       y       z     vdW  Elec       q    Type
                         _______ _______ _______ _____ _____    ______ ____

>  <TORSDO>
F 5

$$$$
=
 OpenBabel11072415253D

 25 27  0  0  1  0  0  0  0  0999 V2000
  160.6870  205.7230  147.8090 C   0  0  0  0  0  2  0  0  0  0  0  0
  161.9280  208.1990  153.0940 O   0  0  0  0  0  0  0  0  0  0  0  0
  161.7020  208.4920  150.1410 N   0  0  0  0  0  2  0  0  0  0  0  0
  161.0320  207.7120  150.9310 C   0  0  1  0  0  3  0  0  0  0  0  0
  161.5650  207.9160  148.8510 C   0  0  0  0  0  0  0  0  0  0  0  0
  160.0950  204.2110  151.1710 C   0  0  0  0  0  1  0  0  0  0  0  0
  161.4430  205.8980  152.4430 C   0  0  2  0  0  3  0  0  0  0  0  0
  160.4480  206.5170  150.2790 C   0  0  2  0  0  3  0  0  0  0  0  0
  162.7530  205.4040  152.8320 N   0  0  0  0  0  1  0  0  0  0  0  0
  161.0840  205.3530  151.0470 C   0  0  2  0  0  3  0  0  0  0  0  0
  161.4900  207.3720  152.2500 C   0  0  0  0  0  0  0  0  0  0  0  0
  162.2490  208.3470  147.7980 C   0  0  0  0  0  2  0  0  0  0  0  0
  160.9270  206.6480  148.9140 N   0  0  0  0  0  0  0  0  0  0  0  0
  161.8580  204.7620  147.5780 C   0  0  1  0  0  3  0  0  0  0  0  0
  160.5560  200.5790  145.4240 F   0  0  0  0  0  0  0  0  0  0  0  0
  160.8570  201.2490  146.5610 C   0  0  0  0  0  0  0  0  0  0  0  0
  161.4840  203.3100  147.6790 C   0  0  0  0  0  0  0  0  0  0  0  0
  161.1670  201.2700  148.9610 C   0  0  0  0  0  3  0  0  0  0  0  0
  161.1740  202.6090  146.5080 C   0  0  0  0  0  3  0  0  0  0  0  0
  160.8540  200.5790  147.7880 C   0  0  0  0  0  3  0  0  0  0  0  0
  161.4840  202.6310  148.9080 C   0  0  0  0  0  3  0  0  0  0  0  0
  163.8820  204.7470  146.3360 O   0  0  0  0  0  0  0  0  0  0  0  0
  162.7170  205.1100  146.3950 C   0  0  0  0  0  0  0  0  0  0  0  0
  162.1430  205.9400  145.2960 C   0  0  0  0  0  2  0  0  0  0  0  0
  161.5910  205.1120  144.3180 O   0  0  0  0  0  1  0  0  0  0  0  0
  1 13  1  0  0  0  0
  4  3  1  6  0  0  0
  4 11  1  0  0  0  0
  5 13  1  0  0  0  0
  5  3  1  0  0  0  0
  7  9  1  6  0  0  0
  8 13  1  6  0  0  0
  8  4  1  0  0  0  0
  8 10  1  0  0  0  0
 10  6  1  1  0  0  0
 10  7  1  0  0  0  0
 11  7  1  0  0  0  0
 11  2  2  0  0  0  0
 12  5  2  0  0  0  0
 14 17  1  0  0  0  0
 14  1  1  6  0  0  0
 15 16  1  0  0  0  0
 16 20  1  0  0  0  0
 17 21  2  0  0  0  0
 19 16  2  0  0  0  0
 19 17  1  0  0  0  0
 20 18  2  0  0  0  0
 21 18  1  0  0  0  0
 22 23  2  0  0  0  0
 23 14  1  0  0  0  0
 24 23  1  0  0  0  0
 25 24  1  0  0  0  0
M  END
>  <MODEL>
9

>  <REMARK>
 VINA RESULT:      -6.6      1.102      2.482
  Name = 
  5 active torsions:
  status: ('A' for Active; 'I' for Inactive)
    1  A    between atoms: C_4  and  C_6
    2  A    between atoms: C_4  and  C_21
    3  A    between atoms: C_4  and  C_23
    4  A    between atoms: C_15  and  C_21
    5  A    between atoms: C_23  and  N_24
                            x       y       z     vdW  Elec       q    Type
                         _______ _______ _______ _____ _____    ______ ____

>  <TORSDO>
F 5

$$$$
