=
 OpenBabel11072414133D

 34 39  0  0  1  0  0  0  0  0999 V2000
  160.8740  205.9580  151.7080 C   0  0  0  0  0  3  0  0  0  0  0  0
  162.2220  207.9470  150.3120 C   0  0  0  0  0  3  0  0  0  0  0  0
  161.6130  205.6530  149.4350 N   0  0  0  0  0  0  0  0  0  0  0  0
  162.4650  210.2650  151.2270 C   0  0  0  0  0  2  0  0  0  0  0  0
  160.7070  206.7510  153.9780 C   0  0  0  0  0  0  0  0  0  0  0  0
  162.1680  209.3280  150.0880 C   0  0  0  0  0  0  0  0  0  0  0  0
  161.0700  206.3900  147.1840 C   0  0  1  0  0  3  0  0  0  0  0  0
  161.2160  205.0830  150.7030 C   0  0  0  0  0  0  0  0  0  0  0  0
  161.0960  209.1300  154.2380 C   0  0  0  0  0  0  0  0  0  0  0  0
  161.0760  207.9950  153.4620 C   0  0  0  0  0  3  0  0  0  0  0  0
  161.5150  207.5190  148.0500 C   0  0  0  0  0  0  0  0  0  0  0  0
  161.9400  206.2580  146.0970 O   0  0  0  0  0  1  0  0  0  0  0  0
  161.3100  203.7210  151.0230 C   0  0  0  0  0  3  0  0  0  0  0  0
  161.8690  207.0550  149.2830 C   0  0  0  0  0  0  0  0  0  0  0  0
  161.0890  203.3060  152.3570 C   0  0  0  0  0  3  0  0  0  0  0  0
  160.3920  206.6810  155.3350 C   0  0  0  0  0  3  0  0  0  0  0  0
  161.5380  210.4360  153.6270 C   0  0  0  0  0  2  0  0  0  0  0  0
  161.2340  210.5160  152.1130 C   0  0  1  0  0  3  0  0  0  0  0  0
  161.4530  208.8940  147.7860 C   0  0  0  0  0  3  0  0  0  0  0  0
  161.7810  209.8010  148.8180 C   0  0  0  0  0  3  0  0  0  0  0  0
  160.8240  204.2510  153.3760 C   0  0  0  0  0  3  0  0  0  0  0  0
  160.7260  205.6070  153.0360 C   0  0  0  0  0  0  0  0  0  0  0  0
  160.4410  207.8240  156.0840 N   0  0  0  0  0  0  0  0  0  0  0  0
  161.1280  205.1560  148.1450 C   0  0  1  0  0  3  0  0  0  0  0  0
  160.7850  209.0090  155.5570 N   0  0  0  0  0  0  0  0  0  0  0  0
  161.2360  202.7990  147.6390 O   0  0  0  0  0  1  0  0  0  0  0  0
  161.9780  203.9840  147.6500 C   0  0  0  0  0  2  0  0  0  0  0  0
  160.5390  211.8030  151.7550 C   0  0  0  0  0  0  0  0  0  0  0  0
  160.7130  212.2520  150.6350 O   0  0  0  0  0  0  0  0  0  0  0  0
  157.9890  211.0400  153.8900 O   0  0  0  0  0  0  0  0  0  0  0  0
  158.5400  211.8970  153.1520 C   0  0  0  0  0  0  0  0  0  0  0  0
  159.6610  212.5890  152.7030 C   0  0  2  0  0  3  0  0  0  0  0  0
  157.7600  213.7310  151.0610 C   0  0  0  0  0  1  0  0  0  0  0  0
  158.4830  212.9590  152.0510 N   0  0  0  0  0  0  0  0  0  0  0  0
  1 22  1  0  0  0  0
  3  8  1  0  0  0  0
  4 18  1  0  0  0  0
  5 16  1  0  0  0  0
  6  2  1  0  0  0  0
  6  4  1  0  0  0  0
  7 12  1  6  0  0  0
  7 11  1  0  0  0  0
  7 24  1  0  0  0  0
  8 13  1  0  0  0  0
  8  1  2  0  0  0  0
  9 25  2  0  0  0  0
 10  5  2  0  0  0  0
 10  9  1  0  0  0  0
 11 14  1  0  0  0  0
 13 15  2  0  0  0  0
 14  3  1  0  0  0  0
 14  2  2  0  0  0  0
 15 21  1  0  0  0  0
 16 23  2  0  0  0  0
 17  9  1  0  0  0  0
 18 28  1  1  0  0  0
 18 17  1  0  0  0  0
 19 11  2  0  0  0  0
 19 20  1  0  0  0  0
 20  6  2  0  0  0  0
 22 21  2  0  0  0  0
 22  5  1  0  0  0  0
 24 27  1  6  0  0  0
 24  3  1  0  0  0  0
 25 23  1  0  0  0  0
 26 27  1  0  0  0  0
 29 28  2  0  0  0  0
 31 30  2  0  0  0  0
 32 28  1  6  0  0  0
 32 31  1  0  0  0  0
 33 34  1  0  0  0  0
 34 32  1  0  0  0  0
 34 31  1  0  0  0  0
M  END
>  <MODEL>
1

>  <REMARK>
 VINA RESULT:      -8.0      0.000      0.000
  Name = 
  3 active torsions:
  status: ('A' for Active; 'I' for Inactive)
    1  A    between atoms: C_9  and  C_13
    2  A    between atoms: C_13  and  C_24
    3  A    between atoms: C_22  and  C_33
                            x       y       z     vdW  Elec       q    Type
                         _______ _______ _______ _____ _____    ______ ____

>  <TORSDO>
F 3

$$$$
=
 OpenBabel11072414133D

 34 39  0  0  1  0  0  0  0  0999 V2000
  161.4900  206.1590  152.0180 C   0  0  0  0  0  3  0  0  0  0  0  0
  160.8050  207.2380  149.5510 C   0  0  0  0  0  3  0  0  0  0  0  0
  161.2690  208.5340  151.6750 N   0  0  0  0  0  0  0  0  0  0  0  0
  160.6880  205.8310  147.4830 C   0  0  0  0  0  2  0  0  0  0  0  0
  161.2320  203.7730  151.7810 C   0  0  0  0  0  0  0  0  0  0  0  0
  161.1070  207.0900  148.1920 C   0  0  0  0  0  0  0  0  0  0  0  0
  162.4230  210.3750  150.5890 C   0  0  1  0  0  3  0  0  0  0  0  0
  161.2720  207.3990  152.5710 C   0  0  0  0  0  0  0  0  0  0  0  0
  161.1370  203.0000  149.4860 C   0  0  0  0  0  0  0  0  0  0  0  0
  161.1760  204.0200  150.4080 C   0  0  0  0  0  3  0  0  0  0  0  0
  161.9530  209.3550  149.6090 C   0  0  0  0  0  0  0  0  0  0  0  0
  161.8220  211.6070  150.3110 O   0  0  0  0  0  1  0  0  0  0  0  0
  160.9120  207.4590  153.9250 C   0  0  0  0  0  3  0  0  0  0  0  0
  161.2580  208.3710  150.2500 C   0  0  0  0  0  0  0  0  0  0  0  0
  160.7520  206.2560  154.6530 C   0  0  0  0  0  3  0  0  0  0  0  0
  161.2080  202.4440  152.2030 C   0  0  0  0  0  3  0  0  0  0  0  0
  161.0410  203.3340  148.0180 C   0  0  0  0  0  2  0  0  0  0  0  0
  161.7000  204.6900  147.6740 C   0  0  1  0  0  3  0  0  0  0  0  0
  162.2710  209.2440  148.2490 C   0  0  0  0  0  3  0  0  0  0  0  0
  161.8440  208.1000  147.5400 C   0  0  0  0  0  3  0  0  0  0  0  0
  160.9040  205.0000  154.0210 C   0  0  0  0  0  3  0  0  0  0  0  0
  161.2720  204.9600  152.6690 C   0  0  0  0  0  0  0  0  0  0  0  0
  161.1480  201.4540  151.2620 N   0  0  0  0  0  0  0  0  0  0  0  0
  161.9660  209.7880  151.9660 C   0  0  1  0  0  3  0  0  0  0  0  0
  161.1100  201.7200  149.9470 N   0  0  0  0  0  0  0  0  0  0  0  0
  159.7390  210.4940  152.5700 O   0  0  0  0  0  1  0  0  0  0  0  0
  161.0970  210.7180  152.8150 C   0  0  0  0  0  2  0  0  0  0  0  0
  162.6360  204.5690  146.5000 C   0  0  0  0  0  0  0  0  0  0  0  0
  163.8330  204.6540  146.7160 O   0  0  0  0  0  0  0  0  0  0  0  0
  160.3840  206.0970  144.4420 O   0  0  0  0  0  0  0  0  0  0  0  0
  161.0140  205.0510  144.7410 C   0  0  0  0  0  0  0  0  0  0  0  0
  162.1870  204.3770  145.0690 C   0  0  2  0  0  3  0  0  0  0  0  0
  160.4220  202.2600  145.2020 C   0  0  0  0  0  1  0  0  0  0  0  0
  161.0630  203.5490  145.0390 N   0  0  0  0  0  0  0  0  0  0  0  0
  1  8  2  0  0  0  0
  1 22  1  0  0  0  0
  2 14  1  0  0  0  0
  3 24  1  0  0  0  0
  3  8  1  0  0  0  0
  4 18  1  0  0  0  0
  4  6  1  0  0  0  0
  5 16  1  0  0  0  0
  5 22  1  0  0  0  0
  6  2  2  0  0  0  0
  7 12  1  6  0  0  0
  7 24  1  0  0  0  0
  8 13  1  0  0  0  0
  9 25  2  0  0  0  0
  9 10  1  0  0  0  0
 10  5  2  0  0  0  0
 11 14  2  0  0  0  0
 11  7  1  0  0  0  0
 13 15  2  0  0  0  0
 14  3  1  0  0  0  0
 17  9  1  0  0  0  0
 18 28  1  6  0  0  0
 18 17  1  0  0  0  0
 19 11  1  0  0  0  0
 20  6  1  0  0  0  0
 20 19  2  0  0  0  0
 21 15  1  0  0  0  0
 22 21  2  0  0  0  0
 23 16  2  0  0  0  0
 24 27  1  6  0  0  0
 25 23  1  0  0  0  0
 26 27  1  0  0  0  0
 28 29  2  0  0  0  0
 30 31  2  0  0  0  0
 31 34  1  0  0  0  0
 31 32  1  0  0  0  0
 32 28  1  1  0  0  0
 34 32  1  0  0  0  0
 34 33  1  0  0  0  0
M  END
>  <MODEL>
2

>  <REMARK>
 VINA RESULT:      -7.4      2.153      7.006
  Name = 
  3 active torsions:
  status: ('A' for Active; 'I' for Inactive)
    1  A    between atoms: C_9  and  C_13
    2  A    between atoms: C_13  and  C_24
    3  A    between atoms: C_22  and  C_33
                            x       y       z     vdW  Elec       q    Type
                         _______ _______ _______ _____ _____    ______ ____

>  <TORSDO>
F 3

$$$$
=
 OpenBabel11072414133D

 34 39  0  0  1  0  0  0  0  0999 V2000
  160.1610  210.8070  152.8640 C   0  0  0  0  0  3  0  0  0  0  0  0
  161.7300  208.5130  152.8360 C   0  0  0  0  0  3  0  0  0  0  0  0
  160.4430  209.4230  154.8160 N   0  0  0  0  0  0  0  0  0  0  0  0
  162.6770  207.5890  150.7100 C   0  0  0  0  0  2  0  0  0  0  0  0
  160.5480  211.8870  150.7430 C   0  0  0  0  0  0  0  0  0  0  0  0
  161.9850  207.3960  152.0320 C   0  0  0  0  0  0  0  0  0  0  0  0
  159.7600  207.2570  155.6790 C   0  0  1  0  0  3  0  0  0  0  0  0
  160.1170  210.7060  154.2340 C   0  0  0  0  0  0  0  0  0  0  0  0
  161.5500  210.4590  149.0600 C   0  0  0  0  0  0  0  0  0  0  0  0
  161.1300  210.6800  150.3510 C   0  0  0  0  0  3  0  0  0  0  0  0
  160.5990  207.1310  154.4540 C   0  0  0  0  0  0  0  0  0  0  0  0
  160.3930  206.6180  156.7510 O   0  0  0  0  0  1  0  0  0  0  0  0
  159.9180  211.8820  154.9720 C   0  0  0  0  0  3  0  0  0  0  0  0
  161.0120  208.3630  154.0370 C   0  0  0  0  0  0  0  0  0  0  0  0
  159.8100  213.1170  154.2900 C   0  0  0  0  0  3  0  0  0  0  0  0
  160.4380  212.8950  149.7850 C   0  0  0  0  0  3  0  0  0  0  0  0
  162.2030  209.1450  148.7100 C   0  0  0  0  0  2  0  0  0  0  0  0
  161.6990  207.9780  149.5910 C   0  0  1  0  0  3  0  0  0  0  0  0
  160.8400  205.9890  153.6780 C   0  0  0  0  0  3  0  0  0  0  0  0
  161.5370  206.1280  152.4580 C   0  0  0  0  0  3  0  0  0  0  0  0
  159.9470  213.1840  152.8840 C   0  0  0  0  0  3  0  0  0  0  0  0
  160.1370  211.9970  152.1630 C   0  0  0  0  0  0  0  0  0  0  0  0
  160.8840  212.6500  148.5160 N   0  0  0  0  0  0  0  0  0  0  0  0
  159.6580  208.8050  155.8870 C   0  0  1  0  0  3  0  0  0  0  0  0
  161.4250  211.4740  148.1630 N   0  0  0  0  0  0  0  0  0  0  0  0
  161.4640  209.6330  157.2560 O   0  0  0  0  0  1  0  0  0  0  0  0
  160.1040  209.3090  157.2610 C   0  0  0  0  0  2  0  0  0  0  0  0
  161.2980  206.7890  148.7590 C   0  0  0  0  0  0  0  0  0  0  0  0
  160.3690  206.1050  149.1540 O   0  0  0  0  0  0  0  0  0  0  0  0
  160.3930  206.5700  145.4760 O   0  0  0  0  0  0  0  0  0  0  0  0
  161.1290  206.1550  146.4080 C   0  0  0  0  0  0  0  0  0  0  0  0
  161.9890  206.3720  147.4810 C   0  0  2  0  0  3  0  0  0  0  0  0
  161.9050  203.6140  147.5440 C   0  0  0  0  0  1  0  0  0  0  0  0
  161.7410  205.0200  147.2340 N   0  0  0  0  0  0  0  0  0  0  0  0
  1  8  1  0  0  0  0
  2 14  1  0  0  0  0
  3 24  1  0  0  0  0
  4  6  1  0  0  0  0
  5 22  1  0  0  0  0
  6 20  1  0  0  0  0
  6  2  2  0  0  0  0
  7 24  1  0  0  0  0
  7 12  1  1  0  0  0
  8  3  1  0  0  0  0
  8 13  2  0  0  0  0
  9 10  2  0  0  0  0
 10  5  1  0  0  0  0
 11  7  1  0  0  0  0
 14 11  2  0  0  0  0
 14  3  1  0  0  0  0
 15 13  1  0  0  0  0
 16  5  2  0  0  0  0
 17  9  1  0  0  0  0
 17 18  1  0  0  0  0
 18 28  1  6  0  0  0
 18  4  1  0  0  0  0
 19 11  1  0  0  0  0
 20 19  2  0  0  0  0
 21 15  2  0  0  0  0
 22  1  2  0  0  0  0
 22 21  1  0  0  0  0
 23 16  1  0  0  0  0
 24 27  1  1  0  0  0
 25 23  2  0  0  0  0
 25  9  1  0  0  0  0
 26 27  1  0  0  0  0
 28 29  2  0  0  0  0
 30 31  2  0  0  0  0
 31 34  1  0  0  0  0
 31 32  1  0  0  0  0
 32 28  1  1  0  0  0
 34 32  1  0  0  0  0
 34 33  1  0  0  0  0
M  END
>  <MODEL>
3

>  <REMARK>
 VINA RESULT:      -7.1      2.259      7.674
  Name = 
  3 active torsions:
  status: ('A' for Active; 'I' for Inactive)
    1  A    between atoms: C_9  and  C_13
    2  A    between atoms: C_13  and  C_24
    3  A    between atoms: C_22  and  C_33
                            x       y       z     vdW  Elec       q    Type
                         _______ _______ _______ _____ _____    ______ ____

>  <TORSDO>
F 3

$$$$
=
 OpenBabel11072414133D

 34 39  0  0  1  0  0  0  0  0999 V2000
  160.8520  206.0470  151.7410 C   0  0  0  0  0  3  0  0  0  0  0  0
  162.1680  208.0550  150.3410 C   0  0  0  0  0  3  0  0  0  0  0  0
  161.5800  205.7550  149.4630 N   0  0  0  0  0  0  0  0  0  0  0  0
  162.3890  210.3740  151.2580 C   0  0  0  0  0  2  0  0  0  0  0  0
  160.6890  206.8360  154.0140 C   0  0  0  0  0  0  0  0  0  0  0  0
  162.0960  209.4350  150.1200 C   0  0  0  0  0  0  0  0  0  0  0  0
  161.0150  206.4890  147.2180 C   0  0  1  0  0  3  0  0  0  0  0  0
  161.1980  205.1790  150.7330 C   0  0  0  0  0  0  0  0  0  0  0  0
  161.0520  209.2180  154.2760 C   0  0  0  0  0  0  0  0  0  0  0  0
  161.0410  208.0840  153.4970 C   0  0  0  0  0  3  0  0  0  0  0  0
  161.4530  207.6210  148.0820 C   0  0  0  0  0  0  0  0  0  0  0  0
  161.8810  206.3690  146.1250 O   0  0  0  0  0  1  0  0  0  0  0  0
  161.3090  203.8170  151.0500 C   0  0  0  0  0  3  0  0  0  0  0  0
  161.8190  207.1600  149.3130 C   0  0  0  0  0  0  0  0  0  0  0  0
  161.1020  203.3980  152.3860 C   0  0  0  0  0  3  0  0  0  0  0  0
  160.3820  206.7600  155.3730 C   0  0  0  0  0  3  0  0  0  0  0  0
  161.4750  210.5300  153.6640 C   0  0  0  0  0  2  0  0  0  0  0  0
  161.1610  210.6090  152.1510 C   0  0  1  0  0  3  0  0  0  0  0  0
  161.3730  208.9960  147.8210 C   0  0  0  0  0  3  0  0  0  0  0  0
  161.6960  209.9050  148.8520 C   0  0  0  0  0  3  0  0  0  0  0  0
  160.8310  204.3380  153.4070 C   0  0  0  0  0  3  0  0  0  0  0  0
  160.7150  205.6930  153.0700 C   0  0  0  0  0  0  0  0  0  0  0  0
  160.4230  207.9020  156.1230 N   0  0  0  0  0  0  0  0  0  0  0  0
  161.0940  205.2540  148.1760 C   0  0  1  0  0  3  0  0  0  0  0  0
  160.7490  209.0920  155.5960 N   0  0  0  0  0  0  0  0  0  0  0  0
  161.2090  202.9130  147.6050 O   0  0  0  0  0  1  0  0  0  0  0  0
  161.9550  204.0930  147.6740 C   0  0  0  0  0  2  0  0  0  0  0  0
  160.4480  211.8880  151.7990 C   0  0  0  0  0  0  0  0  0  0  0  0
  160.1260  212.6300  152.7110 O   0  0  0  0  0  0  0  0  0  0  0  0
  161.3160  214.4530  149.7220 O   0  0  0  0  0  0  0  0  0  0  0  0
  160.4560  213.5980  150.0580 C   0  0  0  0  0  0  0  0  0  0  0  0
  160.0820  212.2990  150.3910 C   0  0  2  0  0  3  0  0  0  0  0  0
  157.6330  213.5390  150.6720 C   0  0  0  0  0  1  0  0  0  0  0  0
  159.0220  213.2080  150.4300 N   0  0  0  0  0  0  0  0  0  0  0  0
  1 22  1  0  0  0  0
  3  8  1  0  0  0  0
  4 18  1  0  0  0  0
  5 16  1  0  0  0  0
  6  2  1  0  0  0  0
  6  4  1  0  0  0  0
  7 12  1  6  0  0  0
  7 11  1  0  0  0  0
  7 24  1  0  0  0  0
  8 13  1  0  0  0  0
  8  1  2  0  0  0  0
  9 25  2  0  0  0  0
 10  5  2  0  0  0  0
 10  9  1  0  0  0  0
 11 14  1  0  0  0  0
 13 15  2  0  0  0  0
 14  3  1  0  0  0  0
 14  2  2  0  0  0  0
 15 21  1  0  0  0  0
 16 23  2  0  0  0  0
 17  9  1  0  0  0  0
 18 28  1  1  0  0  0
 18 17  1  0  0  0  0
 19 11  2  0  0  0  0
 19 20  1  0  0  0  0
 20  6  2  0  0  0  0
 22 21  2  0  0  0  0
 22  5  1  0  0  0  0
 24 27  1  6  0  0  0
 24  3  1  0  0  0  0
 25 23  1  0  0  0  0
 26 27  1  0  0  0  0
 28 29  2  0  0  0  0
 30 31  2  0  0  0  0
 31 32  1  0  0  0  0
 31 34  1  0  0  0  0
 32 34  1  0  0  0  0
 32 28  1  1  0  0  0
 34 33  1  0  0  0  0
M  END
>  <MODEL>
4

>  <REMARK>
 VINA RESULT:      -7.1      0.844      1.437
  Name = 
  3 active torsions:
  status: ('A' for Active; 'I' for Inactive)
    1  A    between atoms: C_9  and  C_13
    2  A    between atoms: C_13  and  C_24
    3  A    between atoms: C_22  and  C_33
                            x       y       z     vdW  Elec       q    Type
                         _______ _______ _______ _____ _____    ______ ____

>  <TORSDO>
F 3

$$$$
=
 OpenBabel11072414133D

 34 39  0  0  1  0  0  0  0  0999 V2000
  160.0860  209.6560  152.7680 C   0  0  0  0  0  3  0  0  0  0  0  0
  161.8230  209.6110  150.5990 C   0  0  0  0  0  3  0  0  0  0  0  0
  161.2340  207.6500  152.0870 N   0  0  0  0  0  0  0  0  0  0  0  0
  162.0480  211.5650  149.0500 C   0  0  0  0  0  2  0  0  0  0  0  0
  159.5340  211.9780  153.1140 C   0  0  0  0  0  0  0  0  0  0  0  0
  161.9140  210.0850  149.2850 C   0  0  0  0  0  0  0  0  0  0  0  0
  161.1980  205.9970  150.3070 C   0  0  1  0  0  3  0  0  0  0  0  0
  160.5550  208.4100  153.1130 C   0  0  0  0  0  0  0  0  0  0  0  0
  160.0360  213.4170  151.2300 C   0  0  0  0  0  0  0  0  0  0  0  0
  160.0870  212.1910  151.8500 C   0  0  0  0  0  3  0  0  0  0  0  0
  161.5460  207.3550  149.8010 C   0  0  0  0  0  0  0  0  0  0  0  0
  162.2540  205.1150  150.0500 O   0  0  0  0  0  1  0  0  0  0  0  0
  160.4850  208.0330  154.4620 C   0  0  0  0  0  3  0  0  0  0  0  0
  161.6150  208.2400  150.8370 C   0  0  0  0  0  0  0  0  0  0  0  0
  159.9770  208.9500  155.4120 C   0  0  0  0  0  3  0  0  0  0  0  0
  158.9530  213.0700  153.7600 C   0  0  0  0  0  3  0  0  0  0  0  0
  160.6830  213.5900  149.8780 C   0  0  0  0  0  2  0  0  0  0  0  0
  160.6890  212.2820  149.0510 C   0  0  1  0  0  3  0  0  0  0  0  0
  161.6360  207.7920  148.4720 C   0  0  0  0  0  3  0  0  0  0  0  0
  161.8200  209.1690  148.2180 C   0  0  0  0  0  3  0  0  0  0  0  0
  159.5850  210.2530  155.0250 C   0  0  0  0  0  3  0  0  0  0  0  0
  159.6540  210.6090  153.6710 C   0  0  0  0  0  0  0  0  0  0  0  0
  158.9370  214.2800  153.1250 N   0  0  0  0  0  0  0  0  0  0  0  0
  160.9770  206.2300  151.8380 C   0  0  1  0  0  3  0  0  0  0  0  0
  159.4630  214.4520  151.9020 N   0  0  0  0  0  0  0  0  0  0  0  0
  161.2430  204.0830  152.9070 O   0  0  0  0  0  1  0  0  0  0  0  0
  161.8210  205.3470  152.7610 C   0  0  0  0  0  2  0  0  0  0  0  0
  160.1720  212.5070  147.6550 C   0  0  0  0  0  0  0  0  0  0  0  0
  159.0040  212.8290  147.5250 O   0  0  0  0  0  0  0  0  0  0  0  0
  162.4600  214.4080  145.9810 O   0  0  0  0  0  0  0  0  0  0  0  0
  161.5820  213.5080  145.9320 C   0  0  0  0  0  0  0  0  0  0  0  0
  161.0010  212.3340  146.4020 C   0  0  2  0  0  3  0  0  0  0  0  0
  159.2410  212.8950  144.3530 C   0  0  0  0  0  1  0  0  0  0  0  0
  160.3260  212.8880  145.3130 N   0  0  0  0  0  0  0  0  0  0  0  0
  1  8  2  0  0  0  0
  1 22  1  0  0  0  0
  2 14  1  0  0  0  0
  3  8  1  0  0  0  0
  4 18  1  0  0  0  0
  4  6  1  0  0  0  0
  5 22  1  0  0  0  0
  5 16  1  0  0  0  0
  6  2  2  0  0  0  0
  7 12  1  1  0  0  0
  7 24  1  0  0  0  0
  8 13  1  0  0  0  0
  9 10  1  0  0  0  0
  9 25  2  0  0  0  0
 10  5  2  0  0  0  0
 11  7  1  0  0  0  0
 11 14  2  0  0  0  0
 13 15  2  0  0  0  0
 14  3  1  0  0  0  0
 17  9  1  0  0  0  0
 18 28  1  6  0  0  0
 18 17  1  0  0  0  0
 19 11  1  0  0  0  0
 20 19  2  0  0  0  0
 20  6  1  0  0  0  0
 21 15  1  0  0  0  0
 22 21  2  0  0  0  0
 23 16  2  0  0  0  0
 24  3  1  0  0  0  0
 24 27  1  1  0  0  0
 25 23  1  0  0  0  0
 27 26  1  0  0  0  0
 29 28  2  0  0  0  0
 31 30  2  0  0  0  0
 31 32  1  0  0  0  0
 32 28  1  1  0  0  0
 33 34  1  0  0  0  0
 34 31  1  0  0  0  0
 34 32  1  0  0  0  0
M  END
>  <MODEL>
5

>  <REMARK>
 VINA RESULT:      -6.4      2.827      5.116
  Name = 
  3 active torsions:
  status: ('A' for Active; 'I' for Inactive)
    1  A    between atoms: C_9  and  C_13
    2  A    between atoms: C_13  and  C_24
    3  A    between atoms: C_22  and  C_33
                            x       y       z     vdW  Elec       q    Type
                         _______ _______ _______ _____ _____    ______ ____

>  <TORSDO>
F 3

$$$$
=
 OpenBabel11072414133D

 34 39  0  0  1  0  0  0  0  0999 V2000
  160.9250  205.3440  151.0140 C   0  0  0  0  0  3  0  0  0  0  0  0
  162.3900  206.2770  148.8450 C   0  0  0  0  0  3  0  0  0  0  0  0
  161.3790  203.9700  149.0880 N   0  0  0  0  0  0  0  0  0  0  0  0
  163.0460  208.6840  148.6360 C   0  0  0  0  0  2  0  0  0  0  0  0
  161.1020  207.0530  152.7060 C   0  0  0  0  0  0  0  0  0  0  0  0
  162.5070  207.4140  148.0370 C   0  0  0  0  0  0  0  0  0  0  0  0
  160.7180  203.7480  146.7610 C   0  0  1  0  0  3  0  0  0  0  0  0
  161.0370  204.0790  150.4890 C   0  0  0  0  0  0  0  0  0  0  0  0
  161.8460  209.2070  151.8790 C   0  0  0  0  0  0  0  0  0  0  0  0
  161.5880  207.8700  151.6830 C   0  0  0  0  0  3  0  0  0  0  0  0
  161.4030  205.0450  147.0260 C   0  0  0  0  0  0  0  0  0  0  0  0
  161.4470  203.0150  145.8170 O   0  0  0  0  0  1  0  0  0  0  0  0
  160.9710  202.9920  151.3740 C   0  0  0  0  0  3  0  0  0  0  0  0
  161.8120  205.1050  148.3260 C   0  0  0  0  0  0  0  0  0  0  0  0
  160.8310  203.2370  152.7610 C   0  0  0  0  0  3  0  0  0  0  0  0
  160.9200  207.6290  153.9640 C   0  0  0  0  0  3  0  0  0  0  0  0
  162.4020  210.0260  150.7410 C   0  0  0  0  0  2  0  0  0  0  0  0
  161.9600  209.4980  149.3570 C   0  0  1  0  0  3  0  0  0  0  0  0
  161.5080  206.1610  146.1850 C   0  0  0  0  0  3  0  0  0  0  0  0
  162.0630  207.3530  146.7000 C   0  0  0  0  0  3  0  0  0  0  0  0
  160.8060  204.5580  153.2650 C   0  0  0  0  0  3  0  0  0  0  0  0
  160.8640  205.6300  152.3650 C   0  0  0  0  0  0  0  0  0  0  0  0
  161.2050  208.9560  154.1300 N   0  0  0  0  0  0  0  0  0  0  0  0
  160.7000  203.0580  148.1650 C   0  0  1  0  0  3  0  0  0  0  0  0
  161.6560  209.7210  153.1240 N   0  0  0  0  0  0  0  0  0  0  0  0
  160.4590  200.7500  148.8270 O   0  0  0  0  0  1  0  0  0  0  0  0
  161.3230  201.6600  148.2130 C   0  0  0  0  0  2  0  0  0  0  0  0
  161.4190  210.6030  148.4880 C   0  0  0  0  0  0  0  0  0  0  0  0
  160.8290  210.2900  147.4690 O   0  0  0  0  0  0  0  0  0  0  0  0
  159.3550  213.3220  148.4850 O   0  0  0  0  0  0  0  0  0  0  0  0
  160.5230  212.8700  148.3580 C   0  0  0  0  0  0  0  0  0  0  0  0
  161.5840  212.0770  148.7840 C   0  0  2  0  0  3  0  0  0  0  0  0
  162.7070  213.0990  146.4800 C   0  0  0  0  0  1  0  0  0  0  0  0
  161.8490  212.7650  147.5980 N   0  0  0  0  0  0  0  0  0  0  0  0
  1 22  1  0  0  0  0
  3  8  1  0  0  0  0
  4 18  1  0  0  0  0
  5 16  1  0  0  0  0
  6  4  1  0  0  0  0
  6  2  2  0  0  0  0
  7 12  1  6  0  0  0
  7 11  1  0  0  0  0
  7 24  1  0  0  0  0
  8  1  2  0  0  0  0
  8 13  1  0  0  0  0
  9 25  2  0  0  0  0
 10  9  1  0  0  0  0
 10  5  2  0  0  0  0
 11 14  2  0  0  0  0
 13 15  2  0  0  0  0
 14  2  1  0  0  0  0
 14  3  1  0  0  0  0
 15 21  1  0  0  0  0
 16 23  2  0  0  0  0
 17  9  1  0  0  0  0
 18 28  1  6  0  0  0
 18 17  1  0  0  0  0
 19 20  2  0  0  0  0
 19 11  1  0  0  0  0
 20  6  1  0  0  0  0
 22  5  1  0  0  0  0
 22 21  2  0  0  0  0
 24 27  1  6  0  0  0
 24  3  1  0  0  0  0
 25 23  1  0  0  0  0
 27 26  1  0  0  0  0
 29 28  2  0  0  0  0
 31 30  2  0  0  0  0
 31 32  1  0  0  0  0
 32 28  1  6  0  0  0
 33 34  1  0  0  0  0
 34 31  1  0  0  0  0
 34 32  1  0  0  0  0
M  END
>  <MODEL>
6

>  <REMARK>
 VINA RESULT:      -5.5      2.292      3.114
  Name = 
  3 active torsions:
  status: ('A' for Active; 'I' for Inactive)
    1  A    between atoms: C_9  and  C_13
    2  A    between atoms: C_13  and  C_24
    3  A    between atoms: C_22  and  C_33
                            x       y       z     vdW  Elec       q    Type
                         _______ _______ _______ _____ _____    ______ ____

>  <TORSDO>
F 3

$$$$
=
 OpenBabel11072414133D

 34 39  0  0  1  0  0  0  0  0999 V2000
  161.7770  207.0620  149.3120 C   0  0  0  0  0  3  0  0  0  0  0  0
  160.4840  206.9840  151.7710 C   0  0  0  0  0  3  0  0  0  0  0  0
  161.0080  204.9990  150.2920 N   0  0  0  0  0  0  0  0  0  0  0  0
  160.3280  209.0040  153.2420 C   0  0  0  0  0  2  0  0  0  0  0  0
  161.9910  209.3990  148.7600 C   0  0  0  0  0  0  0  0  0  0  0  0
  160.5840  207.5340  153.0540 C   0  0  0  0  0  0  0  0  0  0  0  0
  161.5560  203.4810  152.1070 C   0  0  1  0  0  3  0  0  0  0  0  0
  161.3970  205.7540  149.1210 C   0  0  0  0  0  0  0  0  0  0  0  0
  161.6840  210.9030  150.6360 C   0  0  0  0  0  0  0  0  0  0  0  0
  161.6590  209.6390  150.0950 C   0  0  0  0  0  3  0  0  0  0  0  0
  161.1570  204.8270  152.6060 C   0  0  0  0  0  0  0  0  0  0  0  0
  160.6720  202.5150  152.6000 O   0  0  0  0  0  1  0  0  0  0  0  0
  161.2600  205.2960  147.8020 C   0  0  0  0  0  3  0  0  0  0  0  0
  160.7980  205.6290  151.5620 C   0  0  0  0  0  0  0  0  0  0  0  0
  161.4780  206.1950  146.7320 C   0  0  0  0  0  3  0  0  0  0  0  0
  162.3160  210.4990  147.9660 C   0  0  0  0  0  3  0  0  0  0  0  0
  161.2810  211.0980  152.0770 C   0  0  0  0  0  2  0  0  0  0  0  0
  161.5740  209.8550  152.9490 C   0  0  1  0  0  3  0  0  0  0  0  0
  161.2620  205.3400  153.9060 C   0  0  0  0  0  3  0  0  0  0  0  0
  160.9750  206.7050  154.1260 C   0  0  0  0  0  3  0  0  0  0  0  0
  161.7850  207.5540  146.9760 C   0  0  0  0  0  3  0  0  0  0  0  0
  161.9250  207.9910  148.3000 C   0  0  0  0  0  0  0  0  0  0  0  0
  162.3120  211.7440  148.5290 N   0  0  0  0  0  0  0  0  0  0  0  0
  161.4650  203.6320  150.5530 C   0  0  1  0  0  3  0  0  0  0  0  0
  162.0030  211.9430  149.8200 N   0  0  0  0  0  0  0  0  0  0  0  0
  161.2590  201.9780  148.8070 O   0  0  0  0  0  1  0  0  0  0  0  0
  160.5710  202.6080  149.8490 C   0  0  0  0  0  2  0  0  0  0  0  0
  162.3100  210.2250  154.2110 C   0  0  0  0  0  0  0  0  0  0  0  0
  163.4680  210.5890  154.1080 O   0  0  0  0  0  0  0  0  0  0  0  0
  160.1870  212.1660  156.0470 O   0  0  0  0  0  0  0  0  0  0  0  0
  161.1280  211.3310  156.0380 C   0  0  0  0  0  0  0  0  0  0  0  0
  161.7130  210.1460  155.5980 C   0  0  2  0  0  3  0  0  0  0  0  0
  163.7360  211.0410  157.2470 C   0  0  0  0  0  1  0  0  0  0  0  0
  162.5130  210.8610  156.4920 N   0  0  0  0  0  0  0  0  0  0  0  0
  2  6  1  0  0  0  0
  3 24  1  0  0  0  0
  3 14  1  0  0  0  0
  5 10  1  0  0  0  0
  6  4  1  0  0  0  0
  6 20  2  0  0  0  0
  7 12  1  1  0  0  0
  7 11  1  0  0  0  0
  8  1  1  0  0  0  0
  8  3  1  0  0  0  0
  9 17  1  0  0  0  0
 10  9  2  0  0  0  0
 11 19  2  0  0  0  0
 13  8  2  0  0  0  0
 14  2  2  0  0  0  0
 14 11  1  0  0  0  0
 15 21  2  0  0  0  0
 15 13  1  0  0  0  0
 16 23  1  0  0  0  0
 16  5  2  0  0  0  0
 17 18  1  0  0  0  0
 18  4  1  0  0  0  0
 18 28  1  1  0  0  0
 19 20  1  0  0  0  0
 21 22  1  0  0  0  0
 22  5  1  0  0  0  0
 22  1  2  0  0  0  0
 23 25  2  0  0  0  0
 24 27  1  1  0  0  0
 24  7  1  0  0  0  0
 25  9  1  0  0  0  0
 26 27  1  0  0  0  0
 29 28  2  0  0  0  0
 31 30  2  0  0  0  0
 31 34  1  0  0  0  0
 32 28  1  6  0  0  0
 32 31  1  0  0  0  0
 32 34  1  0  0  0  0
 34 33  1  0  0  0  0
M  END
>  <MODEL>
7

>  <REMARK>
 VINA RESULT:      -5.3      2.189      5.076
  Name = 
  3 active torsions:
  status: ('A' for Active; 'I' for Inactive)
    1  A    between atoms: C_9  and  C_13
    2  A    between atoms: C_13  and  C_24
    3  A    between atoms: C_22  and  C_33
                            x       y       z     vdW  Elec       q    Type
                         _______ _______ _______ _____ _____    ______ ____

>  <TORSDO>
F 3

$$$$
