=
 OpenBabel11072413573D

 29 31  0  0  1  0  0  0  0  0999 V2000
  161.5000  200.7770  146.5800 C   0  0  2  0  0  3  0  0  0  0  0  0
  160.3380  202.2480  148.0540 C   0  0  1  0  0  3  0  0  0  0  0  0
  160.8910  201.0890  148.7690 C   0  0  0  0  0  0  0  0  0  0  0  0
  161.0260  203.8950  149.7920 C   0  0  0  0  0  0  0  0  0  0  0  0
  159.9560  201.7920  150.8500 C   0  0  0  0  0  2  0  0  0  0  0  0
  160.7270  200.8660  150.0330 N   0  0  0  0  0  0  0  0  0  0  0  0
  160.9240  203.5000  148.5520 N   0  0  0  0  0  0  0  0  0  0  0  0
  161.5760  200.2110  147.9170 N   0  0  0  0  0  2  0  0  0  0  0  0
  160.6200  203.0880  150.9120 N   0  0  0  0  0  2  0  0  0  0  0  0
  160.6550  201.9850  146.6250 N   0  0  0  0  0  0  0  0  0  0  0  0
  161.3370  207.7050  149.9460 C   0  0  0  0  0  2  0  0  0  0  0  0
  161.7290  206.5830  152.1780 C   0  0  0  0  0  3  0  0  0  0  0  0
  161.2040  207.8050  151.4660 C   0  0  1  0  0  3  0  0  0  0  0  0
  160.7890  206.3620  149.4790 C   0  0  0  0  0  2  0  0  0  0  0  0
  161.8770  205.4030  151.5580 C   0  0  0  0  0  3  0  0  0  0  0  0
  161.6300  205.2310  150.0790 C   0  0  1  0  0  3  0  0  0  0  0  0
  161.8540  209.0480  151.9880 C   0  0  0  0  0  0  0  0  0  0  0  0
  162.7230  209.6400  151.2930 O   0  0  0  0  0  0  0  0  0  0  0  0
  161.5040  209.5780  153.2690 N   0  0  0  0  0  2  0  0  0  0  0  0
  161.2770  208.4010  155.3890 C   0  0  0  0  0  1  0  0  0  0  0  0
  160.5550  208.9350  154.1660 C   0  0  0  0  0  2  0  0  0  0  0  0
  160.8970  199.7660  145.6190 C   0  0  0  0  0  2  0  0  0  0  0  0
  161.6590  198.4560  145.6860 C   0  0  0  0  0  1  0  0  0  0  0  0
  161.4130  203.0570  145.9810 C   0  0  0  0  0  2  0  0  0  0  0  0
  160.5640  203.7340  144.9220 C   0  0  0  0  0  2  0  0  0  0  0  0
  162.5700  205.6780  145.5520 O   0  0  0  0  0  1  0  0  0  0  0  0
  161.3930  205.7430  143.0560 O   0  0  0  0  0  0  0  0  0  0  0  0
  160.0750  206.3920  145.2200 O   0  0  0  0  0  1  0  0  0  0  0  0
  161.1280  205.4420  144.7000 P   0  0  0  0  0  0  0  0  0  0  0  0
  1 22  1  6  0  0  0
  1 10  1  0  0  0  0
  1  8  1  0  0  0  0
  2  7  1  1  0  0  0
  2  3  1  0  0  0  0
  3  6  2  0  0  0  0
  4  9  1  0  0  0  0
  5  9  1  0  0  0  0
  6  5  1  0  0  0  0
  7  4  2  0  0  0  0
  8  3  1  0  0  0  0
 10  2  1  0  0  0  0
 11 13  1  0  0  0  0
 13 17  1  1  0  0  0
 13 12  1  0  0  0  0
 14 11  1  0  0  0  0
 14 16  1  0  0  0  0
 15 12  2  0  0  0  0
 16  4  1  1  0  0  0
 16 15  1  0  0  0  0
 17 19  1  0  0  0  0
 18 17  2  0  0  0  0
 19 21  1  0  0  0  0
 21 20  1  0  0  0  0
 22 23  1  0  0  0  0
 24 10  1  0  0  0  0
 25 24  1  0  0  0  0
 27 29  2  0  0  0  0
 29 25  1  0  0  0  0
 29 28  1  0  0  0  0
 29 26  1  0  0  0  0
M  END
>  <MODEL>
1

>  <REMARK>
 VINA RESULT:      -7.3      0.000      0.000
  Name = 
  7 active torsions:
  status: ('A' for Active; 'I' for Inactive)
    1  A    between atoms: C_1  and  C_9
    2  A    between atoms: C_3  and  C_19
    3  A    between atoms: C_8  and  C_17
    4  A    between atoms: C_8  and  P_29
    5  A    between atoms: C_12  and  C_28
    6  A    between atoms: C_17  and  N_26
    7  A    between atoms: C_23  and  N_25
                            x       y       z     vdW  Elec       q    Type
                         _______ _______ _______ _____ _____    ______ ____

>  <TORSDO>
F 7

$$$$
=
 OpenBabel11072413573D

 29 31  0  0  1  0  0  0  0  0999 V2000
  161.0820  205.3940  146.7000 C   0  0  2  0  0  3  0  0  0  0  0  0
  162.1690  206.4510  148.5420 C   0  0  1  0  0  3  0  0  0  0  0  0
  161.5200  207.4310  147.6590 C   0  0  0  0  0  0  0  0  0  0  0  0
  161.3960  207.5420  150.6440 C   0  0  0  0  0  0  0  0  0  0  0  0
  162.3050  209.2760  148.9560 C   0  0  0  0  0  2  0  0  0  0  0  0
  161.5730  208.7130  147.8300 N   0  0  0  0  0  0  0  0  0  0  0  0
  161.5850  206.4930  149.8900 N   0  0  0  0  0  0  0  0  0  0  0  0
  160.8780  206.8280  146.5690 N   0  0  0  0  0  2  0  0  0  0  0  0
  161.6820  208.8850  150.2140 N   0  0  0  0  0  2  0  0  0  0  0  0
  161.9610  205.1460  147.8590 N   0  0  0  0  0  0  0  0  0  0  0  0
  161.1210  206.3410  154.2670 C   0  0  0  0  0  2  0  0  0  0  0  0
  160.8180  208.8400  154.0200 C   0  0  0  0  0  3  0  0  0  0  0  0
  161.3200  207.7190  154.8970 C   0  0  1  0  0  3  0  0  0  0  0  0
  161.6380  206.3620  152.8330 C   0  0  0  0  0  2  0  0  0  0  0  0
  160.6340  208.6860  152.7000 C   0  0  0  0  0  3  0  0  0  0  0  0
  160.8150  207.3560  152.0080 C   0  0  1  0  0  3  0  0  0  0  0  0
  160.7030  207.7890  156.2590 C   0  0  0  0  0  0  0  0  0  0  0  0
  159.7050  207.0700  156.5320 O   0  0  0  0  0  0  0  0  0  0  0  0
  161.2300  208.6630  157.2610 N   0  0  0  0  0  2  0  0  0  0  0  0
  161.8240  210.9810  156.8100 C   0  0  0  0  0  1  0  0  0  0  0  0
  162.3420  209.5710  157.0230 C   0  0  0  0  0  2  0  0  0  0  0  0
  161.7280  204.8420  145.4410 C   0  0  0  0  0  2  0  0  0  0  0  0
  161.1410  205.5090  144.2120 C   0  0  0  0  0  1  0  0  0  0  0  0
  161.2940  204.1440  148.6890 C   0  0  0  0  0  2  0  0  0  0  0  0
  161.1620  202.8380  147.9280 C   0  0  0  0  0  2  0  0  0  0  0  0
  161.2320  201.9310  150.6420 O   0  0  0  0  0  1  0  0  0  0  0  0
  159.0580  201.2690  149.0750 O   0  0  0  0  0  1  0  0  0  0  0  0
  161.4240  200.2330  148.6610 O   0  0  0  0  0  0  0  0  0  0  0  0
  160.7330  201.5090  149.0830 P   0  0  0  0  0  0  0  0  0  0  0  0
  1 22  1  6  0  0  0
  1 10  1  0  0  0  0
  2  3  1  6  0  0  0
  2  7  1  0  0  0  0
  3  6  2  0  0  0  0
  5  9  1  0  0  0  0
  6  5  1  0  0  0  0
  7  4  2  0  0  0  0
  8  1  1  0  0  0  0
  8  3  1  0  0  0  0
  9  4  1  0  0  0  0
 10  2  1  0  0  0  0
 10 24  1  0  0  0  0
 11 13  1  0  0  0  0
 12 13  1  0  0  0  0
 13 17  1  1  0  0  0
 14 11  1  0  0  0  0
 15 12  2  0  0  0  0
 16  4  1  6  0  0  0
 16 15  1  0  0  0  0
 16 14  1  0  0  0  0
 17 18  2  0  0  0  0
 17 19  1  0  0  0  0
 20 21  1  0  0  0  0
 21 19  1  0  0  0  0
 23 22  1  0  0  0  0
 25 24  1  0  0  0  0
 25 29  1  0  0  0  0
 27 29  1  0  0  0  0
 28 29  2  0  0  0  0
 29 26  1  0  0  0  0
M  END
>  <MODEL>
2

>  <REMARK>
 VINA RESULT:      -7.1      3.690      5.259
  Name = 
  7 active torsions:
  status: ('A' for Active; 'I' for Inactive)
    1  A    between atoms: C_1  and  C_9
    2  A    between atoms: C_3  and  C_19
    3  A    between atoms: C_8  and  C_17
    4  A    between atoms: C_8  and  P_29
    5  A    between atoms: C_12  and  C_28
    6  A    between atoms: C_17  and  N_26
    7  A    between atoms: C_23  and  N_25
                            x       y       z     vdW  Elec       q    Type
                         _______ _______ _______ _____ _____    ______ ____

>  <TORSDO>
F 7

$$$$
=
 OpenBabel11072413573D

 29 31  0  0  1  0  0  0  0  0999 V2000
  161.6060  202.6840  147.7810 C   0  0  2  0  0  3  0  0  0  0  0  0
  160.4600  203.8120  149.5430 C   0  0  1  0  0  3  0  0  0  0  0  0
  161.1790  202.6280  150.0340 C   0  0  0  0  0  0  0  0  0  0  0  0
  161.1590  205.2650  151.4430 C   0  0  0  0  0  0  0  0  0  0  0  0
  160.3840  202.9380  152.2630 C   0  0  0  0  0  2  0  0  0  0  0  0
  161.1550  202.2170  151.2610 N   0  0  0  0  0  0  0  0  0  0  0  0
  160.9770  205.0360  150.1700 N   0  0  0  0  0  0  0  0  0  0  0  0
  161.8570  201.9500  149.0110 N   0  0  0  0  0  2  0  0  0  0  0  0
  160.9320  204.2740  152.4620 N   0  0  0  0  0  2  0  0  0  0  0  0
  160.6640  203.7820  148.0700 N   0  0  0  0  0  0  0  0  0  0  0  0
  161.6070  209.0640  151.4690 C   0  0  0  0  0  2  0  0  0  0  0  0
  160.9500  208.1230  153.7230 C   0  0  0  0  0  3  0  0  0  0  0  0
  160.8510  209.2950  152.7780 C   0  0  1  0  0  3  0  0  0  0  0  0
  161.2270  207.7030  150.9010 C   0  0  0  0  0  2  0  0  0  0  0  0
  161.2740  206.8920  153.3020 C   0  0  0  0  0  3  0  0  0  0  0  0
  161.6650  206.6030  151.8730 C   0  0  1  0  0  3  0  0  0  0  0  0
  161.2940  210.5590  153.4460 C   0  0  0  0  0  0  0  0  0  0  0  0
  162.3700  210.5780  154.1010 O   0  0  0  0  0  0  0  0  0  0  0  0
  160.5120  211.7530  153.3520 N   0  0  0  0  0  2  0  0  0  0  0  0
  158.0990  211.6680  153.6670 C   0  0  0  0  0  1  0  0  0  0  0  0
  159.2300  211.8150  152.6670 C   0  0  0  0  0  2  0  0  0  0  0  0
  161.0080  201.7590  146.7340 C   0  0  0  0  0  2  0  0  0  0  0  0
  161.3210  200.3140  147.0690 C   0  0  0  0  0  1  0  0  0  0  0  0
  161.2600  205.0040  147.5310 C   0  0  0  0  0  2  0  0  0  0  0  0
  161.9530  204.7110  146.2140 C   0  0  0  0  0  2  0  0  0  0  0  0
  161.7960  205.6860  143.5270 O   0  0  0  0  0  0  0  0  0  0  0  0
  159.9240  203.8480  144.3860 O   0  0  0  0  0  1  0  0  0  0  0  0
  159.9580  206.3050  145.2820 O   0  0  0  0  0  1  0  0  0  0  0  0
  160.8630  205.1790  144.8430 P   0  0  0  0  0  0  0  0  0  0  0  0
  1 22  1  6  0  0  0
  1 10  1  0  0  0  0
  1  8  1  0  0  0  0
  2  3  1  1  0  0  0
  2  7  1  0  0  0  0
  3  6  2  0  0  0  0
  4  9  1  0  0  0  0
  5  9  1  0  0  0  0
  6  5  1  0  0  0  0
  7  4  2  0  0  0  0
  8  3  1  0  0  0  0
 10  2  1  0  0  0  0
 11 13  1  0  0  0  0
 13 17  1  1  0  0  0
 13 12  1  0  0  0  0
 14 11  1  0  0  0  0
 14 16  1  0  0  0  0
 15 12  2  0  0  0  0
 16  4  1  6  0  0  0
 16 15  1  0  0  0  0
 17 18  2  0  0  0  0
 19 17  1  0  0  0  0
 21 19  1  0  0  0  0
 21 20  1  0  0  0  0
 22 23  1  0  0  0  0
 24 10  1  0  0  0  0
 25 24  1  0  0  0  0
 26 29  2  0  0  0  0
 27 29  1  0  0  0  0
 29 28  1  0  0  0  0
 29 25  1  0  0  0  0
M  END
>  <MODEL>
3

>  <REMARK>
 VINA RESULT:      -7.0      1.754      2.361
  Name = 
  7 active torsions:
  status: ('A' for Active; 'I' for Inactive)
    1  A    between atoms: C_1  and  C_9
    2  A    between atoms: C_3  and  C_19
    3  A    between atoms: C_8  and  C_17
    4  A    between atoms: C_8  and  P_29
    5  A    between atoms: C_12  and  C_28
    6  A    between atoms: C_17  and  N_26
    7  A    between atoms: C_23  and  N_25
                            x       y       z     vdW  Elec       q    Type
                         _______ _______ _______ _____ _____    ______ ____

>  <TORSDO>
F 7

$$$$
=
 OpenBabel11072413573D

 29 31  0  0  1  0  0  0  0  0999 V2000
  161.2750  203.3280  150.1000 C   0  0  2  0  0  3  0  0  0  0  0  0
  160.5830  205.4780  150.8640 C   0  0  1  0  0  3  0  0  0  0  0  0
  161.4260  204.7950  151.8560 C   0  0  0  0  0  0  0  0  0  0  0  0
  161.7050  207.6860  151.1450 C   0  0  0  0  0  0  0  0  0  0  0  0
  161.2070  206.5780  153.4280 C   0  0  0  0  0  2  0  0  0  0  0  0
  161.7170  205.2770  153.0210 N   0  0  0  0  0  0  0  0  0  0  0  0
  161.2160  206.7240  150.4090 N   0  0  0  0  0  0  0  0  0  0  0  0
  161.8400  203.5270  151.4250 N   0  0  0  0  0  2  0  0  0  0  0  0
  161.7600  207.6280  152.5810 N   0  0  0  0  0  2  0  0  0  0  0  0
  160.4130  204.4800  149.7750 N   0  0  0  0  0  0  0  0  0  0  0  0
  162.3970  210.2250  148.3680 C   0  0  0  0  0  2  0  0  0  0  0  0
  161.5740  211.2900  150.5090 C   0  0  0  0  0  3  0  0  0  0  0  0
  161.5960  211.3630  149.0020 C   0  0  1  0  0  3  0  0  0  0  0  0
  161.9560  208.8990  148.9750 C   0  0  0  0  0  2  0  0  0  0  0  0
  161.8370  210.1550  151.1740 C   0  0  0  0  0  3  0  0  0  0  0  0
  162.2760  208.8920  150.4730 C   0  0  1  0  0  3  0  0  0  0  0  0
  162.0880  212.6980  148.5390 C   0  0  0  0  0  0  0  0  0  0  0  0
  163.3060  212.8550  148.2590 O   0  0  0  0  0  0  0  0  0  0  0  0
  161.1920  213.8060  148.4080 N   0  0  0  0  0  2  0  0  0  0  0  0
  158.9420  213.5620  147.5110 C   0  0  0  0  0  1  0  0  0  0  0  0
  159.7820  213.7380  148.7610 C   0  0  0  0  0  2  0  0  0  0  0  0
  160.4530  202.0500  150.0700 C   0  0  0  0  0  2  0  0  0  0  0  0
  161.1980  200.9610  149.3230 C   0  0  0  0  0  1  0  0  0  0  0  0
  160.8310  204.9640  148.4600 C   0  0  0  0  0  2  0  0  0  0  0  0
  161.7330  203.9440  147.7890 C   0  0  0  0  0  2  0  0  0  0  0  0
  161.1150  203.1110  145.1210 O   0  0  0  0  0  0  0  0  0  0  0  0
  161.1150  205.8090  145.7050 O   0  0  0  0  0  1  0  0  0  0  0  0
  163.3250  204.4120  145.6360 O   0  0  0  0  0  1  0  0  0  0  0  0
  161.8670  204.3270  146.0230 P   0  0  0  0  0  0  0  0  0  0  0  0
  1 22  1  1  0  0  0
  1  8  1  0  0  0  0
  2  7  1  6  0  0  0
  2  3  1  0  0  0  0
  3  6  2  0  0  0  0
  4  9  1  0  0  0  0
  6  5  1  0  0  0  0
  7  4  2  0  0  0  0
  8  3  1  0  0  0  0
  9  5  1  0  0  0  0
 10  1  1  0  0  0  0
 10  2  1  0  0  0  0
 11 14  1  0  0  0  0
 11 13  1  0  0  0  0
 12 15  2  0  0  0  0
 13 17  1  1  0  0  0
 13 12  1  0  0  0  0
 14 16  1  0  0  0  0
 16  4  1  1  0  0  0
 16 15  1  0  0  0  0
 18 17  2  0  0  0  0
 19 17  1  0  0  0  0
 19 21  1  0  0  0  0
 20 21  1  0  0  0  0
 23 22  1  0  0  0  0
 24 10  1  0  0  0  0
 25 24  1  0  0  0  0
 26 29  2  0  0  0  0
 27 29  1  0  0  0  0
 28 29  1  0  0  0  0
 29 25  1  0  0  0  0
M  END
>  <MODEL>
4

>  <REMARK>
 VINA RESULT:      -6.9      3.058      4.725
  Name = 
  7 active torsions:
  status: ('A' for Active; 'I' for Inactive)
    1  A    between atoms: C_1  and  C_9
    2  A    between atoms: C_3  and  C_19
    3  A    between atoms: C_8  and  C_17
    4  A    between atoms: C_8  and  P_29
    5  A    between atoms: C_12  and  C_28
    6  A    between atoms: C_17  and  N_26
    7  A    between atoms: C_23  and  N_25
                            x       y       z     vdW  Elec       q    Type
                         _______ _______ _______ _____ _____    ______ ____

>  <TORSDO>
F 7

$$$$
=
 OpenBabel11072413573D

 29 31  0  0  1  0  0  0  0  0999 V2000
  158.8470  211.4960  154.7340 C   0  0  2  0  0  3  0  0  0  0  0  0
  160.6840  209.9880  154.9340 C   0  0  1  0  0  3  0  0  0  0  0  0
  159.4930  209.4890  155.6370 C   0  0  0  0  0  0  0  0  0  0  0  0
  161.2590  207.7790  153.9350 C   0  0  0  0  0  0  0  0  0  0  0  0
  160.6440  207.5560  156.4360 C   0  0  0  0  0  2  0  0  0  0  0  0
  159.4580  208.3920  156.3220 N   0  0  0  0  0  0  0  0  0  0  0  0
  161.0800  209.0700  153.8570 N   0  0  0  0  0  0  0  0  0  0  0  0
  158.4030  210.3640  155.5320 N   0  0  0  0  0  2  0  0  0  0  0  0
  161.0150  207.0200  155.1320 N   0  0  0  0  0  2  0  0  0  0  0  0
  160.2830  211.3310  154.4370 N   0  0  0  0  0  0  0  0  0  0  0  0
  161.6910  204.8520  151.5090 C   0  0  0  0  0  2  0  0  0  0  0  0
  160.7370  206.9230  150.4120 C   0  0  0  0  0  3  0  0  0  0  0  0
  160.7650  205.4140  150.4300 C   0  0  1  0  0  3  0  0  0  0  0  0
  161.3940  205.5390  152.8360 C   0  0  0  0  0  2  0  0  0  0  0  0
  161.1180  207.6560  151.4690 C   0  0  0  0  0  3  0  0  0  0  0  0
  161.7000  207.0360  152.7160 C   0  0  1  0  0  3  0  0  0  0  0  0
  161.1100  204.8700  149.0790 C   0  0  0  0  0  0  0  0  0  0  0  0
  161.5350  205.6450  148.1810 O   0  0  0  0  0  0  0  0  0  0  0  0
  160.9660  203.4770  148.7890 N   0  0  0  0  0  2  0  0  0  0  0  0
  160.9880  201.1340  149.4520 C   0  0  0  0  0  1  0  0  0  0  0  0
  160.4310  202.5150  149.7400 C   0  0  0  0  0  2  0  0  0  0  0  0
  158.6280  212.7910  155.4970 C   0  0  0  0  0  2  0  0  0  0  0  0
  157.1680  213.1960  155.4390 C   0  0  0  0  0  1  0  0  0  0  0  0
  160.4380  211.4970  152.9920 C   0  0  0  0  0  2  0  0  0  0  0  0
  159.0780  211.5910  152.3270 C   0  0  0  0  0  2  0  0  0  0  0  0
  159.0810  214.4520  152.4280 O   0  0  0  0  0  1  0  0  0  0  0  0
  160.2510  213.1970  150.2650 O   0  0  0  0  0  0  0  0  0  0  0  0
  157.6620  213.1800  150.6360 O   0  0  0  0  0  1  0  0  0  0  0  0
  158.9780  213.1310  151.3770 P   0  0  0  0  0  0  0  0  0  0  0  0
  1 22  1  1  0  0  0
  1  8  1  0  0  0  0
  2  7  1  6  0  0  0
  2  3  1  0  0  0  0
  3  6  2  0  0  0  0
  4  9  1  0  0  0  0
  6  5  1  0  0  0  0
  7  4  2  0  0  0  0
  8  3  1  0  0  0  0
  9  5  1  0  0  0  0
 10  1  1  0  0  0  0
 10  2  1  0  0  0  0
 11 14  1  0  0  0  0
 12 13  1  0  0  0  0
 12 15  2  0  0  0  0
 13 17  1  6  0  0  0
 13 11  1  0  0  0  0
 15 16  1  0  0  0  0
 16 14  1  0  0  0  0
 16  4  1  1  0  0  0
 18 17  2  0  0  0  0
 19 17  1  0  0  0  0
 19 21  1  0  0  0  0
 20 21  1  0  0  0  0
 23 22  1  0  0  0  0
 24 10  1  0  0  0  0
 25 24  1  0  0  0  0
 27 29  2  0  0  0  0
 28 29  1  0  0  0  0
 29 25  1  0  0  0  0
 29 26  1  0  0  0  0
M  END
>  <MODEL>
5

>  <REMARK>
 VINA RESULT:      -6.9      3.521      9.492
  Name = 
  7 active torsions:
  status: ('A' for Active; 'I' for Inactive)
    1  A    between atoms: C_1  and  C_9
    2  A    between atoms: C_3  and  C_19
    3  A    between atoms: C_8  and  C_17
    4  A    between atoms: C_8  and  P_29
    5  A    between atoms: C_12  and  C_28
    6  A    between atoms: C_17  and  N_26
    7  A    between atoms: C_23  and  N_25
                            x       y       z     vdW  Elec       q    Type
                         _______ _______ _______ _____ _____    ______ ____

>  <TORSDO>
F 7

$$$$
=
 OpenBabel11072413573D

 29 31  0  0  1  0  0  0  0  0999 V2000
  158.5760  212.3690  153.0460 C   0  0  2  0  0  3  0  0  0  0  0  0
  160.5550  211.1230  153.5140 C   0  0  1  0  0  3  0  0  0  0  0  0
  159.4450  210.7270  154.3910 C   0  0  0  0  0  0  0  0  0  0  0  0
  161.3020  208.7860  153.0780 C   0  0  0  0  0  0  0  0  0  0  0  0
  160.8040  209.1710  155.5860 C   0  0  0  0  0  2  0  0  0  0  0  0
  159.5400  209.8470  155.3350 N   0  0  0  0  0  0  0  0  0  0  0  0
  160.9970  209.9930  152.6840 N   0  0  0  0  0  0  0  0  0  0  0  0
  158.2730  211.4510  154.1320 N   0  0  0  0  0  2  0  0  0  0  0  0
  161.1760  208.3470  154.4430 N   0  0  0  0  0  2  0  0  0  0  0  0
  160.0090  212.2520  152.7150 N   0  0  0  0  0  0  0  0  0  0  0  0
  161.6980  205.4100  151.3220 C   0  0  0  0  0  2  0  0  0  0  0  0
  160.9300  207.2550  149.7720 C   0  0  0  0  0  3  0  0  0  0  0  0
  160.8680  205.7820  150.0930 C   0  0  1  0  0  3  0  0  0  0  0  0
  161.3670  206.3660  152.4620 C   0  0  0  0  0  2  0  0  0  0  0  0
  161.2930  208.1700  150.6830 C   0  0  0  0  0  3  0  0  0  0  0  0
  161.7660  207.7910  152.0660 C   0  0  1  0  0  3  0  0  0  0  0  0
  161.2570  204.9590  148.9050 C   0  0  0  0  0  0  0  0  0  0  0  0
  161.7460  205.5190  147.8880 O   0  0  0  0  0  0  0  0  0  0  0  0
  161.0820  203.5400  148.9050 N   0  0  0  0  0  2  0  0  0  0  0  0
  160.8500  201.3430  149.9310 C   0  0  0  0  0  1  0  0  0  0  0  0
  160.4740  202.8110  150.0090 C   0  0  0  0  0  2  0  0  0  0  0  0
  158.2630  213.7950  153.4650 C   0  0  0  0  0  2  0  0  0  0  0  0
  157.2080  214.3930  152.5540 C   0  0  0  0  0  1  0  0  0  0  0  0
  160.0940  212.0490  151.2690 C   0  0  0  0  0  2  0  0  0  0  0  0
  160.2320  213.3840  150.5610 C   0  0  0  0  0  2  0  0  0  0  0  0
  161.9790  211.7400  148.9980 O   0  0  0  0  0  1  0  0  0  0  0  0
  159.8290  212.9500  147.7580 O   0  0  0  0  0  0  0  0  0  0  0  0
  161.8820  214.3260  148.6160 O   0  0  0  0  0  1  0  0  0  0  0  0
  161.0190  213.1310  148.9480 P   0  0  0  0  0  0  0  0  0  0  0  0
  1 22  1  1  0  0  0
  1  8  1  0  0  0  0
  2  7  1  6  0  0  0
  2  3  1  0  0  0  0
  3  6  2  0  0  0  0
  4  9  1  0  0  0  0
  6  5  1  0  0  0  0
  7  4  2  0  0  0  0
  8  3  1  0  0  0  0
  9  5  1  0  0  0  0
 10  1  1  0  0  0  0
 10  2  1  0  0  0  0
 11 14  1  0  0  0  0
 12 13  1  0  0  0  0
 12 15  2  0  0  0  0
 13 17  1  6  0  0  0
 13 11  1  0  0  0  0
 15 16  1  0  0  0  0
 16 14  1  0  0  0  0
 16  4  1  1  0  0  0
 18 17  2  0  0  0  0
 19 17  1  0  0  0  0
 19 21  1  0  0  0  0
 20 21  1  0  0  0  0
 23 22  1  0  0  0  0
 24 10  1  0  0  0  0
 25 24  1  0  0  0  0
 27 29  2  0  0  0  0
 28 29  1  0  0  0  0
 29 26  1  0  0  0  0
 29 25  1  0  0  0  0
M  END
>  <MODEL>
6

>  <REMARK>
 VINA RESULT:      -6.9      3.410      9.207
  Name = 
  7 active torsions:
  status: ('A' for Active; 'I' for Inactive)
    1  A    between atoms: C_1  and  C_9
    2  A    between atoms: C_3  and  C_19
    3  A    between atoms: C_8  and  C_17
    4  A    between atoms: C_8  and  P_29
    5  A    between atoms: C_12  and  C_28
    6  A    between atoms: C_17  and  N_26
    7  A    between atoms: C_23  and  N_25
                            x       y       z     vdW  Elec       q    Type
                         _______ _______ _______ _____ _____    ______ ____

>  <TORSDO>
F 7

$$$$
=
 OpenBabel11072413573D

 29 31  0  0  1  0  0  0  0  0999 V2000
  162.0840  209.7700  153.1750 C   0  0  2  0  0  3  0  0  0  0  0  0
  160.9890  208.6240  151.3930 C   0  0  1  0  0  3  0  0  0  0  0  0
  162.0540  209.5080  150.8970 C   0  0  0  0  0  0  0  0  0  0  0  0
  161.5930  206.7300  149.8910 C   0  0  0  0  0  0  0  0  0  0  0  0
  161.5760  208.9810  148.6180 C   0  0  0  0  0  2  0  0  0  0  0  0
  162.3320  209.6820  149.6450 N   0  0  0  0  0  0  0  0  0  0  0  0
  161.2730  207.2220  151.0580 N   0  0  0  0  0  0  0  0  0  0  0  0
  162.7070  210.1920  151.9310 N   0  0  0  0  0  2  0  0  0  0  0  0
  161.7920  207.5430  148.7210 N   0  0  0  0  0  2  0  0  0  0  0  0
  160.9540  208.8760  152.8580 N   0  0  0  0  0  0  0  0  0  0  0  0
  160.8370  202.9860  150.1200 C   0  0  0  0  0  2  0  0  0  0  0  0
  161.5560  203.7180  147.8080 C   0  0  0  0  0  3  0  0  0  0  0  0
  160.7030  202.7680  148.6130 C   0  0  1  0  0  3  0  0  0  0  0  0
  160.6770  204.4690  150.4310 C   0  0  0  0  0  2  0  0  0  0  0  0
  162.0170  204.8700  148.3170 C   0  0  0  0  0  3  0  0  0  0  0  0
  161.8070  205.2570  149.7610 C   0  0  1  0  0  3  0  0  0  0  0  0
  160.9900  201.3470  148.2410 C   0  0  0  0  0  0  0  0  0  0  0  0
  161.2100  200.4960  149.1430 O   0  0  0  0  0  0  0  0  0  0  0  0
  161.0200  200.9370  146.8710 N   0  0  0  0  0  2  0  0  0  0  0  0
  159.6810  201.3950  144.8890 C   0  0  0  0  0  1  0  0  0  0  0  0
  160.8350  201.8570  145.7590 C   0  0  0  0  0  2  0  0  0  0  0  0
  161.5790  210.9800  153.9420 C   0  0  0  0  0  2  0  0  0  0  0  0
  160.0780  211.1210  153.7750 C   0  0  0  0  0  1  0  0  0  0  0  0
  161.1260  207.6720  153.6690 C   0  0  0  0  0  2  0  0  0  0  0  0
  159.9700  207.5250  154.6410 C   0  0  0  0  0  2  0  0  0  0  0  0
  162.1730  208.3390  156.2780 O   0  0  0  0  0  0  0  0  0  0  0  0
  159.6640  209.3520  156.8250 O   0  0  0  0  0  1  0  0  0  0  0  0
  160.2630  206.8420  157.2560 O   0  0  0  0  0  1  0  0  0  0  0  0
  160.5190  207.9880  156.3050 P   0  0  0  0  0  0  0  0  0  0  0  0
  1 22  1  6  0  0  0
  2  3  1  6  0  0  0
  2 10  1  0  0  0  0
  3  8  1  0  0  0  0
  4  7  2  0  0  0  0
  5  9  1  0  0  0  0
  5  6  1  0  0  0  0
  6  3  2  0  0  0  0
  7  2  1  0  0  0  0
  8  1  1  0  0  0  0
  9  4  1  0  0  0  0
 10  1  1  0  0  0  0
 10 24  1  0  0  0  0
 11 14  1  0  0  0  0
 12 15  2  0  0  0  0
 12 13  1  0  0  0  0
 13 17  1  1  0  0  0
 13 11  1  0  0  0  0
 15 16  1  0  0  0  0
 16  4  1  6  0  0  0
 16 14  1  0  0  0  0
 17 18  2  0  0  0  0
 19 17  1  0  0  0  0
 20 21  1  0  0  0  0
 21 19  1  0  0  0  0
 23 22  1  0  0  0  0
 24 25  1  0  0  0  0
 25 29  1  0  0  0  0
 26 29  2  0  0  0  0
 29 27  1  0  0  0  0
 29 28  1  0  0  0  0
M  END
>  <MODEL>
7

>  <REMARK>
 VINA RESULT:      -6.8      3.775      9.362
  Name = 
  7 active torsions:
  status: ('A' for Active; 'I' for Inactive)
    1  A    between atoms: C_1  and  C_9
    2  A    between atoms: C_3  and  C_19
    3  A    between atoms: C_8  and  C_17
    4  A    between atoms: C_8  and  P_29
    5  A    between atoms: C_12  and  C_28
    6  A    between atoms: C_17  and  N_26
    7  A    between atoms: C_23  and  N_25
                            x       y       z     vdW  Elec       q    Type
                         _______ _______ _______ _____ _____    ______ ____

>  <TORSDO>
F 7

$$$$
=
 OpenBabel11072413573D

 29 31  0  0  1  0  0  0  0  0999 V2000
  160.6800  210.0330  153.1910 C   0  0  2  0  0  3  0  0  0  0  0  0
  161.8180  208.1510  152.2690 C   0  0  1  0  0  3  0  0  0  0  0  0
  160.9390  207.7620  153.3800 C   0  0  0  0  0  0  0  0  0  0  0  0
  161.1550  206.2370  150.8170 C   0  0  0  0  0  0  0  0  0  0  0  0
  161.6060  205.4730  153.2460 C   0  0  0  0  0  2  0  0  0  0  0  0
  160.8310  206.5550  153.8360 N   0  0  0  0  0  0  0  0  0  0  0  0
  161.3990  207.5040  151.0180 N   0  0  0  0  0  0  0  0  0  0  0  0
  160.2630  208.8560  153.9380 N   0  0  0  0  0  2  0  0  0  0  0  0
  161.1970  205.2510  151.8640 N   0  0  0  0  0  2  0  0  0  0  0  0
  161.7160  209.6340  152.2200 N   0  0  0  0  0  0  0  0  0  0  0  0
  161.3180  205.8570  147.0140 C   0  0  0  0  0  2  0  0  0  0  0  0
  161.2180  203.6430  148.2320 C   0  0  0  0  0  3  0  0  0  0  0  0
  161.7390  204.3880  147.0280 C   0  0  1  0  0  3  0  0  0  0  0  0
  161.6130  206.4790  148.3730 C   0  0  0  0  0  2  0  0  0  0  0  0
  160.8240  204.2760  149.3470 C   0  0  0  0  0  3  0  0  0  0  0  0
  160.7720  205.7820  149.4470 C   0  0  1  0  0  3  0  0  0  0  0  0
  161.3440  203.6970  145.7600 C   0  0  0  0  0  0  0  0  0  0  0  0
  161.3640  204.3270  144.6700 O   0  0  0  0  0  0  0  0  0  0  0  0
  160.9410  202.3240  145.7670 N   0  0  0  0  0  2  0  0  0  0  0  0
  161.4490  200.1620  146.7640 C   0  0  0  0  0  1  0  0  0  0  0  0
  160.8310  201.5300  146.9810 C   0  0  0  0  0  2  0  0  0  0  0  0
  161.2430  211.0780  154.1390 C   0  0  0  0  0  2  0  0  0  0  0  0
  160.5830  210.9650  155.5000 C   0  0  0  0  0  1  0  0  0  0  0  0
  161.2990  210.1550  150.9190 C   0  0  0  0  0  2  0  0  0  0  0  0
  162.4980  210.6990  150.1650 C   0  0  0  0  0  2  0  0  0  0  0  0
  160.8740  212.9510  149.4660 O   0  0  0  0  0  1  0  0  0  0  0  0
  163.2560  212.5630  148.1260 O   0  0  0  0  0  1  0  0  0  0  0  0
  161.2070  210.9730  147.7880 O   0  0  0  0  0  0  0  0  0  0  0  0
  161.9280  211.7900  148.8340 P   0  0  0  0  0  0  0  0  0  0  0  0
  1  8  1  0  0  0  0
  1 22  1  1  0  0  0
  2  7  1  6  0  0  0
  2  3  1  0  0  0  0
  3  6  2  0  0  0  0
  3  8  1  0  0  0  0
  4  7  2  0  0  0  0
  4  9  1  0  0  0  0
  5  6  1  0  0  0  0
  9  5  1  0  0  0  0
 10  2  1  0  0  0  0
 10  1  1  0  0  0  0
 11 13  1  0  0  0  0
 11 14  1  0  0  0  0
 12 15  2  0  0  0  0
 13 17  1  6  0  0  0
 13 12  1  0  0  0  0
 14 16  1  0  0  0  0
 15 16  1  0  0  0  0
 16  4  1  1  0  0  0
 17 19  1  0  0  0  0
 18 17  2  0  0  0  0
 19 21  1  0  0  0  0
 20 21  1  0  0  0  0
 22 23  1  0  0  0  0
 24 10  1  0  0  0  0
 25 24  1  0  0  0  0
 27 29  1  0  0  0  0
 28 29  2  0  0  0  0
 29 26  1  0  0  0  0
 29 25  1  0  0  0  0
M  END
>  <MODEL>
8

>  <REMARK>
 VINA RESULT:      -6.5      2.567      8.261
  Name = 
  7 active torsions:
  status: ('A' for Active; 'I' for Inactive)
    1  A    between atoms: C_1  and  C_9
    2  A    between atoms: C_3  and  C_19
    3  A    between atoms: C_8  and  C_17
    4  A    between atoms: C_8  and  P_29
    5  A    between atoms: C_12  and  C_28
    6  A    between atoms: C_17  and  N_26
    7  A    between atoms: C_23  and  N_25
                            x       y       z     vdW  Elec       q    Type
                         _______ _______ _______ _____ _____    ______ ____

>  <TORSDO>
F 7

$$$$
=
 OpenBabel11072413573D

 29 31  0  0  1  0  0  0  0  0999 V2000
  160.1850  210.4460  154.3690 C   0  0  2  0  0  3  0  0  0  0  0  0
  161.5870  209.0260  153.0620 C   0  0  1  0  0  3  0  0  0  0  0  0
  160.8310  208.2650  154.0670 C   0  0  0  0  0  0  0  0  0  0  0  0
  161.2000  207.3750  151.2360 C   0  0  0  0  0  0  0  0  0  0  0  0
  161.8680  206.2070  153.4440 C   0  0  0  0  0  2  0  0  0  0  0  0
  160.9460  206.9900  154.2540 N   0  0  0  0  0  0  0  0  0  0  0  0
  161.2340  208.5950  151.7030 N   0  0  0  0  0  0  0  0  0  0  0  0
  160.0020  209.0840  154.8470 N   0  0  0  0  0  2  0  0  0  0  0  0
  161.4490  206.2140  152.0480 N   0  0  0  0  0  2  0  0  0  0  0  0
  161.2350  210.4450  153.3320 N   0  0  0  0  0  0  0  0  0  0  0  0
  161.6270  207.2920  147.4350 C   0  0  0  0  0  2  0  0  0  0  0  0
  160.8310  205.0920  148.3970 C   0  0  0  0  0  3  0  0  0  0  0  0
  161.6440  205.7680  147.3200 C   0  0  1  0  0  3  0  0  0  0  0  0
  161.9410  207.6930  148.8710 C   0  0  0  0  0  2  0  0  0  0  0  0
  160.5100  205.7110  149.5430 C   0  0  0  0  0  3  0  0  0  0  0  0
  160.8460  207.1600  149.8010 C   0  0  1  0  0  3  0  0  0  0  0  0
  161.2060  205.3200  145.9600 C   0  0  0  0  0  0  0  0  0  0  0  0
  160.7460  206.1600  145.1420 O   0  0  0  0  0  0  0  0  0  0  0  0
  161.3020  203.9470  145.5720 N   0  0  0  0  0  2  0  0  0  0  0  0
  160.8310  201.7030  146.3930 C   0  0  0  0  0  1  0  0  0  0  0  0
  161.7660  202.8960  146.4650 C   0  0  0  0  0  2  0  0  0  0  0  0
  160.6010  211.3500  155.5170 C   0  0  0  0  0  2  0  0  0  0  0  0
  159.3890  212.0540  156.0970 C   0  0  0  0  0  1  0  0  0  0  0  0
  160.6860  211.1490  152.1740 C   0  0  0  0  0  2  0  0  0  0  0  0
  159.2350  211.5170  152.4240 C   0  0  0  0  0  2  0  0  0  0  0  0
  160.2720  213.7350  150.9410 O   0  0  0  0  0  1  0  0  0  0  0  0
  157.5760  213.1660  150.7720 O   0  0  0  0  0  0  0  0  0  0  0  0
  158.6510  214.1170  152.9590 O   0  0  0  0  0  1  0  0  0  0  0  0
  158.9210  213.1880  151.7980 P   0  0  0  0  0  0  0  0  0  0  0  0
  1  8  1  0  0  0  0
  1 22  1  1  0  0  0
  2  7  1  6  0  0  0
  2 10  1  0  0  0  0
  2  3  1  0  0  0  0
  3  6  2  0  0  0  0
  3  8  1  0  0  0  0
  4  7  2  0  0  0  0
  4  9  1  0  0  0  0
  5  6  1  0  0  0  0
  9  5  1  0  0  0  0
 10  1  1  0  0  0  0
 11 14  1  0  0  0  0
 12 15  2  0  0  0  0
 13 17  1  6  0  0  0
 13 11  1  0  0  0  0
 13 12  1  0  0  0  0
 14 16  1  0  0  0  0
 15 16  1  0  0  0  0
 16  4  1  1  0  0  0
 18 17  2  0  0  0  0
 19 17  1  0  0  0  0
 19 21  1  0  0  0  0
 20 21  1  0  0  0  0
 22 23  1  0  0  0  0
 24 25  1  0  0  0  0
 24 10  1  0  0  0  0
 26 29  1  0  0  0  0
 27 29  2  0  0  0  0
 29 25  1  0  0  0  0
 29 28  1  0  0  0  0
M  END
>  <MODEL>
9

>  <REMARK>
 VINA RESULT:      -6.5      3.323      9.094
  Name = 
  7 active torsions:
  status: ('A' for Active; 'I' for Inactive)
    1  A    between atoms: C_1  and  C_9
    2  A    between atoms: C_3  and  C_19
    3  A    between atoms: C_8  and  C_17
    4  A    between atoms: C_8  and  P_29
    5  A    between atoms: C_12  and  C_28
    6  A    between atoms: C_17  and  N_26
    7  A    between atoms: C_23  and  N_25
                            x       y       z     vdW  Elec       q    Type
                         _______ _______ _______ _____ _____    ______ ____

>  <TORSDO>
F 7

$$$$
