=
 OpenBabel11072415273D

 70 78  0  0  1  0  0  0  0  0999 V2000
  162.9420  206.2720  148.8180 C   0  0  0  0  0  2  0  0  0  0  0  0
  162.5310  206.8320  147.4770 C   0  0  2  0  0  3  0  0  0  0  0  0
  161.3610  207.7160  147.7910 C   0  0  0  0  0  2  0  0  0  0  0  0
  161.6600  208.1980  149.1910 C   0  0  2  0  0  3  0  0  0  0  0  0
  162.4580  207.1740  149.8580 N   0  0  0  0  0  2  0  0  0  0  0  0
  160.3780  208.4410  149.9690 C   0  0  0  0  0  2  0  0  0  0  0  0
  161.9760  207.8900  154.6130 C   0  0  0  0  0  3  0  0  0  0  0  0
  160.6650  209.0640  151.2590 N   0  0  0  0  0  0  0  0  0  0  0  0
  160.8160  206.0810  153.5220 C   0  0  0  0  0  3  0  0  0  0  0  0
  162.7540  210.6800  152.2530 C   0  0  0  0  0  2  0  0  0  0  0  0
  160.3620  210.4960  151.3550 C   0  0  2  0  0  3  0  0  0  0  0  0
  160.5570  206.9120  152.4340 C   0  0  0  0  0  3  0  0  0  0  0  0
  162.2530  210.1750  153.5930 C   0  0  1  0  0  3  0  0  0  0  0  0
  161.5210  206.5730  154.6160 C   0  0  0  0  0  3  0  0  0  0  0  0
  161.7500  208.7420  153.5160 C   0  0  0  0  0  0  0  0  0  0  0  0
  160.9970  208.2470  152.4100 C   0  0  0  0  0  0  0  0  0  0  0  0
  161.6260  211.3580  151.4840 C   0  0  0  0  0  2  0  0  0  0  0  0
  157.4330  212.1950  153.0910 C   0  0  0  0  0  3  0  0  0  0  0  0
  159.0640  209.9580  153.4810 C   0  0  0  0  0  3  0  0  0  0  0  0
  158.4510  211.9030  152.1770 C   0  0  0  0  0  3  0  0  0  0  0  0
  159.2710  210.7810  152.3610 C   0  0  0  0  0  0  0  0  0  0  0  0
  157.2320  211.3750  154.2130 C   0  0  0  0  0  0  0  0  0  0  0  0
  158.0460  210.2490  154.3940 C   0  0  0  0  0  3  0  0  0  0  0  0
  154.9940  210.9300  154.7910 F   0  0  0  0  0  0  0  0  0  0  0  0
  156.4760  211.2800  156.4540 F   0  0  0  0  0  0  0  0  0  0  0  0
  156.1100  211.6530  155.1720 C   0  0  0  0  0  0  0  0  0  0  0  0
  155.7930  212.9990  155.1780 F   0  0  0  0  0  0  0  0  0  0  0  0
  163.3440  210.3830  154.6370 C   0  0  0  0  0  2  0  0  0  0  0  0
  162.7300  210.3730  156.0290 C   0  0  2  0  0  3  0  0  0  0  0  0
  160.8320  211.7810  156.7470 C   0  0  1  0  0  3  0  0  0  0  0  0
  161.2120  210.5390  155.9300 C   0  0  2  0  0  3  0  0  0  0  0  0
  164.3890  211.7380  157.2520 C   0  0  0  0  0  1  0  0  0  0  0  0
  163.1570  211.5650  156.7930 C   0  0  0  0  0  0  0  0  0  0  0  0
  162.0720  212.3520  157.2420 N   0  0  0  0  0  0  0  0  0  0  0  0
  160.5280  213.0290  154.7400 O   0  0  0  0  0  0  0  0  0  0  0  0
  158.9300  213.4290  156.3770 N   0  0  0  0  0  1  0  0  0  0  0  0
  160.0940  212.7620  155.8910 C   0  0  0  0  0  0  0  0  0  0  0  0
  160.0180  208.4280  156.9290 N   0  0  0  0  0  0  0  0  0  0  0  0
  160.5440  209.3590  156.4860 C   0  0  0  0  0  0  0  0  0  0  0  0
  162.1310  205.7110  146.5310 C   0  0  0  0  0  2  0  0  0  0  0  0
  162.0110  206.2200  145.0990 C   0  0  0  0  0  2  0  0  0  0  0  0
  161.4380  205.1660  144.2050 C   0  0  0  0  0  0  0  0  0  0  0  0
  161.2960  205.3270  142.8820 C   0  0  0  0  0  3  0  0  0  0  0  0
  161.1160  203.9000  144.7730 N   0  0  0  0  0  0  0  0  0  0  0  0
  160.4390  202.6000  146.8910 C   0  0  2  0  0  3  0  0  0  0  0  0
  161.3430  202.8580  145.6990 C   0  0  2  0  0  0  0  0  0  0  0  0
  161.3420  203.6110  146.9180 O   0  0  0  0  0  0  0  0  0  0  0  0
  159.3030  201.9380  144.3250 N   0  0  0  0  0  2  0  0  0  0  0  0
  160.2600  202.6590  144.8150 C   0  0  0  0  0  0  0  0  0  0  0  0
  160.9490  201.4810  147.6640 N   0  0  0  0  0  2  0  0  0  0  0  0
  160.2900  201.7210  149.9990 C   0  0  1  0  0  0  0  0  0  0  0  0
  161.4540  200.9460  149.8840 O   0  0  0  0  0  0  0  0  0  0  0  0
  161.3180  202.0120  148.9670 C   0  0  1  0  0  3  0  0  0  0  0  0
  159.0340  200.9360  149.6370 C   0  0  0  0  0  1  0  0  0  0  0  0
  160.3000  202.6130  151.2330 C   0  0  0  0  0  2  0  0  0  0  0  0
  161.2040  203.8230  151.0460 C   0  0  0  0  0  2  0  0  0  0  0  0
  162.5220  203.4910  151.3620 O   0  0  0  0  0  0  0  0  0  0  0  0
  162.9310  204.4880  152.2470 C   0  0  0  0  0  1  0  0  0  0  0  0
  161.5470  206.4970  142.1440 O   0  0  0  0  0  0  0  0  0  0  0  0
  162.2150  206.5580  140.8860 C   0  0  0  0  0  2  0  0  0  0  0  0
  161.6380  207.6710  140.0190 C   0  0  0  0  0  2  0  0  0  0  0  0
  161.8380  208.9150  140.6210 O   0  0  0  0  0  0  0  0  0  0  0  0
  162.0200  211.1530  139.8550 C   0  0  1  0  0  3  0  0  0  0  0  0
  161.9760  211.8310  138.6330 O   0  0  0  0  0  1  0  0  0  0  0  0
  160.6360  210.9750  140.4910 C   0  0  2  0  0  3  0  0  0  0  0  0
  161.2830  209.8330  139.7250 C   0  0  2  0  0  3  0  0  0  0  0  0
  159.4600  211.3100  138.3750 F   0  0  0  0  0  0  0  0  0  0  0  0
  158.2670  211.1820  140.2880 O   0  0  0  0  0  1  0  0  0  0  0  0
  159.4640  211.6260  139.7270 C   0  0  0  0  0  0  0  0  0  0  0  0
  159.5360  213.0010  139.8680 F   0  0  0  0  0  0  0  0  0  0  0  0
  1  5  1  0  0  0  0
  2 40  1  6  0  0  0
  2  3  1  0  0  0  0
  2  1  1  0  0  0  0
  3  4  1  0  0  0  0
  4  5  1  0  0  0  0
  4  6  1  1  0  0  0
  6  8  1  0  0  0  0
  7 14  1  0  0  0  0
  8 11  1  0  0  0  0
  8 16  1  0  0  0  0
  9 14  2  0  0  0  0
 10 13  1  0  0  0  0
 11 17  1  0  0  0  0
 11 21  1  1  0  0  0
 12  9  1  0  0  0  0
 13 28  1  1  0  0  0
 15 13  1  0  0  0  0
 15  7  2  0  0  0  0
 16 12  2  0  0  0  0
 16 15  1  0  0  0  0
 17 10  1  0  0  0  0
 18 22  1  0  0  0  0
 19 23  1  0  0  0  0
 20 21  1  0  0  0  0
 20 18  2  0  0  0  0
 21 19  2  0  0  0  0
 22 23  2  0  0  0  0
 22 26  1  0  0  0  0
 24 26  1  0  0  0  0
 26 27  1  0  0  0  0
 26 25  1  0  0  0  0
 29 28  1  6  0  0  0
 29 33  1  0  0  0  0
 30 37  1  6  0  0  0
 30 34  1  0  0  0  0
 31 29  1  0  0  0  0
 31 39  1  1  0  0  0
 31 30  1  0  0  0  0
 33 34  2  0  0  0  0
 33 32  1  0  0  0  0
 35 37  2  0  0  0  0
 37 36  1  0  0  0  0
 39 38  3  0  0  0  0
 41 40  1  0  0  0  0
 42 44  1  0  0  0  0
 42 41  1  0  0  0  0
 43 42  2  0  0  0  0
 44 49  1  0  0  0  0
 44 46  1  0  0  0  0
 45 47  1  0  0  0  0
 45 50  1  1  0  0  0
 46 49  1  6  0  0  0
 46 45  1  0  0  0  0
 46 47  1  0  0  0  0
 48 49  2  0  0  0  0
 51 54  1  6  0  0  0
 51 55  1  0  0  0  0
 52 51  1  0  0  0  0
 53 50  1  6  0  0  0
 53 52  1  0  0  0  0
 53 51  1  0  0  0  0
 56 55  1  0  0  0  0
 56 57  1  0  0  0  0
 57 58  1  0  0  0  0
 59 43  1  0  0  0  0
 60 59  1  0  0  0  0
 61 62  1  0  0  0  0
 61 60  1  0  0  0  0
 63 64  1  6  0  0  0
 63 65  1  0  0  0  0
 65 69  1  6  0  0  0
 66 63  1  0  0  0  0
 66 65  1  0  0  0  0
 66 62  1  1  0  0  0
 67 69  1  0  0  0  0
 69 70  1  0  0  0  0
 69 68  1  0  0  0  0
M  END
>  <MODEL>
1

>  <REMARK>
 VINA RESULT:       1.7      0.000      0.000
  Name = 
  23 active torsions:
  status: ('A' for Active; 'I' for Inactive)
    1  A    between atoms: O_1  and  C_37
    2  A    between atoms: O_1  and  C_40
    3  A    between atoms: C_2  and  C_8
    4  A    between atoms: C_3  and  C_50
    5  A    between atoms: N_4  and  C_7
    6  A    between atoms: C_6  and  C_19
    7  A    between atoms: C_6  and  C_36
    8  A    between atoms: C_7  and  C_19
    9  A    between atoms: C_8  and  C_14
   10  A    between atoms: O_9  and  C_14
   11  A    between atoms: C_10  and  N_20
   12  A    between atoms: C_10  and  C_41
   13  A    between atoms: C_16  and  N_48
   14  A    between atoms: C_24  and  C_68
   15  A    between atoms: C_27  and  C_63
   16  A    between atoms: C_28  and  C_59
   17  A    between atoms: C_31  and  C_60
   18  A    between atoms: C_32  and  C_58
   19  A    between atoms: C_33  and  O_39
   20  A    between atoms: O_39  and  C_49
   21  A    between atoms: C_40  and  C_49
   22  A    between atoms: C_47  and  N_48
   23  A    between atoms: C_50  and  C_51
                            x       y       z     vdW  Elec       q    Type
                         _______ _______ _______ _____ _____    ______ ____

>  <TORSDO>
F 23

$$$$
