=
 OpenBabel11072413103D

 35 37  0  0  1  0  0  0  0  0999 V2000
  161.8090  207.2830  148.3010 C   0  0  1  0  0  0  0  0  0  0  0  0
  163.2200  207.0430  148.8320 C   0  0  0  0  0  1  0  0  0  0  0  0
  161.4100  203.1380  145.7140 C   0  0  0  0  0  1  0  0  0  0  0  0
  161.4950  205.3760  144.5580 C   0  0  0  0  0  2  0  0  0  0  0  0
  162.2840  205.1220  146.9700 C   0  0  0  0  0  2  0  0  0  0  0  0
  160.3290  206.4600  146.5200 O   0  0  0  0  0  0  0  0  0  0  0  0
  160.2760  206.1390  145.1300 C   0  0  0  0  0  2  0  0  0  0  0  0
  161.6680  206.5240  146.9590 C   0  0  1  0  0  3  0  0  0  0  0  0
  162.1490  204.4610  145.5980 C   0  0  1  0  0  3  0  0  0  0  0  0
  160.8150  206.7640  149.3740 C   0  0  1  0  0  3  0  0  0  0  0  0
  159.8720  205.8840  148.8200 O   0  0  0  0  0  1  0  0  0  0  0  0
  161.4470  206.2040  150.6680 C   0  0  1  0  0  3  0  0  0  0  0  0
  161.5210  208.1260  152.2660 C   0  0  1  0  0  3  0  0  0  0  0  0
  160.7790  206.8610  151.8750 C   0  0  2  0  0  3  0  0  0  0  0  0
  160.6360  209.0160  152.8830 O   0  0  0  0  0  1  0  0  0  0  0  0
  161.7170  206.8400  153.0670 C   0  0  2  0  0  3  0  0  0  0  0  0
  160.9000  206.7820  154.3480 C   0  0  0  0  0  1  0  0  0  0  0  0
  161.4060  204.6640  150.7970 C   0  0  0  0  0  0  0  0  0  0  0  0
  160.1810  204.2680  151.3390 O   0  0  0  0  0  1  0  0  0  0  0  0
  162.4150  204.2200  151.6260 F   0  0  0  0  0  0  0  0  0  0  0  0
  161.5560  204.0720  149.5520 F   0  0  0  0  0  0  0  0  0  0  0  0
  161.6270  208.8000  148.0970 C   0  0  0  0  0  2  0  0  0  0  0  0
  162.3920  209.6860  149.0850 C   0  0  0  0  0  2  0  0  0  0  0  0
  161.6670  211.0010  149.3340 C   0  0  0  0  0  2  0  0  0  0  0  0
  163.0590  213.1820  146.6150 N   0  0  0  0  0  0  0  0  0  0  0  0
  161.7600  211.8630  148.1230 C   0  0  0  0  0  0  0  0  0  0  0  0
  162.1120  214.2900  144.7040 N   0  0  0  0  0  1  0  0  0  0  0  0
  161.9580  213.4900  145.8750 C   0  0  0  0  0  0  0  0  0  0  0  0
  160.6950  212.9790  146.2460 C   0  0  0  0  0  0  0  0  0  0  0  0
  160.6170  212.1580  147.3770 C   0  0  0  0  0  3  0  0  0  0  0  0
  162.9860  212.3920  147.7210 C   0  0  0  0  0  3  0  0  0  0  0  0
  158.6930  214.2040  145.9180 O   0  0  0  0  0  0  0  0  0  0  0  0
  159.4630  213.3030  145.4950 C   0  0  0  0  0  0  0  0  0  0  0  0
  159.9320  211.7030  143.7210 O   0  0  0  0  0  1  0  0  0  0  0  0
  159.1050  212.6020  144.3020 N   0  0  0  0  0  2  0  0  0  0  0  0
  1  2  1  1  0  0  0
  1 10  1  0  0  0  0
  4  7  1  0  0  0  0
  4  9  1  0  0  0  0
  6  8  1  0  0  0  0
  7  6  1  0  0  0  0
  8  5  1  0  0  0  0
  8  1  1  1  0  0  0
  9  3  1  1  0  0  0
  9  5  1  0  0  0  0
 10 11  1  6  0  0  0
 10 12  1  0  0  0  0
 12 18  1  1  0  0  0
 13 15  1  1  0  0  0
 13 16  1  0  0  0  0
 14 12  1  6  0  0  0
 14 13  1  0  0  0  0
 14 16  1  0  0  0  0
 16 17  1  1  0  0  0
 18 19  1  0  0  0  0
 18 20  1  0  0  0  0
 21 18  1  0  0  0  0
 22  1  1  0  0  0  0
 22 23  1  0  0  0  0
 23 24  1  0  0  0  0
 25 31  1  0  0  0  0
 26 24  1  0  0  0  0
 27 28  1  0  0  0  0
 28 29  1  0  0  0  0
 28 25  2  0  0  0  0
 29 30  2  0  0  0  0
 30 26  1  0  0  0  0
 31 26  2  0  0  0  0
 33 32  2  0  0  0  0
 33 29  1  0  0  0  0
 34 35  1  0  0  0  0
 35 33  1  0  0  0  0
M  END
>  <MODEL>
1

>  <REMARK>
 VINA RESULT:      -7.4      0.000      0.000
  Name = 
  10 active torsions:
  status: ('A' for Active; 'I' for Inactive)
    1  A    between atoms: C_2  and  C_27
    2  A    between atoms: C_3  and  C_8
    3  A    between atoms: C_3  and  C_27
    4  A    between atoms: C_4  and  C_20
    5  A    between atoms: C_4  and  C_32
    6  A    between atoms: C_8  and  C_20
    7  A    between atoms: C_8  and  C_23
    8  A    between atoms: C_10  and  C_27
    9  A    between atoms: C_15  and  C_32
   10  A    between atoms: C_18  and  C_24
                            x       y       z     vdW  Elec       q    Type
                         _______ _______ _______ _____ _____    ______ ____

>  <TORSDO>
F 10

$$$$
=
 OpenBabel11072413103D

 35 37  0  0  1  0  0  0  0  0999 V2000
  160.5470  210.7870  152.9670 C   0  0  1  0  0  0  0  0  0  0  0  0
  159.6050  209.6390  152.6120 C   0  0  0  0  0  1  0  0  0  0  0  0
  159.5420  213.5540  149.0480 C   0  0  0  0  0  1  0  0  0  0  0  0
  159.0640  214.3940  151.3760 C   0  0  0  0  0  2  0  0  0  0  0  0
  160.6670  212.4470  150.9940 C   0  0  0  0  0  2  0  0  0  0  0  0
  158.5940  212.0370  152.1540 O   0  0  0  0  0  0  0  0  0  0  0  0
  158.0760  213.3530  151.9540 C   0  0  0  0  0  2  0  0  0  0  0  0
  159.9930  212.0790  152.3190 C   0  0  1  0  0  3  0  0  0  0  0  0
  160.1030  213.7580  150.4460 C   0  0  1  0  0  3  0  0  0  0  0  0
  160.5970  210.8830  154.5150 C   0  0  1  0  0  3  0  0  0  0  0  0
  160.7030  212.2160  154.9450 O   0  0  0  0  0  1  0  0  0  0  0  0
  159.4990  210.1090  155.2780 C   0  0  1  0  0  3  0  0  0  0  0  0
  161.4980  208.7810  155.9780 C   0  0  1  0  0  3  0  0  0  0  0  0
  160.1450  209.3140  156.4120 C   0  0  2  0  0  3  0  0  0  0  0  0
  162.3230  208.6320  157.0980 O   0  0  0  0  0  1  0  0  0  0  0  0
  160.2830  207.8560  156.0150 C   0  0  2  0  0  3  0  0  0  0  0  0
  160.2070  206.9870  157.2610 C   0  0  0  0  0  1  0  0  0  0  0  0
  158.3440  210.9830  155.8180 C   0  0  0  0  0  0  0  0  0  0  0  0
  158.5610  211.2720  157.1670 O   0  0  0  0  0  1  0  0  0  0  0  0
  157.1400  210.3210  155.7020 F   0  0  0  0  0  0  0  0  0  0  0  0
  158.2690  212.1740  155.1120 F   0  0  0  0  0  0  0  0  0  0  0  0
  161.9440  210.4480  152.4110 C   0  0  0  0  0  2  0  0  0  0  0  0
  162.0900  209.0370  151.8310 C   0  0  0  0  0  2  0  0  0  0  0  0
  162.0310  209.0480  150.3120 C   0  0  0  0  0  2  0  0  0  0  0  0
  161.2710  205.3730  150.2340 N   0  0  0  0  0  0  0  0  0  0  0  0
  161.7240  207.6790  149.8110 C   0  0  0  0  0  0  0  0  0  0  0  0
  160.8340  203.7880  148.4800 N   0  0  0  0  0  1  0  0  0  0  0  0
  161.1670  205.1100  148.9010 C   0  0  0  0  0  0  0  0  0  0  0  0
  161.3410  206.1500  147.9620 C   0  0  0  0  0  0  0  0  0  0  0  0
  161.6150  207.4360  148.4400 C   0  0  0  0  0  3  0  0  0  0  0  0
  161.5480  206.6210  150.7020 C   0  0  0  0  0  3  0  0  0  0  0  0
  160.2660  206.3230  145.8580 O   0  0  0  0  0  0  0  0  0  0  0  0
  161.2650  205.9150  146.5040 C   0  0  0  0  0  0  0  0  0  0  0  0
  163.4490  204.8440  146.4010 O   0  0  0  0  0  1  0  0  0  0  0  0
  162.2930  205.2130  145.8030 N   0  0  0  0  0  2  0  0  0  0  0  0
  1  2  1  6  0  0  0
  1 10  1  0  0  0  0
  4  7  1  0  0  0  0
  5  8  1  0  0  0  0
  6  8  1  0  0  0  0
  7  6  1  0  0  0  0
  8  1  1  6  0  0  0
  9  3  1  6  0  0  0
  9  5  1  0  0  0  0
  9  4  1  0  0  0  0
 10 11  1  6  0  0  0
 10 12  1  0  0  0  0
 12 18  1  1  0  0  0
 13 16  1  0  0  0  0
 13 14  1  0  0  0  0
 13 15  1  1  0  0  0
 14 12  1  6  0  0  0
 16 14  1  0  0  0  0
 16 17  1  1  0  0  0
 18 19  1  0  0  0  0
 20 18  1  0  0  0  0
 21 18  1  0  0  0  0
 22  1  1  0  0  0  0
 23 22  1  0  0  0  0
 24 23  1  0  0  0  0
 25 31  1  0  0  0  0
 26 24  1  0  0  0  0
 26 31  2  0  0  0  0
 27 28  1  0  0  0  0
 28 25  2  0  0  0  0
 29 30  2  0  0  0  0
 29 28  1  0  0  0  0
 30 26  1  0  0  0  0
 32 33  2  0  0  0  0
 33 29  1  0  0  0  0
 35 34  1  0  0  0  0
 35 33  1  0  0  0  0
M  END
>  <MODEL>
2

>  <REMARK>
 VINA RESULT:      -7.1      4.480      7.658
  Name = 
  10 active torsions:
  status: ('A' for Active; 'I' for Inactive)
    1  A    between atoms: C_2  and  C_27
    2  A    between atoms: C_3  and  C_8
    3  A    between atoms: C_3  and  C_27
    4  A    between atoms: C_4  and  C_20
    5  A    between atoms: C_4  and  C_32
    6  A    between atoms: C_8  and  C_20
    7  A    between atoms: C_8  and  C_23
    8  A    between atoms: C_10  and  C_27
    9  A    between atoms: C_15  and  C_32
   10  A    between atoms: C_18  and  C_24
                            x       y       z     vdW  Elec       q    Type
                         _______ _______ _______ _____ _____    ______ ____

>  <TORSDO>
F 10

$$$$
=
 OpenBabel11072413103D

 35 37  0  0  1  0  0  0  0  0999 V2000
  161.6220  206.6880  152.5920 C   0  0  1  0  0  0  0  0  0  0  0  0
  162.8640  206.0140  153.1720 C   0  0  0  0  0  1  0  0  0  0  0  0
  160.1450  206.9890  157.2560 C   0  0  0  0  0  1  0  0  0  0  0  0
  159.5380  208.7830  155.5930 C   0  0  0  0  0  2  0  0  0  0  0  0
  160.3140  206.4840  154.8080 C   0  0  0  0  0  2  0  0  0  0  0  0
  161.7050  208.3990  154.3540 O   0  0  0  0  0  0  0  0  0  0  0  0
  160.9050  209.3150  155.1010 C   0  0  0  0  0  2  0  0  0  0  0  0
  160.8930  207.4210  153.7440 C   0  0  1  0  0  3  0  0  0  0  0  0
  159.5680  207.2780  155.8800 C   0  0  1  0  0  3  0  0  0  0  0  0
  162.0990  207.6660  151.4860 C   0  0  1  0  0  3  0  0  0  0  0  0
  163.3160  207.2510  150.9210 O   0  0  0  0  0  1  0  0  0  0  0  0
  161.0520  208.0350  150.4110 C   0  0  1  0  0  3  0  0  0  0  0  0
  162.2190  210.2440  150.3030 C   0  0  1  0  0  3  0  0  0  0  0  0
  160.8700  209.5520  150.3910 C   0  0  2  0  0  3  0  0  0  0  0  0
  162.0690  211.4840  149.6740 O   0  0  0  0  0  1  0  0  0  0  0  0
  161.4790  210.1670  151.6370 C   0  0  2  0  0  3  0  0  0  0  0  0
  160.7190  211.4350  151.9950 C   0  0  0  0  0  1  0  0  0  0  0  0
  161.3650  207.5080  148.9920 C   0  0  0  0  0  0  0  0  0  0  0  0
  161.7340  208.5710  148.1630 O   0  0  0  0  0  1  0  0  0  0  0  0
  160.2560  206.8950  148.4470 F   0  0  0  0  0  0  0  0  0  0  0  0
  162.4050  206.5930  149.0350 F   0  0  0  0  0  0  0  0  0  0  0  0
  160.7240  205.5930  151.9820 C   0  0  0  0  0  2  0  0  0  0  0  0
  161.4700  204.3830  151.4100 C   0  0  0  0  0  2  0  0  0  0  0  0
  160.5090  203.2890  150.9710 C   0  0  0  0  0  2  0  0  0  0  0  0
  160.3010  201.6560  147.5990 N   0  0  0  0  0  0  0  0  0  0  0  0
  160.6650  203.0380  149.5120 C   0  0  0  0  0  0  0  0  0  0  0  0
  161.0450  202.2610  145.3940 N   0  0  0  0  0  1  0  0  0  0  0  0
  160.9580  202.5360  146.7920 C   0  0  0  0  0  0  0  0  0  0  0  0
  161.4990  203.7210  147.3350 C   0  0  0  0  0  0  0  0  0  0  0  0
  161.3370  203.9580  148.7040 C   0  0  0  0  0  3  0  0  0  0  0  0
  160.1490  201.8780  148.9330 C   0  0  0  0  0  3  0  0  0  0  0  0
  163.5010  204.6470  146.4700 O   0  0  0  0  0  0  0  0  0  0  0  0
  162.2450  204.6960  146.5100 C   0  0  0  0  0  0  0  0  0  0  0  0
  160.2280  205.7680  145.6680 O   0  0  0  0  0  1  0  0  0  0  0  0
  161.5760  205.7170  145.7670 N   0  0  0  0  0  2  0  0  0  0  0  0
  1  2  1  1  0  0  0
  4  9  1  0  0  0  0
  5  9  1  0  0  0  0
  6  7  1  0  0  0  0
  7  4  1  0  0  0  0
  8  1  1  6  0  0  0
  8  6  1  0  0  0  0
  8  5  1  0  0  0  0
  9  3  1  1  0  0  0
 10 11  1  6  0  0  0
 10  1  1  0  0  0  0
 12 18  1  6  0  0  0
 12 10  1  0  0  0  0
 13 15  1  6  0  0  0
 13 14  1  0  0  0  0
 13 16  1  0  0  0  0
 14 12  1  1  0  0  0
 14 16  1  0  0  0  0
 16 17  1  6  0  0  0
 18 21  1  0  0  0  0
 19 18  1  0  0  0  0
 20 18  1  0  0  0  0
 22  1  1  0  0  0  0
 23 22  1  0  0  0  0
 24 23  1  0  0  0  0
 25 31  1  0  0  0  0
 26 24  1  0  0  0  0
 27 28  1  0  0  0  0
 28 29  1  0  0  0  0
 28 25  2  0  0  0  0
 29 30  2  0  0  0  0
 30 26  1  0  0  0  0
 31 26  2  0  0  0  0
 32 33  2  0  0  0  0
 33 29  1  0  0  0  0
 34 35  1  0  0  0  0
 35 33  1  0  0  0  0
M  END
>  <MODEL>
3

>  <REMARK>
 VINA RESULT:      -6.9      3.691      7.744
  Name = 
  10 active torsions:
  status: ('A' for Active; 'I' for Inactive)
    1  A    between atoms: C_2  and  C_27
    2  A    between atoms: C_3  and  C_8
    3  A    between atoms: C_3  and  C_27
    4  A    between atoms: C_4  and  C_20
    5  A    between atoms: C_4  and  C_32
    6  A    between atoms: C_8  and  C_20
    7  A    between atoms: C_8  and  C_23
    8  A    between atoms: C_10  and  C_27
    9  A    between atoms: C_15  and  C_32
   10  A    between atoms: C_18  and  C_24
                            x       y       z     vdW  Elec       q    Type
                         _______ _______ _______ _____ _____    ______ ____

>  <TORSDO>
F 10

$$$$
=
 OpenBabel11072413103D

 35 37  0  0  1  0  0  0  0  0999 V2000
  161.5450  206.6450  152.8020 C   0  0  1  0  0  0  0  0  0  0  0  0
  163.0180  206.4680  152.4410 C   0  0  0  0  0  1  0  0  0  0  0  0
  160.4750  210.2930  155.8970 C   0  0  0  0  0  1  0  0  0  0  0  0
  161.4780  208.1400  156.7400 C   0  0  0  0  0  2  0  0  0  0  0  0
  161.6180  208.7670  154.2720 C   0  0  0  0  0  2  0  0  0  0  0  0
  160.3030  206.8500  154.9130 O   0  0  0  0  0  0  0  0  0  0  0  0
  160.4540  207.0590  156.3170 C   0  0  0  0  0  2  0  0  0  0  0  0
  161.4710  207.2430  154.2280 C   0  0  1  0  0  3  0  0  0  0  0  0
  161.5860  209.2730  155.7140 C   0  0  1  0  0  3  0  0  0  0  0  0
  160.9170  207.5860  151.7410 C   0  0  1  0  0  3  0  0  0  0  0  0
  160.0660  208.5340  152.3310 O   0  0  0  0  0  1  0  0  0  0  0  0
  161.9010  208.2290  150.7370 C   0  0  1  0  0  3  0  0  0  0  0  0
  160.7100  206.5670  149.2980 C   0  0  1  0  0  3  0  0  0  0  0  0
  161.4580  207.8880  149.3150 C   0  0  2  0  0  3  0  0  0  0  0  0
  159.8050  206.5560  148.2320 O   0  0  0  0  0  1  0  0  0  0  0  0
  162.1650  206.6350  148.8340 C   0  0  2  0  0  3  0  0  0  0  0  0
  162.3280  206.6980  147.3240 C   0  0  0  0  0  1  0  0  0  0  0  0
  162.0860  209.7550  150.8970 C   0  0  0  0  0  0  0  0  0  0  0  0
  162.3260  210.3350  149.6490 O   0  0  0  0  0  1  0  0  0  0  0  0
  163.1580  210.0300  151.7200 F   0  0  0  0  0  0  0  0  0  0  0  0
  160.9460  210.3250  151.4430 F   0  0  0  0  0  0  0  0  0  0  0  0
  160.8700  205.2600  152.7510 C   0  0  0  0  0  2  0  0  0  0  0  0
  161.2780  204.3800  151.5650 C   0  0  0  0  0  2  0  0  0  0  0  0
  160.0670  203.7550  150.8890 C   0  0  0  0  0  2  0  0  0  0  0  0
  161.1990  200.5860  149.2280 N   0  0  0  0  0  0  0  0  0  0  0  0
  160.5150  202.7880  149.8500 C   0  0  0  0  0  0  0  0  0  0  0  0
  161.7660  199.9870  146.9700 N   0  0  0  0  0  1  0  0  0  0  0  0
  161.3700  200.9650  147.9300 C   0  0  0  0  0  0  0  0  0  0  0  0
  161.1110  202.2980  147.5460 C   0  0  0  0  0  0  0  0  0  0  0  0
  160.6770  203.1990  148.5250 C   0  0  0  0  0  3  0  0  0  0  0  0
  160.7860  201.4620  150.1850 C   0  0  0  0  0  3  0  0  0  0  0  0
  162.2300  203.5840  145.9000 O   0  0  0  0  0  0  0  0  0  0  0  0
  161.3070  202.7700  146.1580 C   0  0  0  0  0  0  0  0  0  0  0  0
  159.5160  201.3830  145.2650 O   0  0  0  0  0  1  0  0  0  0  0  0
  160.4560  202.3400  145.0930 N   0  0  0  0  0  2  0  0  0  0  0  0
  1  2  1  6  0  0  0
  5  9  1  0  0  0  0
  6  7  1  0  0  0  0
  7  4  1  0  0  0  0
  8  1  1  6  0  0  0
  8  5  1  0  0  0  0
  8  6  1  0  0  0  0
  9  3  1  6  0  0  0
  9  4  1  0  0  0  0
 10 11  1  1  0  0  0
 10  1  1  0  0  0  0
 12 18  1  6  0  0  0
 12 10  1  0  0  0  0
 13 15  1  6  0  0  0
 13 14  1  0  0  0  0
 14 12  1  1  0  0  0
 16 17  1  6  0  0  0
 16 13  1  0  0  0  0
 16 14  1  0  0  0  0
 18 21  1  0  0  0  0
 18 20  1  0  0  0  0
 19 18  1  0  0  0  0
 22  1  1  0  0  0  0
 23 22  1  0  0  0  0
 24 23  1  0  0  0  0
 25 31  1  0  0  0  0
 26 31  2  0  0  0  0
 26 24  1  0  0  0  0
 27 28  1  0  0  0  0
 28 25  2  0  0  0  0
 29 28  1  0  0  0  0
 29 30  2  0  0  0  0
 30 26  1  0  0  0  0
 32 33  2  0  0  0  0
 33 29  1  0  0  0  0
 35 34  1  0  0  0  0
 35 33  1  0  0  0  0
M  END
>  <MODEL>
4

>  <REMARK>
 VINA RESULT:      -6.8      4.712      8.659
  Name = 
  10 active torsions:
  status: ('A' for Active; 'I' for Inactive)
    1  A    between atoms: C_2  and  C_27
    2  A    between atoms: C_3  and  C_8
    3  A    between atoms: C_3  and  C_27
    4  A    between atoms: C_4  and  C_20
    5  A    between atoms: C_4  and  C_32
    6  A    between atoms: C_8  and  C_20
    7  A    between atoms: C_8  and  C_23
    8  A    between atoms: C_10  and  C_27
    9  A    between atoms: C_15  and  C_32
   10  A    between atoms: C_18  and  C_24
                            x       y       z     vdW  Elec       q    Type
                         _______ _______ _______ _____ _____    ______ ____

>  <TORSDO>
F 10

$$$$
=
 OpenBabel11072413103D

 35 37  0  0  1  0  0  0  0  0999 V2000
  160.9220  210.2490  152.5900 C   0  0  1  0  0  0  0  0  0  0  0  0
  159.9600  209.1010  152.2930 C   0  0  0  0  0  1  0  0  0  0  0  0
  158.1560  213.8410  150.7250 C   0  0  0  0  0  1  0  0  0  0  0  0
  158.7470  213.8090  153.1740 C   0  0  0  0  0  2  0  0  0  0  0  0
  160.0770  212.4280  151.4930 C   0  0  0  0  0  2  0  0  0  0  0  0
  158.7660  211.2830  153.1610 O   0  0  0  0  0  0  0  0  0  0  0  0
  158.1650  212.4680  153.6830 C   0  0  0  0  0  2  0  0  0  0  0  0
  160.0880  211.5440  152.7430 C   0  0  1  0  0  3  0  0  0  0  0  0
  159.2780  213.7070  151.7410 C   0  0  1  0  0  3  0  0  0  0  0  0
  161.6870  209.8890  153.8910 C   0  0  1  0  0  3  0  0  0  0  0  0
  162.7230  210.8010  154.1490 O   0  0  0  0  0  1  0  0  0  0  0  0
  160.8150  209.6270  155.1390 C   0  0  1  0  0  3  0  0  0  0  0  0
  160.5390  207.1650  154.8000 C   0  0  1  0  0  3  0  0  0  0  0  0
  161.1370  208.2390  155.6910 C   0  0  2  0  0  3  0  0  0  0  0  0
  161.3020  205.9970  154.8980 O   0  0  0  0  0  1  0  0  0  0  0  0
  159.8610  207.5370  156.1170 C   0  0  2  0  0  3  0  0  0  0  0  0
  160.1700  206.5840  157.2600 C   0  0  0  0  0  1  0  0  0  0  0  0
  160.9360  210.6940  156.2510 C   0  0  0  0  0  0  0  0  0  0  0  0
  159.7610  210.7260  157.0060 O   0  0  0  0  0  1  0  0  0  0  0  0
  161.1380  211.9430  155.7030 F   0  0  0  0  0  0  0  0  0  0  0  0
  161.9990  210.3970  157.0910 F   0  0  0  0  0  0  0  0  0  0  0  0
  161.9060  210.3660  151.4090 C   0  0  0  0  0  2  0  0  0  0  0  0
  162.3430  209.0340  150.7910 C   0  0  0  0  0  2  0  0  0  0  0  0
  161.9410  208.9380  149.3280 C   0  0  0  0  0  2  0  0  0  0  0  0
  161.0760  205.2900  149.4940 N   0  0  0  0  0  0  0  0  0  0  0  0
  161.7670  207.5090  148.9470 C   0  0  0  0  0  0  0  0  0  0  0  0
  161.2230  203.4590  147.9430 N   0  0  0  0  0  1  0  0  0  0  0  0
  161.4470  204.8310  148.2660 C   0  0  0  0  0  0  0  0  0  0  0  0
  162.0010  205.7200  147.3200 C   0  0  0  0  0  0  0  0  0  0  0  0
  162.1490  207.0640  147.6790 C   0  0  0  0  0  3  0  0  0  0  0  0
  161.2270  206.5950  149.8510 C   0  0  0  0  0  3  0  0  0  0  0  0
  163.5470  204.6740  145.8600 O   0  0  0  0  0  0  0  0  0  0  0  0
  162.4460  205.2700  145.9830 C   0  0  0  0  0  0  0  0  0  0  0  0
  160.4220  206.0440  144.8730 O   0  0  0  0  0  1  0  0  0  0  0  0
  161.6650  205.5140  144.8110 N   0  0  0  0  0  2  0  0  0  0  0  0
  1  2  1  6  0  0  0
  1 10  1  0  0  0  0
  4  7  1  0  0  0  0
  5  9  1  0  0  0  0
  5  8  1  0  0  0  0
  6  7  1  0  0  0  0
  8  1  1  6  0  0  0
  8  6  1  0  0  0  0
  9  3  1  6  0  0  0
  9  4  1  0  0  0  0
 10 11  1  1  0  0  0
 10 12  1  0  0  0  0
 12 18  1  1  0  0  0
 13 15  1  1  0  0  0
 13 14  1  0  0  0  0
 13 16  1  0  0  0  0
 14 12  1  6  0  0  0
 14 16  1  0  0  0  0
 16 17  1  1  0  0  0
 18 19  1  0  0  0  0
 18 21  1  0  0  0  0
 20 18  1  0  0  0  0
 22  1  1  0  0  0  0
 23 22  1  0  0  0  0
 24 23  1  0  0  0  0
 25 31  1  0  0  0  0
 26 24  1  0  0  0  0
 26 31  2  0  0  0  0
 27 28  1  0  0  0  0
 28 25  2  0  0  0  0
 29 30  2  0  0  0  0
 29 28  1  0  0  0  0
 30 26  1  0  0  0  0
 32 33  2  0  0  0  0
 33 29  1  0  0  0  0
 35 34  1  0  0  0  0
 35 33  1  0  0  0  0
M  END
>  <MODEL>
5

>  <REMARK>
 VINA RESULT:      -6.7      4.404      7.644
  Name = 
  10 active torsions:
  status: ('A' for Active; 'I' for Inactive)
    1  A    between atoms: C_2  and  C_27
    2  A    between atoms: C_3  and  C_8
    3  A    between atoms: C_3  and  C_27
    4  A    between atoms: C_4  and  C_20
    5  A    between atoms: C_4  and  C_32
    6  A    between atoms: C_8  and  C_20
    7  A    between atoms: C_8  and  C_23
    8  A    between atoms: C_10  and  C_27
    9  A    between atoms: C_15  and  C_32
   10  A    between atoms: C_18  and  C_24
                            x       y       z     vdW  Elec       q    Type
                         _______ _______ _______ _____ _____    ______ ____

>  <TORSDO>
F 10

$$$$
=
 OpenBabel11072413103D

 35 37  0  0  1  0  0  0  0  0999 V2000
  160.7830  210.0960  153.0570 C   0  0  1  0  0  0  0  0  0  0  0  0
  162.1400  210.5320  152.5110 C   0  0  0  0  0  1  0  0  0  0  0  0
  160.6400  207.5520  157.2440 C   0  0  0  0  0  1  0  0  0  0  0  0
  161.0520  210.0380  157.2600 C   0  0  0  0  0  2  0  0  0  0  0  0
  160.0380  208.8960  155.2180 C   0  0  0  0  0  2  0  0  0  0  0  0
  162.2300  209.8810  155.0320 O   0  0  0  0  0  0  0  0  0  0  0  0
  162.3370  210.2100  156.4170 C   0  0  0  0  0  2  0  0  0  0  0  0
  160.8940  210.0040  154.5990 C   0  0  1  0  0  3  0  0  0  0  0  0
  160.1620  208.9040  156.7420 C   0  0  1  0  0  3  0  0  0  0  0  0
  159.7400  211.1540  152.6090 C   0  0  1  0  0  3  0  0  0  0  0  0
  158.4270  210.7010  152.8080 O   0  0  0  0  0  1  0  0  0  0  0  0
  159.9530  212.5870  153.1500 C   0  0  1  0  0  3  0  0  0  0  0  0
  158.5870  213.0490  151.1070 C   0  0  1  0  0  3  0  0  0  0  0  0
  159.6600  213.5900  152.0350 C   0  0  2  0  0  3  0  0  0  0  0  0
  157.8910  214.1140  150.5250 O   0  0  0  0  0  1  0  0  0  0  0  0
  160.0560  213.0080  150.6910 C   0  0  2  0  0  3  0  0  0  0  0  0
  160.4640  214.1360  149.7570 C   0  0  0  0  0  1  0  0  0  0  0  0
  159.1360  212.9290  154.4160 C   0  0  0  0  0  0  0  0  0  0  0  0
  158.5640  214.1970  154.2810 O   0  0  0  0  0  1  0  0  0  0  0  0
  159.9490  212.9340  155.5310 F   0  0  0  0  0  0  0  0  0  0  0  0
  158.1240  212.0000  154.6050 F   0  0  0  0  0  0  0  0  0  0  0  0
  160.4410  208.7220  152.4480 C   0  0  0  0  0  2  0  0  0  0  0  0
  161.6080  207.7320  152.3790 C   0  0  0  0  0  2  0  0  0  0  0  0
  161.1570  206.3130  152.6930 C   0  0  0  0  0  2  0  0  0  0  0  0
  161.2610  203.3660  150.3720 N   0  0  0  0  0  0  0  0  0  0  0  0
  161.1690  205.4950  151.4490 C   0  0  0  0  0  0  0  0  0  0  0  0
  161.1870  203.1100  147.9830 N   0  0  0  0  0  1  0  0  0  0  0  0
  161.2100  203.9450  149.1400 C   0  0  0  0  0  0  0  0  0  0  0  0
  161.1340  205.3490  149.0240 C   0  0  0  0  0  0  0  0  0  0  0  0
  161.1090  206.1110  150.1980 C   0  0  0  0  0  3  0  0  0  0  0  0
  161.2470  204.1040  151.5160 C   0  0  0  0  0  3  0  0  0  0  0  0
  160.1770  205.7790  146.9000 O   0  0  0  0  0  0  0  0  0  0  0  0
  161.1040  206.0310  147.7120 C   0  0  0  0  0  0  0  0  0  0  0  0
  163.0830  207.3690  148.1820 O   0  0  0  0  0  1  0  0  0  0  0  0
  162.1190  206.9600  147.3260 N   0  0  0  0  0  2  0  0  0  0  0  0
  1  2  1  6  0  0  0
  5  9  1  0  0  0  0
  6  7  1  0  0  0  0
  7  4  1  0  0  0  0
  8  1  1  6  0  0  0
  8  6  1  0  0  0  0
  8  5  1  0  0  0  0
  9  3  1  6  0  0  0
  9  4  1  0  0  0  0
 10 11  1  1  0  0  0
 10  1  1  0  0  0  0
 10 12  1  0  0  0  0
 12 18  1  1  0  0  0
 13 15  1  6  0  0  0
 13 14  1  0  0  0  0
 14 12  1  1  0  0  0
 16 17  1  6  0  0  0
 16 13  1  0  0  0  0
 16 14  1  0  0  0  0
 18 21  1  0  0  0  0
 18 20  1  0  0  0  0
 19 18  1  0  0  0  0
 22  1  1  0  0  0  0
 23 22  1  0  0  0  0
 23 24  1  0  0  0  0
 25 31  1  0  0  0  0
 26 31  2  0  0  0  0
 26 24  1  0  0  0  0
 27 28  1  0  0  0  0
 28 25  2  0  0  0  0
 29 28  1  0  0  0  0
 29 30  2  0  0  0  0
 30 26  1  0  0  0  0
 32 33  2  0  0  0  0
 33 29  1  0  0  0  0
 35 33  1  0  0  0  0
 35 34  1  0  0  0  0
M  END
>  <MODEL>
6

>  <REMARK>
 VINA RESULT:      -6.4      4.604      8.615
  Name = 
  10 active torsions:
  status: ('A' for Active; 'I' for Inactive)
    1  A    between atoms: C_2  and  C_27
    2  A    between atoms: C_3  and  C_8
    3  A    between atoms: C_3  and  C_27
    4  A    between atoms: C_4  and  C_20
    5  A    between atoms: C_4  and  C_32
    6  A    between atoms: C_8  and  C_20
    7  A    between atoms: C_8  and  C_23
    8  A    between atoms: C_10  and  C_27
    9  A    between atoms: C_15  and  C_32
   10  A    between atoms: C_18  and  C_24
                            x       y       z     vdW  Elec       q    Type
                         _______ _______ _______ _____ _____    ______ ____

>  <TORSDO>
F 10

$$$$
=
 OpenBabel11072413103D

 35 37  0  0  1  0  0  0  0  0999 V2000
  161.5560  206.2530  151.3500 C   0  0  1  0  0  0  0  0  0  0  0  0
  162.9580  205.6690  151.1890 C   0  0  0  0  0  1  0  0  0  0  0  0
  161.7610  210.6870  149.2710 C   0  0  0  0  0  1  0  0  0  0  0  0
  161.9950  210.4210  151.7660 C   0  0  0  0  0  2  0  0  0  0  0  0
  162.3300  208.4330  150.2040 C   0  0  0  0  0  2  0  0  0  0  0  0
  160.4560  208.4190  151.7200 O   0  0  0  0  0  0  0  0  0  0  0  0
  160.6700  209.7480  152.1970 C   0  0  0  0  0  2  0  0  0  0  0  0
  161.6870  207.7930  151.4380 C   0  0  1  0  0  3  0  0  0  0  0  0
  162.4710  209.9440  150.3900 C   0  0  1  0  0  3  0  0  0  0  0  0
  160.7230  205.8060  150.1190 C   0  0  1  0  0  3  0  0  0  0  0  0
  160.1410  206.9030  149.4650 O   0  0  0  0  0  1  0  0  0  0  0  0
  161.4310  204.8480  149.1340 C   0  0  1  0  0  3  0  0  0  0  0  0
  161.0500  202.6120  150.1880 C   0  0  1  0  0  3  0  0  0  0  0  0
  160.6430  203.5400  149.0570 C   0  0  2  0  0  3  0  0  0  0  0  0
  159.9820  201.7670  150.5070 O   0  0  0  0  0  1  0  0  0  0  0  0
  161.5800  202.3820  148.7740 C   0  0  2  0  0  3  0  0  0  0  0  0
  160.8310  201.3070  148.0020 C   0  0  0  0  0  1  0  0  0  0  0  0
  161.6610  205.4260  147.7190 C   0  0  0  0  0  0  0  0  0  0  0  0
  162.4010  206.6070  147.8060 O   0  0  0  0  0  1  0  0  0  0  0  0
  160.4570  205.7080  147.1090 F   0  0  0  0  0  0  0  0  0  0  0  0
  162.3580  204.5190  146.9350 F   0  0  0  0  0  0  0  0  0  0  0  0
  160.9440  205.6780  152.6430 C   0  0  0  0  0  2  0  0  0  0  0  0
  161.5190  206.2470  153.9440 C   0  0  0  0  0  2  0  0  0  0  0  0
  160.4200  206.5750  154.9440 C   0  0  0  0  0  2  0  0  0  0  0  0
  162.0670  209.3900  156.8000 N   0  0  0  0  0  0  0  0  0  0  0  0
  160.6720  207.9130  155.5460 C   0  0  0  0  0  0  0  0  0  0  0  0
  161.4670  211.6730  157.2600 N   0  0  0  0  0  1  0  0  0  0  0  0
  161.1570  210.4000  156.6950 C   0  0  0  0  0  0  0  0  0  0  0  0
  159.9500  210.1890  155.9950 C   0  0  0  0  0  0  0  0  0  0  0  0
  159.7270  208.9330  155.4200 C   0  0  0  0  0  3  0  0  0  0  0  0
  161.8490  208.1650  156.2500 C   0  0  0  0  0  3  0  0  0  0  0  0
  157.9390  211.2480  156.6660 O   0  0  0  0  0  0  0  0  0  0  0  0
  158.9170  211.2400  155.8740 C   0  0  0  0  0  0  0  0  0  0  0  0
  160.0560  212.3750  154.0460 O   0  0  0  0  0  1  0  0  0  0  0  0
  158.9840  212.2460  154.8610 N   0  0  0  0  0  2  0  0  0  0  0  0
  1  2  1  6  0  0  0
  1 22  1  0  0  0  0
  4  7  1  0  0  0  0
  5  9  1  0  0  0  0
  5  8  1  0  0  0  0
  6  7  1  0  0  0  0
  8  1  1  6  0  0  0
  8  6  1  0  0  0  0
  9  3  1  6  0  0  0
  9  4  1  0  0  0  0
 10 11  1  6  0  0  0
 10  1  1  0  0  0  0
 12 18  1  6  0  0  0
 12 10  1  0  0  0  0
 13 15  1  6  0  0  0
 14 12  1  1  0  0  0
 14 13  1  0  0  0  0
 16 17  1  6  0  0  0
 16 14  1  0  0  0  0
 16 13  1  0  0  0  0
 18 19  1  0  0  0  0
 20 18  1  0  0  0  0
 21 18  1  0  0  0  0
 22 23  1  0  0  0  0
 23 24  1  0  0  0  0
 24 26  1  0  0  0  0
 26 31  1  0  0  0  0
 28 25  1  0  0  0  0
 28 27  1  0  0  0  0
 29 28  2  0  0  0  0
 30 26  2  0  0  0  0
 30 29  1  0  0  0  0
 31 25  2  0  0  0  0
 33 29  1  0  0  0  0
 33 32  2  0  0  0  0
 34 35  1  0  0  0  0
 35 33  1  0  0  0  0
M  END
>  <MODEL>
7

>  <REMARK>
 VINA RESULT:      -6.3      4.190      7.523
  Name = 
  10 active torsions:
  status: ('A' for Active; 'I' for Inactive)
    1  A    between atoms: C_2  and  C_27
    2  A    between atoms: C_3  and  C_8
    3  A    between atoms: C_3  and  C_27
    4  A    between atoms: C_4  and  C_20
    5  A    between atoms: C_4  and  C_32
    6  A    between atoms: C_8  and  C_20
    7  A    between atoms: C_8  and  C_23
    8  A    between atoms: C_10  and  C_27
    9  A    between atoms: C_15  and  C_32
   10  A    between atoms: C_18  and  C_24
                            x       y       z     vdW  Elec       q    Type
                         _______ _______ _______ _____ _____    ______ ____

>  <TORSDO>
F 10

$$$$
=
 OpenBabel11072413103D

 35 37  0  0  1  0  0  0  0  0999 V2000
  161.1030  210.1770  152.9750 C   0  0  1  0  0  0  0  0  0  0  0  0
  162.5800  210.1210  152.5950 C   0  0  0  0  0  1  0  0  0  0  0  0
  161.1730  207.7570  157.2370 C   0  0  0  0  0  1  0  0  0  0  0  0
  160.7390  210.2380  157.1710 C   0  0  0  0  0  2  0  0  0  0  0  0
  160.4760  208.8110  155.0740 C   0  0  0  0  0  2  0  0  0  0  0  0
  162.2260  210.4680  155.1420 O   0  0  0  0  0  0  0  0  0  0  0  0
  162.0080  210.8230  156.5080 C   0  0  0  0  0  2  0  0  0  0  0  0
  161.0040  210.1370  154.5190 C   0  0  1  0  0  3  0  0  0  0  0  0
  160.3600  208.8690  156.5970 C   0  0  1  0  0  3  0  0  0  0  0  0
  160.5220  211.4900  152.3860 C   0  0  1  0  0  3  0  0  0  0  0  0
  160.8480  211.6340  151.0280 O   0  0  0  0  0  1  0  0  0  0  0  0
  159.0220  211.7480  152.6560 C   0  0  1  0  0  3  0  0  0  0  0  0
  157.5370  211.2730  154.6110 C   0  0  1  0  0  3  0  0  0  0  0  0
  158.8130  211.9570  154.1550 C   0  0  2  0  0  3  0  0  0  0  0  0
  157.6530  210.9160  155.9590 O   0  0  0  0  0  1  0  0  0  0  0  0
  157.5660  212.7850  154.3980 C   0  0  2  0  0  3  0  0  0  0  0  0
  157.7360  213.5850  155.6800 C   0  0  0  0  0  1  0  0  0  0  0  0
  158.4100  212.9200  151.8550 C   0  0  0  0  0  0  0  0  0  0  0  0
  159.2280  214.0470  151.9670 O   0  0  0  0  0  1  0  0  0  0  0  0
  157.1590  213.2380  152.3400 F   0  0  0  0  0  0  0  0  0  0  0  0
  158.2970  212.5810  150.5150 F   0  0  0  0  0  0  0  0  0  0  0  0
  160.4000  208.9570  152.3480 C   0  0  0  0  0  2  0  0  0  0  0  0
  161.3300  207.9570  151.6510 C   0  0  0  0  0  2  0  0  0  0  0  0
  161.2620  208.0920  150.1380 C   0  0  0  0  0  2  0  0  0  0  0  0
  160.8280  204.3960  149.6510 N   0  0  0  0  0  0  0  0  0  0  0  0
  161.2610  206.7400  149.5130 C   0  0  0  0  0  0  0  0  0  0  0  0
  161.2060  202.8900  147.8150 N   0  0  0  0  0  1  0  0  0  0  0  0
  161.2650  204.2010  148.3750 C   0  0  0  0  0  0  0  0  0  0  0  0
  161.7220  205.2980  147.6130 C   0  0  0  0  0  0  0  0  0  0  0  0
  161.7080  206.5670  148.2010 C   0  0  0  0  0  3  0  0  0  0  0  0
  160.8210  205.6280  150.2300 C   0  0  0  0  0  3  0  0  0  0  0  0
  163.3980  204.7050  146.0460 O   0  0  0  0  0  0  0  0  0  0  0  0
  162.2330  205.1400  146.2340 C   0  0  0  0  0  0  0  0  0  0  0  0
  160.1440  205.8540  145.2080 O   0  0  0  0  0  1  0  0  0  0  0  0
  161.4410  205.4890  145.0960 N   0  0  0  0  0  2  0  0  0  0  0  0
  1  2  1  6  0  0  0
  5  9  1  0  0  0  0
  6  7  1  0  0  0  0
  7  4  1  0  0  0  0
  8  1  1  6  0  0  0
  8  5  1  0  0  0  0
  8  6  1  0  0  0  0
  9  4  1  0  0  0  0
  9  3  1  1  0  0  0
 10 11  1  6  0  0  0
 10 12  1  0  0  0  0
 10  1  1  0  0  0  0
 12 18  1  6  0  0  0
 13 15  1  1  0  0  0
 14 12  1  6  0  0  0
 14 16  1  0  0  0  0
 14 13  1  0  0  0  0
 16 13  1  0  0  0  0
 16 17  1  1  0  0  0
 18 19  1  0  0  0  0
 18 20  1  0  0  0  0
 21 18  1  0  0  0  0
 22  1  1  0  0  0  0
 23 22  1  0  0  0  0
 24 23  1  0  0  0  0
 25 31  1  0  0  0  0
 26 24  1  0  0  0  0
 26 31  2  0  0  0  0
 27 28  1  0  0  0  0
 28 25  2  0  0  0  0
 29 30  2  0  0  0  0
 29 28  1  0  0  0  0
 30 26  1  0  0  0  0
 32 33  2  0  0  0  0
 33 29  1  0  0  0  0
 35 34  1  0  0  0  0
 35 33  1  0  0  0  0
M  END
>  <MODEL>
8

>  <REMARK>
 VINA RESULT:      -6.3      4.897      8.354
  Name = 
  10 active torsions:
  status: ('A' for Active; 'I' for Inactive)
    1  A    between atoms: C_2  and  C_27
    2  A    between atoms: C_3  and  C_8
    3  A    between atoms: C_3  and  C_27
    4  A    between atoms: C_4  and  C_20
    5  A    between atoms: C_4  and  C_32
    6  A    between atoms: C_8  and  C_20
    7  A    between atoms: C_8  and  C_23
    8  A    between atoms: C_10  and  C_27
    9  A    between atoms: C_15  and  C_32
   10  A    between atoms: C_18  and  C_24
                            x       y       z     vdW  Elec       q    Type
                         _______ _______ _______ _____ _____    ______ ____

>  <TORSDO>
F 10

$$$$
=
 OpenBabel11072413103D

 35 37  0  0  1  0  0  0  0  0999 V2000
  161.0650  205.4880  148.3620 C   0  0  1  0  0  0  0  0  0  0  0  0
  159.8010  206.2370  148.7780 C   0  0  0  0  0  1  0  0  0  0  0  0
  160.4560  203.1980  152.6530 C   0  0  0  0  0  1  0  0  0  0  0  0
  161.5880  202.0390  150.7230 C   0  0  0  0  0  2  0  0  0  0  0  0
  161.3470  204.5770  150.7620 C   0  0  0  0  0  2  0  0  0  0  0  0
  160.1570  203.3210  149.0830 O   0  0  0  0  0  0  0  0  0  0  0  0
  160.5190  202.0420  149.6050 C   0  0  0  0  0  2  0  0  0  0  0  0
  161.2060  204.2440  149.2730 C   0  0  1  0  0  3  0  0  0  0  0  0
  161.5330  203.3040  151.5860 C   0  0  1  0  0  3  0  0  0  0  0  0
  160.9060  205.1030  146.8680 C   0  0  1  0  0  3  0  0  0  0  0  0
  160.8190  206.2400  146.0490 O   0  0  0  0  0  1  0  0  0  0  0  0
  161.9170  204.0670  146.3240 C   0  0  1  0  0  3  0  0  0  0  0  0
  159.7190  203.3360  145.3820 C   0  0  1  0  0  3  0  0  0  0  0  0
  161.2270  203.2030  145.2680 C   0  0  2  0  0  3  0  0  0  0  0  0
  159.1340  203.1050  144.1330 O   0  0  0  0  0  1  0  0  0  0  0  0
  160.4270  202.1010  145.9370 C   0  0  2  0  0  3  0  0  0  0  0  0
  160.3710  200.8920  145.0170 C   0  0  0  0  0  1  0  0  0  0  0  0
  163.2240  204.6700  145.7610 C   0  0  0  0  0  0  0  0  0  0  0  0
  164.1990  204.7000  146.7600 O   0  0  0  0  0  1  0  0  0  0  0  0
  163.0120  205.9590  145.3190 F   0  0  0  0  0  0  0  0  0  0  0  0
  163.6920  203.9060  144.7020 F   0  0  0  0  0  0  0  0  0  0  0  0
  162.2660  206.4380  148.5410 C   0  0  0  0  0  2  0  0  0  0  0  0
  161.9950  207.6740  149.4060 C   0  0  0  0  0  2  0  0  0  0  0  0
  162.4410  207.4580  150.8440 C   0  0  0  0  0  2  0  0  0  0  0  0
  161.0400  210.7320  152.0290 N   0  0  0  0  0  0  0  0  0  0  0  0
  161.8430  208.5050  151.7180 C   0  0  0  0  0  0  0  0  0  0  0  0
  160.1360  211.5120  154.1150 N   0  0  0  0  0  1  0  0  0  0  0  0
  160.7420  210.4830  153.3350 C   0  0  0  0  0  0  0  0  0  0  0  0
  160.9910  209.2060  153.8830 C   0  0  0  0  0  0  0  0  0  0  0  0
  161.5400  208.2230  153.0520 C   0  0  0  0  0  3  0  0  0  0  0  0
  161.5830  209.7810  151.2200 C   0  0  0  0  0  3  0  0  0  0  0  0
  159.7050  208.1960  155.5980 O   0  0  0  0  0  0  0  0  0  0  0  0
  160.7120  208.8890  155.3000 C   0  0  0  0  0  0  0  0  0  0  0  0
  162.7070  210.0240  156.1130 O   0  0  0  0  0  1  0  0  0  0  0  0
  161.5480  209.3710  156.3550 N   0  0  0  0  0  2  0  0  0  0  0  0
  1 22  1  0  0  0  0
  1  2  1  1  0  0  0
  4  9  1  0  0  0  0
  5  9  1  0  0  0  0
  6  8  1  0  0  0  0
  6  7  1  0  0  0  0
  7  4  1  0  0  0  0
  8  1  1  6  0  0  0
  8  5  1  0  0  0  0
  9  3  1  1  0  0  0
 10 11  1  6  0  0  0
 10  1  1  0  0  0  0
 12 18  1  6  0  0  0
 12 10  1  0  0  0  0
 13 15  1  6  0  0  0
 13 16  1  0  0  0  0
 14 13  1  0  0  0  0
 14 16  1  0  0  0  0
 14 12  1  1  0  0  0
 16 17  1  6  0  0  0
 18 19  1  0  0  0  0
 20 18  1  0  0  0  0
 21 18  1  0  0  0  0
 22 23  1  0  0  0  0
 23 24  1  0  0  0  0
 24 26  1  0  0  0  0
 25 28  1  0  0  0  0
 26 30  2  0  0  0  0
 28 29  2  0  0  0  0
 28 27  1  0  0  0  0
 29 33  1  0  0  0  0
 30 29  1  0  0  0  0
 31 26  1  0  0  0  0
 31 25  2  0  0  0  0
 33 32  2  0  0  0  0
 33 35  1  0  0  0  0
 34 35  1  0  0  0  0
M  END
>  <MODEL>
9

>  <REMARK>
 VINA RESULT:      -6.1      4.124      7.218
  Name = 
  10 active torsions:
  status: ('A' for Active; 'I' for Inactive)
    1  A    between atoms: C_2  and  C_27
    2  A    between atoms: C_3  and  C_8
    3  A    between atoms: C_3  and  C_27
    4  A    between atoms: C_4  and  C_20
    5  A    between atoms: C_4  and  C_32
    6  A    between atoms: C_8  and  C_20
    7  A    between atoms: C_8  and  C_23
    8  A    between atoms: C_10  and  C_27
    9  A    between atoms: C_15  and  C_32
   10  A    between atoms: C_18  and  C_24
                            x       y       z     vdW  Elec       q    Type
                         _______ _______ _______ _____ _____    ______ ____

>  <TORSDO>
F 10

$$$$
