=
 OpenBabel11072411583D

 60 67  0  0  1  0  0  0  0  0999 V2000
  158.8250  212.1580  149.4450 N   0  0  0  0  0  0  0  0  0  0  0  0
  158.1550  213.0060  150.3190 N   0  0  0  0  0  2  0  0  0  0  0  0
  161.0620  213.0050  151.8000 C   0  0  0  0  0  2  0  0  0  0  0  0
  162.5360  212.1400  149.1770 C   0  0  0  0  0  2  0  0  0  0  0  0
  160.1970  212.1390  153.8290 C   0  0  1  0  0  3  0  0  0  0  0  0
  161.9570  213.4780  147.2160 C   0  0  1  0  0  3  0  0  0  0  0  0
  161.7270  209.4490  147.7590 N   0  0  0  0  0  2  0  0  0  0  0  0
  161.5760  206.5950  151.7560 C   0  0  0  0  0  2  0  0  0  0  0  0
  160.4130  208.0020  153.4870 C   0  0  0  0  0  2  0  0  0  0  0  0
  160.8260  206.5880  153.0820 C   0  0  2  0  0  3  0  0  0  0  0  0
  161.0320  210.2300  148.7390 C   0  0  0  0  0  0  0  0  0  0  0  0
  160.1220  210.8160  154.6160 C   0  0  1  0  0  3  0  0  0  0  0  0
  160.0740  212.4080  149.5640 C   0  0  0  0  0  0  0  0  0  0  0  0
  161.6430  205.1940  151.1680 C   0  0  0  0  0  2  0  0  0  0  0  0
  161.1430  211.7380  148.7080 C   0  0  1  0  0  0  0  0  0  0  0  0
  158.9660  213.8840  150.9730 O   0  0  0  0  0  0  0  0  0  0  0  0
  160.3620  209.6550  149.6390 O   0  0  0  0  0  0  0  0  0  0  0  0
  161.0970  212.2340  147.2590 C   0  0  1  0  0  3  0  0  0  0  0  0
  161.5990  208.0020  147.6590 C   0  0  0  0  0  2  0  0  0  0  0  0
  162.2920  207.3280  148.8280 C   0  0  0  0  0  2  0  0  0  0  0  0
  159.8020  212.5030  146.8070 O   0  0  0  0  0  1  0  0  0  0  0  0
  161.9270  209.5360  152.4300 O   0  0  0  0  0  1  0  0  0  0  0  0
  161.4070  209.9660  154.7610 C   0  0  1  0  0  3  0  0  0  0  0  0
  161.6250  206.0250  154.0750 O   0  0  0  0  0  1  0  0  0  0  0  0
  162.0470  205.8330  148.7620 C   0  0  0  0  0  2  0  0  0  0  0  0
  161.6160  208.9290  153.6470 C   0  0  1  0  0  3  0  0  0  0  0  0
  162.6160  205.1460  149.9950 C   0  0  0  0  0  2  0  0  0  0  0  0
  162.9740  213.3360  148.3370 C   0  0  0  0  0  2  0  0  0  0  0  0
  160.4220  211.8490  152.4180 N   0  0  0  0  0  2  0  0  0  0  0  0
  160.2700  213.4860  150.5810 C   0  0  1  0  0  3  0  0  0  0  0  0
  162.6480  211.7140  156.2700 C   0  0  0  0  0  2  0  0  0  0  0  0
  162.7080  210.6970  155.1420 C   0  0  0  0  0  0  0  0  0  0  0  0
  163.1390  210.3170  156.5510 C   0  0  0  0  0  2  0  0  0  0  0  0
  163.9260  210.6780  154.2200 C   0  0  0  0  0  2  0  0  0  0  0  0
  165.0950  211.6850  156.0410 O   0  0  0  0  0  1  0  0  0  0  0  0
  165.1140  211.3400  154.8320 C   0  0  0  0  0  0  0  0  0  0  0  0
  166.2520  211.5640  154.0700 O   0  0  0  0  0  0  0  0  0  0  0  0
  162.6330  213.6540  145.8580 C   0  0  0  0  0  2  0  0  0  0  0  0
  162.3560  214.4510  143.6200 C   0  0  2  0  0  3  0  0  0  0  0  0
  161.6540  213.9480  144.8130 N   0  0  0  0  0  0  0  0  0  0  0  0
  161.9280  213.0510  143.6750 C   0  0  2  0  0  3  0  0  0  0  0  0
  163.2570  213.3840  143.0320 C   0  0  0  0  0  2  0  0  0  0  0  0
  159.1710  210.7540  155.8270 C   0  0  0  0  0  2  0  0  0  0  0  0
  158.8160  208.2810  156.0420 C   0  0  0  0  0  2  0  0  0  0  0  0
  160.7550  207.8420  157.1650 N   0  0  0  0  0  2  0  0  0  0  0  0
  160.5610  209.2370  157.2600 N   0  0  0  0  0  2  0  0  0  0  0  0
  159.2360  209.5190  156.7380 C   0  0  1  0  0  3  0  0  0  0  0  0
  159.5500  207.2460  156.7330 N   0  0  0  0  0  2  0  0  0  0  0  0
  158.9140  212.9560  153.9600 C   0  0  0  0  0  2  0  0  0  0  0  0
  158.4020  212.8770  155.3890 C   0  0  0  0  0  2  0  0  0  0  0  0
  158.2140  214.2640  155.9700 C   0  0  0  0  0  2  0  0  0  0  0  0
  157.1480  214.2690  157.0550 C   0  0  0  0  0  2  0  0  0  0  0  0
  154.7200  214.4520  156.9970 C   0  0  0  0  0  2  0  0  0  0  0  0
  155.8200  213.9130  156.4630 C   0  0  0  0  0  0  0  0  0  0  0  0
  155.7570  212.9380  155.3030 C   0  0  1  0  0  3  0  0  0  0  0  0
  154.6180  211.3510  156.8460 C   0  0  0  0  0  2  0  0  0  0  0  0
  156.1010  211.2860  157.1320 C   0  0  0  0  0  2  0  0  0  0  0  0
  155.6110  211.4700  155.7070 C   0  0  0  0  0  3  0  0  0  0  0  0
  154.7170  213.3470  154.2570 C   0  0  0  0  0  2  0  0  0  0  0  0
  155.3480  213.9620  153.0150 C   0  0  0  0  0  1  0  0  0  0  0  0
  1 13  2  0  0  0  0
  1  2  1  0  0  0  0
  2 16  1  0  0  0  0
  3 29  1  0  0  0  0
  5 49  1  6  0  0  0
  5 12  1  0  0  0  0
  6 38  1  6  0  0  0
  6 18  1  0  0  0  0
  6 28  1  0  0  0  0
  7 11  1  0  0  0  0
  8 10  1  0  0  0  0
  9 26  1  0  0  0  0
 10  9  1  0  0  0  0
 10 24  1  1  0  0  0
 11 17  2  0  0  0  0
 12 23  1  0  0  0  0
 12 43  1  1  0  0  0
 13 30  1  0  0  0  0
 14  8  1  0  0  0  0
 15 11  1  0  0  0  0
 15  4  1  1  0  0  0
 15 13  1  0  0  0  0
 18 21  1  1  0  0  0
 18 15  1  0  0  0  0
 19  7  1  0  0  0  0
 19 20  1  0  0  0  0
 23 32  1  6  0  0  0
 25 20  1  0  0  0  0
 25 27  1  0  0  0  0
 26 22  1  6  0  0  0
 26 23  1  0  0  0  0
 27 14  1  0  0  0  0
 28  4  1  0  0  0  0
 29  5  1  0  0  0  0
 30 16  1  0  0  0  0
 30  3  1  1  0  0  0
 31 33  1  0  0  0  0
 32 31  1  0  0  0  0
 32 33  1  0  0  0  0
 34 36  1  0  0  0  0
 34 32  1  0  0  0  0
 36 35  1  0  0  0  0
 37 36  2  0  0  0  0
 39 42  1  1  0  0  0
 39 41  1  0  0  0  0
 39 40  1  0  0  0  0
 40 38  1  0  0  0  0
 41 42  1  1  0  0  0
 41 40  1  0  0  0  0
 44 48  1  0  0  0  0
 44 47  1  0  0  0  0
 45 46  1  0  0  0  0
 47 43  1  6  0  0  0
 47 46  1  0  0  0  0
 48 45  1  0  0  0  0
 49 50  1  0  0  0  0
 50 51  1  0  0  0  0
 51 52  1  0  0  0  0
 54 53  2  0  0  0  0
 54 52  1  0  0  0  0
 55 59  1  6  0  0  0
 55 58  1  0  0  0  0
 55 54  1  0  0  0  0
 56 57  1  0  0  0  0
 58 56  1  0  0  0  0
 58 57  1  0  0  0  0
 60 59  1  0  0  0  0
M  END
>  <MODEL>
1

>  <REMARK>
 VINA RESULT:       5.6      0.000      0.000
  Name = 
  15 active torsions:
  status: ('A' for Active; 'I' for Inactive)
    1  A    between atoms: C_9  and  C_56
    2  A    between atoms: C_10  and  C_31
    3  A    between atoms: C_10  and  C_45
    4  A    between atoms: C_11  and  C_13
    5  A    between atoms: C_13  and  N_20
    6  A    between atoms: C_14  and  C_30
    7  A    between atoms: C_14  and  C_42
    8  A    between atoms: C_14  and  C_57
    9  A    between atoms: C_22  and  C_33
   10  A    between atoms: C_31  and  C_42
   11  A    between atoms: C_33  and  C_52
   12  A    between atoms: C_34  and  C_35
   13  A    between atoms: C_34  and  C_36
   14  A    between atoms: C_35  and  C_48
   15  A    between atoms: C_45  and  C_56
                            x       y       z     vdW  Elec       q    Type
                         _______ _______ _______ _____ _____    ______ ____

>  <TORSDO>
F 15

$$$$
=
 OpenBabel11072411583D

 60 67  0  0  1  0  0  0  0  0999 V2000
  162.3740  213.8140  149.1010 N   0  0  0  0  0  0  0  0  0  0  0  0
  163.6650  213.4720  149.4890 N   0  0  0  0  0  2  0  0  0  0  0  0
  162.2880  210.5310  149.7950 C   0  0  0  0  0  2  0  0  0  0  0  0
  159.9640  211.2780  147.8340 C   0  0  0  0  0  2  0  0  0  0  0  0
  162.8040  210.3600  152.1000 C   0  0  1  0  0  3  0  0  0  0  0  0
  160.7100  212.2710  145.7290 C   0  0  1  0  0  3  0  0  0  0  0  0
  158.1040  213.7290  148.4980 N   0  0  0  0  0  2  0  0  0  0  0  0
  157.3230  212.7230  153.2440 C   0  0  0  0  0  2  0  0  0  0  0  0
  159.5800  212.0360  154.1180 C   0  0  0  0  0  2  0  0  0  0  0  0
  158.1800  212.5240  154.4870 C   0  0  2  0  0  3  0  0  0  0  0  0
  159.3930  213.3730  149.0120 C   0  0  0  0  0  0  0  0  0  0  0  0
  162.1300  210.4970  153.4790 C   0  0  1  0  0  3  0  0  0  0  0  0
  161.8100  212.7420  148.6910 C   0  0  0  0  0  0  0  0  0  0  0  0
  156.0950  213.5600  153.5640 C   0  0  0  0  0  2  0  0  0  0  0  0
  160.4050  212.7130  148.1020 C   0  0  1  0  0  0  0  0  0  0  0  0
  163.9860  212.1680  149.2620 O   0  0  0  0  0  0  0  0  0  0  0  0
  159.6640  213.5810  150.2260 O   0  0  0  0  0  0  0  0  0  0  0  0
  160.3610  213.3640  146.7160 C   0  0  1  0  0  3  0  0  0  0  0  0
  157.1090  214.4520  149.2770 C   0  0  0  0  0  2  0  0  0  0  0  0
  156.5370  213.5590  150.3620 C   0  0  0  0  0  2  0  0  0  0  0  0
  161.2300  214.4520  146.5880 O   0  0  0  0  0  1  0  0  0  0  0  0
  159.4280  210.9230  151.9960 O   0  0  0  0  0  1  0  0  0  0  0  0
  160.7560  209.8200  153.7020 C   0  0  1  0  0  3  0  0  0  0  0  0
  157.5690  211.6090  155.3420 O   0  0  0  0  0  1  0  0  0  0  0  0
  155.5900  214.3660  151.2290 C   0  0  0  0  0  2  0  0  0  0  0  0
  159.5460  210.7060  153.3690 C   0  0  1  0  0  3  0  0  0  0  0  0
  155.1040  213.5320  152.4050 C   0  0  0  0  0  2  0  0  0  0  0  0
  160.3050  210.9590  146.3820 C   0  0  0  0  0  2  0  0  0  0  0  0
  162.0360  211.1060  151.1110 N   0  0  0  0  0  2  0  0  0  0  0  0
  162.7680  211.5990  148.8090 C   0  0  1  0  0  3  0  0  0  0  0  0
  161.1680  207.2550  154.0560 C   0  0  0  0  0  2  0  0  0  0  0  0
  160.5850  208.3720  153.2060 C   0  0  0  0  0  0  0  0  0  0  0  0
  159.7000  207.5830  154.1610 C   0  0  0  0  0  2  0  0  0  0  0  0
  160.1650  208.0710  151.7670 C   0  0  0  0  0  2  0  0  0  0  0  0
  162.3560  207.2260  151.3400 O   0  0  0  0  0  1  0  0  0  0  0  0
  161.1300  207.1730  151.0690 C   0  0  0  0  0  0  0  0  0  0  0  0
  160.6710  206.2640  150.1260 O   0  0  0  0  0  0  0  0  0  0  0  0
  160.0120  212.4740  144.3870 C   0  0  0  0  0  2  0  0  0  0  0  0
  161.9030  213.4370  143.2830 C   0  0  2  0  0  3  0  0  0  0  0  0
  160.5110  213.6680  143.7060 N   0  0  0  0  0  0  0  0  0  0  0  0
  160.8140  213.2950  142.3110 C   0  0  2  0  0  3  0  0  0  0  0  0
  161.9780  212.3300  142.2510 C   0  0  0  0  0  2  0  0  0  0  0  0
  163.0380  210.5300  154.7230 C   0  0  0  0  0  2  0  0  0  0  0  0
  161.4040  211.5610  156.3220 C   0  0  0  0  0  2  0  0  0  0  0  0
  160.4260  209.6060  156.9810 N   0  0  0  0  0  2  0  0  0  0  0  0
  161.6350  209.2390  156.3510 N   0  0  0  0  0  2  0  0  0  0  0  0
  162.3750  210.4640  156.1070 C   0  0  1  0  0  3  0  0  0  0  0  0
  160.4600  210.9900  157.2550 N   0  0  0  0  0  2  0  0  0  0  0  0
  164.2350  210.8940  152.1090 C   0  0  0  0  0  2  0  0  0  0  0  0
  164.7500  210.9520  153.5380 C   0  0  0  0  0  2  0  0  0  0  0  0
  166.0020  211.8030  153.6230 C   0  0  0  0  0  2  0  0  0  0  0  0
  165.8840  212.8480  154.7220 C   0  0  0  0  0  2  0  0  0  0  0  0
  165.4990  211.8190  156.8950 C   0  0  0  0  0  2  0  0  0  0  0  0
  166.3880  212.2860  156.0140 C   0  0  0  0  0  0  0  0  0  0  0  0
  167.8780  212.2890  156.2980 C   0  0  1  0  0  3  0  0  0  0  0  0
  169.3230  214.3140  156.1910 C   0  0  0  0  0  2  0  0  0  0  0  0
  169.8840  213.4040  157.2590 C   0  0  0  0  0  2  0  0  0  0  0  0
  168.3820  213.5110  157.0670 C   0  0  0  0  0  3  0  0  0  0  0  0
  168.3490  210.9790  156.9360 C   0  0  0  0  0  2  0  0  0  0  0  0
  169.6070  210.4280  156.2800 C   0  0  0  0  0  1  0  0  0  0  0  0
  1  2  1  0  0  0  0
  3 29  1  0  0  0  0
  5 49  1  1  0  0  0
  5 12  1  0  0  0  0
  6 38  1  6  0  0  0
  6 28  1  0  0  0  0
  6 18  1  0  0  0  0
  7 11  1  0  0  0  0
  7 19  1  0  0  0  0
  8 14  1  0  0  0  0
  8 10  1  0  0  0  0
  9 10  1  0  0  0  0
 10 24  1  1  0  0  0
 11 17  2  0  0  0  0
 12 23  1  0  0  0  0
 12 43  1  1  0  0  0
 13 30  1  0  0  0  0
 13  1  2  0  0  0  0
 15  4  1  6  0  0  0
 15 13  1  0  0  0  0
 15 11  1  0  0  0  0
 16  2  1  0  0  0  0
 18 21  1  1  0  0  0
 18 15  1  0  0  0  0
 19 20  1  0  0  0  0
 20 25  1  0  0  0  0
 23 32  1  6  0  0  0
 25 27  1  0  0  0  0
 26 22  1  6  0  0  0
 26 23  1  0  0  0  0
 26  9  1  0  0  0  0
 27 14  1  0  0  0  0
 28  4  1  0  0  0  0
 29  5  1  0  0  0  0
 30 16  1  0  0  0  0
 30  3  1  1  0  0  0
 31 33  1  0  0  0  0
 32 31  1  0  0  0  0
 32 33  1  0  0  0  0
 34 32  1  0  0  0  0
 36 35  1  0  0  0  0
 36 34  1  0  0  0  0
 37 36  2  0  0  0  0
 39 42  1  1  0  0  0
 39 40  1  0  0  0  0
 40 38  1  0  0  0  0
 41 42  1  1  0  0  0
 41 39  1  0  0  0  0
 41 40  1  0  0  0  0
 44 48  1  0  0  0  0
 45 48  1  0  0  0  0
 46 45  1  0  0  0  0
 47 43  1  6  0  0  0
 47 44  1  0  0  0  0
 47 46  1  0  0  0  0
 49 50  1  0  0  0  0
 50 51  1  0  0  0  0
 51 52  1  0  0  0  0
 52 54  1  0  0  0  0
 54 55  1  0  0  0  0
 54 53  2  0  0  0  0
 55 59  1  1  0  0  0
 55 58  1  0  0  0  0
 56 58  1  0  0  0  0
 56 57  1  0  0  0  0
 58 57  1  0  0  0  0
 60 59  1  0  0  0  0
M  END
>  <MODEL>
2

>  <REMARK>
 VINA RESULT:       6.4      2.462      6.959
  Name = 
  15 active torsions:
  status: ('A' for Active; 'I' for Inactive)
    1  A    between atoms: C_9  and  C_56
    2  A    between atoms: C_10  and  C_31
    3  A    between atoms: C_10  and  C_45
    4  A    between atoms: C_11  and  C_13
    5  A    between atoms: C_13  and  N_20
    6  A    between atoms: C_14  and  C_30
    7  A    between atoms: C_14  and  C_42
    8  A    between atoms: C_14  and  C_57
    9  A    between atoms: C_22  and  C_33
   10  A    between atoms: C_31  and  C_42
   11  A    between atoms: C_33  and  C_52
   12  A    between atoms: C_34  and  C_35
   13  A    between atoms: C_34  and  C_36
   14  A    between atoms: C_35  and  C_48
   15  A    between atoms: C_45  and  C_56
                            x       y       z     vdW  Elec       q    Type
                         _______ _______ _______ _____ _____    ______ ____

>  <TORSDO>
F 15

$$$$
