=
 OpenBabel11072411583D

 60 66  0  0  1  0  0  0  0  0999 V2000
  161.9440  211.3010  147.5150 C   0  0  0  0  0  1  0  0  0  0  0  0
  162.6170  213.3600  148.4680 O   0  0  0  0  0  1  0  0  0  0  0  0
  161.5000  212.6890  147.9620 C   0  0  1  0  0  0  0  0  0  0  0  0
  160.9290  213.4860  146.7780 C   0  0  0  0  0  2  0  0  0  0  0  0
  162.3600  214.4500  144.1260 O   0  0  0  0  0  0  0  0  0  0  0  0
  163.6620  213.1680  145.7090 C   0  0  0  0  0  1  0  0  0  0  0  0
  162.4700  213.1990  144.7610 C   0  0  1  0  0  3  0  0  0  0  0  0
  159.6590  212.1110  143.4620 C   0  0  0  0  0  2  0  0  0  0  0  0
  162.5050  213.2940  141.9470 C   0  0  1  0  0  3  0  0  0  0  0  0
  159.9500  213.1490  144.5390 C   0  0  0  0  0  2  0  0  0  0  0  0
  161.1420  212.7960  145.4270 C   0  0  2  0  0  3  0  0  0  0  0  0
  163.0500  214.3690  142.8980 C   0  0  0  0  0  2  0  0  0  0  0  0
  161.1030  213.2790  141.9100 O   0  0  0  0  0  0  0  0  0  0  0  0
  160.7440  212.0100  142.3910 C   0  0  2  0  0  3  0  0  0  0  0  0
  163.0990  213.4200  140.5480 C   0  0  0  0  0  2  0  0  0  0  0  0
  162.1420  214.0690  139.5560 C   0  0  0  0  0  2  0  0  0  0  0  0
  163.1930  213.0950  137.6570 O   0  0  0  0  0  0  0  0  0  0  0  0
  162.2340  213.9700  137.1130 C   0  0  0  0  0  2  0  0  0  0  0  0
  161.9640  213.1860  138.3370 C   0  0  2  0  0  3  0  0  0  0  0  0
  160.2090  211.1600  141.2510 C   0  0  0  0  0  2  0  0  0  0  0  0
  159.2580  211.8850  140.5120 O   0  0  0  0  0  0  0  0  0  0  0  0
  157.2700  212.2760  138.0000 C   0  0  0  0  0  2  0  0  0  0  0  0
  156.5460  211.1460  138.5690 N   0  0  0  0  0  0  0  0  0  0  0  0
  157.4240  210.5730  139.5870 C   0  0  0  0  0  2  0  0  0  0  0  0
  158.7440  212.0400  138.2020 C   0  0  0  0  0  2  0  0  0  0  0  0
  159.8130  210.0060  139.0510 C   0  0  0  0  0  1  0  0  0  0  0  0
  158.8350  211.1250  139.3970 C   0  0  1  0  0  0  0  0  0  0  0  0
  156.3750  210.1280  137.5390 C   0  0  0  0  0  2  0  0  0  0  0  0
  154.5610  208.5220  137.0250 C   0  0  0  0  0  2  0  0  0  0  0  0
  154.7030  209.0080  139.3560 O   0  0  0  0  0  1  0  0  0  0  0  0
  154.0090  209.3320  138.1840 C   0  0  1  0  0  3  0  0  0  0  0  0
  154.9060  209.9920  137.1320 C   0  0  1  0  0  3  0  0  0  0  0  0
  160.4530  212.5550  149.0890 C   0  0  2  0  0  3  0  0  0  0  0  0
  158.2600  213.1490  147.9090 C   0  0  0  0  0  1  0  0  0  0  0  0
  159.2300  213.4930  149.0260 C   0  0  0  0  0  2  0  0  0  0  0  0
  161.0480  212.3290  150.4940 C   0  0  2  0  0  3  0  0  0  0  0  0
  160.7330  209.8230  150.3930 N   0  0  0  0  0  2  0  0  0  0  0  0
  161.5820  210.9400  150.6900 C   0  0  0  0  0  0  0  0  0  0  0  0
  162.7770  210.7680  151.0560 O   0  0  0  0  0  0  0  0  0  0  0  0
  161.0690  205.5770  150.6590 C   0  0  0  0  0  2  0  0  0  0  0  0
  160.8510  207.8200  151.7520 C   0  0  0  0  0  3  0  0  0  0  0  0
  161.0470  208.4330  150.5740 C   0  0  0  0  0  0  0  0  0  0  0  0
  161.2260  206.3760  151.9610 C   0  0  2  0  0  0  0  0  0  0  0  0
  161.9980  208.3040  148.3140 F   0  0  0  0  0  0  0  0  0  0  0  0
  162.6650  206.2920  152.4420 C   0  0  0  0  0  1  0  0  0  0  0  0
  160.3950  205.8280  152.9360 O   0  0  0  0  0  1  0  0  0  0  0  0
  161.5550  207.6590  149.4220 C   0  0  0  0  0  0  0  0  0  0  0  0
  161.6110  206.3260  149.4710 C   0  0  0  0  0  3  0  0  0  0  0  0
  160.1950  212.8590  151.6590 C   0  0  1  0  0  3  0  0  0  0  0  0
  159.7960  214.3290  151.5180 C   0  0  0  0  0  1  0  0  0  0  0  0
  157.7980  212.5920  151.5970 O   0  0  0  0  0  1  0  0  0  0  0  0
  158.9950  211.9470  151.9340 C   0  0  2  0  0  3  0  0  0  0  0  0
  157.5990  211.8300  154.0290 C   0  0  0  0  0  2  0  0  0  0  0  0
  159.4520  211.4480  156.4550 C   0  0  0  0  0  2  0  0  0  0  0  0
  160.3830  211.9860  155.3880 C   0  0  0  0  0  3  0  0  0  0  0  0
  158.9640  211.4870  153.3910 C   0  0  2  0  0  3  0  0  0  0  0  0
  158.1350  212.1150  156.1860 C   0  0  2  0  0  3  0  0  0  0  0  0
  156.8990  211.5100  156.4570 O   0  0  0  0  0  0  0  0  0  0  0  0
  157.5750  211.0600  155.3140 C   0  0  1  0  0  3  0  0  0  0  0  0
  160.1270  212.0250  154.1100 N   0  0  0  0  0  0  0  0  0  0  0  0
  3  1  1  6  0  0  0
  3  2  1  0  0  0  0
  3 33  1  0  0  0  0
  4  3  1  0  0  0  0
  5  7  1  0  0  0  0
  7 11  1  0  0  0  0
  7  6  1  1  0  0  0
  8 10  1  0  0  0  0
  9 15  1  6  0  0  0
  9 12  1  0  0  0  0
 10 11  1  0  0  0  0
 11  4  1  1  0  0  0
 12  5  1  0  0  0  0
 13  9  1  0  0  0  0
 13 14  1  0  0  0  0
 14 20  1  6  0  0  0
 14  8  1  0  0  0  0
 16 15  1  0  0  0  0
 17 19  1  0  0  0  0
 18 17  1  0  0  0  0
 18 19  1  0  0  0  0
 19 16  1  1  0  0  0
 21 20  1  0  0  0  0
 22 25  1  0  0  0  0
 22 23  1  0  0  0  0
 23 24  1  0  0  0  0
 25 27  1  0  0  0  0
 27 26  1  6  0  0  0
 27 24  1  0  0  0  0
 27 21  1  0  0  0  0
 28 23  1  0  0  0  0
 29 32  1  0  0  0  0
 29 31  1  0  0  0  0
 31 30  1  1  0  0  0
 32 28  1  1  0  0  0
 32 31  1  0  0  0  0
 33 35  1  1  0  0  0
 33 36  1  0  0  0  0
 34 35  1  0  0  0  0
 36 38  1  1  0  0  0
 36 49  1  0  0  0  0
 37 42  1  0  0  0  0
 37 38  1  0  0  0  0
 38 39  2  0  0  0  0
 40 43  1  0  0  0  0
 41 43  1  0  0  0  0
 42 41  2  0  0  0  0
 43 45  1  1  0  0  0
 43 46  1  0  0  0  0
 44 47  1  0  0  0  0
 47 48  2  0  0  0  0
 47 42  1  0  0  0  0
 48 40  1  0  0  0  0
 49 50  1  6  0  0  0
 49 52  1  0  0  0  0
 52 51  1  1  0  0  0
 55 54  1  0  0  0  0
 56 52  1  6  0  0  0
 56 53  1  0  0  0  0
 56 60  1  0  0  0  0
 57 54  1  1  0  0  0
 57 58  1  0  0  0  0
 59 53  1  6  0  0  0
 59 57  1  0  0  0  0
 59 58  1  0  0  0  0
 60 55  2  0  0  0  0
M  END
>  <MODEL>
1

>  <REMARK>
 VINA RESULT:      -3.1      0.000      0.000
  Name = 
  18 active torsions:
  status: ('A' for Active; 'I' for Inactive)
    1  A    between atoms: C_9  and  N_11
    2  A    between atoms: C_19  and  C_48
    3  A    between atoms: C_19  and  C_51
    4  A    between atoms: C_25  and  C_27
    5  A    between atoms: C_25  and  C_29
    6  A    between atoms: C_26  and  C_30
    7  A    between atoms: C_29  and  C_30
    8  A    between atoms: C_30  and  C_45
    9  A    between atoms: C_32  and  C_58
   10  A    between atoms: C_34  and  C_36
   11  A    between atoms: C_36  and  C_39
   12  A    between atoms: C_37  and  C_39
   13  A    between atoms: N_40  and  C_58
   14  A    between atoms: C_42  and  O_56
   15  A    between atoms: C_42  and  C_60
   16  A    between atoms: C_45  and  C_48
   17  A    between atoms: C_45  and  C_49
   18  A    between atoms: C_50  and  O_56
                            x       y       z     vdW  Elec       q    Type
                         _______ _______ _______ _____ _____    ______ ____

>  <TORSDO>
F 18

$$$$
=
 OpenBabel11072411583D

 60 66  0  0  1  0  0  0  0  0999 V2000
  162.0110  211.5540  147.6190 C   0  0  0  0  0  1  0  0  0  0  0  0
  162.2210  213.6800  148.6390 O   0  0  0  0  0  1  0  0  0  0  0  0
  161.2720  212.7790  148.1470 C   0  0  1  0  0  0  0  0  0  0  0  0
  160.4700  213.4570  147.0250 C   0  0  0  0  0  2  0  0  0  0  0  0
  162.2170  214.4490  144.5800 O   0  0  0  0  0  0  0  0  0  0  0  0
  163.2390  212.9240  146.1540 C   0  0  0  0  0  1  0  0  0  0  0  0
  162.1440  213.1510  145.1200 C   0  0  1  0  0  3  0  0  0  0  0  0
  159.3600  212.4680  143.5190 C   0  0  0  0  0  2  0  0  0  0  0  0
  162.4330  213.4430  142.3340 C   0  0  1  0  0  3  0  0  0  0  0  0
  159.6610  213.3890  144.6950 C   0  0  0  0  0  2  0  0  0  0  0  0
  160.7290  212.8470  145.6440 C   0  0  2  0  0  3  0  0  0  0  0  0
  162.9990  214.3820  143.4080 C   0  0  0  0  0  2  0  0  0  0  0  0
  161.0450  213.5810  142.1850 O   0  0  0  0  0  0  0  0  0  0  0  0
  160.5190  212.3270  142.5330 C   0  0  2  0  0  3  0  0  0  0  0  0
  163.1560  213.6040  141.0010 C   0  0  0  0  0  2  0  0  0  0  0  0
  162.3660  214.4320  139.9960 C   0  0  0  0  0  2  0  0  0  0  0  0
  162.6560  214.0030  137.6740 O   0  0  0  0  0  0  0  0  0  0  0  0
  161.3190  214.4280  137.7850 C   0  0  0  0  0  2  0  0  0  0  0  0
  161.9510  213.5780  138.8150 C   0  0  2  0  0  3  0  0  0  0  0  0
  160.0020  211.6240  141.2900 C   0  0  0  0  0  2  0  0  0  0  0  0
  158.7420  212.1370  140.9320 O   0  0  0  0  0  0  0  0  0  0  0  0
  156.5020  212.8480  138.7210 C   0  0  0  0  0  2  0  0  0  0  0  0
  156.1050  211.4530  138.8690 N   0  0  0  0  0  0  0  0  0  0  0  0
  157.1770  210.8040  139.6210 C   0  0  0  0  0  2  0  0  0  0  0  0
  158.0030  212.9230  138.8210 C   0  0  0  0  0  2  0  0  0  0  0  0
  159.5760  211.0470  138.9100 C   0  0  0  0  0  1  0  0  0  0  0  0
  158.4040  211.7140  139.6260 C   0  0  1  0  0  0  0  0  0  0  0  0
  156.0780  210.8290  137.5510 C   0  0  0  0  0  2  0  0  0  0  0  0
  154.9960  208.9930  138.8130 C   0  0  0  0  0  2  0  0  0  0  0  0
  153.6190  209.8060  137.0440 O   0  0  0  0  0  1  0  0  0  0  0  0
  154.5130  208.7860  137.3880 C   0  0  1  0  0  3  0  0  0  0  0  0
  155.9260  209.3100  137.6610 C   0  0  1  0  0  3  0  0  0  0  0  0
  160.3440  212.3580  149.3080 C   0  0  2  0  0  3  0  0  0  0  0  0
  157.9180  212.7720  148.6060 C   0  0  0  0  0  1  0  0  0  0  0  0
  159.0610  213.1870  149.5160 C   0  0  0  0  0  2  0  0  0  0  0  0
  161.0800  211.9340  150.5950 C   0  0  2  0  0  3  0  0  0  0  0  0
  160.9640  209.6040  149.6190 N   0  0  0  0  0  2  0  0  0  0  0  0
  161.5600  210.5120  150.5570 C   0  0  0  0  0  0  0  0  0  0  0  0
  162.5120  210.1460  151.3010 O   0  0  0  0  0  0  0  0  0  0  0  0
  162.4130  205.5940  149.4550 C   0  0  0  0  0  2  0  0  0  0  0  0
  161.6530  207.6860  148.3080 C   0  0  0  0  0  3  0  0  0  0  0  0
  161.2500  208.2040  149.4790 C   0  0  0  0  0  0  0  0  0  0  0  0
  161.9050  206.2100  148.1430 C   0  0  2  0  0  0  0  0  0  0  0  0
  160.4980  207.7720  151.7760 F   0  0  0  0  0  0  0  0  0  0  0  0
  160.6180  205.5210  147.7200 C   0  0  0  0  0  1  0  0  0  0  0  0
  162.8630  206.0220  147.1490 O   0  0  0  0  0  1  0  0  0  0  0  0
  161.1390  207.3300  150.6660 C   0  0  0  0  0  0  0  0  0  0  0  0
  161.6400  206.0920  150.6470 C   0  0  0  0  0  3  0  0  0  0  0  0
  160.3900  212.3420  151.9080 C   0  0  1  0  0  3  0  0  0  0  0  0
  159.5640  213.6250  151.8020 C   0  0  0  0  0  1  0  0  0  0  0  0
  158.2570  211.5430  152.7030 O   0  0  0  0  0  1  0  0  0  0  0  0
  159.5950  211.1780  152.5080 C   0  0  2  0  0  3  0  0  0  0  0  0
  159.3920  209.5180  154.3940 C   0  0  0  0  0  2  0  0  0  0  0  0
  160.9550  210.5640  156.8290 C   0  0  0  0  0  2  0  0  0  0  0  0
  160.7390  211.8090  155.9940 C   0  0  0  0  0  3  0  0  0  0  0  0
  160.2140  210.6930  153.8190 C   0  0  2  0  0  3  0  0  0  0  0  0
  159.7280  209.7310  156.5990 C   0  0  2  0  0  3  0  0  0  0  0  0
  159.7370  208.3280  156.6190 O   0  0  0  0  0  0  0  0  0  0  0  0
  160.2590  208.9380  155.4700 C   0  0  1  0  0  3  0  0  0  0  0  0
  160.3870  211.8260  154.7390 N   0  0  0  0  0  0  0  0  0  0  0  0
  3  1  1  6  0  0  0
  3  2  1  0  0  0  0
  3 33  1  0  0  0  0
  4  3  1  0  0  0  0
  5  7  1  0  0  0  0
  7 11  1  0  0  0  0
  7  6  1  1  0  0  0
  8 10  1  0  0  0  0
  9 15  1  6  0  0  0
  9 12  1  0  0  0  0
 10 11  1  0  0  0  0
 11  4  1  1  0  0  0
 12  5  1  0  0  0  0
 13  9  1  0  0  0  0
 13 14  1  0  0  0  0
 14 20  1  6  0  0  0
 14  8  1  0  0  0  0
 16 15  1  0  0  0  0
 17 18  1  0  0  0  0
 17 19  1  0  0  0  0
 18 19  1  0  0  0  0
 19 16  1  1  0  0  0
 21 20  1  0  0  0  0
 22 25  1  0  0  0  0
 22 23  1  0  0  0  0
 23 24  1  0  0  0  0
 24 27  1  0  0  0  0
 25 27  1  0  0  0  0
 27 26  1  6  0  0  0
 27 21  1  0  0  0  0
 28 23  1  0  0  0  0
 31 30  1  6  0  0  0
 31 32  1  0  0  0  0
 31 29  1  0  0  0  0
 32 28  1  6  0  0  0
 32 29  1  0  0  0  0
 33 35  1  1  0  0  0
 33 36  1  0  0  0  0
 34 35  1  0  0  0  0
 36 38  1  1  0  0  0
 36 49  1  0  0  0  0
 37 38  1  0  0  0  0
 38 39  2  0  0  0  0
 40 48  1  0  0  0  0
 41 42  2  0  0  0  0
 42 37  1  0  0  0  0
 42 47  1  0  0  0  0
 43 45  1  6  0  0  0
 43 41  1  0  0  0  0
 43 40  1  0  0  0  0
 46 43  1  0  0  0  0
 47 44  1  0  0  0  0
 48 47  2  0  0  0  0
 49 50  1  6  0  0  0
 49 52  1  0  0  0  0
 52 51  1  1  0  0  0
 55 54  1  0  0  0  0
 56 52  1  6  0  0  0
 56 53  1  0  0  0  0
 56 60  1  0  0  0  0
 57 58  1  0  0  0  0
 57 54  1  1  0  0  0
 59 53  1  6  0  0  0
 59 57  1  0  0  0  0
 59 58  1  0  0  0  0
 60 55  2  0  0  0  0
M  END
>  <MODEL>
2

>  <REMARK>
 VINA RESULT:      -1.4      1.498      1.848
  Name = 
  18 active torsions:
  status: ('A' for Active; 'I' for Inactive)
    1  A    between atoms: C_9  and  N_11
    2  A    between atoms: C_19  and  C_48
    3  A    between atoms: C_19  and  C_51
    4  A    between atoms: C_25  and  C_27
    5  A    between atoms: C_25  and  C_29
    6  A    between atoms: C_26  and  C_30
    7  A    between atoms: C_29  and  C_30
    8  A    between atoms: C_30  and  C_45
    9  A    between atoms: C_32  and  C_58
   10  A    between atoms: C_34  and  C_36
   11  A    between atoms: C_36  and  C_39
   12  A    between atoms: C_37  and  C_39
   13  A    between atoms: N_40  and  C_58
   14  A    between atoms: C_42  and  O_56
   15  A    between atoms: C_42  and  C_60
   16  A    between atoms: C_45  and  C_48
   17  A    between atoms: C_45  and  C_49
   18  A    between atoms: C_50  and  O_56
                            x       y       z     vdW  Elec       q    Type
                         _______ _______ _______ _____ _____    ______ ____

>  <TORSDO>
F 18

$$$$
=
 OpenBabel11072411583D

 60 66  0  0  1  0  0  0  0  0999 V2000
  161.4820  205.7150  152.9360 C   0  0  0  0  0  1  0  0  0  0  0  0
  159.9680  207.4870  152.5290 O   0  0  0  0  0  1  0  0  0  0  0  0
  161.3020  207.2260  152.8560 C   0  0  1  0  0  0  0  0  0  0  0  0
  161.6260  207.8860  154.2060 C   0  0  0  0  0  2  0  0  0  0  0  0
  160.0050  209.4230  156.4470 O   0  0  0  0  0  0  0  0  0  0  0  0
  162.4190  209.5440  156.5150 C   0  0  0  0  0  1  0  0  0  0  0  0
  161.1440  209.8650  155.7470 C   0  0  1  0  0  3  0  0  0  0  0  0
  159.3820  210.7670  153.1270 C   0  0  0  0  0  2  0  0  0  0  0  0
  159.1530  211.7420  156.4120 C   0  0  1  0  0  3  0  0  0  0  0  0
  159.7470  209.3980  153.6900 C   0  0  0  0  0  2  0  0  0  0  0  0
  161.1460  209.3360  154.3010 C   0  0  2  0  0  3  0  0  0  0  0  0
  159.5390  210.5000  157.2290 C   0  0  0  0  0  2  0  0  0  0  0  0
  158.4300  211.4140  155.2560 O   0  0  0  0  0  0  0  0  0  0  0  0
  159.2350  211.8520  154.1930 C   0  0  2  0  0  3  0  0  0  0  0  0
  158.4130  212.7720  157.2600 C   0  0  0  0  0  2  0  0  0  0  0  0
  157.3700  213.5500  156.4680 C   0  0  0  0  0  2  0  0  0  0  0  0
  155.0600  213.4800  155.9030 O   0  0  0  0  0  0  0  0  0  0  0  0
  155.1300  214.3990  156.9660 C   0  0  0  0  0  2  0  0  0  0  0  0
  155.9740  213.1860  156.9320 C   0  0  2  0  0  3  0  0  0  0  0  0
  158.6070  213.0730  153.5420 C   0  0  0  0  0  2  0  0  0  0  0  0
  157.7780  212.6810  152.4760 O   0  0  0  0  0  0  0  0  0  0  0  0
  156.0260  213.9150  150.0630 C   0  0  0  0  0  2  0  0  0  0  0  0
  156.9340  213.1700  149.2010 N   0  0  0  0  0  0  0  0  0  0  0  0
  158.0410  212.7400  150.0530 C   0  0  0  0  0  2  0  0  0  0  0  0
  156.8160  214.4530  151.2270 C   0  0  0  0  0  2  0  0  0  0  0  0
  159.2470  214.3850  151.5210 C   0  0  0  0  0  1  0  0  0  0  0  0
  157.9960  213.5250  151.3620 C   0  0  1  0  0  0  0  0  0  0  0  0
  157.4960  214.0810  148.2090 C   0  0  0  0  0  2  0  0  0  0  0  0
  157.8460  214.1780  145.7590 C   0  0  0  0  0  2  0  0  0  0  0  0
  158.4160  212.0480  146.6690 O   0  0  0  0  0  1  0  0  0  0  0  0
  157.4010  212.7470  146.0040 C   0  0  1  0  0  3  0  0  0  0  0  0
  156.8290  213.8930  146.8440 C   0  0  1  0  0  3  0  0  0  0  0  0
  162.2030  207.7940  151.7370 C   0  0  2  0  0  3  0  0  0  0  0  0
  162.5330  210.3070  151.3850 C   0  0  0  0  0  1  0  0  0  0  0  0
  163.0320  209.0500  152.0740 C   0  0  0  0  0  2  0  0  0  0  0  0
  161.5720  207.7680  150.3310 C   0  0  2  0  0  3  0  0  0  0  0  0
  161.9010  205.5360  149.1890 N   0  0  0  0  0  2  0  0  0  0  0  0
  161.0530  206.4140  149.9430 C   0  0  0  0  0  0  0  0  0  0  0  0
  159.9110  206.0400  150.3280 O   0  0  0  0  0  0  0  0  0  0  0  0
  160.3830  201.9880  147.3700 C   0  0  0  0  0  2  0  0  0  0  0  0
  160.8330  203.3730  149.4070 C   0  0  0  0  0  3  0  0  0  0  0  0
  161.5590  204.2370  148.6810 C   0  0  0  0  0  0  0  0  0  0  0  0
  160.5140  201.9910  148.9000 C   0  0  2  0  0  0  0  0  0  0  0  0
  162.9190  204.6110  146.6720 F   0  0  0  0  0  0  0  0  0  0  0  0
  161.6150  201.0310  149.3200 C   0  0  0  0  0  1  0  0  0  0  0  0
  159.3110  201.5670  149.4620 O   0  0  0  0  0  1  0  0  0  0  0  0
  161.9820  203.8700  147.3140 C   0  0  0  0  0  0  0  0  0  0  0  0
  161.4710  202.7940  146.7100 C   0  0  0  0  0  3  0  0  0  0  0  0
  162.3830  208.4810  149.2360 C   0  0  1  0  0  3  0  0  0  0  0  0
  163.2010  207.5360  148.3550 C   0  0  0  0  0  1  0  0  0  0  0  0
  161.4660  209.0410  147.0760 O   0  0  0  0  0  1  0  0  0  0  0  0
  161.5050  209.4350  148.4190 C   0  0  2  0  0  3  0  0  0  0  0  0
  160.8970  211.8480  148.0210 C   0  0  0  0  0  2  0  0  0  0  0  0
  163.4720  213.5290  147.9060 C   0  0  0  0  0  2  0  0  0  0  0  0
  163.9650  212.1210  147.6490 C   0  0  0  0  0  3  0  0  0  0  0  0
  161.9850  210.8810  148.5400 C   0  0  2  0  0  3  0  0  0  0  0  0
  162.1100  213.5780  147.2760 C   0  0  2  0  0  3  0  0  0  0  0  0
  161.0660  214.3760  147.7670 O   0  0  0  0  0  0  0  0  0  0  0  0
  161.3420  213.2030  148.4820 C   0  0  1  0  0  3  0  0  0  0  0  0
  163.2950  211.0280  147.8900 N   0  0  0  0  0  0  0  0  0  0  0  0
  2  3  1  0  0  0  0
  3  1  1  1  0  0  0
  3  4  1  0  0  0  0
  5 12  1  0  0  0  0
  7  5  1  0  0  0  0
  7  6  1  1  0  0  0
  8 10  1  0  0  0  0
  8 14  1  0  0  0  0
  9 12  1  0  0  0  0
  9 15  1  1  0  0  0
 10 11  1  0  0  0  0
 11  4  1  1  0  0  0
 11  7  1  0  0  0  0
 13  9  1  0  0  0  0
 14 20  1  6  0  0  0
 14 13  1  0  0  0  0
 16 15  1  0  0  0  0
 17 19  1  0  0  0  0
 17 18  1  0  0  0  0
 19 16  1  6  0  0  0
 19 18  1  0  0  0  0
 21 20  1  0  0  0  0
 22 25  1  0  0  0  0
 23 24  1  0  0  0  0
 23 22  1  0  0  0  0
 24 27  1  0  0  0  0
 25 27  1  0  0  0  0
 27 26  1  1  0  0  0
 27 21  1  0  0  0  0
 28 23  1  0  0  0  0
 29 31  1  0  0  0  0
 29 32  1  0  0  0  0
 31 30  1  1  0  0  0
 31 32  1  0  0  0  0
 32 28  1  1  0  0  0
 33 35  1  1  0  0  0
 33  3  1  0  0  0  0
 34 35  1  0  0  0  0
 36 38  1  6  0  0  0
 36 33  1  0  0  0  0
 37 38  1  0  0  0  0
 38 39  2  0  0  0  0
 40 43  1  0  0  0  0
 42 37  1  0  0  0  0
 42 41  2  0  0  0  0
 43 45  1  1  0  0  0
 43 41  1  0  0  0  0
 43 46  1  0  0  0  0
 44 47  1  0  0  0  0
 47 42  1  0  0  0  0
 48 47  2  0  0  0  0
 48 40  1  0  0  0  0
 49 50  1  6  0  0  0
 49 36  1  0  0  0  0
 52 51  1  6  0  0  0
 52 49  1  0  0  0  0
 53 56  1  0  0  0  0
 55 60  2  0  0  0  0
 55 54  1  0  0  0  0
 56 52  1  6  0  0  0
 57 58  1  0  0  0  0
 57 54  1  1  0  0  0
 57 59  1  0  0  0  0
 58 59  1  0  0  0  0
 59 53  1  6  0  0  0
 60 56  1  0  0  0  0
M  END
>  <MODEL>
3

>  <REMARK>
 VINA RESULT:      -1.3      5.139     10.401
  Name = 
  18 active torsions:
  status: ('A' for Active; 'I' for Inactive)
    1  A    between atoms: C_9  and  N_11
    2  A    between atoms: C_19  and  C_48
    3  A    between atoms: C_19  and  C_51
    4  A    between atoms: C_25  and  C_27
    5  A    between atoms: C_25  and  C_29
    6  A    between atoms: C_26  and  C_30
    7  A    between atoms: C_29  and  C_30
    8  A    between atoms: C_30  and  C_45
    9  A    between atoms: C_32  and  C_58
   10  A    between atoms: C_34  and  C_36
   11  A    between atoms: C_36  and  C_39
   12  A    between atoms: C_37  and  C_39
   13  A    between atoms: N_40  and  C_58
   14  A    between atoms: C_42  and  O_56
   15  A    between atoms: C_42  and  C_60
   16  A    between atoms: C_45  and  C_48
   17  A    between atoms: C_45  and  C_49
   18  A    between atoms: C_50  and  O_56
                            x       y       z     vdW  Elec       q    Type
                         _______ _______ _______ _____ _____    ______ ____

>  <TORSDO>
F 18

$$$$
=
 OpenBabel11072411583D

 60 66  0  0  1  0  0  0  0  0999 V2000
  160.9680  208.3020  155.2640 C   0  0  0  0  0  1  0  0  0  0  0  0
  162.7950  209.3000  154.1380 O   0  0  0  0  0  1  0  0  0  0  0  0
  161.4000  209.3310  154.2250 C   0  0  1  0  0  0  0  0  0  0  0  0
  160.8040  208.9970  152.8480 C   0  0  0  0  0  2  0  0  0  0  0  0
  161.0060  208.1440  149.8070 O   0  0  0  0  0  0  0  0  0  0  0  0
  162.8070  209.4660  150.7320 C   0  0  0  0  0  1  0  0  0  0  0  0
  162.0320  208.1560  150.7720 C   0  0  1  0  0  3  0  0  0  0  0  0
  161.0830  205.2840  152.0490 C   0  0  0  0  0  2  0  0  0  0  0  0
  162.0100  206.1020  148.8450 C   0  0  1  0  0  3  0  0  0  0  0  0
  160.4600  206.6750  152.0900 C   0  0  0  0  0  2  0  0  0  0  0  0
  161.4840  207.8060  152.1670 C   0  0  2  0  0  3  0  0  0  0  0  0
  161.5220  207.5440  148.6400 C   0  0  0  0  0  2  0  0  0  0  0  0
  161.1260  205.3480  149.6300 O   0  0  0  0  0  0  0  0  0  0  0  0
  161.8670  204.9960  150.7690 C   0  0  2  0  0  3  0  0  0  0  0  0
  162.3090  205.4100  147.5190 C   0  0  0  0  0  2  0  0  0  0  0  0
  161.1600  205.5180  146.5250 C   0  0  0  0  0  2  0  0  0  0  0  0
  160.6300  205.8780  144.2340 O   0  0  0  0  0  0  0  0  0  0  0  0
  161.0270  204.5290  144.2910 C   0  0  0  0  0  2  0  0  0  0  0  0
  161.6900  205.5690  145.1070 C   0  0  2  0  0  3  0  0  0  0  0  0
  162.1900  203.5120  150.7350 C   0  0  0  0  0  2  0  0  0  0  0  0
  161.0420  202.7600  151.0430 O   0  0  0  0  0  0  0  0  0  0  0  0
  161.0500  202.3950  147.8370 C   0  0  0  0  0  2  0  0  0  0  0  0
  159.6860  201.9150  148.0230 N   0  0  0  0  0  0  0  0  0  0  0  0
  159.5250  201.6970  149.4580 C   0  0  0  0  0  2  0  0  0  0  0  0
  161.8820  201.9100  148.9950 C   0  0  0  0  0  2  0  0  0  0  0  0
  161.2030  200.3390  150.7470 C   0  0  0  0  0  1  0  0  0  0  0  0
  160.9020  201.6980  150.1200 C   0  0  1  0  0  0  0  0  0  0  0  0
  159.5540  200.6120  147.3810 C   0  0  0  0  0  2  0  0  0  0  0  0
  160.3740  199.4400  145.3590 C   0  0  0  0  0  2  0  0  0  0  0  0
  159.6780  201.6730  144.8890 O   0  0  0  0  0  1  0  0  0  0  0  0
  160.8040  200.8800  145.1420 C   0  0  1  0  0  3  0  0  0  0  0  0
  160.7940  200.2760  146.5490 C   0  0  1  0  0  3  0  0  0  0  0  0
  160.9660  210.7400  154.6840 C   0  0  2  0  0  3  0  0  0  0  0  0
  162.8090  210.4690  156.4390 C   0  0  0  0  0  1  0  0  0  0  0  0
  161.6320  211.2990  155.9570 C   0  0  0  0  0  2  0  0  0  0  0  0
  159.4570  211.0240  154.5410 C   0  0  2  0  0  3  0  0  0  0  0  0
  160.1650  212.1350  152.3830 N   0  0  0  0  0  2  0  0  0  0  0  0
  159.1060  211.7050  153.2500 C   0  0  0  0  0  0  0  0  0  0  0  0
  157.8970  211.8410  152.9150 O   0  0  0  0  0  0  0  0  0  0  0  0
  159.2230  213.8650  148.5970 C   0  0  0  0  0  2  0  0  0  0  0  0
  160.7460  212.5210  150.0630 C   0  0  0  0  0  3  0  0  0  0  0  0
  160.0250  212.8500  151.1460 C   0  0  0  0  0  0  0  0  0  0  0  0
  160.6390  213.3000  148.7780 C   0  0  2  0  0  0  0  0  0  0  0  0
  158.4860  214.4520  152.1900 F   0  0  0  0  0  0  0  0  0  0  0  0
  161.6450  214.4400  148.7920 C   0  0  0  0  0  1  0  0  0  0  0  0
  160.9340  212.4560  147.7090 O   0  0  0  0  0  1  0  0  0  0  0  0
  159.0310  213.9410  151.0590 C   0  0  0  0  0  0  0  0  0  0  0  0
  158.6850  214.4520  149.8750 C   0  0  0  0  0  3  0  0  0  0  0  0
  158.7830  211.6250  155.7860 C   0  0  1  0  0  3  0  0  0  0  0  0
  159.3090  211.0630  157.1080 C   0  0  0  0  0  1  0  0  0  0  0  0
  159.5600  213.6670  156.8110 O   0  0  0  0  0  1  0  0  0  0  0  0
  158.8030  213.1570  155.7490 C   0  0  2  0  0  3  0  0  0  0  0  0
  156.5170  212.9680  156.7930 C   0  0  0  0  0  2  0  0  0  0  0  0
  154.4530  214.3150  154.9510 C   0  0  0  0  0  2  0  0  0  0  0  0
  155.6270  214.0580  154.0290 C   0  0  0  0  0  3  0  0  0  0  0  0
  157.3880  213.7360  155.7740 C   0  0  2  0  0  3  0  0  0  0  0  0
  154.4650  213.1650  155.9150 C   0  0  2  0  0  3  0  0  0  0  0  0
  154.0290  213.2720  157.2440 O   0  0  0  0  0  0  0  0  0  0  0  0
  155.2900  213.8130  156.9570 C   0  0  1  0  0  3  0  0  0  0  0  0
  156.8410  213.7760  154.4100 N   0  0  0  0  0  0  0  0  0  0  0  0
  2  3  1  0  0  0  0
  3 33  1  0  0  0  0
  3  1  1  1  0  0  0
  4  3  1  0  0  0  0
  5  7  1  0  0  0  0
  7  6  1  1  0  0  0
  7 11  1  0  0  0  0
  8 10  1  0  0  0  0
  9 15  1  6  0  0  0
  9 13  1  0  0  0  0
 10 11  1  0  0  0  0
 11  4  1  6  0  0  0
 12  9  1  0  0  0  0
 12  5  1  0  0  0  0
 13 14  1  0  0  0  0
 14 20  1  6  0  0  0
 14  8  1  0  0  0  0
 16 15  1  0  0  0  0
 17 18  1  0  0  0  0
 17 19  1  0  0  0  0
 18 19  1  0  0  0  0
 19 16  1  1  0  0  0
 20 21  1  0  0  0  0
 22 23  1  0  0  0  0
 22 25  1  0  0  0  0
 23 24  1  0  0  0  0
 24 27  1  0  0  0  0
 25 27  1  0  0  0  0
 27 26  1  1  0  0  0
 27 21  1  0  0  0  0
 28 23  1  0  0  0  0
 29 32  1  0  0  0  0
 31 30  1  1  0  0  0
 31 29  1  0  0  0  0
 31 32  1  0  0  0  0
 32 28  1  1  0  0  0
 33 35  1  1  0  0  0
 35 34  1  0  0  0  0
 36 38  1  6  0  0  0
 36 33  1  0  0  0  0
 36 49  1  0  0  0  0
 37 38  1  0  0  0  0
 39 38  2  0  0  0  0
 40 43  1  0  0  0  0
 40 48  1  0  0  0  0
 41 42  2  0  0  0  0
 42 37  1  0  0  0  0
 43 45  1  1  0  0  0
 43 41  1  0  0  0  0
 46 43  1  0  0  0  0
 47 42  1  0  0  0  0
 47 44  1  0  0  0  0
 48 47  2  0  0  0  0
 49 50  1  1  0  0  0
 52 49  1  0  0  0  0
 52 51  1  1  0  0  0
 55 60  2  0  0  0  0
 55 54  1  0  0  0  0
 56 52  1  6  0  0  0
 56 53  1  0  0  0  0
 57 54  1  6  0  0  0
 57 59  1  0  0  0  0
 57 58  1  0  0  0  0
 59 53  1  1  0  0  0
 59 58  1  0  0  0  0
 60 56  1  0  0  0  0
M  END
>  <MODEL>
4

>  <REMARK>
 VINA RESULT:      -1.1      5.966      9.320
  Name = 
  18 active torsions:
  status: ('A' for Active; 'I' for Inactive)
    1  A    between atoms: C_9  and  N_11
    2  A    between atoms: C_19  and  C_48
    3  A    between atoms: C_19  and  C_51
    4  A    between atoms: C_25  and  C_27
    5  A    between atoms: C_25  and  C_29
    6  A    between atoms: C_26  and  C_30
    7  A    between atoms: C_29  and  C_30
    8  A    between atoms: C_30  and  C_45
    9  A    between atoms: C_32  and  C_58
   10  A    between atoms: C_34  and  C_36
   11  A    between atoms: C_36  and  C_39
   12  A    between atoms: C_37  and  C_39
   13  A    between atoms: N_40  and  C_58
   14  A    between atoms: C_42  and  O_56
   15  A    between atoms: C_42  and  C_60
   16  A    between atoms: C_45  and  C_48
   17  A    between atoms: C_45  and  C_49
   18  A    between atoms: C_50  and  O_56
                            x       y       z     vdW  Elec       q    Type
                         _______ _______ _______ _____ _____    ______ ____

>  <TORSDO>
F 18

$$$$
