=
 OpenBabel11072415243D

 25 28  0  0  1  0  0  0  0  0999 V2000
  162.0890  209.2620  150.6630 C   0  0  0  0  0  0  0  0  0  0  0  0
  162.0450  210.2060  149.6090 N   0  0  0  0  0  0  0  0  0  0  0  0
  162.5100  206.0030  151.6070 C   0  0  0  0  0  2  0  0  0  0  0  0
  161.5090  206.9920  151.0130 C   0  0  2  0  0  3  0  0  0  0  0  0
  161.9460  205.3470  152.8750 C   0  0  1  0  0  3  0  0  0  0  0  0
  162.1300  208.1330  148.8020 C   0  0  0  0  0  0  0  0  0  0  0  0
  162.2000  207.9560  150.1180 C   0  0  1  0  0  3  0  0  0  0  0  0
  160.5700  207.4170  153.3590 C   0  0  0  0  0  2  0  0  0  0  0  0
  161.3440  209.2560  151.7530 C   0  0  0  0  0  2  0  0  0  0  0  0
  161.0420  207.8930  152.0690 N   0  0  1  0  0  0  0  0  0  0  0  0
  162.0890  209.5420  148.5200 N   0  0  0  0  0  0  0  0  0  0  0  0
  161.5730  206.4070  153.9190 C   0  0  0  0  0  2  0  0  0  0  0  0
  162.8030  206.0680  147.5880 C   0  0  0  0  0  3  0  0  0  0  0  0
  161.3870  205.0850  145.8880 C   0  0  0  0  0  0  0  0  0  0  0  0
  160.6840  207.0970  147.0350 C   0  0  0  0  0  3  0  0  0  0  0  0
  161.1330  204.0230  144.8790 C   0  0  0  0  0  1  0  0  0  0  0  0
  162.5650  205.0690  146.6390 C   0  0  0  0  0  3  0  0  0  0  0  0
  160.4450  206.0990  146.0870 C   0  0  0  0  0  3  0  0  0  0  0  0
  161.8680  207.0920  147.7900 C   0  0  0  0  0  0  0  0  0  0  0  0
  160.8320  204.5590  152.5670 O   0  0  0  0  0  0  0  0  0  0  0  0
  161.3540  203.4100  151.9670 C   0  0  0  0  0  2  0  0  0  0  0  0
  160.4450  202.9470  150.8370 C   0  0  0  0  0  2  0  0  0  0  0  0
  160.3690  204.6700  149.1790 F   0  0  0  0  0  0  0  0  0  0  0  0
  160.9220  203.4380  149.4760 C   0  0  0  0  0  3  0  0  0  0  0  0
  160.6060  202.5260  148.4860 F   0  0  0  0  0  0  0  0  0  0  0  0
  1  9  1  0  0  0  0
  2  1  2  0  0  0  0
  3  5  1  0  0  0  0
  4  3  1  1  0  0  0
  4 10  1  0  0  0  0
  5 20  1  6  0  0  0
  5 12  1  0  0  0  0
  7  6  1  6  0  0  0
  7  1  1  0  0  0  0
  7  4  1  0  0  0  0
  8 12  1  0  0  0  0
 10  9  1  1  0  0  0
 10  8  1  0  0  0  0
 11  6  2  0  0  0  0
 11  2  1  0  0  0  0
 13 19  1  0  0  0  0
 14 18  2  0  0  0  0
 14 17  1  0  0  0  0
 15 19  2  0  0  0  0
 16 14  1  0  0  0  0
 17 13  2  0  0  0  0
 18 15  1  0  0  0  0
 19  6  1  0  0  0  0
 21 20  1  0  0  0  0
 22 21  1  0  0  0  0
 23 24  1  0  0  0  0
 24 22  1  0  0  0  0
 25 24  1  0  0  0  0
M  END
>  <MODEL>
1

>  <REMARK>
 VINA RESULT:      -7.8      0.000      0.000
  Name = 
  5 active torsions:
  status: ('A' for Active; 'I' for Inactive)
    1  A    between atoms: C_5  and  O_17
    2  A    between atoms: C_6  and  C_22
    3  A    between atoms: C_12  and  C_19
    4  A    between atoms: C_12  and  C_21
    5  A    between atoms: O_17  and  C_19
                            x       y       z     vdW  Elec       q    Type
                         _______ _______ _______ _____ _____    ______ ____

>  <TORSDO>
F 5

$$$$
=
 OpenBabel11072415243D

 25 28  0  0  1  0  0  0  0  0999 V2000
  160.9810  205.4900  152.0980 C   0  0  0  0  0  0  0  0  0  0  0  0
  160.9370  204.4120  153.0150 N   0  0  0  0  0  2  0  0  0  0  0  0
  160.6110  206.5540  148.8700 C   0  0  0  0  0  2  0  0  0  0  0  0
  161.5630  205.8430  149.8290 C   0  0  2  0  0  3  0  0  0  0  0  0
  161.2850  207.7800  148.2370 C   0  0  1  0  0  3  0  0  0  0  0  0
  160.7500  203.6710  150.9230 C   0  0  0  0  0  0  0  0  0  0  0  0
  160.8030  204.9910  150.7800 C   0  0  0  0  0  0  0  0  0  0  0  0
  162.7260  208.0780  150.2980 C   0  0  0  0  0  2  0  0  0  0  0  0
  161.8250  206.5040  152.1080 C   0  0  0  0  0  2  0  0  0  0  0  0
  162.1390  206.8260  150.7490 N   0  0  1  0  0  0  0  0  0  0  0  0
  160.7820  203.3490  152.3240 N   0  0  0  0  0  0  0  0  0  0  0  0
  161.7670  208.7560  149.3170 C   0  0  0  0  0  2  0  0  0  0  0  0
  160.8830  203.0700  148.5120 C   0  0  0  0  0  3  0  0  0  0  0  0
  161.2140  200.7810  147.7980 C   0  0  0  0  0  0  0  0  0  0  0  0
  161.0880  201.3070  150.1570 C   0  0  0  0  0  3  0  0  0  0  0  0
  161.3770  199.7820  146.7090 C   0  0  0  0  0  1  0  0  0  0  0  0
  161.0370  202.1320  147.4880 C   0  0  0  0  0  3  0  0  0  0  0  0
  161.2410  200.3680  149.1330 C   0  0  0  0  0  3  0  0  0  0  0  0
  160.9030  202.6660  149.8540 C   0  0  0  0  0  0  0  0  0  0  0  0
  162.3540  207.3890  147.4250 O   0  0  0  0  0  0  0  0  0  0  0  0
  162.0660  206.0720  147.0540 C   0  0  0  0  0  2  0  0  0  0  0  0
  162.2900  205.8870  145.5590 C   0  0  0  0  0  2  0  0  0  0  0  0
  159.9310  206.2400  145.3690 F   0  0  0  0  0  0  0  0  0  0  0  0
  160.9990  205.5540  144.8210 C   0  0  0  0  0  3  0  0  0  0  0  0
  160.7540  204.1930  144.8520 F   0  0  0  0  0  0  0  0  0  0  0  0
  1  9  1  0  0  0  0
  1  2  1  0  0  0  0
  4  3  1  6  0  0  0
  4 10  1  0  0  0  0
  4  7  1  0  0  0  0
  5 20  1  1  0  0  0
  5  3  1  0  0  0  0
  5 12  1  0  0  0  0
  6 11  2  0  0  0  0
  7  6  1  0  0  0  0
  7  1  2  0  0  0  0
 10  8  1  6  0  0  0
 10  9  1  0  0  0  0
 11  2  1  0  0  0  0
 12  8  1  0  0  0  0
 13 19  1  0  0  0  0
 14 18  2  0  0  0  0
 16 14  1  0  0  0  0
 17 14  1  0  0  0  0
 17 13  2  0  0  0  0
 18 15  1  0  0  0  0
 19 15  2  0  0  0  0
 19  6  1  0  0  0  0
 21 20  1  0  0  0  0
 22 21  1  0  0  0  0
 24 25  1  0  0  0  0
 24 23  1  0  0  0  0
 24 22  1  0  0  0  0
M  END
>  <MODEL>
2

>  <REMARK>
 VINA RESULT:      -7.6      2.674      4.893
  Name = 
  5 active torsions:
  status: ('A' for Active; 'I' for Inactive)
    1  A    between atoms: C_5  and  O_17
    2  A    between atoms: C_6  and  C_22
    3  A    between atoms: C_12  and  C_19
    4  A    between atoms: C_12  and  C_21
    5  A    between atoms: O_17  and  C_19
                            x       y       z     vdW  Elec       q    Type
                         _______ _______ _______ _____ _____    ______ ____

>  <TORSDO>
F 5

$$$$
=
 OpenBabel11072415243D

 25 28  0  0  1  0  0  0  0  0999 V2000
  161.8870  208.9310  149.0450 C   0  0  0  0  0  0  0  0  0  0  0  0
  162.2100  210.1860  149.6150 N   0  0  0  0  0  0  0  0  0  0  0  0
  160.3480  205.9010  149.4160 C   0  0  0  0  0  2  0  0  0  0  0  0
  161.6040  206.6940  149.7710 C   0  0  2  0  0  3  0  0  0  0  0  0
  160.7100  204.6040  148.6760 C   0  0  1  0  0  3  0  0  0  0  0  0
  161.3080  208.8400  151.1420 C   0  0  0  0  0  0  0  0  0  0  0  0
  161.2630  208.1170  150.0280 C   0  0  1  0  0  3  0  0  0  0  0  0
  162.7850  205.7010  147.7250 C   0  0  0  0  0  2  0  0  0  0  0  0
  162.6460  208.2050  148.2450 C   0  0  0  0  0  2  0  0  0  0  0  0
  162.4400  206.8280  148.5760 N   0  0  1  0  0  0  0  0  0  0  0  0
  161.8510  210.1370  150.8390 N   0  0  0  0  0  0  0  0  0  0  0  0
  161.5170  204.9060  147.4070 C   0  0  0  0  0  2  0  0  0  0  0  0
  160.8080  209.2560  153.5440 C   0  0  0  0  0  3  0  0  0  0  0  0
  160.6720  207.4390  155.1380 C   0  0  0  0  0  0  0  0  0  0  0  0
  161.1660  206.9770  152.8140 C   0  0  0  0  0  3  0  0  0  0  0  0
  160.4480  206.9580  156.5260 C   0  0  0  0  0  1  0  0  0  0  0  0
  160.5970  208.8040  154.8500 C   0  0  0  0  0  3  0  0  0  0  0  0
  160.9550  206.5240  154.1190 C   0  0  0  0  0  3  0  0  0  0  0  0
  161.0990  208.3470  152.5170 C   0  0  0  0  0  0  0  0  0  0  0  0
  161.4290  203.7450  149.5140 O   0  0  0  0  0  0  0  0  0  0  0  0
  160.4770  202.8630  150.0330 C   0  0  0  0  0  2  0  0  0  0  0  0
  160.8680  201.4250  149.7220 C   0  0  0  0  0  2  0  0  0  0  0  0
  160.1910  201.6110  147.4340 F   0  0  0  0  0  0  0  0  0  0  0  0
  161.2380  201.2340  148.2560 C   0  0  0  0  0  3  0  0  0  0  0  0
  161.5870  199.9200  148.0050 F   0  0  0  0  0  0  0  0  0  0  0  0
  1  2  2  0  0  0  0
  2 11  1  0  0  0  0
  4  3  1  6  0  0  0
  4  7  1  0  0  0  0
  5  3  1  0  0  0  0
  5 20  1  1  0  0  0
  6 19  1  0  0  0  0
  7  1  1  6  0  0  0
  7  6  1  0  0  0  0
  9 10  1  0  0  0  0
  9  1  1  0  0  0  0
 10  8  1  6  0  0  0
 10  4  1  0  0  0  0
 11  6  2  0  0  0  0
 12  8  1  0  0  0  0
 12  5  1  0  0  0  0
 13 17  1  0  0  0  0
 14 16  1  0  0  0  0
 15 18  2  0  0  0  0
 17 14  2  0  0  0  0
 18 14  1  0  0  0  0
 19 15  1  0  0  0  0
 19 13  2  0  0  0  0
 20 21  1  0  0  0  0
 22 21  1  0  0  0  0
 23 24  1  0  0  0  0
 24 22  1  0  0  0  0
 25 24  1  0  0  0  0
M  END
>  <MODEL>
3

>  <REMARK>
 VINA RESULT:      -7.2      1.755      5.298
  Name = 
  5 active torsions:
  status: ('A' for Active; 'I' for Inactive)
    1  A    between atoms: C_5  and  O_17
    2  A    between atoms: C_6  and  C_22
    3  A    between atoms: C_12  and  C_19
    4  A    between atoms: C_12  and  C_21
    5  A    between atoms: O_17  and  C_19
                            x       y       z     vdW  Elec       q    Type
                         _______ _______ _______ _____ _____    ______ ____

>  <TORSDO>
F 5

$$$$
=
 OpenBabel11072415243D

 25 28  0  0  1  0  0  0  0  0999 V2000
  160.8170  203.4730  151.1230 C   0  0  0  0  0  0  0  0  0  0  0  0
  160.8040  202.1650  150.5820 N   0  0  0  0  0  2  0  0  0  0  0  0
  160.5440  206.8350  150.5610 C   0  0  0  0  0  2  0  0  0  0  0  0
  161.4940  205.6430  150.4550 C   0  0  2  0  0  3  0  0  0  0  0  0
  161.1580  207.9500  151.4200 C   0  0  1  0  0  3  0  0  0  0  0  0
  160.7870  203.6860  148.9560 C   0  0  0  0  0  0  0  0  0  0  0  0
  160.7480  204.4180  150.0650 C   0  0  0  0  0  0  0  0  0  0  0  0
  162.4590  206.2350  152.7540 C   0  0  0  0  0  2  0  0  0  0  0  0
  161.5820  203.9180  152.1030 C   0  0  0  0  0  2  0  0  0  0  0  0
  161.9440  205.2690  151.7970 N   0  0  1  0  0  0  0  0  0  0  0  0
  160.7660  202.2930  149.3120 N   0  0  0  0  0  0  0  0  0  0  0  0
  161.5070  207.4310  152.8200 C   0  0  0  0  0  2  0  0  0  0  0  0
  161.2360  203.2550  146.5480 C   0  0  0  0  0  3  0  0  0  0  0  0
  161.5910  205.0690  144.9840 C   0  0  0  0  0  0  0  0  0  0  0  0
  161.1630  205.5470  147.3180 C   0  0  0  0  0  3  0  0  0  0  0  0
  161.8690  205.5430  143.6030 C   0  0  0  0  0  1  0  0  0  0  0  0
  161.4970  203.7000  145.2480 C   0  0  0  0  0  3  0  0  0  0  0  0
  161.4230  205.9930  146.0190 C   0  0  0  0  0  3  0  0  0  0  0  0
  161.0720  204.1730  147.5930 C   0  0  0  0  0  0  0  0  0  0  0  0
  162.2970  208.4760  150.8010 O   0  0  0  0  0  0  0  0  0  0  0  0
  161.9350  209.7690  150.4140 C   0  0  0  0  0  2  0  0  0  0  0  0
  162.0960  209.9310  148.9090 C   0  0  0  0  0  2  0  0  0  0  0  0
  161.0390  211.5940  147.5510 F   0  0  0  0  0  0  0  0  0  0  0  0
  162.0440  211.3920  148.4780 C   0  0  0  0  0  3  0  0  0  0  0  0
  163.2600  211.7920  147.9550 F   0  0  0  0  0  0  0  0  0  0  0  0
  1  9  1  0  0  0  0
  2  1  1  0  0  0  0
  3  5  1  0  0  0  0
  4  3  1  1  0  0  0
  4 10  1  0  0  0  0
  5 20  1  6  0  0  0
  5 12  1  0  0  0  0
  6 11  2  0  0  0  0
  6  7  1  0  0  0  0
  7  4  1  0  0  0  0
  7  1  2  0  0  0  0
  8 12  1  0  0  0  0
 10  9  1  1  0  0  0
 10  8  1  0  0  0  0
 11  2  1  0  0  0  0
 13 19  1  0  0  0  0
 14 17  1  0  0  0  0
 14 18  2  0  0  0  0
 15 19  2  0  0  0  0
 16 14  1  0  0  0  0
 17 13  2  0  0  0  0
 18 15  1  0  0  0  0
 19  6  1  0  0  0  0
 21 20  1  0  0  0  0
 22 21  1  0  0  0  0
 23 24  1  0  0  0  0
 24 22  1  0  0  0  0
 25 24  1  0  0  0  0
M  END
>  <MODEL>
4

>  <REMARK>
 VINA RESULT:      -6.8      3.177      4.973
  Name = 
  5 active torsions:
  status: ('A' for Active; 'I' for Inactive)
    1  A    between atoms: C_5  and  O_17
    2  A    between atoms: C_6  and  C_22
    3  A    between atoms: C_12  and  C_19
    4  A    between atoms: C_12  and  C_21
    5  A    between atoms: O_17  and  C_19
                            x       y       z     vdW  Elec       q    Type
                         _______ _______ _______ _____ _____    ______ ____

>  <TORSDO>
F 5

$$$$
=
 OpenBabel11072415243D

 25 28  0  0  1  0  0  0  0  0999 V2000
  161.4180  204.4830  150.9720 C   0  0  0  0  0  0  0  0  0  0  0  0
  160.9660  203.6960  152.0600 N   0  0  0  0  0  2  0  0  0  0  0  0
  162.6260  207.4920  149.8890 C   0  0  0  0  0  2  0  0  0  0  0  0
  161.3540  206.7550  150.3030 C   0  0  2  0  0  3  0  0  0  0  0  0
  162.4900  208.0660  148.4710 C   0  0  1  0  0  3  0  0  0  0  0  0
  161.2440  205.8150  152.6860 C   0  0  0  0  0  0  0  0  0  0  0  0
  161.6390  205.8130  151.4170 C   0  0  0  0  0  0  0  0  0  0  0  0
  160.9050  206.1940  147.8430 C   0  0  0  0  0  2  0  0  0  0  0  0
  160.9510  204.4700  149.7380 C   0  0  0  0  0  2  0  0  0  0  0  0
  160.9810  205.8140  149.2440 N   0  0  1  0  0  0  0  0  0  0  0  0
  160.8840  204.4760  153.0670 N   0  0  0  0  0  0  0  0  0  0  0  0
  162.1750  206.9560  147.4610 C   0  0  0  0  0  2  0  0  0  0  0  0
  160.5440  206.8380  154.8430 C   0  0  0  0  0  3  0  0  0  0  0  0
  160.4190  209.2400  155.1200 C   0  0  0  0  0  0  0  0  0  0  0  0
  161.1010  208.2990  152.9970 C   0  0  0  0  0  3  0  0  0  0  0  0
  160.1330  210.4250  155.9700 C   0  0  0  0  0  1  0  0  0  0  0  0
  160.2760  207.9520  155.6440 C   0  0  0  0  0  3  0  0  0  0  0  0
  160.8330  209.4140  153.7960 C   0  0  0  0  0  3  0  0  0  0  0  0
  160.9540  207.0020  153.5130 C   0  0  0  0  0  0  0  0  0  0  0  0
  161.4980  209.0510  148.4330 O   0  0  0  0  0  0  0  0  0  0  0  0
  162.1540  210.2410  148.7610 C   0  0  0  0  0  2  0  0  0  0  0  0
  161.4830  211.4190  148.0690 C   0  0  0  0  0  2  0  0  0  0  0  0
  163.7720  212.0660  147.8080 F   0  0  0  0  0  0  0  0  0  0  0  0
  162.4710  212.5310  147.7370 C   0  0  0  0  0  3  0  0  0  0  0  0
  162.3050  213.6060  148.5890 F   0  0  0  0  0  0  0  0  0  0  0  0
  1  7  2  0  0  0  0
  1  2  1  0  0  0  0
  2 11  1  0  0  0  0
  4  3  1  6  0  0  0
  4  7  1  0  0  0  0
  5 20  1  1  0  0  0
  5  3  1  0  0  0  0
  6 11  2  0  0  0  0
  6 19  1  0  0  0  0
  7  6  1  0  0  0  0
  9  1  1  0  0  0  0
 10  8  1  6  0  0  0
 10  9  1  0  0  0  0
 10  4  1  0  0  0  0
 12  8  1  0  0  0  0
 12  5  1  0  0  0  0
 13 17  1  0  0  0  0
 14 17  2  0  0  0  0
 14 16  1  0  0  0  0
 15 19  1  0  0  0  0
 15 18  2  0  0  0  0
 18 14  1  0  0  0  0
 19 13  2  0  0  0  0
 20 21  1  0  0  0  0
 22 21  1  0  0  0  0
 24 23  1  0  0  0  0
 24 22  1  0  0  0  0
 24 25  1  0  0  0  0
M  END
>  <MODEL>
5

>  <REMARK>
 VINA RESULT:      -6.7      3.532      7.255
  Name = 
  5 active torsions:
  status: ('A' for Active; 'I' for Inactive)
    1  A    between atoms: C_5  and  O_17
    2  A    between atoms: C_6  and  C_22
    3  A    between atoms: C_12  and  C_19
    4  A    between atoms: C_12  and  C_21
    5  A    between atoms: O_17  and  C_19
                            x       y       z     vdW  Elec       q    Type
                         _______ _______ _______ _____ _____    ______ ____

>  <TORSDO>
F 5

$$$$
=
 OpenBabel11072415243D

 25 28  0  0  1  0  0  0  0  0999 V2000
  161.8780  210.5710  150.3570 C   0  0  0  0  0  0  0  0  0  0  0  0
  162.1220  210.1700  149.0210 N   0  0  0  0  0  0  0  0  0  0  0  0
  161.6680  209.6730  153.6490 C   0  0  0  0  0  2  0  0  0  0  0  0
  160.9180  209.6520  152.3180 C   0  0  2  0  0  3  0  0  0  0  0  0
  160.8430  210.3850  154.7310 C   0  0  1  0  0  3  0  0  0  0  0  0
  162.0000  208.3970  150.3620 C   0  0  0  0  0  0  0  0  0  0  0  0
  161.8630  209.4240  151.1940 C   0  0  1  0  0  3  0  0  0  0  0  0
  159.7440  211.8350  152.9700 C   0  0  0  0  0  2  0  0  0  0  0  0
  161.0000  211.4660  150.7680 C   0  0  0  0  0  2  0  0  0  0  0  0
  160.4540  211.0070  152.0090 N   0  0  1  0  0  0  0  0  0  0  0  0
  162.2120  208.8970  149.0300 N   0  0  0  0  0  0  0  0  0  0  0  0
  160.4970  211.8160  154.3010 C   0  0  0  0  0  2  0  0  0  0  0  0
  161.0910  206.1760  149.7050 C   0  0  0  0  0  3  0  0  0  0  0  0
  161.2040  204.2740  151.1990 C   0  0  0  0  0  0  0  0  0  0  0  0
  162.1000  206.4120  151.8910 C   0  0  0  0  0  3  0  0  0  0  0  0
  160.9260  202.8410  151.4830 C   0  0  0  0  0  1  0  0  0  0  0  0
  160.8310  204.8280  149.9720 C   0  0  0  0  0  3  0  0  0  0  0  0
  161.8400  205.0660  152.1590 C   0  0  0  0  0  3  0  0  0  0  0  0
  161.7230  206.9800  150.6640 C   0  0  0  0  0  0  0  0  0  0  0  0
  159.6750  209.6670  155.0100 O   0  0  0  0  0  0  0  0  0  0  0  0
  159.7070  209.4420  156.3890 C   0  0  0  0  0  2  0  0  0  0  0  0
  160.6200  208.2660  156.7070 C   0  0  0  0  0  2  0  0  0  0  0  0
  160.5690  206.7320  154.8720 F   0  0  0  0  0  0  0  0  0  0  0  0
  160.0840  206.9530  156.1480 C   0  0  0  0  0  3  0  0  0  0  0  0
  158.7020  206.9530  156.1360 F   0  0  0  0  0  0  0  0  0  0  0  0
  1  9  1  0  0  0  0
  2 11  1  0  0  0  0
  2  1  2  0  0  0  0
  3  5  1  0  0  0  0
  4  3  1  1  0  0  0
  5 20  1  6  0  0  0
  6 19  1  0  0  0  0
  6  7  1  0  0  0  0
  7  1  1  6  0  0  0
  7  4  1  0  0  0  0
  8 12  1  0  0  0  0
 10  9  1  1  0  0  0
 10  4  1  0  0  0  0
 10  8  1  0  0  0  0
 11  6  2  0  0  0  0
 12  5  1  0  0  0  0
 13 17  2  0  0  0  0
 13 19  1  0  0  0  0
 14 16  1  0  0  0  0
 14 18  2  0  0  0  0
 15 18  1  0  0  0  0
 17 14  1  0  0  0  0
 19 15  2  0  0  0  0
 20 21  1  0  0  0  0
 21 22  1  0  0  0  0
 23 24  1  0  0  0  0
 24 22  1  0  0  0  0
 25 24  1  0  0  0  0
M  END
>  <MODEL>
6

>  <REMARK>
 VINA RESULT:      -6.6      3.147      5.036
  Name = 
  5 active torsions:
  status: ('A' for Active; 'I' for Inactive)
    1  A    between atoms: C_5  and  O_17
    2  A    between atoms: C_6  and  C_22
    3  A    between atoms: C_12  and  C_19
    4  A    between atoms: C_12  and  C_21
    5  A    between atoms: O_17  and  C_19
                            x       y       z     vdW  Elec       q    Type
                         _______ _______ _______ _____ _____    ______ ____

>  <TORSDO>
F 5

$$$$
=
 OpenBabel11072415243D

 25 28  0  0  1  0  0  0  0  0999 V2000
  160.9010  203.0060  151.0020 C   0  0  0  0  0  0  0  0  0  0  0  0
  160.9290  201.7360  150.3760 N   0  0  0  0  0  2  0  0  0  0  0  0
  160.5100  206.3850  150.6630 C   0  0  0  0  0  2  0  0  0  0  0  0
  161.4990  205.2370  150.4750 C   0  0  2  0  0  3  0  0  0  0  0  0
  161.0910  207.4620  151.5910 C   0  0  1  0  0  3  0  0  0  0  0  0
  160.8500  203.3600  148.8540 C   0  0  0  0  0  0  0  0  0  0  0  0
  160.7930  204.0150  150.0090 C   0  0  0  0  0  0  0  0  0  0  0  0
  162.4590  205.7100  152.8040 C   0  0  0  0  0  2  0  0  0  0  0  0
  161.6570  203.4110  152.0060 C   0  0  0  0  0  2  0  0  0  0  0  0
  161.9710  204.7910  151.7880 N   0  0  1  0  0  0  0  0  0  0  0  0
  160.8790  201.9470  149.1180 N   0  0  0  0  0  0  0  0  0  0  0  0
  161.4670  206.8650  152.9530 C   0  0  0  0  0  2  0  0  0  0  0  0
  161.2150  203.1070  146.4060 C   0  0  0  0  0  3  0  0  0  0  0  0
  161.5780  205.0290  144.9780 C   0  0  0  0  0  0  0  0  0  0  0  0
  161.2320  205.3330  147.3540 C   0  0  0  0  0  3  0  0  0  0  0  0
  161.8280  205.6020  143.6300 C   0  0  0  0  0  1  0  0  0  0  0  0
  161.4500  203.6460  145.1380 C   0  0  0  0  0  3  0  0  0  0  0  0
  161.4670  205.8730  146.0870 C   0  0  0  0  0  3  0  0  0  0  0  0
  161.1090  203.9450  147.5240 C   0  0  0  0  0  0  0  0  0  0  0  0
  162.2070  208.0680  151.0040 O   0  0  0  0  0  0  0  0  0  0  0  0
  161.8520  209.4110  150.8490 C   0  0  0  0  0  2  0  0  0  0  0  0
  162.0030  210.1490  152.1720 C   0  0  0  0  0  2  0  0  0  0  0  0
  160.9070  211.5710  153.7540 F   0  0  0  0  0  0  0  0  0  0  0  0
  160.7730  210.9840  152.5090 C   0  0  0  0  0  3  0  0  0  0  0  0
  159.6290  210.2090  152.4710 F   0  0  0  0  0  0  0  0  0  0  0  0
  1  9  1  0  0  0  0
  2  1  1  0  0  0  0
  3  5  1  0  0  0  0
  4  3  1  1  0  0  0
  4 10  1  0  0  0  0
  5 20  1  6  0  0  0
  5 12  1  0  0  0  0
  6 11  2  0  0  0  0
  6  7  1  0  0  0  0
  7  4  1  0  0  0  0
  7  1  2  0  0  0  0
  8 12  1  0  0  0  0
 10  9  1  1  0  0  0
 10  8  1  0  0  0  0
 11  2  1  0  0  0  0
 13 19  1  0  0  0  0
 14 17  1  0  0  0  0
 14 18  2  0  0  0  0
 15 19  2  0  0  0  0
 16 14  1  0  0  0  0
 17 13  2  0  0  0  0
 18 15  1  0  0  0  0
 19  6  1  0  0  0  0
 21 20  1  0  0  0  0
 21 22  1  0  0  0  0
 22 24  1  0  0  0  0
 24 23  1  0  0  0  0
 25 24  1  0  0  0  0
M  END
>  <MODEL>
7

>  <REMARK>
 VINA RESULT:      -6.5      3.177      5.074
  Name = 
  5 active torsions:
  status: ('A' for Active; 'I' for Inactive)
    1  A    between atoms: C_5  and  O_17
    2  A    between atoms: C_6  and  C_22
    3  A    between atoms: C_12  and  C_19
    4  A    between atoms: C_12  and  C_21
    5  A    between atoms: O_17  and  C_19
                            x       y       z     vdW  Elec       q    Type
                         _______ _______ _______ _____ _____    ______ ____

>  <TORSDO>
F 5

$$$$
=
 OpenBabel11072415243D

 25 28  0  0  1  0  0  0  0  0999 V2000
  160.9540  208.2400  155.1460 C   0  0  0  0  0  0  0  0  0  0  0  0
  160.3040  208.7030  156.3150 N   0  0  0  0  0  2  0  0  0  0  0  0
  162.0100  208.9200  151.9660 C   0  0  0  0  0  2  0  0  0  0  0  0
  160.7880  208.5510  152.8030 C   0  0  2  0  0  3  0  0  0  0  0  0
  162.2390  207.8930  150.8480 C   0  0  1  0  0  3  0  0  0  0  0  0
  160.0800  210.1730  154.6580 C   0  0  0  0  0  0  0  0  0  0  0  0
  160.8430  209.2230  154.1280 C   0  0  0  0  0  0  0  0  0  0  0  0
  161.1990  206.0770  152.2740 C   0  0  0  0  0  2  0  0  0  0  0  0
  160.8960  207.0240  154.6350 C   0  0  0  0  0  2  0  0  0  0  0  0
  160.8910  207.1480  153.2090 N   0  0  1  0  0  0  0  0  0  0  0  0
  159.8090  209.8450  156.0320 N   0  0  0  0  0  0  0  0  0  0  0  0
  162.4070  206.4830  151.4280 C   0  0  0  0  0  2  0  0  0  0  0  0
  158.0840  211.6120  154.2910 C   0  0  0  0  0  3  0  0  0  0  0  0
  158.0580  213.3220  152.5770 C   0  0  0  0  0  0  0  0  0  0  0  0
  160.0260  211.9480  152.8870 C   0  0  0  0  0  3  0  0  0  0  0  0
  157.3520  214.4150  151.8590 C   0  0  0  0  0  1  0  0  0  0  0  0
  157.4200  212.6410  153.6160 C   0  0  0  0  0  3  0  0  0  0  0  0
  159.3630  212.9760  152.2120 C   0  0  0  0  0  3  0  0  0  0  0  0
  159.3900  211.2540  153.9290 C   0  0  0  0  0  0  0  0  0  0  0  0
  161.1810  207.9170  149.9330 O   0  0  0  0  0  0  0  0  0  0  0  0
  161.7180  207.4170  148.7440 C   0  0  0  0  0  2  0  0  0  0  0  0
  160.7810  206.3800  148.1400 C   0  0  0  0  0  2  0  0  0  0  0  0
  161.2370  204.2420  147.1680 F   0  0  0  0  0  0  0  0  0  0  0  0
  161.2840  204.9580  148.3500 C   0  0  0  0  0  3  0  0  0  0  0  0
  160.5430  204.3140  149.3230 F   0  0  0  0  0  0  0  0  0  0  0  0
  1  2  1  0  0  0  0
  4  3  1  6  0  0  0
  4 10  1  0  0  0  0
  4  7  1  0  0  0  0
  5 20  1  6  0  0  0
  5 12  1  0  0  0  0
  5  3  1  0  0  0  0
  6 11  2  0  0  0  0
  7  6  1  0  0  0  0
  7  1  2  0  0  0  0
  9  1  1  0  0  0  0
 10  8  1  1  0  0  0
 10  9  1  0  0  0  0
 11  2  1  0  0  0  0
 12  8  1  0  0  0  0
 14 17  1  0  0  0  0
 15 19  2  0  0  0  0
 16 14  1  0  0  0  0
 17 13  2  0  0  0  0
 18 14  2  0  0  0  0
 18 15  1  0  0  0  0
 19 13  1  0  0  0  0
 19  6  1  0  0  0  0
 21 20  1  0  0  0  0
 22 24  1  0  0  0  0
 22 21  1  0  0  0  0
 23 24  1  0  0  0  0
 24 25  1  0  0  0  0
M  END
>  <MODEL>
8

>  <REMARK>
 VINA RESULT:      -6.3      3.221      6.496
  Name = 
  5 active torsions:
  status: ('A' for Active; 'I' for Inactive)
    1  A    between atoms: C_5  and  O_17
    2  A    between atoms: C_6  and  C_22
    3  A    between atoms: C_12  and  C_19
    4  A    between atoms: C_12  and  C_21
    5  A    between atoms: O_17  and  C_19
                            x       y       z     vdW  Elec       q    Type
                         _______ _______ _______ _____ _____    ______ ____

>  <TORSDO>
F 5

$$$$
=
 OpenBabel11072415243D

 25 28  0  0  1  0  0  0  0  0999 V2000
  161.3090  203.8820  151.8560 C   0  0  0  0  0  0  0  0  0  0  0  0
  161.2230  204.6180  153.0630 N   0  0  0  0  0  2  0  0  0  0  0  0
  162.1940  203.8420  148.5540 C   0  0  0  0  0  2  0  0  0  0  0  0
  161.1100  204.2920  149.5310 C   0  0  2  0  0  3  0  0  0  0  0  0
  161.6080  202.9250  147.4700 C   0  0  1  0  0  3  0  0  0  0  0  0
  161.7760  205.9520  151.3680 C   0  0  0  0  0  0  0  0  0  0  0  0
  161.7180  204.7480  150.8080 C   0  0  0  0  0  0  0  0  0  0  0  0
  159.8330  202.1140  149.0850 C   0  0  0  0  0  2  0  0  0  0  0  0
  160.4510  202.9800  151.4150 C   0  0  0  0  0  2  0  0  0  0  0  0
  160.3640  203.1180  149.9930 N   0  0  1  0  0  0  0  0  0  0  0  0
  161.5160  205.8270  152.7760 N   0  0  0  0  0  0  0  0  0  0  0  0
  160.9270  201.7020  148.0980 C   0  0  0  0  0  2  0  0  0  0  0  0
  161.8360  208.4390  151.3980 C   0  0  0  0  0  3  0  0  0  0  0  0
  161.9550  209.7240  149.3500 C   0  0  0  0  0  0  0  0  0  0  0  0
  161.8950  207.3070  149.2610 C   0  0  0  0  0  3  0  0  0  0  0  0
  162.0190  211.0370  148.6550 C   0  0  0  0  0  1  0  0  0  0  0  0
  161.8960  209.6730  150.7450 C   0  0  0  0  0  3  0  0  0  0  0  0
  161.9560  208.5400  148.6070 C   0  0  0  0  0  3  0  0  0  0  0  0
  161.8300  207.2460  150.6620 C   0  0  0  0  0  0  0  0  0  0  0  0
  160.7000  203.6270  146.6710 O   0  0  0  0  0  0  0  0  0  0  0  0
  161.3560  203.8110  145.4510 C   0  0  0  0  0  2  0  0  0  0  0  0
  161.6950  205.2820  145.2530 C   0  0  0  0  0  2  0  0  0  0  0  0
  160.2770  206.4210  146.8080 F   0  0  0  0  0  0  0  0  0  0  0  0
  160.4850  206.1840  145.4610 C   0  0  0  0  0  3  0  0  0  0  0  0
  159.3530  205.6250  144.8990 F   0  0  0  0  0  0  0  0  0  0  0  0
  1  2  1  0  0  0  0
  4  3  1  6  0  0  0
  4 10  1  0  0  0  0
  4  7  1  0  0  0  0
  5 20  1  1  0  0  0
  5 12  1  0  0  0  0
  5  3  1  0  0  0  0
  6 11  2  0  0  0  0
  7  6  1  0  0  0  0
  7  1  2  0  0  0  0
  9  1  1  0  0  0  0
 10  8  1  6  0  0  0
 10  9  1  0  0  0  0
 11  2  1  0  0  0  0
 12  8  1  0  0  0  0
 14 17  2  0  0  0  0
 15 19  1  0  0  0  0
 16 14  1  0  0  0  0
 17 13  1  0  0  0  0
 18 15  2  0  0  0  0
 18 14  1  0  0  0  0
 19  6  1  0  0  0  0
 19 13  2  0  0  0  0
 21 20  1  0  0  0  0
 22 21  1  0  0  0  0
 22 24  1  0  0  0  0
 24 23  1  0  0  0  0
 25 24  1  0  0  0  0
M  END
>  <MODEL>
9

>  <REMARK>
 VINA RESULT:      -6.3      2.565      5.365
  Name = 
  5 active torsions:
  status: ('A' for Active; 'I' for Inactive)
    1  A    between atoms: C_5  and  O_17
    2  A    between atoms: C_6  and  C_22
    3  A    between atoms: C_12  and  C_19
    4  A    between atoms: C_12  and  C_21
    5  A    between atoms: O_17  and  C_19
                            x       y       z     vdW  Elec       q    Type
                         _______ _______ _______ _____ _____    ______ ____

>  <TORSDO>
F 5

$$$$
