=
 OpenBabel11072410323D

 32 35  0  0  1  0  0  0  0  0999 V2000
  159.7360  203.8190  151.8410 O   0  0  0  0  0  1  0  0  0  0  0  0
  160.9500  204.2860  148.9830 O   0  0  0  0  0  0  0  0  0  0  0  0
  160.7980  205.7050  150.9180 C   0  0  1  0  0  3  0  0  0  0  0  0
  160.4100  205.4990  149.4540 C   0  0  1  0  0  3  0  0  0  0  0  0
  161.4050  203.5790  150.1120 C   0  0  1  0  0  3  0  0  0  0  0  0
  160.9700  204.2960  151.3850 C   0  0  2  0  0  3  0  0  0  0  0  0
  160.9710  202.1200  150.0570 C   0  0  0  0  0  2  0  0  0  0  0  0
  160.2860  201.8670  148.8410 O   0  0  0  0  0  0  0  0  0  0  0  0
  160.9240  201.2890  147.7450 C   0  0  0  0  0  0  0  0  0  0  0  0
  160.9090  201.9440  146.5210 O   0  0  0  0  0  0  0  0  0  0  0  0
  161.5190  200.1840  147.8530 O   0  0  0  0  0  1  0  0  0  0  0  0
  160.7600  206.6620  148.5280 C   0  0  0  0  0  2  0  0  0  0  0  0
  161.1190  206.1780  147.1660 C   0  0  0  0  0  0  0  0  0  0  0  0
  162.4030  205.6900  146.9160 C   0  0  0  0  0  3  0  0  0  0  0  0
  161.7890  205.2700  144.6450 N   0  0  0  0  0  0  0  0  0  0  0  0
  160.1740  206.2030  146.1380 C   0  0  0  0  0  3  0  0  0  0  0  0
  162.7230  205.2350  145.6330 C   0  0  0  0  0  3  0  0  0  0  0  0
  160.5320  205.7400  144.8700 C   0  0  0  0  0  3  0  0  0  0  0  0
  162.1240  206.4410  151.1050 C   0  0  0  0  0  2  0  0  0  0  0  0
  162.1720  207.0950  152.4750 C   0  0  0  0  0  2  0  0  0  0  0  0
  161.7980  208.5710  152.3900 C   0  0  2  0  0  3  0  0  0  0  0  0
  160.6020  207.7940  154.4820 C   0  0  0  0  0  1  0  0  0  0  0  0
  160.7800  208.9290  153.4810 C   0  0  1  0  0  3  0  0  0  0  0  0
  160.9940  210.2970  154.1540 C   0  0  1  0  0  3  0  0  0  0  0  0
  162.3620  210.4950  154.3560 O   0  0  0  0  0  1  0  0  0  0  0  0
  159.1450  212.1900  153.9350 C   0  0  1  0  0  0  0  0  0  0  0  0
  159.1590  211.8140  155.3100 O   0  0  0  0  0  0  0  0  0  0  0  0
  157.9560  211.6410  154.6660 C   0  0  0  0  0  2  0  0  0  0  0  0
  160.4120  211.4750  153.3520 C   0  0  2  0  0  3  0  0  0  0  0  0
  159.0800  211.1130  152.8470 C   0  0  0  0  0  2  0  0  0  0  0  0
  161.3060  208.8820  151.1160 O   0  0  0  0  0  0  0  0  0  0  0  0
  162.1420  209.8970  150.6420 C   0  0  0  0  0  1  0  0  0  0  0  0
  2  4  1  0  0  0  0
  2  5  1  0  0  0  0
  3 19  1  6  0  0  0
  3  6  1  0  0  0  0
  4 12  1  6  0  0  0
  4  3  1  0  0  0  0
  5  7  1  1  0  0  0
  5  6  1  0  0  0  0
  6  1  1  6  0  0  0
  8  7  1  0  0  0  0
  9 11  1  0  0  0  0
  9  8  1  0  0  0  0
 10  9  2  0  0  0  0
 13 12  1  0  0  0  0
 14 13  1  0  0  0  0
 15 18  2  0  0  0  0
 15 17  1  0  0  0  0
 16 13  2  0  0  0  0
 17 14  2  0  0  0  0
 18 16  1  0  0  0  0
 19 20  1  0  0  0  0
 21 20  1  6  0  0  0
 21 23  1  0  0  0  0
 23 24  1  0  0  0  0
 23 22  1  1  0  0  0
 24 25  1  6  0  0  0
 26 30  1  1  0  0  0
 26 28  1  0  0  0  0
 26 27  1  0  0  0  0
 28 27  1  0  0  0  0
 29 26  1  0  0  0  0
 29 24  1  1  0  0  0
 30 29  1  0  0  0  0
 31 21  1  0  0  0  0
 32 31  1  0  0  0  0
M  END
>  <MODEL>
1

>  <REMARK>
 VINA RESULT:      -7.0      0.000      0.000
  Name = 
  12 active torsions:
  status: ('A' for Active; 'I' for Inactive)
    1  A    between atoms: C_1  and  O_10
    2  A    between atoms: C_1  and  C_25
    3  A    between atoms: C_2  and  C_12
    4  A    between atoms: C_2  and  C_21
    5  A    between atoms: C_6  and  O_10
    6  A    between atoms: C_11  and  C_15
    7  A    between atoms: C_11  and  C_18
    8  A    between atoms: C_15  and  O_16
    9  A    between atoms: C_15  and  C_20
   10  A    between atoms: C_18  and  C_19
   11  A    between atoms: C_20  and  C_23
   12  A    between atoms: C_23  and  C_24
                            x       y       z     vdW  Elec       q    Type
                         _______ _______ _______ _____ _____    ______ ____

>  <TORSDO>
F 12

$$$$
=
 OpenBabel11072410323D

 32 35  0  0  1  0  0  0  0  0999 V2000
  162.8400  207.8420  148.3260 O   0  0  0  0  0  1  0  0  0  0  0  0
  160.6840  205.5600  148.4080 O   0  0  0  0  0  0  0  0  0  0  0  0
  161.7870  206.7950  150.1520 C   0  0  1  0  0  3  0  0  0  0  0  0
  161.5350  205.4250  149.5230 C   0  0  1  0  0  3  0  0  0  0  0  0
  160.6110  206.9360  148.1170 C   0  0  1  0  0  3  0  0  0  0  0  0
  161.6100  207.7020  148.9770 C   0  0  2  0  0  3  0  0  0  0  0  0
  160.7720  207.1910  146.6250 C   0  0  0  0  0  2  0  0  0  0  0  0
  160.6460  205.9700  145.9120 O   0  0  0  0  0  0  0  0  0  0  0  0
  161.6830  205.4680  145.1270 C   0  0  0  0  0  0  0  0  0  0  0  0
  161.4970  205.3250  143.7580 O   0  0  0  0  0  0  0  0  0  0  0  0
  162.7870  205.1480  145.6420 O   0  0  0  0  0  1  0  0  0  0  0  0
  161.0220  204.3600  150.4900 C   0  0  0  0  0  2  0  0  0  0  0  0
  161.0040  203.0140  149.8510 C   0  0  0  0  0  0  0  0  0  0  0  0
  161.0670  202.9010  148.4610 C   0  0  0  0  0  3  0  0  0  0  0  0
  160.9820  200.5220  148.6610 N   0  0  0  0  0  0  0  0  0  0  0  0
  160.9330  201.8620  150.6380 C   0  0  0  0  0  3  0  0  0  0  0  0
  161.0540  201.6320  147.8770 C   0  0  0  0  0  3  0  0  0  0  0  0
  160.9230  200.6110  150.0180 C   0  0  0  0  0  3  0  0  0  0  0  0
  160.7620  207.1790  151.2180 C   0  0  0  0  0  2  0  0  0  0  0  0
  161.4590  207.4540  152.5400 C   0  0  0  0  0  2  0  0  0  0  0  0
  161.3870  208.9340  152.8980 C   0  0  2  0  0  3  0  0  0  0  0  0
  160.6370  207.8560  155.0630 C   0  0  0  0  0  1  0  0  0  0  0  0
  160.6420  209.1290  154.2250 C   0  0  1  0  0  3  0  0  0  0  0  0
  161.0490  210.3760  155.0300 C   0  0  1  0  0  3  0  0  0  0  0  0
  162.4240  210.5760  154.8940 O   0  0  0  0  0  1  0  0  0  0  0  0
  159.2680  212.2530  155.6300 C   0  0  1  0  0  0  0  0  0  0  0  0
  159.6630  211.6760  156.8730 O   0  0  0  0  0  0  0  0  0  0  0  0
  158.3220  211.5820  156.5820 C   0  0  0  0  0  2  0  0  0  0  0  0
  160.2950  211.6520  154.6100 C   0  0  2  0  0  3  0  0  0  0  0  0
  158.8650  211.3490  154.4600 C   0  0  0  0  0  2  0  0  0  0  0  0
  160.7830  209.6630  151.8660 O   0  0  0  0  0  0  0  0  0  0  0  0
  161.8030  210.4620  151.3400 C   0  0  0  0  0  1  0  0  0  0  0  0
  2  4  1  0  0  0  0
  3 19  1  1  0  0  0
  4  3  1  0  0  0  0
  4 12  1  1  0  0  0
  5  7  1  6  0  0  0
  5  2  1  0  0  0  0
  5  6  1  0  0  0  0
  6  1  1  6  0  0  0
  6  3  1  0  0  0  0
  8  7  1  0  0  0  0
  9 11  1  0  0  0  0
  9  8  1  0  0  0  0
 10  9  2  0  0  0  0
 13 12  1  0  0  0  0
 13 16  1  0  0  0  0
 14 13  2  0  0  0  0
 15 18  1  0  0  0  0
 17 14  1  0  0  0  0
 17 15  2  0  0  0  0
 18 16  2  0  0  0  0
 19 20  1  0  0  0  0
 21 20  1  6  0  0  0
 21 23  1  0  0  0  0
 23 24  1  0  0  0  0
 23 22  1  1  0  0  0
 24 25  1  6  0  0  0
 26 30  1  6  0  0  0
 26 28  1  0  0  0  0
 26 27  1  0  0  0  0
 28 27  1  0  0  0  0
 29 24  1  1  0  0  0
 29 26  1  0  0  0  0
 30 29  1  0  0  0  0
 31 21  1  0  0  0  0
 32 31  1  0  0  0  0
M  END
>  <MODEL>
2

>  <REMARK>
 VINA RESULT:      -6.4      2.139      3.663
  Name = 
  12 active torsions:
  status: ('A' for Active; 'I' for Inactive)
    1  A    between atoms: C_1  and  O_10
    2  A    between atoms: C_1  and  C_25
    3  A    between atoms: C_2  and  C_12
    4  A    between atoms: C_2  and  C_21
    5  A    between atoms: C_6  and  O_10
    6  A    between atoms: C_11  and  C_15
    7  A    between atoms: C_11  and  C_18
    8  A    between atoms: C_15  and  O_16
    9  A    between atoms: C_15  and  C_20
   10  A    between atoms: C_18  and  C_19
   11  A    between atoms: C_20  and  C_23
   12  A    between atoms: C_23  and  C_24
                            x       y       z     vdW  Elec       q    Type
                         _______ _______ _______ _____ _____    ______ ____

>  <TORSDO>
F 12

$$$$
=
 OpenBabel11072410323D

 32 35  0  0  1  0  0  0  0  0999 V2000
  163.3120  207.8710  150.3570 O   0  0  0  0  0  1  0  0  0  0  0  0
  160.9280  205.9810  149.5800 O   0  0  0  0  0  0  0  0  0  0  0  0
  161.9060  206.5490  151.7020 C   0  0  1  0  0  3  0  0  0  0  0  0
  161.5950  205.4400  150.6970 C   0  0  1  0  0  3  0  0  0  0  0  0
  161.0480  207.3810  149.6740 C   0  0  1  0  0  3  0  0  0  0  0  0
  161.9950  207.7450  150.8120 C   0  0  2  0  0  3  0  0  0  0  0  0
  161.4430  207.9890  148.3360 C   0  0  0  0  0  2  0  0  0  0  0  0
  162.2410  207.0700  147.6060 O   0  0  0  0  0  0  0  0  0  0  0  0
  161.7430  206.3780  146.5030 C   0  0  0  0  0  0  0  0  0  0  0  0
  160.3710  206.3140  146.2980 O   0  0  0  0  0  1  0  0  0  0  0  0
  162.5210  205.8140  145.6880 O   0  0  0  0  0  0  0  0  0  0  0  0
  160.8380  204.2450  151.2740 C   0  0  0  0  0  2  0  0  0  0  0  0
  160.8870  203.0780  150.3500 C   0  0  0  0  0  0  0  0  0  0  0  0
  160.9090  203.2830  148.9690 C   0  0  0  0  0  3  0  0  0  0  0  0
  160.9870  200.9190  148.6310 N   0  0  0  0  0  0  0  0  0  0  0  0
  160.9190  201.7770  150.8590 C   0  0  0  0  0  3  0  0  0  0  0  0
  160.9600  202.1770  148.1150 C   0  0  0  0  0  3  0  0  0  0  0  0
  160.9690  200.6990  149.9730 C   0  0  0  0  0  3  0  0  0  0  0  0
  160.7910  206.7860  152.7200 C   0  0  0  0  0  2  0  0  0  0  0  0
  160.7800  208.2410  153.1560 C   0  0  0  0  0  2  0  0  0  0  0  0
  160.4490  208.3640  154.6390 C   0  0  2  0  0  3  0  0  0  0  0  0
  161.8490  210.4300  154.2090 C   0  0  0  0  0  1  0  0  0  0  0  0
  160.9090  209.7260  155.1790 C   0  0  1  0  0  3  0  0  0  0  0  0
  159.7840  210.6400  155.6970 C   0  0  1  0  0  3  0  0  0  0  0  0
  160.1530  211.1530  156.9430 O   0  0  0  0  0  1  0  0  0  0  0  0
  157.9430  212.2480  154.6590 C   0  0  1  0  0  0  0  0  0  0  0  0
  157.3790  211.7320  155.8630 O   0  0  0  0  0  0  0  0  0  0  0  0
  156.6740  211.4510  154.7160 C   0  0  0  0  0  2  0  0  0  0  0  0
  159.4420  211.7980  154.7410 C   0  0  2  0  0  3  0  0  0  0  0  0
  158.5950  211.2970  153.6500 C   0  0  0  0  0  2  0  0  0  0  0  0
  161.0240  207.3120  155.3630 O   0  0  0  0  0  0  0  0  0  0  0  0
  160.1660  207.1050  156.4460 C   0  0  0  0  0  1  0  0  0  0  0  0
  2  5  1  0  0  0  0
  2  4  1  0  0  0  0
  3 19  1  1  0  0  0
  4 12  1  1  0  0  0
  4  3  1  0  0  0  0
  5  7  1  6  0  0  0
  5  6  1  0  0  0  0
  6  1  1  6  0  0  0
  6  3  1  0  0  0  0
  8  7  1  0  0  0  0
  9  8  1  0  0  0  0
 10  9  1  0  0  0  0
 11  9  2  0  0  0  0
 13 16  1  0  0  0  0
 13 12  1  0  0  0  0
 14 13  2  0  0  0  0
 15 18  1  0  0  0  0
 17 15  2  0  0  0  0
 17 14  1  0  0  0  0
 18 16  2  0  0  0  0
 19 20  1  0  0  0  0
 21 20  1  6  0  0  0
 21 23  1  0  0  0  0
 21 31  1  0  0  0  0
 23 22  1  6  0  0  0
 23 24  1  0  0  0  0
 24 25  1  1  0  0  0
 26 30  1  1  0  0  0
 26 28  1  0  0  0  0
 26 29  1  0  0  0  0
 26 27  1  0  0  0  0
 28 27  1  0  0  0  0
 29 24  1  1  0  0  0
 30 29  1  0  0  0  0
 31 32  1  0  0  0  0
M  END
>  <MODEL>
3

>  <REMARK>
 VINA RESULT:      -6.3      2.364      4.096
  Name = 
  12 active torsions:
  status: ('A' for Active; 'I' for Inactive)
    1  A    between atoms: C_1  and  O_10
    2  A    between atoms: C_1  and  C_25
    3  A    between atoms: C_2  and  C_12
    4  A    between atoms: C_2  and  C_21
    5  A    between atoms: C_6  and  O_10
    6  A    between atoms: C_11  and  C_15
    7  A    between atoms: C_11  and  C_18
    8  A    between atoms: C_15  and  O_16
    9  A    between atoms: C_15  and  C_20
   10  A    between atoms: C_18  and  C_19
   11  A    between atoms: C_20  and  C_23
   12  A    between atoms: C_23  and  C_24
                            x       y       z     vdW  Elec       q    Type
                         _______ _______ _______ _____ _____    ______ ____

>  <TORSDO>
F 12

$$$$
=
 OpenBabel11072410323D

 32 35  0  0  1  0  0  0  0  0999 V2000
  160.0280  206.9650  148.3620 O   0  0  0  0  0  1  0  0  0  0  0  0
  162.2760  207.1940  150.5420 O   0  0  0  0  0  0  0  0  0  0  0  0
  160.5710  205.5430  150.1560 C   0  0  1  0  0  3  0  0  0  0  0  0
  161.1430  206.5850  151.1170 C   0  0  1  0  0  3  0  0  0  0  0  0
  162.2940  206.8190  149.1850 C   0  0  1  0  0  3  0  0  0  0  0  0
  161.0070  206.0820  148.8330 C   0  0  2  0  0  3  0  0  0  0  0  0
  162.5740  208.0170  148.2890 C   0  0  0  0  0  2  0  0  0  0  0  0
  161.6500  209.0570  148.5720 O   0  0  0  0  0  0  0  0  0  0  0  0
  162.0630  210.2930  149.0660 C   0  0  0  0  0  0  0  0  0  0  0  0
  162.1240  210.4960  150.4380 O   0  0  0  0  0  1  0  0  0  0  0  0
  162.3870  211.2260  148.2830 O   0  0  0  0  0  0  0  0  0  0  0  0
  161.4400  206.0680  152.5230 C   0  0  0  0  0  2  0  0  0  0  0  0
  161.0040  207.0450  153.5610 C   0  0  0  0  0  0  0  0  0  0  0  0
  161.0410  208.4140  153.2890 C   0  0  0  0  0  3  0  0  0  0  0  0
  160.1880  208.8590  155.4760 N   0  0  0  0  0  0  0  0  0  0  0  0
  160.5500  206.5950  154.8030 C   0  0  0  0  0  3  0  0  0  0  0  0
  160.6250  209.3160  154.2720 C   0  0  0  0  0  3  0  0  0  0  0  0
  160.1420  207.5290  155.7590 C   0  0  0  0  0  3  0  0  0  0  0  0
  161.1750  204.1500  150.3330 C   0  0  0  0  0  2  0  0  0  0  0  0
  160.5400  203.1760  149.3540 C   0  0  0  0  0  2  0  0  0  0  0  0
  161.5730  202.1920  148.8160 C   0  0  2  0  0  3  0  0  0  0  0  0
  160.5080  201.4450  146.6430 C   0  0  0  0  0  1  0  0  0  0  0  0
  161.6270  202.2570  147.2830 C   0  0  1  0  0  3  0  0  0  0  0  0
  161.7580  203.6720  146.6910 C   0  0  1  0  0  3  0  0  0  0  0  0
  162.9880  204.2120  147.0730 O   0  0  0  0  0  1  0  0  0  0  0  0
  161.2740  205.0880  144.4970 C   0  0  1  0  0  0  0  0  0  0  0  0
  161.6190  206.0340  145.5060 O   0  0  0  0  0  0  0  0  0  0  0  0
  160.3690  206.1920  144.9550 C   0  0  0  0  0  2  0  0  0  0  0  0
  161.6290  203.7110  145.1570 C   0  0  2  0  0  3  0  0  0  0  0  0
  160.2350  204.0000  144.7910 C   0  0  0  0  0  2  0  0  0  0  0  0
  161.2940  200.8930  149.2580 O   0  0  0  0  0  0  0  0  0  0  0  0
  160.1490  201.0170  150.0510 C   0  0  0  0  0  1  0  0  0  0  0  0
  2  4  1  0  0  0  0
  3 19  1  1  0  0  0
  3  4  1  0  0  0  0
  4 12  1  1  0  0  0
  5  7  1  6  0  0  0
  5  2  1  0  0  0  0
  6  1  1  1  0  0  0
  6  5  1  0  0  0  0
  6  3  1  0  0  0  0
  7  8  1  0  0  0  0
  8  9  1  0  0  0  0
  9 10  1  0  0  0  0
 11  9  2  0  0  0  0
 12 13  1  0  0  0  0
 13 16  1  0  0  0  0
 14 13  2  0  0  0  0
 14 17  1  0  0  0  0
 15 18  1  0  0  0  0
 16 18  2  0  0  0  0
 17 15  2  0  0  0  0
 20 19  1  0  0  0  0
 21 31  1  0  0  0  0
 21 20  1  6  0  0  0
 23 22  1  6  0  0  0
 23 21  1  0  0  0  0
 24 25  1  6  0  0  0
 24 23  1  0  0  0  0
 26 30  1  1  0  0  0
 26 28  1  0  0  0  0
 26 29  1  0  0  0  0
 26 27  1  0  0  0  0
 28 27  1  0  0  0  0
 29 24  1  1  0  0  0
 30 29  1  0  0  0  0
 31 32  1  0  0  0  0
M  END
>  <MODEL>
4

>  <REMARK>
 VINA RESULT:      -6.2      3.011      8.402
  Name = 
  12 active torsions:
  status: ('A' for Active; 'I' for Inactive)
    1  A    between atoms: C_1  and  O_10
    2  A    between atoms: C_1  and  C_25
    3  A    between atoms: C_2  and  C_12
    4  A    between atoms: C_2  and  C_21
    5  A    between atoms: C_6  and  O_10
    6  A    between atoms: C_11  and  C_15
    7  A    between atoms: C_11  and  C_18
    8  A    between atoms: C_15  and  O_16
    9  A    between atoms: C_15  and  C_20
   10  A    between atoms: C_18  and  C_19
   11  A    between atoms: C_20  and  C_23
   12  A    between atoms: C_23  and  C_24
                            x       y       z     vdW  Elec       q    Type
                         _______ _______ _______ _____ _____    ______ ____

>  <TORSDO>
F 12

$$$$
=
 OpenBabel11072410323D

 32 35  0  0  1  0  0  0  0  0999 V2000
  163.3320  205.2810  145.6700 O   0  0  0  0  0  1  0  0  0  0  0  0
  160.4110  204.9700  146.7790 O   0  0  0  0  0  0  0  0  0  0  0  0
  162.3350  206.1410  147.6200 C   0  0  1  0  0  3  0  0  0  0  0  0
  161.3060  205.0370  147.8640 C   0  0  1  0  0  3  0  0  0  0  0  0
  160.9650  205.7520  145.7470 C   0  0  1  0  0  3  0  0  0  0  0  0
  162.3730  206.1920  146.1280 C   0  0  2  0  0  3  0  0  0  0  0  0
  160.8950  205.0260  144.4110 C   0  0  0  0  0  2  0  0  0  0  0  0
  160.0230  203.9110  144.5140 O   0  0  0  0  0  0  0  0  0  0  0  0
  160.4630  202.6760  144.9870 C   0  0  0  0  0  0  0  0  0  0  0  0
  159.6770  201.5480  144.7910 O   0  0  0  0  0  0  0  0  0  0  0  0
  161.5670  202.5690  145.5860 O   0  0  0  0  0  1  0  0  0  0  0  0
  160.5640  205.1340  149.1950 C   0  0  0  0  0  2  0  0  0  0  0  0
  160.7560  203.9040  150.0130 C   0  0  0  0  0  0  0  0  0  0  0  0
  160.6330  202.6460  149.4190 C   0  0  0  0  0  3  0  0  0  0  0  0
  161.1240  201.6190  151.5190 N   0  0  0  0  0  0  0  0  0  0  0  0
  161.0700  204.0030  151.3700 C   0  0  0  0  0  3  0  0  0  0  0  0
  160.8220  201.5020  150.1980 C   0  0  0  0  0  3  0  0  0  0  0  0
  161.2510  202.8350  152.1160 C   0  0  0  0  0  3  0  0  0  0  0  0
  161.8990  207.5110  148.1400 C   0  0  0  0  0  2  0  0  0  0  0  0
  162.6230  207.8330  149.4370 C   0  0  0  0  0  2  0  0  0  0  0  0
  162.2180  209.2060  149.9620 C   0  0  2  0  0  3  0  0  0  0  0  0
  161.0830  207.6020  151.5600 C   0  0  0  0  0  1  0  0  0  0  0  0
  161.3210  209.0630  151.1990 C   0  0  1  0  0  3  0  0  0  0  0  0
  161.7300  209.9230  152.4090 C   0  0  1  0  0  3  0  0  0  0  0  0
  163.0570  210.3270  152.2510 O   0  0  0  0  0  1  0  0  0  0  0  0
  160.3600  211.4650  154.0810 C   0  0  1  0  0  0  0  0  0  0  0  0
  161.2880  210.7430  154.8860 O   0  0  0  0  0  0  0  0  0  0  0  0
  159.9630  210.5480  155.1990 C   0  0  0  0  0  2  0  0  0  0  0  0
  160.8330  211.1570  152.6180 C   0  0  2  0  0  3  0  0  0  0  0  0
  159.4980  210.7230  153.0530 C   0  0  0  0  0  2  0  0  0  0  0  0
  161.5830  209.9500  148.9590 O   0  0  0  0  0  0  0  0  0  0  0  0
  162.1390  211.2290  149.0500 C   0  0  0  0  0  1  0  0  0  0  0  0
  2  4  1  0  0  0  0
  3  4  1  0  0  0  0
  3 19  1  1  0  0  0
  4 12  1  1  0  0  0
  5  7  1  6  0  0  0
  5  6  1  0  0  0  0
  5  2  1  0  0  0  0
  6  1  1  6  0  0  0
  6  3  1  0  0  0  0
  7  8  1  0  0  0  0
  8  9  1  0  0  0  0
  9 11  1  0  0  0  0
 10  9  2  0  0  0  0
 12 13  1  0  0  0  0
 13 16  1  0  0  0  0
 14 13  2  0  0  0  0
 14 17  1  0  0  0  0
 15 18  1  0  0  0  0
 16 18  2  0  0  0  0
 17 15  2  0  0  0  0
 19 20  1  0  0  0  0
 21 20  1  6  0  0  0
 21 23  1  0  0  0  0
 23 22  1  1  0  0  0
 23 24  1  0  0  0  0
 24 25  1  6  0  0  0
 26 30  1  6  0  0  0
 26 27  1  0  0  0  0
 26 28  1  0  0  0  0
 27 28  1  0  0  0  0
 29 24  1  1  0  0  0
 29 30  1  0  0  0  0
 29 26  1  0  0  0  0
 31 32  1  0  0  0  0
 31 21  1  0  0  0  0
M  END
>  <MODEL>
5

>  <REMARK>
 VINA RESULT:      -6.1      2.364      4.048
  Name = 
  12 active torsions:
  status: ('A' for Active; 'I' for Inactive)
    1  A    between atoms: C_1  and  O_10
    2  A    between atoms: C_1  and  C_25
    3  A    between atoms: C_2  and  C_12
    4  A    between atoms: C_2  and  C_21
    5  A    between atoms: C_6  and  O_10
    6  A    between atoms: C_11  and  C_15
    7  A    between atoms: C_11  and  C_18
    8  A    between atoms: C_15  and  O_16
    9  A    between atoms: C_15  and  C_20
   10  A    between atoms: C_18  and  C_19
   11  A    between atoms: C_20  and  C_23
   12  A    between atoms: C_23  and  C_24
                            x       y       z     vdW  Elec       q    Type
                         _______ _______ _______ _____ _____    ______ ____

>  <TORSDO>
F 12

$$$$
=
 OpenBabel11072410323D

 32 35  0  0  1  0  0  0  0  0999 V2000
  162.9760  207.9080  148.2230 O   0  0  0  0  0  1  0  0  0  0  0  0
  160.7680  205.6970  148.5420 O   0  0  0  0  0  0  0  0  0  0  0  0
  161.8600  207.1230  150.1410 C   0  0  1  0  0  3  0  0  0  0  0  0
  161.5920  205.6890  149.6850 C   0  0  1  0  0  3  0  0  0  0  0  0
  160.7320  207.0260  148.0770 C   0  0  1  0  0  3  0  0  0  0  0  0
  161.7290  207.8760  148.8570 C   0  0  2  0  0  3  0  0  0  0  0  0
  160.9310  207.0860  146.5690 C   0  0  0  0  0  2  0  0  0  0  0  0
  160.3840  205.9230  145.9650 O   0  0  0  0  0  0  0  0  0  0  0  0
  161.1270  205.1320  145.0910 C   0  0  0  0  0  0  0  0  0  0  0  0
  161.4020  205.5960  143.8120 O   0  0  0  0  0  0  0  0  0  0  0  0
  161.5570  204.0020  145.4490 O   0  0  0  0  0  1  0  0  0  0  0  0
  161.0350  204.7660  150.7660 C   0  0  0  0  0  2  0  0  0  0  0  0
  160.9940  203.3510  150.3010 C   0  0  0  0  0  0  0  0  0  0  0  0
  160.8490  203.0680  148.9410 C   0  0  0  0  0  3  0  0  0  0  0  0
  160.9300  200.7310  149.4300 N   0  0  0  0  0  0  0  0  0  0  0  0
  161.1110  202.3040  151.2190 C   0  0  0  0  0  3  0  0  0  0  0  0
  160.8180  201.7360  148.5210 C   0  0  0  0  0  3  0  0  0  0  0  0
  161.0760  200.9860  150.7590 C   0  0  0  0  0  3  0  0  0  0  0  0
  160.8210  207.6590  151.1250 C   0  0  0  0  0  2  0  0  0  0  0  0
  161.4850  208.5730  152.1410 C   0  0  0  0  0  2  0  0  0  0  0  0
  160.7420  208.5430  153.4710 C   0  0  2  0  0  3  0  0  0  0  0  0
  162.3400  210.4250  154.0360 C   0  0  0  0  0  1  0  0  0  0  0  0
  160.9340  209.8670  154.2220 C   0  0  1  0  0  3  0  0  0  0  0  0
  159.8340  210.9190  153.9900 C   0  0  1  0  0  3  0  0  0  0  0  0
  159.2010  210.6530  152.7740 O   0  0  0  0  0  1  0  0  0  0  0  0
  158.8050  212.2300  156.0570 C   0  0  1  0  0  0  0  0  0  0  0  0
  159.5250  213.1980  155.2990 O   0  0  0  0  0  0  0  0  0  0  0  0
  159.9480  213.0370  156.5970 C   0  0  0  0  0  2  0  0  0  0  0  0
  158.7870  210.9750  155.1180 C   0  0  2  0  0  3  0  0  0  0  0  0
  159.4660  210.8950  156.4190 C   0  0  0  0  0  2  0  0  0  0  0  0
  161.1610  207.4550  154.2470 O   0  0  0  0  0  0  0  0  0  0  0  0
  160.2750  207.4150  155.3270 C   0  0  0  0  0  1  0  0  0  0  0  0
  2  4  1  0  0  0  0
  3 19  1  1  0  0  0
  4  3  1  0  0  0  0
  4 12  1  1  0  0  0
  5  7  1  6  0  0  0
  5  2  1  0  0  0  0
  5  6  1  0  0  0  0
  6  1  1  6  0  0  0
  6  3  1  0  0  0  0
  8  7  1  0  0  0  0
  9 11  1  0  0  0  0
  9  8  1  0  0  0  0
 10  9  2  0  0  0  0
 13 12  1  0  0  0  0
 13 16  1  0  0  0  0
 14 13  2  0  0  0  0
 15 18  1  0  0  0  0
 17 14  1  0  0  0  0
 17 15  2  0  0  0  0
 18 16  2  0  0  0  0
 19 20  1  0  0  0  0
 21 20  1  6  0  0  0
 21 23  1  0  0  0  0
 21 31  1  0  0  0  0
 23 22  1  6  0  0  0
 24 25  1  6  0  0  0
 24 23  1  0  0  0  0
 26 30  1  6  0  0  0
 26 28  1  0  0  0  0
 27 26  1  0  0  0  0
 27 28  1  0  0  0  0
 29 24  1  6  0  0  0
 29 26  1  0  0  0  0
 29 30  1  0  0  0  0
 31 32  1  0  0  0  0
M  END
>  <MODEL>
6

>  <REMARK>
 VINA RESULT:      -6.0      2.230      4.067
  Name = 
  12 active torsions:
  status: ('A' for Active; 'I' for Inactive)
    1  A    between atoms: C_1  and  O_10
    2  A    between atoms: C_1  and  C_25
    3  A    between atoms: C_2  and  C_12
    4  A    between atoms: C_2  and  C_21
    5  A    between atoms: C_6  and  O_10
    6  A    between atoms: C_11  and  C_15
    7  A    between atoms: C_11  and  C_18
    8  A    between atoms: C_15  and  O_16
    9  A    between atoms: C_15  and  C_20
   10  A    between atoms: C_18  and  C_19
   11  A    between atoms: C_20  and  C_23
   12  A    between atoms: C_23  and  C_24
                            x       y       z     vdW  Elec       q    Type
                         _______ _______ _______ _____ _____    ______ ____

>  <TORSDO>
F 12

$$$$
=
 OpenBabel11072410323D

 32 35  0  0  1  0  0  0  0  0999 V2000
  163.0820  206.0380  152.1890 O   0  0  0  0  0  1  0  0  0  0  0  0
  161.0550  208.3830  152.6940 O   0  0  0  0  0  0  0  0  0  0  0  0
  162.3320  207.7490  150.7580 C   0  0  1  0  0  3  0  0  0  0  0  0
  162.0540  208.8260  151.8050 C   0  0  1  0  0  3  0  0  0  0  0  0
  160.8850  207.0050  152.4590 C   0  0  1  0  0  3  0  0  0  0  0  0
  161.9580  206.5060  151.4980 C   0  0  2  0  0  3  0  0  0  0  0  0
  160.8300  206.2280  153.7670 C   0  0  0  0  0  2  0  0  0  0  0  0
  160.0800  206.9550  154.7280 O   0  0  0  0  0  0  0  0  0  0  0  0
  160.6270  207.3350  155.9530 C   0  0  0  0  0  0  0  0  0  0  0  0
  161.6230  208.3010  155.9880 O   0  0  0  0  0  0  0  0  0  0  0  0
  160.2240  206.8150  157.0280 O   0  0  0  0  0  1  0  0  0  0  0  0
  161.7230  210.2040  151.2360 C   0  0  0  0  0  2  0  0  0  0  0  0
  160.9430  211.0180  152.2110 C   0  0  0  0  0  0  0  0  0  0  0  0
  159.9420  211.8790  151.7560 C   0  0  0  0  0  3  0  0  0  0  0  0
  159.4860  212.5210  154.0110 N   0  0  0  0  0  0  0  0  0  0  0  0
  161.2030  210.9170  153.5790 C   0  0  0  0  0  3  0  0  0  0  0  0
  159.2160  212.6320  152.6820 C   0  0  0  0  0  3  0  0  0  0  0  0
  160.4550  211.6860  154.4740 C   0  0  0  0  0  3  0  0  0  0  0  0
  161.4460  207.8570  149.5170 C   0  0  0  0  0  2  0  0  0  0  0  0
  162.0930  207.1340  148.3470 C   0  0  0  0  0  2  0  0  0  0  0  0
  161.0640  206.3180  147.5720 C   0  0  2  0  0  3  0  0  0  0  0  0
  163.0380  204.8490  146.9720 C   0  0  0  0  0  1  0  0  0  0  0  0
  161.5660  204.8830  147.3640 C   0  0  1  0  0  3  0  0  0  0  0  0
  161.2230  203.8970  148.4950 C   0  0  1  0  0  3  0  0  0  0  0  0
  160.4520  204.5570  149.4550 O   0  0  0  0  0  1  0  0  0  0  0  0
  160.2890  201.4710  149.0390 C   0  0  1  0  0  0  0  0  0  0  0  0
  160.4770  202.1110  150.3000 O   0  0  0  0  0  0  0  0  0  0  0  0
  161.1950  200.9520  150.1150 C   0  0  0  0  0  2  0  0  0  0  0  0
  160.4800  202.6380  148.0100 C   0  0  2  0  0  3  0  0  0  0  0  0
  161.4080  201.4990  147.9930 C   0  0  0  0  0  2  0  0  0  0  0  0
  160.7660  206.9330  146.3500 O   0  0  0  0  0  0  0  0  0  0  0  0
  160.2820  205.9060  145.5350 C   0  0  0  0  0  1  0  0  0  0  0  0
  3 19  1  6  0  0  0
  3  6  1  0  0  0  0
  3  4  1  0  0  0  0
  4 12  1  6  0  0  0
  4  2  1  0  0  0  0
  5  2  1  0  0  0  0
  5  7  1  1  0  0  0
  6  1  1  1  0  0  0
  6  5  1  0  0  0  0
  7  8  1  0  0  0  0
  8  9  1  0  0  0  0
  9 10  2  0  0  0  0
  9 11  1  0  0  0  0
 12 13  1  0  0  0  0
 13 16  1  0  0  0  0
 14 13  2  0  0  0  0
 14 17  1  0  0  0  0
 15 18  1  0  0  0  0
 16 18  2  0  0  0  0
 17 15  2  0  0  0  0
 20 19  1  0  0  0  0
 21 20  1  6  0  0  0
 23 22  1  1  0  0  0
 23 21  1  0  0  0  0
 23 24  1  0  0  0  0
 24 25  1  1  0  0  0
 26 30  1  1  0  0  0
 26 28  1  0  0  0  0
 26 27  1  0  0  0  0
 28 27  1  0  0  0  0
 29 24  1  1  0  0  0
 29 26  1  0  0  0  0
 30 29  1  0  0  0  0
 31 21  1  0  0  0  0
 32 31  1  0  0  0  0
M  END
>  <MODEL>
7

>  <REMARK>
 VINA RESULT:      -5.9      2.871      8.248
  Name = 
  12 active torsions:
  status: ('A' for Active; 'I' for Inactive)
    1  A    between atoms: C_1  and  O_10
    2  A    between atoms: C_1  and  C_25
    3  A    between atoms: C_2  and  C_12
    4  A    between atoms: C_2  and  C_21
    5  A    between atoms: C_6  and  O_10
    6  A    between atoms: C_11  and  C_15
    7  A    between atoms: C_11  and  C_18
    8  A    between atoms: C_15  and  O_16
    9  A    between atoms: C_15  and  C_20
   10  A    between atoms: C_18  and  C_19
   11  A    between atoms: C_20  and  C_23
   12  A    between atoms: C_23  and  C_24
                            x       y       z     vdW  Elec       q    Type
                         _______ _______ _______ _____ _____    ______ ____

>  <TORSDO>
F 12

$$$$
=
 OpenBabel11072410323D

 32 35  0  0  1  0  0  0  0  0999 V2000
  160.0890  206.5080  148.6960 O   0  0  0  0  0  1  0  0  0  0  0  0
  162.4820  208.3730  147.8860 O   0  0  0  0  0  0  0  0  0  0  0  0
  161.2950  208.0870  149.9570 C   0  0  1  0  0  3  0  0  0  0  0  0
  161.6790  209.0440  148.8290 C   0  0  1  0  0  3  0  0  0  0  0  0
  162.3980  207.0000  148.1850 C   0  0  1  0  0  3  0  0  0  0  0  0
  161.3430  206.7660  149.2600 C   0  0  2  0  0  3  0  0  0  0  0  0
  162.1730  206.1770  146.9240 C   0  0  0  0  0  2  0  0  0  0  0  0
  162.5820  204.8360  147.1460 O   0  0  0  0  0  0  0  0  0  0  0  0
  161.6800  203.7750  147.0880 C   0  0  0  0  0  0  0  0  0  0  0  0
  161.1990  203.2200  148.2660 O   0  0  0  0  0  1  0  0  0  0  0  0
  161.2910  203.3160  145.9800 O   0  0  0  0  0  0  0  0  0  0  0  0
  162.3280  210.3480  149.2870 C   0  0  0  0  0  2  0  0  0  0  0  0
  162.0750  211.4490  148.3150 C   0  0  0  0  0  0  0  0  0  0  0  0
  163.0960  212.3460  147.9960 C   0  0  0  0  0  3  0  0  0  0  0  0
  161.6170  213.4840  146.5050 N   0  0  0  0  0  0  0  0  0  0  0  0
  160.8210  211.5820  147.7130 C   0  0  0  0  0  3  0  0  0  0  0  0
  162.8440  213.3690  147.0790 C   0  0  0  0  0  3  0  0  0  0  0  0
  160.6090  212.6180  146.8000 C   0  0  0  0  0  3  0  0  0  0  0  0
  162.2980  208.0630  151.1100 C   0  0  0  0  0  2  0  0  0  0  0  0
  161.9280  209.1100  152.1470 C   0  0  0  0  0  2  0  0  0  0  0  0
  160.9370  208.5500  153.1600 C   0  0  2  0  0  3  0  0  0  0  0  0
  162.1140  210.1960  154.6810 C   0  0  0  0  0  1  0  0  0  0  0  0
  160.7980  209.5010  154.3570 C   0  0  1  0  0  3  0  0  0  0  0  0
  159.6050  210.4720  154.2890 C   0  0  1  0  0  3  0  0  0  0  0  0
  158.8650  210.3650  155.4680 O   0  0  0  0  0  1  0  0  0  0  0  0
  158.9580  212.8960  153.4190 C   0  0  1  0  0  0  0  0  0  0  0  0
  157.7250  212.2160  153.6370 O   0  0  0  0  0  0  0  0  0  0  0  0
  157.9370  212.6510  152.3490 C   0  0  0  0  0  2  0  0  0  0  0  0
  160.0180  211.9380  154.0660 C   0  0  2  0  0  3  0  0  0  0  0  0
  160.0780  212.2160  152.6240 C   0  0  0  0  0  2  0  0  0  0  0  0
  161.3240  207.2690  153.5730 O   0  0  0  0  0  0  0  0  0  0  0  0
  160.4600  206.9500  154.6250 C   0  0  0  0  0  1  0  0  0  0  0  0
  2  5  1  0  0  0  0
  2  4  1  0  0  0  0
  3 19  1  1  0  0  0
  4 12  1  1  0  0  0
  4  3  1  0  0  0  0
  5  7  1  6  0  0  0
  5  6  1  0  0  0  0
  6  1  1  6  0  0  0
  6  3  1  0  0  0  0
  7  8  1  0  0  0  0
  9  8  1  0  0  0  0
  9 10  1  0  0  0  0
 11  9  2  0  0  0  0
 13 12  1  0  0  0  0
 14 13  1  0  0  0  0
 15 18  2  0  0  0  0
 15 17  1  0  0  0  0
 16 13  2  0  0  0  0
 17 14  2  0  0  0  0
 18 16  1  0  0  0  0
 19 20  1  0  0  0  0
 21 20  1  6  0  0  0
 21 31  1  0  0  0  0
 21 23  1  0  0  0  0
 23 22  1  6  0  0  0
 24 23  1  0  0  0  0
 24 25  1  1  0  0  0
 26 28  1  1  0  0  0
 26 27  1  0  0  0  0
 26 29  1  0  0  0  0
 28 27  1  0  0  0  0
 29 24  1  6  0  0  0
 30 26  1  0  0  0  0
 30 29  1  0  0  0  0
 31 32  1  0  0  0  0
M  END
>  <MODEL>
8

>  <REMARK>
 VINA RESULT:      -5.7      2.700      4.165
  Name = 
  12 active torsions:
  status: ('A' for Active; 'I' for Inactive)
    1  A    between atoms: C_1  and  O_10
    2  A    between atoms: C_1  and  C_25
    3  A    between atoms: C_2  and  C_12
    4  A    between atoms: C_2  and  C_21
    5  A    between atoms: C_6  and  O_10
    6  A    between atoms: C_11  and  C_15
    7  A    between atoms: C_11  and  C_18
    8  A    between atoms: C_15  and  O_16
    9  A    between atoms: C_15  and  C_20
   10  A    between atoms: C_18  and  C_19
   11  A    between atoms: C_20  and  C_23
   12  A    between atoms: C_23  and  C_24
                            x       y       z     vdW  Elec       q    Type
                         _______ _______ _______ _____ _____    ______ ____

>  <TORSDO>
F 12

$$$$
=
 OpenBabel11072410323D

 32 35  0  0  1  0  0  0  0  0999 V2000
  163.5080  207.8390  150.2780 O   0  0  0  0  0  1  0  0  0  0  0  0
  160.7730  206.5830  149.3830 O   0  0  0  0  0  0  0  0  0  0  0  0
  161.9530  206.5420  151.4770 C   0  0  1  0  0  3  0  0  0  0  0  0
  161.3860  205.7250  150.3170 C   0  0  1  0  0  3  0  0  0  0  0  0
  161.1580  207.8940  149.7220 C   0  0  1  0  0  3  0  0  0  0  0  0
  162.2170  207.8570  150.8180 C   0  0  2  0  0  3  0  0  0  0  0  0
  161.5870  208.6760  148.4890 C   0  0  0  0  0  2  0  0  0  0  0  0
  162.2400  209.8730  148.8810 O   0  0  0  0  0  0  0  0  0  0  0  0
  161.9640  211.0950  148.2700 C   0  0  0  0  0  0  0  0  0  0  0  0
  160.8290  211.2250  147.4810 O   0  0  0  0  0  0  0  0  0  0  0  0
  162.7270  212.0850  148.4300 O   0  0  0  0  0  1  0  0  0  0  0  0
  160.4510  204.5900  150.7290 C   0  0  0  0  0  2  0  0  0  0  0  0
  160.7120  203.3580  149.9310 C   0  0  0  0  0  0  0  0  0  0  0  0
  160.9560  203.4550  148.5600 C   0  0  0  0  0  3  0  0  0  0  0  0
  161.2070  201.0820  148.4490 N   0  0  0  0  0  0  0  0  0  0  0  0
  160.7220  202.1070  150.5520 C   0  0  0  0  0  3  0  0  0  0  0  0
  161.2040  202.2910  147.8270 C   0  0  0  0  0  3  0  0  0  0  0  0
  160.9740  200.9670  149.7840 C   0  0  0  0  0  3  0  0  0  0  0  0
  160.9590  206.7630  152.6170 C   0  0  0  0  0  2  0  0  0  0  0  0
  161.1460  208.1470  153.2140 C   0  0  0  0  0  2  0  0  0  0  0  0
  160.5760  208.2140  154.6270 C   0  0  2  0  0  3  0  0  0  0  0  0
  161.9540  210.3340  154.4710 C   0  0  0  0  0  1  0  0  0  0  0  0
  160.9190  209.5600  155.2790 C   0  0  1  0  0  3  0  0  0  0  0  0
  159.7090  210.4200  155.6860 C   0  0  1  0  0  3  0  0  0  0  0  0
  159.8580  210.8150  157.0170 O   0  0  0  0  0  1  0  0  0  0  0  0
  158.0470  212.1990  154.6240 C   0  0  1  0  0  0  0  0  0  0  0  0
  157.3550  211.6280  155.7320 O   0  0  0  0  0  0  0  0  0  0  0  0
  156.7400  211.4720  154.5120 C   0  0  0  0  0  2  0  0  0  0  0  0
  159.5090  211.6620  154.7970 C   0  0  2  0  0  3  0  0  0  0  0  0
  158.7380  211.2890  153.6030 C   0  0  0  0  0  2  0  0  0  0  0  0
  161.0430  207.1430  155.3990 O   0  0  0  0  0  0  0  0  0  0  0  0
  160.0760  206.9630  156.3920 C   0  0  0  0  0  1  0  0  0  0  0  0
  2  5  1  0  0  0  0
  2  4  1  0  0  0  0
  3 19  1  1  0  0  0
  4 12  1  1  0  0  0
  4  3  1  0  0  0  0
  5  7  1  6  0  0  0
  5  6  1  0  0  0  0
  6  1  1  6  0  0  0
  6  3  1  0  0  0  0
  7  8  1  0  0  0  0
  9 11  1  0  0  0  0
  9  8  1  0  0  0  0
 10  9  2  0  0  0  0
 13 16  1  0  0  0  0
 13 12  1  0  0  0  0
 14 13  2  0  0  0  0
 15 18  1  0  0  0  0
 17 15  2  0  0  0  0
 17 14  1  0  0  0  0
 18 16  2  0  0  0  0
 19 20  1  0  0  0  0
 21 20  1  6  0  0  0
 21 23  1  0  0  0  0
 21 31  1  0  0  0  0
 23 22  1  6  0  0  0
 23 24  1  0  0  0  0
 24 25  1  1  0  0  0
 26 30  1  1  0  0  0
 26 29  1  0  0  0  0
 26 27  1  0  0  0  0
 28 26  1  0  0  0  0
 28 27  1  0  0  0  0
 29 24  1  1  0  0  0
 30 29  1  0  0  0  0
 31 32  1  0  0  0  0
M  END
>  <MODEL>
9

>  <REMARK>
 VINA RESULT:      -5.7      2.852      5.014
  Name = 
  12 active torsions:
  status: ('A' for Active; 'I' for Inactive)
    1  A    between atoms: C_1  and  O_10
    2  A    between atoms: C_1  and  C_25
    3  A    between atoms: C_2  and  C_12
    4  A    between atoms: C_2  and  C_21
    5  A    between atoms: C_6  and  O_10
    6  A    between atoms: C_11  and  C_15
    7  A    between atoms: C_11  and  C_18
    8  A    between atoms: C_15  and  O_16
    9  A    between atoms: C_15  and  C_20
   10  A    between atoms: C_18  and  C_19
   11  A    between atoms: C_20  and  C_23
   12  A    between atoms: C_23  and  C_24
                            x       y       z     vdW  Elec       q    Type
                         _______ _______ _______ _____ _____    ______ ____

>  <TORSDO>
F 12

$$$$
