=
 OpenBabel11072410153D

 37 40  0  0  1  0  0  0  0  0999 V2000
  160.8900  206.1170  147.2170 C   0  0  2  0  0  3  0  0  0  0  0  0
  162.0560  210.7490  149.3100 C   0  0  0  0  0  0  0  0  0  0  0  0
  160.9800  207.9830  148.7970 O   0  0  0  0  0  0  0  0  0  0  0  0
  161.7180  204.8230  147.1620 C   0  0  1  0  0  3  0  0  0  0  0  0
  160.9750  205.6280  149.7920 C   0  0  0  0  0  0  0  0  0  0  0  0
  161.0650  203.7770  148.0590 C   0  0  0  0  0  2  0  0  0  0  0  0
  161.7170  209.8010  151.4780 C   0  0  0  0  0  0  0  0  0  0  0  0
  162.0260  208.3910  150.9730 C   0  0  2  0  0  3  0  0  0  0  0  0
  160.6490  206.6050  148.6510 C   0  0  2  0  0  3  0  0  0  0  0  0
  161.0870  206.0210  151.0650 C   0  0  0  0  0  3  0  0  0  0  0  0
  161.5150  206.8110  153.8220 C   0  0  0  0  0  2  0  0  0  0  0  0
  160.2490  209.0550  154.8280 O   0  0  0  0  0  1  0  0  0  0  0  0
  160.9980  211.2850  153.2260 O   0  0  0  0  0  1  0  0  0  0  0  0
  161.4400  209.9860  152.9540 C   0  0  1  0  0  3  0  0  0  0  0  0
  162.2290  208.2620  149.4290 C   0  0  2  0  0  0  0  0  0  0  0  0
  160.7950  207.5900  153.0030 C   0  0  0  0  0  0  0  0  0  0  0  0
  162.7770  209.5480  148.8140 C   0  0  0  0  0  2  0  0  0  0  0  0
  160.9240  207.4450  151.5070 C   0  0  1  0  0  3  0  0  0  0  0  0
  163.3300  207.2350  149.1440 C   0  0  0  0  0  1  0  0  0  0  0  0
  159.5490  205.9740  146.5080 C   0  0  0  0  0  1  0  0  0  0  0  0
  160.4000  208.9740  153.4410 C   0  0  1  0  0  3  0  0  0  0  0  0
  161.7110  210.8340  150.6890 N   0  0  0  0  0  0  0  0  0  0  0  0
  161.2400  204.1690  149.5220 C   0  0  0  0  0  2  0  0  0  0  0  0
  161.8670  211.7810  148.4950 C   0  0  0  0  0  3  0  0  0  0  0  0
  161.3290  202.9190  145.5670 C   0  0  0  0  0  1  0  0  0  0  0  0
  161.9330  204.3030  145.7340 C   0  0  0  0  0  3  0  0  0  0  0  0
  163.4150  204.2140  145.4130 C   0  0  0  0  0  1  0  0  0  0  0  0
  161.2470  212.9810  148.9530 N   0  0  0  0  0  2  0  0  0  0  0  0
  159.9270  213.3650  148.4810 C   0  0  1  0  0  3  0  0  0  0  0  0
  159.4880  213.5930  150.9370 O   0  0  0  0  0  1  0  0  0  0  0  0
  159.0920  213.8410  149.6280 C   0  0  0  0  0  0  0  0  0  0  0  0
  158.0160  214.4530  149.4040 O   0  0  0  0  0  0  0  0  0  0  0  0
  160.0670  214.4520  147.4280 C   0  0  0  0  0  2  0  0  0  0  0  0
  159.6000  213.8280  145.7850 P   0  0  0  0  0  0  0  0  0  0  0  0
  158.0210  214.3220  145.4330 O   0  0  0  0  0  1  0  0  0  0  0  0
  160.6540  214.4530  144.6200 O   0  0  0  0  0  0  0  0  0  0  0  0
  159.6680  212.3170  145.7670 O   0  0  0  0  0  1  0  0  0  0  0  0
  1 20  1  1  0  0  0
  1  9  1  0  0  0  0
  2 22  1  0  0  0  0
  3 15  1  0  0  0  0
  4 26  1  6  0  0  0
  4  1  1  0  0  0  0
  4  6  1  0  0  0  0
  5 10  2  0  0  0  0
  6 23  1  0  0  0  0
  7 14  1  0  0  0  0
  8  7  1  6  0  0  0
  8 18  1  0  0  0  0
  9  3  1  1  0  0  0
  9  5  1  0  0  0  0
 14 13  1  6  0  0  0
 14 21  1  0  0  0  0
 15 19  1  6  0  0  0
 15  8  1  0  0  0  0
 16 21  1  0  0  0  0
 16 11  2  0  0  0  0
 17  2  1  0  0  0  0
 17 15  1  0  0  0  0
 18 10  1  1  0  0  0
 18 16  1  0  0  0  0
 21 12  1  1  0  0  0
 22  7  2  0  0  0  0
 23  5  1  0  0  0  0
 24 28  1  0  0  0  0
 24  2  2  0  0  0  0
 25 26  1  0  0  0  0
 27 26  1  0  0  0  0
 29 33  1  6  0  0  0
 29 28  1  0  0  0  0
 29 31  1  0  0  0  0
 31 30  1  0  0  0  0
 32 31  2  0  0  0  0
 34 33  1  0  0  0  0
 35 34  1  0  0  0  0
 36 34  2  0  0  0  0
 37 34  1  0  0  0  0
M  END
>  <MODEL>
1

>  <REMARK>
 VINA RESULT:      -7.1      0.000      0.000
  Name = 
  6 active torsions:
  status: ('A' for Active; 'I' for Inactive)
    1  A    between atoms: C_2  and  P_3
    2  A    between atoms: C_2  and  CA_9
    3  A    between atoms: C_6  and  C_19
    4  A    between atoms: CA_9  and  C_26
    5  A    between atoms: CA_9  and  N_32
    6  A    between atoms: N_32  and  C_37
                            x       y       z     vdW  Elec       q    Type
                         _______ _______ _______ _____ _____    ______ ____

>  <TORSDO>
F 6

$$$$
=
 OpenBabel11072410153D

 37 40  0  0  1  0  0  0  0  0999 V2000
  160.8600  206.1170  147.2620 C   0  0  2  0  0  3  0  0  0  0  0  0
  161.9530  210.6500  149.5980 C   0  0  0  0  0  0  0  0  0  0  0  0
  160.9370  207.8910  148.9470 O   0  0  0  0  0  0  0  0  0  0  0  0
  161.7190  204.8510  147.1150 C   0  0  1  0  0  3  0  0  0  0  0  0
  161.0130  205.4830  149.8020 C   0  0  0  0  0  0  0  0  0  0  0  0
  161.1130  203.7370  147.9620 C   0  0  0  0  0  2  0  0  0  0  0  0
  161.6860  209.5690  151.7140 C   0  0  0  0  0  0  0  0  0  0  0  0
  162.0190  208.2000  151.1210 C   0  0  2  0  0  3  0  0  0  0  0  0
  160.6380  206.5150  148.7270 C   0  0  2  0  0  3  0  0  0  0  0  0
  161.1430  205.8040  151.0930 C   0  0  0  0  0  3  0  0  0  0  0  0
  161.6110  206.4440  153.8820 C   0  0  0  0  0  2  0  0  0  0  0  0
  160.3100  208.5910  155.0440 O   0  0  0  0  0  1  0  0  0  0  0  0
  160.9670  210.9300  153.5590 O   0  0  0  0  0  1  0  0  0  0  0  0
  161.4360  209.6610  153.2030 C   0  0  1  0  0  3  0  0  0  0  0  0
  162.1920  208.1650  149.5680 C   0  0  2  0  0  0  0  0  0  0  0  0
  160.8540  207.2490  153.1250 C   0  0  0  0  0  0  0  0  0  0  0  0
  162.6940  209.4990  149.0180 C   0  0  0  0  0  2  0  0  0  0  0  0
  160.9540  207.1950  151.6210 C   0  0  1  0  0  3  0  0  0  0  0  0
  163.3120  207.1860  149.2010 C   0  0  0  0  0  1  0  0  0  0  0  0
  159.5080  205.9800  146.5730 C   0  0  0  0  0  1  0  0  0  0  0  0
  160.4320  208.5950  153.6510 C   0  0  1  0  0  3  0  0  0  0  0  0
  161.6360  210.6450  150.9870 N   0  0  0  0  0  0  0  0  0  0  0  0
  161.3090  204.0490  149.4410 C   0  0  0  0  0  2  0  0  0  0  0  0
  161.7210  211.7210  148.8490 C   0  0  0  0  0  3  0  0  0  0  0  0
  161.2040  203.1080  145.3780 C   0  0  0  0  0  1  0  0  0  0  0  0
  161.9170  204.4200  145.6540 C   0  0  0  0  0  3  0  0  0  0  0  0
  163.3920  204.2310  145.3460 C   0  0  0  0  0  1  0  0  0  0  0  0
  161.0800  212.8770  149.3890 N   0  0  0  0  0  2  0  0  0  0  0  0
  160.1450  213.6510  148.5910 C   0  0  1  0  0  3  0  0  0  0  0  0
  161.4290  213.8640  146.4510 O   0  0  0  0  0  0  0  0  0  0  0  0
  160.3360  213.3480  147.1390 C   0  0  0  0  0  0  0  0  0  0  0  0
  159.4940  212.6360  146.5340 O   0  0  0  0  0  1  0  0  0  0  0  0
  158.7250  213.3280  149.0280 C   0  0  0  0  0  2  0  0  0  0  0  0
  158.5110  213.6200  150.8100 P   0  0  0  0  0  0  0  0  0  0  0  0
  157.0560  214.4430  151.0660 O   0  0  0  0  0  0  0  0  0  0  0  0
  158.4680  212.1400  151.6260 O   0  0  0  0  0  1  0  0  0  0  0  0
  159.6570  214.4530  151.3380 O   0  0  0  0  0  1  0  0  0  0  0  0
  1 20  1  1  0  0  0
  1  9  1  0  0  0  0
  2 22  1  0  0  0  0
  3 15  1  0  0  0  0
  4 26  1  6  0  0  0
  4  1  1  0  0  0  0
  4  6  1  0  0  0  0
  5 10  2  0  0  0  0
  6 23  1  0  0  0  0
  7 14  1  0  0  0  0
  8 18  1  0  0  0  0
  8  7  1  6  0  0  0
  9  3  1  1  0  0  0
  9  5  1  0  0  0  0
 14 13  1  6  0  0  0
 14 21  1  0  0  0  0
 15 19  1  6  0  0  0
 15  8  1  0  0  0  0
 16 21  1  0  0  0  0
 16 11  2  0  0  0  0
 17 15  1  0  0  0  0
 17  2  1  0  0  0  0
 18 10  1  1  0  0  0
 18 16  1  0  0  0  0
 21 12  1  1  0  0  0
 22  7  2  0  0  0  0
 23  5  1  0  0  0  0
 24 28  1  0  0  0  0
 24  2  2  0  0  0  0
 25 26  1  0  0  0  0
 27 26  1  0  0  0  0
 29 33  1  1  0  0  0
 29 28  1  0  0  0  0
 30 31  2  0  0  0  0
 31 29  1  0  0  0  0
 32 31  1  0  0  0  0
 33 34  1  0  0  0  0
 34 35  2  0  0  0  0
 34 37  1  0  0  0  0
 34 36  1  0  0  0  0
M  END
>  <MODEL>
2

>  <REMARK>
 VINA RESULT:      -6.6      1.127      2.370
  Name = 
  6 active torsions:
  status: ('A' for Active; 'I' for Inactive)
    1  A    between atoms: C_2  and  P_3
    2  A    between atoms: C_2  and  CA_9
    3  A    between atoms: C_6  and  C_19
    4  A    between atoms: CA_9  and  C_26
    5  A    between atoms: CA_9  and  N_32
    6  A    between atoms: N_32  and  C_37
                            x       y       z     vdW  Elec       q    Type
                         _______ _______ _______ _____ _____    ______ ____

>  <TORSDO>
F 6

$$$$
=
 OpenBabel11072410153D

 37 40  0  0  1  0  0  0  0  0999 V2000
  160.8470  205.6580  148.1210 C   0  0  2  0  0  3  0  0  0  0  0  0
  162.1060  210.4560  149.7330 C   0  0  0  0  0  0  0  0  0  0  0  0
  160.9550  207.6830  149.4910 O   0  0  0  0  0  0  0  0  0  0  0  0
  161.6330  204.3420  148.2330 C   0  0  1  0  0  3  0  0  0  0  0  0
  160.8450  205.4530  150.7360 C   0  0  0  0  0  0  0  0  0  0  0  0
  160.9220  203.4200  149.2190 C   0  0  0  0  0  2  0  0  0  0  0  0
  161.6760  209.7620  151.9800 C   0  0  0  0  0  0  0  0  0  0  0  0
  161.9520  208.2970  151.6410 C   0  0  2  0  0  3  0  0  0  0  0  0
  160.5820  206.3070  149.4860 C   0  0  2  0  0  3  0  0  0  0  0  0
  160.9350  205.9800  151.9610 C   0  0  0  0  0  3  0  0  0  0  0  0
  161.3130  207.0540  154.6280 C   0  0  0  0  0  2  0  0  0  0  0  0
  160.0930  209.4310  155.3450 O   0  0  0  0  0  1  0  0  0  0  0  0
  160.9580  211.4490  153.5330 O   0  0  0  0  0  1  0  0  0  0  0  0
  161.3650  210.1160  153.4180 C   0  0  1  0  0  3  0  0  0  0  0  0
  162.1940  207.9930  150.1280 C   0  0  2  0  0  0  0  0  0  0  0  0
  160.6410  207.7590  153.7070 C   0  0  0  0  0  0  0  0  0  0  0  0
  162.8000  209.1870  149.3930 C   0  0  0  0  0  2  0  0  0  0  0  0
  160.8060  207.4470  152.2400 C   0  0  1  0  0  3  0  0  0  0  0  0
  163.2680  206.9090  149.9900 C   0  0  0  0  0  1  0  0  0  0  0  0
  159.5220  205.4780  147.3910 C   0  0  0  0  0  1  0  0  0  0  0  0
  160.2790  209.1940  153.9800 C   0  0  1  0  0  3  0  0  0  0  0  0
  161.7260  210.7010  151.0830 N   0  0  0  0  0  0  0  0  0  0  0  0
  161.0690  203.9650  150.6340 C   0  0  0  0  0  2  0  0  0  0  0  0
  161.9730  211.3970  148.8050 C   0  0  0  0  0  3  0  0  0  0  0  0
  161.6910  204.6520  145.7390 C   0  0  0  0  0  1  0  0  0  0  0  0
  161.8710  203.6620  146.8780 C   0  0  0  0  0  3  0  0  0  0  0  0
  160.8910  202.5200  146.6710 C   0  0  0  0  0  1  0  0  0  0  0  0
  161.3800  212.6580  149.1100 N   0  0  0  0  0  2  0  0  0  0  0  0
  160.8260  213.4950  148.0590 C   0  0  1  0  0  3  0  0  0  0  0  0
  163.1360  214.4520  147.9120 O   0  0  0  0  0  1  0  0  0  0  0  0
  161.9300  214.1490  147.2900 C   0  0  0  0  0  0  0  0  0  0  0  0
  161.7580  214.4430  146.0790 O   0  0  0  0  0  0  0  0  0  0  0  0
  159.9620  212.6430  147.1440 C   0  0  0  0  0  2  0  0  0  0  0  0
  158.2760  213.3160  147.0320 P   0  0  0  0  0  0  0  0  0  0  0  0
  157.2100  212.0740  146.6030 O   0  0  0  0  0  1  0  0  0  0  0  0
  157.8190  213.9520  148.5310 O   0  0  0  0  0  1  0  0  0  0  0  0
  158.2220  214.4060  145.9850 O   0  0  0  0  0  0  0  0  0  0  0  0
  1 20  1  1  0  0  0
  1  4  1  0  0  0  0
  1  9  1  0  0  0  0
  2 22  1  0  0  0  0
  3 15  1  0  0  0  0
  4 26  1  6  0  0  0
  4  6  1  0  0  0  0
  5 10  2  0  0  0  0
  6 23  1  0  0  0  0
  7 14  1  0  0  0  0
  8  7  1  6  0  0  0
  8 18  1  0  0  0  0
  9  3  1  1  0  0  0
  9  5  1  0  0  0  0
 14 13  1  6  0  0  0
 14 21  1  0  0  0  0
 15 19  1  6  0  0  0
 15  8  1  0  0  0  0
 16 21  1  0  0  0  0
 16 11  2  0  0  0  0
 17  2  1  0  0  0  0
 17 15  1  0  0  0  0
 18 10  1  1  0  0  0
 18 16  1  0  0  0  0
 21 12  1  1  0  0  0
 22  7  2  0  0  0  0
 23  5  1  0  0  0  0
 24 28  1  0  0  0  0
 24  2  2  0  0  0  0
 25 26  1  0  0  0  0
 27 26  1  0  0  0  0
 29 33  1  6  0  0  0
 29 28  1  0  0  0  0
 31 30  1  0  0  0  0
 31 29  1  0  0  0  0
 32 31  2  0  0  0  0
 34 33  1  0  0  0  0
 34 36  1  0  0  0  0
 35 34  1  0  0  0  0
 37 34  2  0  0  0  0
M  END
>  <MODEL>
3

>  <REMARK>
 VINA RESULT:      -5.2      1.230      1.934
  Name = 
  6 active torsions:
  status: ('A' for Active; 'I' for Inactive)
    1  A    between atoms: C_2  and  P_3
    2  A    between atoms: C_2  and  CA_9
    3  A    between atoms: C_6  and  C_19
    4  A    between atoms: CA_9  and  C_26
    5  A    between atoms: CA_9  and  N_32
    6  A    between atoms: N_32  and  C_37
                            x       y       z     vdW  Elec       q    Type
                         _______ _______ _______ _____ _____    ______ ____

>  <TORSDO>
F 6

$$$$
