=
 OpenBabel11072411533D

 32 35  0  0  1  0  0  0  0  0999 V2000
  162.3160  205.9300  152.0560 C   0  0  2  0  0  3  0  0  0  0  0  0
  160.8400  212.0200  156.3430 N   0  0  0  0  0  2  0  0  0  0  0  0
  160.3750  207.0710  154.9620 C   0  0  0  0  0  2  0  0  0  0  0  0
  161.8430  209.5910  151.0310 C   0  0  1  0  0  3  0  0  0  0  0  0
  161.6600  210.5630  154.4060 C   0  0  1  0  0  3  0  0  0  0  0  0
  159.5620  208.8280  156.3590 O   0  0  0  0  0  1  0  0  0  0  0  0
  160.7840  211.6140  154.9750 C   0  0  0  0  0  0  0  0  0  0  0  0
  162.5570  208.2600  151.2460 C   0  0  0  0  0  2  0  0  0  0  0  0
  160.0030  212.1740  154.1180 N   0  0  0  0  0  0  0  0  0  0  0  0
  162.1860  210.4780  152.0630 O   0  0  0  0  0  0  0  0  0  0  0  0
  160.1850  211.6060  152.7950 C   0  0  0  0  0  2  0  0  0  0  0  0
  161.6060  209.2490  155.1940 C   0  0  0  0  0  2  0  0  0  0  0  0
  159.9680  213.0490  156.8800 C   0  0  0  0  0  1  0  0  0  0  0  0
  161.9090  205.9070  153.4570 N   0  0  0  0  0  0  0  0  0  0  0  0
  160.2340  208.5760  155.1640 C   0  0  1  0  0  3  0  0  0  0  0  0
  161.1310  210.4190  152.9800 C   0  0  2  0  0  3  0  0  0  0  0  0
  160.6540  207.4700  152.4850 O   0  0  0  0  0  0  0  0  0  0  0  0
  160.9840  206.7820  153.6300 C   0  0  0  0  0  0  0  0  0  0  0  0
  161.5620  207.1220  151.4550 C   0  0  2  0  0  3  0  0  0  0  0  0
  161.8070  209.3380  148.6550 O   0  0  0  0  0  1  0  0  0  0  0  0
  161.6690  211.4390  149.5180 O   0  0  0  0  0  1  0  0  0  0  0  0
  162.2420  210.1750  149.6830 C   0  0  0  0  0  3  0  0  0  0  0  0
  161.8840  204.7060  151.4010 N   0  0  0  0  0  2  0  0  0  0  0  0
  161.7310  205.0000  150.0390 N   0  0  0  0  0  2  0  0  0  0  0  0
  160.9750  203.6630  148.1580 C   0  0  0  0  0  2  0  0  0  0  0  0
  160.6350  204.1810  149.5470 C   0  0  1  0  0  3  0  0  0  0  0  0
  161.3210  202.2020  148.3310 C   0  0  1  0  0  3  0  0  0  0  0  0
  160.5480  201.7430  149.5550 C   0  0  0  0  0  0  0  0  0  0  0  0
  160.9810  201.4100  147.0800 C   0  0  0  0  0  1  0  0  0  0  0  0
  160.4640  202.9630  150.4470 C   0  0  0  0  0  2  0  0  0  0  0  0
  161.2220  200.7230  150.1980 F   0  0  0  0  0  0  0  0  0  0  0  0
  159.2660  201.3320  149.2260 F   0  0  0  0  0  0  0  0  0  0  0  0
  1 23  1  6  0  0  0
  1 14  1  0  0  0  0
  2 13  1  0  0  0  0
  3 15  1  0  0  0  0
  4 22  1  6  0  0  0
  4  8  1  0  0  0  0
  4 10  1  0  0  0  0
  5  7  1  0  0  0  0
  5 12  1  1  0  0  0
  7  2  1  0  0  0  0
  9  7  2  0  0  0  0
 10 16  1  0  0  0  0
 11  9  1  0  0  0  0
 14 18  2  0  0  0  0
 15 12  1  0  0  0  0
 15  6  1  1  0  0  0
 16 11  1  6  0  0  0
 16  5  1  0  0  0  0
 17 18  1  0  0  0  0
 18  3  1  0  0  0  0
 19  8  1  1  0  0  0
 19  1  1  0  0  0  0
 19 17  1  0  0  0  0
 20 22  1  0  0  0  0
 21 22  1  0  0  0  0
 24 23  1  0  0  0  0
 25 27  1  0  0  0  0
 25 26  1  0  0  0  0
 26 24  1  1  0  0  0
 26 30  1  0  0  0  0
 27 29  1  6  0  0  0
 27 28  1  0  0  0  0
 28 31  1  0  0  0  0
 28 30  1  0  0  0  0
 32 28  1  0  0  0  0
M  END
>  <MODEL>
1

>  <REMARK>
 VINA RESULT:      -9.4      0.000      0.000
  Name = 
  4 active torsions:
  status: ('A' for Active; 'I' for Inactive)
    1  A    between atoms: C_2  and  N_13
    2  A    between atoms: C_3  and  N_12
    3  A    between atoms: C_8  and  C_27
    4  A    between atoms: N_12  and  N_13
                            x       y       z     vdW  Elec       q    Type
                         _______ _______ _______ _____ _____    ______ ____

>  <TORSDO>
F 4

$$$$
=
 OpenBabel11072411533D

 32 35  0  0  1  0  0  0  0  0999 V2000
  162.0380  205.8120  151.6750 C   0  0  2  0  0  3  0  0  0  0  0  0
  161.2370  211.5420  156.5920 N   0  0  0  0  0  2  0  0  0  0  0  0
  160.2910  206.8170  154.7510 C   0  0  0  0  0  2  0  0  0  0  0  0
  161.8640  209.5840  151.0340 C   0  0  1  0  0  3  0  0  0  0  0  0
  161.8660  210.2230  154.4920 C   0  0  1  0  0  3  0  0  0  0  0  0
  159.6800  208.4870  156.3430 O   0  0  0  0  0  1  0  0  0  0  0  0
  161.1050  211.2830  155.1940 C   0  0  0  0  0  0  0  0  0  0  0  0
  162.4620  208.1820  151.0900 C   0  0  0  0  0  2  0  0  0  0  0  0
  160.3520  211.9920  154.4270 N   0  0  0  0  0  0  0  0  0  0  0  0
  162.3140  210.3300  152.1330 O   0  0  0  0  0  0  0  0  0  0  0  0
  160.4440  211.5470  153.0470 C   0  0  0  0  0  2  0  0  0  0  0  0
  161.7180  208.8460  155.1490 C   0  0  0  0  0  2  0  0  0  0  0  0
  160.4760  212.5830  157.2600 C   0  0  0  0  0  1  0  0  0  0  0  0
  161.6710  205.6820  153.0830 N   0  0  0  0  0  0  0  0  0  0  0  0
  160.2910  208.3000  155.1050 C   0  0  1  0  0  3  0  0  0  0  0  0
  161.2850  210.2700  153.0800 C   0  0  2  0  0  3  0  0  0  0  0  0
  160.5330  207.4380  152.3160 O   0  0  0  0  0  0  0  0  0  0  0  0
  160.8330  206.6120  153.3750 C   0  0  0  0  0  0  0  0  0  0  0  0
  161.3750  207.1190  151.2240 C   0  0  2  0  0  3  0  0  0  0  0  0
  161.8890  209.4830  148.6460 O   0  0  0  0  0  1  0  0  0  0  0  0
  161.6660  211.5200  149.6370 O   0  0  0  0  0  1  0  0  0  0  0  0
  162.2740  210.2660  149.7350 C   0  0  0  0  0  3  0  0  0  0  0  0
  161.4790  204.7020  150.9200 N   0  0  0  0  0  2  0  0  0  0  0  0
  160.9020  205.2420  149.7630 N   0  0  0  0  0  2  0  0  0  0  0  0
  161.5670  203.7890  147.9340 C   0  0  0  0  0  2  0  0  0  0  0  0
  161.8670  205.0740  148.6880 C   0  0  1  0  0  3  0  0  0  0  0  0
  160.9420  204.2110  146.6250 C   0  0  1  0  0  3  0  0  0  0  0  0
  161.5000  205.5920  146.3330 C   0  0  0  0  0  0  0  0  0  0  0  0
  161.2430  203.2030  145.5280 C   0  0  0  0  0  1  0  0  0  0  0  0
  161.7260  206.2190  147.6930 C   0  0  0  0  0  2  0  0  0  0  0  0
  160.5920  206.3370  145.6050 F   0  0  0  0  0  0  0  0  0  0  0  0
  162.7090  205.5240  145.6580 F   0  0  0  0  0  0  0  0  0  0  0  0
  1 23  1  6  0  0  0
  1 14  1  0  0  0  0
  2 13  1  0  0  0  0
  3 15  1  0  0  0  0
  4 22  1  6  0  0  0
  4  8  1  0  0  0  0
  4 10  1  0  0  0  0
  5 12  1  1  0  0  0
  5  7  1  0  0  0  0
  7  2  1  0  0  0  0
  9  7  2  0  0  0  0
 10 16  1  0  0  0  0
 11  9  1  0  0  0  0
 14 18  2  0  0  0  0
 15 12  1  0  0  0  0
 15  6  1  1  0  0  0
 16 11  1  1  0  0  0
 16  5  1  0  0  0  0
 17 18  1  0  0  0  0
 18  3  1  0  0  0  0
 19  8  1  1  0  0  0
 19  1  1  0  0  0  0
 19 17  1  0  0  0  0
 20 22  1  0  0  0  0
 21 22  1  0  0  0  0
 24 23  1  0  0  0  0
 25 26  1  0  0  0  0
 26 24  1  1  0  0  0
 27 29  1  6  0  0  0
 27 25  1  0  0  0  0
 28 27  1  0  0  0  0
 28 30  1  0  0  0  0
 30 26  1  0  0  0  0
 31 28  1  0  0  0  0
 32 28  1  0  0  0  0
M  END
>  <MODEL>
2

>  <REMARK>
 VINA RESULT:      -8.7      1.923      2.249
  Name = 
  4 active torsions:
  status: ('A' for Active; 'I' for Inactive)
    1  A    between atoms: C_2  and  N_13
    2  A    between atoms: C_3  and  N_12
    3  A    between atoms: C_8  and  C_27
    4  A    between atoms: N_12  and  N_13
                            x       y       z     vdW  Elec       q    Type
                         _______ _______ _______ _____ _____    ______ ____

>  <TORSDO>
F 4

$$$$
=
 OpenBabel11072411533D

 32 35  0  0  1  0  0  0  0  0999 V2000
  160.6620  207.2470  153.9710 C   0  0  2  0  0  3  0  0  0  0  0  0
  160.8290  204.5660  146.8680 N   0  0  0  0  0  2  0  0  0  0  0  0
  161.3490  204.2260  151.9900 C   0  0  0  0  0  2  0  0  0  0  0  0
  161.8540  208.9320  150.7440 C   0  0  1  0  0  3  0  0  0  0  0  0
  160.7370  206.1930  148.8420 C   0  0  1  0  0  3  0  0  0  0  0  0
  161.6830  203.1520  149.8840 O   0  0  0  0  0  1  0  0  0  0  0  0
  161.4000  205.6190  147.6470 C   0  0  0  0  0  0  0  0  0  0  0  0
  160.9930  208.6810  151.9780 C   0  0  0  0  0  2  0  0  0  0  0  0
  162.5110  206.1880  147.3330 N   0  0  0  0  0  0  0  0  0  0  0  0
  161.2060  208.4210  149.6090 O   0  0  0  0  0  0  0  0  0  0  0  0
  162.8320  207.2580  148.2610 C   0  0  0  0  0  2  0  0  0  0  0  0
  160.3410  205.1300  149.8730 C   0  0  0  0  0  2  0  0  0  0  0  0
  161.5000  204.0160  145.7040 C   0  0  0  0  0  1  0  0  0  0  0  0
  160.4590  205.8550  153.5800 N   0  0  0  0  0  0  0  0  0  0  0  0
  161.5360  204.4010  150.4870 C   0  0  1  0  0  3  0  0  0  0  0  0
  161.7850  207.1690  149.3720 C   0  0  2  0  0  3  0  0  0  0  0  0
  162.1420  206.5990  152.3240 O   0  0  0  0  0  0  0  0  0  0  0  0
  161.3110  205.5560  152.6650 C   0  0  0  0  0  0  0  0  0  0  0  0
  161.7040  207.7760  152.9790 C   0  0  2  0  0  3  0  0  0  0  0  0
  161.9560  210.7870  149.2400 O   0  0  0  0  0  1  0  0  0  0  0  0
  161.1800  211.1490  151.3490 O   0  0  0  0  0  1  0  0  0  0  0  0
  162.0970  210.4270  150.5810 C   0  0  0  0  0  3  0  0  0  0  0  0
  161.2060  207.3020  155.3180 N   0  0  0  0  0  2  0  0  0  0  0  0
  160.1280  207.5110  156.1880 N   0  0  0  0  0  2  0  0  0  0  0  0
  161.8970  208.9490  157.0250 C   0  0  0  0  0  2  0  0  0  0  0  0
  160.3950  208.7450  156.9080 C   0  0  1  0  0  3  0  0  0  0  0  0
  162.2470  210.0410  156.0400 C   0  0  1  0  0  3  0  0  0  0  0  0
  160.9950  210.8890  155.9110 C   0  0  0  0  0  0  0  0  0  0  0  0
  163.4560  210.8310  156.5110 C   0  0  0  0  0  1  0  0  0  0  0  0
  159.8450  209.9260  156.1170 C   0  0  0  0  0  2  0  0  0  0  0  0
  160.9250  211.4590  154.6540 F   0  0  0  0  0  0  0  0  0  0  0  0
  160.9410  211.8750  156.8840 F   0  0  0  0  0  0  0  0  0  0  0  0
  1 23  1  1  0  0  0
  2  7  1  0  0  0  0
  3 18  1  0  0  0  0
  4 22  1  6  0  0  0
  4  8  1  0  0  0  0
  5 16  1  0  0  0  0
  5 12  1  1  0  0  0
  7  5  1  0  0  0  0
  9  7  2  0  0  0  0
  9 11  1  0  0  0  0
 10  4  1  0  0  0  0
 12 15  1  0  0  0  0
 13  2  1  0  0  0  0
 14  1  1  0  0  0  0
 15  6  1  6  0  0  0
 15  3  1  0  0  0  0
 16 11  1  6  0  0  0
 16 10  1  0  0  0  0
 17 18  1  0  0  0  0
 17 19  1  0  0  0  0
 18 14  2  0  0  0  0
 19  8  1  6  0  0  0
 19  1  1  0  0  0  0
 20 22  1  0  0  0  0
 22 21  1  0  0  0  0
 23 24  1  0  0  0  0
 26 24  1  6  0  0  0
 26 25  1  0  0  0  0
 27 29  1  1  0  0  0
 27 25  1  0  0  0  0
 28 27  1  0  0  0  0
 28 30  1  0  0  0  0
 28 32  1  0  0  0  0
 30 26  1  0  0  0  0
 31 28  1  0  0  0  0
M  END
>  <MODEL>
3

>  <REMARK>
 VINA RESULT:      -7.8      3.733      7.804
  Name = 
  4 active torsions:
  status: ('A' for Active; 'I' for Inactive)
    1  A    between atoms: C_2  and  N_13
    2  A    between atoms: C_3  and  N_12
    3  A    between atoms: C_8  and  C_27
    4  A    between atoms: N_12  and  N_13
                            x       y       z     vdW  Elec       q    Type
                         _______ _______ _______ _____ _____    ______ ____

>  <TORSDO>
F 4

$$$$
=
 OpenBabel11072411533D

 32 35  0  0  1  0  0  0  0  0999 V2000
  162.3320  207.9230  149.8680 C   0  0  2  0  0  3  0  0  0  0  0  0
  161.2070  201.5470  145.9010 N   0  0  0  0  0  2  0  0  0  0  0  0
  161.0080  206.6420  146.6860 C   0  0  0  0  0  2  0  0  0  0  0  0
  161.2090  204.4610  151.0620 C   0  0  1  0  0  3  0  0  0  0  0  0
  161.7120  203.1330  147.8450 C   0  0  1  0  0  3  0  0  0  0  0  0
  160.3480  204.8200  145.2920 O   0  0  0  0  0  1  0  0  0  0  0  0
  160.8780  202.1090  147.1730 C   0  0  0  0  0  0  0  0  0  0  0  0
  162.1030  205.6880  150.9130 C   0  0  0  0  0  2  0  0  0  0  0  0
  159.8580  201.7230  147.8570 N   0  0  0  0  0  0  0  0  0  0  0  0
  161.6790  203.4350  150.2290 O   0  0  0  0  0  0  0  0  0  0  0  0
  159.7890  202.4190  149.1300 C   0  0  0  0  0  2  0  0  0  0  0  0
  161.9980  204.3480  146.9560 C   0  0  0  0  0  2  0  0  0  0  0  0
  160.3710  200.5480  145.2590 C   0  0  0  0  0  1  0  0  0  0  0  0
  162.2710  207.8240  148.4130 N   0  0  0  0  0  0  0  0  0  0  0  0
  160.7450  205.1430  146.5880 C   0  0  1  0  0  3  0  0  0  0  0  0
  160.8830  203.4860  149.0790 C   0  0  2  0  0  3  0  0  0  0  0  0
  160.6500  206.5030  149.1810 O   0  0  0  0  0  0  0  0  0  0  0  0
  161.3170  207.0230  148.0960 C   0  0  0  0  0  0  0  0  0  0  0  0
  161.3240  206.8810  150.3670 C   0  0  2  0  0  3  0  0  0  0  0  0
  161.1670  205.1030  153.3640 O   0  0  0  0  0  1  0  0  0  0  0  0
  160.0980  203.1870  152.7600 O   0  0  0  0  0  1  0  0  0  0  0  0
  161.2090  203.9980  152.5140 C   0  0  0  0  0  3  0  0  0  0  0  0
  161.9030  209.2480  150.2870 N   0  0  0  0  0  2  0  0  0  0  0  0
  162.1340  209.3370  151.6660 N   0  0  0  0  0  2  0  0  0  0  0  0
  160.8300  208.5250  153.5480 C   0  0  0  0  0  2  0  0  0  0  0  0
  160.8330  209.4090  152.3110 C   0  0  1  0  0  3  0  0  0  0  0  0
  160.9060  209.4630  154.7310 C   0  0  1  0  0  3  0  0  0  0  0  0
  160.2690  210.7590  154.2630 C   0  0  0  0  0  0  0  0  0  0  0  0
  160.2150  208.8640  155.9450 C   0  0  0  0  0  1  0  0  0  0  0  0
  160.5750  210.8360  152.7820 C   0  0  0  0  0  2  0  0  0  0  0  0
  160.8260  211.8370  154.9250 F   0  0  0  0  0  0  0  0  0  0  0  0
  158.8950  210.7490  154.4430 F   0  0  0  0  0  0  0  0  0  0  0  0
  1 23  1  6  0  0  0
  1 19  1  0  0  0  0
  2  7  1  0  0  0  0
  3 18  1  0  0  0  0
  4 22  1  1  0  0  0
  5 12  1  6  0  0  0
  5 16  1  0  0  0  0
  7  5  1  0  0  0  0
  7  9  2  0  0  0  0
  8  4  1  0  0  0  0
  9 11  1  0  0  0  0
 10  4  1  0  0  0  0
 13  2  1  0  0  0  0
 14  1  1  0  0  0  0
 15  6  1  6  0  0  0
 15  3  1  0  0  0  0
 15 12  1  0  0  0  0
 16 11  1  1  0  0  0
 16 10  1  0  0  0  0
 17 19  1  0  0  0  0
 18 14  2  0  0  0  0
 18 17  1  0  0  0  0
 19  8  1  6  0  0  0
 22 21  1  0  0  0  0
 22 20  1  0  0  0  0
 23 24  1  0  0  0  0
 25 27  1  0  0  0  0
 26 24  1  1  0  0  0
 26 30  1  0  0  0  0
 26 25  1  0  0  0  0
 27 29  1  1  0  0  0
 28 32  1  0  0  0  0
 28 27  1  0  0  0  0
 28 31  1  0  0  0  0
 30 28  1  0  0  0  0
M  END
>  <MODEL>
4

>  <REMARK>
 VINA RESULT:      -7.5      3.964      8.989
  Name = 
  4 active torsions:
  status: ('A' for Active; 'I' for Inactive)
    1  A    between atoms: C_2  and  N_13
    2  A    between atoms: C_3  and  N_12
    3  A    between atoms: C_8  and  C_27
    4  A    between atoms: N_12  and  N_13
                            x       y       z     vdW  Elec       q    Type
                         _______ _______ _______ _____ _____    ______ ____

>  <TORSDO>
F 4

$$$$
=
 OpenBabel11072411533D

 32 35  0  0  1  0  0  0  0  0999 V2000
  161.1810  206.5140  148.2200 C   0  0  2  0  0  3  0  0  0  0  0  0
  160.5250  209.7350  155.0640 N   0  0  0  0  0  2  0  0  0  0  0  0
  162.2690  209.4000  150.2200 C   0  0  0  0  0  2  0  0  0  0  0  0
  161.0540  204.8920  151.6880 C   0  0  1  0  0  3  0  0  0  0  0  0
  160.4020  208.0110  153.1770 C   0  0  1  0  0  3  0  0  0  0  0  0
  162.4210  210.5410  152.3120 O   0  0  0  0  0  1  0  0  0  0  0  0
  160.9170  208.4910  154.4810 C   0  0  0  0  0  0  0  0  0  0  0  0
  160.6090  205.2510  150.2730 C   0  0  0  0  0  2  0  0  0  0  0  0
  161.7070  207.6660  155.0750 N   0  0  0  0  0  0  0  0  0  0  0  0
  160.3480  205.6760  152.6130 O   0  0  0  0  0  0  0  0  0  0  0  0
  161.8960  206.4620  154.2860 C   0  0  0  0  0  2  0  0  0  0  0  0
  160.5850  209.0340  152.0490 C   0  0  0  0  0  2  0  0  0  0  0  0
  161.0470  210.1870  156.3420 C   0  0  0  0  0  1  0  0  0  0  0  0
  161.3190  207.9380  148.5080 N   0  0  0  0  0  0  0  0  0  0  0  0
  162.0500  209.3310  151.7280 C   0  0  1  0  0  3  0  0  0  0  0  0
  161.2040  206.7310  152.9490 C   0  0  2  0  0  3  0  0  0  0  0  0
  162.3730  206.8790  150.1600 O   0  0  0  0  0  0  0  0  0  0  0  0
  161.9910  208.0740  149.5950 C   0  0  0  0  0  0  0  0  0  0  0  0
  161.7650  205.8140  149.4520 C   0  0  2  0  0  3  0  0  0  0  0  0
  159.9840  202.8890  150.9430 O   0  0  0  0  0  1  0  0  0  0  0  0
  162.0040  202.7130  151.9760 O   0  0  0  0  0  1  0  0  0  0  0  0
  160.7960  203.4140  151.9490 C   0  0  0  0  0  3  0  0  0  0  0  0
  161.9750  206.1730  147.0500 N   0  0  0  0  0  2  0  0  0  0  0  0
  161.1540  205.4160  146.2030 N   0  0  0  0  0  2  0  0  0  0  0  0
  161.7990  203.4200  147.4280 C   0  0  0  0  0  2  0  0  0  0  0  0
  161.7710  204.1060  146.0710 C   0  0  1  0  0  3  0  0  0  0  0  0
  160.7240  202.3580  147.3800 C   0  0  1  0  0  3  0  0  0  0  0  0
  160.5990  201.9720  145.9170 C   0  0  0  0  0  0  0  0  0  0  0  0
  161.0780  201.1840  148.2770 C   0  0  0  0  0  1  0  0  0  0  0  0
  160.9280  203.2350  145.1480 C   0  0  0  0  0  2  0  0  0  0  0  0
  159.3100  201.5610  145.6340 F   0  0  0  0  0  0  0  0  0  0  0  0
  161.5010  200.9800  145.5690 F   0  0  0  0  0  0  0  0  0  0  0  0
  1 23  1  6  0  0  0
  1 14  1  0  0  0  0
  1 19  1  0  0  0  0
  2 13  1  0  0  0  0
  3 15  1  0  0  0  0
  4 22  1  1  0  0  0
  4 10  1  0  0  0  0
  5 12  1  6  0  0  0
  5  7  1  0  0  0  0
  7  2  1  0  0  0  0
  7  9  2  0  0  0  0
  8  4  1  0  0  0  0
 10 16  1  0  0  0  0
 11  9  1  0  0  0  0
 14 18  2  0  0  0  0
 15 12  1  0  0  0  0
 15  6  1  1  0  0  0
 16  5  1  0  0  0  0
 16 11  1  1  0  0  0
 18 17  1  0  0  0  0
 18  3  1  0  0  0  0
 19 17  1  0  0  0  0
 19  8  1  1  0  0  0
 20 22  1  0  0  0  0
 22 21  1  0  0  0  0
 24 23  1  0  0  0  0
 26 24  1  1  0  0  0
 26 25  1  0  0  0  0
 27 25  1  0  0  0  0
 27 29  1  1  0  0  0
 28 27  1  0  0  0  0
 30 28  1  0  0  0  0
 30 26  1  0  0  0  0
 31 28  1  0  0  0  0
 32 28  1  0  0  0  0
M  END
>  <MODEL>
5

>  <REMARK>
 VINA RESULT:      -7.4      2.452      4.535
  Name = 
  4 active torsions:
  status: ('A' for Active; 'I' for Inactive)
    1  A    between atoms: C_2  and  N_13
    2  A    between atoms: C_3  and  N_12
    3  A    between atoms: C_8  and  C_27
    4  A    between atoms: N_12  and  N_13
                            x       y       z     vdW  Elec       q    Type
                         _______ _______ _______ _____ _____    ______ ____

>  <TORSDO>
F 4

$$$$
=
 OpenBabel11072411533D

 32 35  0  0  1  0  0  0  0  0999 V2000
  161.0840  208.6720  152.2430 C   0  0  2  0  0  3  0  0  0  0  0  0
  156.2820  213.2800  155.8970 N   0  0  0  0  0  2  0  0  0  0  0  0
  159.7010  212.0790  152.2250 C   0  0  0  0  0  2  0  0  0  0  0  0
  160.4290  209.0480  155.9980 C   0  0  1  0  0  3  0  0  0  0  0  0
  157.7870  211.2810  155.3650 C   0  0  1  0  0  3  0  0  0  0  0  0
  158.4280  213.8110  153.2640 O   0  0  0  0  0  1  0  0  0  0  0  0
  157.4330  212.4780  156.1630 C   0  0  0  0  0  0  0  0  0  0  0  0
  160.4630  208.3850  154.6240 C   0  0  0  0  0  2  0  0  0  0  0  0
  158.2210  212.7050  157.1550 N   0  0  0  0  0  0  0  0  0  0  0  0
  159.1290  209.5030  156.2660 O   0  0  0  0  0  0  0  0  0  0  0  0
  159.2770  211.7110  157.2240 C   0  0  0  0  0  2  0  0  0  0  0  0
  157.8630  211.5670  153.8600 C   0  0  0  0  0  2  0  0  0  0  0  0
  155.9580  214.4530  156.6900 C   0  0  0  0  0  1  0  0  0  0  0  0
  160.3680  209.7990  151.6520 N   0  0  0  0  0  0  0  0  0  0  0  0
  158.9730  212.5460  153.4810 C   0  0  1  0  0  3  0  0  0  0  0  0
  159.1340  210.8680  155.9560 C   0  0  2  0  0  3  0  0  0  0  0  0
  161.0610  210.4990  153.6500 O   0  0  0  0  0  0  0  0  0  0  0  0
  160.3920  210.7810  152.4800 C   0  0  0  0  0  0  0  0  0  0  0  0
  161.3990  209.1250  153.6730 C   0  0  2  0  0  3  0  0  0  0  0  0
  160.0810  206.8960  156.9780 O   0  0  0  0  0  1  0  0  0  0  0  0
  162.2050  207.7050  156.8800 O   0  0  0  0  0  1  0  0  0  0  0  0
  160.8640  208.0480  157.0620 C   0  0  0  0  0  3  0  0  0  0  0  0
  162.3270  208.4510  151.5210 N   0  0  0  0  0  2  0  0  0  0  0  0
  162.6160  207.0830  151.6120 N   0  0  0  0  0  2  0  0  0  0  0  0
  161.2700  205.8890  149.9800 C   0  0  0  0  0  2  0  0  0  0  0  0
  161.3640  206.3700  151.4190 C   0  0  1  0  0  3  0  0  0  0  0  0
  161.5270  204.4000  150.0210 C   0  0  1  0  0  3  0  0  0  0  0  0
  161.0770  203.9470  151.3990 C   0  0  0  0  0  0  0  0  0  0  0  0
  160.7960  203.6900  148.8940 C   0  0  0  0  0  1  0  0  0  0  0  0
  161.3410  205.1300  152.3060 C   0  0  0  0  0  2  0  0  0  0  0  0
  161.8120  202.8520  151.8120 F   0  0  0  0  0  0  0  0  0  0  0  0
  159.7240  203.6480  151.4240 F   0  0  0  0  0  0  0  0  0  0  0  0
  1 23  1  6  0  0  0
  1 19  1  0  0  0  0
  2  7  1  0  0  0  0
  2 13  1  0  0  0  0
  3 18  1  0  0  0  0
  3 15  1  0  0  0  0
  4 10  1  0  0  0  0
  4 22  1  1  0  0  0
  5 12  1  6  0  0  0
  5 16  1  0  0  0  0
  5  7  1  0  0  0  0
  7  9  2  0  0  0  0
  8  4  1  0  0  0  0
  9 11  1  0  0  0  0
 14  1  1  0  0  0  0
 14 18  2  0  0  0  0
 15  6  1  6  0  0  0
 15 12  1  0  0  0  0
 16 10  1  0  0  0  0
 16 11  1  1  0  0  0
 17 19  1  0  0  0  0
 18 17  1  0  0  0  0
 19  8  1  1  0  0  0
 20 22  1  0  0  0  0
 21 22  1  0  0  0  0
 23 24  1  0  0  0  0
 25 27  1  0  0  0  0
 25 26  1  0  0  0  0
 26 24  1  6  0  0  0
 26 30  1  0  0  0  0
 27 29  1  6  0  0  0
 27 28  1  0  0  0  0
 28 32  1  0  0  0  0
 28 31  1  0  0  0  0
 28 30  1  0  0  0  0
M  END
>  <MODEL>
6

>  <REMARK>
 VINA RESULT:      -7.3      2.425      4.551
  Name = 
  4 active torsions:
  status: ('A' for Active; 'I' for Inactive)
    1  A    between atoms: C_2  and  N_13
    2  A    between atoms: C_3  and  N_12
    3  A    between atoms: C_8  and  C_27
    4  A    between atoms: N_12  and  N_13
                            x       y       z     vdW  Elec       q    Type
                         _______ _______ _______ _____ _____    ______ ____

>  <TORSDO>
F 4

$$$$
=
 OpenBabel11072411533D

 32 35  0  0  1  0  0  0  0  0999 V2000
  161.1210  209.0870  152.5420 C   0  0  2  0  0  3  0  0  0  0  0  0
  156.1290  213.2040  156.5150 N   0  0  0  0  0  2  0  0  0  0  0  0
  158.8440  211.9650  152.3070 C   0  0  0  0  0  2  0  0  0  0  0  0
  161.2360  210.2140  156.2010 C   0  0  1  0  0  3  0  0  0  0  0  0
  157.9900  211.5430  155.9460 C   0  0  1  0  0  3  0  0  0  0  0  0
  157.3890  213.5540  153.3350 O   0  0  0  0  0  1  0  0  0  0  0  0
  157.4920  212.7830  156.5860 C   0  0  0  0  0  0  0  0  0  0  0  0
  161.1540  209.2600  155.0140 C   0  0  0  0  0  2  0  0  0  0  0  0
  158.3800  213.4250  157.2610 N   0  0  0  0  0  0  0  0  0  0  0  0
  159.9540  210.4060  156.7370 O   0  0  0  0  0  0  0  0  0  0  0  0
  159.6660  212.7530  157.2060 C   0  0  0  0  0  2  0  0  0  0  0  0
  157.6440  211.4580  154.4560 C   0  0  0  0  0  2  0  0  0  0  0  0
  155.6640  214.4270  157.1450 C   0  0  0  0  0  1  0  0  0  0  0  0
  159.9970  209.8340  151.9850 N   0  0  0  0  0  0  0  0  0  0  0  0
  158.3100  212.5450  153.6120 C   0  0  1  0  0  3  0  0  0  0  0  0
  159.4950  211.6140  156.2000 C   0  0  2  0  0  3  0  0  0  0  0  0
  160.8830  211.1480  153.5510 O   0  0  0  0  0  0  0  0  0  0  0  0
  159.9200  210.9680  152.5850 C   0  0  0  0  0  0  0  0  0  0  0  0
  161.6010  209.9390  153.7220 C   0  0  2  0  0  3  0  0  0  0  0  0
  162.2750  208.2570  157.0960 O   0  0  0  0  0  1  0  0  0  0  0  0
  163.4340  210.2140  157.1530 O   0  0  0  0  0  1  0  0  0  0  0  0
  162.1660  209.6370  157.2610 C   0  0  0  0  0  3  0  0  0  0  0  0
  162.1820  208.9910  151.5530 N   0  0  0  0  0  2  0  0  0  0  0  0
  161.5740  208.6990  150.3250 N   0  0  0  0  0  2  0  0  0  0  0  0
  161.7020  206.2780  150.4630 C   0  0  0  0  0  2  0  0  0  0  0  0
  162.2430  207.5270  149.7850 C   0  0  1  0  0  3  0  0  0  0  0  0
  160.8060  205.6090  149.4460 C   0  0  1  0  0  3  0  0  0  0  0  0
  161.3530  206.0160  148.0900 C   0  0  0  0  0  0  0  0  0  0  0  0
  160.7800  204.1030  149.6500 C   0  0  0  0  0  1  0  0  0  0  0  0
  161.9310  207.3990  148.2990 C   0  0  0  0  0  2  0  0  0  0  0  0
  160.3400  206.0560  147.1510 F   0  0  0  0  0  0  0  0  0  0  0  0
  162.3600  205.1620  147.6660 F   0  0  0  0  0  0  0  0  0  0  0  0
  1 23  1  6  0  0  0
  1 19  1  0  0  0  0
  2  7  1  0  0  0  0
  2 13  1  0  0  0  0
  3 18  1  0  0  0  0
  3 15  1  0  0  0  0
  4 10  1  0  0  0  0
  4 22  1  1  0  0  0
  5 12  1  6  0  0  0
  5 16  1  0  0  0  0
  5  7  1  0  0  0  0
  7  9  2  0  0  0  0
  8  4  1  0  0  0  0
 11  9  1  0  0  0  0
 14  1  1  0  0  0  0
 14 18  2  0  0  0  0
 15  6  1  6  0  0  0
 15 12  1  0  0  0  0
 16 10  1  0  0  0  0
 16 11  1  1  0  0  0
 17 19  1  0  0  0  0
 18 17  1  0  0  0  0
 19  8  1  1  0  0  0
 20 22  1  0  0  0  0
 21 22  1  0  0  0  0
 24 23  1  0  0  0  0
 26 24  1  1  0  0  0
 26 25  1  0  0  0  0
 27 29  1  1  0  0  0
 27 25  1  0  0  0  0
 28 30  1  0  0  0  0
 28 27  1  0  0  0  0
 30 26  1  0  0  0  0
 31 28  1  0  0  0  0
 32 28  1  0  0  0  0
M  END
>  <MODEL>
7

>  <REMARK>
 VINA RESULT:      -7.3      2.931      4.942
  Name = 
  4 active torsions:
  status: ('A' for Active; 'I' for Inactive)
    1  A    between atoms: C_2  and  N_13
    2  A    between atoms: C_3  and  N_12
    3  A    between atoms: C_8  and  C_27
    4  A    between atoms: N_12  and  N_13
                            x       y       z     vdW  Elec       q    Type
                         _______ _______ _______ _____ _____    ______ ____

>  <TORSDO>
F 4

$$$$
=
 OpenBabel11072411533D

 32 35  0  0  1  0  0  0  0  0999 V2000
  162.3970  207.1660  150.4610 C   0  0  2  0  0  3  0  0  0  0  0  0
  160.7690  211.6730  156.3510 N   0  0  0  0  0  2  0  0  0  0  0  0
  160.8350  207.1960  153.7890 C   0  0  0  0  0  2  0  0  0  0  0  0
  161.2000  210.8050  150.5040 C   0  0  1  0  0  3  0  0  0  0  0  0
  161.4560  210.8990  154.0100 C   0  0  1  0  0  3  0  0  0  0  0  0
  160.0160  208.3840  155.6910 O   0  0  0  0  0  1  0  0  0  0  0  0
  160.5410  211.5990  154.9430 C   0  0  0  0  0  0  0  0  0  0  0  0
  162.1350  209.6230  150.2680 C   0  0  0  0  0  2  0  0  0  0  0  0
  159.5470  212.1850  154.3710 N   0  0  0  0  0  0  0  0  0  0  0  0
  161.5760  211.4720  151.6800 O   0  0  0  0  0  0  0  0  0  0  0  0
  159.5830  211.9910  152.9330 C   0  0  0  0  0  2  0  0  0  0  0  0
  161.7400  209.4520  154.4250 C   0  0  0  0  0  2  0  0  0  0  0  0
  159.8560  212.3600  157.2470 C   0  0  0  0  0  1  0  0  0  0  0  0
  162.2460  206.7350  151.8480 N   0  0  0  0  0  0  0  0  0  0  0  0
  160.5030  208.5540  154.3960 C   0  0  1  0  0  3  0  0  0  0  0  0
  160.7170  210.9970  152.6770 C   0  0  2  0  0  3  0  0  0  0  0  0
  160.6180  208.2140  151.4890 O   0  0  0  0  0  0  0  0  0  0  0  0
  161.2420  207.3510  152.3610 C   0  0  0  0  0  0  0  0  0  0  0  0
  161.3770  208.2990  150.2970 C   0  0  2  0  0  3  0  0  0  0  0  0
  160.8850  213.0380  149.7150 O   0  0  0  0  0  1  0  0  0  0  0  0
  162.5660  211.8020  148.8080 O   0  0  0  0  0  1  0  0  0  0  0  0
  161.2660  211.7570  149.3170 C   0  0  0  0  0  3  0  0  0  0  0  0
  162.0510  206.0720  149.5680 N   0  0  0  0  0  2  0  0  0  0  0  0
  161.2460  206.6080  148.5540 N   0  0  0  0  0  2  0  0  0  0  0  0
  160.5460  206.0380  146.2990 C   0  0  0  0  0  2  0  0  0  0  0  0
  160.8600  205.5060  147.6890 C   0  0  1  0  0  3  0  0  0  0  0  0
  161.7170  205.6470  145.4280 C   0  0  1  0  0  3  0  0  0  0  0  0
  162.2900  204.3900  146.0570 C   0  0  0  0  0  0  0  0  0  0  0  0
  161.2810  205.4460  143.9870 C   0  0  0  0  0  1  0  0  0  0  0  0
  162.0290  204.5390  147.5410 C   0  0  0  0  0  2  0  0  0  0  0  0
  163.6480  204.3040  145.8150 F   0  0  0  0  0  0  0  0  0  0  0  0
  161.6520  203.2490  145.5970 F   0  0  0  0  0  0  0  0  0  0  0  0
  1 23  1  6  0  0  0
  1 14  1  0  0  0  0
  2 13  1  0  0  0  0
  3 15  1  0  0  0  0
  4 22  1  6  0  0  0
  4 10  1  0  0  0  0
  5 12  1  1  0  0  0
  5  7  1  0  0  0  0
  7  2  1  0  0  0  0
  8  4  1  0  0  0  0
  9  7  2  0  0  0  0
 10 16  1  0  0  0  0
 11  9  1  0  0  0  0
 14 18  2  0  0  0  0
 15 12  1  0  0  0  0
 15  6  1  1  0  0  0
 16 11  1  1  0  0  0
 16  5  1  0  0  0  0
 17 18  1  0  0  0  0
 18  3  1  0  0  0  0
 19  8  1  1  0  0  0
 19  1  1  0  0  0  0
 19 17  1  0  0  0  0
 21 22  1  0  0  0  0
 22 20  1  0  0  0  0
 24 23  1  0  0  0  0
 25 26  1  0  0  0  0
 26 24  1  1  0  0  0
 27 29  1  6  0  0  0
 27 28  1  0  0  0  0
 27 25  1  0  0  0  0
 28 30  1  0  0  0  0
 30 26  1  0  0  0  0
 31 28  1  0  0  0  0
 32 28  1  0  0  0  0
M  END
>  <MODEL>
8

>  <REMARK>
 VINA RESULT:      -7.2      2.156      2.591
  Name = 
  4 active torsions:
  status: ('A' for Active; 'I' for Inactive)
    1  A    between atoms: C_2  and  N_13
    2  A    between atoms: C_3  and  N_12
    3  A    between atoms: C_8  and  C_27
    4  A    between atoms: N_12  and  N_13
                            x       y       z     vdW  Elec       q    Type
                         _______ _______ _______ _____ _____    ______ ____

>  <TORSDO>
F 4

$$$$
=
 OpenBabel11072411533D

 32 35  0  0  1  0  0  0  0  0999 V2000
  161.5060  207.2460  148.6680 C   0  0  2  0  0  3  0  0  0  0  0  0
  160.1050  209.5160  155.7760 N   0  0  0  0  0  2  0  0  0  0  0  0
  162.3240  209.8500  151.1310 C   0  0  0  0  0  2  0  0  0  0  0  0
  161.0770  205.1740  151.8610 C   0  0  1  0  0  3  0  0  0  0  0  0
  160.2090  208.0590  153.6750 C   0  0  1  0  0  3  0  0  0  0  0  0
  162.2430  210.7030  153.3590 O   0  0  0  0  0  1  0  0  0  0  0  0
  160.5820  208.3660  155.0770 C   0  0  0  0  0  0  0  0  0  0  0  0
  160.7660  205.7140  150.4690 C   0  0  0  0  0  2  0  0  0  0  0  0
  161.3290  207.4780  155.6330 N   0  0  0  0  0  0  0  0  0  0  0  0
  160.2660  205.8200  152.8060 O   0  0  0  0  0  0  0  0  0  0  0  0
  161.6230  206.3920  154.7150 C   0  0  0  0  0  2  0  0  0  0  0  0
  160.4770  209.2250  152.7170 C   0  0  0  0  0  2  0  0  0  0  0  0
  160.4880  209.7990  157.1480 C   0  0  0  0  0  1  0  0  0  0  0  0
  161.5810  208.6200  149.1540 N   0  0  0  0  0  0  0  0  0  0  0  0
  161.9590  209.5780  152.5860 C   0  0  1  0  0  3  0  0  0  0  0  0
  161.0590  206.8290  153.3620 C   0  0  2  0  0  3  0  0  0  0  0  0
  162.4930  207.3600  150.7490 O   0  0  0  0  0  0  0  0  0  0  0  0
  162.1400  208.6170  150.3110 C   0  0  0  0  0  0  0  0  0  0  0  0
  161.9830  206.3930  149.8500 C   0  0  2  0  0  3  0  0  0  0  0  0
  160.1850  203.2690  150.7290 O   0  0  0  0  0  1  0  0  0  0  0  0
  162.0440  202.9880  152.0110 O   0  0  0  0  0  1  0  0  0  0  0  0
  160.8310  203.6720  151.8980 C   0  0  0  0  0  3  0  0  0  0  0  0
  162.4190  207.0720  147.5490 N   0  0  0  0  0  2  0  0  0  0  0  0
  162.9020  205.7580  147.6130 N   0  0  0  0  0  2  0  0  0  0  0  0
  162.2930  203.7910  146.3260 C   0  0  0  0  0  2  0  0  0  0  0  0
  162.8290  205.2120  146.2670 C   0  0  1  0  0  3  0  0  0  0  0  0
  160.8670  203.8630  145.8280 C   0  0  1  0  0  3  0  0  0  0  0  0
  160.8250  205.0530  144.8860 C   0  0  0  0  0  0  0  0  0  0  0  0
  160.4560  202.5620  145.1620 C   0  0  0  0  0  1  0  0  0  0  0  0
  161.8440  206.0270  145.4380 C   0  0  0  0  0  2  0  0  0  0  0  0
  159.5660  205.6250  144.8860 F   0  0  0  0  0  0  0  0  0  0  0  0
  161.1860  204.6990  143.5960 F   0  0  0  0  0  0  0  0  0  0  0  0
  1 23  1  6  0  0  0
  1 14  1  0  0  0  0
  1 19  1  0  0  0  0
  2 13  1  0  0  0  0
  3 15  1  0  0  0  0
  4 22  1  6  0  0  0
  4 10  1  0  0  0  0
  5 12  1  6  0  0  0
  5  7  1  0  0  0  0
  7  9  2  0  0  0  0
  7  2  1  0  0  0  0
  8  4  1  0  0  0  0
 10 16  1  0  0  0  0
 11  9  1  0  0  0  0
 14 18  2  0  0  0  0
 15 12  1  0  0  0  0
 15  6  1  1  0  0  0
 16  5  1  0  0  0  0
 16 11  1  1  0  0  0
 18 17  1  0  0  0  0
 18  3  1  0  0  0  0
 19  8  1  1  0  0  0
 19 17  1  0  0  0  0
 20 22  1  0  0  0  0
 22 21  1  0  0  0  0
 23 24  1  0  0  0  0
 26 25  1  0  0  0  0
 26 24  1  1  0  0  0
 27 29  1  6  0  0  0
 27 25  1  0  0  0  0
 28 30  1  0  0  0  0
 28 27  1  0  0  0  0
 30 26  1  0  0  0  0
 31 28  1  0  0  0  0
 32 28  1  0  0  0  0
M  END
>  <MODEL>
9

>  <REMARK>
 VINA RESULT:      -7.1      2.911      4.685
  Name = 
  4 active torsions:
  status: ('A' for Active; 'I' for Inactive)
    1  A    between atoms: C_2  and  N_13
    2  A    between atoms: C_3  and  N_12
    3  A    between atoms: C_8  and  C_27
    4  A    between atoms: N_12  and  N_13
                            x       y       z     vdW  Elec       q    Type
                         _______ _______ _______ _____ _____    ______ ____

>  <TORSDO>
F 4

$$$$
