=
 OpenBabel11072411523D

 32 38  0  0  1  0  0  0  0  0999 V2000
  159.9460  206.2110  157.2610 F   0  0  0  0  0  0  0  0  0  0  0  0
  160.9640  210.2260  152.4310 C   0  0  0  0  0  3  0  0  0  0  0  0
  161.2920  206.4540  150.0750 C   0  0  0  0  0  0  0  0  0  0  0  0
  160.7160  208.0760  154.1920 C   0  0  0  0  0  0  0  0  0  0  0  0
  159.4150  210.8650  156.2890 O   0  0  0  0  0  1  0  0  0  0  0  0
  159.6850  208.5270  156.7750 C   0  0  0  0  0  3  0  0  0  0  0  0
  161.3680  208.9500  152.0020 C   0  0  0  0  0  0  0  0  0  0  0  0
  160.4390  210.4370  153.7000 C   0  0  0  0  0  3  0  0  0  0  0  0
  162.2910  210.1590  149.9710 C   0  0  0  0  0  3  0  0  0  0  0  0
  160.9450  206.6340  147.5640 S   0  0  0  0  0  0  0  0  0  0  0  0
  162.0810  208.8240  150.6740 C   0  0  0  0  0  0  0  0  0  0  0  0
  161.0340  204.3280  148.9770 N   0  0  0  0  0  0  0  0  0  0  0  0
  160.3200  209.3760  154.5930 C   0  0  0  0  0  0  0  0  0  0  0  0
  161.3060  208.0530  148.3970 C   0  0  2  0  0  3  0  0  0  0  0  0
  161.4820  206.4310  152.5050 C   0  0  0  0  0  3  0  0  0  0  0  0
  161.4720  205.8190  151.3150 C   0  0  0  0  0  0  0  0  0  0  0  0
  160.5760  207.0190  155.1110 C   0  0  0  0  0  3  0  0  0  0  0  0
  161.5660  209.2290  147.8330 C   0  0  0  0  0  3  0  0  0  0  0  0
  160.0690  207.2430  156.3910 C   0  0  0  0  0  0  0  0  0  0  0  0
  159.8070  209.5940  155.8830 C   0  0  0  0  0  0  0  0  0  0  0  0
  161.2690  203.6840  150.1530 C   0  0  0  0  0  3  0  0  0  0  0  0
  161.4590  207.8060  149.7630 C   0  0  0  0  0  0  0  0  0  0  0  0
  161.0350  205.6820  148.9450 C   0  0  0  0  0  0  0  0  0  0  0  0
  162.0470  210.3570  148.6630 C   0  0  0  0  0  0  0  0  0  0  0  0
  161.2160  207.8470  152.8820 C   0  0  0  0  0  0  0  0  0  0  0  0
  161.4880  204.4150  151.3320 C   0  0  0  0  0  3  0  0  0  0  0  0
  162.2790  211.6550  148.0840 N   0  0  0  0  0  0  0  0  0  0  0  0
  160.0440  212.1570  147.1960 N   0  0  0  0  0  1  0  0  0  0  0  0
  163.4430  212.2800  148.1080 N   0  0  0  0  0  0  0  0  0  0  0  0
  161.9940  213.6050  147.0350 N   0  0  0  0  0  0  0  0  0  0  0  0
  163.2650  213.4590  147.4740 C   0  0  0  0  0  3  0  0  0  0  0  0
  161.4150  212.4600  147.4370 C   0  0  0  0  0  0  0  0  0  0  0  0
  2  8  1  0  0  0  0
  3 16  1  0  0  0  0
  4 13  1  0  0  0  0
  4 17  1  0  0  0  0
  7  2  2  0  0  0  0
  7 25  1  0  0  0  0
  8 13  2  0  0  0  0
  9 11  2  0  0  0  0
 10 14  1  0  0  0  0
 10 23  1  0  0  0  0
 11  7  1  0  0  0  0
 12 21  1  0  0  0  0
 13 20  1  0  0  0  0
 14 18  1  6  0  0  0
 14 22  1  0  0  0  0
 15 25  1  0  0  0  0
 16 26  1  0  0  0  0
 16 15  2  0  0  0  0
 17 19  2  0  0  0  0
 18 24  2  0  0  0  0
 19  6  1  0  0  0  0
 19  1  1  0  0  0  0
 20  5  1  0  0  0  0
 20  6  2  0  0  0  0
 21 26  2  0  0  0  0
 22  3  2  0  0  0  0
 22 11  1  0  0  0  0
 23 12  2  0  0  0  0
 23  3  1  0  0  0  0
 24  9  1  0  0  0  0
 25  4  2  0  0  0  0
 27 29  1  0  0  0  0
 27 24  1  0  0  0  0
 28 32  1  0  0  0  0
 30 32  2  0  0  0  0
 30 31  1  0  0  0  0
 31 29  2  0  0  0  0
 32 27  1  0  0  0  0
M  END
>  <MODEL>
1

>  <REMARK>
 VINA RESULT:      -9.9      0.000      0.000
  Name = 
  1 active torsions:
  status: ('A' for Active; 'I' for Inactive)
    1  A    between atoms: N_4  and  C_30
                            x       y       z     vdW  Elec       q    Type
                         _______ _______ _______ _____ _____    ______ ____

>  <TORSDO>
F 1

$$$$
=
 OpenBabel11072411523D

 32 38  0  0  1  0  0  0  0  0999 V2000
  162.4460  205.7690  145.3750 F   0  0  0  0  0  0  0  0  0  0  0  0
  161.0940  207.3180  151.3960 C   0  0  0  0  0  3  0  0  0  0  0  0
  161.2640  211.4770  149.7940 C   0  0  0  0  0  0  0  0  0  0  0  0
  161.8190  207.1850  148.7050 C   0  0  0  0  0  0  0  0  0  0  0  0
  160.8290  203.6540  149.3500 O   0  0  0  0  0  1  0  0  0  0  0  0
  161.6440  204.7180  147.3550 C   0  0  0  0  0  3  0  0  0  0  0  0
  161.5450  208.4870  150.7580 C   0  0  0  0  0  0  0  0  0  0  0  0
  160.9920  206.1100  150.7190 C   0  0  0  0  0  3  0  0  0  0  0  0
  161.5180  209.5090  153.0810 C   0  0  0  0  0  3  0  0  0  0  0  0
  160.0770  213.2760  151.1410 S   0  0  0  0  0  0  0  0  0  0  0  0
  161.7860  209.7230  151.5970 C   0  0  2  0  0  3  0  0  0  0  0  0
  161.0260  213.5650  148.6230 N   0  0  0  0  0  0  0  0  0  0  0  0
  161.3610  206.0250  149.3790 C   0  0  0  0  0  0  0  0  0  0  0  0
  160.4440  211.8350  151.9330 C   0  0  0  0  0  0  0  0  0  0  0  0
  162.2520  209.6200  148.5610 C   0  0  0  0  0  3  0  0  0  0  0  0
  161.9520  210.9160  148.7060 C   0  0  0  0  0  0  0  0  0  0  0  0
  162.1770  207.0750  147.3480 C   0  0  0  0  0  3  0  0  0  0  0  0
  160.2960  211.6160  153.2360 C   0  0  0  0  0  3  0  0  0  0  0  0
  162.0930  205.8530  146.6810 C   0  0  0  0  0  0  0  0  0  0  0  0
  161.2770  204.7990  148.6990 C   0  0  0  0  0  0  0  0  0  0  0  0
  161.7450  213.0700  147.5790 C   0  0  0  0  0  3  0  0  0  0  0  0
  161.0820  210.9400  151.0720 C   0  0  0  0  0  0  0  0  0  0  0  0
  160.7830  212.7800  149.6990 C   0  0  0  0  0  0  0  0  0  0  0  0
  160.8230  210.3740  153.8430 C   0  0  0  0  0  0  0  0  0  0  0  0
  161.8860  208.4320  149.3820 C   0  0  0  0  0  0  0  0  0  0  0  0
  162.2150  211.7470  147.6040 C   0  0  0  0  0  3  0  0  0  0  0  0
  160.6210  210.0890  155.2400 N   0  0  0  0  0  0  0  0  0  0  0  0
  158.2630  210.7230  155.4930 N   0  0  0  0  0  1  0  0  0  0  0  0
  161.5580  209.6120  156.0410 N   0  0  0  0  0  0  0  0  0  0  0  0
  159.6990  209.8620  157.2590 N   0  0  0  0  0  0  0  0  0  0  0  0
  160.9950  209.4760  157.2610 C   0  0  0  0  0  3  0  0  0  0  0  0
  159.5080  210.2350  155.9820 C   0  0  0  0  0  0  0  0  0  0  0  0
  1 19  1  0  0  0  0
  3 22  2  0  0  0  0
  4 13  1  0  0  0  0
  4 25  1  0  0  0  0
  6 20  1  0  0  0  0
  7  2  1  0  0  0  0
  7 11  1  0  0  0  0
  8  2  2  0  0  0  0
  9 24  2  0  0  0  0
 10 14  1  0  0  0  0
 11  9  1  1  0  0  0
 12 23  2  0  0  0  0
 13  8  1  0  0  0  0
 14 18  2  0  0  0  0
 15 16  2  0  0  0  0
 15 25  1  0  0  0  0
 16  3  1  0  0  0  0
 17  4  2  0  0  0  0
 18 24  1  0  0  0  0
 19 17  1  0  0  0  0
 19  6  2  0  0  0  0
 20  5  1  0  0  0  0
 20 13  2  0  0  0  0
 21 26  2  0  0  0  0
 21 12  1  0  0  0  0
 22 11  1  0  0  0  0
 22 14  1  0  0  0  0
 23  3  1  0  0  0  0
 23 10  1  0  0  0  0
 24 27  1  0  0  0  0
 25  7  2  0  0  0  0
 26 16  1  0  0  0  0
 27 32  1  0  0  0  0
 27 29  1  0  0  0  0
 28 32  1  0  0  0  0
 29 31  2  0  0  0  0
 30 31  1  0  0  0  0
 32 30  2  0  0  0  0
M  END
>  <MODEL>
2

>  <REMARK>
 VINA RESULT:      -8.7      4.488      7.511
  Name = 
  1 active torsions:
  status: ('A' for Active; 'I' for Inactive)
    1  A    between atoms: N_4  and  C_30
                            x       y       z     vdW  Elec       q    Type
                         _______ _______ _______ _____ _____    ______ ____

>  <TORSDO>
F 1

$$$$
=
 OpenBabel11072411523D

 32 38  0  0  1  0  0  0  0  0999 V2000
  160.7030  201.0760  149.0250 F   0  0  0  0  0  0  0  0  0  0  0  0
  161.9060  207.1370  147.5100 C   0  0  0  0  0  3  0  0  0  0  0  0
  161.4730  207.7550  151.9060 C   0  0  0  0  0  0  0  0  0  0  0  0
  161.2110  204.6950  148.6680 C   0  0  0  0  0  0  0  0  0  0  0  0
  162.4270  203.5780  145.3300 O   0  0  0  0  0  1  0  0  0  0  0  0
  161.5580  202.3240  147.1870 C   0  0  0  0  0  3  0  0  0  0  0  0
  161.3830  207.1310  148.8150 C   0  0  0  0  0  0  0  0  0  0  0  0
  162.0920  205.9620  146.7930 C   0  0  0  0  0  3  0  0  0  0  0  0
  161.3260  209.6570  148.5740 C   0  0  0  0  0  3  0  0  0  0  0  0
  162.5280  209.8510  152.8810 S   0  0  0  0  0  0  0  0  0  0  0  0
  161.0540  208.4550  149.4700 C   0  0  2  0  0  3  0  0  0  0  0  0
  161.5810  207.7580  154.3100 N   0  0  0  0  0  0  0  0  0  0  0  0
  161.7390  204.7370  147.3540 C   0  0  0  0  0  0  0  0  0  0  0  0
  162.2520  209.8270  151.2190 C   0  0  0  0  0  0  0  0  0  0  0  0
  160.6180  205.7380  150.8370 C   0  0  0  0  0  3  0  0  0  0  0  0
  160.8310  206.5050  151.9110 C   0  0  0  0  0  0  0  0  0  0  0  0
  160.8710  203.4440  149.2150 C   0  0  0  0  0  3  0  0  0  0  0  0
  162.4050  210.8640  150.4010 C   0  0  0  0  0  3  0  0  0  0  0  0
  161.0400  202.2700  148.4800 C   0  0  0  0  0  0  0  0  0  0  0  0
  161.9100  203.5500  146.6210 C   0  0  0  0  0  0  0  0  0  0  0  0
  160.9030  206.5780  154.3490 C   0  0  0  0  0  3  0  0  0  0  0  0
  161.6800  208.6160  150.8250 C   0  0  0  0  0  0  0  0  0  0  0  0
  161.8670  208.3250  153.1130 C   0  0  0  0  0  0  0  0  0  0  0  0
  161.9560  210.7690  148.9930 C   0  0  0  0  0  0  0  0  0  0  0  0
  161.0560  205.8900  149.4210 C   0  0  0  0  0  0  0  0  0  0  0  0
  160.5220  205.9380  153.1580 C   0  0  0  0  0  3  0  0  0  0  0  0
  162.1660  211.8580  148.0740 N   0  0  0  0  0  0  0  0  0  0  0  0
  159.8500  212.5790  147.6930 N   0  0  0  0  0  1  0  0  0  0  0  0
  163.3540  212.2460  147.6460 N   0  0  0  0  0  0  0  0  0  0  0  0
  161.8300  213.5750  146.6890 N   0  0  0  0  0  0  0  0  0  0  0  0
  163.1460  213.2850  146.8090 C   0  0  0  0  0  3  0  0  0  0  0  0
  161.2570  212.6630  147.4930 C   0  0  0  0  0  0  0  0  0  0  0  0
  2  7  1  0  0  0  0
  3 16  1  0  0  0  0
  3 23  1  0  0  0  0
  4 17  1  0  0  0  0
  4 25  1  0  0  0  0
  5 20  1  0  0  0  0
  6 19  1  0  0  0  0
  7 25  2  0  0  0  0
  7 11  1  0  0  0  0
  8 13  1  0  0  0  0
  8  2  2  0  0  0  0
  9 24  2  0  0  0  0
 10 23  1  0  0  0  0
 11  9  1  6  0  0  0
 11 22  1  0  0  0  0
 12 21  1  0  0  0  0
 13  4  2  0  0  0  0
 14 10  1  0  0  0  0
 15 16  2  0  0  0  0
 16 26  1  0  0  0  0
 18 14  2  0  0  0  0
 19  1  1  0  0  0  0
 19 17  2  0  0  0  0
 20  6  2  0  0  0  0
 20 13  1  0  0  0  0
 22 14  1  0  0  0  0
 22  3  2  0  0  0  0
 23 12  2  0  0  0  0
 24 18  1  0  0  0  0
 25 15  1  0  0  0  0
 26 21  2  0  0  0  0
 27 24  1  0  0  0  0
 29 27  1  0  0  0  0
 30 31  1  0  0  0  0
 30 32  2  0  0  0  0
 31 29  2  0  0  0  0
 32 28  1  0  0  0  0
 32 27  1  0  0  0  0
M  END
>  <MODEL>
3

>  <REMARK>
 VINA RESULT:      -8.2      3.626      5.882
  Name = 
  1 active torsions:
  status: ('A' for Active; 'I' for Inactive)
    1  A    between atoms: N_4  and  C_30
                            x       y       z     vdW  Elec       q    Type
                         _______ _______ _______ _____ _____    ______ ____

>  <TORSDO>
F 1

$$$$
=
 OpenBabel11072411523D

 32 38  0  0  1  0  0  0  0  0999 V2000
  156.5430  211.2150  157.2610 F   0  0  0  0  0  0  0  0  0  0  0  0
  159.2380  212.4220  151.6250 C   0  0  0  0  0  3  0  0  0  0  0  0
  161.1570  208.4530  152.3020 C   0  0  0  0  0  0  0  0  0  0  0  0
  158.4510  211.4920  154.1360 C   0  0  0  0  0  0  0  0  0  0  0  0
  155.9450  214.1860  153.5580 O   0  0  0  0  0  1  0  0  0  0  0  0
  156.2490  212.6940  155.4180 C   0  0  0  0  0  3  0  0  0  0  0  0
  159.9620  211.3710  152.2150 C   0  0  0  0  0  0  0  0  0  0  0  0
  158.1420  212.9970  152.2550 C   0  0  0  0  0  3  0  0  0  0  0  0
  161.5870  211.6960  150.2920 C   0  0  0  0  0  3  0  0  0  0  0  0
  162.0500  207.2440  150.2530 S   0  0  0  0  0  0  0  0  0  0  0  0
  161.2390  210.9080  151.5490 C   0  0  0  0  0  0  0  0  0  0  0  0
  161.7440  206.1560  152.7110 N   0  0  0  0  0  0  0  0  0  0  0  0
  157.7450  212.5510  153.5130 C   0  0  0  0  0  0  0  0  0  0  0  0
  161.7720  208.9010  150.1120 C   0  0  2  0  0  3  0  0  0  0  0  0
  160.1470  209.6850  154.1480 C   0  0  0  0  0  3  0  0  0  0  0  0
  160.7940  208.6270  153.6480 C   0  0  0  0  0  0  0  0  0  0  0  0
  158.0240  211.0540  155.4030 C   0  0  0  0  0  3  0  0  0  0  0  0
  162.1170  209.6510  149.0700 C   0  0  0  0  0  3  0  0  0  0  0  0
  156.9350  211.6510  156.0390 C   0  0  0  0  0  0  0  0  0  0  0  0
  156.6470  213.1460  154.1580 C   0  0  0  0  0  0  0  0  0  0  0  0
  161.4610  206.3120  154.0330 C   0  0  0  0  0  3  0  0  0  0  0  0
  161.2750  209.4270  151.3060 C   0  0  0  0  0  0  0  0  0  0  0  0
  161.5830  207.2020  151.8660 C   0  0  0  0  0  0  0  0  0  0  0  0
  161.9840  211.1230  149.1420 C   0  0  0  0  0  0  0  0  0  0  0  0
  159.5480  210.8740  153.4780 C   0  0  0  0  0  0  0  0  0  0  0  0
  160.9840  207.5410  154.5180 C   0  0  0  0  0  3  0  0  0  0  0  0
  162.2950  211.9500  148.0040 N   0  0  0  0  0  0  0  0  0  0  0  0
  160.0360  212.4510  147.1810 N   0  0  0  0  0  1  0  0  0  0  0  0
  163.5220  212.2680  147.6330 N   0  0  0  0  0  0  0  0  0  0  0  0
  162.1150  213.2430  146.1940 N   0  0  0  0  0  0  0  0  0  0  0  0
  163.4080  213.0500  146.5380 C   0  0  0  0  0  3  0  0  0  0  0  0
  161.4560  212.5420  147.1330 C   0  0  0  0  0  0  0  0  0  0  0  0
  2  7  2  0  0  0  0
  2  8  1  0  0  0  0
  3 16  1  0  0  0  0
  4 17  1  0  0  0  0
  5 20  1  0  0  0  0
  6 19  1  0  0  0  0
  7 25  1  0  0  0  0
  8 13  2  0  0  0  0
  9 11  2  0  0  0  0
 10 23  1  0  0  0  0
 11  7  1  0  0  0  0
 12 21  1  0  0  0  0
 13  4  1  0  0  0  0
 13 20  1  0  0  0  0
 14 18  1  1  0  0  0
 14 10  1  0  0  0  0
 14 22  1  0  0  0  0
 16 15  2  0  0  0  0
 16 26  1  0  0  0  0
 17 19  2  0  0  0  0
 18 24  2  0  0  0  0
 19  1  1  0  0  0  0
 20  6  2  0  0  0  0
 21 26  2  0  0  0  0
 22 11  1  0  0  0  0
 22  3  2  0  0  0  0
 23  3  1  0  0  0  0
 23 12  2  0  0  0  0
 24  9  1  0  0  0  0
 25  4  2  0  0  0  0
 25 15  1  0  0  0  0
 27 24  1  0  0  0  0
 29 27  1  0  0  0  0
 30 31  1  0  0  0  0
 30 32  2  0  0  0  0
 31 29  2  0  0  0  0
 32 28  1  0  0  0  0
 32 27  1  0  0  0  0
M  END
>  <MODEL>
4

>  <REMARK>
 VINA RESULT:      -7.3      2.583      3.509
  Name = 
  1 active torsions:
  status: ('A' for Active; 'I' for Inactive)
    1  A    between atoms: N_4  and  C_30
                            x       y       z     vdW  Elec       q    Type
                         _______ _______ _______ _____ _____    ______ ____

>  <TORSDO>
F 1

$$$$
=
 OpenBabel11072411523D

 32 38  0  0  1  0  0  0  0  0999 V2000
  160.8650  211.3840  156.6840 F   0  0  0  0  0  0  0  0  0  0  0  0
  160.9780  206.1320  153.0950 C   0  0  0  0  0  3  0  0  0  0  0  0
  161.7090  209.0500  149.8030 C   0  0  0  0  0  0  0  0  0  0  0  0
  160.8820  208.7030  154.1750 C   0  0  0  0  0  0  0  0  0  0  0  0
  161.2410  206.6490  157.2610 O   0  0  0  0  0  1  0  0  0  0  0  0
  161.0490  209.0270  156.9690 C   0  0  0  0  0  3  0  0  0  0  0  0
  160.8370  207.2260  152.2250 C   0  0  0  0  0  0  0  0  0  0  0  0
  161.0790  206.3010  154.4700 C   0  0  0  0  0  3  0  0  0  0  0  0
  160.4570  205.4740  150.4280 C   0  0  0  0  0  3  0  0  0  0  0  0
  162.7720  208.1440  147.6800 S   0  0  0  0  0  0  0  0  0  0  0  0
  160.5670  206.9570  150.7610 C   0  0  0  0  0  0  0  0  0  0  0  0
  162.4730  210.7620  148.2950 N   0  0  0  0  0  0  0  0  0  0  0  0
  161.0200  207.5770  155.0240 C   0  0  0  0  0  0  0  0  0  0  0  0
  162.0530  207.0300  148.7200 C   0  0  2  0  0  3  0  0  0  0  0  0
  160.8050  209.7820  151.9460 C   0  0  0  0  0  3  0  0  0  0  0  0
  161.2250  210.0190  150.6980 C   0  0  0  0  0  0  0  0  0  0  0  0
  160.8350  209.9820  154.7590 C   0  0  0  0  0  3  0  0  0  0  0  0
  161.8670  205.7400  148.4530 C   0  0  0  0  0  3  0  0  0  0  0  0
  160.9150  210.1430  156.1430 C   0  0  0  0  0  0  0  0  0  0  0  0
  161.1040  207.7460  156.4160 C   0  0  0  0  0  0  0  0  0  0  0  0
  161.9570  211.7210  149.1110 C   0  0  0  0  0  3  0  0  0  0  0  0
  161.5220  207.6650  149.8440 C   0  0  0  0  0  0  0  0  0  0  0  0
  162.3590  209.4580  148.6430 C   0  0  0  0  0  0  0  0  0  0  0  0
  161.0610  204.9040  149.3700 C   0  0  0  0  0  0  0  0  0  0  0  0
  160.8180  208.5380  152.7650 C   0  0  0  0  0  0  0  0  0  0  0  0
  161.3300  211.3670  150.3170 C   0  0  0  0  0  3  0  0  0  0  0  0
  160.8980  203.4930  149.1330 N   0  0  0  0  0  0  0  0  0  0  0  0
  161.5830  203.3490  146.7790 N   0  0  0  0  0  1  0  0  0  0  0  0
  160.4820  202.6320  150.0450 N   0  0  0  0  0  0  0  0  0  0  0  0
  160.8570  201.4830  148.1630 N   0  0  0  0  0  0  0  0  0  0  0  0
  160.4590  201.4180  149.4540 C   0  0  0  0  0  3  0  0  0  0  0  0
  161.1210  202.7920  148.0050 C   0  0  0  0  0  0  0  0  0  0  0  0
  2  8  1  0  0  0  0
  3 22  2  0  0  0  0
  3 16  1  0  0  0  0
  4 17  1  0  0  0  0
  4 13  1  0  0  0  0
  7 25  1  0  0  0  0
  7  2  2  0  0  0  0
  8 13  2  0  0  0  0
  9 11  2  0  0  0  0
 10 23  1  0  0  0  0
 10 14  1  0  0  0  0
 11  7  1  0  0  0  0
 12 23  2  0  0  0  0
 12 21  1  0  0  0  0
 13 20  1  0  0  0  0
 14 18  1  6  0  0  0
 14 22  1  0  0  0  0
 15 25  1  0  0  0  0
 16 15  2  0  0  0  0
 17 19  2  0  0  0  0
 18 24  2  0  0  0  0
 19  1  1  0  0  0  0
 19  6  1  0  0  0  0
 20  6  2  0  0  0  0
 20  5  1  0  0  0  0
 21 26  2  0  0  0  0
 22 11  1  0  0  0  0
 23  3  1  0  0  0  0
 24  9  1  0  0  0  0
 25  4  2  0  0  0  0
 26 16  1  0  0  0  0
 27 24  1  0  0  0  0
 27 29  1  0  0  0  0
 28 32  1  0  0  0  0
 30 31  1  0  0  0  0
 31 29  2  0  0  0  0
 32 30  2  0  0  0  0
 32 27  1  0  0  0  0
M  END
>  <MODEL>
5

>  <REMARK>
 VINA RESULT:      -7.1      1.913      5.782
  Name = 
  1 active torsions:
  status: ('A' for Active; 'I' for Inactive)
    1  A    between atoms: N_4  and  C_30
                            x       y       z     vdW  Elec       q    Type
                         _______ _______ _______ _____ _____    ______ ____

>  <TORSDO>
F 1

$$$$
