=
 OpenBabel11072413283D

 41 45  0  0  1  0  0  0  0  0999 V2000
  160.9330  208.9750  154.9740 F   0  0  0  0  0  0  0  0  0  0  0  0
  160.6670  210.0080  152.8810 C   0  0  0  0  0  0  0  0  0  0  0  0
  159.1850  211.9870  152.7110 C   0  0  2  0  0  3  0  0  0  0  0  0
  160.4960  211.4070  154.9060 C   0  0  0  0  0  2  0  0  0  0  0  0
  159.3820  212.2340  154.2270 C   0  0  2  0  0  3  0  0  0  0  0  0
  160.7180  210.0860  154.2200 C   0  0  0  0  0  0  0  0  0  0  0  0
  160.3660  211.2440  152.0810 C   0  0  0  0  0  2  0  0  0  0  0  0
  157.8670  213.5820  155.2840 C   0  0  0  0  0  1  0  0  0  0  0  0
  158.1720  212.2520  154.9550 O   0  0  0  0  0  0  0  0  0  0  0  0
  160.8570  208.7000  152.1760 C   0  0  0  0  0  2  0  0  0  0  0  0
  161.6410  208.8900  150.9210 C   0  0  0  0  0  0  0  0  0  0  0  0
  161.3230  208.1180  149.7620 N   0  0  0  0  0  2  0  0  0  0  0  0
  162.5830  209.7250  150.8970 O   0  0  0  0  0  0  0  0  0  0  0  0
  162.0500  208.2600  148.5110 C   0  0  0  0  0  2  0  0  0  0  0  0
  162.3800  206.8850  147.9580 C   0  0  0  0  0  2  0  0  0  0  0  0
  160.4390  206.7280  146.5730 O   0  0  0  0  0  1  0  0  0  0  0  0
  161.1040  206.1160  147.6360 C   0  0  1  0  0  3  0  0  0  0  0  0
  162.4940  204.4310  146.3070 C   0  0  0  0  0  1  0  0  0  0  0  0
  161.3650  204.6410  147.3150 C   0  0  1  0  0  3  0  0  0  0  0  0
  161.3790  202.2900  150.9510 C   0  0  0  0  0  2  0  0  0  0  0  0
  161.5200  203.8120  151.1100 C   0  0  1  0  0  3  0  0  0  0  0  0
  160.7120  202.4690  148.5200 C   0  0  0  0  0  2  0  0  0  0  0  0
  160.3310  201.9260  149.9030 C   0  0  0  0  0  2  0  0  0  0  0  0
  161.5110  203.7850  148.5800 C   0  0  2  0  0  3  0  0  0  0  0  0
  161.1760  204.5950  149.8310 C   0  0  0  0  0  2  0  0  0  0  0  0
  160.6570  204.2900  152.2680 C   0  0  0  0  0  2  0  0  0  0  0  0
  162.6010  205.8100  152.6340 O   0  0  0  0  0  0  0  0  0  0  0  0
  160.8040  205.8550  154.0600 O   0  0  0  0  0  1  0  0  0  0  0  0
  161.3460  205.3680  153.0340 C   0  0  0  0  0  0  0  0  0  0  0  0
  158.8900  213.2840  151.9700 C   0  0  0  0  0  2  0  0  0  0  0  0
  158.4700  213.0130  150.6020 N   0  0  0  0  0  2  0  0  0  0  0  0
  158.8120  214.1370  149.8410 N   0  0  0  0  0  2  0  0  0  0  0  0
  160.8320  214.2650  148.3890 C   0  0  2  0  0  3  0  0  0  0  0  0
  160.8150  212.9530  149.1470 C   0  0  0  0  0  2  0  0  0  0  0  0
  160.2680  214.1990  149.8140 C   0  0  2  0  0  3  0  0  0  0  0  0
  161.1620  213.3080  145.5370 O   0  0  0  0  0  0  0  0  0  0  0  0
  160.0520  213.0610  146.3650 C   0  0  1  0  0  0  0  0  0  0  0  0
  159.7770  214.2260  147.2860 C   0  0  2  0  0  3  0  0  0  0  0  0
  160.4340  214.4400  145.9420 C   0  0  1  0  0  3  0  0  0  0  0  0
  157.5880  212.7910  146.4190 C   0  0  0  0  0  1  0  0  0  0  0  0
  158.8290  212.6740  145.5570 C   0  0  0  0  0  2  0  0  0  0  0  0
  2  6  2  0  0  0  0
  3 30  1  6  0  0  0
  3  5  1  0  0  0  0
  5  4  1  0  0  0  0
  5  9  1  1  0  0  0
  6  4  1  0  0  0  0
  6  1  1  0  0  0  0
  7  3  1  0  0  0  0
  7  2  1  0  0  0  0
  9  8  1  0  0  0  0
 10  2  1  0  0  0  0
 11 10  1  0  0  0  0
 12 11  1  0  0  0  0
 13 11  2  0  0  0  0
 14 12  1  0  0  0  0
 15 14  1  0  0  0  0
 17 16  1  6  0  0  0
 17 15  1  0  0  0  0
 19 18  1  1  0  0  0
 19 17  1  0  0  0  0
 20 21  1  0  0  0  0
 21 26  1  1  0  0  0
 22 24  1  0  0  0  0
 22 23  1  0  0  0  0
 23 20  1  0  0  0  0
 24 19  1  6  0  0  0
 24 25  1  0  0  0  0
 25 21  1  0  0  0  0
 26 29  1  0  0  0  0
 27 29  2  0  0  0  0
 29 28  1  0  0  0  0
 31 30  1  0  0  0  0
 32 31  1  0  0  0  0
 33 34  1  6  0  0  0
 33 35  1  0  0  0  0
 34 35  1  0  0  0  0
 35 32  1  6  0  0  0
 36 37  1  0  0  0  0
 37 41  1  6  0  0  0
 37 38  1  0  0  0  0
 38 33  1  1  0  0  0
 39 36  1  1  0  0  0
 39 37  1  0  0  0  0
 39 38  1  0  0  0  0
 41 40  1  0  0  0  0
M  END
>  <MODEL>
1

>  <REMARK>
 VINA RESULT:      -7.6      0.000      0.000
  Name = 
  16 active torsions:
  status: ('A' for Active; 'I' for Inactive)
    1  A    between atoms: C_1  and  C_28
    2  A    between atoms: C_2  and  C_8
    3  A    between atoms: C_2  and  N_40
    4  A    between atoms: C_5  and  C_28
    5  A    between atoms: C_7  and  C_27
    6  A    between atoms: C_10  and  C_23
    7  A    between atoms: C_17  and  O_37
    8  A    between atoms: C_18  and  C_24
    9  A    between atoms: C_18  and  C_36
   10  A    between atoms: C_20  and  C_34
   11  A    between atoms: C_22  and  C_34
   12  A    between atoms: C_24  and  C_32
   13  A    between atoms: C_29  and  C_32
   14  A    between atoms: N_31  and  C_36
   15  A    between atoms: N_33  and  C_38
   16  A    between atoms: N_33  and  N_40
                            x       y       z     vdW  Elec       q    Type
                         _______ _______ _______ _____ _____    ______ ____

>  <TORSDO>
F 16

$$$$
=
 OpenBabel11072413283D

 41 45  0  0  1  0  0  0  0  0999 V2000
  161.7260  202.1330  148.3200 F   0  0  0  0  0  0  0  0  0  0  0  0
  161.0520  203.9790  149.6070 C   0  0  0  0  0  0  0  0  0  0  0  0
  161.4850  206.2580  148.7350 C   0  0  2  0  0  3  0  0  0  0  0  0
  161.0740  204.2100  147.1500 C   0  0  0  0  0  2  0  0  0  0  0  0
  161.5520  205.6710  147.3030 C   0  0  2  0  0  3  0  0  0  0  0  0
  161.2780  203.4130  148.4100 C   0  0  0  0  0  0  0  0  0  0  0  0
  160.6150  205.4160  149.6730 C   0  0  0  0  0  2  0  0  0  0  0  0
  163.0710  204.8540  145.8020 C   0  0  0  0  0  1  0  0  0  0  0  0
  162.7720  205.9360  146.6450 O   0  0  0  0  0  0  0  0  0  0  0  0
  161.2750  203.2150  150.8760 C   0  0  0  0  0  2  0  0  0  0  0  0
  161.1770  204.1220  152.0570 C   0  0  0  0  0  0  0  0  0  0  0  0
  162.0020  205.2850  152.1290 N   0  0  0  0  0  2  0  0  0  0  0  0
  160.3720  203.8470  152.9850 O   0  0  0  0  0  0  0  0  0  0  0  0
  161.9510  206.2060  153.2530 C   0  0  0  0  0  2  0  0  0  0  0  0
  161.0190  207.3570  152.9240 C   0  0  0  0  0  2  0  0  0  0  0  0
  161.4310  207.6810  155.2570 O   0  0  0  0  0  1  0  0  0  0  0  0
  160.8400  208.2650  154.1360 C   0  0  1  0  0  3  0  0  0  0  0  0
  161.9210  209.8970  152.4910 C   0  0  0  0  0  1  0  0  0  0  0  0
  161.4080  209.6710  153.9120 C   0  0  1  0  0  3  0  0  0  0  0  0
  158.4180  212.5720  155.0880 C   0  0  0  0  0  2  0  0  0  0  0  0
  159.0350  212.7410  153.6910 C   0  0  1  0  0  3  0  0  0  0  0  0
  159.3880  210.2580  155.3850 C   0  0  0  0  0  2  0  0  0  0  0  0
  158.1120  211.1090  155.3970 C   0  0  0  0  0  2  0  0  0  0  0  0
  160.4540  210.7700  154.3970 C   0  0  2  0  0  3  0  0  0  0  0  0
  159.8250  211.5090  153.2180 C   0  0  0  0  0  2  0  0  0  0  0  0
  157.9460  213.0870  152.6860 C   0  0  0  0  0  2  0  0  0  0  0  0
  159.6510  214.3700  151.3920 O   0  0  0  0  0  1  0  0  0  0  0  0
  158.0140  213.1830  150.3050 O   0  0  0  0  0  0  0  0  0  0  0  0
  158.5400  213.5350  151.3940 C   0  0  0  0  0  0  0  0  0  0  0  0
  161.0320  207.7120  148.7190 C   0  0  0  0  0  2  0  0  0  0  0  0
  162.1560  208.6050  148.9640 N   0  0  0  0  0  2  0  0  0  0  0  0
  161.9370  209.7540  148.1950 N   0  0  0  0  0  2  0  0  0  0  0  0
  161.4940  212.1800  148.5500 C   0  0  2  0  0  3  0  0  0  0  0  0
  162.9770  211.9420  148.3530 C   0  0  0  0  0  2  0  0  0  0  0  0
  162.1510  210.8960  149.0740 C   0  0  2  0  0  3  0  0  0  0  0  0
  160.0030  214.2980  146.9860 O   0  0  0  0  0  0  0  0  0  0  0  0
  160.8550  213.3210  146.4420 C   0  0  1  0  0  0  0  0  0  0  0  0
  160.7750  212.0240  147.2120 C   0  0  2  0  0  3  0  0  0  0  0  0
  159.5930  212.9650  147.1550 C   0  0  1  0  0  3  0  0  0  0  0  0
  161.9160  212.9960  144.2240 C   0  0  0  0  0  1  0  0  0  0  0  0
  160.5980  213.1190  144.9610 C   0  0  0  0  0  2  0  0  0  0  0  0
  1  6  1  0  0  0  0
  2  7  1  0  0  0  0
  2 10  1  0  0  0  0
  3 30  1  6  0  0  0
  3  7  1  0  0  0  0
  4  5  1  0  0  0  0
  4  6  1  0  0  0  0
  5  9  1  1  0  0  0
  5  3  1  0  0  0  0
  6  2  2  0  0  0  0
  8  9  1  0  0  0  0
 10 11  1  0  0  0  0
 11 12  1  0  0  0  0
 11 13  2  0  0  0  0
 12 14  1  0  0  0  0
 15 14  1  0  0  0  0
 15 17  1  0  0  0  0
 17 16  1  1  0  0  0
 19 18  1  6  0  0  0
 19 17  1  0  0  0  0
 20 23  1  0  0  0  0
 21 26  1  6  0  0  0
 21 20  1  0  0  0  0
 22 23  1  0  0  0  0
 24 19  1  6  0  0  0
 24 22  1  0  0  0  0
 25 21  1  0  0  0  0
 25 24  1  0  0  0  0
 27 29  1  0  0  0  0
 28 29  2  0  0  0  0
 29 26  1  0  0  0  0
 30 31  1  0  0  0  0
 32 31  1  0  0  0  0
 33 34  1  6  0  0  0
 33 35  1  0  0  0  0
 34 35  1  0  0  0  0
 35 32  1  6  0  0  0
 37 41  1  6  0  0  0
 37 36  1  0  0  0  0
 37 39  1  0  0  0  0
 37 38  1  0  0  0  0
 38 33  1  1  0  0  0
 39 36  1  1  0  0  0
 39 38  1  0  0  0  0
 40 41  1  0  0  0  0
M  END
>  <MODEL>
2

>  <REMARK>
 VINA RESULT:      -7.3      2.579      7.608
  Name = 
  16 active torsions:
  status: ('A' for Active; 'I' for Inactive)
    1  A    between atoms: C_1  and  C_28
    2  A    between atoms: C_2  and  C_8
    3  A    between atoms: C_2  and  N_40
    4  A    between atoms: C_5  and  C_28
    5  A    between atoms: C_7  and  C_27
    6  A    between atoms: C_10  and  C_23
    7  A    between atoms: C_17  and  O_37
    8  A    between atoms: C_18  and  C_24
    9  A    between atoms: C_18  and  C_36
   10  A    between atoms: C_20  and  C_34
   11  A    between atoms: C_22  and  C_34
   12  A    between atoms: C_24  and  C_32
   13  A    between atoms: C_29  and  C_32
   14  A    between atoms: N_31  and  C_36
   15  A    between atoms: N_33  and  C_38
   16  A    between atoms: N_33  and  N_40
                            x       y       z     vdW  Elec       q    Type
                         _______ _______ _______ _____ _____    ______ ____

>  <TORSDO>
F 16

$$$$
=
 OpenBabel11072413283D

 41 45  0  0  1  0  0  0  0  0999 V2000
  160.8700  205.6730  154.5580 F   0  0  0  0  0  0  0  0  0  0  0  0
  161.4400  207.1690  152.8390 C   0  0  0  0  0  0  0  0  0  0  0  0
  160.6890  209.5240  153.0140 C   0  0  2  0  0  3  0  0  0  0  0  0
  161.1920  208.0560  155.1280 C   0  0  0  0  0  2  0  0  0  0  0  0
  160.5700  209.3460  154.5480 C   0  0  2  0  0  3  0  0  0  0  0  0
  161.1810  206.9260  154.1350 C   0  0  0  0  0  0  0  0  0  0  0  0
  161.7200  208.5760  152.3930 C   0  0  0  0  0  2  0  0  0  0  0  0
  159.4050  210.2920  156.2730 C   0  0  0  0  0  1  0  0  0  0  0  0
  159.2790  209.6220  155.0470 O   0  0  0  0  0  0  0  0  0  0  0  0
  161.4070  206.0660  151.8260 C   0  0  0  0  0  2  0  0  0  0  0  0
  161.1600  206.6150  150.4610 C   0  0  0  0  0  0  0  0  0  0  0  0
  162.2500  207.1310  149.6960 N   0  0  0  0  0  2  0  0  0  0  0  0
  159.9890  206.6230  149.9970 O   0  0  0  0  0  0  0  0  0  0  0  0
  162.0720  207.6770  148.3600 C   0  0  0  0  0  2  0  0  0  0  0  0
  162.4870  206.6430  147.3300 C   0  0  0  0  0  2  0  0  0  0  0  0
  160.2310  206.5070  146.5520 O   0  0  0  0  0  1  0  0  0  0  0  0
  161.3120  205.7360  146.9780 C   0  0  1  0  0  3  0  0  0  0  0  0
  162.9320  205.0350  145.1280 C   0  0  0  0  0  1  0  0  0  0  0  0
  161.6680  204.6910  145.9150 C   0  0  1  0  0  3  0  0  0  0  0  0
  161.2670  200.7040  147.5500 C   0  0  0  0  0  2  0  0  0  0  0  0
  161.3910  201.8560  148.5580 C   0  0  1  0  0  3  0  0  0  0  0  0
  160.8780  202.2680  145.6040 C   0  0  0  0  0  2  0  0  0  0  0  0
  160.3420  201.0650  146.3900 C   0  0  0  0  0  2  0  0  0  0  0  0
  161.6690  203.2640  146.4750 C   0  0  2  0  0  3  0  0  0  0  0  0
  161.1960  203.2450  147.9270 C   0  0  0  0  0  2  0  0  0  0  0  0
  160.4050  201.6510  149.6980 C   0  0  0  0  0  2  0  0  0  0  0  0
  160.0320  203.5000  151.3320 O   0  0  0  0  0  0  0  0  0  0  0  0
  161.8790  202.1490  151.5040 O   0  0  0  0  0  1  0  0  0  0  0  0
  160.8120  202.4340  150.9000 C   0  0  0  0  0  0  0  0  0  0  0  0
  160.9770  210.9720  152.6430 C   0  0  0  0  0  2  0  0  0  0  0  0
  159.7410  211.6870  152.3570 N   0  0  0  0  0  2  0  0  0  0  0  0
  159.5570  212.6110  153.3920 N   0  0  0  0  0  2  0  0  0  0  0  0
  157.6960  214.2380  153.7010 C   0  0  2  0  0  3  0  0  0  0  0  0
  157.4240  213.3550  152.5000 C   0  0  0  0  0  2  0  0  0  0  0  0
  158.8530  213.7510  152.8180 C   0  0  2  0  0  3  0  0  0  0  0  0
  155.0930  213.6650  155.1340 O   0  0  0  0  0  0  0  0  0  0  0  0
  156.1420  212.7500  154.9350 C   0  0  1  0  0  0  0  0  0  0  0  0
  157.4900  213.4310  154.9800 C   0  0  2  0  0  3  0  0  0  0  0  0
  156.3140  213.9880  155.7510 C   0  0  1  0  0  3  0  0  0  0  0  0
  155.3610  210.4170  155.2440 C   0  0  0  0  0  1  0  0  0  0  0  0
  156.0590  211.5880  155.9060 C   0  0  0  0  0  2  0  0  0  0  0  0
  2  6  2  0  0  0  0
  3 30  1  1  0  0  0
  3  5  1  0  0  0  0
  5  9  1  6  0  0  0
  5  4  1  0  0  0  0
  6  1  1  0  0  0  0
  6  4  1  0  0  0  0
  7  2  1  0  0  0  0
  7  3  1  0  0  0  0
  9  8  1  0  0  0  0
 10  2  1  0  0  0  0
 11 10  1  0  0  0  0
 12 11  1  0  0  0  0
 13 11  2  0  0  0  0
 14 12  1  0  0  0  0
 15 14  1  0  0  0  0
 17 16  1  6  0  0  0
 17 15  1  0  0  0  0
 19 18  1  1  0  0  0
 19 17  1  0  0  0  0
 20 21  1  0  0  0  0
 21 26  1  1  0  0  0
 22 23  1  0  0  0  0
 22 24  1  0  0  0  0
 23 20  1  0  0  0  0
 24 19  1  6  0  0  0
 24 25  1  0  0  0  0
 25 21  1  0  0  0  0
 26 29  1  0  0  0  0
 29 27  2  0  0  0  0
 29 28  1  0  0  0  0
 31 30  1  0  0  0  0
 31 32  1  0  0  0  0
 33 34  1  6  0  0  0
 34 35  1  0  0  0  0
 35 32  1  1  0  0  0
 35 33  1  0  0  0  0
 37 38  1  0  0  0  0
 37 36  1  0  0  0  0
 37 39  1  0  0  0  0
 37 41  1  1  0  0  0
 38 33  1  6  0  0  0
 38 39  1  0  0  0  0
 39 36  1  6  0  0  0
 40 41  1  0  0  0  0
M  END
>  <MODEL>
3

>  <REMARK>
 VINA RESULT:      -7.1      3.204      4.820
  Name = 
  16 active torsions:
  status: ('A' for Active; 'I' for Inactive)
    1  A    between atoms: C_1  and  C_28
    2  A    between atoms: C_2  and  C_8
    3  A    between atoms: C_2  and  N_40
    4  A    between atoms: C_5  and  C_28
    5  A    between atoms: C_7  and  C_27
    6  A    between atoms: C_10  and  C_23
    7  A    between atoms: C_17  and  O_37
    8  A    between atoms: C_18  and  C_24
    9  A    between atoms: C_18  and  C_36
   10  A    between atoms: C_20  and  C_34
   11  A    between atoms: C_22  and  C_34
   12  A    between atoms: C_24  and  C_32
   13  A    between atoms: C_29  and  C_32
   14  A    between atoms: N_31  and  C_36
   15  A    between atoms: N_33  and  C_38
   16  A    between atoms: N_33  and  N_40
                            x       y       z     vdW  Elec       q    Type
                         _______ _______ _______ _____ _____    ______ ____

>  <TORSDO>
F 16

$$$$
=
 OpenBabel11072413283D

 41 45  0  0  1  0  0  0  0  0999 V2000
  160.5880  204.7460  153.4500 F   0  0  0  0  0  0  0  0  0  0  0  0
  161.0290  206.7700  152.3420 C   0  0  0  0  0  0  0  0  0  0  0  0
  160.8740  208.8850  153.6230 C   0  0  2  0  0  3  0  0  0  0  0  0
  161.5500  206.6160  154.7490 C   0  0  0  0  0  2  0  0  0  0  0  0
  161.1000  208.0830  154.9280 C   0  0  2  0  0  3  0  0  0  0  0  0
  161.0490  206.0240  153.4590 C   0  0  0  0  0  0  0  0  0  0  0  0
  161.4890  208.1990  152.4000 C   0  0  0  0  0  2  0  0  0  0  0  0
  160.6240  208.2670  157.1570 C   0  0  0  0  0  1  0  0  0  0  0  0
  160.0620  208.2420  155.8720 O   0  0  0  0  0  0  0  0  0  0  0  0
  160.5090  206.2120  151.0520 C   0  0  0  0  0  2  0  0  0  0  0  0
  161.0730  204.8540  150.8030 C   0  0  0  0  0  0  0  0  0  0  0  0
  160.2030  203.7780  150.4510 N   0  0  0  0  0  2  0  0  0  0  0  0
  162.3140  204.6660  150.9140 O   0  0  0  0  0  0  0  0  0  0  0  0
  160.6940  202.4330  150.1950 C   0  0  0  0  0  2  0  0  0  0  0  0
  160.2050  201.9650  148.8370 C   0  0  0  0  0  2  0  0  0  0  0  0
  161.5540  200.1710  148.0140 O   0  0  0  0  0  1  0  0  0  0  0  0
  161.3810  201.5540  147.9560 C   0  0  1  0  0  3  0  0  0  0  0  0
  160.3000  201.0970  145.6850 C   0  0  0  0  0  1  0  0  0  0  0  0
  161.2180  202.0060  146.5010 C   0  0  1  0  0  3  0  0  0  0  0  0
  160.5740  206.2570  146.0000 C   0  0  0  0  0  2  0  0  0  0  0  0
  161.3890  205.8210  147.2270 C   0  0  1  0  0  3  0  0  0  0  0  0
  160.7040  203.9710  144.9310 C   0  0  0  0  0  2  0  0  0  0  0  0
  160.9680  205.4720  144.7510 C   0  0  0  0  0  2  0  0  0  0  0  0
  160.8620  203.4930  146.3870 C   0  0  2  0  0  3  0  0  0  0  0  0
  161.8560  204.3560  147.1620 C   0  0  0  0  0  2  0  0  0  0  0  0
  162.5830  206.7460  147.4080 C   0  0  0  0  0  2  0  0  0  0  0  0
  163.1240  207.6580  149.6660 O   0  0  0  0  0  1  0  0  0  0  0  0
  161.4120  208.5540  148.4290 O   0  0  0  0  0  0  0  0  0  0  0  0
  162.3430  207.7120  148.5180 C   0  0  0  0  0  0  0  0  0  0  0  0
  161.3690  210.3190  153.7580 C   0  0  0  0  0  2  0  0  0  0  0  0
  160.4060  211.2530  153.1910 N   0  0  0  0  0  2  0  0  0  0  0  0
  159.1700  210.9740  153.7870 N   0  0  0  0  0  2  0  0  0  0  0  0
  158.0070  212.5850  155.2890 C   0  0  2  0  0  3  0  0  0  0  0  0
  159.3810  213.1080  154.9260 C   0  0  0  0  0  2  0  0  0  0  0  0
  159.1800  211.6150  155.0960 C   0  0  2  0  0  3  0  0  0  0  0  0
  155.6470  214.4480  154.9440 O   0  0  0  0  0  0  0  0  0  0  0  0
  156.6020  214.1390  153.9600 C   0  0  1  0  0  0  0  0  0  0  0  0
  157.0820  212.7120  154.0800 C   0  0  2  0  0  3  0  0  0  0  0  0
  155.6950  213.1040  154.5370 C   0  0  1  0  0  3  0  0  0  0  0  0
  157.2250  214.3590  151.5700 C   0  0  0  0  0  1  0  0  0  0  0  0
  156.0880  214.4500  152.5680 C   0  0  0  0  0  2  0  0  0  0  0  0
  1  6  1  0  0  0  0
  2  7  1  0  0  0  0
  2  6  2  0  0  0  0
  3 30  1  1  0  0  0
  3  5  1  0  0  0  0
  4  5  1  0  0  0  0
  5  9  1  6  0  0  0
  6  4  1  0  0  0  0
  7  3  1  0  0  0  0
  9  8  1  0  0  0  0
 10  2  1  0  0  0  0
 11 13  2  0  0  0  0
 11 10  1  0  0  0  0
 12 11  1  0  0  0  0
 14 12  1  0  0  0  0
 15 14  1  0  0  0  0
 17 16  1  6  0  0  0
 17 15  1  0  0  0  0
 19 18  1  1  0  0  0
 19 17  1  0  0  0  0
 20 21  1  0  0  0  0
 21 26  1  6  0  0  0
 22 24  1  0  0  0  0
 23 22  1  0  0  0  0
 23 20  1  0  0  0  0
 24 19  1  6  0  0  0
 24 25  1  0  0  0  0
 25 21  1  0  0  0  0
 26 29  1  0  0  0  0
 28 29  2  0  0  0  0
 29 27  1  0  0  0  0
 31 30  1  0  0  0  0
 31 32  1  0  0  0  0
 33 34  1  6  0  0  0
 34 35  1  0  0  0  0
 35 32  1  6  0  0  0
 35 33  1  0  0  0  0
 37 41  1  6  0  0  0
 37 38  1  0  0  0  0
 37 39  1  0  0  0  0
 37 36  1  0  0  0  0
 38 39  1  0  0  0  0
 38 33  1  1  0  0  0
 39 36  1  1  0  0  0
 40 41  1  0  0  0  0
M  END
>  <MODEL>
4

>  <REMARK>
 VINA RESULT:      -7.0      3.177      5.560
  Name = 
  16 active torsions:
  status: ('A' for Active; 'I' for Inactive)
    1  A    between atoms: C_1  and  C_28
    2  A    between atoms: C_2  and  C_8
    3  A    between atoms: C_2  and  N_40
    4  A    between atoms: C_5  and  C_28
    5  A    between atoms: C_7  and  C_27
    6  A    between atoms: C_10  and  C_23
    7  A    between atoms: C_17  and  O_37
    8  A    between atoms: C_18  and  C_24
    9  A    between atoms: C_18  and  C_36
   10  A    between atoms: C_20  and  C_34
   11  A    between atoms: C_22  and  C_34
   12  A    between atoms: C_24  and  C_32
   13  A    between atoms: C_29  and  C_32
   14  A    between atoms: N_31  and  C_36
   15  A    between atoms: N_33  and  C_38
   16  A    between atoms: N_33  and  N_40
                            x       y       z     vdW  Elec       q    Type
                         _______ _______ _______ _____ _____    ______ ____

>  <TORSDO>
F 16

$$$$
=
 OpenBabel11072413283D

 41 45  0  0  1  0  0  0  0  0999 V2000
  160.0380  209.9160  156.2800 F   0  0  0  0  0  0  0  0  0  0  0  0
  160.6290  211.0540  154.3120 C   0  0  0  0  0  0  0  0  0  0  0  0
  158.8540  212.2150  153.0300 C   0  0  2  0  0  3  0  0  0  0  0  0
  158.7270  211.9090  155.6320 C   0  0  0  0  0  2  0  0  0  0  0  0
  157.9990  212.2800  154.3200 C   0  0  2  0  0  3  0  0  0  0  0  0
  159.8500  210.9340  155.3990 C   0  0  0  0  0  0  0  0  0  0  0  0
  160.3560  212.1550  153.3260 C   0  0  0  0  0  2  0  0  0  0  0  0
  155.9550  211.9980  155.3060 C   0  0  0  0  0  1  0  0  0  0  0  0
  156.7340  211.6670  154.1860 O   0  0  0  0  0  0  0  0  0  0  0  0
  161.7350  210.0800  154.0440 C   0  0  0  0  0  2  0  0  0  0  0  0
  161.1990  208.8390  153.4130 C   0  0  0  0  0  0  0  0  0  0  0  0
  161.5200  207.5640  153.9710 N   0  0  0  0  0  2  0  0  0  0  0  0
  160.4730  208.9270  152.3880 O   0  0  0  0  0  0  0  0  0  0  0  0
  161.0260  206.3200  153.4010 C   0  0  0  0  0  2  0  0  0  0  0  0
  162.0570  205.7590  152.4390 C   0  0  0  0  0  2  0  0  0  0  0  0
  160.8450  203.7060  152.6190 O   0  0  0  0  0  1  0  0  0  0  0  0
  161.5030  204.5380  151.7120 C   0  0  1  0  0  3  0  0  0  0  0  0
  160.8140  206.3110  150.0040 C   0  0  0  0  0  1  0  0  0  0  0  0
  160.5650  204.9090  150.5590 C   0  0  1  0  0  3  0  0  0  0  0  0
  160.8310  201.8450  147.5130 C   0  0  0  0  0  2  0  0  0  0  0  0
  160.9920  203.3000  147.0470 C   0  0  1  0  0  3  0  0  0  0  0  0
  161.0450  202.4610  149.9540 C   0  0  0  0  0  2  0  0  0  0  0  0
  161.5810  201.5830  148.8160 C   0  0  0  0  0  2  0  0  0  0  0  0
  160.5140  203.8260  149.4750 C   0  0  2  0  0  3  0  0  0  0  0  0
  161.2180  204.2910  148.2010 C   0  0  0  0  0  2  0  0  0  0  0  0
  162.1290  203.3950  146.0410 C   0  0  0  0  0  2  0  0  0  0  0  0
  160.9700  204.7090  144.2640 O   0  0  0  0  0  0  0  0  0  0  0  0
  162.8250  205.5570  145.3160 O   0  0  0  0  0  1  0  0  0  0  0  0
  161.9930  204.6190  145.2000 C   0  0  0  0  0  0  0  0  0  0  0  0
  158.5230  213.3630  152.0860 C   0  0  0  0  0  2  0  0  0  0  0  0
  157.5820  212.9320  151.0610 N   0  0  0  0  0  2  0  0  0  0  0  0
  157.7640  213.7790  149.9610 N   0  0  0  0  0  2  0  0  0  0  0  0
  157.9550  213.1600  147.5560 C   0  0  2  0  0  3  0  0  0  0  0  0
  156.8520  214.1800  147.7470 C   0  0  0  0  0  2  0  0  0  0  0  0
  157.0990  213.1470  148.8290 C   0  0  2  0  0  3  0  0  0  0  0  0
  160.6780  212.0850  146.7900 O   0  0  0  0  0  0  0  0  0  0  0  0
  160.2290  213.4030  146.5960 C   0  0  1  0  0  0  0  0  0  0  0  0
  159.3110  213.8470  147.7090 C   0  0  2  0  0  3  0  0  0  0  0  0
  160.3830  212.8100  147.9570 C   0  0  1  0  0  3  0  0  0  0  0  0
  161.7330  214.4510  144.9250 C   0  0  0  0  0  1  0  0  0  0  0  0
  161.3880  214.3620  146.3980 C   0  0  0  0  0  2  0  0  0  0  0  0
  2  6  2  0  0  0  0
  3 30  1  6  0  0  0
  3  7  1  0  0  0  0
  3  5  1  0  0  0  0
  5  9  1  6  0  0  0
  5  4  1  0  0  0  0
  6  4  1  0  0  0  0
  6  1  1  0  0  0  0
  7  2  1  0  0  0  0
  9  8  1  0  0  0  0
 10  2  1  0  0  0  0
 11 12  1  0  0  0  0
 11 10  1  0  0  0  0
 13 11  2  0  0  0  0
 14 12  1  0  0  0  0
 15 14  1  0  0  0  0
 17 15  1  0  0  0  0
 17 16  1  1  0  0  0
 19 18  1  6  0  0  0
 19 17  1  0  0  0  0
 20 23  1  0  0  0  0
 21 26  1  6  0  0  0
 21 20  1  0  0  0  0
 21 25  1  0  0  0  0
 23 22  1  0  0  0  0
 24 22  1  0  0  0  0
 24 19  1  1  0  0  0
 25 24  1  0  0  0  0
 27 29  2  0  0  0  0
 29 28  1  0  0  0  0
 29 26  1  0  0  0  0
 31 30  1  0  0  0  0
 32 31  1  0  0  0  0
 33 34  1  6  0  0  0
 33 35  1  0  0  0  0
 34 35  1  0  0  0  0
 35 32  1  1  0  0  0
 37 41  1  6  0  0  0
 37 36  1  0  0  0  0
 37 38  1  0  0  0  0
 37 39  1  0  0  0  0
 38 33  1  6  0  0  0
 38 39  1  0  0  0  0
 39 36  1  6  0  0  0
 40 41  1  0  0  0  0
M  END
>  <MODEL>
5

>  <REMARK>
 VINA RESULT:      -6.8      1.736      3.813
  Name = 
  16 active torsions:
  status: ('A' for Active; 'I' for Inactive)
    1  A    between atoms: C_1  and  C_28
    2  A    between atoms: C_2  and  C_8
    3  A    between atoms: C_2  and  N_40
    4  A    between atoms: C_5  and  C_28
    5  A    between atoms: C_7  and  C_27
    6  A    between atoms: C_10  and  C_23
    7  A    between atoms: C_17  and  O_37
    8  A    between atoms: C_18  and  C_24
    9  A    between atoms: C_18  and  C_36
   10  A    between atoms: C_20  and  C_34
   11  A    between atoms: C_22  and  C_34
   12  A    between atoms: C_24  and  C_32
   13  A    between atoms: C_29  and  C_32
   14  A    between atoms: N_31  and  C_36
   15  A    between atoms: N_33  and  C_38
   16  A    between atoms: N_33  and  N_40
                            x       y       z     vdW  Elec       q    Type
                         _______ _______ _______ _____ _____    ______ ____

>  <TORSDO>
F 16

$$$$
=
 OpenBabel11072413283D

 41 45  0  0  1  0  0  0  0  0999 V2000
  160.8130  205.0160  153.6140 F   0  0  0  0  0  0  0  0  0  0  0  0
  160.9320  206.8830  152.1920 C   0  0  0  0  0  0  0  0  0  0  0  0
  160.8450  209.1480  153.1930 C   0  0  2  0  0  3  0  0  0  0  0  0
  161.8460  207.0910  154.4750 C   0  0  0  0  0  2  0  0  0  0  0  0
  161.3340  208.5470  154.5350 C   0  0  2  0  0  3  0  0  0  0  0  0
  161.1840  206.3030  153.3770 C   0  0  0  0  0  0  0  0  0  0  0  0
  161.2990  208.3250  151.9840 C   0  0  0  0  0  2  0  0  0  0  0  0
  159.6730  207.6440  155.8210 C   0  0  0  0  0  1  0  0  0  0  0  0
  160.4550  208.7910  155.6120 O   0  0  0  0  0  0  0  0  0  0  0  0
  160.2480  206.1280  151.0940 C   0  0  0  0  0  2  0  0  0  0  0  0
  160.9580  204.8450  150.8190 C   0  0  0  0  0  0  0  0  0  0  0  0
  160.2210  203.7070  150.3710 N   0  0  0  0  0  2  0  0  0  0  0  0
  162.2040  204.7750  150.9920 O   0  0  0  0  0  0  0  0  0  0  0  0
  160.8570  202.4310  150.0850 C   0  0  0  0  0  2  0  0  0  0  0  0
  160.2980  201.8630  148.7940 C   0  0  0  0  0  2  0  0  0  0  0  0
  161.6100  200.0690  147.9160 O   0  0  0  0  0  1  0  0  0  0  0  0
  161.4270  201.4510  147.8550 C   0  0  1  0  0  3  0  0  0  0  0  0
  160.2010  200.9900  145.6600 C   0  0  0  0  0  1  0  0  0  0  0  0
  161.1840  201.8890  146.4070 C   0  0  1  0  0  3  0  0  0  0  0  0
  160.6120  206.1540  145.9350 C   0  0  0  0  0  2  0  0  0  0  0  0
  161.3600  205.6910  147.1950 C   0  0  1  0  0  3  0  0  0  0  0  0
  160.7710  203.8810  144.8410 C   0  0  0  0  0  2  0  0  0  0  0  0
  161.0600  205.3810  144.6970 C   0  0  0  0  0  2  0  0  0  0  0  0
  160.8500  203.3820  146.2970 C   0  0  2  0  0  3  0  0  0  0  0  0
  161.8130  204.2220  147.1330 C   0  0  0  0  0  2  0  0  0  0  0  0
  162.5530  206.6000  147.4490 C   0  0  0  0  0  2  0  0  0  0  0  0
  163.1110  207.6950  149.6210 O   0  0  0  0  0  1  0  0  0  0  0  0
  161.2080  208.2780  148.4780 O   0  0  0  0  0  0  0  0  0  0  0  0
  162.2530  207.5790  148.5330 C   0  0  0  0  0  0  0  0  0  0  0  0
  161.2590  210.6070  153.0540 C   0  0  0  0  0  2  0  0  0  0  0  0
  160.1100  211.4390  152.7230 N   0  0  0  0  0  2  0  0  0  0  0  0
  160.4080  212.0800  151.5140 N   0  0  0  0  0  2  0  0  0  0  0  0
  159.3630  213.6810  149.9170 C   0  0  2  0  0  3  0  0  0  0  0  0
  160.1490  214.4320  150.9720 C   0  0  0  0  0  2  0  0  0  0  0  0
  159.4330  213.1520  151.3550 C   0  0  2  0  0  3  0  0  0  0  0  0
  159.4340  213.9220  146.9010 O   0  0  0  0  0  0  0  0  0  0  0  0
  160.5530  213.9100  147.7520 C   0  0  1  0  0  0  0  0  0  0  0  0
  160.3330  213.0110  148.9460 C   0  0  2  0  0  3  0  0  0  0  0  0
  159.6350  212.7390  147.6330 C   0  0  1  0  0  3  0  0  0  0  0  0
  163.0050  214.2570  147.6330 C   0  0  0  0  0  1  0  0  0  0  0  0
  161.8210  213.5550  147.0000 C   0  0  0  0  0  2  0  0  0  0  0  0
  2  6  2  0  0  0  0
  3 30  1  6  0  0  0
  3  5  1  0  0  0  0
  4  5  1  0  0  0  0
  5  9  1  1  0  0  0
  6  1  1  0  0  0  0
  6  4  1  0  0  0  0
  7  2  1  0  0  0  0
  7  3  1  0  0  0  0
  9  8  1  0  0  0  0
 10  2  1  0  0  0  0
 11 13  2  0  0  0  0
 11 10  1  0  0  0  0
 12 11  1  0  0  0  0
 14 12  1  0  0  0  0
 15 14  1  0  0  0  0
 17 16  1  6  0  0  0
 17 15  1  0  0  0  0
 19 18  1  1  0  0  0
 19 17  1  0  0  0  0
 20 21  1  0  0  0  0
 21 26  1  6  0  0  0
 22 24  1  0  0  0  0
 23 22  1  0  0  0  0
 23 20  1  0  0  0  0
 24 19  1  6  0  0  0
 24 25  1  0  0  0  0
 25 21  1  0  0  0  0
 26 29  1  0  0  0  0
 28 29  2  0  0  0  0
 29 27  1  0  0  0  0
 31 30  1  0  0  0  0
 32 31  1  0  0  0  0
 33 34  1  1  0  0  0
 33 35  1  0  0  0  0
 34 35  1  0  0  0  0
 35 32  1  6  0  0  0
 36 37  1  0  0  0  0
 37 41  1  6  0  0  0
 37 38  1  0  0  0  0
 38 33  1  1  0  0  0
 39 36  1  1  0  0  0
 39 37  1  0  0  0  0
 39 38  1  0  0  0  0
 41 40  1  0  0  0  0
M  END
>  <MODEL>
6

>  <REMARK>
 VINA RESULT:      -6.4      2.296      4.251
  Name = 
  16 active torsions:
  status: ('A' for Active; 'I' for Inactive)
    1  A    between atoms: C_1  and  C_28
    2  A    between atoms: C_2  and  C_8
    3  A    between atoms: C_2  and  N_40
    4  A    between atoms: C_5  and  C_28
    5  A    between atoms: C_7  and  C_27
    6  A    between atoms: C_10  and  C_23
    7  A    between atoms: C_17  and  O_37
    8  A    between atoms: C_18  and  C_24
    9  A    between atoms: C_18  and  C_36
   10  A    between atoms: C_20  and  C_34
   11  A    between atoms: C_22  and  C_34
   12  A    between atoms: C_24  and  C_32
   13  A    between atoms: C_29  and  C_32
   14  A    between atoms: N_31  and  C_36
   15  A    between atoms: N_33  and  C_38
   16  A    between atoms: N_33  and  N_40
                            x       y       z     vdW  Elec       q    Type
                         _______ _______ _______ _____ _____    ______ ____

>  <TORSDO>
F 16

$$$$
=
 OpenBabel11072413283D

 41 45  0  0  1  0  0  0  0  0999 V2000
  160.2490  206.6390  145.3440 F   0  0  0  0  0  0  0  0  0  0  0  0
  161.0900  205.3840  147.1440 C   0  0  0  0  0  0  0  0  0  0  0  0
  161.0410  202.9120  146.9960 C   0  0  2  0  0  3  0  0  0  0  0  0
  161.2650  204.4350  144.8730 C   0  0  0  0  0  2  0  0  0  0  0  0
  160.9880  203.0290  145.4520 C   0  0  2  0  0  3  0  0  0  0  0  0
  160.8670  205.5280  145.8280 C   0  0  0  0  0  0  0  0  0  0  0  0
  161.7190  204.1180  147.6520 C   0  0  0  0  0  2  0  0  0  0  0  0
  160.0790  201.0100  144.8840 C   0  0  0  0  0  1  0  0  0  0  0  0
  159.8640  202.3960  144.8800 O   0  0  0  0  0  0  0  0  0  0  0  0
  160.6780  206.4460  148.1170 C   0  0  0  0  0  2  0  0  0  0  0  0
  161.7190  207.5110  148.2030 C   0  0  0  0  0  0  0  0  0  0  0  0
  161.3590  208.8230  148.6360 N   0  0  0  0  0  2  0  0  0  0  0  0
  162.9080  207.2450  147.8850 O   0  0  0  0  0  0  0  0  0  0  0  0
  162.3290  209.9020  148.7410 C   0  0  0  0  0  2  0  0  0  0  0  0
  161.7880  211.1390  148.0500 C   0  0  0  0  0  2  0  0  0  0  0  0
  163.6810  212.5930  147.9130 O   0  0  0  0  0  1  0  0  0  0  0  0
  162.4730  212.3940  148.5830 C   0  0  1  0  0  3  0  0  0  0  0  0
  161.7170  214.3500  147.1210 C   0  0  0  0  0  1  0  0  0  0  0  0
  161.5940  213.6430  148.4700 C   0  0  1  0  0  3  0  0  0  0  0  0
  157.4670  213.2880  149.7270 C   0  0  0  0  0  2  0  0  0  0  0  0
  158.5310  213.2710  150.8340 C   0  0  1  0  0  3  0  0  0  0  0  0
  159.1100  214.0620  147.9700 C   0  0  0  0  0  2  0  0  0  0  0  0
  157.7710  214.3420  148.6650 C   0  0  0  0  0  2  0  0  0  0  0  0
  160.1420  213.3760  148.8860 C   0  0  2  0  0  3  0  0  0  0  0  0
  159.9190  213.7300  150.3550 C   0  0  0  0  0  2  0  0  0  0  0  0
  158.0690  214.1260  152.0050 C   0  0  0  0  0  2  0  0  0  0  0  0
  159.1510  212.8370  153.8480 O   0  0  0  0  0  1  0  0  0  0  0  0
  156.8670  213.0390  153.7530 O   0  0  0  0  0  0  0  0  0  0  0  0
  157.9890  213.3160  153.2540 C   0  0  0  0  0  0  0  0  0  0  0  0
  161.6950  201.6070  147.4310 C   0  0  0  0  0  2  0  0  0  0  0  0
  161.1300  201.1430  148.6910 N   0  0  0  0  0  2  0  0  0  0  0  0
  160.6990  202.2790  149.3860 N   0  0  0  0  0  2  0  0  0  0  0  0
  161.0390  203.0260  151.7380 C   0  0  2  0  0  3  0  0  0  0  0  0
  161.9850  201.8900  151.4080 C   0  0  0  0  0  2  0  0  0  0  0  0
  160.6010  201.9020  150.7900 C   0  0  2  0  0  3  0  0  0  0  0  0
  160.6000  205.8940  152.6010 O   0  0  0  0  0  0  0  0  0  0  0  0
  161.7900  205.3670  152.0680 C   0  0  1  0  0  0  0  0  0  0  0  0
  161.5130  204.2980  151.0380 C   0  0  2  0  0  3  0  0  0  0  0  0
  160.5220  205.4140  151.2820 C   0  0  1  0  0  3  0  0  0  0  0  0
  162.1110  207.8190  151.8730 C   0  0  0  0  0  1  0  0  0  0  0  0
  162.6880  206.4620  151.5240 C   0  0  0  0  0  2  0  0  0  0  0  0
  1  6  1  0  0  0  0
  2  7  1  0  0  0  0
  2 10  1  0  0  0  0
  3 30  1  6  0  0  0
  3  7  1  0  0  0  0
  4  5  1  0  0  0  0
  4  6  1  0  0  0  0
  5  9  1  1  0  0  0
  5  3  1  0  0  0  0
  6  2  2  0  0  0  0
  9  8  1  0  0  0  0
 10 11  1  0  0  0  0
 11 12  1  0  0  0  0
 12 14  1  0  0  0  0
 13 11  2  0  0  0  0
 15 17  1  0  0  0  0
 15 14  1  0  0  0  0
 17 16  1  6  0  0  0
 19 18  1  6  0  0  0
 19 17  1  0  0  0  0
 20 21  1  0  0  0  0
 21 26  1  1  0  0  0
 22 23  1  0  0  0  0
 22 24  1  0  0  0  0
 23 20  1  0  0  0  0
 24 19  1  6  0  0  0
 24 25  1  0  0  0  0
 25 21  1  0  0  0  0
 26 29  1  0  0  0  0
 29 28  2  0  0  0  0
 29 27  1  0  0  0  0
 30 31  1  0  0  0  0
 31 32  1  0  0  0  0
 33 34  1  6  0  0  0
 35 32  1  6  0  0  0
 35 34  1  0  0  0  0
 35 33  1  0  0  0  0
 37 41  1  6  0  0  0
 37 36  1  0  0  0  0
 38 39  1  0  0  0  0
 38 33  1  1  0  0  0
 38 37  1  0  0  0  0
 39 37  1  0  0  0  0
 39 36  1  1  0  0  0
 41 40  1  0  0  0  0
M  END
>  <MODEL>
7

>  <REMARK>
 VINA RESULT:      -6.4      2.798      9.944
  Name = 
  16 active torsions:
  status: ('A' for Active; 'I' for Inactive)
    1  A    between atoms: C_1  and  C_28
    2  A    between atoms: C_2  and  C_8
    3  A    between atoms: C_2  and  N_40
    4  A    between atoms: C_5  and  C_28
    5  A    between atoms: C_7  and  C_27
    6  A    between atoms: C_10  and  C_23
    7  A    between atoms: C_17  and  O_37
    8  A    between atoms: C_18  and  C_24
    9  A    between atoms: C_18  and  C_36
   10  A    between atoms: C_20  and  C_34
   11  A    between atoms: C_22  and  C_34
   12  A    between atoms: C_24  and  C_32
   13  A    between atoms: C_29  and  C_32
   14  A    between atoms: N_31  and  C_36
   15  A    between atoms: N_33  and  C_38
   16  A    between atoms: N_33  and  N_40
                            x       y       z     vdW  Elec       q    Type
                         _______ _______ _______ _____ _____    ______ ____

>  <TORSDO>
F 16

$$$$
=
 OpenBabel11072413283D

 41 45  0  0  1  0  0  0  0  0999 V2000
  162.1750  209.7220  150.7590 F   0  0  0  0  0  0  0  0  0  0  0  0
  161.2990  208.1690  152.2880 C   0  0  0  0  0  0  0  0  0  0  0  0
  160.6730  208.9530  154.5540 C   0  0  2  0  0  3  0  0  0  0  0  0
  160.5590  210.5170  152.4520 C   0  0  0  0  0  2  0  0  0  0  0  0
  160.5350  210.3900  153.9920 C   0  0  2  0  0  3  0  0  0  0  0  0
  161.3620  209.4210  151.8060 C   0  0  0  0  0  0  0  0  0  0  0  0
  160.4370  207.8810  153.4860 C   0  0  0  0  0  2  0  0  0  0  0  0
  162.5480  210.6920  155.0340 C   0  0  0  0  0  1  0  0  0  0  0  0
  161.3590  211.3300  154.6470 O   0  0  0  0  0  0  0  0  0  0  0  0
  162.1100  207.0660  151.6800 C   0  0  0  0  0  2  0  0  0  0  0  0
  161.6090  206.7380  150.3140 C   0  0  0  0  0  0  0  0  0  0  0  0
  162.4040  207.0530  149.1710 N   0  0  0  0  0  2  0  0  0  0  0  0
  160.4820  206.1910  150.1810 O   0  0  0  0  0  0  0  0  0  0  0  0
  161.9690  206.7570  147.8150 C   0  0  0  0  0  2  0  0  0  0  0  0
  162.9920  205.8630  147.1390 C   0  0  0  0  0  2  0  0  0  0  0  0
  163.4230  204.5670  145.1770 O   0  0  0  0  0  1  0  0  0  0  0  0
  162.4370  205.3050  145.8330 C   0  0  1  0  0  3  0  0  0  0  0  0
  160.4580  204.1140  144.7370 C   0  0  0  0  0  1  0  0  0  0  0  0
  161.1840  204.4470  146.0390 C   0  0  1  0  0  3  0  0  0  0  0  0
  161.5460  200.9700  148.5920 C   0  0  0  0  0  2  0  0  0  0  0  0
  161.5040  202.3380  149.2890 C   0  0  1  0  0  3  0  0  0  0  0  0
  160.8200  201.9270  146.3690 C   0  0  0  0  0  2  0  0  0  0  0  0
  160.5310  200.8830  147.4550 C   0  0  0  0  0  2  0  0  0  0  0  0
  161.4550  203.2200  146.9170 C   0  0  2  0  0  3  0  0  0  0  0  0
  161.0460  203.4810  148.3660 C   0  0  0  0  0  2  0  0  0  0  0  0
  160.6100  202.2630  150.5170 C   0  0  0  0  0  2  0  0  0  0  0  0
  160.3440  203.4460  152.6980 O   0  0  0  0  0  1  0  0  0  0  0  0
  162.3380  203.5260  151.5660 O   0  0  0  0  0  0  0  0  0  0  0  0
  161.1550  203.1030  151.6230 C   0  0  0  0  0  0  0  0  0  0  0  0
  159.7670  208.7390  155.7590 C   0  0  0  0  0  2  0  0  0  0  0  0
  159.5580  209.9900  156.4750 N   0  0  0  0  0  2  0  0  0  0  0  0
  158.3580  210.5330  156.0010 N   0  0  0  0  0  2  0  0  0  0  0  0
  157.2930  212.7810  156.1330 C   0  0  2  0  0  3  0  0  0  0  0  0
  158.7800  212.8910  156.4020 C   0  0  0  0  0  2  0  0  0  0  0  0
  158.0330  211.6570  156.8700 C   0  0  2  0  0  3  0  0  0  0  0  0
  155.5350  214.3410  154.2260 O   0  0  0  0  0  0  0  0  0  0  0  0
  156.8150  213.8340  153.9390 C   0  0  1  0  0  0  0  0  0  0  0  0
  157.0650  212.5230  154.6460 C   0  0  2  0  0  3  0  0  0  0  0  0
  155.6630  212.9420  154.2630 C   0  0  1  0  0  3  0  0  0  0  0  0
  158.5320  213.5800  152.1670 C   0  0  0  0  0  1  0  0  0  0  0  0
  157.0490  213.7270  152.4440 C   0  0  0  0  0  2  0  0  0  0  0  0
  1  6  1  0  0  0  0
  2  7  1  0  0  0  0
  3 30  1  1  0  0  0
  4  5  1  0  0  0  0
  5  3  1  0  0  0  0
  5  9  1  1  0  0  0
  6  2  2  0  0  0  0
  6  4  1  0  0  0  0
  7  3  1  0  0  0  0
  9  8  1  0  0  0  0
 10  2  1  0  0  0  0
 11 10  1  0  0  0  0
 12 11  1  0  0  0  0
 13 11  2  0  0  0  0
 14 12  1  0  0  0  0
 15 14  1  0  0  0  0
 17 16  1  1  0  0  0
 17 19  1  0  0  0  0
 17 15  1  0  0  0  0
 19 18  1  6  0  0  0
 20 21  1  0  0  0  0
 21 26  1  1  0  0  0
 22 24  1  0  0  0  0
 22 23  1  0  0  0  0
 23 20  1  0  0  0  0
 24 19  1  6  0  0  0
 24 25  1  0  0  0  0
 25 21  1  0  0  0  0
 26 29  1  0  0  0  0
 28 29  2  0  0  0  0
 29 27  1  0  0  0  0
 30 31  1  0  0  0  0
 32 31  1  0  0  0  0
 33 34  1  6  0  0  0
 33 35  1  0  0  0  0
 34 35  1  0  0  0  0
 35 32  1  6  0  0  0
 37 41  1  6  0  0  0
 37 36  1  0  0  0  0
 37 39  1  0  0  0  0
 37 38  1  0  0  0  0
 38 33  1  1  0  0  0
 39 36  1  1  0  0  0
 39 38  1  0  0  0  0
 40 41  1  0  0  0  0
M  END
>  <MODEL>
8

>  <REMARK>
 VINA RESULT:      -6.4      3.499      4.920
  Name = 
  16 active torsions:
  status: ('A' for Active; 'I' for Inactive)
    1  A    between atoms: C_1  and  C_28
    2  A    between atoms: C_2  and  C_8
    3  A    between atoms: C_2  and  N_40
    4  A    between atoms: C_5  and  C_28
    5  A    between atoms: C_7  and  C_27
    6  A    between atoms: C_10  and  C_23
    7  A    between atoms: C_17  and  O_37
    8  A    between atoms: C_18  and  C_24
    9  A    between atoms: C_18  and  C_36
   10  A    between atoms: C_20  and  C_34
   11  A    between atoms: C_22  and  C_34
   12  A    between atoms: C_24  and  C_32
   13  A    between atoms: C_29  and  C_32
   14  A    between atoms: N_31  and  C_36
   15  A    between atoms: N_33  and  C_38
   16  A    between atoms: N_33  and  N_40
                            x       y       z     vdW  Elec       q    Type
                         _______ _______ _______ _____ _____    ______ ____

>  <TORSDO>
F 16

$$$$
=
 OpenBabel11072413283D

 41 45  0  0  1  0  0  0  0  0999 V2000
  163.2680  207.0680  150.3550 F   0  0  0  0  0  0  0  0  0  0  0  0
  161.7950  207.9240  151.9730 C   0  0  0  0  0  0  0  0  0  0  0  0
  161.1690  210.3180  151.8630 C   0  0  2  0  0  3  0  0  0  0  0  0
  161.7730  208.9320  149.7210 C   0  0  0  0  0  2  0  0  0  0  0  0
  161.5320  210.3190  150.3570 C   0  0  2  0  0  3  0  0  0  0  0  0
  162.2850  207.9310  150.7220 C   0  0  0  0  0  0  0  0  0  0  0  0
  160.7530  208.9330  152.3640 C   0  0  0  0  0  2  0  0  0  0  0  0
  162.4510  211.5110  148.6350 C   0  0  0  0  0  1  0  0  0  0  0  0
  162.5150  211.2730  150.0170 O   0  0  0  0  0  0  0  0  0  0  0  0
  162.3080  206.9570  152.9960 C   0  0  0  0  0  2  0  0  0  0  0  0
  161.5280  205.6860  152.9530 C   0  0  0  0  0  0  0  0  0  0  0  0
  161.9400  204.6290  152.0860 N   0  0  0  0  0  2  0  0  0  0  0  0
  160.5060  205.5590  153.6780 O   0  0  0  0  0  0  0  0  0  0  0  0
  161.2210  203.3670  152.0020 C   0  0  0  0  0  2  0  0  0  0  0  0
  160.3500  203.3620  150.7600 C   0  0  0  0  0  2  0  0  0  0  0  0
  159.2790  201.5460  149.6340 O   0  0  0  0  0  1  0  0  0  0  0  0
  160.5270  202.0600  149.9850 C   0  0  1  0  0  3  0  0  0  0  0  0
  160.8980  201.4280  147.5360 C   0  0  0  0  0  1  0  0  0  0  0  0
  161.4010  202.2270  148.7380 C   0  0  1  0  0  3  0  0  0  0  0  0
  161.8750  206.3700  147.5760 C   0  0  0  0  0  2  0  0  0  0  0  0
  162.4820  205.3150  146.6390 C   0  0  1  0  0  3  0  0  0  0  0  0
  160.5660  204.6500  148.8860 C   0  0  0  0  0  2  0  0  0  0  0  0
  160.4950  205.9520  148.0780 C   0  0  0  0  0  2  0  0  0  0  0  0
  161.6830  203.6990  148.4150 C   0  0  2  0  0  3  0  0  0  0  0  0
  161.9960  203.8850  146.9310 C   0  0  0  0  0  2  0  0  0  0  0  0
  162.1940  205.6840  145.1920 C   0  0  0  0  0  2  0  0  0  0  0  0
  160.4660  204.3260  144.0100 O   0  0  0  0  0  0  0  0  0  0  0  0
  159.8560  206.1390  145.2760 O   0  0  0  0  0  1  0  0  0  0  0  0
  160.7730  205.3950  144.8430 C   0  0  0  0  0  0  0  0  0  0  0  0
  160.1050  211.3620  152.1780 C   0  0  0  0  0  2  0  0  0  0  0  0
  160.3530  211.9750  153.4750 N   0  0  0  0  0  2  0  0  0  0  0  0
  159.2270  211.7210  154.2680 N   0  0  0  0  0  2  0  0  0  0  0  0
  160.3400  211.4070  156.4740 C   0  0  2  0  0  3  0  0  0  0  0  0
  158.8360  211.4690  156.6510 C   0  0  0  0  0  2  0  0  0  0  0  0
  159.4890  212.3130  155.5730 C   0  0  2  0  0  3  0  0  0  0  0  0
  162.6160  209.5740  157.2590 O   0  0  0  0  0  0  0  0  0  0  0  0
  161.3160  209.1690  156.9080 C   0  0  1  0  0  0  0  0  0  0  0  0
  160.7210  210.0670  155.8500 C   0  0  2  0  0  3  0  0  0  0  0  0
  162.2160  209.8670  155.9440 C   0  0  1  0  0  3  0  0  0  0  0  0
  159.8810  207.1580  156.6950 C   0  0  0  0  0  1  0  0  0  0  0  0
  161.2800  207.7090  156.5000 C   0  0  0  0  0  2  0  0  0  0  0  0
  1  6  1  0  0  0  0
  2  7  1  0  0  0  0
  2 10  1  0  0  0  0
  3 30  1  6  0  0  0
  3  7  1  0  0  0  0
  4  5  1  0  0  0  0
  4  6  1  0  0  0  0
  5  9  1  1  0  0  0
  5  3  1  0  0  0  0
  6  2  2  0  0  0  0
  8  9  1  0  0  0  0
 11 10  1  0  0  0  0
 11 13  2  0  0  0  0
 12 11  1  0  0  0  0
 14 12  1  0  0  0  0
 15 14  1  0  0  0  0
 17 16  1  6  0  0  0
 17 15  1  0  0  0  0
 19 18  1  6  0  0  0
 19 17  1  0  0  0  0
 20 23  1  0  0  0  0
 21 26  1  6  0  0  0
 21 25  1  0  0  0  0
 21 20  1  0  0  0  0
 23 22  1  0  0  0  0
 24 19  1  6  0  0  0
 24 22  1  0  0  0  0
 25 24  1  0  0  0  0
 27 29  2  0  0  0  0
 29 26  1  0  0  0  0
 29 28  1  0  0  0  0
 30 31  1  0  0  0  0
 31 32  1  0  0  0  0
 33 34  1  1  0  0  0
 35 32  1  6  0  0  0
 35 33  1  0  0  0  0
 35 34  1  0  0  0  0
 37 41  1  6  0  0  0
 37 36  1  0  0  0  0
 38 39  1  0  0  0  0
 38 33  1  1  0  0  0
 38 37  1  0  0  0  0
 39 37  1  0  0  0  0
 39 36  1  1  0  0  0
 41 40  1  0  0  0  0
M  END
>  <MODEL>
9

>  <REMARK>
 VINA RESULT:      -6.3      2.775      6.670
  Name = 
  16 active torsions:
  status: ('A' for Active; 'I' for Inactive)
    1  A    between atoms: C_1  and  C_28
    2  A    between atoms: C_2  and  C_8
    3  A    between atoms: C_2  and  N_40
    4  A    between atoms: C_5  and  C_28
    5  A    between atoms: C_7  and  C_27
    6  A    between atoms: C_10  and  C_23
    7  A    between atoms: C_17  and  O_37
    8  A    between atoms: C_18  and  C_24
    9  A    between atoms: C_18  and  C_36
   10  A    between atoms: C_20  and  C_34
   11  A    between atoms: C_22  and  C_34
   12  A    between atoms: C_24  and  C_32
   13  A    between atoms: C_29  and  C_32
   14  A    between atoms: N_31  and  C_36
   15  A    between atoms: N_33  and  C_38
   16  A    between atoms: N_33  and  N_40
                            x       y       z     vdW  Elec       q    Type
                         _______ _______ _______ _____ _____    ______ ____

>  <TORSDO>
F 16

$$$$
