=
 OpenBabel11072412213D

 68 72  0  0  1  0  0  0  0  0999 V2000
  161.8040  206.4660  144.8370 C   0  0  0  0  0  2  0  0  0  0  0  0
  159.6980  206.3560  146.1340 C   0  0  0  0  0  1  0  0  0  0  0  0
  161.1390  205.8960  146.0820 C   0  0  2  0  0  3  0  0  0  0  0  0
  161.8260  206.3740  147.2310 O   0  0  0  0  0  0  0  0  0  0  0  0
  160.5180  207.3950  148.8150 O   0  0  0  0  0  0  0  0  0  0  0  0
  161.1020  203.9710  148.9570 C   0  0  0  0  0  1  0  0  0  0  0  0
  161.3890  205.3200  149.4170 N   0  0  0  0  0  0  0  0  0  0  0  0
  161.7890  205.5460  150.7770 C   0  0  0  0  0  0  0  0  0  0  0  0
  161.2250  206.4050  148.4940 C   0  0  0  0  0  0  0  0  0  0  0  0
  161.6650  204.6200  151.6300 O   0  0  0  0  0  0  0  0  0  0  0  0
  162.4480  206.8420  151.1640 C   0  0  0  0  0  2  0  0  0  0  0  0
  161.5220  207.7750  151.9310 C   0  0  0  0  0  2  0  0  0  0  0  0
  161.9250  207.8410  153.2720 O   0  0  0  0  0  0  0  0  0  0  0  0
  159.5380  211.5640  155.5510 C   0  0  0  0  0  0  0  0  0  0  0  0
  157.9570  212.9090  153.4770 C   0  0  0  0  0  3  0  0  0  0  0  0
  162.0950  211.6150  156.9060 O   0  0  0  0  0  0  0  0  0  0  0  0
  159.3370  211.7480  151.4150 S   0  0  0  0  0  0  0  0  0  0  0  0
  157.8740  209.8490  155.5800 O   0  0  0  0  0  1  0  0  0  0  0  0
  161.5980  210.5420  156.4670 C   0  0  0  0  0  0  0  0  0  0  0  0
  160.5120  209.8170  153.0340 C   0  0  1  0  0  0  0  0  0  0  0  0
  160.4470  209.4290  154.5200 C   0  0  2  0  0  3  0  0  0  0  0  0
  159.8570  212.7580  155.8160 O   0  0  0  0  0  0  0  0  0  0  0  0
  157.5710  211.5370  153.9510 C   0  0  0  0  0  2  0  0  0  0  0  0
  160.5860  210.5730  155.4380 N   0  0  0  0  0  0  0  0  0  0  0  0
  160.6390  211.2870  152.6050 C   0  0  0  0  0  2  0  0  0  0  0  0
  161.7250  209.1670  153.6910 C   0  0  1  0  0  0  0  0  0  0  0  0
  158.0640  211.2200  155.3740 C   0  0  2  0  0  0  0  0  0  0  0  0
  162.9670  210.0590  153.7940 C   0  0  0  0  0  1  0  0  0  0  0  0
  162.1030  209.2490  157.0110 C   0  0  0  0  0  1  0  0  0  0  0  0
  159.7940  208.9550  152.1980 O   0  0  0  0  0  1  0  0  0  0  0  0
  159.1170  214.4370  152.0760 N   0  0  0  0  0  1  0  0  0  0  0  0
  158.7460  213.1080  152.4230 C   0  0  0  0  0  0  0  0  0  0  0  0
  155.8350  211.7230  156.4960 N   0  0  0  0  0  1  0  0  0  0  0  0
  157.2370  211.9590  156.4020 C   0  0  0  0  0  0  0  0  0  0  0  0
  157.7820  212.7400  157.2280 O   0  0  0  0  0  0  0  0  0  0  0  0
  161.8680  205.4850  143.6660 C   0  0  2  0  0  3  0  0  0  0  0  0
  161.5730  206.0920  142.2920 C   0  0  2  0  0  3  0  0  0  0  0  0
  162.3650  205.5060  141.3080 O   0  0  0  0  0  1  0  0  0  0  0  0
  161.7400  207.6070  142.2580 C   0  0  0  0  0  2  0  0  0  0  0  0
  161.7000  209.4860  140.5610 C   0  0  2  0  0  3  0  0  0  0  0  0
  161.7240  207.0820  139.8210 C   0  0  0  0  0  2  0  0  0  0  0  0
  162.2010  208.0650  140.8830 C   0  0  2  0  0  3  0  0  0  0  0  0
  161.1360  207.1860  137.3900 C   0  0  0  0  0  2  0  0  0  0  0  0
  161.6890  209.0750  138.2610 C   0  0  2  0  0  3  0  0  0  0  0  0
  160.7150  208.6280  137.1860 C   0  0  0  0  0  2  0  0  0  0  0  0
  162.1260  207.6170  138.4510 C   0  0  1  0  0  3  0  0  0  0  0  0
  160.9550  209.5910  139.3570 O   0  0  0  0  0  0  0  0  0  0  0  0
  163.5620  210.6640  139.5360 O   0  0  0  0  0  1  0  0  0  0  0  0
  162.8090  210.5370  140.7070 C   0  0  1  0  0  3  0  0  0  0  0  0
  162.2720  211.8570  141.1540 C   0  0  0  0  0  0  0  0  0  0  0  0
  161.6550  211.9560  142.4380 N   0  0  0  0  0  2  0  0  0  0  0  0
  162.3440  212.8650  140.4010 O   0  0  0  0  0  0  0  0  0  0  0  0
  161.2880  213.2290  143.0470 C   0  0  1  0  0  3  0  0  0  0  0  0
  160.8640  214.1270  142.0820 F   0  0  0  0  0  0  0  0  0  0  0  0
  160.2130  213.0330  144.1220 C   0  0  2  0  0  3  0  0  0  0  0  0
  158.8820  213.5170  143.5640 C   0  0  0  0  0  1  0  0  0  0  0  0
  161.6830  212.9970  146.1980 C   0  0  0  0  0  2  0  0  0  0  0  0
  163.1410  213.9060  147.8620 O   0  0  0  0  0  0  0  0  0  0  0  0
  159.2800  213.8750  146.3360 C   0  0  0  0  0  2  0  0  0  0  0  0
  160.5470  213.7170  145.4620 C   0  0  2  0  0  3  0  0  0  0  0  0
  159.5070  213.8230  147.8570 C   0  0  0  0  0  2  0  0  0  0  0  0
  160.8610  214.2230  148.2240 N   0  0  0  0  0  2  0  0  0  0  0  0
  161.9590  213.7280  147.4660 C   0  0  0  0  0  0  0  0  0  0  0  0
  161.0990  204.3370  143.8960 O   0  0  0  0  0  0  0  0  0  0  0  0
  161.6540  203.7610  144.9450 O   0  0  0  0  0  0  0  0  0  0  0  0
  160.7540  202.7580  145.3230 C   0  0  0  0  0  2  0  0  0  0  0  0
  160.9440  200.3960  146.0830 C   0  0  0  0  0  1  0  0  0  0  0  0
  161.4170  201.8180  146.3130 C   0  0  0  0  0  2  0  0  0  0  0  0
  1  3  1  0  0  0  0
  3  2  1  1  0  0  0
  3  4  1  0  0  0  0
  4  9  1  0  0  0  0
  6  7  1  0  0  0  0
  7  8  1  0  0  0  0
  8 11  1  0  0  0  0
  8 10  2  0  0  0  0
  9  5  2  0  0  0  0
  9  7  1  0  0  0  0
 11 12  1  0  0  0  0
 12 13  1  0  0  0  0
 13 26  1  0  0  0  0
 14 22  2  0  0  0  0
 15 23  1  0  0  0  0
 17 32  1  0  0  0  0
 17 25  1  0  0  0  0
 19 16  2  0  0  0  0
 19 29  1  0  0  0  0
 20 30  1  6  0  0  0
 20 26  1  0  0  0  0
 20 21  1  0  0  0  0
 21 24  1  1  0  0  0
 23 27  1  0  0  0  0
 24 14  1  0  0  0  0
 24 19  1  0  0  0  0
 25 20  1  0  0  0  0
 26 28  1  1  0  0  0
 26 21  1  0  0  0  0
 27 14  1  0  0  0  0
 27 18  1  1  0  0  0
 27 34  1  0  0  0  0
 31 32  1  0  0  0  0
 32 15  2  0  0  0  0
 34 33  1  0  0  0  0
 34 35  2  0  0  0  0
 36 64  1  0  0  0  0
 36  1  1  1  0  0  0
 37 38  1  6  0  0  0
 37 36  1  0  0  0  0
 39 37  1  0  0  0  0
 40 49  1  6  0  0  0
 40 42  1  0  0  0  0
 41 42  1  0  0  0  0
 42 39  1  1  0  0  0
 44 45  1  6  0  0  0
 44 46  1  0  0  0  0
 44 47  1  0  0  0  0
 45 43  1  0  0  0  0
 46 43  1  6  0  0  0
 46 41  1  0  0  0  0
 47 40  1  0  0  0  0
 49 48  1  6  0  0  0
 49 50  1  0  0  0  0
 50 51  1  0  0  0  0
 51 53  1  0  0  0  0
 52 50  2  0  0  0  0
 53 54  1  6  0  0  0
 53 55  1  0  0  0  0
 55 56  1  6  0  0  0
 57 63  1  0  0  0  0
 59 61  1  0  0  0  0
 60 55  1  6  0  0  0
 60 57  1  0  0  0  0
 60 59  1  0  0  0  0
 61 62  1  0  0  0  0
 63 58  2  0  0  0  0
 63 62  1  0  0  0  0
 64 65  1  0  0  0  0
 65 66  1  0  0  0  0
 66 68  1  0  0  0  0
 67 68  1  0  0  0  0
M  END
>  <MODEL>
1

>  <REMARK>
 VINA RESULT:      -0.5      0.000      0.000
  Name = 
  21 active torsions:
  status: ('A' for Active; 'I' for Inactive)
    1  A    between atoms: C_3  and  C_31
    2  A    between atoms: C_8  and  N_12
    3  A    between atoms: C_8  and  C_18
    4  A    between atoms: C_9  and  C_31
    5  A    between atoms: C_13  and  C_52
    6  A    between atoms: C_13  and  C_54
    7  A    between atoms: C_16  and  C_52
    8  A    between atoms: C_18  and  C_22
    9  A    between atoms: C_21  and  C_47
   10  A    between atoms: O_23  and  C_45
   11  A    between atoms: O_23  and  C_62
   12  A    between atoms: C_30  and  O_32
   13  A    between atoms: C_30  and  C_57
   14  A    between atoms: O_32  and  C_46
   15  A    between atoms: O_36  and  C_47
   16  A    between atoms: O_36  and  O_65
   17  A    between atoms: C_38  and  C_57
   18  A    between atoms: C_39  and  C_48
   19  A    between atoms: C_43  and  C_54
   20  A    between atoms: C_43  and  C_62
   21  A    between atoms: C_54  and  O_65
                            x       y       z     vdW  Elec       q    Type
                         _______ _______ _______ _____ _____    ______ ____

>  <TORSDO>
F 21

$$$$
=
 OpenBabel11072412213D

 68 72  0  0  1  0  0  0  0  0999 V2000
  161.3190  210.9490  148.9770 C   0  0  0  0  0  2  0  0  0  0  0  0
  162.9600  209.2850  148.1600 C   0  0  0  0  0  1  0  0  0  0  0  0
  162.2450  209.8120  149.3860 C   0  0  2  0  0  3  0  0  0  0  0  0
  161.4690  208.7690  149.9600 O   0  0  0  0  0  0  0  0  0  0  0  0
  162.9030  207.0440  150.4370 O   0  0  0  0  0  0  0  0  0  0  0  0
  161.6170  209.0210  152.9920 C   0  0  0  0  0  1  0  0  0  0  0  0
  161.6000  207.7900  152.2190 N   0  0  0  0  0  0  0  0  0  0  0  0
  161.2090  206.5560  152.8410 C   0  0  0  0  0  0  0  0  0  0  0  0
  162.0180  207.8380  150.8480 C   0  0  0  0  0  0  0  0  0  0  0  0
  161.1080  206.4920  154.1000 O   0  0  0  0  0  0  0  0  0  0  0  0
  160.8190  205.3750  151.9930 C   0  0  0  0  0  2  0  0  0  0  0  0
  161.1530  204.0400  152.6430 C   0  0  0  0  0  2  0  0  0  0  0  0
  161.6480  203.1550  151.6760 O   0  0  0  0  0  0  0  0  0  0  0  0
  159.7950  201.7600  147.2740 C   0  0  0  0  0  0  0  0  0  0  0  0
  160.8360  203.6740  145.3090 C   0  0  0  0  0  3  0  0  0  0  0  0
  157.5530  201.2340  149.0260 O   0  0  0  0  0  0  0  0  0  0  0  0
  161.5950  205.4940  147.2110 S   0  0  0  0  0  0  0  0  0  0  0  0
  161.9370  200.7010  147.2420 O   0  0  0  0  0  1  0  0  0  0  0  0
  158.7450  201.1270  149.4250 C   0  0  0  0  0  0  0  0  0  0  0  0
  161.3840  203.6790  149.3070 C   0  0  1  0  0  0  0  0  0  0  0  0
  161.0300  202.1900  149.4500 C   0  0  2  0  0  3  0  0  0  0  0  0
  158.7140  202.0190  146.6730 O   0  0  0  0  0  0  0  0  0  0  0  0
  161.7540  202.6710  145.9460 C   0  0  0  0  0  2  0  0  0  0  0  0
  159.8130  201.7960  148.7200 N   0  0  0  0  0  0  0  0  0  0  0  0
  160.5470  204.6070  148.4120 C   0  0  0  0  0  2  0  0  0  0  0  0
  160.7450  203.1830  150.6000 C   0  0  1  0  0  0  0  0  0  0  0  0
  161.0290  201.4110  146.4490 C   0  0  2  0  0  0  0  0  0  0  0  0
  159.3410  203.7280  150.8840 C   0  0  0  0  0  1  0  0  0  0  0  0
  159.0170  200.3230  150.6500 C   0  0  0  0  0  1  0  0  0  0  0  0
  162.7530  203.9430  149.4190 O   0  0  0  0  0  1  0  0  0  0  0  0
  159.7270  205.7710  145.1730 N   0  0  0  0  0  1  0  0  0  0  0  0
  160.6630  204.9010  145.7990 C   0  0  0  0  0  0  0  0  0  0  0  0
  160.8890  199.1210  145.3450 N   0  0  0  0  0  1  0  0  0  0  0  0
  160.6360  200.5220  145.2900 C   0  0  0  0  0  0  0  0  0  0  0  0
  160.0260  200.9940  144.2930 O   0  0  0  0  0  0  0  0  0  0  0  0
  161.6780  212.2950  149.6080 C   0  0  2  0  0  3  0  0  0  0  0  0
  160.9030  212.6420  150.8820 C   0  0  2  0  0  3  0  0  0  0  0  0
  159.7540  211.8640  150.9940 O   0  0  0  0  0  1  0  0  0  0  0  0
  160.5430  214.1190  150.9810 C   0  0  0  0  0  2  0  0  0  0  0  0
  158.1120  213.4100  150.9080 C   0  0  2  0  0  3  0  0  0  0  0  0
  159.2650  214.2730  148.8460 C   0  0  0  0  0  2  0  0  0  0  0  0
  159.1770  214.3800  150.3630 C   0  0  2  0  0  3  0  0  0  0  0  0
  157.7090  213.6720  146.9790 C   0  0  0  0  0  2  0  0  0  0  0  0
  156.8480  213.5310  148.9470 C   0  0  2  0  0  3  0  0  0  0  0  0
  156.6880  212.7690  147.6440 C   0  0  0  0  0  2  0  0  0  0  0  0
  157.8660  214.4530  148.2670 C   0  0  1  0  0  3  0  0  0  0  0  0
  157.4250  212.6680  149.9120 O   0  0  0  0  0  0  0  0  0  0  0  0
  155.8600  214.0810  151.5240 O   0  0  0  0  0  1  0  0  0  0  0  0
  157.1940  214.0790  151.9390 C   0  0  1  0  0  3  0  0  0  0  0  0
  157.3410  213.4700  153.2960 C   0  0  0  0  0  0  0  0  0  0  0  0
  157.5230  214.3250  154.4250 N   0  0  0  0  0  2  0  0  0  0  0  0
  157.3240  212.2180  153.4380 O   0  0  0  0  0  0  0  0  0  0  0  0
  157.4700  213.8470  155.8000 C   0  0  1  0  0  3  0  0  0  0  0  0
  156.7870  212.6440  155.8720 F   0  0  0  0  0  0  0  0  0  0  0  0
  158.8790  213.7110  156.3890 C   0  0  2  0  0  3  0  0  0  0  0  0
  159.8520  214.4510  155.4810 C   0  0  0  0  0  1  0  0  0  0  0  0
  160.6150  211.9250  155.8690 C   0  0  0  0  0  2  0  0  0  0  0  0
  162.1780  210.1840  156.3640 O   0  0  0  0  0  0  0  0  0  0  0  0
  158.1720  211.2680  156.2740 C   0  0  0  0  0  2  0  0  0  0  0  0
  159.3160  212.2510  156.6160 C   0  0  2  0  0  3  0  0  0  0  0  0
  158.6090  209.8940  155.7400 C   0  0  0  0  0  2  0  0  0  0  0  0
  159.9480  209.5300  156.1900 N   0  0  0  0  0  2  0  0  0  0  0  0
  160.9800  210.5100  156.1550 C   0  0  0  0  0  0  0  0  0  0  0  0
  161.6350  213.3420  148.6800 O   0  0  0  0  0  0  0  0  0  0  0  0
  161.7640  212.7590  147.5040 O   0  0  0  0  0  0  0  0  0  0  0  0
  162.1520  213.7850  146.6330 C   0  0  0  0  0  2  0  0  0  0  0  0
  163.2330  214.2530  144.4420 C   0  0  0  0  0  1  0  0  0  0  0  0
  163.0390  213.2230  145.5380 C   0  0  0  0  0  2  0  0  0  0  0  0
  1  3  1  0  0  0  0
  3  2  1  6  0  0  0
  3  4  1  0  0  0  0
  4  9  1  0  0  0  0
  5  9  2  0  0  0  0
  7  8  1  0  0  0  0
  7  6  1  0  0  0  0
  8 10  2  0  0  0  0
  9  7  1  0  0  0  0
 11 12  1  0  0  0  0
 11  8  1  0  0  0  0
 13 12  1  0  0  0  0
 14 24  1  0  0  0  0
 15 32  2  0  0  0  0
 15 23  1  0  0  0  0
 16 19  2  0  0  0  0
 17 25  1  0  0  0  0
 19 29  1  0  0  0  0
 20 30  1  1  0  0  0
 20 21  1  0  0  0  0
 20 26  1  0  0  0  0
 21 24  1  6  0  0  0
 21 26  1  0  0  0  0
 22 14  2  0  0  0  0
 23 27  1  0  0  0  0
 24 19  1  0  0  0  0
 25 20  1  0  0  0  0
 26 28  1  1  0  0  0
 26 13  1  0  0  0  0
 27 18  1  1  0  0  0
 27 14  1  0  0  0  0
 31 32  1  0  0  0  0
 32 17  1  0  0  0  0
 34 33  1  0  0  0  0
 34 27  1  0  0  0  0
 35 34  2  0  0  0  0
 36  1  1  6  0  0  0
 36 37  1  0  0  0  0
 37 39  1  0  0  0  0
 37 38  1  6  0  0  0
 40 49  1  6  0  0  0
 41 42  1  0  0  0  0
 42 40  1  0  0  0  0
 42 39  1  1  0  0  0
 43 45  1  0  0  0  0
 44 45  1  6  0  0  0
 44 47  1  0  0  0  0
 46 43  1  6  0  0  0
 46 41  1  0  0  0  0
 46 44  1  0  0  0  0
 47 40  1  0  0  0  0
 49 48  1  6  0  0  0
 49 50  1  0  0  0  0
 50 52  2  0  0  0  0
 50 51  1  0  0  0  0
 51 53  1  0  0  0  0
 53 54  1  6  0  0  0
 53 55  1  0  0  0  0
 55 56  1  6  0  0  0
 57 63  1  0  0  0  0
 57 60  1  0  0  0  0
 59 60  1  0  0  0  0
 60 55  1  6  0  0  0
 61 62  1  0  0  0  0
 61 59  1  0  0  0  0
 63 62  1  0  0  0  0
 63 58  2  0  0  0  0
 64 36  1  0  0  0  0
 65 64  1  0  0  0  0
 66 65  1  0  0  0  0
 67 68  1  0  0  0  0
 68 66  1  0  0  0  0
M  END
>  <MODEL>
2

>  <REMARK>
 VINA RESULT:       1.4      4.417     10.798
  Name = 
  21 active torsions:
  status: ('A' for Active; 'I' for Inactive)
    1  A    between atoms: C_3  and  C_31
    2  A    between atoms: C_8  and  N_12
    3  A    between atoms: C_8  and  C_18
    4  A    between atoms: C_9  and  C_31
    5  A    between atoms: C_13  and  C_52
    6  A    between atoms: C_13  and  C_54
    7  A    between atoms: C_16  and  C_52
    8  A    between atoms: C_18  and  C_22
    9  A    between atoms: C_21  and  C_47
   10  A    between atoms: O_23  and  C_45
   11  A    between atoms: O_23  and  C_62
   12  A    between atoms: C_30  and  O_32
   13  A    between atoms: C_30  and  C_57
   14  A    between atoms: O_32  and  C_46
   15  A    between atoms: O_36  and  C_47
   16  A    between atoms: O_36  and  O_65
   17  A    between atoms: C_38  and  C_57
   18  A    between atoms: C_39  and  C_48
   19  A    between atoms: C_43  and  C_54
   20  A    between atoms: C_43  and  C_62
   21  A    between atoms: C_54  and  O_65
                            x       y       z     vdW  Elec       q    Type
                         _______ _______ _______ _____ _____    ______ ____

>  <TORSDO>
F 21

$$$$
=
 OpenBabel11072412213D

 68 72  0  0  1  0  0  0  0  0999 V2000
  162.3420  207.1620  148.2030 C   0  0  0  0  0  2  0  0  0  0  0  0
  160.0810  206.1550  148.2510 C   0  0  0  0  0  1  0  0  0  0  0  0
  161.2880  206.4350  147.3810 C   0  0  2  0  0  3  0  0  0  0  0  0
  161.8300  205.2030  146.9220 O   0  0  0  0  0  0  0  0  0  0  0  0
  163.4260  205.1310  145.2760 O   0  0  0  0  0  0  0  0  0  0  0  0
  160.3700  203.5330  144.8350 C   0  0  0  0  0  1  0  0  0  0  0  0
  161.2490  204.6630  144.5880 N   0  0  0  0  0  0  0  0  0  0  0  0
  161.1680  205.3790  143.3460 C   0  0  0  0  0  0  0  0  0  0  0  0
  162.2130  205.0110  145.5910 C   0  0  0  0  0  0  0  0  0  0  0  0
  160.5080  204.8920  142.3820 O   0  0  0  0  0  0  0  0  0  0  0  0
  161.7780  206.7490  143.2240 C   0  0  0  0  0  2  0  0  0  0  0  0
  161.4460  207.4340  141.9050 C   0  0  0  0  0  2  0  0  0  0  0  0
  160.9640  208.7260  142.1530 O   0  0  0  0  0  0  0  0  0  0  0  0
  162.2620  211.7330  138.4080 C   0  0  0  0  0  0  0  0  0  0  0  0
  160.8290  214.2550  138.8550 C   0  0  0  0  0  3  0  0  0  0  0  0
  162.0850  209.1830  137.0530 O   0  0  0  0  0  0  0  0  0  0  0  0
  159.0810  213.1550  140.6540 S   0  0  0  0  0  0  0  0  0  0  0  0
  163.7970  212.4090  140.1100 O   0  0  0  0  0  1  0  0  0  0  0  0
  162.4370  209.2680  138.2610 C   0  0  0  0  0  0  0  0  0  0  0  0
  160.6030  210.8560  141.0190 C   0  0  1  0  0  0  0  0  0  0  0  0
  161.9470  210.3250  140.4970 C   0  0  2  0  0  3  0  0  0  0  0  0
  161.8080  211.9010  137.2410 O   0  0  0  0  0  0  0  0  0  0  0  0
  161.9610  213.8590  139.7580 C   0  0  0  0  0  2  0  0  0  0  0  0
  162.1040  210.4400  139.0360 N   0  0  0  0  0  0  0  0  0  0  0  0
  159.5850  211.5040  140.0660 C   0  0  0  0  0  2  0  0  0  0  0  0
  160.8170  209.3510  140.9030 C   0  0  1  0  0  0  0  0  0  0  0  0
  162.9650  212.8970  139.0970 C   0  0  2  0  0  0  0  0  0  0  0  0
  159.9330  208.6440  139.8710 C   0  0  0  0  0  1  0  0  0  0  0  0
  163.1710  208.1240  138.8720 C   0  0  0  0  0  1  0  0  0  0  0  0
  160.6610  211.3350  142.3320 O   0  0  0  0  0  1  0  0  0  0  0  0
  158.5500  214.3180  138.1870 N   0  0  0  0  0  1  0  0  0  0  0  0
  159.5580  213.9630  139.1260 C   0  0  0  0  0  0  0  0  0  0  0  0
  163.2390  214.3390  137.0170 N   0  0  0  0  0  1  0  0  0  0  0  0
  163.8330  213.6340  138.1030 C   0  0  0  0  0  0  0  0  0  0  0  0
  165.0840  213.6890  138.2550 O   0  0  0  0  0  0  0  0  0  0  0  0
  161.7610  208.0940  149.2670 C   0  0  2  0  0  3  0  0  0  0  0  0
  161.5300  209.5370  148.8100 C   0  0  2  0  0  3  0  0  0  0  0  0
  161.7210  209.6610  147.4370 O   0  0  0  0  0  1  0  0  0  0  0  0
  162.4010  210.5460  149.5490 C   0  0  0  0  0  2  0  0  0  0  0  0
  160.5260  212.2450  149.6580 C   0  0  2  0  0  3  0  0  0  0  0  0
  162.1310  212.2190  147.7210 C   0  0  0  0  0  2  0  0  0  0  0  0
  161.9750  211.9680  149.2160 C   0  0  2  0  0  3  0  0  0  0  0  0
  161.0460  213.6880  146.0090 C   0  0  0  0  0  2  0  0  0  0  0  0
  160.2120  213.8470  147.9870 C   0  0  2  0  0  3  0  0  0  0  0  0
  159.6600  213.9320  146.5750 C   0  0  0  0  0  2  0  0  0  0  0  0
  161.6140  213.6190  147.4100 C   0  0  1  0  0  3  0  0  0  0  0  0
  159.6700  212.7020  148.6210 O   0  0  0  0  0  0  0  0  0  0  0  0
  160.5590  214.4520  150.6730 O   0  0  0  0  0  1  0  0  0  0  0  0
  160.4630  213.0840  150.9410 C   0  0  1  0  0  3  0  0  0  0  0  0
  159.2480  212.7720  151.7530 C   0  0  0  0  0  0  0  0  0  0  0  0
  159.3950  212.5060  153.1480 N   0  0  0  0  0  2  0  0  0  0  0  0
  158.1120  212.7250  151.2090 O   0  0  0  0  0  0  0  0  0  0  0  0
  158.2620  212.3960  154.0580 C   0  0  1  0  0  3  0  0  0  0  0  0
  157.0740  212.6390  153.3910 F   0  0  0  0  0  0  0  0  0  0  0  0
  158.2360  211.0220  154.7380 C   0  0  2  0  0  3  0  0  0  0  0  0
  157.2100  211.0610  155.8620 C   0  0  0  0  0  1  0  0  0  0  0  0
  159.4890  209.4240  156.2710 C   0  0  0  0  0  2  0  0  0  0  0  0
  161.1490  207.8050  156.8580 O   0  0  0  0  0  0  0  0  0  0  0  0
  160.4400  211.7520  155.7820 C   0  0  0  0  0  2  0  0  0  0  0  0
  159.6150  210.5580  155.2470 C   0  0  2  0  0  3  0  0  0  0  0  0
  161.4160  211.4300  156.9270 C   0  0  0  0  0  2  0  0  0  0  0  0
  161.8340  210.0320  156.9150 N   0  0  0  0  0  2  0  0  0  0  0  0
  160.8580  209.0190  156.6960 C   0  0  0  0  0  0  0  0  0  0  0  0
  162.4820  208.0430  150.4660 O   0  0  0  0  0  0  0  0  0  0  0  0
  161.7840  207.2440  151.2490 O   0  0  0  0  0  0  0  0  0  0  0  0
  161.6010  207.9670  152.4330 C   0  0  0  0  0  2  0  0  0  0  0  0
  161.4010  205.6200  153.2360 C   0  0  0  0  0  1  0  0  0  0  0  0
  161.0220  207.0640  153.5060 C   0  0  0  0  0  2  0  0  0  0  0  0
  3  1  1  0  0  0  0
  3  2  1  1  0  0  0
  4  3  1  0  0  0  0
  5  9  2  0  0  0  0
  7  6  1  0  0  0  0
  7  9  1  0  0  0  0
  8  7  1  0  0  0  0
  9  4  1  0  0  0  0
 10  8  2  0  0  0  0
 11  8  1  0  0  0  0
 12 13  1  0  0  0  0
 12 11  1  0  0  0  0
 14 24  1  0  0  0  0
 14 27  1  0  0  0  0
 15 32  2  0  0  0  0
 15 23  1  0  0  0  0
 16 19  2  0  0  0  0
 19 29  1  0  0  0  0
 19 24  1  0  0  0  0
 20 30  1  1  0  0  0
 21 24  1  6  0  0  0
 21 26  1  0  0  0  0
 21 20  1  0  0  0  0
 22 14  2  0  0  0  0
 25 17  1  0  0  0  0
 25 20  1  0  0  0  0
 26 28  1  6  0  0  0
 26 20  1  0  0  0  0
 26 13  1  0  0  0  0
 27 23  1  0  0  0  0
 27 18  1  1  0  0  0
 31 32  1  0  0  0  0
 32 17  1  0  0  0  0
 33 34  1  0  0  0  0
 34 35  2  0  0  0  0
 34 27  1  0  0  0  0
 36  1  1  6  0  0  0
 36 64  1  0  0  0  0
 37 38  1  6  0  0  0
 37 36  1  0  0  0  0
 37 39  1  0  0  0  0
 40 49  1  1  0  0  0
 41 42  1  0  0  0  0
 42 39  1  6  0  0  0
 42 40  1  0  0  0  0
 43 45  1  0  0  0  0
 44 45  1  6  0  0  0
 44 47  1  0  0  0  0
 46 43  1  6  0  0  0
 46 41  1  0  0  0  0
 46 44  1  0  0  0  0
 47 40  1  0  0  0  0
 49 48  1  6  0  0  0
 49 50  1  0  0  0  0
 50 51  1  0  0  0  0
 51 53  1  0  0  0  0
 52 50  2  0  0  0  0
 53 54  1  6  0  0  0
 53 55  1  0  0  0  0
 55 56  1  1  0  0  0
 57 63  1  0  0  0  0
 59 61  1  0  0  0  0
 60 55  1  1  0  0  0
 60 59  1  0  0  0  0
 60 57  1  0  0  0  0
 62 61  1  0  0  0  0
 63 58  2  0  0  0  0
 63 62  1  0  0  0  0
 64 65  1  0  0  0  0
 65 66  1  0  0  0  0
 66 68  1  0  0  0  0
 67 68  1  0  0  0  0
M  END
>  <MODEL>
3

>  <REMARK>
 VINA RESULT:       1.5      3.167     11.862
  Name = 
  21 active torsions:
  status: ('A' for Active; 'I' for Inactive)
    1  A    between atoms: C_3  and  C_31
    2  A    between atoms: C_8  and  N_12
    3  A    between atoms: C_8  and  C_18
    4  A    between atoms: C_9  and  C_31
    5  A    between atoms: C_13  and  C_52
    6  A    between atoms: C_13  and  C_54
    7  A    between atoms: C_16  and  C_52
    8  A    between atoms: C_18  and  C_22
    9  A    between atoms: C_21  and  C_47
   10  A    between atoms: O_23  and  C_45
   11  A    between atoms: O_23  and  C_62
   12  A    between atoms: C_30  and  O_32
   13  A    between atoms: C_30  and  C_57
   14  A    between atoms: O_32  and  C_46
   15  A    between atoms: O_36  and  C_47
   16  A    between atoms: O_36  and  O_65
   17  A    between atoms: C_38  and  C_57
   18  A    between atoms: C_39  and  C_48
   19  A    between atoms: C_43  and  C_54
   20  A    between atoms: C_43  and  C_62
   21  A    between atoms: C_54  and  O_65
                            x       y       z     vdW  Elec       q    Type
                         _______ _______ _______ _____ _____    ______ ____

>  <TORSDO>
F 21

$$$$
=
 OpenBabel11072412213D

 68 72  0  0  1  0  0  0  0  0999 V2000
  161.8110  205.9810  144.8680 C   0  0  0  0  0  2  0  0  0  0  0  0
  159.6500  206.1490  146.0630 C   0  0  0  0  0  1  0  0  0  0  0  0
  161.0620  205.6110  146.1400 C   0  0  2  0  0  3  0  0  0  0  0  0
  161.7270  206.1970  147.2520 O   0  0  0  0  0  0  0  0  0  0  0  0
  160.4460  207.4730  148.6630 O   0  0  0  0  0  0  0  0  0  0  0  0
  160.7440  204.0470  149.1740 C   0  0  0  0  0  1  0  0  0  0  0  0
  161.1210  205.4100  149.5090 N   0  0  0  0  0  0  0  0  0  0  0  0
  161.4850  205.7440  150.8570 C   0  0  0  0  0  0  0  0  0  0  0  0
  161.0820  206.4040  148.4760 C   0  0  0  0  0  0  0  0  0  0  0  0
  161.2530  204.9230  151.7920 O   0  0  0  0  0  0  0  0  0  0  0  0
  162.2320  207.0190  151.1430 C   0  0  0  0  0  2  0  0  0  0  0  0
  161.4790  207.9530  152.0810 C   0  0  0  0  0  2  0  0  0  0  0  0
  162.2580  208.2100  153.2160 O   0  0  0  0  0  0  0  0  0  0  0  0
  159.5200  211.6090  155.6040 C   0  0  0  0  0  0  0  0  0  0  0  0
  157.7410  212.7840  153.5870 C   0  0  0  0  0  3  0  0  0  0  0  0
  162.0870  211.9390  156.8960 O   0  0  0  0  0  0  0  0  0  0  0  0
  159.1920  211.8120  151.4760 S   0  0  0  0  0  0  0  0  0  0  0  0
  158.0650  209.7130  155.6500 O   0  0  0  0  0  1  0  0  0  0  0  0
  161.7060  210.8200  156.4550 C   0  0  0  0  0  0  0  0  0  0  0  0
  160.6230  210.0120  153.0400 C   0  0  1  0  0  0  0  0  0  0  0  0
  160.6400  209.6040  154.5220 C   0  0  2  0  0  3  0  0  0  0  0  0
  159.7060  212.8280  155.8770 O   0  0  0  0  0  0  0  0  0  0  0  0
  157.5280  211.3730  154.0510 C   0  0  0  0  0  2  0  0  0  0  0  0
  160.6710  210.7460  155.4520 N   0  0  0  0  0  0  0  0  0  0  0  0
  160.5690  211.4920  152.6280 C   0  0  0  0  0  2  0  0  0  0  0  0
  161.9180  209.4990  153.6590 C   0  0  1  0  0  0  0  0  0  0  0  0
  158.0900  211.0990  155.4580 C   0  0  2  0  0  0  0  0  0  0  0  0
  163.0520  210.5270  153.7430 C   0  0  0  0  0  1  0  0  0  0  0  0
  162.3700  209.5880  156.9690 C   0  0  0  0  0  1  0  0  0  0  0  0
  159.9870  209.0820  152.2100 O   0  0  0  0  0  1  0  0  0  0  0  0
  158.6810  214.4510  152.1800 N   0  0  0  0  0  1  0  0  0  0  0  0
  158.4750  213.0850  152.5170 C   0  0  0  0  0  0  0  0  0  0  0  0
  157.1560  213.1430  156.6530 N   0  0  0  0  0  1  0  0  0  0  0  0
  157.2100  211.7260  156.5150 C   0  0  0  0  0  0  0  0  0  0  0  0
  156.4680  211.0130  157.2430 O   0  0  0  0  0  0  0  0  0  0  0  0
  161.4230  205.1340  143.6550 C   0  0  2  0  0  3  0  0  0  0  0  0
  161.3320  205.8980  142.3310 C   0  0  2  0  0  3  0  0  0  0  0  0
  161.9090  205.1680  141.2950 O   0  0  0  0  0  1  0  0  0  0  0  0
  161.9550  207.2870  142.3970 C   0  0  0  0  0  2  0  0  0  0  0  0
  161.3200  208.6730  140.3750 C   0  0  2  0  0  3  0  0  0  0  0  0
  162.6400  206.5470  140.1170 C   0  0  0  0  0  2  0  0  0  0  0  0
  162.3780  207.7520  141.0120 C   0  0  2  0  0  3  0  0  0  0  0  0
  162.5300  206.0540  137.6650 C   0  0  0  0  0  2  0  0  0  0  0  0
  161.9290  208.0480  138.2080 C   0  0  2  0  0  3  0  0  0  0  0  0
  161.5080  207.0470  137.1470 C   0  0  0  0  0  2  0  0  0  0  0  0
  162.9740  207.0480  138.7160 C   0  0  1  0  0  3  0  0  0  0  0  0
  160.8510  208.2430  139.1050 O   0  0  0  0  0  0  0  0  0  0  0  0
  163.0860  210.3220  140.1200 O   0  0  0  0  0  1  0  0  0  0  0  0
  161.7330  210.1500  140.4250 C   0  0  1  0  0  3  0  0  0  0  0  0
  160.8670  211.0020  139.5550 C   0  0  0  0  0  0  0  0  0  0  0  0
  161.4490  212.1080  138.8660 N   0  0  0  0  0  2  0  0  0  0  0  0
  159.6350  210.7580  139.4480 O   0  0  0  0  0  0  0  0  0  0  0  0
  160.7410  212.8670  137.8430 C   0  0  1  0  0  3  0  0  0  0  0  0
  159.7320  212.1050  137.2790 F   0  0  0  0  0  0  0  0  0  0  0  0
  160.1820  214.1740  138.4180 C   0  0  2  0  0  3  0  0  0  0  0  0
  160.8750  214.4500  139.7450 C   0  0  0  0  0  1  0  0  0  0  0  0
  158.2190  213.8110  139.9950 C   0  0  0  0  0  2  0  0  0  0  0  0
  156.1490  214.3400  141.0700 O   0  0  0  0  0  0  0  0  0  0  0  0
  157.9830  213.2780  137.5010 C   0  0  0  0  0  2  0  0  0  0  0  0
  158.6490  214.1760  138.5700 C   0  0  2  0  0  3  0  0  0  0  0  0
  156.6700  212.5980  137.9230 C   0  0  0  0  0  2  0  0  0  0  0  0
  155.9790  213.3410  138.9720 N   0  0  0  0  0  2  0  0  0  0  0  0
  156.7320  213.8550  140.0650 C   0  0  0  0  0  0  0  0  0  0  0  0
  160.2710  204.3730  143.8880 O   0  0  0  0  0  0  0  0  0  0  0  0
  160.7170  203.1910  144.2690 O   0  0  0  0  0  0  0  0  0  0  0  0
  160.0630  202.9320  145.4800 C   0  0  0  0  0  2  0  0  0  0  0  0
  160.1970  200.5580  144.7460 C   0  0  0  0  0  1  0  0  0  0  0  0
  160.3400  201.5070  145.9200 C   0  0  0  0  0  2  0  0  0  0  0  0
  1  3  1  0  0  0  0
  3  2  1  6  0  0  0
  3  4  1  0  0  0  0
  4  9  1  0  0  0  0
  6  7  1  0  0  0  0
  7  8  1  0  0  0  0
  8 11  1  0  0  0  0
  8 10  2  0  0  0  0
  9  5  2  0  0  0  0
  9  7  1  0  0  0  0
 11 12  1  0  0  0  0
 12 13  1  0  0  0  0
 13 26  1  0  0  0  0
 14 22  2  0  0  0  0
 15 23  1  0  0  0  0
 17 32  1  0  0  0  0
 17 25  1  0  0  0  0
 19 16  2  0  0  0  0
 19 29  1  0  0  0  0
 20 30  1  6  0  0  0
 20 26  1  0  0  0  0
 20 21  1  0  0  0  0
 21 24  1  1  0  0  0
 23 27  1  0  0  0  0
 24 14  1  0  0  0  0
 24 19  1  0  0  0  0
 25 20  1  0  0  0  0
 26 28  1  1  0  0  0
 26 21  1  0  0  0  0
 27 14  1  0  0  0  0
 27 18  1  1  0  0  0
 27 34  1  0  0  0  0
 31 32  1  0  0  0  0
 32 15  2  0  0  0  0
 34 33  1  0  0  0  0
 34 35  2  0  0  0  0
 36 64  1  0  0  0  0
 36  1  1  1  0  0  0
 37 38  1  6  0  0  0
 37 39  1  0  0  0  0
 37 36  1  0  0  0  0
 40 49  1  6  0  0  0
 40 42  1  0  0  0  0
 41 42  1  0  0  0  0
 42 39  1  1  0  0  0
 44 45  1  6  0  0  0
 44 46  1  0  0  0  0
 44 47  1  0  0  0  0
 45 43  1  0  0  0  0
 46 43  1  6  0  0  0
 46 41  1  0  0  0  0
 47 40  1  0  0  0  0
 49 48  1  6  0  0  0
 50 49  1  0  0  0  0
 51 50  1  0  0  0  0
 52 50  2  0  0  0  0
 53 54  1  1  0  0  0
 53 55  1  0  0  0  0
 53 51  1  0  0  0  0
 55 56  1  1  0  0  0
 57 63  1  0  0  0  0
 59 61  1  0  0  0  0
 59 60  1  0  0  0  0
 60 55  1  1  0  0  0
 60 57  1  0  0  0  0
 61 62  1  0  0  0  0
 62 63  1  0  0  0  0
 63 58  2  0  0  0  0
 64 65  1  0  0  0  0
 65 66  1  0  0  0  0
 66 68  1  0  0  0  0
 67 68  1  0  0  0  0
M  END
>  <MODEL>
4

>  <REMARK>
 VINA RESULT:       2.5      2.330      3.326
  Name = 
  21 active torsions:
  status: ('A' for Active; 'I' for Inactive)
    1  A    between atoms: C_3  and  C_31
    2  A    between atoms: C_8  and  N_12
    3  A    between atoms: C_8  and  C_18
    4  A    between atoms: C_9  and  C_31
    5  A    between atoms: C_13  and  C_52
    6  A    between atoms: C_13  and  C_54
    7  A    between atoms: C_16  and  C_52
    8  A    between atoms: C_18  and  C_22
    9  A    between atoms: C_21  and  C_47
   10  A    between atoms: O_23  and  C_45
   11  A    between atoms: O_23  and  C_62
   12  A    between atoms: C_30  and  O_32
   13  A    between atoms: C_30  and  C_57
   14  A    between atoms: O_32  and  C_46
   15  A    between atoms: O_36  and  C_47
   16  A    between atoms: O_36  and  O_65
   17  A    between atoms: C_38  and  C_57
   18  A    between atoms: C_39  and  C_48
   19  A    between atoms: C_43  and  C_54
   20  A    between atoms: C_43  and  C_62
   21  A    between atoms: C_54  and  O_65
                            x       y       z     vdW  Elec       q    Type
                         _______ _______ _______ _____ _____    ______ ____

>  <TORSDO>
F 21

$$$$
