=
 OpenBabel11072410543D

 40 45  0  0  1  0  0  0  0  0999 V2000
  161.2400  207.0240  153.3010 N   0  0  2  0  0  0  0  0  0  0  0  0
  161.2450  207.9920  154.3740 C   0  0  0  0  0  2  0  0  0  0  0  0
  160.6430  209.1820  153.6610 C   0  0  0  0  0  0  0  0  0  0  0  0
  160.4210  208.9660  152.3990 N   0  0  0  0  0  0  0  0  0  0  0  0
  162.2100  206.1930  152.9630 N   0  0  0  0  0  2  0  0  0  0  0  0
  161.4540  207.0590  151.1360 C   0  0  0  0  0  0  0  0  0  0  0  0
  162.3290  206.1570  151.6400 N   0  0  0  0  0  0  0  0  0  0  0  0
  160.7830  207.6090  152.2080 C   0  0  1  0  0  3  0  0  0  0  0  0
  162.0510  208.5330  149.3510 N   0  0  0  0  0  2  0  0  0  0  0  0
  161.4070  207.4760  149.7260 C   0  0  0  0  0  0  0  0  0  0  0  0
  160.7900  206.6010  148.6840 C   0  0  0  0  0  2  0  0  0  0  0  0
  161.8680  206.0400  147.7630 C   0  0  2  0  0  3  0  0  0  0  0  0
  161.3380  205.5250  144.2720 N   0  0  0  0  0  0  0  0  0  0  0  0
  161.4200  205.9620  146.3360 C   0  0  0  0  0  0  0  0  0  0  0  0
  160.3130  206.5660  145.8700 N   0  0  0  0  0  0  0  0  0  0  0  0
  160.2890  206.2720  144.5810 N   0  0  0  0  0  0  0  0  0  0  0  0
  162.0710  205.3130  145.3530 N   0  0  0  0  0  2  0  0  0  0  0  0
  162.3780  204.7550  148.2420 N   0  0  0  0  0  2  0  0  0  0  0  0
  159.9800  201.2840  149.2100 C   0  0  0  0  0  3  0  0  0  0  0  0
  160.4290  201.6260  147.9440 C   0  0  0  0  0  0  0  0  0  0  0  0
  160.4520  201.2950  146.6730 O   0  0  0  0  0  0  0  0  0  0  0  0
  161.1630  203.3440  149.9360 C   0  0  0  0  0  3  0  0  0  0  0  0
  161.1630  202.7000  147.6650 C   0  0  0  0  0  0  0  0  0  0  0  0
  161.5770  203.6240  148.6060 C   0  0  0  0  0  0  0  0  0  0  0  0
  160.3730  202.1880  150.2310 C   0  0  0  0  0  3  0  0  0  0  0  0
  161.1750  202.3480  146.4000 O   0  0  0  0  0  0  0  0  0  0  0  0
  160.4440  210.5240  154.2830 C   0  0  0  0  0  2  0  0  0  0  0  0
  159.5730  212.7260  151.3030 N   0  0  0  0  0  0  0  0  0  0  0  0
  158.7140  212.1270  153.3990 C   0  0  0  0  0  0  0  0  0  0  0  0
  159.8630  211.4850  153.2970 C   0  0  0  0  0  0  0  0  0  0  0  0
  158.5120  212.8730  152.2090 N   0  0  0  0  0  0  0  0  0  0  0  0
  160.4830  211.7880  151.9720 C   0  0  0  0  0  3  0  0  0  0  0  0
  157.7800  212.1010  154.5540 C   0  0  0  0  0  0  0  0  0  0  0  0
  156.9520  210.9690  154.8040 N   0  0  0  0  0  1  0  0  0  0  0  0
  157.7120  213.0840  155.3370 O   0  0  0  0  0  0  0  0  0  0  0  0
  157.3500  213.6900  151.8950 C   0  0  0  0  0  2  0  0  0  0  0  0
  157.5940  214.4530  150.6070 C   0  0  0  0  0  2  0  0  0  0  0  0
  156.4720  214.1700  149.6300 C   0  0  0  0  0  2  0  0  0  0  0  0
  156.9040  213.0780  148.6730 C   0  0  0  0  0  2  0  0  0  0  0  0
  158.1250  213.4770  147.9980 N   0  0  0  0  0  1  0  0  0  0  0  0
  1  2  1  1  0  0  0
  3 27  1  0  0  0  0
  3  2  1  0  0  0  0
  4  3  2  0  0  0  0
  5  1  1  0  0  0  0
  6  7  2  0  0  0  0
  7  5  1  0  0  0  0
  8  6  1  6  0  0  0
  8  4  1  0  0  0  0
  8  1  1  0  0  0  0
  9 10  2  0  0  0  0
 10  6  1  0  0  0  0
 11 10  1  0  0  0  0
 12 18  1  0  0  0  0
 12 11  1  1  0  0  0
 13 16  2  0  0  0  0
 13 17  1  0  0  0  0
 14 12  1  0  0  0  0
 15 14  2  0  0  0  0
 16 15  1  0  0  0  0
 17 14  1  0  0  0  0
 18 24  1  0  0  0  0
 19 25  1  0  0  0  0
 20 19  2  0  0  0  0
 21 20  1  0  0  0  0
 22 25  2  0  0  0  0
 23 20  1  0  0  0  0
 23 24  2  0  0  0  0
 24 22  1  0  0  0  0
 26 21  1  0  0  0  0
 26 23  1  0  0  0  0
 28 32  2  0  0  0  0
 28 31  1  0  0  0  0
 29 33  1  0  0  0  0
 30 29  2  0  0  0  0
 30 27  1  0  0  0  0
 31 29  1  0  0  0  0
 32 30  1  0  0  0  0
 33 34  1  0  0  0  0
 33 35  2  0  0  0  0
 36 31  1  0  0  0  0
 37 36  1  0  0  0  0
 38 37  1  0  0  0  0
 39 38  1  0  0  0  0
 40 39  1  0  0  0  0
M  END
>  <MODEL>
1

>  <REMARK>
 VINA RESULT:      -7.2      0.000      0.000
  Name = 
  13 active torsions:
  status: ('A' for Active; 'I' for Inactive)
    1  A    between atoms: C_2  and  C_5
    2  A    between atoms: C_4  and  C_10
    3  A    between atoms: C_5  and  C_14
    4  A    between atoms: C_11  and  N_15
    5  A    between atoms: C_11  and  C_20
    6  A    between atoms: C_11  and  C_36
    7  A    between atoms: C_14  and  C_28
    8  A    between atoms: N_15  and  C_27
    9  A    between atoms: C_16  and  C_18
   10  A    between atoms: C_16  and  C_21
   11  A    between atoms: N_24  and  C_28
   12  A    between atoms: C_31  and  C_35
   13  A    between atoms: C_35  and  C_36
                            x       y       z     vdW  Elec       q    Type
                         _______ _______ _______ _____ _____    ______ ____

>  <TORSDO>
F 13

$$$$
=
 OpenBabel11072410543D

 40 45  0  0  1  0  0  0  0  0999 V2000
  160.4560  207.5660  154.8810 N   0  0  2  0  0  0  0  0  0  0  0  0
  160.7730  208.6980  155.7230 C   0  0  0  0  0  2  0  0  0  0  0  0
  161.1650  209.7090  154.6710 C   0  0  0  0  0  0  0  0  0  0  0  0
  161.1610  209.2250  153.4650 N   0  0  0  0  0  0  0  0  0  0  0  0
  160.8070  206.3050  155.0640 N   0  0  0  0  0  2  0  0  0  0  0  0
  161.1490  206.7620  152.9820 C   0  0  0  0  0  0  0  0  0  0  0  0
  161.1870  205.7730  153.9060 N   0  0  0  0  0  0  0  0  0  0  0  0
  160.6970  207.8950  153.6250 C   0  0  1  0  0  3  0  0  0  0  0  0
  162.8500  206.1170  151.4310 N   0  0  0  0  0  2  0  0  0  0  0  0
  161.6860  206.6470  151.6170 C   0  0  0  0  0  0  0  0  0  0  0  0
  160.8350  206.9520  150.4270 C   0  0  0  0  0  2  0  0  0  0  0  0
  161.6980  207.4760  149.2840 C   0  0  2  0  0  3  0  0  0  0  0  0
  162.1240  210.9820  148.7780 N   0  0  0  0  0  0  0  0  0  0  0  0
  161.8830  208.9610  149.3390 C   0  0  0  0  0  0  0  0  0  0  0  0
  162.0590  209.6470  150.4820 N   0  0  0  0  0  0  0  0  0  0  0  0
  162.2030  210.9040  150.0980 N   0  0  0  0  0  0  0  0  0  0  0  0
  161.9250  209.7770  148.2700 N   0  0  0  0  0  2  0  0  0  0  0  0
  161.1950  207.0400  147.9810 N   0  0  0  0  0  2  0  0  0  0  0  0
  161.4220  203.0630  146.2890 C   0  0  0  0  0  3  0  0  0  0  0  0
  161.3220  204.2410  145.5660 C   0  0  0  0  0  0  0  0  0  0  0  0
  161.2570  204.7800  144.3710 O   0  0  0  0  0  0  0  0  0  0  0  0
  161.3700  204.5470  148.2800 C   0  0  0  0  0  3  0  0  0  0  0  0
  161.2500  205.4560  146.1050 C   0  0  0  0  0  0  0  0  0  0  0  0
  161.2640  205.7050  147.4640 C   0  0  0  0  0  0  0  0  0  0  0  0
  161.4460  203.2430  147.6970 C   0  0  0  0  0  3  0  0  0  0  0  0
  161.1900  205.9730  144.8990 O   0  0  0  0  0  0  0  0  0  0  0  0
  161.6460  211.0910  154.9680 C   0  0  0  0  0  2  0  0  0  0  0  0
  159.1970  213.2270  156.9500 N   0  0  0  0  0  0  0  0  0  0  0  0
  159.5810  212.5170  154.7500 C   0  0  0  0  0  0  0  0  0  0  0  0
  160.5280  211.9460  155.4720 C   0  0  0  0  0  0  0  0  0  0  0  0
  158.7730  213.3000  155.6140 N   0  0  0  0  0  0  0  0  0  0  0  0
  160.3800  212.3590  156.8990 C   0  0  0  0  0  3  0  0  0  0  0  0
  159.3670  212.3710  153.2880 C   0  0  0  0  0  0  0  0  0  0  0  0
  158.5840  211.3030  152.7630 N   0  0  0  0  0  1  0  0  0  0  0  0
  159.8730  213.2000  152.4870 O   0  0  0  0  0  0  0  0  0  0  0  0
  157.6430  214.1260  155.2190 C   0  0  0  0  0  2  0  0  0  0  0  0
  156.3720  213.5920  155.8510 C   0  0  0  0  0  2  0  0  0  0  0  0
  155.8170  212.4680  155.0010 C   0  0  0  0  0  2  0  0  0  0  0  0
  155.7260  211.2070  155.8360 C   0  0  0  0  0  2  0  0  0  0  0  0
  155.2950  210.1010  155.0020 N   0  0  0  0  0  1  0  0  0  0  0  0
  1  5  1  0  0  0  0
  1  2  1  1  0  0  0
  3 27  1  0  0  0  0
  3  2  1  0  0  0  0
  4  8  1  0  0  0  0
  4  3  2  0  0  0  0
  6  7  2  0  0  0  0
  7  5  1  0  0  0  0
  8  6  1  1  0  0  0
  8  1  1  0  0  0  0
  9 10  2  0  0  0  0
 10  6  1  0  0  0  0
 11 10  1  0  0  0  0
 12 14  1  0  0  0  0
 12 11  1  1  0  0  0
 13 16  2  0  0  0  0
 14 15  2  0  0  0  0
 16 15  1  0  0  0  0
 17 13  1  0  0  0  0
 17 14  1  0  0  0  0
 18 12  1  0  0  0  0
 19 25  1  0  0  0  0
 20 23  1  0  0  0  0
 20 19  2  0  0  0  0
 21 26  1  0  0  0  0
 21 20  1  0  0  0  0
 23 24  2  0  0  0  0
 24 18  1  0  0  0  0
 24 22  1  0  0  0  0
 25 22  2  0  0  0  0
 26 23  1  0  0  0  0
 27 30  1  0  0  0  0
 29 30  2  0  0  0  0
 29 31  1  0  0  0  0
 30 32  1  0  0  0  0
 31 28  1  0  0  0  0
 32 28  2  0  0  0  0
 33 29  1  0  0  0  0
 34 33  1  0  0  0  0
 35 33  2  0  0  0  0
 36 31  1  0  0  0  0
 36 37  1  0  0  0  0
 38 39  1  0  0  0  0
 38 37  1  0  0  0  0
 40 39  1  0  0  0  0
M  END
>  <MODEL>
2

>  <REMARK>
 VINA RESULT:      -7.1      2.522      3.982
  Name = 
  13 active torsions:
  status: ('A' for Active; 'I' for Inactive)
    1  A    between atoms: C_2  and  C_5
    2  A    between atoms: C_4  and  C_10
    3  A    between atoms: C_5  and  C_14
    4  A    between atoms: C_11  and  N_15
    5  A    between atoms: C_11  and  C_20
    6  A    between atoms: C_11  and  C_36
    7  A    between atoms: C_14  and  C_28
    8  A    between atoms: N_15  and  C_27
    9  A    between atoms: C_16  and  C_18
   10  A    between atoms: C_16  and  C_21
   11  A    between atoms: N_24  and  C_28
   12  A    between atoms: C_31  and  C_35
   13  A    between atoms: C_35  and  C_36
                            x       y       z     vdW  Elec       q    Type
                         _______ _______ _______ _____ _____    ______ ____

>  <TORSDO>
F 13

$$$$
=
 OpenBabel11072410543D

 40 45  0  0  1  0  0  0  0  0999 V2000
  161.5510  209.1790  152.8310 N   0  0  2  0  0  0  0  0  0  0  0  0
  161.0370  207.9020  153.2730 C   0  0  0  0  0  2  0  0  0  0  0  0
  161.4470  207.0320  152.1070 C   0  0  0  0  0  0  0  0  0  0  0  0
  162.0080  207.6980  151.1410 N   0  0  0  0  0  0  0  0  0  0  0  0
  160.9460  210.3510  152.8840 N   0  0  0  0  0  2  0  0  0  0  0  0
  161.8480  210.1930  150.9300 C   0  0  0  0  0  0  0  0  0  0  0  0
  161.1540  211.0150  151.7520 N   0  0  0  0  0  0  0  0  0  0  0  0
  162.0770  209.0270  151.6290 C   0  0  1  0  0  3  0  0  0  0  0  0
  161.9580  209.5200  148.6380 N   0  0  0  0  0  2  0  0  0  0  0  0
  162.1100  210.4650  149.5080 C   0  0  0  0  0  0  0  0  0  0  0  0
  162.3620  211.8560  149.0230 C   0  0  0  0  0  2  0  0  0  0  0  0
  161.1180  212.4050  148.3320 C   0  0  2  0  0  3  0  0  0  0  0  0
  161.1270  212.9880  144.8120 N   0  0  0  0  0  0  0  0  0  0  0  0
  161.3650  212.7520  146.8970 C   0  0  0  0  0  0  0  0  0  0  0  0
  162.5220  213.2690  146.4450 N   0  0  0  0  0  0  0  0  0  0  0  0
  162.3390  213.4060  145.1420 N   0  0  0  0  0  2  0  0  0  0  0  0
  160.4890  212.5680  145.8920 N   0  0  0  0  0  0  0  0  0  0  0  0
  160.5390  213.5280  149.0700 N   0  0  0  0  0  2  0  0  0  0  0  0
  156.3830  214.0590  150.1520 C   0  0  0  0  0  3  0  0  0  0  0  0
  157.4450  214.0070  151.0400 C   0  0  0  0  0  0  0  0  0  0  0  0
  157.8130  214.0610  152.2990 O   0  0  0  0  0  0  0  0  0  0  0  0
  158.1210  213.7410  148.4070 C   0  0  0  0  0  3  0  0  0  0  0  0
  158.7180  213.8400  150.6880 C   0  0  0  0  0  0  0  0  0  0  0  0
  159.1500  213.6930  149.3840 C   0  0  0  0  0  0  0  0  0  0  0  0
  156.7530  213.9200  148.7900 C   0  0  0  0  0  3  0  0  0  0  0  0
  159.0630  213.9000  151.9540 O   0  0  0  0  0  0  0  0  0  0  0  0
  161.1290  205.5790  151.9870 C   0  0  0  0  0  2  0  0  0  0  0  0
  160.8350  205.3490  148.1980 N   0  0  0  0  0  0  0  0  0  0  0  0
  161.1470  203.9580  150.0590 C   0  0  0  0  0  0  0  0  0  0  0  0
  161.0200  205.1760  150.5510 C   0  0  0  0  0  0  0  0  0  0  0  0
  161.0490  204.0360  148.6450 N   0  0  0  0  0  0  0  0  0  0  0  0
  160.8370  206.1470  149.4310 C   0  0  0  0  0  3  0  0  0  0  0  0
  161.3460  202.7030  150.8280 C   0  0  0  0  0  0  0  0  0  0  0  0
  160.5070  201.5710  150.6170 N   0  0  0  0  0  1  0  0  0  0  0  0
  162.2700  202.6210  151.6790 O   0  0  0  0  0  0  0  0  0  0  0  0
  161.1760  202.9260  147.7130 C   0  0  0  0  0  2  0  0  0  0  0  0
  161.8150  203.4090  146.4250 C   0  0  0  0  0  2  0  0  0  0  0  0
  160.9300  203.0420  145.2520 C   0  0  0  0  0  2  0  0  0  0  0  0
  160.4500  204.3060  144.5700 C   0  0  0  0  0  2  0  0  0  0  0  0
  161.5800  205.1820  144.3170 N   0  0  0  0  0  1  0  0  0  0  0  0
  1  5  1  0  0  0  0
  1  2  1  6  0  0  0
  3  2  1  0  0  0  0
  4  8  1  0  0  0  0
  4  3  2  0  0  0  0
  6  7  2  0  0  0  0
  7  5  1  0  0  0  0
  8  6  1  6  0  0  0
  8  1  1  0  0  0  0
  9 10  2  0  0  0  0
 10  6  1  0  0  0  0
 11 10  1  0  0  0  0
 12 11  1  1  0  0  0
 12 18  1  0  0  0  0
 13 16  1  0  0  0  0
 13 17  2  0  0  0  0
 14 12  1  0  0  0  0
 15 14  2  0  0  0  0
 16 15  1  0  0  0  0
 17 14  1  0  0  0  0
 18 24  1  0  0  0  0
 19 20  1  0  0  0  0
 20 21  1  0  0  0  0
 22 25  1  0  0  0  0
 22 24  2  0  0  0  0
 23 20  2  0  0  0  0
 23 26  1  0  0  0  0
 24 23  1  0  0  0  0
 25 19  2  0  0  0  0
 26 21  1  0  0  0  0
 27  3  1  0  0  0  0
 28 31  1  0  0  0  0
 28 32  2  0  0  0  0
 29 30  2  0  0  0  0
 29 33  1  0  0  0  0
 30 27  1  0  0  0  0
 31 29  1  0  0  0  0
 32 30  1  0  0  0  0
 33 35  2  0  0  0  0
 34 33  1  0  0  0  0
 36 31  1  0  0  0  0
 37 36  1  0  0  0  0
 38 37  1  0  0  0  0
 39 38  1  0  0  0  0
 40 39  1  0  0  0  0
M  END
>  <MODEL>
3

>  <REMARK>
 VINA RESULT:      -6.9      2.647      8.878
  Name = 
  13 active torsions:
  status: ('A' for Active; 'I' for Inactive)
    1  A    between atoms: C_2  and  C_5
    2  A    between atoms: C_4  and  C_10
    3  A    between atoms: C_5  and  C_14
    4  A    between atoms: C_11  and  N_15
    5  A    between atoms: C_11  and  C_20
    6  A    between atoms: C_11  and  C_36
    7  A    between atoms: C_14  and  C_28
    8  A    between atoms: N_15  and  C_27
    9  A    between atoms: C_16  and  C_18
   10  A    between atoms: C_16  and  C_21
   11  A    between atoms: N_24  and  C_28
   12  A    between atoms: C_31  and  C_35
   13  A    between atoms: C_35  and  C_36
                            x       y       z     vdW  Elec       q    Type
                         _______ _______ _______ _____ _____    ______ ____

>  <TORSDO>
F 13

$$$$
=
 OpenBabel11072410543D

 40 45  0  0  1  0  0  0  0  0999 V2000
  160.0880  208.0640  155.6090 N   0  0  2  0  0  0  0  0  0  0  0  0
  160.1300  209.3830  156.2030 C   0  0  0  0  0  2  0  0  0  0  0  0
  160.2150  210.2320  154.9550 C   0  0  0  0  0  0  0  0  0  0  0  0
  160.2970  209.5340  153.8620 N   0  0  0  0  0  0  0  0  0  0  0  0
  160.7570  206.9900  155.9900 N   0  0  0  0  0  2  0  0  0  0  0  0
  160.9040  207.0990  153.8390 C   0  0  0  0  0  0  0  0  0  0  0  0
  161.2240  206.3520  154.9220 N   0  0  0  0  0  0  0  0  0  0  0  0
  160.1960  208.1890  154.2990 C   0  0  1  0  0  3  0  0  0  0  0  0
  162.5190  206.2120  152.3160 N   0  0  0  0  0  2  0  0  0  0  0  0
  161.4080  206.8530  152.4780 C   0  0  0  0  0  0  0  0  0  0  0  0
  160.5700  207.1570  151.2790 C   0  0  0  0  0  2  0  0  0  0  0  0
  161.4470  207.2610  150.0370 C   0  0  2  0  0  3  0  0  0  0  0  0
  162.3450  210.7130  149.9290 N   0  0  0  0  0  0  0  0  0  0  0  0
  161.8350  208.6740  149.7260 C   0  0  0  0  0  0  0  0  0  0  0  0
  161.9820  209.1480  148.4760 N   0  0  0  0  0  0  0  0  0  0  0  0
  162.3020  210.4210  148.6380 N   0  0  0  0  0  0  0  0  0  0  0  0
  162.0540  209.6370  150.6410 N   0  0  0  0  0  2  0  0  0  0  0  0
  160.8350  206.6010  148.8840 N   0  0  0  0  0  2  0  0  0  0  0  0
  161.2520  202.3960  147.9490 C   0  0  0  0  0  3  0  0  0  0  0  0
  160.9150  202.9150  149.1890 C   0  0  0  0  0  0  0  0  0  0  0  0
  160.6070  202.6410  150.4350 O   0  0  0  0  0  0  0  0  0  0  0  0
  161.3360  204.7720  147.2300 C   0  0  0  0  0  3  0  0  0  0  0  0
  160.7950  204.2140  149.4580 C   0  0  0  0  0  0  0  0  0  0  0  0
  160.9920  205.2200  148.5320 C   0  0  0  0  0  0  0  0  0  0  0  0
  161.4660  203.3750  146.9450 C   0  0  0  0  0  3  0  0  0  0  0  0
  160.4850  203.9150  150.6990 O   0  0  0  0  0  0  0  0  0  0  0  0
  160.3340  211.7200  154.9560 C   0  0  0  0  0  2  0  0  0  0  0  0
  159.3350  212.9280  151.4870 N   0  0  0  0  0  0  0  0  0  0  0  0
  158.4660  212.8050  153.6610 C   0  0  0  0  0  0  0  0  0  0  0  0
  159.6850  212.3060  153.7440 C   0  0  0  0  0  0  0  0  0  0  0  0
  158.2270  213.1780  152.3130 N   0  0  0  0  0  0  0  0  0  0  0  0
  160.3190  212.3200  152.3910 C   0  0  0  0  0  3  0  0  0  0  0  0
  157.4960  212.9720  154.7730 C   0  0  0  0  0  0  0  0  0  0  0  0
  157.6440  214.0210  155.7260 N   0  0  0  0  0  1  0  0  0  0  0  0
  156.5180  212.1870  154.8850 O   0  0  0  0  0  0  0  0  0  0  0  0
  156.9920  213.7320  151.7810 C   0  0  0  0  0  2  0  0  0  0  0  0
  157.2450  214.3210  150.4060 C   0  0  0  0  0  2  0  0  0  0  0  0
  156.2570  213.7390  149.4170 C   0  0  0  0  0  2  0  0  0  0  0  0
  156.7170  214.0490  148.0070 C   0  0  0  0  0  2  0  0  0  0  0  0
  157.3340  212.8710  147.4260 N   0  0  0  0  0  1  0  0  0  0  0  0
  1  5  1  0  0  0  0
  1  2  1  1  0  0  0
  3 27  1  0  0  0  0
  3  2  1  0  0  0  0
  4  8  1  0  0  0  0
  4  3  2  0  0  0  0
  6  7  2  0  0  0  0
  7  5  1  0  0  0  0
  8  6  1  1  0  0  0
  8  1  1  0  0  0  0
  9 10  2  0  0  0  0
 10  6  1  0  0  0  0
 11 10  1  0  0  0  0
 12 11  1  1  0  0  0
 13 17  1  0  0  0  0
 14 12  1  0  0  0  0
 14 17  1  0  0  0  0
 15 16  1  0  0  0  0
 15 14  2  0  0  0  0
 16 13  2  0  0  0  0
 18 12  1  0  0  0  0
 19 20  1  0  0  0  0
 20 23  2  0  0  0  0
 20 21  1  0  0  0  0
 21 26  1  0  0  0  0
 22 24  2  0  0  0  0
 23 26  1  0  0  0  0
 24 18  1  0  0  0  0
 24 23  1  0  0  0  0
 25 22  1  0  0  0  0
 25 19  2  0  0  0  0
 28 31  1  0  0  0  0
 28 32  2  0  0  0  0
 29 30  2  0  0  0  0
 29 33  1  0  0  0  0
 30 27  1  0  0  0  0
 31 29  1  0  0  0  0
 32 30  1  0  0  0  0
 33 35  2  0  0  0  0
 33 34  1  0  0  0  0
 36 31  1  0  0  0  0
 37 36  1  0  0  0  0
 38 37  1  0  0  0  0
 39 38  1  0  0  0  0
 40 39  1  0  0  0  0
M  END
>  <MODEL>
4

>  <REMARK>
 VINA RESULT:      -6.8      1.958      3.068
  Name = 
  13 active torsions:
  status: ('A' for Active; 'I' for Inactive)
    1  A    between atoms: C_2  and  C_5
    2  A    between atoms: C_4  and  C_10
    3  A    between atoms: C_5  and  C_14
    4  A    between atoms: C_11  and  N_15
    5  A    between atoms: C_11  and  C_20
    6  A    between atoms: C_11  and  C_36
    7  A    between atoms: C_14  and  C_28
    8  A    between atoms: N_15  and  C_27
    9  A    between atoms: C_16  and  C_18
   10  A    between atoms: C_16  and  C_21
   11  A    between atoms: N_24  and  C_28
   12  A    between atoms: C_31  and  C_35
   13  A    between atoms: C_35  and  C_36
                            x       y       z     vdW  Elec       q    Type
                         _______ _______ _______ _____ _____    ______ ____

>  <TORSDO>
F 13

$$$$
=
 OpenBabel11072410543D

 40 45  0  0  1  0  0  0  0  0999 V2000
  160.6090  208.4400  155.3630 N   0  0  2  0  0  0  0  0  0  0  0  0
  160.6630  207.0030  155.2070 C   0  0  0  0  0  2  0  0  0  0  0  0
  161.0470  206.9090  153.7480 C   0  0  0  0  0  0  0  0  0  0  0  0
  161.1110  208.0650  153.1580 N   0  0  0  0  0  0  0  0  0  0  0  0
  159.6830  209.1470  155.9850 N   0  0  0  0  0  2  0  0  0  0  0  0
  160.0960  210.1480  154.1180 C   0  0  0  0  0  0  0  0  0  0  0  0
  159.3860  210.2270  155.2690 N   0  0  0  0  0  0  0  0  0  0  0  0
  160.8540  208.9990  154.1920 C   0  0  1  0  0  3  0  0  0  0  0  0
  160.8310  211.1190  152.0610 N   0  0  0  0  0  2  0  0  0  0  0  0
  159.9080  211.0400  152.9620 C   0  0  0  0  0  0  0  0  0  0  0  0
  158.5950  211.7070  152.7090 C   0  0  0  0  0  2  0  0  0  0  0  0
  158.5990  213.1150  153.2950 C   0  0  2  0  0  3  0  0  0  0  0  0
  156.4320  213.5580  156.0940 N   0  0  0  0  0  0  0  0  0  0  0  0
  157.4960  213.3260  154.2860 C   0  0  0  0  0  0  0  0  0  0  0  0
  156.2020  213.4540  153.9430 N   0  0  0  0  0  0  0  0  0  0  0  0
  155.5650  213.6000  155.0930 N   0  0  0  0  0  2  0  0  0  0  0  0
  157.6540  213.3840  155.6210 N   0  0  0  0  0  0  0  0  0  0  0  0
  158.5910  214.1370  152.2490 N   0  0  0  0  0  2  0  0  0  0  0  0
  157.5990  213.4680  148.0900 C   0  0  0  0  0  3  0  0  0  0  0  0
  158.8800  213.4870  148.6180 C   0  0  0  0  0  0  0  0  0  0  0  0
  160.1620  213.3670  148.3650 O   0  0  0  0  0  0  0  0  0  0  0  0
  156.8740  213.9190  150.4220 C   0  0  0  0  0  3  0  0  0  0  0  0
  159.1660  213.6980  149.9010 C   0  0  0  0  0  0  0  0  0  0  0  0
  158.2180  213.9290  150.8800 C   0  0  0  0  0  0  0  0  0  0  0  0
  156.5710  213.6930  149.0410 C   0  0  0  0  0  3  0  0  0  0  0  0
  160.4430  213.5700  149.6250 O   0  0  0  0  0  0  0  0  0  0  0  0
  161.2050  205.6270  153.0010 C   0  0  0  0  0  2  0  0  0  0  0  0
  161.3160  207.0020  149.4520 N   0  0  0  0  0  0  0  0  0  0  0  0
  161.1260  204.9530  150.5750 C   0  0  0  0  0  0  0  0  0  0  0  0
  161.1860  205.8670  151.5250 C   0  0  0  0  0  0  0  0  0  0  0  0
  161.2110  205.6080  149.3190 N   0  0  0  0  0  0  0  0  0  0  0  0
  161.3330  207.2180  150.9050 C   0  0  0  0  0  3  0  0  0  0  0  0
  160.9800  203.4860  150.7590 C   0  0  0  0  0  0  0  0  0  0  0  0
  160.0860  202.7290  149.9480 N   0  0  0  0  0  1  0  0  0  0  0  0
  161.6550  202.8870  151.6360 O   0  0  0  0  0  0  0  0  0  0  0  0
  161.2230  204.9660  148.0140 C   0  0  0  0  0  2  0  0  0  0  0  0
  161.9150  205.8640  147.0070 C   0  0  0  0  0  2  0  0  0  0  0  0
  162.7000  205.0170  146.0280 C   0  0  0  0  0  2  0  0  0  0  0  0
  161.7690  204.0180  145.3710 C   0  0  0  0  0  2  0  0  0  0  0  0
  160.8330  204.7170  144.5110 N   0  0  0  0  0  1  0  0  0  0  0  0
  1  2  1  6  0  0  0
  1  5  1  0  0  0  0
  3  2  1  0  0  0  0
  4  3  2  0  0  0  0
  6  8  1  0  0  0  0
  6  7  2  0  0  0  0
  7  5  1  0  0  0  0
  8  4  1  6  0  0  0
  8  1  1  0  0  0  0
  9 10  2  0  0  0  0
 10  6  1  0  0  0  0
 11 10  1  0  0  0  0
 12 11  1  6  0  0  0
 12 14  1  0  0  0  0
 14 17  1  0  0  0  0
 15 14  2  0  0  0  0
 15 16  1  0  0  0  0
 16 13  1  0  0  0  0
 17 13  2  0  0  0  0
 18 12  1  0  0  0  0
 19 20  2  0  0  0  0
 19 25  1  0  0  0  0
 20 23  1  0  0  0  0
 21 20  1  0  0  0  0
 21 26  1  0  0  0  0
 22 24  1  0  0  0  0
 23 24  2  0  0  0  0
 24 18  1  0  0  0  0
 25 22  2  0  0  0  0
 26 23  1  0  0  0  0
 27  3  1  0  0  0  0
 28 32  2  0  0  0  0
 29 33  1  0  0  0  0
 29 30  2  0  0  0  0
 30 27  1  0  0  0  0
 31 28  1  0  0  0  0
 31 29  1  0  0  0  0
 32 30  1  0  0  0  0
 33 35  2  0  0  0  0
 34 33  1  0  0  0  0
 36 31  1  0  0  0  0
 37 36  1  0  0  0  0
 38 37  1  0  0  0  0
 39 38  1  0  0  0  0
 40 39  1  0  0  0  0
M  END
>  <MODEL>
5

>  <REMARK>
 VINA RESULT:      -6.6      2.479      9.404
  Name = 
  13 active torsions:
  status: ('A' for Active; 'I' for Inactive)
    1  A    between atoms: C_2  and  C_5
    2  A    between atoms: C_4  and  C_10
    3  A    between atoms: C_5  and  C_14
    4  A    between atoms: C_11  and  N_15
    5  A    between atoms: C_11  and  C_20
    6  A    between atoms: C_11  and  C_36
    7  A    between atoms: C_14  and  C_28
    8  A    between atoms: N_15  and  C_27
    9  A    between atoms: C_16  and  C_18
   10  A    between atoms: C_16  and  C_21
   11  A    between atoms: N_24  and  C_28
   12  A    between atoms: C_31  and  C_35
   13  A    between atoms: C_35  and  C_36
                            x       y       z     vdW  Elec       q    Type
                         _______ _______ _______ _____ _____    ______ ____

>  <TORSDO>
F 13

$$$$
=
 OpenBabel11072410543D

 40 45  0  0  1  0  0  0  0  0999 V2000
  160.7980  206.6910  153.8450 N   0  0  2  0  0  0  0  0  0  0  0  0
  161.2940  207.8130  154.6100 C   0  0  0  0  0  2  0  0  0  0  0  0
  161.3680  208.8620  153.5240 C   0  0  0  0  0  0  0  0  0  0  0  0
  161.0620  208.4050  152.3470 N   0  0  0  0  0  0  0  0  0  0  0  0
  161.2170  205.4390  153.8910 N   0  0  0  0  0  2  0  0  0  0  0  0
  160.9910  205.9560  151.8070 C   0  0  0  0  0  0  0  0  0  0  0  0
  161.2960  204.9470  152.6590 N   0  0  0  0  0  0  0  0  0  0  0  0
  160.6920  207.0570  152.5810 C   0  0  1  0  0  3  0  0  0  0  0  0
  161.3990  204.7530  149.7820 N   0  0  0  0  0  2  0  0  0  0  0  0
  161.1530  205.8900  150.3470 C   0  0  0  0  0  0  0  0  0  0  0  0
  160.8520  207.0720  149.4840 C   0  0  0  0  0  2  0  0  0  0  0  0
  162.1400  207.8060  149.1280 C   0  0  2  0  0  3  0  0  0  0  0  0
  161.5840  211.2630  148.4440 N   0  0  0  0  0  0  0  0  0  0  0  0
  161.9640  209.2920  149.1000 C   0  0  0  0  0  0  0  0  0  0  0  0
  162.1950  210.0890  150.1580 N   0  0  0  0  0  0  0  0  0  0  0  0
  161.9470  211.3110  149.7170 N   0  0  0  0  0  0  0  0  0  0  0  0
  161.5870  210.0080  148.0250 N   0  0  0  0  0  2  0  0  0  0  0  0
  162.7230  207.3050  147.8830 N   0  0  0  0  0  2  0  0  0  0  0  0
  160.7630  204.8420  144.9120 C   0  0  0  0  0  3  0  0  0  0  0  0
  162.0580  204.6690  145.3750 C   0  0  0  0  0  0  0  0  0  0  0  0
  163.1530  203.9500  145.2950 O   0  0  0  0  0  0  0  0  0  0  0  0
  160.7030  206.7660  146.4820 C   0  0  0  0  0  3  0  0  0  0  0  0
  162.6450  205.4390  146.2870 C   0  0  0  0  0  0  0  0  0  0  0  0
  162.0380  206.5210  146.8960 C   0  0  0  0  0  0  0  0  0  0  0  0
  160.0750  205.9360  145.4990 C   0  0  0  0  0  3  0  0  0  0  0  0
  163.7290  204.7040  146.1930 O   0  0  0  0  0  0  0  0  0  0  0  0
  161.8740  210.2520  153.7290 C   0  0  0  0  0  2  0  0  0  0  0  0
  158.9920  212.7110  153.3610 N   0  0  0  0  0  0  0  0  0  0  0  0
  160.1100  211.4980  155.0260 C   0  0  0  0  0  0  0  0  0  0  0  0
  160.7390  211.2090  153.9010 C   0  0  0  0  0  0  0  0  0  0  0  0
  159.0490  212.3920  154.7270 N   0  0  0  0  0  0  0  0  0  0  0  0
  160.0800  211.9240  152.7670 C   0  0  0  0  0  3  0  0  0  0  0  0
  160.4420  210.9980  156.3840 C   0  0  0  0  0  0  0  0  0  0  0  0
  161.5560  211.5160  157.1060 N   0  0  0  0  0  1  0  0  0  0  0  0
  159.7350  210.1070  156.9230 O   0  0  0  0  0  0  0  0  0  0  0  0
  158.0850  212.9270  155.6750 C   0  0  0  0  0  2  0  0  0  0  0  0
  156.9600  213.6160  154.9270 C   0  0  0  0  0  2  0  0  0  0  0  0
  155.7780  212.6760  154.8110 C   0  0  0  0  0  2  0  0  0  0  0  0
  155.8240  211.6720  155.9440 C   0  0  0  0  0  2  0  0  0  0  0  0
  155.6300  210.3340  155.4170 N   0  0  0  0  0  1  0  0  0  0  0  0
  1  5  1  0  0  0  0
  1  2  1  1  0  0  0
  3 27  1  0  0  0  0
  3  2  1  0  0  0  0
  4  8  1  0  0  0  0
  4  3  2  0  0  0  0
  6  7  2  0  0  0  0
  7  5  1  0  0  0  0
  8  6  1  6  0  0  0
  8  1  1  0  0  0  0
  9 10  2  0  0  0  0
 10  6  1  0  0  0  0
 11 10  1  0  0  0  0
 12 11  1  6  0  0  0
 13 16  2  0  0  0  0
 14 12  1  0  0  0  0
 14 15  2  0  0  0  0
 16 15  1  0  0  0  0
 17 13  1  0  0  0  0
 17 14  1  0  0  0  0
 18 12  1  0  0  0  0
 19 20  2  0  0  0  0
 19 25  1  0  0  0  0
 20 23  1  0  0  0  0
 21 20  1  0  0  0  0
 21 26  1  0  0  0  0
 22 24  1  0  0  0  0
 23 24  2  0  0  0  0
 24 18  1  0  0  0  0
 25 22  2  0  0  0  0
 26 23  1  0  0  0  0
 27 30  1  0  0  0  0
 28 31  1  0  0  0  0
 29 33  1  0  0  0  0
 30 29  2  0  0  0  0
 31 29  1  0  0  0  0
 31 36  1  0  0  0  0
 32 28  2  0  0  0  0
 32 30  1  0  0  0  0
 33 35  2  0  0  0  0
 33 34  1  0  0  0  0
 37 36  1  0  0  0  0
 38 37  1  0  0  0  0
 38 39  1  0  0  0  0
 40 39  1  0  0  0  0
M  END
>  <MODEL>
6

>  <REMARK>
 VINA RESULT:      -6.6      2.799      4.054
  Name = 
  13 active torsions:
  status: ('A' for Active; 'I' for Inactive)
    1  A    between atoms: C_2  and  C_5
    2  A    between atoms: C_4  and  C_10
    3  A    between atoms: C_5  and  C_14
    4  A    between atoms: C_11  and  N_15
    5  A    between atoms: C_11  and  C_20
    6  A    between atoms: C_11  and  C_36
    7  A    between atoms: C_14  and  C_28
    8  A    between atoms: N_15  and  C_27
    9  A    between atoms: C_16  and  C_18
   10  A    between atoms: C_16  and  C_21
   11  A    between atoms: N_24  and  C_28
   12  A    between atoms: C_31  and  C_35
   13  A    between atoms: C_35  and  C_36
                            x       y       z     vdW  Elec       q    Type
                         _______ _______ _______ _____ _____    ______ ____

>  <TORSDO>
F 13

$$$$
=
 OpenBabel11072410543D

 40 45  0  0  1  0  0  0  0  0999 V2000
  162.4100  209.8620  150.6270 N   0  0  2  0  0  0  0  0  0  0  0  0
  161.8750  210.0830  151.9530 C   0  0  0  0  0  2  0  0  0  0  0  0
  161.4880  208.6690  152.3210 C   0  0  0  0  0  0  0  0  0  0  0  0
  161.6780  207.8170  151.3580 N   0  0  0  0  0  0  0  0  0  0  0  0
  162.1880  210.5820  149.5420 N   0  0  0  0  0  2  0  0  0  0  0  0
  162.0240  208.5060  148.9710 C   0  0  0  0  0  0  0  0  0  0  0  0
  161.9990  209.7760  148.5010 N   0  0  0  0  0  0  0  0  0  0  0  0
  162.2710  208.5840  150.3250 C   0  0  1  0  0  3  0  0  0  0  0  0
  160.4190  207.1230  147.8640 N   0  0  0  0  0  2  0  0  0  0  0  0
  161.6560  207.3200  148.1820 C   0  0  0  0  0  0  0  0  0  0  0  0
  162.7040  206.4410  147.5790 C   0  0  0  0  0  2  0  0  0  0  0  0
  162.1170  205.0720  147.2520 C   0  0  2  0  0  3  0  0  0  0  0  0
  161.2530  205.4010  143.8060 N   0  0  0  0  0  0  0  0  0  0  0  0
  161.6130  204.9860  145.8450 C   0  0  0  0  0  0  0  0  0  0  0  0
  160.7450  204.0500  145.4210 N   0  0  0  0  0  0  0  0  0  0  0  0
  160.5430  204.3360  144.1450 N   0  0  0  0  0  2  0  0  0  0  0  0
  161.9340  205.8370  144.8530 N   0  0  0  0  0  0  0  0  0  0  0  0
  161.0950  204.6740  148.2200 N   0  0  0  0  0  2  0  0  0  0  0  0
  160.9140  200.9620  150.4370 C   0  0  0  0  0  3  0  0  0  0  0  0
  160.9000  202.2310  150.9910 C   0  0  0  0  0  0  0  0  0  0  0  0
  160.8430  202.9330  152.0990 O   0  0  0  0  0  0  0  0  0  0  0  0
  161.0600  202.1580  148.2650 C   0  0  0  0  0  3  0  0  0  0  0  0
  160.9600  203.3630  150.2920 C   0  0  0  0  0  0  0  0  0  0  0  0
  161.0460  203.4210  148.9140 C   0  0  0  0  0  0  0  0  0  0  0  0
  160.9970  200.9440  149.0200 C   0  0  0  0  0  3  0  0  0  0  0  0
  160.8980  204.0440  151.4130 O   0  0  0  0  0  0  0  0  0  0  0  0
  160.8220  208.2840  153.6000 C   0  0  0  0  0  2  0  0  0  0  0  0
  159.3170  211.5910  154.7360 N   0  0  0  0  0  0  0  0  0  0  0  0
  160.3330  209.6810  155.6380 C   0  0  0  0  0  0  0  0  0  0  0  0
  160.3380  209.4950  154.3320 C   0  0  0  0  0  0  0  0  0  0  0  0
  159.7160  210.9300  155.9080 N   0  0  0  0  0  0  0  0  0  0  0  0
  159.6850  210.6590  153.6620 C   0  0  0  0  0  3  0  0  0  0  0  0
  160.8830  208.7650  156.6700 C   0  0  0  0  0  0  0  0  0  0  0  0
  162.1580  209.0030  157.2600 N   0  0  0  0  0  1  0  0  0  0  0  0
  160.2220  207.7620  157.0450 O   0  0  0  0  0  0  0  0  0  0  0  0
  159.4720  211.5010  157.2240 C   0  0  0  0  0  2  0  0  0  0  0  0
  158.3400  212.5080  157.1440 C   0  0  0  0  0  2  0  0  0  0  0  0
  157.0130  211.7890  157.2610 C   0  0  0  0  0  2  0  0  0  0  0  0
  155.9440  212.5910  156.5480 C   0  0  0  0  0  2  0  0  0  0  0  0
  156.4600  213.0720  155.2800 N   0  0  0  0  0  1  0  0  0  0  0  0
  1  2  1  1  0  0  0
  2  3  1  0  0  0  0
  3 27  1  0  0  0  0
  4  3  2  0  0  0  0
  5  1  1  0  0  0  0
  7  6  2  0  0  0  0
  7  5  1  0  0  0  0
  8  6  1  6  0  0  0
  8  1  1  0  0  0  0
  8  4  1  0  0  0  0
  9 10  2  0  0  0  0
 10  6  1  0  0  0  0
 11 10  1  0  0  0  0
 12 11  1  1  0  0  0
 12 18  1  0  0  0  0
 13 16  1  0  0  0  0
 13 17  2  0  0  0  0
 14 12  1  0  0  0  0
 15 14  2  0  0  0  0
 16 15  1  0  0  0  0
 17 14  1  0  0  0  0
 18 24  1  0  0  0  0
 19 20  1  0  0  0  0
 20 21  1  0  0  0  0
 22 24  2  0  0  0  0
 22 25  1  0  0  0  0
 23 20  2  0  0  0  0
 23 26  1  0  0  0  0
 24 23  1  0  0  0  0
 25 19  2  0  0  0  0
 26 21  1  0  0  0  0
 27 30  1  0  0  0  0
 28 31  1  0  0  0  0
 29 31  1  0  0  0  0
 29 33  1  0  0  0  0
 30 29  2  0  0  0  0
 31 36  1  0  0  0  0
 32 30  1  0  0  0  0
 32 28  2  0  0  0  0
 33 35  2  0  0  0  0
 33 34  1  0  0  0  0
 37 36  1  0  0  0  0
 37 38  1  0  0  0  0
 39 38  1  0  0  0  0
 40 39  1  0  0  0  0
M  END
>  <MODEL>
7

>  <REMARK>
 VINA RESULT:      -6.4      2.891      4.028
  Name = 
  13 active torsions:
  status: ('A' for Active; 'I' for Inactive)
    1  A    between atoms: C_2  and  C_5
    2  A    between atoms: C_4  and  C_10
    3  A    between atoms: C_5  and  C_14
    4  A    between atoms: C_11  and  N_15
    5  A    between atoms: C_11  and  C_20
    6  A    between atoms: C_11  and  C_36
    7  A    between atoms: C_14  and  C_28
    8  A    between atoms: N_15  and  C_27
    9  A    between atoms: C_16  and  C_18
   10  A    between atoms: C_16  and  C_21
   11  A    between atoms: N_24  and  C_28
   12  A    between atoms: C_31  and  C_35
   13  A    between atoms: C_35  and  C_36
                            x       y       z     vdW  Elec       q    Type
                         _______ _______ _______ _____ _____    ______ ____

>  <TORSDO>
F 13

$$$$
=
 OpenBabel11072410543D

 40 45  0  0  1  0  0  0  0  0999 V2000
  162.1460  208.9530  151.1530 N   0  0  2  0  0  0  0  0  0  0  0  0
  162.5480  207.5810  150.9340 C   0  0  0  0  0  2  0  0  0  0  0  0
  161.2960  206.8630  151.3820 C   0  0  0  0  0  0  0  0  0  0  0  0
  160.3860  207.6620  151.8530 N   0  0  0  0  0  0  0  0  0  0  0  0
  162.8550  209.9180  151.7110 N   0  0  0  0  0  2  0  0  0  0  0  0
  160.8690  210.0230  152.5510 C   0  0  0  0  0  0  0  0  0  0  0  0
  162.0840  210.6220  152.5340 N   0  0  0  0  0  0  0  0  0  0  0  0
  160.9350  208.9570  151.6790 C   0  0  1  0  0  3  0  0  0  0  0  0
  159.9160  210.0920  154.7430 N   0  0  0  0  0  2  0  0  0  0  0  0
  159.7850  210.3660  153.4860 C   0  0  0  0  0  0  0  0  0  0  0  0
  158.6220  211.1940  153.0460 C   0  0  0  0  0  2  0  0  0  0  0  0
  158.6030  212.5180  153.8020 C   0  0  2  0  0  3  0  0  0  0  0  0
  155.7330  212.2160  155.9010 N   0  0  0  0  0  0  0  0  0  0  0  0
  157.3970  212.6590  154.6790 C   0  0  0  0  0  0  0  0  0  0  0  0
  156.8330  213.8410  154.9830 N   0  0  0  0  0  0  0  0  0  0  0  0
  155.7990  213.5300  155.7480 N   0  0  0  0  0  0  0  0  0  0  0  0
  156.7220  211.6380  155.2390 N   0  0  0  0  0  2  0  0  0  0  0  0
  158.7550  213.6600  152.9010 N   0  0  0  0  0  2  0  0  0  0  0  0
  157.2860  213.8780  148.8360 C   0  0  0  0  0  3  0  0  0  0  0  0
  158.5980  213.6290  149.2050 C   0  0  0  0  0  0  0  0  0  0  0  0
  159.8170  213.3810  148.7860 O   0  0  0  0  0  0  0  0  0  0  0  0
  156.8610  214.0050  151.2790 C   0  0  0  0  0  3  0  0  0  0  0  0
  159.0320  213.5690  150.4620 C   0  0  0  0  0  0  0  0  0  0  0  0
  158.2270  213.7490  151.5710 C   0  0  0  0  0  0  0  0  0  0  0  0
  156.3990  214.0700  149.9260 C   0  0  0  0  0  3  0  0  0  0  0  0
  160.2430  213.3190  150.0190 O   0  0  0  0  0  0  0  0  0  0  0  0
  161.1450  205.3780  151.4220 C   0  0  0  0  0  2  0  0  0  0  0  0
  161.1320  204.7030  147.6750 N   0  0  0  0  0  0  0  0  0  0  0  0
  161.0450  203.5360  149.7070 C   0  0  0  0  0  0  0  0  0  0  0  0
  161.0880  204.8130  150.0390 C   0  0  0  0  0  0  0  0  0  0  0  0
  161.0800  203.4420  148.2910 N   0  0  0  0  0  0  0  0  0  0  0  0
  161.1680  205.6450  148.8010 C   0  0  0  0  0  3  0  0  0  0  0  0
  160.9620  202.3780  150.6330 C   0  0  0  0  0  0  0  0  0  0  0  0
  161.8710  202.2400  151.7210 N   0  0  0  0  0  1  0  0  0  0  0  0
  160.0750  201.4990  150.4710 O   0  0  0  0  0  0  0  0  0  0  0  0
  161.0920  202.2140  147.5120 C   0  0  0  0  0  2  0  0  0  0  0  0
  161.3250  202.5370  146.0490 C   0  0  0  0  0  2  0  0  0  0  0  0
  160.2030  201.9540  145.2160 C   0  0  0  0  0  2  0  0  0  0  0  0
  159.5510  203.0570  144.4080 C   0  0  0  0  0  2  0  0  0  0  0  0
  160.4120  204.2260  144.3970 N   0  0  0  0  0  1  0  0  0  0  0  0
  1  2  1  1  0  0  0
  1  8  1  0  0  0  0
  1  5  1  0  0  0  0
  2  3  1  0  0  0  0
  3 27  1  0  0  0  0
  3  4  2  0  0  0  0
  5  7  1  0  0  0  0
  6 10  1  0  0  0  0
  7  6  2  0  0  0  0
  8  4  1  1  0  0  0
  8  6  1  0  0  0  0
 10  9  2  0  0  0  0
 11 10  1  0  0  0  0
 12 11  1  6  0  0  0
 12 14  1  0  0  0  0
 14 15  2  0  0  0  0
 14 17  1  0  0  0  0
 15 16  1  0  0  0  0
 16 13  2  0  0  0  0
 17 13  1  0  0  0  0
 18 12  1  0  0  0  0
 19 20  2  0  0  0  0
 19 25  1  0  0  0  0
 20 23  1  0  0  0  0
 21 20  1  0  0  0  0
 21 26  1  0  0  0  0
 22 24  1  0  0  0  0
 23 24  2  0  0  0  0
 24 18  1  0  0  0  0
 25 22  2  0  0  0  0
 26 23  1  0  0  0  0
 28 31  1  0  0  0  0
 28 32  2  0  0  0  0
 29 30  2  0  0  0  0
 29 33  1  0  0  0  0
 30 27  1  0  0  0  0
 31 29  1  0  0  0  0
 32 30  1  0  0  0  0
 33 34  1  0  0  0  0
 35 33  2  0  0  0  0
 36 31  1  0  0  0  0
 37 36  1  0  0  0  0
 38 37  1  0  0  0  0
 39 38  1  0  0  0  0
 40 39  1  0  0  0  0
M  END
>  <MODEL>
8

>  <REMARK>
 VINA RESULT:      -6.3      2.328      9.955
  Name = 
  13 active torsions:
  status: ('A' for Active; 'I' for Inactive)
    1  A    between atoms: C_2  and  C_5
    2  A    between atoms: C_4  and  C_10
    3  A    between atoms: C_5  and  C_14
    4  A    between atoms: C_11  and  N_15
    5  A    between atoms: C_11  and  C_20
    6  A    between atoms: C_11  and  C_36
    7  A    between atoms: C_14  and  C_28
    8  A    between atoms: N_15  and  C_27
    9  A    between atoms: C_16  and  C_18
   10  A    between atoms: C_16  and  C_21
   11  A    between atoms: N_24  and  C_28
   12  A    between atoms: C_31  and  C_35
   13  A    between atoms: C_35  and  C_36
                            x       y       z     vdW  Elec       q    Type
                         _______ _______ _______ _____ _____    ______ ____

>  <TORSDO>
F 13

$$$$
=
 OpenBabel11072410543D

 40 45  0  0  1  0  0  0  0  0999 V2000
  161.8310  209.5030  150.1530 N   0  0  2  0  0  0  0  0  0  0  0  0
  162.2550  209.0930  148.8330 C   0  0  0  0  0  2  0  0  0  0  0  0
  161.7650  207.6630  148.8290 C   0  0  0  0  0  0  0  0  0  0  0  0
  161.2430  207.2960  149.9610 N   0  0  0  0  0  0  0  0  0  0  0  0
  162.5230  210.1950  151.0410 N   0  0  0  0  0  2  0  0  0  0  0  0
  161.5850  208.5640  152.0990 C   0  0  0  0  0  0  0  0  0  0  0  0
  162.3500  209.6720  152.2500 N   0  0  0  0  0  0  0  0  0  0  0  0
  161.2800  208.4670  150.7580 C   0  0  1  0  0  3  0  0  0  0  0  0
  161.9740  206.4620  153.1700 N   0  0  0  0  0  2  0  0  0  0  0  0
  161.3250  207.5810  153.1630 C   0  0  0  0  0  0  0  0  0  0  0  0
  160.4700  207.9250  154.3380 C   0  0  0  0  0  2  0  0  0  0  0  0
  160.5310  209.4240  154.6120 C   0  0  2  0  0  3  0  0  0  0  0  0
  162.9180  209.6350  157.2550 N   0  0  0  0  0  0  0  0  0  0  0  0
  161.5390  209.7740  155.6630 C   0  0  0  0  0  0  0  0  0  0  0  0
  161.9430  211.0310  155.9180 N   0  0  0  0  0  0  0  0  0  0  0  0
  162.8050  210.9090  156.9140 N   0  0  0  0  0  0  0  0  0  0  0  0
  162.1340  208.8940  156.4900 N   0  0  0  0  0  2  0  0  0  0  0  0
  159.2110  209.9730  154.9220 N   0  0  0  0  0  2  0  0  0  0  0  0
  157.5490  213.4680  152.9840 C   0  0  0  0  0  3  0  0  0  0  0  0
  158.8210  212.9610  152.7760 C   0  0  0  0  0  0  0  0  0  0  0  0
  159.9540  213.1000  152.1270 O   0  0  0  0  0  0  0  0  0  0  0  0
  157.3030  211.5790  154.5780 C   0  0  0  0  0  3  0  0  0  0  0  0
  159.3170  211.8860  153.3850 C   0  0  0  0  0  0  0  0  0  0  0  0
  158.6240  211.1290  154.3110 C   0  0  0  0  0  0  0  0  0  0  0  0
  156.7750  212.7360  153.9220 C   0  0  0  0  0  3  0  0  0  0  0  0
  160.4390  212.0430  152.7210 O   0  0  0  0  0  0  0  0  0  0  0  0
  161.9730  206.7050  147.7040 C   0  0  0  0  0  2  0  0  0  0  0  0
  160.8030  203.5250  149.4390 N   0  0  0  0  0  0  0  0  0  0  0  0
  161.4640  204.2690  147.3170 C   0  0  0  0  0  0  0  0  0  0  0  0
  161.5780  205.3200  148.1060 C   0  0  0  0  0  0  0  0  0  0  0  0
  160.9910  203.1780  148.0920 N   0  0  0  0  0  0  0  0  0  0  0  0
  161.1540  204.9500  149.4900 C   0  0  0  0  0  3  0  0  0  0  0  0
  161.7810  204.2060  145.8670 C   0  0  0  0  0  0  0  0  0  0  0  0
  160.7490  204.2550  144.8860 N   0  0  0  0  0  1  0  0  0  0  0  0
  162.9760  204.1140  145.4830 O   0  0  0  0  0  0  0  0  0  0  0  0
  160.6890  201.8430  147.6010 C   0  0  0  0  0  2  0  0  0  0  0  0
  161.5970  200.8320  148.2760 C   0  0  0  0  0  2  0  0  0  0  0  0
  161.5760  199.5330  147.4970 C   0  0  0  0  0  2  0  0  0  0  0  0
  161.2100  199.8200  146.0550 C   0  0  0  0  0  2  0  0  0  0  0  0
  161.3080  198.5990  145.2760 N   0  0  0  0  0  1  0  0  0  0  0  0
  1  2  1  6  0  0  0
  1  8  1  0  0  0  0
  1  5  1  0  0  0  0
  3  2  1  0  0  0  0
  3  4  2  0  0  0  0
  5  7  1  0  0  0  0
  6  7  2  0  0  0  0
  6 10  1  0  0  0  0
  8  4  1  6  0  0  0
  8  6  1  0  0  0  0
 10  9  2  0  0  0  0
 10 11  1  0  0  0  0
 12 11  1  1  0  0  0
 12 18  1  0  0  0  0
 12 14  1  0  0  0  0
 14 15  2  0  0  0  0
 14 17  1  0  0  0  0
 15 16  1  0  0  0  0
 16 13  2  0  0  0  0
 17 13  1  0  0  0  0
 19 25  1  0  0  0  0
 20 19  2  0  0  0  0
 20 23  1  0  0  0  0
 21 26  1  0  0  0  0
 21 20  1  0  0  0  0
 23 24  2  0  0  0  0
 24 22  1  0  0  0  0
 24 18  1  0  0  0  0
 25 22  2  0  0  0  0
 26 23  1  0  0  0  0
 27 30  1  0  0  0  0
 27  3  1  0  0  0  0
 28 32  2  0  0  0  0
 29 31  1  0  0  0  0
 29 30  2  0  0  0  0
 30 32  1  0  0  0  0
 31 28  1  0  0  0  0
 33 29  1  0  0  0  0
 34 33  1  0  0  0  0
 35 33  2  0  0  0  0
 36 31  1  0  0  0  0
 36 37  1  0  0  0  0
 38 37  1  0  0  0  0
 39 38  1  0  0  0  0
 40 39  1  0  0  0  0
M  END
>  <MODEL>
9

>  <REMARK>
 VINA RESULT:      -6.3      2.510     10.273
  Name = 
  13 active torsions:
  status: ('A' for Active; 'I' for Inactive)
    1  A    between atoms: C_2  and  C_5
    2  A    between atoms: C_4  and  C_10
    3  A    between atoms: C_5  and  C_14
    4  A    between atoms: C_11  and  N_15
    5  A    between atoms: C_11  and  C_20
    6  A    between atoms: C_11  and  C_36
    7  A    between atoms: C_14  and  C_28
    8  A    between atoms: N_15  and  C_27
    9  A    between atoms: C_16  and  C_18
   10  A    between atoms: C_16  and  C_21
   11  A    between atoms: N_24  and  C_28
   12  A    between atoms: C_31  and  C_35
   13  A    between atoms: C_35  and  C_36
                            x       y       z     vdW  Elec       q    Type
                         _______ _______ _______ _____ _____    ______ ____

>  <TORSDO>
F 13

$$$$
