=
 OpenBabel11072411503D

 53 60  0  0  1  0  0  0  0  0999 V2000
  161.4220  208.1240  152.0220 C   0  0  2  0  0  3  0  0  0  0  0  0
  162.0920  207.8310  153.3700 C   0  0  1  0  0  3  0  0  0  0  0  0
  161.1790  209.6110  150.4340 C   0  0  1  0  0  3  0  0  0  0  0  0
  161.1700  208.0780  155.8750 C   0  0  2  0  0  0  0  0  0  0  0  0
  162.1600  207.5540  150.9580 O   0  0  0  0  0  0  0  0  0  0  0  0
  160.4830  208.9920  156.8970 C   0  0  1  0  0  3  0  0  0  0  0  0
  159.4900  212.9440  154.6340 C   0  0  2  0  0  3  0  0  0  0  0  0
  162.0070  208.4640  149.9080 C   0  0  1  0  0  3  0  0  0  0  0  0
  161.5410  212.1330  150.6800 O   0  0  0  0  0  0  0  0  0  0  0  0
  158.8250  208.2450  155.0790 N   0  0  0  0  0  2  0  0  0  0  0  0
  158.2220  212.5420  153.8970 C   0  0  2  0  0  3  0  0  0  0  0  0
  159.2870  212.1080  151.5630 C   0  0  1  0  0  3  0  0  0  0  0  0
  162.1900  211.0260  148.7910 O   0  0  0  0  0  0  0  0  0  0  0  0
  161.2760  209.5060  151.8190 O   0  0  0  0  0  0  0  0  0  0  0  0
  160.5370  206.8180  155.8170 O   0  0  0  0  0  0  0  0  0  0  0  0
  160.7710  212.2470  151.8760 C   0  0  0  0  0  2  0  0  0  0  0  0
  161.4350  208.6950  154.4720 C   0  0  1  0  0  3  0  0  0  0  0  0
  159.1730  210.5910  155.3080 C   0  0  1  0  0  3  0  0  0  0  0  0
  158.5280  211.9720  155.2940 C   0  0  1  0  0  3  0  0  0  0  0  0
  162.1910  209.8660  154.6050 O   0  0  0  0  0  1  0  0  0  0  0  0
  160.1200  210.4420  156.4940 C   0  0  0  0  0  2  0  0  0  0  0  0
  161.6850  210.9490  149.9420 C   0  0  0  0  0  0  0  0  0  0  0  0
  159.6960  207.8700  156.2040 C   0  0  1  0  0  0  0  0  0  0  0  0
  158.4830  211.5550  152.7470 C   0  0  0  0  0  2  0  0  0  0  0  0
  158.1370  209.4960  155.3500 C   0  0  0  0  0  2  0  0  0  0  0  0
  161.3680  207.8000  148.6910 C   0  0  0  0  0  2  0  0  0  0  0  0
  160.5510  206.5780  149.0640 C   0  0  0  0  0  1  0  0  0  0  0  0
  159.4300  214.3030  150.7290 O   0  0  0  0  0  0  0  0  0  0  0  0
  158.7100  213.3290  150.8960 C   0  0  0  0  0  0  0  0  0  0  0  0
  157.2550  213.3980  150.5290 C   0  0  1  0  0  3  0  0  0  0  0  0
  156.5330  214.3890  151.4290 C   0  0  0  0  0  1  0  0  0  0  0  0
  155.9490  214.3670  148.5340 C   0  0  0  0  0  3  0  0  0  0  0  0
  157.4120  213.8590  146.9290 C   0  0  0  0  0  3  0  0  0  0  0  0
  157.9380  213.4350  148.0980 N   0  0  0  0  0  0  0  0  0  0  0  0
  156.1820  214.4520  147.1670 C   0  0  0  0  0  3  0  0  0  0  0  0
  157.0480  213.7070  149.0680 C   0  0  0  0  0  0  0  0  0  0  0  0
  159.2070  212.7120  148.2610 C   0  0  0  0  0  2  0  0  0  0  0  0
  160.3480  213.4640  147.6280 C   0  0  0  0  0  0  0  0  0  0  0  0
  160.9490  214.3320  148.3160 O   0  0  0  0  0  0  0  0  0  0  0  0
  160.0610  212.3270  145.4160 C   0  0  0  0  0  3  0  0  0  0  0  0
  162.3490  213.5810  144.4120 C   0  0  0  0  0  3  0  0  0  0  0  0
  161.6210  212.7080  143.5980 C   0  0  0  0  0  3  0  0  0  0  0  0
  160.7810  213.2030  146.2410 C   0  0  0  0  0  0  0  0  0  0  0  0
  161.9310  213.8270  145.7270 C   0  0  0  0  0  3  0  0  0  0  0  0
  160.4770  212.0810  144.1010 C   0  0  0  0  0  3  0  0  0  0  0  0
  159.3980  214.3340  155.2750 C   0  0  0  0  0  2  0  0  0  0  0  0
  159.0700  214.2960  156.6340 O   0  0  0  0  0  1  0  0  0  0  0  0
  162.0860  206.3240  153.6160 C   0  0  0  0  0  2  0  0  0  0  0  0
  160.0370  205.0040  153.7370 N   0  0  0  0  0  1  0  0  0  0  0  0
  160.9810  205.6380  152.8290 C   0  0  2  0  0  3  0  0  0  0  0  0
  160.7650  203.5850  151.4480 O   0  0  0  0  0  0  0  0  0  0  0  0
  161.5660  204.6180  151.9180 C   0  0  0  0  0  0  0  0  0  0  0  0
  162.7650  204.7080  151.5420 O   0  0  0  0  0  1  0  0  0  0  0  0
  1  5  1  6  0  0  0
  1  2  1  0  0  0  0
  2 48  1  1  0  0  0
  2 17  1  0  0  0  0
  3 22  1  6  0  0  0
  3 14  1  0  0  0  0
  4 15  1  1  0  0  0
  4 23  1  0  0  0  0
  4  6  1  0  0  0  0
  6 21  1  6  0  0  0
  7 46  1  1  0  0  0
  7 19  1  0  0  0  0
  8 26  1  6  0  0  0
  8  3  1  0  0  0  0
  8  5  1  0  0  0  0
  9 16  1  0  0  0  0
 10 25  1  0  0  0  0
 10 23  1  0  0  0  0
 11 24  1  6  0  0  0
 11  7  1  0  0  0  0
 11 19  1  0  0  0  0
 12 29  1  1  0  0  0
 12 16  1  0  0  0  0
 12 24  1  0  0  0  0
 13 22  2  0  0  0  0
 14  1  1  0  0  0  0
 15 23  1  0  0  0  0
 17 20  1  1  0  0  0
 17  4  1  0  0  0  0
 18 25  1  1  0  0  0
 18 21  1  0  0  0  0
 19 18  1  0  0  0  0
 22  9  1  0  0  0  0
 23  6  1  0  0  0  0
 26 27  1  0  0  0  0
 28 29  2  0  0  0  0
 30 29  1  0  0  0  0
 30 31  1  0  0  0  0
 32 36  2  0  0  0  0
 33 35  2  0  0  0  0
 33 34  1  0  0  0  0
 34 37  1  0  0  0  0
 34 36  1  0  0  0  0
 35 32  1  0  0  0  0
 36 30  1  0  0  0  0
 38 37  1  0  0  0  0
 38 39  2  0  0  0  0
 40 43  1  0  0  0  0
 41 44  1  0  0  0  0
 42 45  1  0  0  0  0
 42 41  2  0  0  0  0
 43 38  1  0  0  0  0
 44 43  2  0  0  0  0
 45 40  2  0  0  0  0
 46 47  1  0  0  0  0
 50 48  1  0  0  0  0
 50 49  1  0  0  0  0
 51 52  2  0  0  0  0
 52 50  1  0  0  0  0
 53 52  1  0  0  0  0
M  END
>  <MODEL>
1

>  <REMARK>
 VINA RESULT:      -2.2      0.000      0.000
  Name = 
  11 active torsions:
  status: ('A' for Active; 'I' for Inactive)
    1  A    between atoms: C_2  and  C_17
    2  A    between atoms: C_5  and  C_38
    3  A    between atoms: C_12  and  C_15
    4  A    between atoms: C_16  and  CA_44
    5  A    between atoms: N_21  and  C_39
    6  A    between atoms: C_25  and  C_50
    7  A    between atoms: C_27  and  C_28
    8  A    between atoms: C_28  and  C_39
    9  A    between atoms: C_29  and  C_31
   10  A    between atoms: C_29  and  C_50
   11  A    between atoms: C_38  and  CA_44
                            x       y       z     vdW  Elec       q    Type
                         _______ _______ _______ _____ _____    ______ ____

>  <TORSDO>
F 11

$$$$
=
 OpenBabel11072411503D

 53 60  0  0  1  0  0  0  0  0999 V2000
  160.5050  211.8130  151.1570 C   0  0  2  0  0  3  0  0  0  0  0  0
  159.1570  212.4130  151.5780 C   0  0  1  0  0  3  0  0  0  0  0  0
  161.5280  209.9800  150.5370 C   0  0  1  0  0  3  0  0  0  0  0  0
  158.1240  212.8620  154.0100 C   0  0  2  0  0  0  0  0  0  0  0  0
  160.7570  212.0550  149.7850 O   0  0  0  0  0  0  0  0  0  0  0  0
  157.8130  212.2750  155.3930 C   0  0  1  0  0  3  0  0  0  0  0  0
  159.4800  207.9230  155.3510 C   0  0  2  0  0  3  0  0  0  0  0  0
  161.4390  210.9140  149.3550 C   0  0  1  0  0  3  0  0  0  0  0  0
  160.7370  207.5930  151.0140 O   0  0  0  0  0  0  0  0  0  0  0  0
  160.3460  212.6020  155.0880 N   0  0  0  0  0  2  0  0  0  0  0  0
  160.9570  208.1780  155.6120 C   0  0  2  0  0  3  0  0  0  0  0  0
  161.7980  207.9470  153.1610 C   0  0  1  0  0  3  0  0  0  0  0  0
  161.6820  208.1450  149.0100 O   0  0  0  0  0  0  0  0  0  0  0  0
  160.5480  210.4340  151.4160 O   0  0  0  0  0  0  0  0  0  0  0  0
  158.8070  214.0920  154.1250 O   0  0  0  0  0  0  0  0  0  0  0  0
  160.4850  207.8260  152.3990 C   0  0  0  0  0  2  0  0  0  0  0  0
  158.7780  211.8930  152.9840 C   0  0  1  0  0  3  0  0  0  0  0  0
  159.6010  210.3810  155.5240 C   0  0  1  0  0  3  0  0  0  0  0  0
  159.8830  209.0740  156.2550 C   0  0  1  0  0  3  0  0  0  0  0  0
  157.9690  210.7630  152.8180 O   0  0  0  0  0  1  0  0  0  0  0  0
  158.1390  210.7880  155.6750 C   0  0  0  0  0  2  0  0  0  0  0  0
  161.2940  208.5390  150.1420 C   0  0  0  0  0  0  0  0  0  0  0  0
  159.0120  213.2150  155.1990 C   0  0  1  0  0  0  0  0  0  0  0  0
  161.6750  208.8230  154.4150 C   0  0  0  0  0  2  0  0  0  0  0  0
  160.4870  211.4970  156.0190 C   0  0  0  0  0  2  0  0  0  0  0  0
  162.8120  211.2700  148.7940 C   0  0  0  0  0  2  0  0  0  0  0  0
  162.7840  212.5360  147.9590 C   0  0  0  0  0  1  0  0  0  0  0  0
  162.8170  206.2920  154.4850 O   0  0  0  0  0  0  0  0  0  0  0  0
  162.4900  206.6230  153.3550 C   0  0  0  0  0  0  0  0  0  0  0  0
  162.8660  205.7640  152.1810 C   0  0  1  0  0  3  0  0  0  0  0  0
  164.2440  205.1570  152.3950 C   0  0  0  0  0  1  0  0  0  0  0  0
  161.1090  204.0030  152.8400 C   0  0  0  0  0  3  0  0  0  0  0  0
  160.4750  203.4120  150.7850 C   0  0  0  0  0  3  0  0  0  0  0  0
  161.4130  204.3740  150.6530 N   0  0  0  0  0  0  0  0  0  0  0  0
  160.2570  203.1660  152.1310 C   0  0  0  0  0  3  0  0  0  0  0  0
  161.8260  204.7140  151.8860 C   0  0  0  0  0  0  0  0  0  0  0  0
  161.9570  204.8810  149.3850 C   0  0  0  0  0  2  0  0  0  0  0  0
  161.4880  204.0500  148.2200 C   0  0  0  0  0  0  0  0  0  0  0  0
  161.2380  202.8300  148.4150 O   0  0  0  0  0  0  0  0  0  0  0  0
  161.9320  204.0560  145.7560 C   0  0  0  0  0  3  0  0  0  0  0  0
  160.3250  206.3160  145.4150 C   0  0  0  0  0  3  0  0  0  0  0  0
  160.9530  205.7380  144.3080 C   0  0  0  0  0  3  0  0  0  0  0  0
  161.3050  204.6260  146.8730 C   0  0  0  0  0  0  0  0  0  0  0  0
  160.5000  205.7630  146.6910 C   0  0  0  0  0  3  0  0  0  0  0  0
  161.7570  204.6060  144.4800 C   0  0  0  0  0  3  0  0  0  0  0  0
  158.9210  206.7500  156.1660 C   0  0  0  0  0  2  0  0  0  0  0  0
  159.7210  206.4040  157.2600 O   0  0  0  0  0  1  0  0  0  0  0  0
  159.2140  213.9310  151.4240 C   0  0  0  0  0  2  0  0  0  0  0  0
  156.7860  213.9650  151.1860 N   0  0  0  0  0  1  0  0  0  0  0  0
  158.0350  214.4520  150.6200 C   0  0  2  0  0  3  0  0  0  0  0  0
  159.3550  214.1880  148.5330 O   0  0  0  0  0  0  0  0  0  0  0  0
  158.1520  214.0110  149.2050 C   0  0  0  0  0  0  0  0  0  0  0  0
  157.1850  213.4460  148.6280 O   0  0  0  0  0  1  0  0  0  0  0  0
  1  5  1  6  0  0  0
  1 14  1  0  0  0  0
  1  2  1  0  0  0  0
  2 48  1  1  0  0  0
  2 17  1  0  0  0  0
  3 22  1  6  0  0  0
  3 14  1  0  0  0  0
  4 15  1  6  0  0  0
  4 23  1  0  0  0  0
  4  6  1  0  0  0  0
  6 21  1  6  0  0  0
  7 11  1  0  0  0  0
  7 46  1  1  0  0  0
  7 19  1  0  0  0  0
  8 26  1  1  0  0  0
  8  5  1  0  0  0  0
  8  3  1  0  0  0  0
  9 16  1  0  0  0  0
 10 23  1  0  0  0  0
 10 25  1  0  0  0  0
 11 24  1  6  0  0  0
 11 19  1  0  0  0  0
 12 29  1  1  0  0  0
 12 24  1  0  0  0  0
 13 22  2  0  0  0  0
 15 23  1  0  0  0  0
 16 12  1  0  0  0  0
 17 20  1  6  0  0  0
 17  4  1  0  0  0  0
 18 21  1  1  0  0  0
 18 25  1  0  0  0  0
 18 19  1  0  0  0  0
 22  9  1  0  0  0  0
 23  6  1  0  0  0  0
 27 26  1  0  0  0  0
 29 28  2  0  0  0  0
 30 31  1  0  0  0  0
 30 29  1  0  0  0  0
 33 35  2  0  0  0  0
 34 33  1  0  0  0  0
 34 36  1  0  0  0  0
 35 32  1  0  0  0  0
 36 30  1  0  0  0  0
 36 32  2  0  0  0  0
 37 34  1  0  0  0  0
 38 39  2  0  0  0  0
 38 37  1  0  0  0  0
 40 43  1  0  0  0  0
 41 44  1  0  0  0  0
 42 45  1  0  0  0  0
 42 41  2  0  0  0  0
 43 38  1  0  0  0  0
 44 43  2  0  0  0  0
 45 40  2  0  0  0  0
 46 47  1  0  0  0  0
 50 49  1  0  0  0  0
 50 48  1  0  0  0  0
 51 52  2  0  0  0  0
 52 50  1  0  0  0  0
 53 52  1  0  0  0  0
M  END
>  <MODEL>
2

>  <REMARK>
 VINA RESULT:      -1.3      2.226      7.507
  Name = 
  11 active torsions:
  status: ('A' for Active; 'I' for Inactive)
    1  A    between atoms: C_2  and  C_17
    2  A    between atoms: C_5  and  C_38
    3  A    between atoms: C_12  and  C_15
    4  A    between atoms: C_16  and  CA_44
    5  A    between atoms: N_21  and  C_39
    6  A    between atoms: C_25  and  C_50
    7  A    between atoms: C_27  and  C_28
    8  A    between atoms: C_28  and  C_39
    9  A    between atoms: C_29  and  C_31
   10  A    between atoms: C_29  and  C_50
   11  A    between atoms: C_38  and  CA_44
                            x       y       z     vdW  Elec       q    Type
                         _______ _______ _______ _____ _____    ______ ____

>  <TORSDO>
F 11

$$$$
=
 OpenBabel11072411503D

 53 60  0  0  1  0  0  0  0  0999 V2000
  159.6480  209.9120  153.8550 C   0  0  2  0  0  3  0  0  0  0  0  0
  159.7740  211.3780  154.2910 C   0  0  1  0  0  3  0  0  0  0  0  0
  160.7340  208.1830  153.0660 C   0  0  1  0  0  3  0  0  0  0  0  0
  159.3010  213.6510  152.9510 C   0  0  2  0  0  0  0  0  0  0  0  0
  159.6950  209.0470  154.9740 O   0  0  0  0  0  0  0  0  0  0  0  0
  159.5580  214.4530  151.6700 C   0  0  1  0  0  3  0  0  0  0  0  0
  162.1540  211.7170  148.9310 C   0  0  2  0  0  3  0  0  0  0  0  0
  160.3600  207.9130  154.5030 C   0  0  1  0  0  3  0  0  0  0  0  0
  162.9340  208.2700  151.7610 O   0  0  0  0  0  0  0  0  0  0  0  0
  158.0240  212.4430  151.1980 N   0  0  0  0  0  2  0  0  0  0  0  0
  161.0870  210.8060  148.3420 C   0  0  2  0  0  3  0  0  0  0  0  0
  161.4940  208.7420  149.8720 C   0  0  1  0  0  3  0  0  0  0  0  0
  162.5370  206.6280  153.2960 O   0  0  0  0  0  0  0  0  0  0  0  0
  160.6550  209.5670  152.9390 O   0  0  0  0  0  0  0  0  0  0  0  0
  157.9220  213.5920  153.2430 O   0  0  0  0  0  0  0  0  0  0  0  0
  162.5030  209.2970  150.8700 C   0  0  0  0  0  2  0  0  0  0  0  0
  160.0070  212.2680  153.0480 C   0  0  1  0  0  3  0  0  0  0  0  0
  160.0780  212.5260  149.9920 C   0  0  1  0  0  3  0  0  0  0  0  0
  160.7700  212.2790  148.6570 C   0  0  1  0  0  3  0  0  0  0  0  0
  161.3880  212.4290  152.8900 O   0  0  0  0  0  1  0  0  0  0  0  0
  160.4940  213.8690  150.5840 C   0  0  0  0  0  2  0  0  0  0  0  0
  162.1190  207.6740  152.7340 C   0  0  0  0  0  0  0  0  0  0  0  0
  158.2180  213.7320  151.8810 C   0  0  1  0  0  0  0  0  0  0  0  0
  160.5160  209.8100  149.3640 C   0  0  0  0  0  2  0  0  0  0  0  0
  158.5760  212.4810  149.8540 C   0  0  0  0  0  2  0  0  0  0  0  0
  159.4940  206.6650  154.6490 C   0  0  0  0  0  2  0  0  0  0  0  0
  158.8340  206.5780  156.0120 C   0  0  0  0  0  1  0  0  0  0  0  0
  162.9880  208.3710  148.0940 O   0  0  0  0  0  0  0  0  0  0  0  0
  162.1280  207.8810  148.8120 C   0  0  0  0  0  0  0  0  0  0  0  0
  161.6520  206.4780  148.5640 C   0  0  1  0  0  3  0  0  0  0  0  0
  160.5330  206.1240  149.5320 C   0  0  0  0  0  1  0  0  0  0  0  0
  160.4640  207.1200  146.3730 C   0  0  0  0  0  3  0  0  0  0  0  0
  161.0940  205.3640  145.1520 C   0  0  0  0  0  3  0  0  0  0  0  0
  161.6480  205.2200  146.3740 N   0  0  0  0  0  0  0  0  0  0  0  0
  160.3610  206.5400  145.1160 C   0  0  0  0  0  3  0  0  0  0  0  0
  161.2480  206.2570  147.1290 C   0  0  0  0  0  0  0  0  0  0  0  0
  162.4580  204.0790  146.8250 C   0  0  0  0  0  2  0  0  0  0  0  0
  161.6040  202.8580  147.0450 C   0  0  0  0  0  0  0  0  0  0  0  0
  161.1700  202.2400  146.0370 O   0  0  0  0  0  0  0  0  0  0  0  0
  161.2430  203.2440  149.4930 C   0  0  0  0  0  3  0  0  0  0  0  0
  160.6880  200.5350  149.8960 C   0  0  0  0  0  3  0  0  0  0  0  0
  160.6550  201.4190  150.9780 C   0  0  0  0  0  3  0  0  0  0  0  0
  161.2760  202.3680  148.3990 C   0  0  0  0  0  0  0  0  0  0  0  0
  160.9970  201.0070  148.6120 C   0  0  0  0  0  3  0  0  0  0  0  0
  160.9330  202.7750  150.7750 C   0  0  0  0  0  3  0  0  0  0  0  0
  163.1670  212.2080  147.8900 C   0  0  0  0  0  2  0  0  0  0  0  0
  163.2950  213.6010  147.8560 O   0  0  0  0  0  1  0  0  0  0  0  0
  158.5730  211.7480  155.1580 C   0  0  0  0  0  2  0  0  0  0  0  0
  158.0170  212.8530  157.2610 N   0  0  0  0  0  1  0  0  0  0  0  0
  158.9830  211.9880  156.6010 C   0  0  2  0  0  3  0  0  0  0  0  0
  161.4510  211.8040  156.8070 O   0  0  0  0  0  1  0  0  0  0  0  0
  160.3320  212.6120  156.6480 C   0  0  0  0  0  0  0  0  0  0  0  0
  160.4670  213.8560  156.5060 O   0  0  0  0  0  0  0  0  0  0  0  0
  1 14  1  6  0  0  0
  1  2  1  0  0  0  0
  1  5  1  0  0  0  0
  2 48  1  6  0  0  0
  3 22  1  1  0  0  0
  3  8  1  0  0  0  0
  4 17  1  0  0  0  0
  4 15  1  1  0  0  0
  6 21  1  6  0  0  0
  6 23  1  0  0  0  0
  6  4  1  0  0  0  0
  7 46  1  6  0  0  0
  8 26  1  6  0  0  0
  8  5  1  0  0  0  0
  9 22  1  0  0  0  0
 10 23  1  0  0  0  0
 11 19  1  0  0  0  0
 11  7  1  0  0  0  0
 11 24  1  1  0  0  0
 12 29  1  6  0  0  0
 12 16  1  0  0  0  0
 14  3  1  0  0  0  0
 16  9  1  0  0  0  0
 17 20  1  1  0  0  0
 17  2  1  0  0  0  0
 18 25  1  6  0  0  0
 18 21  1  0  0  0  0
 19  7  1  0  0  0  0
 19 18  1  0  0  0  0
 22 13  2  0  0  0  0
 23  4  1  0  0  0  0
 23 15  1  0  0  0  0
 24 12  1  0  0  0  0
 25 10  1  0  0  0  0
 26 27  1  0  0  0  0
 28 29  2  0  0  0  0
 30 29  1  0  0  0  0
 30 31  1  0  0  0  0
 32 36  2  0  0  0  0
 33 34  1  0  0  0  0
 34 37  1  0  0  0  0
 34 36  1  0  0  0  0
 35 33  2  0  0  0  0
 35 32  1  0  0  0  0
 36 30  1  0  0  0  0
 37 38  1  0  0  0  0
 38 43  1  0  0  0  0
 39 38  2  0  0  0  0
 40 45  1  0  0  0  0
 41 42  1  0  0  0  0
 43 44  1  0  0  0  0
 43 40  2  0  0  0  0
 44 41  2  0  0  0  0
 45 42  2  0  0  0  0
 47 46  1  0  0  0  0
 48 50  1  0  0  0  0
 50 52  1  0  0  0  0
 50 49  1  0  0  0  0
 52 51  1  0  0  0  0
 53 52  2  0  0  0  0
M  END
>  <MODEL>
3

>  <REMARK>
 VINA RESULT:       0.3      2.776      8.032
  Name = 
  11 active torsions:
  status: ('A' for Active; 'I' for Inactive)
    1  A    between atoms: C_2  and  C_17
    2  A    between atoms: C_5  and  C_38
    3  A    between atoms: C_12  and  C_15
    4  A    between atoms: C_16  and  CA_44
    5  A    between atoms: N_21  and  C_39
    6  A    between atoms: C_25  and  C_50
    7  A    between atoms: C_27  and  C_28
    8  A    between atoms: C_28  and  C_39
    9  A    between atoms: C_29  and  C_31
   10  A    between atoms: C_29  and  C_50
   11  A    between atoms: C_38  and  CA_44
                            x       y       z     vdW  Elec       q    Type
                         _______ _______ _______ _____ _____    ______ ____

>  <TORSDO>
F 11

$$$$
=
 OpenBabel11072411503D

 53 60  0  0  1  0  0  0  0  0999 V2000
  161.5040  207.7750  149.0220 C   0  0  2  0  0  3  0  0  0  0  0  0
  162.2440  206.4330  149.0950 C   0  0  1  0  0  3  0  0  0  0  0  0
  161.5300  209.8660  149.6690 C   0  0  1  0  0  3  0  0  0  0  0  0
  161.8820  204.3190  150.7030 C   0  0  2  0  0  0  0  0  0  0  0  0
  161.8190  208.4600  147.8230 O   0  0  0  0  0  0  0  0  0  0  0  0
  161.7250  203.8280  152.1470 C   0  0  1  0  0  3  0  0  0  0  0  0
  161.7930  207.6420  154.8250 C   0  0  2  0  0  3  0  0  0  0  0  0
  161.8180  209.8080  148.1880 C   0  0  1  0  0  3  0  0  0  0  0  0
  162.7700  210.7810  151.7130 O   0  0  0  0  0  0  0  0  0  0  0  0
  159.6400  205.1300  151.3940 N   0  0  0  0  0  2  0  0  0  0  0  0
  160.3620  208.1320  154.6640 C   0  0  2  0  0  3  0  0  0  0  0  0
  160.8190  210.0070  152.9190 C   0  0  1  0  0  3  0  0  0  0  0  0
  162.6840  211.9600  149.7590 O   0  0  0  0  0  0  0  0  0  0  0  0
  161.8100  208.5820  150.1290 O   0  0  0  0  0  0  0  0  0  0  0  0
  160.8550  203.8090  149.8810 O   0  0  0  0  0  0  0  0  0  0  0  0
  162.2910  209.7750  152.6020 C   0  0  0  0  0  2  0  0  0  0  0  0
  162.1110  205.8470  150.5190 C   0  0  1  0  0  3  0  0  0  0  0  0
  160.8030  205.9820  153.2910 C   0  0  1  0  0  3  0  0  0  0  0  0
  160.6770  206.6250  154.6670 C   0  0  1  0  0  3  0  0  0  0  0  0
  163.2330  206.2500  151.2530 O   0  0  0  0  0  1  0  0  0  0  0  0
  161.8210  204.8460  153.3100 C   0  0  0  0  0  2  0  0  0  0  0  0
  162.3770  210.9040  150.3720 C   0  0  0  0  0  0  0  0  0  0  0  0
  160.5000  203.9470  151.2290 C   0  0  1  0  0  0  0  0  0  0  0  0
  160.0780  208.7090  153.2670 C   0  0  0  0  0  2  0  0  0  0  0  0
  159.4760  205.4600  152.7990 C   0  0  0  0  0  2  0  0  0  0  0  0
  160.8030  210.6010  147.3710 C   0  0  0  0  0  2  0  0  0  0  0  0
  161.2050  212.0540  147.2040 C   0  0  0  0  0  1  0  0  0  0  0  0
  161.4700  211.4370  154.6680 O   0  0  0  0  0  0  0  0  0  0  0  0
  160.5940  211.1590  153.8620 C   0  0  0  0  0  0  0  0  0  0  0  0
  159.2860  211.8960  153.8900 C   0  0  1  0  0  3  0  0  0  0  0  0
  159.1220  212.6260  155.2130 C   0  0  0  0  0  1  0  0  0  0  0  0
  159.7860  212.6940  151.4950 C   0  0  0  0  0  3  0  0  0  0  0  0
  158.4080  214.4460  151.4560 C   0  0  0  0  0  3  0  0  0  0  0  0
  158.2750  213.8600  152.6650 N   0  0  0  0  0  0  0  0  0  0  0  0
  159.3310  213.7400  150.7020 C   0  0  0  0  0  3  0  0  0  0  0  0
  159.1270  212.8220  152.7100 C   0  0  0  0  0  0  0  0  0  0  0  0
  157.4290  214.3380  153.7680 C   0  0  0  0  0  2  0  0  0  0  0  0
  156.1000  213.6280  153.7820 C   0  0  0  0  0  0  0  0  0  0  0  0
  155.2760  213.8790  152.8630 O   0  0  0  0  0  0  0  0  0  0  0  0
  155.4970  213.0580  156.1440 C   0  0  0  0  0  3  0  0  0  0  0  0
  155.3410  210.3410  155.5090 C   0  0  0  0  0  3  0  0  0  0  0  0
  155.0890  210.7640  156.8170 C   0  0  0  0  0  3  0  0  0  0  0  0
  155.7500  212.6460  154.8280 C   0  0  0  0  0  0  0  0  0  0  0  0
  155.6700  211.2780  154.5190 C   0  0  0  0  0  3  0  0  0  0  0  0
  155.1670  212.1240  157.1340 C   0  0  0  0  0  3  0  0  0  0  0  0
  162.2880  207.7000  156.2750 C   0  0  0  0  0  2  0  0  0  0  0  0
  161.5390  208.5640  157.0820 O   0  0  0  0  0  1  0  0  0  0  0  0
  161.7610  205.5330  147.9590 C   0  0  0  0  0  2  0  0  0  0  0  0
  160.3550  206.4590  146.1930 N   0  0  0  0  0  1  0  0  0  0  0  0
  161.7300  206.2790  146.6350 C   0  0  2  0  0  3  0  0  0  0  0  0
  163.5820  204.7520  145.9990 O   0  0  0  0  0  1  0  0  0  0  0  0
  162.4940  205.5220  145.6080 C   0  0  0  0  0  0  0  0  0  0  0  0
  162.1380  205.5430  144.4000 O   0  0  0  0  0  0  0  0  0  0  0  0
  1  5  1  6  0  0  0
  1  2  1  0  0  0  0
  1 14  1  0  0  0  0
  2 48  1  6  0  0  0
  2 17  1  0  0  0  0
  3 14  1  1  0  0  0
  3 22  1  0  0  0  0
  4 15  1  6  0  0  0
  4 23  1  0  0  0  0
  4  6  1  0  0  0  0
  5  8  1  0  0  0  0
  6 21  1  1  0  0  0
  7 46  1  1  0  0  0
  8 26  1  6  0  0  0
  8  3  1  0  0  0  0
  9 16  1  0  0  0  0
 10 25  1  0  0  0  0
 11 24  1  6  0  0  0
 11 19  1  0  0  0  0
 11  7  1  0  0  0  0
 12 24  1  0  0  0  0
 12 29  1  1  0  0  0
 13 22  2  0  0  0  0
 15 23  1  0  0  0  0
 16 12  1  0  0  0  0
 17  4  1  0  0  0  0
 17 20  1  1  0  0  0
 18 25  1  1  0  0  0
 18 21  1  0  0  0  0
 18 19  1  0  0  0  0
 19  7  1  0  0  0  0
 22  9  1  0  0  0  0
 23 10  1  0  0  0  0
 23  6  1  0  0  0  0
 27 26  1  0  0  0  0
 29 30  1  0  0  0  0
 29 28  2  0  0  0  0
 30 31  1  0  0  0  0
 32 36  2  0  0  0  0
 33 34  1  0  0  0  0
 34 36  1  0  0  0  0
 34 37  1  0  0  0  0
 35 33  2  0  0  0  0
 35 32  1  0  0  0  0
 36 30  1  0  0  0  0
 37 38  1  0  0  0  0
 38 43  1  0  0  0  0
 39 38  2  0  0  0  0
 40 45  1  0  0  0  0
 41 42  1  0  0  0  0
 42 45  2  0  0  0  0
 43 40  2  0  0  0  0
 44 43  1  0  0  0  0
 44 41  2  0  0  0  0
 46 47  1  0  0  0  0
 49 50  1  0  0  0  0
 50 48  1  0  0  0  0
 52 51  1  0  0  0  0
 52 50  1  0  0  0  0
 53 52  2  0  0  0  0
M  END
>  <MODEL>
4

>  <REMARK>
 VINA RESULT:       0.6      2.660      6.484
  Name = 
  11 active torsions:
  status: ('A' for Active; 'I' for Inactive)
    1  A    between atoms: C_2  and  C_17
    2  A    between atoms: C_5  and  C_38
    3  A    between atoms: C_12  and  C_15
    4  A    between atoms: C_16  and  CA_44
    5  A    between atoms: N_21  and  C_39
    6  A    between atoms: C_25  and  C_50
    7  A    between atoms: C_27  and  C_28
    8  A    between atoms: C_28  and  C_39
    9  A    between atoms: C_29  and  C_31
   10  A    between atoms: C_29  and  C_50
   11  A    between atoms: C_38  and  CA_44
                            x       y       z     vdW  Elec       q    Type
                         _______ _______ _______ _____ _____    ______ ____

>  <TORSDO>
F 11

$$$$
