=
 OpenBabel11072413273D

 41 46  0  0  1  0  0  0  0  0999 V2000
  162.1290  210.0310  153.8620 C   0  0  1  0  0  3  0  0  0  0  0  0
  162.6550  210.1600  152.4440 C   0  0  0  0  0  2  0  0  0  0  0  0
  161.9640  208.4060  149.2670 C   0  0  0  0  0  1  0  0  0  0  0  0
  160.9880  208.2850  151.6400 C   0  0  2  0  0  0  0  0  0  0  0  0
  161.4760  209.1730  150.4880 C   0  0  1  0  0  3  0  0  0  0  0  0
  159.8720  208.8620  152.5360 C   0  0  0  0  0  2  0  0  0  0  0  0
  163.0300  210.7380  154.8640 C   0  0  0  0  0  1  0  0  0  0  0  0
  159.9770  210.2430  152.7220 O   0  0  0  0  0  0  0  0  0  0  0  0
  160.6390  210.4280  153.9480 C   0  0  2  0  0  3  0  0  0  0  0  0
  162.4140  208.8740  151.6560 C   0  0  1  0  0  3  0  0  0  0  0  0
  161.5080  205.8480  152.4510 C   0  0  0  0  0  0  0  0  0  0  0  0
  161.5430  204.3750  152.1730 C   0  0  0  0  0  2  0  0  0  0  0  0
  160.4460  206.3030  150.2990 C   0  0  0  0  0  3  0  0  0  0  0  0
  160.9430  206.7850  151.4450 C   0  0  0  0  0  0  0  0  0  0  0  0
  160.4430  204.8410  149.9510 C   0  0  2  0  0  3  0  0  0  0  0  0
  160.4200  203.9790  151.2150 C   0  0  0  0  0  2  0  0  0  0  0  0
  162.0680  206.2930  153.5700 C   0  0  0  0  0  2  0  0  0  0  0  0
  161.6460  204.4760  149.0880 C   0  0  0  0  0  2  0  0  0  0  0  0
  160.7310  202.3180  147.0040 N   0  0  0  0  0  2  0  0  0  0  0  0
  161.3860  204.7420  147.6060 C   0  0  1  0  0  3  0  0  0  0  0  0
  162.4280  205.6270  147.0580 N   0  0  0  0  0  0  0  0  0  0  0  0
  161.5550  203.4740  146.8450 C   0  0  0  0  0  0  0  0  0  0  0  0
  162.5370  203.5330  146.0240 N   0  0  0  0  0  0  0  0  0  0  0  0
  163.0960  204.8010  146.1350 N   0  0  0  0  0  2  0  0  0  0  0  0
  159.9540  201.1710  145.0040 C   0  0  0  0  0  1  0  0  0  0  0  0
  160.8920  201.1230  146.1910 C   0  0  0  0  0  2  0  0  0  0  0  0
  161.7500  206.6510  146.2780 C   0  0  0  0  0  2  0  0  0  0  0  0
  160.3220  206.0920  144.7760 O   0  0  0  0  0  1  0  0  0  0  0  0
  160.4190  206.2860  146.0740 O   0  0  0  0  0  0  0  0  0  0  0  0
  160.3120  211.7910  155.8910 O   0  0  0  0  0  1  0  0  0  0  0  0
  160.3930  211.8410  154.4990 C   0  0  2  0  0  3  0  0  0  0  0  0
  157.8410  213.4410  152.3650 C   0  0  1  0  0  3  0  0  0  0  0  0
  159.1880  212.5270  153.9110 C   0  0  0  0  0  0  0  0  0  0  0  0
  158.1570  212.9880  154.6090 C   0  0  0  0  0  3  0  0  0  0  0  0
  157.1950  213.6780  153.6880 C   0  0  2  0  0  3  0  0  0  0  0  0
  159.9850  213.0350  151.4460 C   0  0  0  0  0  2  0  0  0  0  0  0
  159.5120  214.2750  150.6870 C   0  0  0  0  0  2  0  0  0  0  0  0
  157.7000  214.4470  150.9090 S   0  0  0  0  0  0  0  0  0  0  0  0
  158.9740  212.8170  152.5080 C   0  0  2  0  0  3  0  0  0  0  0  0
  155.9530  213.0490  153.7370 O   0  0  0  0  0  0  0  0  0  0  0  0
  155.2260  213.7800  154.6780 C   0  0  0  0  0  1  0  0  0  0  0  0
  1  9  1  0  0  0  0
  1  7  1  1  0  0  0
  2  1  1  0  0  0  0
  4 14  1  6  0  0  0
  4 10  1  0  0  0  0
  4  6  1  0  0  0  0
  5  3  1  6  0  0  0
  5  4  1  0  0  0  0
  5 10  1  0  0  0  0
  6  8  1  0  0  0  0
  8  9  1  0  0  0  0
  9 31  1  6  0  0  0
 10  2  1  1  0  0  0
 11 17  2  0  0  0  0
 12 11  1  0  0  0  0
 13 14  2  0  0  0  0
 14 11  1  0  0  0  0
 15 18  1  1  0  0  0
 15 13  1  0  0  0  0
 15 16  1  0  0  0  0
 16 12  1  0  0  0  0
 20 18  1  1  0  0  0
 21 20  1  0  0  0  0
 22 19  1  0  0  0  0
 22 20  1  0  0  0  0
 23 24  1  0  0  0  0
 23 22  2  0  0  0  0
 24 21  1  0  0  0  0
 25 26  1  0  0  0  0
 26 19  1  0  0  0  0
 27 21  1  0  0  0  0
 28 29  1  0  0  0  0
 29 27  1  0  0  0  0
 31 30  1  1  0  0  0
 32 38  1  1  0  0  0
 32 39  1  0  0  0  0
 32 35  1  0  0  0  0
 33 31  1  0  0  0  0
 33 34  2  0  0  0  0
 35 40  1  6  0  0  0
 35 34  1  0  0  0  0
 37 38  1  0  0  0  0
 37 36  1  0  0  0  0
 39 36  1  1  0  0  0
 39 33  1  0  0  0  0
 40 41  1  0  0  0  0
M  END
>  <MODEL>
1

>  <REMARK>
 VINA RESULT:      -7.1      0.000      0.000
  Name = 
  9 active torsions:
  status: ('A' for Active; 'I' for Inactive)
    1  A    between atoms: C_6  and  C_20
    2  A    between atoms: C_9  and  C_34
    3  A    between atoms: N_10  and  C_40
    4  A    between atoms: C_14  and  C_32
    5  A    between atoms: C_15  and  N_17
    6  A    between atoms: C_15  and  O_27
    7  A    between atoms: C_16  and  C_32
    8  A    between atoms: C_18  and  O_36
    9  A    between atoms: C_34  and  C_35
                            x       y       z     vdW  Elec       q    Type
                         _______ _______ _______ _____ _____    ______ ____

>  <TORSDO>
F 9

$$$$
=
 OpenBabel11072413273D

 41 46  0  0  1  0  0  0  0  0999 V2000
  161.6260  210.0890  154.7910 C   0  0  1  0  0  3  0  0  0  0  0  0
  162.4030  210.4680  153.5440 C   0  0  0  0  0  2  0  0  0  0  0  0
  162.3420  209.3390  150.0260 C   0  0  0  0  0  1  0  0  0  0  0  0
  160.9470  208.8000  152.1140 C   0  0  2  0  0  0  0  0  0  0  0  0
  161.6230  209.8770  151.2550 C   0  0  1  0  0  3  0  0  0  0  0  0
  159.6740  209.2230  152.8780 C   0  0  0  0  0  2  0  0  0  0  0  0
  162.3130  210.5850  156.0550 C   0  0  0  0  0  1  0  0  0  0  0  0
  159.7190  210.5440  153.3310 O   0  0  0  0  0  0  0  0  0  0  0  0
  160.1390  210.4890  154.6710 C   0  0  2  0  0  3  0  0  0  0  0  0
  162.3340  209.3520  152.5010 C   0  0  1  0  0  3  0  0  0  0  0  0
  161.5440  206.2750  152.4720 C   0  0  0  0  0  0  0  0  0  0  0  0
  161.6430  204.8820  151.9260 C   0  0  0  0  0  2  0  0  0  0  0  0
  160.5110  207.0870  150.4120 C   0  0  0  0  0  3  0  0  0  0  0  0
  160.9650  207.3630  151.6430 C   0  0  0  0  0  0  0  0  0  0  0  0
  160.5740  205.7170  149.7990 C   0  0  2  0  0  3  0  0  0  0  0  0
  160.5570  204.6340  150.8790 C   0  0  0  0  0  2  0  0  0  0  0  0
  162.0620  206.5210  153.6700 C   0  0  0  0  0  2  0  0  0  0  0  0
  161.8090  205.5610  148.9180 C   0  0  0  0  0  2  0  0  0  0  0  0
  160.5480  202.8550  147.9560 N   0  0  0  0  0  2  0  0  0  0  0  0
  161.4400  205.2290  147.4730 C   0  0  1  0  0  3  0  0  0  0  0  0
  162.4940  205.6990  146.5580 N   0  0  0  0  0  0  0  0  0  0  0  0
  161.4420  203.7520  147.2950 C   0  0  0  0  0  0  0  0  0  0  0  0
  162.3490  203.3670  146.4750 N   0  0  0  0  0  0  0  0  0  0  0  0
  163.0120  204.5040  146.0270 N   0  0  0  0  0  2  0  0  0  0  0  0
  161.3680  200.7060  148.7480 C   0  0  0  0  0  1  0  0  0  0  0  0
  160.5440  201.4230  147.7010 C   0  0  0  0  0  2  0  0  0  0  0  0
  161.8320  206.3850  145.4600 C   0  0  0  0  0  2  0  0  0  0  0  0
  159.9600  205.6440  144.7150 O   0  0  0  0  0  1  0  0  0  0  0  0
  160.4540  206.3980  145.6740 O   0  0  0  0  0  0  0  0  0  0  0  0
  159.5060  211.4880  156.7550 O   0  0  0  0  0  1  0  0  0  0  0  0
  159.7710  211.7810  155.4160 C   0  0  2  0  0  3  0  0  0  0  0  0
  156.7980  213.8330  154.6590 C   0  0  1  0  0  3  0  0  0  0  0  0
  158.6310  212.5440  154.7950 C   0  0  0  0  0  0  0  0  0  0  0  0
  158.3460  212.5690  153.4990 C   0  0  0  0  0  3  0  0  0  0  0  0
  157.0940  213.3650  153.2750 C   0  0  2  0  0  3  0  0  0  0  0  0
  157.1840  213.1940  156.9060 C   0  0  0  0  0  2  0  0  0  0  0  0
  155.6600  213.3040  156.8350 C   0  0  0  0  0  2  0  0  0  0  0  0
  155.2080  214.2510  155.3300 S   0  0  0  0  0  0  0  0  0  0  0  0
  157.6530  213.3420  155.5080 C   0  0  2  0  0  3  0  0  0  0  0  0
  157.3640  214.4530  152.4460 O   0  0  0  0  0  0  0  0  0  0  0  0
  157.9600  213.8930  151.3160 C   0  0  0  0  0  1  0  0  0  0  0  0
  1  7  1  1  0  0  0
  2  1  1  0  0  0  0
  4 14  1  6  0  0  0
  4 10  1  0  0  0  0
  4  6  1  0  0  0  0
  5  3  1  6  0  0  0
  5  4  1  0  0  0  0
  5 10  1  0  0  0  0
  6  8  1  0  0  0  0
  8  9  1  0  0  0  0
  9  1  1  0  0  0  0
  9 31  1  6  0  0  0
 10  2  1  1  0  0  0
 11 17  2  0  0  0  0
 12 11  1  0  0  0  0
 13 14  2  0  0  0  0
 14 11  1  0  0  0  0
 15 18  1  1  0  0  0
 15 13  1  0  0  0  0
 15 16  1  0  0  0  0
 16 12  1  0  0  0  0
 20 18  1  1  0  0  0
 21 20  1  0  0  0  0
 22 20  1  0  0  0  0
 22 19  1  0  0  0  0
 23 22  2  0  0  0  0
 24 23  1  0  0  0  0
 24 21  1  0  0  0  0
 26 19  1  0  0  0  0
 26 25  1  0  0  0  0
 27 29  1  0  0  0  0
 27 21  1  0  0  0  0
 28 29  1  0  0  0  0
 31 30  1  1  0  0  0
 32 38  1  1  0  0  0
 32 39  1  0  0  0  0
 33 31  1  0  0  0  0
 33 39  1  0  0  0  0
 34 33  2  0  0  0  0
 35 40  1  6  0  0  0
 35 34  1  0  0  0  0
 35 32  1  0  0  0  0
 37 36  1  0  0  0  0
 38 37  1  0  0  0  0
 39 36  1  1  0  0  0
 41 40  1  0  0  0  0
M  END
>  <MODEL>
2

>  <REMARK>
 VINA RESULT:      -5.7      1.363      2.216
  Name = 
  9 active torsions:
  status: ('A' for Active; 'I' for Inactive)
    1  A    between atoms: C_6  and  C_20
    2  A    between atoms: C_9  and  C_34
    3  A    between atoms: N_10  and  C_40
    4  A    between atoms: C_14  and  C_32
    5  A    between atoms: C_15  and  N_17
    6  A    between atoms: C_15  and  O_27
    7  A    between atoms: C_16  and  C_32
    8  A    between atoms: C_18  and  O_36
    9  A    between atoms: C_34  and  C_35
                            x       y       z     vdW  Elec       q    Type
                         _______ _______ _______ _____ _____    ______ ____

>  <TORSDO>
F 9

$$$$
=
 OpenBabel11072413273D

 41 46  0  0  1  0  0  0  0  0999 V2000
  160.6610  206.8020  149.5040 C   0  0  1  0  0  3  0  0  0  0  0  0
  161.1570  208.2360  149.5540 C   0  0  0  0  0  2  0  0  0  0  0  0
  162.5740  210.3830  152.2050 C   0  0  0  0  0  1  0  0  0  0  0  0
  161.8550  207.9210  152.0750 C   0  0  2  0  0  0  0  0  0  0  0  0
  162.5870  209.0900  151.4030 C   0  0  1  0  0  3  0  0  0  0  0  0
  162.3870  206.5040  151.7740 C   0  0  0  0  0  2  0  0  0  0  0  0
  159.8220  206.5400  148.2620 C   0  0  0  0  0  1  0  0  0  0  0  0
  162.8640  206.3640  150.4680 O   0  0  0  0  0  0  0  0  0  0  0  0
  161.8160  205.7990  149.7220 C   0  0  2  0  0  3  0  0  0  0  0  0
  161.1540  208.7620  150.9890 C   0  0  1  0  0  3  0  0  0  0  0  0
  160.7310  206.9740  154.2440 C   0  0  0  0  0  0  0  0  0  0  0  0
  160.0770  207.2180  155.5720 C   0  0  0  0  0  2  0  0  0  0  0  0
  161.2160  209.3520  153.9640 C   0  0  0  0  0  3  0  0  0  0  0  0
  161.2850  208.1110  153.4640 C   0  0  0  0  0  0  0  0  0  0  0  0
  160.5790  209.6740  155.2860 C   0  0  2  0  0  3  0  0  0  0  0  0
  160.6470  208.4730  156.2320 C   0  0  0  0  0  2  0  0  0  0  0  0
  160.7240  205.7390  153.7550 C   0  0  0  0  0  2  0  0  0  0  0  0
  159.1320  210.1210  155.1080 C   0  0  0  0  0  2  0  0  0  0  0  0
  157.5540  212.3520  156.6470 N   0  0  0  0  0  2  0  0  0  0  0  0
  159.0370  211.5840  154.6790 C   0  0  1  0  0  3  0  0  0  0  0  0
  158.8340  211.6740  153.2220 N   0  0  0  0  0  0  0  0  0  0  0  0
  157.8000  212.1830  155.2510 C   0  0  0  0  0  0  0  0  0  0  0  0
  156.9670  212.5290  154.3400 N   0  0  0  0  0  0  0  0  0  0  0  0
  157.5440  212.2240  153.1120 N   0  0  0  0  0  2  0  0  0  0  0  0
  155.2250  212.0040  157.2590 C   0  0  0  0  0  1  0  0  0  0  0  0
  156.3570  213.0030  157.1590 C   0  0  0  0  0  2  0  0  0  0  0  0
  159.7560  212.6850  152.7250 C   0  0  0  0  0  2  0  0  0  0  0  0
  160.1580  213.8960  151.0000 O   0  0  0  0  0  1  0  0  0  0  0  0
  159.1540  213.4090  151.6970 O   0  0  0  0  0  0  0  0  0  0  0  0
  162.2490  206.0720  147.3820 O   0  0  0  0  0  1  0  0  0  0  0  0
  162.3430  205.1560  148.4310 C   0  0  2  0  0  3  0  0  0  0  0  0
  160.9060  202.1700  146.8050 C   0  0  1  0  0  3  0  0  0  0  0  0
  161.6710  203.8560  148.0740 C   0  0  0  0  0  0  0  0  0  0  0  0
  161.0390  203.0630  148.9320 C   0  0  0  0  0  3  0  0  0  0  0  0
  160.4290  201.9090  148.1930 C   0  0  2  0  0  3  0  0  0  0  0  0
  161.5920  203.9770  145.4380 C   0  0  0  0  0  2  0  0  0  0  0  0
  160.4500  203.3530  144.6370 C   0  0  0  0  0  2  0  0  0  0  0  0
  160.1210  201.6720  145.2920 S   0  0  0  0  0  0  0  0  0  0  0  0
  161.5790  203.2820  146.7470 C   0  0  2  0  0  3  0  0  0  0  0  0
  160.9560  200.7080  148.6660 O   0  0  0  0  0  0  0  0  0  0  0  0
  161.1920  200.9390  150.0210 C   0  0  0  0  0  1  0  0  0  0  0  0
  1  7  1  6  0  0  0
  1  2  1  0  0  0  0
  1  9  1  0  0  0  0
  4 14  1  1  0  0  0
  5  4  1  0  0  0  0
  5  3  1  1  0  0  0
  6  4  1  0  0  0  0
  8  6  1  0  0  0  0
  9 31  1  6  0  0  0
  9  8  1  0  0  0  0
 10  2  1  6  0  0  0
 10  5  1  0  0  0  0
 10  4  1  0  0  0  0
 11 12  1  0  0  0  0
 12 16  1  0  0  0  0
 13 15  1  0  0  0  0
 14 13  2  0  0  0  0
 14 11  1  0  0  0  0
 15 18  1  6  0  0  0
 15 16  1  0  0  0  0
 17 11  2  0  0  0  0
 19 26  1  0  0  0  0
 20 18  1  1  0  0  0
 20 22  1  0  0  0  0
 21 20  1  0  0  0  0
 22 19  1  0  0  0  0
 23 22  2  0  0  0  0
 24 21  1  0  0  0  0
 24 23  1  0  0  0  0
 26 25  1  0  0  0  0
 27 21  1  0  0  0  0
 28 29  1  0  0  0  0
 29 27  1  0  0  0  0
 31 30  1  6  0  0  0
 32 38  1  6  0  0  0
 32 35  1  0  0  0  0
 33 31  1  0  0  0  0
 33 34  2  0  0  0  0
 35 40  1  1  0  0  0
 35 34  1  0  0  0  0
 37 38  1  0  0  0  0
 37 36  1  0  0  0  0
 39 36  1  6  0  0  0
 39 32  1  0  0  0  0
 39 33  1  0  0  0  0
 40 41  1  0  0  0  0
M  END
>  <MODEL>
3

>  <REMARK>
 VINA RESULT:      -5.1      4.624      9.857
  Name = 
  9 active torsions:
  status: ('A' for Active; 'I' for Inactive)
    1  A    between atoms: C_6  and  C_20
    2  A    between atoms: C_9  and  C_34
    3  A    between atoms: N_10  and  C_40
    4  A    between atoms: C_14  and  C_32
    5  A    between atoms: C_15  and  N_17
    6  A    between atoms: C_15  and  O_27
    7  A    between atoms: C_16  and  C_32
    8  A    between atoms: C_18  and  O_36
    9  A    between atoms: C_34  and  C_35
                            x       y       z     vdW  Elec       q    Type
                         _______ _______ _______ _____ _____    ______ ____

>  <TORSDO>
F 9

$$$$
=
 OpenBabel11072413273D

 41 46  0  0  1  0  0  0  0  0999 V2000
  160.6790  206.8440  149.3700 C   0  0  1  0  0  3  0  0  0  0  0  0
  161.2260  208.2580  149.4300 C   0  0  0  0  0  2  0  0  0  0  0  0
  162.5770  210.3900  152.1280 C   0  0  0  0  0  1  0  0  0  0  0  0
  161.7710  207.9550  151.9900 C   0  0  2  0  0  0  0  0  0  0  0  0
  162.5830  209.0850  151.3440 C   0  0  1  0  0  3  0  0  0  0  0  0
  162.2640  206.5150  151.7360 C   0  0  0  0  0  2  0  0  0  0  0  0
  159.9000  206.5940  148.0870 C   0  0  0  0  0  1  0  0  0  0  0  0
  162.8070  206.3370  150.4610 O   0  0  0  0  0  0  0  0  0  0  0  0
  161.7800  205.8010  149.6640 C   0  0  2  0  0  3  0  0  0  0  0  0
  161.1640  208.8050  150.8550 C   0  0  1  0  0  3  0  0  0  0  0  0
  160.7600  207.0590  154.2340 C   0  0  0  0  0  0  0  0  0  0  0  0
  160.0320  207.3220  155.5180 C   0  0  0  0  0  2  0  0  0  0  0  0
  160.8350  209.4410  153.7030 C   0  0  0  0  0  3  0  0  0  0  0  0
  161.1340  208.1860  153.3420 C   0  0  0  0  0  0  0  0  0  0  0  0
  160.1100  209.7840  154.9730 C   0  0  2  0  0  3  0  0  0  0  0  0
  160.3550  208.7200  156.0450 C   0  0  0  0  0  2  0  0  0  0  0  0
  160.9820  205.7970  153.8820 C   0  0  0  0  0  2  0  0  0  0  0  0
  158.6140  209.9490  154.7290 C   0  0  0  0  0  2  0  0  0  0  0  0
  158.4590  212.4600  152.8560 N   0  0  0  0  0  2  0  0  0  0  0  0
  158.1170  211.3300  155.1520 C   0  0  1  0  0  3  0  0  0  0  0  0
  158.6400  211.6730  156.4860 N   0  0  0  0  0  0  0  0  0  0  0  0
  158.7130  212.3600  154.2580 C   0  0  0  0  0  0  0  0  0  0  0  0
  159.4940  213.1540  154.8920 N   0  0  0  0  0  0  0  0  0  0  0  0
  159.4900  212.7630  156.2260 N   0  0  0  0  0  2  0  0  0  0  0  0
  160.0080  212.9530  151.0450 C   0  0  0  0  0  1  0  0  0  0  0  0
  159.0130  213.5240  152.0330 C   0  0  0  0  0  2  0  0  0  0  0  0
  157.5240  212.1950  157.2600 C   0  0  0  0  0  2  0  0  0  0  0  0
  155.5080  212.8870  157.0120 O   0  0  0  0  0  1  0  0  0  0  0  0
  156.3270  211.9470  156.5900 O   0  0  0  0  0  0  0  0  0  0  0  0
  162.3510  206.0220  147.3490 O   0  0  0  0  0  1  0  0  0  0  0  0
  162.3530  205.1190  148.4130 C   0  0  2  0  0  3  0  0  0  0  0  0
  160.8510  202.1900  146.7430 C   0  0  1  0  0  3  0  0  0  0  0  0
  161.6530  203.8400  148.0370 C   0  0  0  0  0  0  0  0  0  0  0  0
  161.0060  203.0470  148.8830 C   0  0  0  0  0  3  0  0  0  0  0  0
  160.3700  201.9180  148.1270 C   0  0  2  0  0  3  0  0  0  0  0  0
  161.5750  204.0030  145.4030 C   0  0  0  0  0  2  0  0  0  0  0  0
  160.4180  203.4160  144.5940 C   0  0  0  0  0  2  0  0  0  0  0  0
  160.0540  201.7320  145.2230 S   0  0  0  0  0  0  0  0  0  0  0  0
  161.5480  203.2880  146.7010 C   0  0  2  0  0  3  0  0  0  0  0  0
  160.8720  200.6990  148.5810 O   0  0  0  0  0  0  0  0  0  0  0  0
  161.1280  200.9080  149.9360 C   0  0  0  0  0  1  0  0  0  0  0  0
  1  7  1  6  0  0  0
  1  2  1  0  0  0  0
  1  9  1  0  0  0  0
  4 14  1  1  0  0  0
  5  4  1  0  0  0  0
  5  3  1  1  0  0  0
  6  4  1  0  0  0  0
  8  6  1  0  0  0  0
  9 31  1  6  0  0  0
  9  8  1  0  0  0  0
 10  2  1  6  0  0  0
 10  5  1  0  0  0  0
 10  4  1  0  0  0  0
 11 12  1  0  0  0  0
 12 16  1  0  0  0  0
 13 15  1  0  0  0  0
 14 13  2  0  0  0  0
 14 11  1  0  0  0  0
 15 18  1  6  0  0  0
 15 16  1  0  0  0  0
 17 11  2  0  0  0  0
 19 22  1  0  0  0  0
 20 18  1  6  0  0  0
 20 21  1  0  0  0  0
 21 27  1  0  0  0  0
 22 23  2  0  0  0  0
 22 20  1  0  0  0  0
 23 24  1  0  0  0  0
 24 21  1  0  0  0  0
 25 26  1  0  0  0  0
 26 19  1  0  0  0  0
 29 28  1  0  0  0  0
 29 27  1  0  0  0  0
 31 30  1  6  0  0  0
 32 38  1  6  0  0  0
 32 35  1  0  0  0  0
 33 31  1  0  0  0  0
 33 34  2  0  0  0  0
 35 40  1  1  0  0  0
 35 34  1  0  0  0  0
 37 38  1  0  0  0  0
 37 36  1  0  0  0  0
 39 36  1  6  0  0  0
 39 32  1  0  0  0  0
 39 33  1  0  0  0  0
 40 41  1  0  0  0  0
M  END
>  <MODEL>
4

>  <REMARK>
 VINA RESULT:      -5.0      4.634      9.978
  Name = 
  9 active torsions:
  status: ('A' for Active; 'I' for Inactive)
    1  A    between atoms: C_6  and  C_20
    2  A    between atoms: C_9  and  C_34
    3  A    between atoms: N_10  and  C_40
    4  A    between atoms: C_14  and  C_32
    5  A    between atoms: C_15  and  N_17
    6  A    between atoms: C_15  and  O_27
    7  A    between atoms: C_16  and  C_32
    8  A    between atoms: C_18  and  O_36
    9  A    between atoms: C_34  and  C_35
                            x       y       z     vdW  Elec       q    Type
                         _______ _______ _______ _____ _____    ______ ____

>  <TORSDO>
F 9

$$$$
=
 OpenBabel11072413273D

 41 46  0  0  1  0  0  0  0  0999 V2000
  160.8300  206.9470  149.3320 C   0  0  1  0  0  3  0  0  0  0  0  0
  161.2110  208.4080  149.4960 C   0  0  0  0  0  2  0  0  0  0  0  0
  162.3720  210.4680  152.3340 C   0  0  0  0  0  1  0  0  0  0  0  0
  161.8520  207.9730  152.0140 C   0  0  2  0  0  0  0  0  0  0  0  0
  162.5110  209.2380  151.4480 C   0  0  1  0  0  3  0  0  0  0  0  0
  162.5020  206.6250  151.6390 C   0  0  0  0  0  2  0  0  0  0  0  0
  160.0540  206.7080  148.0460 C   0  0  0  0  0  1  0  0  0  0  0  0
  163.0300  206.6120  150.3450 O   0  0  0  0  0  0  0  0  0  0  0  0
  162.0520  206.0220  149.5250 C   0  0  2  0  0  3  0  0  0  0  0  0
  161.1220  208.8320  150.9610 C   0  0  1  0  0  3  0  0  0  0  0  0
  160.8290  206.7880  154.1140 C   0  0  0  0  0  0  0  0  0  0  0  0
  160.1120  206.8800  155.4290 C   0  0  0  0  0  2  0  0  0  0  0  0
  160.9590  209.2200  153.9300 C   0  0  0  0  0  3  0  0  0  0  0  0
  161.2250  208.0230  153.3900 C   0  0  0  0  0  0  0  0  0  0  0  0
  160.2470  209.3930  155.2420 C   0  0  2  0  0  3  0  0  0  0  0  0
  160.4710  208.1800  156.1480 C   0  0  0  0  0  2  0  0  0  0  0  0
  161.0190  205.5850  153.5830 C   0  0  0  0  0  2  0  0  0  0  0  0
  158.7550  209.6270  155.0360 C   0  0  0  0  0  2  0  0  0  0  0  0
  158.6800  211.8480  152.8230 N   0  0  0  0  0  2  0  0  0  0  0  0
  158.3690  211.0860  155.2700 C   0  0  1  0  0  3  0  0  0  0  0  0
  158.9740  211.5770  156.5200 N   0  0  0  0  0  0  0  0  0  0  0  0
  158.9910  211.9320  154.2140 C   0  0  0  0  0  0  0  0  0  0  0  0
  159.8490  212.7510  154.6980 N   0  0  0  0  0  0  0  0  0  0  0  0
  159.8810  212.5560  156.0740 N   0  0  0  0  0  2  0  0  0  0  0  0
  158.2950  213.8540  151.5010 C   0  0  0  0  0  1  0  0  0  0  0  0
  159.2650  212.7410  151.8350 C   0  0  0  0  0  2  0  0  0  0  0  0
  157.9310  212.2840  157.2490 C   0  0  0  0  0  2  0  0  0  0  0  0
  155.7970  212.5120  157.2260 O   0  0  0  0  0  1  0  0  0  0  0  0
  156.7280  211.5850  157.1490 O   0  0  0  0  0  0  0  0  0  0  0  0
  162.6900  206.5440  147.2760 O   0  0  0  0  0  1  0  0  0  0  0  0
  162.6690  205.5110  148.2140 C   0  0  2  0  0  3  0  0  0  0  0  0
  160.7330  202.4300  147.5950 C   0  0  1  0  0  3  0  0  0  0  0  0
  161.9920  204.2880  147.6540 C   0  0  0  0  0  0  0  0  0  0  0  0
  162.1310  203.8400  146.4120 C   0  0  0  0  0  3  0  0  0  0  0  0
  161.3710  202.5560  146.2530 C   0  0  2  0  0  3  0  0  0  0  0  0
  161.0850  203.1090  149.8360 C   0  0  0  0  0  2  0  0  0  0  0  0
  160.9860  201.5880  149.9480 C   0  0  0  0  0  2  0  0  0  0  0  0
  160.2370  200.9310  148.4080 S   0  0  0  0  0  0  0  0  0  0  0  0
  161.1130  203.3950  148.3810 C   0  0  2  0  0  3  0  0  0  0  0  0
  160.3960  202.6990  145.2680 O   0  0  0  0  0  0  0  0  0  0  0  0
  160.0820  201.3920  144.8940 C   0  0  0  0  0  1  0  0  0  0  0  0
  1  7  1  6  0  0  0
  1  2  1  0  0  0  0
  1  9  1  0  0  0  0
  4 14  1  1  0  0  0
  5  4  1  0  0  0  0
  5  3  1  1  0  0  0
  6  4  1  0  0  0  0
  8  6  1  0  0  0  0
  9 31  1  6  0  0  0
  9  8  1  0  0  0  0
 10  2  1  6  0  0  0
 10  5  1  0  0  0  0
 10  4  1  0  0  0  0
 11 12  1  0  0  0  0
 12 16  1  0  0  0  0
 13 15  1  0  0  0  0
 14 13  2  0  0  0  0
 14 11  1  0  0  0  0
 15 18  1  6  0  0  0
 15 16  1  0  0  0  0
 17 11  2  0  0  0  0
 19 22  1  0  0  0  0
 20 18  1  6  0  0  0
 20 21  1  0  0  0  0
 21 27  1  0  0  0  0
 22 23  2  0  0  0  0
 22 20  1  0  0  0  0
 23 24  1  0  0  0  0
 24 21  1  0  0  0  0
 25 26  1  0  0  0  0
 26 19  1  0  0  0  0
 29 28  1  0  0  0  0
 29 27  1  0  0  0  0
 31 30  1  6  0  0  0
 32 39  1  0  0  0  0
 32 38  1  1  0  0  0
 33 31  1  0  0  0  0
 33 39  1  0  0  0  0
 34 33  2  0  0  0  0
 35 40  1  6  0  0  0
 35 34  1  0  0  0  0
 35 32  1  0  0  0  0
 36 37  1  0  0  0  0
 38 37  1  0  0  0  0
 39 36  1  1  0  0  0
 41 40  1  0  0  0  0
M  END
>  <MODEL>
5

>  <REMARK>
 VINA RESULT:      -4.5      4.479      9.954
  Name = 
  9 active torsions:
  status: ('A' for Active; 'I' for Inactive)
    1  A    between atoms: C_6  and  C_20
    2  A    between atoms: C_9  and  C_34
    3  A    between atoms: N_10  and  C_40
    4  A    between atoms: C_14  and  C_32
    5  A    between atoms: C_15  and  N_17
    6  A    between atoms: C_15  and  O_27
    7  A    between atoms: C_16  and  C_32
    8  A    between atoms: C_18  and  O_36
    9  A    between atoms: C_34  and  C_35
                            x       y       z     vdW  Elec       q    Type
                         _______ _______ _______ _____ _____    ______ ____

>  <TORSDO>
F 9

$$$$
=
 OpenBabel11072413273D

 41 46  0  0  1  0  0  0  0  0999 V2000
  160.6680  206.7150  149.2630 C   0  0  1  0  0  3  0  0  0  0  0  0
  161.0590  208.1810  149.2960 C   0  0  0  0  0  2  0  0  0  0  0  0
  162.4650  210.4170  151.8800 C   0  0  0  0  0  1  0  0  0  0  0  0
  161.9220  207.9080  151.7710 C   0  0  2  0  0  0  0  0  0  0  0  0
  162.5260  209.1310  151.0680 C   0  0  1  0  0  3  0  0  0  0  0  0
  162.5390  206.5360  151.4270 C   0  0  0  0  0  2  0  0  0  0  0  0
  159.7800  206.3960  148.0680 C   0  0  0  0  0  1  0  0  0  0  0  0
  162.9490  206.4380  150.0950 O   0  0  0  0  0  0  0  0  0  0  0  0
  161.9040  205.8000  149.4050 C   0  0  2  0  0  3  0  0  0  0  0  0
  161.0990  208.7000  150.7330 C   0  0  1  0  0  3  0  0  0  0  0  0
  160.9390  206.8800  153.9700 C   0  0  0  0  0  0  0  0  0  0  0  0
  160.3480  207.0740  155.3350 C   0  0  0  0  0  2  0  0  0  0  0  0
  161.3460  209.2760  153.7250 C   0  0  0  0  0  3  0  0  0  0  0  0
  161.4210  208.0490  153.1910 C   0  0  0  0  0  0  0  0  0  0  0  0
  160.7700  209.5490  155.0860 C   0  0  2  0  0  3  0  0  0  0  0  0
  160.9190  208.3280  155.9960 C   0  0  0  0  0  2  0  0  0  0  0  0
  160.9370  205.6570  153.4500 C   0  0  0  0  0  2  0  0  0  0  0  0
  159.3050  209.9610  154.9940 C   0  0  0  0  0  2  0  0  0  0  0  0
  157.7790  212.1360  156.6610 N   0  0  0  0  0  2  0  0  0  0  0  0
  159.1500  211.4260  154.5910 C   0  0  1  0  0  3  0  0  0  0  0  0
  158.8520  211.5290  153.1520 N   0  0  0  0  0  0  0  0  0  0  0  0
  157.9390  211.9890  155.2490 C   0  0  0  0  0  0  0  0  0  0  0  0
  157.0420  212.3270  154.3980 N   0  0  0  0  0  0  0  0  0  0  0  0
  157.5450  212.0490  153.1320 N   0  0  0  0  0  2  0  0  0  0  0  0
  155.4380  211.7880  157.2230 C   0  0  0  0  0  1  0  0  0  0  0  0
  156.6040  212.7520  157.2560 C   0  0  0  0  0  2  0  0  0  0  0  0
  159.7170  212.5660  152.6110 C   0  0  0  0  0  2  0  0  0  0  0  0
  159.9250  214.1120  151.1360 O   0  0  0  0  0  1  0  0  0  0  0  0
  159.1530  213.0940  151.4500 O   0  0  0  0  0  0  0  0  0  0  0  0
  162.2740  206.1510  147.0650 O   0  0  0  0  0  1  0  0  0  0  0  0
  162.4020  205.2020  148.0800 C   0  0  2  0  0  3  0  0  0  0  0  0
  160.5850  201.9930  147.9340 C   0  0  1  0  0  3  0  0  0  0  0  0
  161.7300  203.9100  147.7000 C   0  0  0  0  0  0  0  0  0  0  0  0
  161.7290  203.3800  146.4820 C   0  0  0  0  0  3  0  0  0  0  0  0
  161.0310  202.0520  146.5130 C   0  0  2  0  0  3  0  0  0  0  0  0
  161.1890  202.8500  150.0570 C   0  0  0  0  0  2  0  0  0  0  0  0
  161.1960  201.3380  150.2810 C   0  0  0  0  0  2  0  0  0  0  0  0
  160.2890  200.5350  148.9030 S   0  0  0  0  0  0  0  0  0  0  0  0
  161.0080  203.0300  148.5960 C   0  0  2  0  0  3  0  0  0  0  0  0
  159.9270  202.0750  145.6620 O   0  0  0  0  0  0  0  0  0  0  0  0
  160.0660  200.9300  144.8780 C   0  0  0  0  0  1  0  0  0  0  0  0
  1  7  1  6  0  0  0
  1  2  1  0  0  0  0
  1  9  1  0  0  0  0
  4 14  1  1  0  0  0
  5  4  1  0  0  0  0
  5  3  1  1  0  0  0
  6  4  1  0  0  0  0
  8  6  1  0  0  0  0
  9 31  1  6  0  0  0
  9  8  1  0  0  0  0
 10  2  1  6  0  0  0
 10  5  1  0  0  0  0
 10  4  1  0  0  0  0
 11 12  1  0  0  0  0
 12 16  1  0  0  0  0
 13 15  1  0  0  0  0
 14 13  2  0  0  0  0
 14 11  1  0  0  0  0
 15 18  1  6  0  0  0
 15 16  1  0  0  0  0
 17 11  2  0  0  0  0
 19 26  1  0  0  0  0
 20 18  1  1  0  0  0
 20 22  1  0  0  0  0
 21 20  1  0  0  0  0
 22 19  1  0  0  0  0
 23 22  2  0  0  0  0
 24 21  1  0  0  0  0
 24 23  1  0  0  0  0
 25 26  1  0  0  0  0
 27 21  1  0  0  0  0
 28 29  1  0  0  0  0
 29 27  1  0  0  0  0
 31 30  1  6  0  0  0
 32 39  1  0  0  0  0
 32 38  1  1  0  0  0
 33 31  1  0  0  0  0
 33 39  1  0  0  0  0
 34 35  1  0  0  0  0
 34 33  2  0  0  0  0
 35 40  1  6  0  0  0
 35 32  1  0  0  0  0
 36 37  1  0  0  0  0
 38 37  1  0  0  0  0
 39 36  1  1  0  0  0
 41 40  1  0  0  0  0
M  END
>  <MODEL>
6

>  <REMARK>
 VINA RESULT:      -4.2      4.511      9.932
  Name = 
  9 active torsions:
  status: ('A' for Active; 'I' for Inactive)
    1  A    between atoms: C_6  and  C_20
    2  A    between atoms: C_9  and  C_34
    3  A    between atoms: N_10  and  C_40
    4  A    between atoms: C_14  and  C_32
    5  A    between atoms: C_15  and  N_17
    6  A    between atoms: C_15  and  O_27
    7  A    between atoms: C_16  and  C_32
    8  A    between atoms: C_18  and  O_36
    9  A    between atoms: C_34  and  C_35
                            x       y       z     vdW  Elec       q    Type
                         _______ _______ _______ _____ _____    ______ ____

>  <TORSDO>
F 9

$$$$
=
 OpenBabel11072413273D

 41 46  0  0  1  0  0  0  0  0999 V2000
  162.3670  207.5360  149.4680 C   0  0  1  0  0  3  0  0  0  0  0  0
  163.0820  206.8740  150.6320 C   0  0  0  0  0  2  0  0  0  0  0  0
  162.3920  206.5780  154.2500 C   0  0  0  0  0  1  0  0  0  0  0  0
  161.1270  207.5800  152.2520 C   0  0  2  0  0  0  0  0  0  0  0  0
  161.9540  206.4110  152.8020 C   0  0  1  0  0  3  0  0  0  0  0  0
  160.0800  207.2400  151.1700 C   0  0  0  0  0  2  0  0  0  0  0  0
  163.2800  207.6870  148.2600 C   0  0  0  0  0  1  0  0  0  0  0  0
  160.4900  206.2160  150.3120 O   0  0  0  0  0  0  0  0  0  0  0  0
  161.0180  206.8450  149.1710 C   0  0  2  0  0  3  0  0  0  0  0  0
  162.6390  207.4860  151.9610 C   0  0  1  0  0  3  0  0  0  0  0  0
  160.1600  208.4630  154.5200 C   0  0  0  0  0  0  0  0  0  0  0  0
  159.6960  209.6110  155.3670 C   0  0  0  0  0  2  0  0  0  0  0  0
  160.8810  209.9720  152.7400 C   0  0  0  0  0  3  0  0  0  0  0  0
  160.7470  208.7130  153.1790 C   0  0  0  0  0  0  0  0  0  0  0  0
  160.4420  211.1720  153.5310 C   0  0  2  0  0  3  0  0  0  0  0  0
  160.4790  210.8800  155.0320 C   0  0  0  0  0  2  0  0  0  0  0  0
  159.9530  207.2280  154.9640 C   0  0  0  0  0  2  0  0  0  0  0  0
  159.0460  211.6260  153.1180 C   0  0  0  0  0  2  0  0  0  0  0  0
  157.6050  213.7570  154.9130 N   0  0  0  0  0  2  0  0  0  0  0  0
  158.9960  213.1250  152.8320 C   0  0  1  0  0  3  0  0  0  0  0  0
  158.7540  213.3610  151.3980 N   0  0  0  0  0  0  0  0  0  0  0  0
  157.8020  213.7120  153.4990 C   0  0  0  0  0  0  0  0  0  0  0  0
  156.9570  214.1740  152.6540 N   0  0  0  0  0  0  0  0  0  0  0  0
  157.4830  213.9650  151.3840 N   0  0  0  0  0  2  0  0  0  0  0  0
  156.2550  213.8840  156.9330 C   0  0  0  0  0  1  0  0  0  0  0  0
  156.4520  214.3990  155.5230 C   0  0  0  0  0  2  0  0  0  0  0  0
  159.6990  214.3800  150.9670 C   0  0  0  0  0  2  0  0  0  0  0  0
  160.7270  212.9530  149.7370 O   0  0  0  0  0  1  0  0  0  0  0  0
  160.1170  214.1160  149.6630 O   0  0  0  0  0  0  0  0  0  0  0  0
  160.0250  206.1990  147.0890 O   0  0  0  0  0  1  0  0  0  0  0  0
  161.0530  205.8800  147.9770 C   0  0  2  0  0  3  0  0  0  0  0  0
  161.2060  202.1970  148.1770 C   0  0  1  0  0  3  0  0  0  0  0  0
  161.0010  204.4250  148.3630 C   0  0  0  0  0  0  0  0  0  0  0  0
  160.5350  203.9580  149.5150 C   0  0  0  0  0  3  0  0  0  0  0  0
  160.5680  202.4580  149.5000 C   0  0  2  0  0  3  0  0  0  0  0  0
  161.4600  203.2220  146.0580 C   0  0  0  0  0  2  0  0  0  0  0  0
  160.8310  201.8710  145.7160 C   0  0  0  0  0  2  0  0  0  0  0  0
  161.0090  200.7550  147.1600 S   0  0  0  0  0  0  0  0  0  0  0  0
  161.4180  203.3100  147.5370 C   0  0  2  0  0  3  0  0  0  0  0  0
  161.3840  201.9890  150.5280 O   0  0  0  0  0  0  0  0  0  0  0  0
  161.2050  202.9070  151.5630 C   0  0  0  0  0  1  0  0  0  0  0  0
  1  7  1  6  0  0  0
  1  2  1  0  0  0  0
  4  5  1  0  0  0  0
  4 14  1  1  0  0  0
  5  3  1  1  0  0  0
  6  4  1  0  0  0  0
  8  6  1  0  0  0  0
  9 31  1  6  0  0  0
  9  1  1  0  0  0  0
  9  8  1  0  0  0  0
 10  2  1  6  0  0  0
 10  4  1  0  0  0  0
 10  5  1  0  0  0  0
 11 17  2  0  0  0  0
 11 12  1  0  0  0  0
 13 14  2  0  0  0  0
 13 15  1  0  0  0  0
 14 11  1  0  0  0  0
 15 18  1  6  0  0  0
 15 16  1  0  0  0  0
 16 12  1  0  0  0  0
 19 26  1  0  0  0  0
 20 18  1  6  0  0  0
 20 22  1  0  0  0  0
 21 20  1  0  0  0  0
 22 19  1  0  0  0  0
 23 22  2  0  0  0  0
 24 21  1  0  0  0  0
 24 23  1  0  0  0  0
 26 25  1  0  0  0  0
 27 21  1  0  0  0  0
 29 28  1  0  0  0  0
 29 27  1  0  0  0  0
 31 30  1  6  0  0  0
 31 33  1  0  0  0  0
 32 38  1  6  0  0  0
 32 35  1  0  0  0  0
 33 34  2  0  0  0  0
 35 34  1  0  0  0  0
 35 40  1  1  0  0  0
 37 36  1  0  0  0  0
 37 38  1  0  0  0  0
 39 36  1  6  0  0  0
 39 32  1  0  0  0  0
 39 33  1  0  0  0  0
 40 41  1  0  0  0  0
M  END
>  <MODEL>
7

>  <REMARK>
 VINA RESULT:      -4.2      4.595      9.728
  Name = 
  9 active torsions:
  status: ('A' for Active; 'I' for Inactive)
    1  A    between atoms: C_6  and  C_20
    2  A    between atoms: C_9  and  C_34
    3  A    between atoms: N_10  and  C_40
    4  A    between atoms: C_14  and  C_32
    5  A    between atoms: C_15  and  N_17
    6  A    between atoms: C_15  and  O_27
    7  A    between atoms: C_16  and  C_32
    8  A    between atoms: C_18  and  O_36
    9  A    between atoms: C_34  and  C_35
                            x       y       z     vdW  Elec       q    Type
                         _______ _______ _______ _____ _____    ______ ____

>  <TORSDO>
F 9

$$$$
