=
 OpenBabel11072410173D

 37 39  0  0  1  0  0  0  0  0999 V2000
  161.9190  210.2660  152.8350 C   0  0  0  0  0  3  0  0  0  0  0  0
  162.0780  208.1990  151.6400 C   0  0  0  0  0  0  0  0  0  0  0  0
  161.2410  206.1290  152.7710 C   0  0  0  0  0  3  0  0  0  0  0  0
  162.2050  209.6230  151.7410 N   0  0  0  0  0  0  0  0  0  0  0  0
  161.3780  207.4580  152.7220 C   0  0  0  0  0  0  0  0  0  0  0  0
  161.5140  209.5360  154.0890 C   0  0  2  0  0  3  0  0  0  0  0  0
  162.5330  207.6110  150.6230 O   0  0  0  0  0  0  0  0  0  0  0  0
  160.7050  208.2720  153.7850 C   0  0  0  0  0  2  0  0  0  0  0  0
  160.7920  210.4570  155.0670 C   0  0  0  0  0  2  0  0  0  0  0  0
  159.4520  209.8850  155.5190 C   0  0  0  0  0  2  0  0  0  0  0  0
  157.9760  213.2900  154.5230 C   0  0  0  0  0  0  0  0  0  0  0  0
  155.2740  213.4010  157.0700 F   0  0  0  0  0  0  0  0  0  0  0  0
  158.6000  214.2610  154.1300 O   0  0  0  0  0  0  0  0  0  0  0  0
  158.4430  211.6940  156.8900 C   0  0  0  0  0  3  0  0  0  0  0  0
  158.4010  210.9800  155.5640 C   0  0  1  0  0  3  0  0  0  0  0  0
  156.5880  213.5050  155.0790 C   0  0  1  0  0  3  0  0  0  0  0  0
  155.5420  213.2170  154.0170 C   0  0  0  0  0  1  0  0  0  0  0  0
  158.6060  211.9250  154.3740 C   0  0  0  0  0  2  0  0  0  0  0  0
  156.2590  212.7330  156.3670 C   0  0  1  0  0  3  0  0  0  0  0  0
  157.4490  212.5110  157.2610 C   0  0  0  0  0  3  0  0  0  0  0  0
  161.8140  205.1750  151.7780 C   0  0  0  0  0  2  0  0  0  0  0  0
  160.7070  204.6670  150.8780 C   0  0  0  0  0  2  0  0  0  0  0  0
  161.2550  203.6640  149.8730 C   0  0  2  0  0  3  0  0  0  0  0  0
  161.5700  205.5430  148.2750 C   0  0  0  0  0  3  0  0  0  0  0  0
  161.2680  204.2600  148.4930 C   0  0  0  0  0  3  0  0  0  0  0  0
  161.7240  205.5560  143.2880 O   0  0  0  0  0  1  0  0  0  0  0  0
  161.5540  206.1060  146.8930 C   0  0  1  0  0  3  0  0  0  0  0  0
  162.4650  205.0140  145.7540 S   0  0  0  0  0  0  0  0  0  0  0  0
  160.2420  206.2980  144.9890 C   0  0  0  0  0  2  0  0  0  0  0  0
  160.1790  206.2320  146.4370 N   0  0  0  0  0  2  0  0  0  0  0  0
  161.1610  205.1990  144.5130 C   0  0  1  0  0  3  0  0  0  0  0  0
  160.4520  202.3640  149.9160 C   0  0  0  0  0  2  0  0  0  0  0  0
  160.8410  201.4580  148.7990 C   0  0  0  0  0  0  0  0  0  0  0  0
  161.8230  200.6800  148.9400 O   0  0  0  0  0  0  0  0  0  0  0  0
  160.1310  201.5080  147.5980 O   0  0  0  0  0  0  0  0  0  0  0  0
  160.7670  201.6710  146.3710 C   0  0  0  0  0  3  0  0  0  0  0  0
  160.1420  201.3410  145.2530 C   0  0  0  0  0  2  0  0  0  0  0  0
  1  6  1  0  0  0  0
  2  4  1  0  0  0  0
  2  5  1  0  0  0  0
  4  1  2  0  0  0  0
  5  3  2  0  0  0  0
  5  8  1  0  0  0  0
  6  9  1  1  0  0  0
  7  2  2  0  0  0  0
  8  6  1  0  0  0  0
  9 10  1  0  0  0  0
 11 16  1  0  0  0  0
 13 11  2  0  0  0  0
 14 20  2  0  0  0  0
 15 10  1  1  0  0  0
 15 14  1  0  0  0  0
 16 17  1  6  0  0  0
 16 19  1  0  0  0  0
 18 11  1  0  0  0  0
 18 15  1  0  0  0  0
 19 12  1  1  0  0  0
 19 20  1  0  0  0  0
 21  3  1  0  0  0  0
 22 21  1  0  0  0  0
 23 25  1  6  0  0  0
 23 32  1  0  0  0  0
 23 22  1  0  0  0  0
 24 25  2  0  0  0  0
 27 24  1  1  0  0  0
 28 27  1  0  0  0  0
 29 30  1  0  0  0  0
 30 27  1  0  0  0  0
 31 26  1  6  0  0  0
 31 29  1  0  0  0  0
 31 28  1  0  0  0  0
 33 34  2  0  0  0  0
 33 32  1  0  0  0  0
 35 33  1  0  0  0  0
 36 35  1  0  0  0  0
 37 36  2  0  0  0  0
M  END
>  <MODEL>
1

>  <REMARK>
 VINA RESULT:      -8.4      0.000      0.000
  Name = 
  12 active torsions:
  status: ('A' for Active; 'I' for Inactive)
    1  A    between atoms: C_2  and  C_29
    2  A    between atoms: C_2  and  C_34
    3  A    between atoms: O_6  and  C_7
    4  A    between atoms: O_6  and  C_17
    5  A    between atoms: C_8  and  C_17
    6  A    between atoms: C_8  and  C_29
    7  A    between atoms: C_9  and  C_28
    8  A    between atoms: C_11  and  C_15
    9  A    between atoms: C_11  and  C_16
   10  A    between atoms: C_15  and  C_24
   11  A    between atoms: C_19  and  C_34
   12  A    between atoms: C_29  and  C_35
                            x       y       z     vdW  Elec       q    Type
                         _______ _______ _______ _____ _____    ______ ____

>  <TORSDO>
F 12

$$$$
=
 OpenBabel11072410173D

 37 39  0  0  1  0  0  0  0  0999 V2000
  161.5940  205.8190  153.1930 C   0  0  0  0  0  3  0  0  0  0  0  0
  160.7930  207.9560  153.9110 C   0  0  0  0  0  0  0  0  0  0  0  0
  160.6170  209.7730  152.1980 C   0  0  0  0  0  3  0  0  0  0  0  0
  161.0930  206.5720  154.1280 N   0  0  0  0  0  0  0  0  0  0  0  0
  160.8250  208.4940  152.5250 C   0  0  0  0  0  0  0  0  0  0  0  0
  161.9640  206.3840  151.8470 C   0  0  2  0  0  3  0  0  0  0  0  0
  160.4780  208.6790  154.8940 O   0  0  0  0  0  0  0  0  0  0  0  0
  161.0180  207.5080  151.4130 C   0  0  0  0  0  2  0  0  0  0  0  0
  162.0770  205.2910  150.7890 C   0  0  0  0  0  2  0  0  0  0  0  0
  160.7300  204.9500  150.1620 C   0  0  0  0  0  2  0  0  0  0  0  0
  162.4000  204.5220  146.7280 C   0  0  0  0  0  0  0  0  0  0  0  0
  160.0930  206.7050  144.8000 F   0  0  0  0  0  0  0  0  0  0  0  0
  163.5950  204.4150  146.5140 O   0  0  0  0  0  0  0  0  0  0  0  0
  161.0270  206.5420  148.2780 C   0  0  0  0  0  3  0  0  0  0  0  0
  160.7990  205.1000  148.6530 C   0  0  1  0  0  3  0  0  0  0  0  0
  161.5010  204.9450  145.5890 C   0  0  1  0  0  3  0  0  0  0  0  0
  160.8480  203.7330  144.9510 C   0  0  0  0  0  1  0  0  0  0  0  0
  161.8830  204.1650  148.1020 C   0  0  0  0  0  2  0  0  0  0  0  0
  160.4350  205.9970  145.9380 C   0  0  1  0  0  3  0  0  0  0  0  0
  160.8620  206.9570  147.0160 C   0  0  0  0  0  3  0  0  0  0  0  0
  160.3740  210.8740  153.1750 C   0  0  0  0  0  2  0  0  0  0  0  0
  158.8830  211.1220  153.2860 C   0  0  0  0  0  2  0  0  0  0  0  0
  158.5790  212.6060  153.1570 C   0  0  2  0  0  3  0  0  0  0  0  0
  158.4520  213.3470  150.7870 C   0  0  0  0  0  3  0  0  0  0  0  0
  159.1770  213.1560  151.8910 C   0  0  0  0  0  3  0  0  0  0  0  0
  161.4270  213.4080  146.7820 O   0  0  0  0  0  1  0  0  0  0  0  0
  159.0820  213.8740  149.5420 C   0  0  1  0  0  3  0  0  0  0  0  0
  160.7310  213.1350  149.3050 S   0  0  0  0  0  0  0  0  0  0  0  0
  159.1060  213.6310  147.2340 C   0  0  0  0  0  2  0  0  0  0  0  0
  158.2450  213.5490  148.3980 N   0  0  0  0  0  2  0  0  0  0  0  0
  160.3830  212.8880  147.5470 C   0  0  1  0  0  3  0  0  0  0  0  0
  159.0720  213.3670  154.3880 C   0  0  0  0  0  2  0  0  0  0  0  0
  158.3670  212.9080  155.6190 C   0  0  0  0  0  0  0  0  0  0  0  0
  159.0380  212.5520  156.6250 O   0  0  0  0  0  0  0  0  0  0  0  0
  156.9730  212.8470  155.6270 O   0  0  0  0  0  0  0  0  0  0  0  0
  156.2850  211.7440  156.1240 C   0  0  0  0  0  3  0  0  0  0  0  0
  155.7920  210.8420  155.2910 C   0  0  0  0  0  2  0  0  0  0  0  0
  1  4  2  0  0  0  0
  2  4  1  0  0  0  0
  2  7  2  0  0  0  0
  3  5  2  0  0  0  0
  3 21  1  0  0  0  0
  5  2  1  0  0  0  0
  6  9  1  6  0  0  0
  6  1  1  0  0  0  0
  8  6  1  0  0  0  0
  8  5  1  0  0  0  0
 10  9  1  0  0  0  0
 11 18  1  0  0  0  0
 13 11  2  0  0  0  0
 14 15  1  0  0  0  0
 15 10  1  1  0  0  0
 16 17  1  1  0  0  0
 16 19  1  0  0  0  0
 16 11  1  0  0  0  0
 18 15  1  0  0  0  0
 19 12  1  6  0  0  0
 19 20  1  0  0  0  0
 20 14  2  0  0  0  0
 21 22  1  0  0  0  0
 23 25  1  6  0  0  0
 23 22  1  0  0  0  0
 23 32  1  0  0  0  0
 24 25  2  0  0  0  0
 27 24  1  1  0  0  0
 28 27  1  0  0  0  0
 29 31  1  0  0  0  0
 29 30  1  0  0  0  0
 30 27  1  0  0  0  0
 31 26  1  6  0  0  0
 31 28  1  0  0  0  0
 32 33  1  0  0  0  0
 33 35  1  0  0  0  0
 33 34  2  0  0  0  0
 35 36  1  0  0  0  0
 37 36  2  0  0  0  0
M  END
>  <MODEL>
2

>  <REMARK>
 VINA RESULT:      -7.8      4.147     10.018
  Name = 
  12 active torsions:
  status: ('A' for Active; 'I' for Inactive)
    1  A    between atoms: C_2  and  C_29
    2  A    between atoms: C_2  and  C_34
    3  A    between atoms: O_6  and  C_7
    4  A    between atoms: O_6  and  C_17
    5  A    between atoms: C_8  and  C_17
    6  A    between atoms: C_8  and  C_29
    7  A    between atoms: C_9  and  C_28
    8  A    between atoms: C_11  and  C_15
    9  A    between atoms: C_11  and  C_16
   10  A    between atoms: C_15  and  C_24
   11  A    between atoms: C_19  and  C_34
   12  A    between atoms: C_29  and  C_35
                            x       y       z     vdW  Elec       q    Type
                         _______ _______ _______ _____ _____    ______ ____

>  <TORSDO>
F 12

$$$$
=
 OpenBabel11072410173D

 37 39  0  0  1  0  0  0  0  0999 V2000
  161.1030  206.2250  152.6150 C   0  0  0  0  0  3  0  0  0  0  0  0
  161.1550  208.5230  151.9500 C   0  0  0  0  0  0  0  0  0  0  0  0
  161.9080  209.0490  149.6220 C   0  0  0  0  0  3  0  0  0  0  0  0
  160.8500  207.4730  152.8770 N   0  0  0  0  0  0  0  0  0  0  0  0
  161.5490  208.1690  150.5610 C   0  0  0  0  0  0  0  0  0  0  0  0
  161.8120  205.8200  151.3480 C   0  0  2  0  0  3  0  0  0  0  0  0
  161.0530  209.7220  152.3230 O   0  0  0  0  0  0  0  0  0  0  0  0
  161.4480  206.7260  150.1680 C   0  0  0  0  0  2  0  0  0  0  0  0
  161.5900  204.3450  151.0270 C   0  0  0  0  0  2  0  0  0  0  0  0
  160.2710  204.1020  150.3020 C   0  0  0  0  0  2  0  0  0  0  0  0
  161.0390  201.3680  147.7130 C   0  0  0  0  0  0  0  0  0  0  0  0
  161.7270  203.6150  144.8370 F   0  0  0  0  0  0  0  0  0  0  0  0
  161.6150  200.3140  147.9250 O   0  0  0  0  0  0  0  0  0  0  0  0
  161.8820  204.0460  148.4120 C   0  0  0  0  0  3  0  0  0  0  0  0
  160.5290  203.5920  148.8950 C   0  0  1  0  0  3  0  0  0  0  0  0
  160.9750  201.8800  146.2940 C   0  0  1  0  0  3  0  0  0  0  0  0
  159.6460  201.5140  145.6590 C   0  0  0  0  0  1  0  0  0  0  0  0
  160.3730  202.0660  148.8760 C   0  0  0  0  0  2  0  0  0  0  0  0
  161.2510  203.3820  146.1130 C   0  0  1  0  0  3  0  0  0  0  0  0
  162.2180  203.9440  147.1200 C   0  0  0  0  0  3  0  0  0  0  0  0
  162.0240  210.5210  149.8330 C   0  0  0  0  0  2  0  0  0  0  0  0
  162.3540  211.1890  148.5130 C   0  0  0  0  0  2  0  0  0  0  0  0
  161.5750  212.4870  148.3640 C   0  0  2  0  0  3  0  0  0  0  0  0
  160.0420  213.8520  149.7680 C   0  0  0  0  0  3  0  0  0  0  0  0
  160.9510  212.8770  149.6750 C   0  0  0  0  0  3  0  0  0  0  0  0
  156.5850  214.2680  153.3410 O   0  0  0  0  0  1  0  0  0  0  0  0
  159.4580  214.2270  151.0890 C   0  0  1  0  0  3  0  0  0  0  0  0
  157.6550  214.4470  150.9440 S   0  0  0  0  0  0  0  0  0  0  0  0
  158.7630  213.3480  153.1200 C   0  0  0  0  0  2  0  0  0  0  0  0
  159.7350  213.1770  152.0570 N   0  0  0  0  0  2  0  0  0  0  0  0
  157.4060  213.5330  152.4850 C   0  0  1  0  0  3  0  0  0  0  0  0
  160.5270  212.3630  147.2570 C   0  0  0  0  0  2  0  0  0  0  0  0
  161.0470  212.8960  145.9660 C   0  0  0  0  0  0  0  0  0  0  0  0
  162.0670  213.6370  145.9620 O   0  0  0  0  0  0  0  0  0  0  0  0
  160.3740  212.5950  144.7810 O   0  0  0  0  0  0  0  0  0  0  0  0
  161.0440  212.4310  143.5720 C   0  0  0  0  0  3  0  0  0  0  0  0
  160.4130  211.9110  142.5320 C   0  0  0  0  0  2  0  0  0  0  0  0
  1  4  2  0  0  0  0
  2  7  2  0  0  0  0
  2  4  1  0  0  0  0
  3 21  1  0  0  0  0
  3  5  2  0  0  0  0
  5  2  1  0  0  0  0
  6  9  1  6  0  0  0
  6  1  1  0  0  0  0
  8  5  1  0  0  0  0
  8  6  1  0  0  0  0
 10  9  1  0  0  0  0
 11 13  2  0  0  0  0
 11 18  1  0  0  0  0
 14 15  1  0  0  0  0
 15 10  1  1  0  0  0
 16 17  1  1  0  0  0
 16 11  1  0  0  0  0
 18 15  1  0  0  0  0
 19 12  1  6  0  0  0
 19 16  1  0  0  0  0
 19 20  1  0  0  0  0
 20 14  2  0  0  0  0
 22 21  1  0  0  0  0
 23 32  1  6  0  0  0
 23 22  1  0  0  0  0
 23 25  1  0  0  0  0
 25 24  2  0  0  0  0
 27 24  1  6  0  0  0
 27 30  1  0  0  0  0
 28 27  1  0  0  0  0
 28 31  1  0  0  0  0
 30 29  1  0  0  0  0
 31 29  1  0  0  0  0
 31 26  1  1  0  0  0
 33 32  1  0  0  0  0
 34 33  2  0  0  0  0
 35 33  1  0  0  0  0
 36 35  1  0  0  0  0
 37 36  2  0  0  0  0
M  END
>  <MODEL>
3

>  <REMARK>
 VINA RESULT:      -7.6      4.885     10.491
  Name = 
  12 active torsions:
  status: ('A' for Active; 'I' for Inactive)
    1  A    between atoms: C_2  and  C_29
    2  A    between atoms: C_2  and  C_34
    3  A    between atoms: O_6  and  C_7
    4  A    between atoms: O_6  and  C_17
    5  A    between atoms: C_8  and  C_17
    6  A    between atoms: C_8  and  C_29
    7  A    between atoms: C_9  and  C_28
    8  A    between atoms: C_11  and  C_15
    9  A    between atoms: C_11  and  C_16
   10  A    between atoms: C_15  and  C_24
   11  A    between atoms: C_19  and  C_34
   12  A    between atoms: C_29  and  C_35
                            x       y       z     vdW  Elec       q    Type
                         _______ _______ _______ _____ _____    ______ ____

>  <TORSDO>
F 12

$$$$
=
 OpenBabel11072410173D

 37 39  0  0  1  0  0  0  0  0999 V2000
  161.4200  206.5620  154.1350 C   0  0  0  0  0  3  0  0  0  0  0  0
  160.3910  208.7070  154.3820 C   0  0  0  0  0  0  0  0  0  0  0  0
  160.5250  210.2970  152.4540 C   0  0  0  0  0  3  0  0  0  0  0  0
  160.6930  207.3810  154.8350 N   0  0  0  0  0  0  0  0  0  0  0  0
  160.7080  209.0820  152.9800 C   0  0  0  0  0  0  0  0  0  0  0  0
  162.0570  206.9920  152.8390 C   0  0  2  0  0  3  0  0  0  0  0  0
  159.8340  209.5160  155.1730 O   0  0  0  0  0  0  0  0  0  0  0  0
  161.1850  207.9900  152.0710 C   0  0  0  0  0  2  0  0  0  0  0  0
  162.4490  205.7950  151.9790 C   0  0  0  0  0  2  0  0  0  0  0  0
  161.2390  204.9800  151.5350 C   0  0  0  0  0  2  0  0  0  0  0  0
  160.9290  205.5480  147.7470 C   0  0  0  0  0  0  0  0  0  0  0  0
  161.6400  202.0600  146.6820 F   0  0  0  0  0  0  0  0  0  0  0  0
  160.1450  206.2970  147.1900 O   0  0  0  0  0  0  0  0  0  0  0  0
  160.3710  203.5140  149.7270 C   0  0  0  0  0  3  0  0  0  0  0  0
  161.3850  204.5720  150.0800 C   0  0  1  0  0  3  0  0  0  0  0  0
  161.5520  204.4320  146.9410 C   0  0  1  0  0  3  0  0  0  0  0  0
  162.9350  204.8350  146.4600 C   0  0  0  0  0  1  0  0  0  0  0  0
  161.2760  205.8180  149.1920 C   0  0  0  0  0  2  0  0  0  0  0  0
  161.6130  203.0620  147.6350 C   0  0  1  0  0  3  0  0  0  0  0  0
  160.4760  202.8160  148.5890 C   0  0  0  0  0  3  0  0  0  0  0  0
  160.0250  211.4850  153.2060 C   0  0  0  0  0  2  0  0  0  0  0  0
  158.5530  211.6820  152.9040 C   0  0  0  0  0  2  0  0  0  0  0  0
  158.2860  213.1160  152.4710 C   0  0  2  0  0  3  0  0  0  0  0  0
  158.5660  213.4460  150.0220 C   0  0  0  0  0  3  0  0  0  0  0  0
  159.0950  213.4530  151.2490 C   0  0  0  0  0  3  0  0  0  0  0  0
  162.1830  212.8870  146.6310 O   0  0  0  0  0  1  0  0  0  0  0  0
  159.4030  213.7660  148.8290 C   0  0  1  0  0  3  0  0  0  0  0  0
  161.0650  213.0390  149.0080 S   0  0  0  0  0  0  0  0  0  0  0  0
  159.8210  213.1270  146.6380 C   0  0  0  0  0  2  0  0  0  0  0  0
  158.7720  213.2260  147.6350 N   0  0  0  0  0  2  0  0  0  0  0  0
  161.0210  212.4820  147.2870 C   0  0  1  0  0  3  0  0  0  0  0  0
  158.5680  214.0870  153.6170 C   0  0  0  0  0  2  0  0  0  0  0  0
  157.3840  214.2180  154.5120 C   0  0  0  0  0  0  0  0  0  0  0  0
  156.2490  214.4530  154.0140 O   0  0  0  0  0  0  0  0  0  0  0  0
  157.5540  214.1130  155.8930 O   0  0  0  0  0  0  0  0  0  0  0  0
  157.1600  212.9820  156.6020 C   0  0  0  0  0  3  0  0  0  0  0  0
  157.9540  211.9250  156.6540 C   0  0  0  0  0  2  0  0  0  0  0  0
  1  4  2  0  0  0  0
  2  4  1  0  0  0  0
  2  7  2  0  0  0  0
  3  5  2  0  0  0  0
  3 21  1  0  0  0  0
  5  2  1  0  0  0  0
  6  9  1  6  0  0  0
  6  1  1  0  0  0  0
  8  6  1  0  0  0  0
  8  5  1  0  0  0  0
 10  9  1  0  0  0  0
 11 18  1  0  0  0  0
 13 11  2  0  0  0  0
 14 15  1  0  0  0  0
 15 10  1  1  0  0  0
 16 17  1  1  0  0  0
 16 19  1  0  0  0  0
 16 11  1  0  0  0  0
 18 15  1  0  0  0  0
 19 12  1  6  0  0  0
 19 20  1  0  0  0  0
 20 14  2  0  0  0  0
 22 21  1  0  0  0  0
 23 25  1  6  0  0  0
 23 22  1  0  0  0  0
 23 32  1  0  0  0  0
 24 25  2  0  0  0  0
 27 28  1  0  0  0  0
 27 24  1  1  0  0  0
 29 31  1  0  0  0  0
 29 30  1  0  0  0  0
 30 27  1  0  0  0  0
 31 26  1  6  0  0  0
 31 28  1  0  0  0  0
 32 33  1  0  0  0  0
 33 35  1  0  0  0  0
 34 33  2  0  0  0  0
 35 36  1  0  0  0  0
 36 37  2  0  0  0  0
M  END
>  <MODEL>
4

>  <REMARK>
 VINA RESULT:      -7.5      4.349     10.110
  Name = 
  12 active torsions:
  status: ('A' for Active; 'I' for Inactive)
    1  A    between atoms: C_2  and  C_29
    2  A    between atoms: C_2  and  C_34
    3  A    between atoms: O_6  and  C_7
    4  A    between atoms: O_6  and  C_17
    5  A    between atoms: C_8  and  C_17
    6  A    between atoms: C_8  and  C_29
    7  A    between atoms: C_9  and  C_28
    8  A    between atoms: C_11  and  C_15
    9  A    between atoms: C_11  and  C_16
   10  A    between atoms: C_15  and  C_24
   11  A    between atoms: C_19  and  C_34
   12  A    between atoms: C_29  and  C_35
                            x       y       z     vdW  Elec       q    Type
                         _______ _______ _______ _____ _____    ______ ____

>  <TORSDO>
F 12

$$$$
=
 OpenBabel11072410173D

 37 39  0  0  1  0  0  0  0  0999 V2000
  160.9240  209.7420  153.9360 C   0  0  0  0  0  3  0  0  0  0  0  0
  161.1170  207.3870  153.5600 C   0  0  0  0  0  0  0  0  0  0  0  0
  160.7590  206.5430  151.2310 C   0  0  0  0  0  3  0  0  0  0  0  0
  161.2130  208.5560  154.3840 N   0  0  0  0  0  0  0  0  0  0  0  0
  160.9160  207.5500  152.0960 C   0  0  0  0  0  0  0  0  0  0  0  0
  160.3910  209.9440  152.5420 C   0  0  2  0  0  3  0  0  0  0  0  0
  161.2370  206.2490  154.0890 O   0  0  0  0  0  0  0  0  0  0  0  0
  160.9840  208.9420  151.5470 C   0  0  0  0  0  2  0  0  0  0  0  0
  160.5660  211.3860  152.0760 C   0  0  0  0  0  2  0  0  0  0  0  0
  161.5350  211.5030  150.9050 C   0  0  0  0  0  2  0  0  0  0  0  0
  161.4970  213.3460  147.5340 C   0  0  0  0  0  0  0  0  0  0  0  0
  157.8760  214.1730  147.4830 F   0  0  0  0  0  0  0  0  0  0  0  0
  162.3790  214.0620  147.0920 O   0  0  0  0  0  0  0  0  0  0  0  0
  160.2210  213.4610  150.1270 C   0  0  0  0  0  3  0  0  0  0  0  0
  160.8510  212.1550  149.7170 C   0  0  1  0  0  3  0  0  0  0  0  0
  160.1040  213.4880  146.9670 C   0  0  1  0  0  3  0  0  0  0  0  0
  159.8520  212.4290  145.9090 C   0  0  0  0  0  1  0  0  0  0  0  0
  161.8650  212.3180  148.5780 C   0  0  0  0  0  2  0  0  0  0  0  0
  158.9630  213.4890  147.9960 C   0  0  1  0  0  3  0  0  0  0  0  0
  159.3470  214.0820  149.3250 C   0  0  0  0  0  3  0  0  0  0  0  0
  160.7050  205.1000  151.6030 C   0  0  0  0  0  2  0  0  0  0  0  0
  161.9210  204.3930  151.0380 C   0  0  0  0  0  2  0  0  0  0  0  0
  161.5110  203.4210  149.9430 C   0  0  2  0  0  3  0  0  0  0  0  0
  162.1110  205.1520  148.2610 C   0  0  0  0  0  3  0  0  0  0  0  0
  161.3140  204.1490  148.6420 C   0  0  0  0  0  3  0  0  0  0  0  0
  161.4860  205.7310  143.3450 O   0  0  0  0  0  1  0  0  0  0  0  0
  161.8740  205.8660  146.9730 C   0  0  1  0  0  3  0  0  0  0  0  0
  162.6080  204.9350  145.5880 S   0  0  0  0  0  0  0  0  0  0  0  0
  160.2800  206.2340  145.3270 C   0  0  0  0  0  2  0  0  0  0  0  0
  160.4430  206.0040  146.7500 N   0  0  0  0  0  2  0  0  0  0  0  0
  161.1250  205.2220  144.5920 C   0  0  1  0  0  3  0  0  0  0  0  0
  160.2560  202.6480  150.3490 C   0  0  0  0  0  2  0  0  0  0  0  0
  160.0260  201.4870  149.4440 C   0  0  0  0  0  0  0  0  0  0  0  0
  158.8520  201.2030  149.0800 O   0  0  0  0  0  0  0  0  0  0  0  0
  161.1110  200.7080  149.0390 O   0  0  0  0  0  0  0  0  0  0  0  0
  161.3660  200.4370  147.6980 C   0  0  0  0  0  3  0  0  0  0  0  0
  160.9940  201.3000  146.7670 C   0  0  0  0  0  2  0  0  0  0  0  0
  1  4  2  0  0  0  0
  2  7  2  0  0  0  0
  2  4  1  0  0  0  0
  3 21  1  0  0  0  0
  3  5  2  0  0  0  0
  5  2  1  0  0  0  0
  6  9  1  6  0  0  0
  6  1  1  0  0  0  0
  8  5  1  0  0  0  0
  8  6  1  0  0  0  0
 10  9  1  0  0  0  0
 11 18  1  0  0  0  0
 13 11  2  0  0  0  0
 15 14  1  0  0  0  0
 15 10  1  1  0  0  0
 16 17  1  6  0  0  0
 16 11  1  0  0  0  0
 16 19  1  0  0  0  0
 18 15  1  0  0  0  0
 19 12  1  6  0  0  0
 19 20  1  0  0  0  0
 20 14  2  0  0  0  0
 22 21  1  0  0  0  0
 23 25  1  6  0  0  0
 23 32  1  0  0  0  0
 23 22  1  0  0  0  0
 24 25  2  0  0  0  0
 27 24  1  1  0  0  0
 28 27  1  0  0  0  0
 29 30  1  0  0  0  0
 30 27  1  0  0  0  0
 31 26  1  6  0  0  0
 31 29  1  0  0  0  0
 31 28  1  0  0  0  0
 33 32  1  0  0  0  0
 34 33  2  0  0  0  0
 35 33  1  0  0  0  0
 36 35  1  0  0  0  0
 37 36  2  0  0  0  0
M  END
>  <MODEL>
5

>  <REMARK>
 VINA RESULT:      -7.3      3.532      4.593
  Name = 
  12 active torsions:
  status: ('A' for Active; 'I' for Inactive)
    1  A    between atoms: C_2  and  C_29
    2  A    between atoms: C_2  and  C_34
    3  A    between atoms: O_6  and  C_7
    4  A    between atoms: O_6  and  C_17
    5  A    between atoms: C_8  and  C_17
    6  A    between atoms: C_8  and  C_29
    7  A    between atoms: C_9  and  C_28
    8  A    between atoms: C_11  and  C_15
    9  A    between atoms: C_11  and  C_16
   10  A    between atoms: C_15  and  C_24
   11  A    between atoms: C_19  and  C_34
   12  A    between atoms: C_29  and  C_35
                            x       y       z     vdW  Elec       q    Type
                         _______ _______ _______ _____ _____    ______ ____

>  <TORSDO>
F 12

$$$$
=
 OpenBabel11072410173D

 37 39  0  0  1  0  0  0  0  0999 V2000
  160.9750  206.4670  148.8750 C   0  0  0  0  0  3  0  0  0  0  0  0
  161.7060  208.5040  149.8950 C   0  0  0  0  0  0  0  0  0  0  0  0
  161.6220  208.6560  152.3910 C   0  0  0  0  0  3  0  0  0  0  0  0
  161.5090  207.6470  148.7630 N   0  0  0  0  0  0  0  0  0  0  0  0
  161.5200  207.9500  151.2610 C   0  0  0  0  0  0  0  0  0  0  0  0
  160.4560  205.9650  150.1970 C   0  0  2  0  0  3  0  0  0  0  0  0
  162.0620  209.6990  149.7080 O   0  0  0  0  0  0  0  0  0  0  0  0
  161.2910  206.4740  151.3760 C   0  0  0  0  0  2  0  0  0  0  0  0
  160.3160  204.4460  150.2070 C   0  0  0  0  0  2  0  0  0  0  0  0
  161.4900  203.7520  149.5250 C   0  0  0  0  0  2  0  0  0  0  0  0
  160.9550  201.4840  146.4700 C   0  0  0  0  0  0  0  0  0  0  0  0
  160.8510  204.1640  143.9000 F   0  0  0  0  0  0  0  0  0  0  0  0
  161.4360  200.3770  146.2990 O   0  0  0  0  0  0  0  0  0  0  0  0
  162.3100  203.9380  147.1880 C   0  0  0  0  0  3  0  0  0  0  0  0
  161.1700  203.4880  148.0650 C   0  0  1  0  0  3  0  0  0  0  0  0
  160.4570  202.2450  145.2640 C   0  0  1  0  0  3  0  0  0  0  0  0
  158.9550  202.0800  145.1180 C   0  0  0  0  0  1  0  0  0  0  0  0
  160.8330  202.0020  147.8840 C   0  0  0  0  0  2  0  0  0  0  0  0
  160.8320  203.7350  145.2140 C   0  0  1  0  0  3  0  0  0  0  0  0
  162.1530  204.0480  145.8630 C   0  0  0  0  0  3  0  0  0  0  0  0
  161.8820  210.1240  152.4590 C   0  0  0  0  0  2  0  0  0  0  0  0
  161.4230  210.6500  153.8050 C   0  0  0  0  0  2  0  0  0  0  0  0
  160.0720  211.3370  153.6750 C   0  0  2  0  0  3  0  0  0  0  0  0
  158.9240  212.7200  151.9570 C   0  0  0  0  0  3  0  0  0  0  0  0
  160.0590  212.2450  152.4770 C   0  0  0  0  0  3  0  0  0  0  0  0
  160.0720  214.2020  147.3340 O   0  0  0  0  0  1  0  0  0  0  0  0
  158.9470  213.6030  150.7550 C   0  0  1  0  0  3  0  0  0  0  0  0
  160.4540  213.3020  149.7760 S   0  0  0  0  0  0  0  0  0  0  0  0
  158.1030  213.8220  148.6050 C   0  0  0  0  0  2  0  0  0  0  0  0
  157.7800  213.3300  149.9310 N   0  0  0  0  0  2  0  0  0  0  0  0
  159.4850  213.3290  148.2490 C   0  0  1  0  0  3  0  0  0  0  0  0
  159.7270  212.0930  154.9580 C   0  0  0  0  0  2  0  0  0  0  0  0
  158.7230  211.3460  155.7670 C   0  0  0  0  0  0  0  0  0  0  0  0
  159.0310  210.2310  156.2690 O   0  0  0  0  0  0  0  0  0  0  0  0
  157.4410  211.8760  155.9270 O   0  0  0  0  0  0  0  0  0  0  0  0
  156.4490  211.7120  154.9650 C   0  0  0  0  0  3  0  0  0  0  0  0
  155.9490  212.7680  154.3450 C   0  0  0  0  0  2  0  0  0  0  0  0
  1  6  1  0  0  0  0
  2  5  1  0  0  0  0
  3 21  1  0  0  0  0
  4  1  2  0  0  0  0
  4  2  1  0  0  0  0
  5  8  1  0  0  0  0
  5  3  2  0  0  0  0
  6  9  1  6  0  0  0
  6  8  1  0  0  0  0
  7  2  2  0  0  0  0
 10  9  1  0  0  0  0
 11 18  1  0  0  0  0
 13 11  2  0  0  0  0
 14 15  1  0  0  0  0
 15 10  1  1  0  0  0
 16 17  1  1  0  0  0
 16 11  1  0  0  0  0
 18 15  1  0  0  0  0
 19 12  1  6  0  0  0
 19 16  1  0  0  0  0
 19 20  1  0  0  0  0
 20 14  2  0  0  0  0
 21 22  1  0  0  0  0
 23 25  1  6  0  0  0
 23 22  1  0  0  0  0
 23 32  1  0  0  0  0
 24 25  2  0  0  0  0
 27 24  1  1  0  0  0
 28 27  1  0  0  0  0
 29 30  1  0  0  0  0
 30 27  1  0  0  0  0
 31 26  1  6  0  0  0
 31 29  1  0  0  0  0
 31 28  1  0  0  0  0
 32 33  1  0  0  0  0
 33 35  1  0  0  0  0
 33 34  2  0  0  0  0
 36 35  1  0  0  0  0
 37 36  2  0  0  0  0
M  END
>  <MODEL>
6

>  <REMARK>
 VINA RESULT:      -7.0      4.190     10.600
  Name = 
  12 active torsions:
  status: ('A' for Active; 'I' for Inactive)
    1  A    between atoms: C_2  and  C_29
    2  A    between atoms: C_2  and  C_34
    3  A    between atoms: O_6  and  C_7
    4  A    between atoms: O_6  and  C_17
    5  A    between atoms: C_8  and  C_17
    6  A    between atoms: C_8  and  C_29
    7  A    between atoms: C_9  and  C_28
    8  A    between atoms: C_11  and  C_15
    9  A    between atoms: C_11  and  C_16
   10  A    between atoms: C_15  and  C_24
   11  A    between atoms: C_19  and  C_34
   12  A    between atoms: C_29  and  C_35
                            x       y       z     vdW  Elec       q    Type
                         _______ _______ _______ _____ _____    ______ ____

>  <TORSDO>
F 12

$$$$
=
 OpenBabel11072410173D

 37 39  0  0  1  0  0  0  0  0999 V2000
  161.5010  210.7360  153.7910 C   0  0  0  0  0  3  0  0  0  0  0  0
  161.9590  209.0360  152.1710 C   0  0  0  0  0  0  0  0  0  0  0  0
  161.3010  206.6860  152.7260 C   0  0  0  0  0  3  0  0  0  0  0  0
  161.9190  210.4010  152.6060 N   0  0  0  0  0  0  0  0  0  0  0  0
  161.2890  207.9960  152.9940 C   0  0  0  0  0  0  0  0  0  0  0  0
  161.1130  209.6940  154.8080 C   0  0  2  0  0  3  0  0  0  0  0  0
  162.5340  208.7530  151.0860 O   0  0  0  0  0  0  0  0  0  0  0  0
  160.4700  208.4660  154.1580 C   0  0  0  0  0  2  0  0  0  0  0  0
  160.2380  210.2820  155.9100 C   0  0  0  0  0  2  0  0  0  0  0  0
  158.7780  209.8620  155.7770 C   0  0  0  0  0  2  0  0  0  0  0  0
  157.8980  213.3990  154.5590 C   0  0  0  0  0  0  0  0  0  0  0  0
  154.9550  213.9420  156.7600 F   0  0  0  0  0  0  0  0  0  0  0  0
  158.6880  214.2670  154.2290 O   0  0  0  0  0  0  0  0  0  0  0  0
  157.8670  211.8290  156.9890 C   0  0  0  0  0  3  0  0  0  0  0  0
  157.8850  211.0860  155.6790 C   0  0  1  0  0  3  0  0  0  0  0  0
  156.4950  213.8110  154.9410 C   0  0  1  0  0  3  0  0  0  0  0  0
  155.5520  213.6300  153.7650 C   0  0  0  0  0  1  0  0  0  0  0  0
  158.3520  211.9590  154.5080 C   0  0  0  0  0  2  0  0  0  0  0  0
  155.9170  213.1290  156.1910 C   0  0  1  0  0  3  0  0  0  0  0  0
  156.9550  212.7810  157.2250 C   0  0  0  0  0  3  0  0  0  0  0  0
  162.0330  206.0550  151.5900 C   0  0  0  0  0  2  0  0  0  0  0  0
  161.2540  204.8500  151.1030 C   0  0  0  0  0  2  0  0  0  0  0  0
  160.5450  205.1670  149.7950 C   0  0  2  0  0  3  0  0  0  0  0  0
  160.8220  202.9900  148.6270 C   0  0  0  0  0  3  0  0  0  0  0  0
  161.0750  204.2990  148.6870 C   0  0  0  0  0  3  0  0  0  0  0  0
  161.7090  198.8850  145.9330 O   0  0  0  0  0  1  0  0  0  0  0  0
  161.3820  202.1550  147.5240 C   0  0  1  0  0  3  0  0  0  0  0  0
  161.5450  200.4210  148.0630 S   0  0  0  0  0  0  0  0  0  0  0  0
  160.8060  201.0500  145.5670 C   0  0  0  0  0  2  0  0  0  0  0  0
  160.4950  202.2150  146.3730 N   0  0  0  0  0  2  0  0  0  0  0  0
  160.8690  199.8530  146.4840 C   0  0  1  0  0  3  0  0  0  0  0  0
  160.6750  206.6520  149.4580 C   0  0  0  0  0  2  0  0  0  0  0  0
  161.4260  206.8480  148.1850 C   0  0  0  0  0  0  0  0  0  0  0  0
  162.6710  207.0400  148.2190 O   0  0  0  0  0  0  0  0  0  0  0  0
  160.7320  206.8510  146.9740 O   0  0  0  0  0  0  0  0  0  0  0  0
  161.0700  205.9980  145.9270 C   0  0  0  0  0  3  0  0  0  0  0  0
  160.3420  205.9870  144.8230 C   0  0  0  0  0  2  0  0  0  0  0  0
  1  6  1  0  0  0  0
  2  4  1  0  0  0  0
  2  5  1  0  0  0  0
  3  5  2  0  0  0  0
  4  1  2  0  0  0  0
  5  8  1  0  0  0  0
  6  9  1  1  0  0  0
  7  2  2  0  0  0  0
  8  6  1  0  0  0  0
 10  9  1  0  0  0  0
 11 16  1  0  0  0  0
 13 11  2  0  0  0  0
 14 20  2  0  0  0  0
 15 10  1  1  0  0  0
 15 14  1  0  0  0  0
 16 17  1  6  0  0  0
 16 19  1  0  0  0  0
 18 11  1  0  0  0  0
 18 15  1  0  0  0  0
 19 12  1  1  0  0  0
 19 20  1  0  0  0  0
 21  3  1  0  0  0  0
 22 21  1  0  0  0  0
 23 25  1  6  0  0  0
 23 22  1  0  0  0  0
 24 25  2  0  0  0  0
 27 28  1  0  0  0  0
 27 24  1  1  0  0  0
 29 30  1  0  0  0  0
 29 31  1  0  0  0  0
 30 27  1  0  0  0  0
 31 26  1  6  0  0  0
 31 28  1  0  0  0  0
 32 23  1  0  0  0  0
 33 34  2  0  0  0  0
 33 32  1  0  0  0  0
 35 33  1  0  0  0  0
 36 35  1  0  0  0  0
 37 36  2  0  0  0  0
M  END
>  <MODEL>
7

>  <REMARK>
 VINA RESULT:      -6.6      1.712      3.093
  Name = 
  12 active torsions:
  status: ('A' for Active; 'I' for Inactive)
    1  A    between atoms: C_2  and  C_29
    2  A    between atoms: C_2  and  C_34
    3  A    between atoms: O_6  and  C_7
    4  A    between atoms: O_6  and  C_17
    5  A    between atoms: C_8  and  C_17
    6  A    between atoms: C_8  and  C_29
    7  A    between atoms: C_9  and  C_28
    8  A    between atoms: C_11  and  C_15
    9  A    between atoms: C_11  and  C_16
   10  A    between atoms: C_15  and  C_24
   11  A    between atoms: C_19  and  C_34
   12  A    between atoms: C_29  and  C_35
                            x       y       z     vdW  Elec       q    Type
                         _______ _______ _______ _____ _____    ______ ____

>  <TORSDO>
F 12

$$$$
=
 OpenBabel11072410173D

 37 39  0  0  1  0  0  0  0  0999 V2000
  161.2050  205.4100  149.9890 C   0  0  0  0  0  3  0  0  0  0  0  0
  161.4080  207.1220  151.6480 C   0  0  0  0  0  0  0  0  0  0  0  0
  161.8990  209.4500  150.8720 C   0  0  0  0  0  3  0  0  0  0  0  0
  161.1190  205.7810  151.2320 N   0  0  0  0  0  0  0  0  0  0  0  0
  161.5770  208.1780  150.6170 C   0  0  0  0  0  0  0  0  0  0  0  0
  161.6950  206.3560  148.9220 C   0  0  2  0  0  3  0  0  0  0  0  0
  161.4810  207.3820  152.8790 O   0  0  0  0  0  0  0  0  0  0  0  0
  161.2760  207.8030  149.1980 C   0  0  0  0  0  2  0  0  0  0  0  0
  161.2810  205.8950  147.5280 C   0  0  0  0  0  2  0  0  0  0  0  0
  162.2950  204.9390  146.9090 C   0  0  0  0  0  2  0  0  0  0  0  0
  160.5190  201.6600  145.9820 C   0  0  0  0  0  0  0  0  0  0  0  0
  160.8850  199.9730  149.2710 F   0  0  0  0  0  0  0  0  0  0  0  0
  159.5540  201.5440  145.2460 O   0  0  0  0  0  0  0  0  0  0  0  0
  160.8460  203.4290  148.2470 C   0  0  0  0  0  3  0  0  0  0  0  0
  161.8790  203.4990  147.1530 C   0  0  1  0  0  3  0  0  0  0  0  0
  160.8200  200.5430  146.9540 C   0  0  1  0  0  3  0  0  0  0  0  0
  161.8920  199.6270  146.3920 C   0  0  0  0  0  1  0  0  0  0  0  0
  161.3900  202.8860  145.8350 C   0  0  0  0  0  2  0  0  0  0  0  0
  161.1940  200.9830  148.3790 C   0  0  1  0  0  3  0  0  0  0  0  0
  160.5260  202.2590  148.8140 C   0  0  0  0  0  3  0  0  0  0  0  0
  162.1940  209.9990  152.2280 C   0  0  0  0  0  2  0  0  0  0  0  0
  160.9620  210.7010  152.7600 C   0  0  0  0  0  2  0  0  0  0  0  0
  160.7880  210.4190  154.2450 C   0  0  2  0  0  3  0  0  0  0  0  0
  158.6980  211.7440  154.0070 C   0  0  0  0  0  3  0  0  0  0  0  0
  159.6300  211.2050  154.7960 C   0  0  0  0  0  3  0  0  0  0  0  0
  155.0080  212.9080  157.1580 O   0  0  0  0  0  1  0  0  0  0  0  0
  157.5730  212.5360  154.5870 C   0  0  1  0  0  3  0  0  0  0  0  0
  156.4360  211.4440  155.5020 S   0  0  0  0  0  0  0  0  0  0  0  0
  157.0060  213.9150  156.3640 C   0  0  0  0  0  2  0  0  0  0  0  0
  158.1050  213.5400  155.4940 N   0  0  0  0  0  2  0  0  0  0  0  0
  156.3430  212.6490  156.8490 C   0  0  1  0  0  3  0  0  0  0  0  0
  162.0810  210.7150  155.0050 C   0  0  0  0  0  2  0  0  0  0  0  0
  162.2530  209.7810  156.1540 C   0  0  0  0  0  0  0  0  0  0  0  0
  162.6810  210.2200  157.2560 O   0  0  0  0  0  0  0  0  0  0  0  0
  161.9700  208.4250  155.9820 O   0  0  0  0  0  0  0  0  0  0  0  0
  160.9300  207.7960  156.6610 C   0  0  0  0  0  3  0  0  0  0  0  0
  159.8520  207.4050  156.0010 C   0  0  0  0  0  2  0  0  0  0  0  0
  1  4  2  0  0  0  0
  2  7  2  0  0  0  0
  3 21  1  0  0  0  0
  4  2  1  0  0  0  0
  5  3  2  0  0  0  0
  5  2  1  0  0  0  0
  6  9  1  6  0  0  0
  6  8  1  0  0  0  0
  6  1  1  0  0  0  0
  8  5  1  0  0  0  0
 10  9  1  0  0  0  0
 11 16  1  0  0  0  0
 13 11  2  0  0  0  0
 14 20  2  0  0  0  0
 15 10  1  6  0  0  0
 15 14  1  0  0  0  0
 16 17  1  6  0  0  0
 16 19  1  0  0  0  0
 18 11  1  0  0  0  0
 18 15  1  0  0  0  0
 19 20  1  0  0  0  0
 19 12  1  1  0  0  0
 21 22  1  0  0  0  0
 23 22  1  6  0  0  0
 23 25  1  0  0  0  0
 23 32  1  0  0  0  0
 24 25  2  0  0  0  0
 27 24  1  1  0  0  0
 27 30  1  0  0  0  0
 27 28  1  0  0  0  0
 28 31  1  0  0  0  0
 29 31  1  0  0  0  0
 30 29  1  0  0  0  0
 31 26  1  6  0  0  0
 32 33  1  0  0  0  0
 33 34  2  0  0  0  0
 35 33  1  0  0  0  0
 35 36  1  0  0  0  0
 37 36  2  0  0  0  0
M  END
>  <MODEL>
8

>  <REMARK>
 VINA RESULT:      -6.6      4.266     11.265
  Name = 
  12 active torsions:
  status: ('A' for Active; 'I' for Inactive)
    1  A    between atoms: C_2  and  C_29
    2  A    between atoms: C_2  and  C_34
    3  A    between atoms: O_6  and  C_7
    4  A    between atoms: O_6  and  C_17
    5  A    between atoms: C_8  and  C_17
    6  A    between atoms: C_8  and  C_29
    7  A    between atoms: C_9  and  C_28
    8  A    between atoms: C_11  and  C_15
    9  A    between atoms: C_11  and  C_16
   10  A    between atoms: C_15  and  C_24
   11  A    between atoms: C_19  and  C_34
   12  A    between atoms: C_29  and  C_35
                            x       y       z     vdW  Elec       q    Type
                         _______ _______ _______ _____ _____    ______ ____

>  <TORSDO>
F 12

$$$$
=
 OpenBabel11072410173D

 37 39  0  0  1  0  0  0  0  0999 V2000
  161.4630  206.6130  153.9190 C   0  0  0  0  0  3  0  0  0  0  0  0
  160.5750  208.8340  153.9400 C   0  0  0  0  0  0  0  0  0  0  0  0
  160.8630  210.2270  151.8800 C   0  0  0  0  0  3  0  0  0  0  0  0
  160.7760  207.5390  154.5200 N   0  0  0  0  0  0  0  0  0  0  0  0
  160.9510  209.0560  152.5190 C   0  0  0  0  0  0  0  0  0  0  0  0
  162.1590  206.8790  152.6090 C   0  0  2  0  0  3  0  0  0  0  0  0
  160.0560  209.7470  154.6370 O   0  0  0  0  0  0  0  0  0  0  0  0
  161.3750  207.8560  151.7280 C   0  0  0  0  0  2  0  0  0  0  0  0
  162.4900  205.5840  151.8740 C   0  0  0  0  0  2  0  0  0  0  0  0
  161.2400  204.8550  151.3940 C   0  0  0  0  0  2  0  0  0  0  0  0
  160.9510  205.4270  147.6050 C   0  0  0  0  0  0  0  0  0  0  0  0
  161.6670  201.9410  146.5400 F   0  0  0  0  0  0  0  0  0  0  0  0
  160.1700  206.1780  147.0450 O   0  0  0  0  0  0  0  0  0  0  0  0
  160.3820  203.3910  149.5800 C   0  0  0  0  0  3  0  0  0  0  0  0
  161.3940  204.4480  149.9390 C   0  0  1  0  0  3  0  0  0  0  0  0
  161.5780  204.3130  146.8010 C   0  0  1  0  0  3  0  0  0  0  0  0
  162.9630  204.7160  146.3280 C   0  0  0  0  0  1  0  0  0  0  0  0
  161.2890  205.6950  149.0530 C   0  0  0  0  0  2  0  0  0  0  0  0
  161.6350  202.9420  147.4940 C   0  0  1  0  0  3  0  0  0  0  0  0
  160.4930  202.6950  148.4420 C   0  0  0  0  0  3  0  0  0  0  0  0
  160.4260  211.5090  152.5060 C   0  0  0  0  0  2  0  0  0  0  0  0
  159.9790  212.4660  151.4200 C   0  0  0  0  0  2  0  0  0  0  0  0
  159.4210  213.7430  152.0310 C   0  0  2  0  0  3  0  0  0  0  0  0
  157.7490  214.2170  153.8090 C   0  0  0  0  0  3  0  0  0  0  0  0
  158.7220  213.4400  153.3280 C   0  0  0  0  0  3  0  0  0  0  0  0
  155.4200  211.4630  157.2570 O   0  0  0  0  0  1  0  0  0  0  0  0
  157.0910  213.8980  155.1100 C   0  0  1  0  0  3  0  0  0  0  0  0
  155.9050  212.5300  154.9010 S   0  0  0  0  0  0  0  0  0  0  0  0
  157.4010  212.7630  157.1110 C   0  0  0  0  0  2  0  0  0  0  0  0
  158.1010  213.5090  156.0820 N   0  0  0  0  0  2  0  0  0  0  0  0
  156.5000  211.7630  156.4280 C   0  0  1  0  0  3  0  0  0  0  0  0
  158.4930  214.4520  151.0460 C   0  0  0  0  0  2  0  0  0  0  0  0
  158.8370  214.1010  149.6390 C   0  0  0  0  0  0  0  0  0  0  0  0
  157.9820  213.5260  148.9120 O   0  0  0  0  0  0  0  0  0  0  0  0
  160.1160  214.3840  149.1560 O   0  0  0  0  0  0  0  0  0  0  0  0
  160.7320  213.5930  148.1910 C   0  0  0  0  0  3  0  0  0  0  0  0
  161.9380  213.9100  147.7480 C   0  0  0  0  0  2  0  0  0  0  0  0
  1  4  2  0  0  0  0
  2  4  1  0  0  0  0
  2  7  2  0  0  0  0
  3 21  1  0  0  0  0
  3  5  2  0  0  0  0
  5  2  1  0  0  0  0
  6  9  1  6  0  0  0
  6  1  1  0  0  0  0
  8  5  1  0  0  0  0
  8  6  1  0  0  0  0
 10  9  1  0  0  0  0
 11 18  1  0  0  0  0
 13 11  2  0  0  0  0
 14 15  1  0  0  0  0
 15 10  1  1  0  0  0
 16 17  1  1  0  0  0
 16 19  1  0  0  0  0
 16 11  1  0  0  0  0
 18 15  1  0  0  0  0
 19 12  1  6  0  0  0
 19 20  1  0  0  0  0
 20 14  2  0  0  0  0
 22 23  1  0  0  0  0
 22 21  1  0  0  0  0
 23 32  1  6  0  0  0
 23 25  1  0  0  0  0
 25 24  2  0  0  0  0
 27 24  1  6  0  0  0
 27 30  1  0  0  0  0
 28 27  1  0  0  0  0
 28 31  1  0  0  0  0
 30 29  1  0  0  0  0
 31 29  1  0  0  0  0
 31 26  1  1  0  0  0
 33 32  1  0  0  0  0
 34 33  2  0  0  0  0
 35 33  1  0  0  0  0
 36 35  1  0  0  0  0
 37 36  2  0  0  0  0
M  END
>  <MODEL>
9

>  <REMARK>
 VINA RESULT:      -6.6      4.702     10.800
  Name = 
  12 active torsions:
  status: ('A' for Active; 'I' for Inactive)
    1  A    between atoms: C_2  and  C_29
    2  A    between atoms: C_2  and  C_34
    3  A    between atoms: O_6  and  C_7
    4  A    between atoms: O_6  and  C_17
    5  A    between atoms: C_8  and  C_17
    6  A    between atoms: C_8  and  C_29
    7  A    between atoms: C_9  and  C_28
    8  A    between atoms: C_11  and  C_15
    9  A    between atoms: C_11  and  C_16
   10  A    between atoms: C_15  and  C_24
   11  A    between atoms: C_19  and  C_34
   12  A    between atoms: C_29  and  C_35
                            x       y       z     vdW  Elec       q    Type
                         _______ _______ _______ _____ _____    ______ ____

>  <TORSDO>
F 12

$$$$
