=
 OpenBabel11072410233D

 51 56  0  0  1  0  0  0  0  0999 V2000
  161.6430  207.7620  151.8080 C   0  0  2  0  0  3  0  0  0  0  0  0
  160.7100  207.0630  152.7890 C   0  0  1  0  0  3  0  0  0  0  0  0
  161.3620  205.7860  153.2880 C   0  0  0  0  0  2  0  0  0  0  0  0
  161.3410  207.0130  154.1720 C   0  0  2  0  0  3  0  0  0  0  0  0
  160.3420  206.8690  155.1330 O   0  0  0  0  0  0  0  0  0  0  0  0
  160.4610  208.0070  155.9360 C   0  0  0  0  0  1  0  0  0  0  0  0
  161.9040  209.1300  152.2410 N   0  0  0  0  0  2  0  0  0  0  0  0
  160.7290  209.9320  151.9300 C   0  0  0  0  0  2  0  0  0  0  0  0
  160.2050  210.5160  153.1170 O   0  0  0  0  0  0  0  0  0  0  0  0
  159.5330  211.4850  155.6220 C   0  0  0  0  0  1  0  0  0  0  0  0
  159.5640  212.3780  154.4250 C   0  0  0  0  0  0  0  0  0  0  0  0
  159.8920  211.8780  153.2260 C   0  0  0  0  0  0  0  0  0  0  0  0
  158.8820  213.8940  150.1540 C   0  0  0  0  0  0  0  0  0  0  0  0
  157.6190  214.2030  149.8200 N   0  0  0  0  0  0  0  0  0  0  0  0
  156.8730  213.6890  150.7630 O   0  0  0  0  0  0  0  0  0  0  0  0
  159.9610  212.7520  152.0880 N   0  0  0  0  0  2  0  0  0  0  0  0
  157.5480  213.0770  151.6990 N   0  0  0  0  0  0  0  0  0  0  0  0
  158.8340  213.1880  151.3250 C   0  0  0  0  0  0  0  0  0  0  0  0
  160.1040  214.3450  149.4190 C   0  0  0  0  0  2  0  0  0  0  0  0
  160.2920  213.5480  148.1310 C   0  0  2  0  0  3  0  0  0  0  0  0
  162.2990  214.3260  146.8530 C   0  0  1  0  0  3  0  0  0  0  0  0
  162.8430  213.3990  147.9240 C   0  0  0  0  0  2  0  0  0  0  0  0
  160.1750  214.0200  145.6870 C   0  0  0  0  0  2  0  0  0  0  0  0
  161.3030  214.0300  144.6790 C   0  0  0  0  0  2  0  0  0  0  0  0
  162.5550  213.7440  145.4750 C   0  0  0  0  0  2  0  0  0  0  0  0
  161.5270  212.2470  148.4110 S   0  0  0  0  0  0  0  0  0  0  0  0
  160.7880  214.4520  147.0070 C   0  0  1  0  0  3  0  0  0  0  0  0
  159.8550  214.4110  155.7010 F   0  0  0  0  0  0  0  0  0  0  0  0
  159.2420  213.8450  154.5920 C   0  0  2  0  0  3  0  0  0  0  0  0
  157.8550  214.1080  154.5520 O   0  0  0  0  0  0  0  0  0  0  0  0
  157.4030  214.3000  155.8650 C   0  0  0  0  0  1  0  0  0  0  0  0
  161.0080  207.8040  150.4210 C   0  0  0  0  0  2  0  0  0  0  0  0
  160.9620  206.8460  148.0980 C   0  0  0  0  0  2  0  0  0  0  0  0
  161.7040  205.5370  149.9480 O   0  0  0  0  0  0  0  0  0  0  0  0
  161.6840  204.6880  148.8310 C   0  0  2  0  0  3  0  0  0  0  0  0
  160.9940  205.4050  147.6850 C   0  0  2  0  0  3  0  0  0  0  0  0
  161.6690  206.8440  149.4360 C   0  0  2  0  0  3  0  0  0  0  0  0
  162.7380  206.2840  146.1370 C   0  0  0  0  0  1  0  0  0  0  0  0
  161.6850  205.2060  146.3230 C   0  0  2  0  0  3  0  0  0  0  0  0
  160.7230  205.1880  145.1250 C   0  0  0  0  0  3  0  0  0  0  0  0
  159.8700  206.2920  145.1730 O   0  0  0  0  0  1  0  0  0  0  0  0
  161.4350  205.2170  143.9210 O   0  0  0  0  0  1  0  0  0  0  0  0
  160.9260  203.4160  149.1690 C   0  0  0  0  0  2  0  0  0  0  0  0
  160.8820  202.5370  148.0100 N   0  0  0  0  0  2  0  0  0  0  0  0
  161.1550  201.1360  148.0950 C   0  0  0  0  0  0  0  0  0  0  0  0
  161.4870  200.6220  149.1980 O   0  0  0  0  0  0  0  0  0  0  0  0
  160.4100  200.6330  145.7740 N   0  0  0  0  0  0  0  0  0  0  0  0
  161.0760  200.2980  146.8920 C   0  0  2  0  0  3  0  0  0  0  0  0
  161.6150  199.0410  146.7370 C   0  0  0  0  0  3  0  0  0  0  0  0
  160.5420  199.6090  144.9520 N   0  0  0  0  0  0  0  0  0  0  0  0
  161.2610  198.6410  145.5020 N   0  0  0  0  0  0  0  0  0  0  0  0
  1 32  1  6  0  0  0
  1  7  1  0  0  0  0
  2  1  1  6  0  0  0
  2  3  1  0  0  0  0
  2  4  1  0  0  0  0
  3  4  1  0  0  0  0
  4  5  1  1  0  0  0
  5  6  1  0  0  0  0
  8  7  1  0  0  0  0
  8  9  1  0  0  0  0
  9 12  1  0  0  0  0
 11 29  1  0  0  0  0
 11 10  1  0  0  0  0
 12 11  2  0  0  0  0
 13 18  1  0  0  0  0
 14 13  2  0  0  0  0
 14 15  1  0  0  0  0
 15 17  1  0  0  0  0
 16 12  1  0  0  0  0
 18 17  2  0  0  0  0
 18 16  1  0  0  0  0
 19 13  1  0  0  0  0
 20 26  1  0  0  0  0
 20 19  1  1  0  0  0
 21 25  1  6  0  0  0
 21 27  1  0  0  0  0
 21 22  1  0  0  0  0
 22 26  1  0  0  0  0
 24 25  1  0  0  0  0
 24 23  1  0  0  0  0
 27 23  1  6  0  0  0
 27 20  1  0  0  0  0
 29 28  1  1  0  0  0
 30 29  1  0  0  0  0
 30 31  1  0  0  0  0
 33 37  1  0  0  0  0
 35 43  1  1  0  0  0
 35 34  1  0  0  0  0
 36 39  1  6  0  0  0
 36 33  1  0  0  0  0
 36 35  1  0  0  0  0
 37 34  1  0  0  0  0
 37 32  1  1  0  0  0
 39 38  1  6  0  0  0
 40 41  1  0  0  0  0
 40 39  1  0  0  0  0
 42 40  1  0  0  0  0
 44 45  1  0  0  0  0
 44 43  1  0  0  0  0
 45 46  2  0  0  0  0
 47 48  1  0  0  0  0
 48 45  1  1  0  0  0
 49 48  1  0  0  0  0
 50 51  1  0  0  0  0
 50 47  2  0  0  0  0
 51 49  2  0  0  0  0
M  END
>  <MODEL>
1

>  <REMARK>
 VINA RESULT:      -6.4      0.000      0.000
  Name = 
  18 active torsions:
  status: ('A' for Active; 'I' for Inactive)
    1  A    between atoms: C_1  and  C_12
    2  A    between atoms: C_2  and  N_11
    3  A    between atoms: C_2  and  C_31
    4  A    between atoms: C_4  and  C_12
    5  A    between atoms: C_5  and  C_40
    6  A    between atoms: C_7  and  C_40
    7  A    between atoms: C_7  and  C_45
    8  A    between atoms: C_8  and  C_39
    9  A    between atoms: O_10  and  C_49
   10  A    between atoms: O_10  and  C_50
   11  A    between atoms: C_13  and  C_28
   12  A    between atoms: O_14  and  C_47
   13  A    between atoms: N_18  and  C_40
   14  A    between atoms: N_18  and  C_50
   15  A    between atoms: N_22  and  C_49
   16  A    between atoms: O_26  and  C_36
   17  A    between atoms: C_27  and  C_47
   18  A    between atoms: C_39  and  C_41
                            x       y       z     vdW  Elec       q    Type
                         _______ _______ _______ _____ _____    ______ ____

>  <TORSDO>
F 18

$$$$
=
 OpenBabel11072410233D

 51 56  0  0  1  0  0  0  0  0999 V2000
  161.6060  209.3470  148.9300 C   0  0  2  0  0  3  0  0  0  0  0  0
  162.1080  207.9140  149.0620 C   0  0  1  0  0  3  0  0  0  0  0  0
  160.9370  206.9540  148.9540 C   0  0  0  0  0  2  0  0  0  0  0  0
  161.8600  207.1480  147.7720 C   0  0  2  0  0  3  0  0  0  0  0  0
  162.7400  206.0700  147.6950 O   0  0  0  0  0  0  0  0  0  0  0  0
  161.9540  205.0070  147.2380 C   0  0  0  0  0  1  0  0  0  0  0  0
  162.7130  210.2480  148.6300 N   0  0  0  0  0  2  0  0  0  0  0  0
  162.2810  211.6070  148.9240 C   0  0  0  0  0  2  0  0  0  0  0  0
  162.3370  212.4060  147.7480 O   0  0  0  0  0  0  0  0  0  0  0  0
  160.1350  213.5660  148.9590 C   0  0  0  0  0  1  0  0  0  0  0  0
  160.1360  213.2300  147.5030 C   0  0  0  0  0  0  0  0  0  0  0  0
  161.2180  212.6680  146.9470 C   0  0  0  0  0  0  0  0  0  0  0  0
  161.9900  212.9060  143.2230 C   0  0  0  0  0  0  0  0  0  0  0  0
  163.0150  213.5930  142.6940 N   0  0  0  0  0  0  0  0  0  0  0  0
  163.6520  214.1080  143.7130 O   0  0  0  0  0  0  0  0  0  0  0  0
  161.2270  212.3890  145.5380 N   0  0  0  0  0  2  0  0  0  0  0  0
  163.1340  213.8030  144.8720 N   0  0  0  0  0  0  0  0  0  0  0  0
  162.0640  213.0430  144.5820 C   0  0  0  0  0  0  0  0  0  0  0  0
  161.0240  212.0670  142.4500 C   0  0  0  0  0  2  0  0  0  0  0  0
  161.3620  212.0750  140.9620 C   0  0  2  0  0  3  0  0  0  0  0  0
  159.8210  210.5940  139.6590 C   0  0  1  0  0  3  0  0  0  0  0  0
  159.0580  211.8910  139.8540 C   0  0  0  0  0  2  0  0  0  0  0  0
  162.2310  210.4310  139.3030 C   0  0  0  0  0  2  0  0  0  0  0  0
  161.5080  209.8150  138.1250 C   0  0  0  0  0  2  0  0  0  0  0  0
  160.1020  210.3660  138.1860 C   0  0  0  0  0  2  0  0  0  0  0  0
  160.2560  213.2320  140.1050 S   0  0  0  0  0  0  0  0  0  0  0  0
  161.1710  210.6870  140.3590 C   0  0  1  0  0  3  0  0  0  0  0  0
  159.1790  214.4520  145.6500 F   0  0  0  0  0  0  0  0  0  0  0  0
  158.9150  213.5510  146.6720 C   0  0  2  0  0  3  0  0  0  0  0  0
  157.8060  213.9370  147.4560 O   0  0  0  0  0  0  0  0  0  0  0  0
  156.7310  214.2110  146.5980 C   0  0  0  0  0  1  0  0  0  0  0  0
  160.9540  209.7950  150.2340 C   0  0  0  0  0  2  0  0  0  0  0  0
  160.6750  208.2900  152.2270 C   0  0  0  0  0  2  0  0  0  0  0  0
  162.1020  210.1980  152.3240 O   0  0  0  0  0  0  0  0  0  0  0  0
  162.0700  209.6490  153.6150 C   0  0  2  0  0  3  0  0  0  0  0  0
  160.9940  208.5800  153.6640 C   0  0  2  0  0  3  0  0  0  0  0  0
  161.6210  209.1940  151.4680 C   0  0  2  0  0  3  0  0  0  0  0  0
  161.1500  206.0950  153.5660 C   0  0  0  0  0  1  0  0  0  0  0  0
  161.4130  207.3130  154.4320 C   0  0  2  0  0  3  0  0  0  0  0  0
  160.7310  207.1520  155.8010 C   0  0  0  0  0  3  0  0  0  0  0  0
  161.4600  207.8210  156.7860 O   0  0  0  0  0  1  0  0  0  0  0  0
  159.4320  207.6690  155.7670 O   0  0  0  0  0  1  0  0  0  0  0  0
  161.7580  210.7370  154.6270 C   0  0  0  0  0  2  0  0  0  0  0  0
  160.3490  211.0950  154.5580 N   0  0  0  0  0  2  0  0  0  0  0  0
  159.4940  211.0780  155.7030 C   0  0  0  0  0  0  0  0  0  0  0  0
  159.9410  210.7050  156.8220 O   0  0  0  0  0  0  0  0  0  0  0  0
  157.2940  211.8190  156.6000 N   0  0  0  0  0  0  0  0  0  0  0  0
  158.0850  211.4680  155.5720 C   0  0  0  0  0  0  0  0  0  0  0  0
  157.3480  211.4880  154.4090 C   0  0  0  0  0  3  0  0  0  0  0  0
  156.1020  212.0520  156.0800 N   0  0  0  0  0  2  0  0  0  0  0  0
  156.1060  211.8630  154.7680 N   0  0  0  0  0  0  0  0  0  0  0  0
  1 32  1  1  0  0  0
  2  1  1  6  0  0  0
  3  2  1  0  0  0  0
  4  5  1  1  0  0  0
  4  3  1  0  0  0  0
  4  2  1  0  0  0  0
  6  5  1  0  0  0  0
  7  8  1  0  0  0  0
  7  1  1  0  0  0  0
  9  8  1  0  0  0  0
 11 10  1  0  0  0  0
 12 11  2  0  0  0  0
 12  9  1  0  0  0  0
 13 18  1  0  0  0  0
 14 13  2  0  0  0  0
 14 15  1  0  0  0  0
 15 17  1  0  0  0  0
 16 12  1  0  0  0  0
 18 17  2  0  0  0  0
 18 16  1  0  0  0  0
 19 13  1  0  0  0  0
 20 19  1  1  0  0  0
 21 25  1  6  0  0  0
 21 22  1  0  0  0  0
 21 27  1  0  0  0  0
 22 26  1  0  0  0  0
 24 25  1  0  0  0  0
 24 23  1  0  0  0  0
 26 20  1  0  0  0  0
 27 23  1  6  0  0  0
 27 20  1  0  0  0  0
 29 28  1  6  0  0  0
 29 30  1  0  0  0  0
 29 11  1  0  0  0  0
 31 30  1  0  0  0  0
 33 36  1  0  0  0  0
 34 35  1  0  0  0  0
 35 36  1  0  0  0  0
 35 43  1  1  0  0  0
 36 39  1  6  0  0  0
 37 32  1  6  0  0  0
 37 33  1  0  0  0  0
 37 34  1  0  0  0  0
 39 38  1  6  0  0  0
 39 40  1  0  0  0  0
 40 41  1  0  0  0  0
 42 40  1  0  0  0  0
 44 43  1  0  0  0  0
 44 45  1  0  0  0  0
 45 46  2  0  0  0  0
 48 45  1  0  0  0  0
 48 47  2  0  0  0  0
 49 51  2  0  0  0  0
 49 48  1  0  0  0  0
 50 47  1  0  0  0  0
 51 50  1  0  0  0  0
M  END
>  <MODEL>
2

>  <REMARK>
 VINA RESULT:      -5.8      4.336      9.108
  Name = 
  18 active torsions:
  status: ('A' for Active; 'I' for Inactive)
    1  A    between atoms: C_1  and  C_12
    2  A    between atoms: C_2  and  N_11
    3  A    between atoms: C_2  and  C_31
    4  A    between atoms: C_4  and  C_12
    5  A    between atoms: C_5  and  C_40
    6  A    between atoms: C_7  and  C_40
    7  A    between atoms: C_7  and  C_45
    8  A    between atoms: C_8  and  C_39
    9  A    between atoms: O_10  and  C_49
   10  A    between atoms: O_10  and  C_50
   11  A    between atoms: C_13  and  C_28
   12  A    between atoms: O_14  and  C_47
   13  A    between atoms: N_18  and  C_40
   14  A    between atoms: N_18  and  C_50
   15  A    between atoms: N_22  and  C_49
   16  A    between atoms: O_26  and  C_36
   17  A    between atoms: C_27  and  C_47
   18  A    between atoms: C_39  and  C_41
                            x       y       z     vdW  Elec       q    Type
                         _______ _______ _______ _____ _____    ______ ____

>  <TORSDO>
F 18

$$$$
=
 OpenBabel11072410233D

 51 56  0  0  1  0  0  0  0  0999 V2000
  160.4960  210.2910  153.3690 C   0  0  2  0  0  3  0  0  0  0  0  0
  161.2580  209.2220  154.1440 C   0  0  1  0  0  3  0  0  0  0  0  0
  161.6160  209.7520  155.5210 C   0  0  0  0  0  2  0  0  0  0  0  0
  160.4600  208.7880  155.3640 C   0  0  2  0  0  3  0  0  0  0  0  0
  160.8700  207.5150  155.7560 O   0  0  0  0  0  0  0  0  0  0  0  0
  160.9940  207.6000  157.1470 C   0  0  0  0  0  1  0  0  0  0  0  0
  160.9700  210.3550  151.9910 N   0  0  0  0  0  2  0  0  0  0  0  0
  161.7040  209.1300  151.7090 C   0  0  0  0  0  2  0  0  0  0  0  0
  160.8720  208.2070  151.0160 O   0  0  0  0  0  0  0  0  0  0  0  0
  161.9100  209.3020  148.6960 C   0  0  0  0  0  1  0  0  0  0  0  0
  161.8660  207.8240  148.9060 C   0  0  0  0  0  0  0  0  0  0  0  0
  161.3560  207.3250  150.0410 C   0  0  0  0  0  0  0  0  0  0  0  0
  161.3690  203.9350  151.7800 C   0  0  0  0  0  0  0  0  0  0  0  0
  161.0520  203.7320  153.0700 N   0  0  0  0  0  0  0  0  0  0  0  0
  160.7380  204.9100  153.5410 O   0  0  0  0  0  0  0  0  0  0  0  0
  161.3570  205.9040  150.2550 N   0  0  0  0  0  2  0  0  0  0  0  0
  160.8110  205.8710  152.6590 N   0  0  0  0  0  0  0  0  0  0  0  0
  161.2220  205.2710  151.5290 C   0  0  0  0  0  0  0  0  0  0  0  0
  161.7120  202.8610  150.7980 C   0  0  0  0  0  2  0  0  0  0  0  0
  160.8230  202.9490  149.5610 C   0  0  2  0  0  3  0  0  0  0  0  0
  161.5700  201.3570  147.7780 C   0  0  1  0  0  3  0  0  0  0  0  0
  160.7490  200.5200  148.7420 C   0  0  0  0  0  2  0  0  0  0  0  0
  161.0970  203.6810  147.1940 C   0  0  0  0  0  2  0  0  0  0  0  0
  161.0680  202.8340  145.9410 C   0  0  0  0  0  2  0  0  0  0  0  0
  160.8910  201.4130  146.4220 C   0  0  0  0  0  2  0  0  0  0  0  0
  159.5930  201.6140  149.6140 S   0  0  0  0  0  0  0  0  0  0  0  0
  161.6530  202.7900  148.2900 C   0  0  1  0  0  3  0  0  0  0  0  0
  163.7960  207.0180  147.6950 F   0  0  0  0  0  0  0  0  0  0  0  0
  162.4200  206.9100  147.8370 C   0  0  2  0  0  3  0  0  0  0  0  0
  161.7400  207.0340  146.6070 O   0  0  0  0  0  0  0  0  0  0  0  0
  160.4110  206.6270  146.7930 C   0  0  0  0  0  1  0  0  0  0  0  0
  160.7050  211.6560  154.0180 C   0  0  0  0  0  2  0  0  0  0  0  0
  158.2370  211.4260  154.4360 C   0  0  0  0  0  2  0  0  0  0  0  0
  159.1120  213.3190  153.2790 O   0  0  0  0  0  0  0  0  0  0  0  0
  157.7140  213.4290  153.2400 C   0  0  2  0  0  3  0  0  0  0  0  0
  157.1080  212.1350  153.7510 C   0  0  2  0  0  3  0  0  0  0  0  0
  159.3950  212.3900  154.2930 C   0  0  2  0  0  3  0  0  0  0  0  0
  155.9830  213.7230  155.3060 C   0  0  0  0  0  1  0  0  0  0  0  0
  155.9000  212.3420  154.6830 C   0  0  2  0  0  3  0  0  0  0  0  0
  155.7580  211.2710  155.7770 C   0  0  0  0  0  3  0  0  0  0  0  0
  155.2690  211.8430  156.9530 O   0  0  0  0  0  1  0  0  0  0  0  0
  154.8830  210.2600  155.3660 O   0  0  0  0  0  1  0  0  0  0  0  0
  157.2600  213.6800  151.8130 C   0  0  0  0  0  2  0  0  0  0  0  0
  158.3870  213.5610  150.9000 N   0  0  0  0  0  2  0  0  0  0  0  0
  158.2570  213.7450  149.4890 C   0  0  0  0  0  0  0  0  0  0  0  0
  157.1260  213.9820  148.9820 O   0  0  0  0  0  0  0  0  0  0  0  0
  159.7100  214.4530  147.5960 N   0  0  0  0  0  0  0  0  0  0  0  0
  159.4360  213.6300  148.6220 C   0  0  2  0  0  3  0  0  0  0  0  0
  160.4040  212.6510  148.6860 C   0  0  0  0  0  3  0  0  0  0  0  0
  160.8200  213.9940  147.0470 N   0  0  0  0  0  0  0  0  0  0  0  0
  161.2590  212.9160  147.6810 N   0  0  0  0  0  0  0  0  0  0  0  0
  1 32  1  1  0  0  0
  2  1  1  6  0  0  0
  2  4  1  0  0  0  0
  2  3  1  0  0  0  0
  4  3  1  0  0  0  0
  4  5  1  1  0  0  0
  5  6  1  0  0  0  0
  7  1  1  0  0  0  0
  8  7  1  0  0  0  0
  9  8  1  0  0  0  0
 10 11  1  0  0  0  0
 11 12  2  0  0  0  0
 12 16  1  0  0  0  0
 12  9  1  0  0  0  0
 13 14  2  0  0  0  0
 14 15  1  0  0  0  0
 16 18  1  0  0  0  0
 17 15  1  0  0  0  0
 18 13  1  0  0  0  0
 18 17  2  0  0  0  0
 19 13  1  0  0  0  0
 20 26  1  0  0  0  0
 20 19  1  1  0  0  0
 21 25  1  6  0  0  0
 21 27  1  0  0  0  0
 21 22  1  0  0  0  0
 22 26  1  0  0  0  0
 24 25  1  0  0  0  0
 24 23  1  0  0  0  0
 27 23  1  6  0  0  0
 27 20  1  0  0  0  0
 29 28  1  6  0  0  0
 29 11  1  0  0  0  0
 30 31  1  0  0  0  0
 30 29  1  0  0  0  0
 34 37  1  0  0  0  0
 35 43  1  6  0  0  0
 35 34  1  0  0  0  0
 35 36  1  0  0  0  0
 36 33  1  0  0  0  0
 36 39  1  1  0  0  0
 37 32  1  6  0  0  0
 37 33  1  0  0  0  0
 39 38  1  1  0  0  0
 39 40  1  0  0  0  0
 40 41  1  0  0  0  0
 42 40  1  0  0  0  0
 44 43  1  0  0  0  0
 45 44  1  0  0  0  0
 46 45  2  0  0  0  0
 47 48  1  0  0  0  0
 48 49  1  0  0  0  0
 48 45  1  6  0  0  0
 50 47  2  0  0  0  0
 50 51  1  0  0  0  0
 51 49  2  0  0  0  0
M  END
>  <MODEL>
3

>  <REMARK>
 VINA RESULT:      -5.6      3.658     10.342
  Name = 
  18 active torsions:
  status: ('A' for Active; 'I' for Inactive)
    1  A    between atoms: C_1  and  C_12
    2  A    between atoms: C_2  and  N_11
    3  A    between atoms: C_2  and  C_31
    4  A    between atoms: C_4  and  C_12
    5  A    between atoms: C_5  and  C_40
    6  A    between atoms: C_7  and  C_40
    7  A    between atoms: C_7  and  C_45
    8  A    between atoms: C_8  and  C_39
    9  A    between atoms: O_10  and  C_49
   10  A    between atoms: O_10  and  C_50
   11  A    between atoms: C_13  and  C_28
   12  A    between atoms: O_14  and  C_47
   13  A    between atoms: N_18  and  C_40
   14  A    between atoms: N_18  and  C_50
   15  A    between atoms: N_22  and  C_49
   16  A    between atoms: O_26  and  C_36
   17  A    between atoms: C_27  and  C_47
   18  A    between atoms: C_39  and  C_41
                            x       y       z     vdW  Elec       q    Type
                         _______ _______ _______ _____ _____    ______ ____

>  <TORSDO>
F 18

$$$$
=
 OpenBabel11072410233D

 51 56  0  0  1  0  0  0  0  0999 V2000
  161.3520  210.4960  151.8420 C   0  0  2  0  0  3  0  0  0  0  0  0
  161.4810  210.4540  153.3600 C   0  0  1  0  0  3  0  0  0  0  0  0
  160.5480  211.4790  153.9780 C   0  0  0  0  0  2  0  0  0  0  0  0
  160.1680  210.0150  153.9880 C   0  0  2  0  0  3  0  0  0  0  0  0
  160.4120  209.4880  155.2550 O   0  0  0  0  0  0  0  0  0  0  0  0
  159.4770  210.1170  156.0830 C   0  0  0  0  0  1  0  0  0  0  0  0
  162.5230  209.8940  151.2150 N   0  0  0  0  0  2  0  0  0  0  0  0
  162.3890  208.4470  151.3060 C   0  0  0  0  0  2  0  0  0  0  0  0
  161.2360  208.0140  150.5940 O   0  0  0  0  0  0  0  0  0  0  0  0
  161.3830  208.9780  148.0030 C   0  0  0  0  0  1  0  0  0  0  0  0
  161.3610  207.5120  148.2870 C   0  0  0  0  0  0  0  0  0  0  0  0
  161.2880  207.0770  149.5530 C   0  0  0  0  0  0  0  0  0  0  0  0
  161.3600  203.7560  151.4200 C   0  0  0  0  0  0  0  0  0  0  0  0
  161.0530  203.5980  152.7180 N   0  0  0  0  0  0  0  0  0  0  0  0
  160.7250  204.7890  153.1460 O   0  0  0  0  0  0  0  0  0  0  0  0
  161.3110  205.6660  149.8210 N   0  0  0  0  0  2  0  0  0  0  0  0
  160.7800  205.7160  152.2280 N   0  0  0  0  0  0  0  0  0  0  0  0
  161.1920  205.0790  151.1190 C   0  0  0  0  0  0  0  0  0  0  0  0
  161.7120  202.6500  150.4770 C   0  0  0  0  0  2  0  0  0  0  0  0
  160.7930  202.6570  149.2590 C   0  0  2  0  0  3  0  0  0  0  0  0
  161.5360  201.0000  147.5360 C   0  0  1  0  0  3  0  0  0  0  0  0
  160.7600  200.1910  148.5590 C   0  0  0  0  0  2  0  0  0  0  0  0
  160.9930  203.2810  146.8550 C   0  0  0  0  0  2  0  0  0  0  0  0
  160.9550  202.3740  145.6440 C   0  0  0  0  0  2  0  0  0  0  0  0
  160.8250  200.9740  146.1960 C   0  0  0  0  0  2  0  0  0  0  0  0
  159.5970  201.2990  149.4070 S   0  0  0  0  0  0  0  0  0  0  0  0
  161.5960  202.4570  147.9780 C   0  0  1  0  0  3  0  0  0  0  0  0
  162.7400  206.3300  146.6920 F   0  0  0  0  0  0  0  0  0  0  0  0
  161.4410  206.5360  147.1360 C   0  0  2  0  0  3  0  0  0  0  0  0
  160.5580  206.8600  146.0830 O   0  0  0  0  0  0  0  0  0  0  0  0
  160.6410  205.8530  145.1100 C   0  0  0  0  0  1  0  0  0  0  0  0
  161.2360  211.9410  151.3670 C   0  0  0  0  0  2  0  0  0  0  0  0
  159.9730  213.3820  149.7410 C   0  0  0  0  0  2  0  0  0  0  0  0
  158.9310  212.5790  151.7300 O   0  0  0  0  0  0  0  0  0  0  0  0
  158.0140  213.4400  151.1090 C   0  0  2  0  0  3  0  0  0  0  0  0
  158.7130  214.1610  149.9710 C   0  0  2  0  0  3  0  0  0  0  0  0
  159.8780  212.2540  150.7450 C   0  0  2  0  0  3  0  0  0  0  0  0
  156.4090  213.9880  149.0370 C   0  0  0  0  0  1  0  0  0  0  0  0
  157.8600  214.2780  148.6950 C   0  0  2  0  0  3  0  0  0  0  0  0
  158.3260  213.3750  147.5410 C   0  0  0  0  0  3  0  0  0  0  0  0
  157.3580  212.4070  147.2630 O   0  0  0  0  0  1  0  0  0  0  0  0
  158.5560  214.1310  146.3870 O   0  0  0  0  0  1  0  0  0  0  0  0
  157.4990  214.4530  152.1180 C   0  0  0  0  0  2  0  0  0  0  0  0
  157.3990  213.8410  153.4350 N   0  0  0  0  0  2  0  0  0  0  0  0
  156.1830  213.2750  153.9290 C   0  0  0  0  0  0  0  0  0  0  0  0
  155.1310  213.3280  153.2340 O   0  0  0  0  0  0  0  0  0  0  0  0
  157.0180  212.9290  156.2480 N   0  0  0  0  0  0  0  0  0  0  0  0
  156.1490  212.6560  155.2590 C   0  0  0  0  0  0  0  0  0  0  0  0
  155.2750  211.6790  155.6830 C   0  0  0  0  0  3  0  0  0  0  0  0
  156.6820  212.1430  157.2550 N   0  0  0  0  0  2  0  0  0  0  0  0
  155.6400  211.3850  156.9450 N   0  0  0  0  0  0  0  0  0  0  0  0
  1 32  1  6  0  0  0
  2  1  1  6  0  0  0
  2  3  1  0  0  0  0
  2  4  1  0  0  0  0
  3  4  1  0  0  0  0
  4  5  1  1  0  0  0
  5  6  1  0  0  0  0
  7  8  1  0  0  0  0
  7  1  1  0  0  0  0
  9  8  1  0  0  0  0
 10 11  1  0  0  0  0
 11 12  2  0  0  0  0
 12 16  1  0  0  0  0
 12  9  1  0  0  0  0
 13 14  2  0  0  0  0
 14 15  1  0  0  0  0
 16 18  1  0  0  0  0
 17 15  1  0  0  0  0
 18 13  1  0  0  0  0
 18 17  2  0  0  0  0
 19 13  1  0  0  0  0
 20 26  1  0  0  0  0
 20 19  1  1  0  0  0
 21 25  1  6  0  0  0
 21 27  1  0  0  0  0
 21 22  1  0  0  0  0
 22 26  1  0  0  0  0
 24 25  1  0  0  0  0
 24 23  1  0  0  0  0
 27 23  1  6  0  0  0
 27 20  1  0  0  0  0
 29 28  1  6  0  0  0
 29 11  1  0  0  0  0
 30 29  1  0  0  0  0
 31 30  1  0  0  0  0
 33 36  1  0  0  0  0
 33 37  1  0  0  0  0
 35 34  1  0  0  0  0
 35 43  1  1  0  0  0
 36 39  1  6  0  0  0
 36 35  1  0  0  0  0
 37 32  1  1  0  0  0
 37 34  1  0  0  0  0
 39 38  1  1  0  0  0
 40 39  1  0  0  0  0
 41 40  1  0  0  0  0
 42 40  1  0  0  0  0
 43 44  1  0  0  0  0
 44 45  1  0  0  0  0
 45 48  1  0  0  0  0
 46 45  2  0  0  0  0
 47 50  1  0  0  0  0
 48 49  1  0  0  0  0
 48 47  2  0  0  0  0
 49 51  2  0  0  0  0
 51 50  1  0  0  0  0
M  END
>  <MODEL>
4

>  <REMARK>
 VINA RESULT:      -4.8      3.772     10.542
  Name = 
  18 active torsions:
  status: ('A' for Active; 'I' for Inactive)
    1  A    between atoms: C_1  and  C_12
    2  A    between atoms: C_2  and  N_11
    3  A    between atoms: C_2  and  C_31
    4  A    between atoms: C_4  and  C_12
    5  A    between atoms: C_5  and  C_40
    6  A    between atoms: C_7  and  C_40
    7  A    between atoms: C_7  and  C_45
    8  A    between atoms: C_8  and  C_39
    9  A    between atoms: O_10  and  C_49
   10  A    between atoms: O_10  and  C_50
   11  A    between atoms: C_13  and  C_28
   12  A    between atoms: O_14  and  C_47
   13  A    between atoms: N_18  and  C_40
   14  A    between atoms: N_18  and  C_50
   15  A    between atoms: N_22  and  C_49
   16  A    between atoms: O_26  and  C_36
   17  A    between atoms: C_27  and  C_47
   18  A    between atoms: C_39  and  C_41
                            x       y       z     vdW  Elec       q    Type
                         _______ _______ _______ _____ _____    ______ ____

>  <TORSDO>
F 18

$$$$
=
 OpenBabel11072410233D

 51 56  0  0  1  0  0  0  0  0999 V2000
  161.3540  205.2650  151.2710 C   0  0  2  0  0  3  0  0  0  0  0  0
  161.8440  203.8730  151.6510 C   0  0  1  0  0  3  0  0  0  0  0  0
  160.8010  203.1860  152.5140 C   0  0  0  0  0  2  0  0  0  0  0  0
  160.9320  202.8130  151.0540 C   0  0  2  0  0  3  0  0  0  0  0  0
  161.6260  201.6090  150.9500 O   0  0  0  0  0  0  0  0  0  0  0  0
  161.0380  200.9580  149.8610 C   0  0  0  0  0  1  0  0  0  0  0  0
  161.0360  206.0370  152.4670 N   0  0  0  0  0  2  0  0  0  0  0  0
  161.9120  207.2000  152.4990 C   0  0  0  0  0  2  0  0  0  0  0  0
  161.1540  208.3800  152.7360 O   0  0  0  0  0  0  0  0  0  0  0  0
  161.3050  206.5200  154.7810 C   0  0  0  0  0  1  0  0  0  0  0  0
  160.8120  207.9090  155.0270 C   0  0  0  0  0  0  0  0  0  0  0  0
  160.7500  208.7860  154.0150 C   0  0  0  0  0  0  0  0  0  0  0  0
  159.8800  212.4580  153.4920 C   0  0  0  0  0  0  0  0  0  0  0  0
  159.6800  213.0370  152.2960 N   0  0  0  0  0  0  0  0  0  0  0  0
  159.8290  212.0810  151.4170 O   0  0  0  0  0  0  0  0  0  0  0  0
  160.3160  210.1310  154.2680 N   0  0  0  0  0  2  0  0  0  0  0  0
  160.0990  210.9160  151.9410 N   0  0  0  0  0  0  0  0  0  0  0  0
  160.1450  211.1360  153.2650 C   0  0  0  0  0  0  0  0  0  0  0  0
  159.7270  213.1380  154.8150 C   0  0  0  0  0  2  0  0  0  0  0  0
  158.2540  213.2910  155.1830 C   0  0  2  0  0  3  0  0  0  0  0  0
  157.2700  211.1250  155.9610 C   0  0  1  0  0  3  0  0  0  0  0  0
  157.9960  211.6900  157.1680 C   0  0  0  0  0  2  0  0  0  0  0  0
  156.0790  212.4570  154.2970 C   0  0  0  0  0  2  0  0  0  0  0  0
  155.1170  211.4810  154.9380 C   0  0  0  0  0  2  0  0  0  0  0  0
  155.7780  211.0580  156.2290 C   0  0  0  0  0  2  0  0  0  0  0  0
  158.1070  213.4920  156.9820 S   0  0  0  0  0  0  0  0  0  0  0  0
  157.4640  212.0540  154.7690 C   0  0  1  0  0  3  0  0  0  0  0  0
  159.0380  208.4870  156.5640 F   0  0  0  0  0  0  0  0  0  0  0  0
  160.4080  208.3100  156.4270 C   0  0  2  0  0  3  0  0  0  0  0  0
  161.1440  209.4130  156.9130 O   0  0  0  0  0  0  0  0  0  0  0  0
  162.4980  209.0520  156.9660 C   0  0  0  0  0  1  0  0  0  0  0  0
  160.0970  205.1600  150.4120 C   0  0  0  0  0  2  0  0  0  0  0  0
  161.3350  205.1110  148.2250 C   0  0  0  0  0  2  0  0  0  0  0  0
  160.5630  207.1700  149.1500 O   0  0  0  0  0  0  0  0  0  0  0  0
  161.3100  207.4920  148.0060 C   0  0  2  0  0  3  0  0  0  0  0  0
  162.0190  206.2430  147.5180 C   0  0  2  0  0  3  0  0  0  0  0  0
  160.2620  205.8030  149.0380 C   0  0  2  0  0  3  0  0  0  0  0  0
  160.5510  205.9990  145.5200 C   0  0  0  0  0  1  0  0  0  0  0  0
  161.9930  206.0720  145.9880 C   0  0  2  0  0  3  0  0  0  0  0  0
  162.7820  204.8560  145.4760 C   0  0  0  0  0  3  0  0  0  0  0  0
  163.8230  204.5500  146.3550 O   0  0  0  0  0  1  0  0  0  0  0  0
  161.9460  203.7410  145.3580 O   0  0  0  0  0  1  0  0  0  0  0  0
  162.3320  208.5620  148.3470 C   0  0  0  0  0  2  0  0  0  0  0  0
  161.8830  209.8570  147.8570 N   0  0  0  0  0  2  0  0  0  0  0  0
  161.9740  211.0490  148.6410 C   0  0  0  0  0  0  0  0  0  0  0  0
  162.4210  211.0000  149.8190 O   0  0  0  0  0  0  0  0  0  0  0  0
  160.7600  212.4540  146.9830 N   0  0  0  0  0  0  0  0  0  0  0  0
  161.5210  212.3300  148.0840 C   0  0  2  0  0  3  0  0  0  0  0  0
  161.8370  213.5840  148.5570 C   0  0  0  0  0  3  0  0  0  0  0  0
  160.6090  213.7510  146.7890 N   0  0  0  0  0  0  0  0  0  0  0  0
  161.2420  214.4520  147.7180 N   0  0  0  0  0  0  0  0  0  0  0  0
  1 32  1  6  0  0  0
  1  7  1  0  0  0  0
  2  1  1  6  0  0  0
  2  3  1  0  0  0  0
  4  5  1  1  0  0  0
  4  2  1  0  0  0  0
  4  3  1  0  0  0  0
  6  5  1  0  0  0  0
  7  8  1  0  0  0  0
  8  9  1  0  0  0  0
  9 12  1  0  0  0  0
 10 11  1  0  0  0  0
 11 29  1  0  0  0  0
 12 16  1  0  0  0  0
 12 11  2  0  0  0  0
 13 19  1  0  0  0  0
 14 13  2  0  0  0  0
 15 17  1  0  0  0  0
 15 14  1  0  0  0  0
 17 18  2  0  0  0  0
 18 13  1  0  0  0  0
 18 16  1  0  0  0  0
 20 19  1  1  0  0  0
 20 26  1  0  0  0  0
 21 25  1  1  0  0  0
 21 22  1  0  0  0  0
 23 24  1  0  0  0  0
 24 25  1  0  0  0  0
 26 22  1  0  0  0  0
 27 23  1  1  0  0  0
 27 20  1  0  0  0  0
 27 21  1  0  0  0  0
 29 28  1  6  0  0  0
 29 30  1  0  0  0  0
 30 31  1  0  0  0  0
 33 37  1  0  0  0  0
 35 43  1  1  0  0  0
 35 34  1  0  0  0  0
 36 39  1  6  0  0  0
 36 35  1  0  0  0  0
 36 33  1  0  0  0  0
 37 34  1  0  0  0  0
 37 32  1  1  0  0  0
 39 38  1  1  0  0  0
 40 39  1  0  0  0  0
 40 41  1  0  0  0  0
 42 40  1  0  0  0  0
 44 43  1  0  0  0  0
 44 45  1  0  0  0  0
 45 46  2  0  0  0  0
 47 48  1  0  0  0  0
 48 49  1  0  0  0  0
 48 45  1  6  0  0  0
 50 47  2  0  0  0  0
 50 51  1  0  0  0  0
 51 49  2  0  0  0  0
M  END
>  <MODEL>
5

>  <REMARK>
 VINA RESULT:      -4.6      3.572      7.301
  Name = 
  18 active torsions:
  status: ('A' for Active; 'I' for Inactive)
    1  A    between atoms: C_1  and  C_12
    2  A    between atoms: C_2  and  N_11
    3  A    between atoms: C_2  and  C_31
    4  A    between atoms: C_4  and  C_12
    5  A    between atoms: C_5  and  C_40
    6  A    between atoms: C_7  and  C_40
    7  A    between atoms: C_7  and  C_45
    8  A    between atoms: C_8  and  C_39
    9  A    between atoms: O_10  and  C_49
   10  A    between atoms: O_10  and  C_50
   11  A    between atoms: C_13  and  C_28
   12  A    between atoms: O_14  and  C_47
   13  A    between atoms: N_18  and  C_40
   14  A    between atoms: N_18  and  C_50
   15  A    between atoms: N_22  and  C_49
   16  A    between atoms: O_26  and  C_36
   17  A    between atoms: C_27  and  C_47
   18  A    between atoms: C_39  and  C_41
                            x       y       z     vdW  Elec       q    Type
                         _______ _______ _______ _____ _____    ______ ____

>  <TORSDO>
F 18

$$$$
=
 OpenBabel11072410233D

 51 56  0  0  1  0  0  0  0  0999 V2000
  160.6440  211.8670  151.6290 C   0  0  2  0  0  3  0  0  0  0  0  0
  159.7240  212.8300  150.8880 C   0  0  1  0  0  3  0  0  0  0  0  0
  160.1710  214.2580  151.1440 C   0  0  0  0  0  2  0  0  0  0  0  0
  160.5030  213.5920  149.8270 C   0  0  2  0  0  3  0  0  0  0  0  0
  159.6250  214.0510  148.8470 O   0  0  0  0  0  0  0  0  0  0  0  0
  160.2210  213.6760  147.6380 C   0  0  0  0  0  1  0  0  0  0  0  0
  161.1600  210.8530  150.7170 N   0  0  0  0  0  2  0  0  0  0  0  0
  161.5430  209.6910  151.5050 C   0  0  0  0  0  2  0  0  0  0  0  0
  162.4330  208.8650  150.7640 O   0  0  0  0  0  0  0  0  0  0  0  0
  162.0390  209.4800  148.0930 C   0  0  0  0  0  1  0  0  0  0  0  0
  161.7980  208.1030  148.6180 C   0  0  0  0  0  0  0  0  0  0  0  0
  161.9960  207.8370  149.9170 C   0  0  0  0  0  0  0  0  0  0  0  0
  161.4020  204.9060  152.2780 C   0  0  0  0  0  0  0  0  0  0  0  0
  160.9150  205.0110  153.5250 N   0  0  0  0  0  0  0  0  0  0  0  0
  160.6920  206.2860  153.7060 O   0  0  0  0  0  0  0  0  0  0  0  0
  161.8030  206.5010  150.4060 N   0  0  0  0  0  2  0  0  0  0  0  0
  160.9820  207.0270  152.6700 N   0  0  0  0  0  0  0  0  0  0  0  0
  161.4460  206.1660  151.7490 C   0  0  0  0  0  0  0  0  0  0  0  0
  161.7270  203.6210  151.5840 C   0  0  0  0  0  2  0  0  0  0  0  0
  160.6950  203.3070  150.5050 C   0  0  2  0  0  3  0  0  0  0  0  0
  161.5410  201.5860  148.8960 C   0  0  1  0  0  3  0  0  0  0  0  0
  161.0450  200.8010  150.0970 C   0  0  0  0  0  2  0  0  0  0  0  0
  160.5110  203.6280  148.0400 C   0  0  0  0  0  2  0  0  0  0  0  0
  160.5100  202.5740  146.9550 C   0  0  0  0  0  2  0  0  0  0  0  0
  160.7040  201.2590  147.6730 C   0  0  0  0  0  2  0  0  0  0  0  0
  159.7960  201.7960  150.9610 S   0  0  0  0  0  0  0  0  0  0  0  0
  161.3760  203.0770  149.1600 C   0  0  1  0  0  3  0  0  0  0  0  0
  160.0730  206.5480  147.9450 F   0  0  0  0  0  0  0  0  0  0  0  0
  161.3490  207.0180  147.6650 C   0  0  2  0  0  3  0  0  0  0  0  0
  162.2920  205.9760  147.5410 O   0  0  0  0  0  0  0  0  0  0  0  0
  162.5160  205.7420  146.1760 C   0  0  0  0  0  1  0  0  0  0  0  0
  159.8780  211.1700  152.7490 C   0  0  0  0  0  2  0  0  0  0  0  0
  160.2940  209.8440  154.8430 C   0  0  0  0  0  2  0  0  0  0  0  0
  160.5150  212.2190  154.8330 O   0  0  0  0  0  0  0  0  0  0  0  0
  160.6900  211.8000  156.1600 C   0  0  2  0  0  3  0  0  0  0  0  0
  160.3240  210.3310  156.2610 C   0  0  2  0  0  3  0  0  0  0  0  0
  160.6800  211.0690  154.0430 C   0  0  2  0  0  3  0  0  0  0  0  0
  162.7190  209.8470  156.7530 C   0  0  0  0  0  1  0  0  0  0  0  0
  161.2890  209.5100  157.1360 C   0  0  2  0  0  3  0  0  0  0  0  0
  161.0640  207.9900  157.0690 C   0  0  0  0  0  3  0  0  0  0  0  0
  159.7110  207.7110  156.8660 O   0  0  0  0  0  1  0  0  0  0  0  0
  161.8050  207.4290  156.0240 O   0  0  0  0  0  1  0  0  0  0  0  0
  159.7960  212.6150  157.0770 C   0  0  0  0  0  2  0  0  0  0  0  0
  158.7030  213.2030  156.3170 N   0  0  0  0  0  2  0  0  0  0  0  0
  157.4210  212.5790  156.2040 C   0  0  0  0  0  0  0  0  0  0  0  0
  157.2140  211.4570  156.7410 O   0  0  0  0  0  0  0  0  0  0  0  0
  156.4190  213.5080  154.1240 N   0  0  0  0  0  0  0  0  0  0  0  0
  156.3530  213.2310  155.4370 C   0  0  2  0  0  3  0  0  0  0  0  0
  155.1590  213.7000  155.9380 C   0  0  0  0  0  3  0  0  0  0  0  0
  155.2920  214.1280  153.8250 N   0  0  0  0  0  0  0  0  0  0  0  0
  154.5170  214.2550  154.8930 N   0  0  0  0  0  0  0  0  0  0  0  0
  1 32  1  1  0  0  0
  2  3  1  0  0  0  0
  2  1  1  1  0  0  0
  4  5  1  6  0  0  0
  4  2  1  0  0  0  0
  4  3  1  0  0  0  0
  6  5  1  0  0  0  0
  7  8  1  0  0  0  0
  7  1  1  0  0  0  0
  9  8  1  0  0  0  0
 10 11  1  0  0  0  0
 11 12  2  0  0  0  0
 12 16  1  0  0  0  0
 12  9  1  0  0  0  0
 13 14  2  0  0  0  0
 14 15  1  0  0  0  0
 16 18  1  0  0  0  0
 17 15  1  0  0  0  0
 18 13  1  0  0  0  0
 18 17  2  0  0  0  0
 19 13  1  0  0  0  0
 20 26  1  0  0  0  0
 20 19  1  1  0  0  0
 21 25  1  6  0  0  0
 21 27  1  0  0  0  0
 21 22  1  0  0  0  0
 22 26  1  0  0  0  0
 24 25  1  0  0  0  0
 24 23  1  0  0  0  0
 27 23  1  6  0  0  0
 27 20  1  0  0  0  0
 29 28  1  1  0  0  0
 29 11  1  0  0  0  0
 30 29  1  0  0  0  0
 31 30  1  0  0  0  0
 33 36  1  0  0  0  0
 34 35  1  0  0  0  0
 35 36  1  0  0  0  0
 35 43  1  1  0  0  0
 36 39  1  1  0  0  0
 37 32  1  6  0  0  0
 37 34  1  0  0  0  0
 37 33  1  0  0  0  0
 39 38  1  6  0  0  0
 40 39  1  0  0  0  0
 41 40  1  0  0  0  0
 42 40  1  0  0  0  0
 44 43  1  0  0  0  0
 45 44  1  0  0  0  0
 45 46  2  0  0  0  0
 47 48  1  0  0  0  0
 48 49  1  0  0  0  0
 48 45  1  1  0  0  0
 50 47  2  0  0  0  0
 50 51  1  0  0  0  0
 51 49  2  0  0  0  0
M  END
>  <MODEL>
6

>  <REMARK>
 VINA RESULT:      -4.3      3.753     10.986
  Name = 
  18 active torsions:
  status: ('A' for Active; 'I' for Inactive)
    1  A    between atoms: C_1  and  C_12
    2  A    between atoms: C_2  and  N_11
    3  A    between atoms: C_2  and  C_31
    4  A    between atoms: C_4  and  C_12
    5  A    between atoms: C_5  and  C_40
    6  A    between atoms: C_7  and  C_40
    7  A    between atoms: C_7  and  C_45
    8  A    between atoms: C_8  and  C_39
    9  A    between atoms: O_10  and  C_49
   10  A    between atoms: O_10  and  C_50
   11  A    between atoms: C_13  and  C_28
   12  A    between atoms: O_14  and  C_47
   13  A    between atoms: N_18  and  C_40
   14  A    between atoms: N_18  and  C_50
   15  A    between atoms: N_22  and  C_49
   16  A    between atoms: O_26  and  C_36
   17  A    between atoms: C_27  and  C_47
   18  A    between atoms: C_39  and  C_41
                            x       y       z     vdW  Elec       q    Type
                         _______ _______ _______ _____ _____    ______ ____

>  <TORSDO>
F 18

$$$$
=
 OpenBabel11072410233D

 51 56  0  0  1  0  0  0  0  0999 V2000
  160.1860  211.9210  151.6330 C   0  0  2  0  0  3  0  0  0  0  0  0
  158.9640  212.8220  151.4970 C   0  0  1  0  0  3  0  0  0  0  0  0
  157.7530  212.1280  152.0920 C   0  0  0  0  0  2  0  0  0  0  0  0
  158.4500  213.2220  152.8710 C   0  0  2  0  0  3  0  0  0  0  0  0
  157.7130  214.4000  152.7660 O   0  0  0  0  0  0  0  0  0  0  0  0
  156.8300  214.3590  153.8500 C   0  0  0  0  0  1  0  0  0  0  0  0
  160.7860  212.0730  152.9530 N   0  0  0  0  0  2  0  0  0  0  0  0
  161.1160  210.7460  153.4540 C   0  0  0  0  0  2  0  0  0  0  0  0
  160.6400  209.7500  152.5570 O   0  0  0  0  0  0  0  0  0  0  0  0
  160.2890  208.7710  155.1220 C   0  0  0  0  0  1  0  0  0  0  0  0
  160.6760  207.8730  153.9930 C   0  0  0  0  0  0  0  0  0  0  0  0
  160.8400  208.3780  152.7630 C   0  0  0  0  0  0  0  0  0  0  0  0
  161.6960  207.1230  149.2680 C   0  0  0  0  0  0  0  0  0  0  0  0
  162.1330  207.8960  148.2600 N   0  0  0  0  0  0  0  0  0  0  0  0
  162.2050  209.1040  148.7540 O   0  0  0  0  0  0  0  0  0  0  0  0
  161.1700  207.5010  151.6740 N   0  0  0  0  0  2  0  0  0  0  0  0
  161.8620  209.1850  150.0120 N   0  0  0  0  0  0  0  0  0  0  0  0
  161.5250  207.9320  150.3580 C   0  0  0  0  0  0  0  0  0  0  0  0
  161.5400  205.6370  149.2100 C   0  0  0  0  0  2  0  0  0  0  0  0
  160.9150  205.2050  147.8870 C   0  0  2  0  0  3  0  0  0  0  0  0
  162.6470  204.9170  146.1020 C   0  0  1  0  0  3  0  0  0  0  0  0
  162.6870  203.6320  146.9090 C   0  0  0  0  0  2  0  0  0  0  0  0
  160.6270  206.2020  145.6200 C   0  0  0  0  0  2  0  0  0  0  0  0
  161.2720  205.7760  144.3190 C   0  0  0  0  0  2  0  0  0  0  0  0
  162.1900  204.6320  144.6830 C   0  0  0  0  0  2  0  0  0  0  0  0
  161.0740  203.4050  147.7110 S   0  0  0  0  0  0  0  0  0  0  0  0
  161.6280  205.8700  146.7130 C   0  0  1  0  0  3  0  0  0  0  0  0
  161.0330  206.1040  155.6020 F   0  0  0  0  0  0  0  0  0  0  0  0
  160.8580  206.3960  154.2560 C   0  0  2  0  0  3  0  0  0  0  0  0
  161.8590  205.8170  153.4460 O   0  0  0  0  0  0  0  0  0  0  0  0
  161.3100  204.7040  152.7920 C   0  0  0  0  0  1  0  0  0  0  0  0
  161.2270  212.2900  150.5800 C   0  0  0  0  0  2  0  0  0  0  0  0
  159.7450  212.5650  148.5690 C   0  0  0  0  0  2  0  0  0  0  0  0
  161.7380  213.8530  148.8070 O   0  0  0  0  0  0  0  0  0  0  0  0
  161.2110  214.1490  147.5410 C   0  0  2  0  0  3  0  0  0  0  0  0
  160.0800  213.1820  147.2440 C   0  0  2  0  0  3  0  0  0  0  0  0
  160.6910  213.2560  149.5270 C   0  0  2  0  0  3  0  0  0  0  0  0
  157.8260  214.1620  147.6550 C   0  0  0  0  0  1  0  0  0  0  0  0
  158.8550  213.8440  146.5850 C   0  0  2  0  0  3  0  0  0  0  0  0
  158.2170  213.0100  145.4620 C   0  0  0  0  0  3  0  0  0  0  0  0
  159.1230  212.0590  144.9910 O   0  0  0  0  0  1  0  0  0  0  0  0
  157.0710  212.3550  145.9270 O   0  0  0  0  0  1  0  0  0  0  0  0
  162.2960  214.0060  146.4880 C   0  0  0  0  0  2  0  0  0  0  0  0
  161.7020  213.9510  145.1610 N   0  0  0  0  0  2  0  0  0  0  0  0
  162.4820  214.0340  143.9650 C   0  0  0  0  0  0  0  0  0  0  0  0
  163.7300  214.2010  144.0330 O   0  0  0  0  0  0  0  0  0  0  0  0
  160.5340  214.2530  142.4310 N   0  0  0  0  0  0  0  0  0  0  0  0
  161.8250  213.9550  142.6550 C   0  0  2  0  0  3  0  0  0  0  0  0
  162.3990  213.5220  141.4800 C   0  0  0  0  0  3  0  0  0  0  0  0
  160.3220  214.0140  141.1500 N   0  0  0  0  0  0  0  0  0  0  0  0
  161.4220  213.5760  140.5540 N   0  0  0  0  0  0  0  0  0  0  0  0
  1 32  1  6  0  0  0
  1  7  1  0  0  0  0
  2  1  1  1  0  0  0
  2  3  1  0  0  0  0
  2  4  1  0  0  0  0
  3  4  1  0  0  0  0
  4  5  1  6  0  0  0
  5  6  1  0  0  0  0
  7  8  1  0  0  0  0
  9 12  1  0  0  0  0
  9  8  1  0  0  0  0
 11 29  1  0  0  0  0
 11 10  1  0  0  0  0
 12 11  2  0  0  0  0
 13 18  1  0  0  0  0
 14 15  1  0  0  0  0
 14 13  2  0  0  0  0
 15 17  1  0  0  0  0
 16 12  1  0  0  0  0
 17 18  2  0  0  0  0
 18 16  1  0  0  0  0
 19 13  1  0  0  0  0
 20 19  1  1  0  0  0
 21 25  1  6  0  0  0
 21 27  1  0  0  0  0
 21 22  1  0  0  0  0
 22 26  1  0  0  0  0
 24 25  1  0  0  0  0
 24 23  1  0  0  0  0
 26 20  1  0  0  0  0
 27 23  1  6  0  0  0
 27 20  1  0  0  0  0
 29 28  1  1  0  0  0
 30 29  1  0  0  0  0
 31 30  1  0  0  0  0
 33 37  1  0  0  0  0
 34 37  1  0  0  0  0
 35 43  1  6  0  0  0
 35 34  1  0  0  0  0
 36 39  1  1  0  0  0
 36 35  1  0  0  0  0
 36 33  1  0  0  0  0
 37 32  1  1  0  0  0
 39 38  1  1  0  0  0
 40 42  1  0  0  0  0
 40 39  1  0  0  0  0
 41 40  1  0  0  0  0
 44 43  1  0  0  0  0
 45 46  2  0  0  0  0
 45 44  1  0  0  0  0
 47 48  1  0  0  0  0
 48 45  1  1  0  0  0
 49 48  1  0  0  0  0
 50 47  2  0  0  0  0
 51 50  1  0  0  0  0
 51 49  2  0  0  0  0
M  END
>  <MODEL>
7

>  <REMARK>
 VINA RESULT:      -3.7      3.783      8.952
  Name = 
  18 active torsions:
  status: ('A' for Active; 'I' for Inactive)
    1  A    between atoms: C_1  and  C_12
    2  A    between atoms: C_2  and  N_11
    3  A    between atoms: C_2  and  C_31
    4  A    between atoms: C_4  and  C_12
    5  A    between atoms: C_5  and  C_40
    6  A    between atoms: C_7  and  C_40
    7  A    between atoms: C_7  and  C_45
    8  A    between atoms: C_8  and  C_39
    9  A    between atoms: O_10  and  C_49
   10  A    between atoms: O_10  and  C_50
   11  A    between atoms: C_13  and  C_28
   12  A    between atoms: O_14  and  C_47
   13  A    between atoms: N_18  and  C_40
   14  A    between atoms: N_18  and  C_50
   15  A    between atoms: N_22  and  C_49
   16  A    between atoms: O_26  and  C_36
   17  A    between atoms: C_27  and  C_47
   18  A    between atoms: C_39  and  C_41
                            x       y       z     vdW  Elec       q    Type
                         _______ _______ _______ _____ _____    ______ ____

>  <TORSDO>
F 18

$$$$
=
 OpenBabel11072410233D

 51 56  0  0  1  0  0  0  0  0999 V2000
  161.7710  207.6760  148.5870 C   0  0  2  0  0  3  0  0  0  0  0  0
  162.3300  206.8520  147.4330 C   0  0  1  0  0  3  0  0  0  0  0  0
  162.0200  205.3840  147.6610 C   0  0  0  0  0  2  0  0  0  0  0  0
  161.1990  206.1790  146.6710 C   0  0  2  0  0  3  0  0  0  0  0  0
  161.6250  205.8790  145.3780 O   0  0  0  0  0  0  0  0  0  0  0  0
  160.6500  205.0070  144.8810 C   0  0  0  0  0  1  0  0  0  0  0  0
  161.9220  209.1010  148.3140 N   0  0  0  0  0  2  0  0  0  0  0  0
  162.2030  209.7740  149.5740 C   0  0  0  0  0  2  0  0  0  0  0  0
  161.0070  210.3190  150.1180 O   0  0  0  0  0  0  0  0  0  0  0  0
  161.3640  211.9710  147.9260 C   0  0  0  0  0  1  0  0  0  0  0  0
  160.9720  212.5200  149.2580 C   0  0  0  0  0  0  0  0  0  0  0  0
  160.8080  211.6940  150.3010 C   0  0  0  0  0  0  0  0  0  0  0  0
  160.2080  212.0510  154.0460 C   0  0  0  0  0  0  0  0  0  0  0  0
  160.8450  211.3470  154.9970 N   0  0  0  0  0  0  0  0  0  0  0  0
  161.6830  210.5750  154.3560 O   0  0  0  0  0  0  0  0  0  0  0  0
  160.3890  212.2250  151.5680 N   0  0  0  0  0  2  0  0  0  0  0  0
  161.6560  210.7250  153.0580 N   0  0  0  0  0  0  0  0  0  0  0  0
  160.7140  211.6560  152.8390 C   0  0  0  0  0  0  0  0  0  0  0  0
  159.2110  213.1350  154.3000 C   0  0  0  0  0  2  0  0  0  0  0  0
  158.3990  212.8470  155.5590 C   0  0  2  0  0  3  0  0  0  0  0  0
  155.9380  212.9880  155.1190 C   0  0  1  0  0  3  0  0  0  0  0  0
  156.3500  211.6070  154.6420 C   0  0  0  0  0  2  0  0  0  0  0  0
  156.8800  214.1350  157.0580 C   0  0  0  0  0  2  0  0  0  0  0  0
  155.3890  213.9680  157.2510 C   0  0  0  0  0  2  0  0  0  0  0  0
  154.9810  212.8740  156.2910 C   0  0  0  0  0  2  0  0  0  0  0  0
  157.8540  211.1150  155.5340 S   0  0  0  0  0  0  0  0  0  0  0  0
  157.1640  213.7410  155.6200 C   0  0  1  0  0  3  0  0  0  0  0  0
  160.7820  214.4320  150.7250 F   0  0  0  0  0  0  0  0  0  0  0  0
  160.7450  214.0080  149.4040 C   0  0  2  0  0  3  0  0  0  0  0  0
  159.5890  214.4530  148.7280 O   0  0  0  0  0  0  0  0  0  0  0  0
  158.4660  213.9050  149.3640 C   0  0  0  0  0  1  0  0  0  0  0  0
  162.5190  207.3460  149.8750 C   0  0  0  0  0  2  0  0  0  0  0  0
  162.2960  206.8950  152.3370 C   0  0  0  0  0  2  0  0  0  0  0  0
  161.0850  205.6010  150.7410 O   0  0  0  0  0  0  0  0  0  0  0  0
  160.8410  205.0280  151.9980 C   0  0  2  0  0  3  0  0  0  0  0  0
  161.7730  205.6630  153.0140 C   0  0  2  0  0  3  0  0  0  0  0  0
  161.5930  206.8850  150.9970 C   0  0  2  0  0  3  0  0  0  0  0  0
  159.6260  205.6200  154.2780 C   0  0  0  0  0  1  0  0  0  0  0  0
  161.0980  205.9830  154.3600 C   0  0  2  0  0  3  0  0  0  0  0  0
  161.2620  207.4410  154.8180 C   0  0  0  0  0  3  0  0  0  0  0  0
  160.0270  208.0920  154.8120 O   0  0  0  0  0  1  0  0  0  0  0  0
  161.7980  207.4950  156.1090 O   0  0  0  0  0  1  0  0  0  0  0  0
  161.0930  203.5320  151.9370 C   0  0  0  0  0  2  0  0  0  0  0  0
  161.1920  203.0980  150.5510 N   0  0  0  0  0  2  0  0  0  0  0  0
  160.8040  201.7900  150.1260 C   0  0  0  0  0  0  0  0  0  0  0  0
  160.3920  200.9460  150.9670 O   0  0  0  0  0  0  0  0  0  0  0  0
  161.5630  200.3330  148.2560 N   0  0  0  0  0  0  0  0  0  0  0  0
  160.9120  201.4170  148.7100 C   0  0  2  0  0  3  0  0  0  0  0  0
  160.4200  202.1300  147.6390 C   0  0  0  0  0  3  0  0  0  0  0  0
  161.4690  200.3760  146.9390 N   0  0  0  0  0  0  0  0  0  0  0  0
  160.7870  201.4410  146.5420 N   0  0  0  0  0  0  0  0  0  0  0  0
  1 32  1  1  0  0  0
  2  3  1  0  0  0  0
  2  1  1  1  0  0  0
  4  5  1  6  0  0  0
  4  2  1  0  0  0  0
  4  3  1  0  0  0  0
  6  5  1  0  0  0  0
  7  1  1  0  0  0  0
  7  8  1  0  0  0  0
  8  9  1  0  0  0  0
  9 12  1  0  0  0  0
 10 11  1  0  0  0  0
 11 29  1  0  0  0  0
 11 12  2  0  0  0  0
 12 16  1  0  0  0  0
 13 19  1  0  0  0  0
 13 14  2  0  0  0  0
 15 14  1  0  0  0  0
 16 18  1  0  0  0  0
 17 15  1  0  0  0  0
 18 17  2  0  0  0  0
 18 13  1  0  0  0  0
 20 19  1  6  0  0  0
 20 27  1  0  0  0  0
 21 22  1  1  0  0  0
 21 27  1  0  0  0  0
 21 25  1  0  0  0  0
 22 26  1  0  0  0  0
 23 24  1  0  0  0  0
 25 24  1  0  0  0  0
 26 20  1  0  0  0  0
 27 23  1  1  0  0  0
 29 28  1  1  0  0  0
 30 31  1  0  0  0  0
 30 29  1  0  0  0  0
 33 36  1  0  0  0  0
 34 37  1  0  0  0  0
 34 35  1  0  0  0  0
 35 43  1  6  0  0  0
 35 36  1  0  0  0  0
 36 39  1  1  0  0  0
 37 32  1  6  0  0  0
 37 33  1  0  0  0  0
 39 38  1  6  0  0  0
 39 40  1  0  0  0  0
 40 42  1  0  0  0  0
 41 40  1  0  0  0  0
 44 43  1  0  0  0  0
 45 44  1  0  0  0  0
 45 46  2  0  0  0  0
 47 48  1  0  0  0  0
 48 45  1  6  0  0  0
 49 48  1  0  0  0  0
 50 47  2  0  0  0  0
 51 50  1  0  0  0  0
 51 49  2  0  0  0  0
M  END
>  <MODEL>
8

>  <REMARK>
 VINA RESULT:      -3.5      2.415      6.776
  Name = 
  18 active torsions:
  status: ('A' for Active; 'I' for Inactive)
    1  A    between atoms: C_1  and  C_12
    2  A    between atoms: C_2  and  N_11
    3  A    between atoms: C_2  and  C_31
    4  A    between atoms: C_4  and  C_12
    5  A    between atoms: C_5  and  C_40
    6  A    between atoms: C_7  and  C_40
    7  A    between atoms: C_7  and  C_45
    8  A    between atoms: C_8  and  C_39
    9  A    between atoms: O_10  and  C_49
   10  A    between atoms: O_10  and  C_50
   11  A    between atoms: C_13  and  C_28
   12  A    between atoms: O_14  and  C_47
   13  A    between atoms: N_18  and  C_40
   14  A    between atoms: N_18  and  C_50
   15  A    between atoms: N_22  and  C_49
   16  A    between atoms: O_26  and  C_36
   17  A    between atoms: C_27  and  C_47
   18  A    between atoms: C_39  and  C_41
                            x       y       z     vdW  Elec       q    Type
                         _______ _______ _______ _____ _____    ______ ____

>  <TORSDO>
F 18

$$$$
