=
 OpenBabel11072413353D

 43 48  0  0  1  0  0  0  0  0999 V2000
  160.6280  204.1160  143.7600 O   0  0  0  0  0  1  0  0  0  0  0  0
  161.4310  204.6710  147.1730 C   0  0  1  0  0  3  0  0  0  0  0  0
  160.7420  203.1010  151.1520 C   0  0  0  0  0  0  0  0  0  0  0  0
  162.0890  208.2050  148.3440 C   0  0  0  0  0  3  0  0  0  0  0  0
  161.2380  204.1380  148.5840 C   0  0  0  0  0  0  0  0  0  0  0  0
  162.0010  209.0170  149.5710 C   0  0  0  0  0  0  0  0  0  0  0  0
  160.4570  202.6060  152.4180 O   0  0  0  0  0  1  0  0  0  0  0  0
  160.4820  204.0900  146.1300 C   0  0  0  0  0  0  0  0  0  0  0  0
  160.4600  207.3250  150.5260 C   0  0  0  0  0  2  0  0  0  0  0  0
  161.2690  208.5930  150.6100 C   0  0  0  0  0  0  0  0  0  0  0  0
  160.8890  205.0030  149.6420 C   0  0  0  0  0  0  0  0  0  0  0  0
  161.1610  209.3960  151.7830 N   0  0  0  0  0  1  0  0  0  0  0  0
  160.9390  206.4280  149.4650 N   0  0  0  0  0  0  0  0  0  0  0  0
  160.6270  204.4680  150.9110 C   0  0  0  0  0  3  0  0  0  0  0  0
  160.8690  206.2000  144.8860 C   0  0  0  0  0  2  0  0  0  0  0  0
  161.4420  202.7670  148.8550 C   0  0  0  0  0  0  0  0  0  0  0  0
  161.5800  206.9740  148.3030 C   0  0  0  0  0  0  0  0  0  0  0  0
  160.6620  206.7890  146.1390 O   0  0  0  0  0  0  0  0  0  0  0  0
  161.3480  200.7900  150.4020 C   0  0  0  0  0  1  0  0  0  0  0  0
  161.6100  206.2160  147.0150 C   0  0  2  0  0  3  0  0  0  0  0  0
  159.9840  202.9860  146.2860 O   0  0  0  0  0  0  0  0  0  0  0  0
  161.1710  202.2490  150.1300 C   0  0  0  0  0  0  0  0  0  0  0  0
  161.9240  201.9210  147.8640 O   0  0  0  0  0  1  0  0  0  0  0  0
  160.1790  204.8430  144.8630 C   0  0  1  0  0  3  0  0  0  0  0  0
  162.6690  210.2400  149.6490 O   0  0  0  0  0  0  0  0  0  0  0  0
  162.6880  211.0910  148.6150 O   0  0  0  0  0  0  0  0  0  0  0  0
  161.5550  211.8810  148.7980 C   0  0  0  0  0  2  0  0  0  0  0  0
  161.0380  213.9840  146.3940 C   0  0  2  0  0  3  0  0  0  0  0  0
  162.3890  213.4330  146.2770 N   0  0  0  0  0  2  0  0  0  0  0  0
  161.8900  213.3470  148.5370 C   0  0  1  0  0  3  0  0  0  0  0  0
  162.9730  213.4150  147.5640 N   0  0  0  0  0  2  0  0  0  0  0  0
  160.7660  214.1050  147.8780 C   0  0  2  0  0  3  0  0  0  0  0  0
  157.8500  213.6120  150.2630 C   0  0  0  0  0  3  0  0  0  0  0  0
  155.1430  213.9290  150.1360 Cl  0  0  0  0  0  0  0  0  0  0  0  0
  158.2510  214.4530  147.6250 C   0  0  0  0  0  3  0  0  0  0  0  0
  159.1430  213.6530  149.7280 C   0  0  0  0  0  3  0  0  0  0  0  0
  156.9600  214.4130  148.1580 C   0  0  0  0  0  3  0  0  0  0  0  0
  159.3530  214.0700  148.4060 C   0  0  0  0  0  0  0  0  0  0  0  0
  156.7600  213.9910  149.4760 C   0  0  0  0  0  0  0  0  0  0  0  0
  159.8880  212.9520  145.4800 S   0  0  0  0  0  0  0  0  0  0  0  0
  160.6330  212.2040  144.4090 O   0  0  0  0  0  0  0  0  0  0  0  0
  158.5810  213.8990  144.7270 C   0  0  0  0  0  1  0  0  0  0  0  0
  159.2720  211.9590  146.4270 O   0  0  0  0  0  0  0  0  0  0  0  0
  2  8  1  6  0  0  0
  2  5  1  0  0  0  0
  3  7  1  0  0  0  0
  4  6  1  0  0  0  0
  5 16  2  0  0  0  0
  5 11  1  0  0  0  0
  6 25  1  0  0  0  0
  6 10  2  0  0  0  0
  8 21  2  0  0  0  0
  9 10  1  0  0  0  0
 10 12  1  0  0  0  0
 11 14  2  0  0  0  0
 13 11  1  0  0  0  0
 13  9  1  0  0  0  0
 14  3  1  0  0  0  0
 15 18  1  0  0  0  0
 16 22  1  0  0  0  0
 17  4  2  0  0  0  0
 17 13  1  0  0  0  0
 20 18  1  6  0  0  0
 20  2  1  0  0  0  0
 20 17  1  0  0  0  0
 22 19  1  0  0  0  0
 22  3  2  0  0  0  0
 23 16  1  0  0  0  0
 24  1  1  6  0  0  0
 24 15  1  0  0  0  0
 24  8  1  0  0  0  0
 26 27  1  0  0  0  0
 26 25  1  0  0  0  0
 28 40  1  1  0  0  0
 28 32  1  0  0  0  0
 29 28  1  0  0  0  0
 29 31  1  0  0  0  0
 30 27  1  6  0  0  0
 31 30  1  0  0  0  0
 32 38  1  6  0  0  0
 32 30  1  0  0  0  0
 35 37  2  0  0  0  0
 35 38  1  0  0  0  0
 36 33  1  0  0  0  0
 37 39  1  0  0  0  0
 38 36  2  0  0  0  0
 39 34  1  0  0  0  0
 39 33  2  0  0  0  0
 40 43  2  0  0  0  0
 41 40  2  0  0  0  0
 42 40  1  0  0  0  0
M  END
>  <MODEL>
1

>  <REMARK>
 VINA RESULT:      -6.0      0.000      0.000
  Name = 
  6 active torsions:
  status: ('A' for Active; 'I' for Inactive)
    1  A    between atoms: C_8  and  O_16
    2  A    between atoms: C_12  and  C_33
    3  A    between atoms: C_12  and  O_42
    4  A    between atoms: O_16  and  O_42
    5  A    between atoms: S_18  and  C_23
    6  A    between atoms: C_25  and  C_41
                            x       y       z     vdW  Elec       q    Type
                         _______ _______ _______ _____ _____    ______ ____

>  <TORSDO>
F 6

$$$$
=
 OpenBabel11072413353D

 43 48  0  0  1  0  0  0  0  0999 V2000
  160.9050  202.4430  152.7410 O   0  0  0  0  0  1  0  0  0  0  0  0
  160.8430  204.9860  150.2640 C   0  0  1  0  0  3  0  0  0  0  0  0
  162.0680  205.8330  146.1950 C   0  0  0  0  0  0  0  0  0  0  0  0
  160.8790  208.6040  151.3580 C   0  0  0  0  0  3  0  0  0  0  0  0
  161.2310  205.3150  148.8310 C   0  0  0  0  0  0  0  0  0  0  0  0
  161.3020  209.9250  150.8580 C   0  0  0  0  0  0  0  0  0  0  0  0
  162.5230  206.0910  144.9080 O   0  0  0  0  0  1  0  0  0  0  0  0
  161.4940  203.7290  150.8330 C   0  0  0  0  0  0  0  0  0  0  0  0
  162.7670  208.7840  149.2140 C   0  0  0  0  0  2  0  0  0  0  0  0
  162.1580  210.0160  149.8310 C   0  0  0  0  0  0  0  0  0  0  0  0
  161.8820  206.5270  148.5190 C   0  0  0  0  0  0  0  0  0  0  0  0
  162.5890  211.2950  149.3710 N   0  0  0  0  0  1  0  0  0  0  0  0
  161.9830  207.5740  149.4990 N   0  0  0  0  0  0  0  0  0  0  0  0
  162.3100  206.7610  147.2050 C   0  0  0  0  0  3  0  0  0  0  0  0
  161.1520  204.7920  153.0480 C   0  0  0  0  0  2  0  0  0  0  0  0
  160.9080  204.4210  147.7870 C   0  0  0  0  0  0  0  0  0  0  0  0
  161.2090  207.4900  150.7040 C   0  0  0  0  0  0  0  0  0  0  0  0
  161.6680  205.9240  152.4060 O   0  0  0  0  0  0  0  0  0  0  0  0
  161.0390  203.6980  145.3860 C   0  0  0  0  0  1  0  0  0  0  0  0
  160.8380  206.1660  151.2880 C   0  0  2  0  0  3  0  0  0  0  0  0
  161.8670  202.8300  150.0960 O   0  0  0  0  0  0  0  0  0  0  0  0
  161.3470  204.6690  146.4780 C   0  0  0  0  0  0  0  0  0  0  0  0
  160.1410  203.2900  148.0460 O   0  0  0  0  0  1  0  0  0  0  0  0
  161.6450  203.5490  152.3190 C   0  0  1  0  0  3  0  0  0  0  0  0
  160.8240  211.0870  151.4650 O   0  0  0  0  0  0  0  0  0  0  0  0
  159.6170  211.5850  151.1660 O   0  0  0  0  0  0  0  0  0  0  0  0
  158.9920  211.7390  152.4020 C   0  0  0  0  0  2  0  0  0  0  0  0
  158.3570  213.3850  155.1130 C   0  0  2  0  0  3  0  0  0  0  0  0
  158.0020  214.2030  153.9520 N   0  0  0  0  0  2  0  0  0  0  0  0
  159.7030  212.8130  153.2200 C   0  0  1  0  0  3  0  0  0  0  0  0
  159.0370  214.0900  152.9970 N   0  0  0  0  0  2  0  0  0  0  0  0
  159.5860  212.6010  154.7080 C   0  0  2  0  0  3  0  0  0  0  0  0
  160.0910  208.8620  155.1510 C   0  0  0  0  0  3  0  0  0  0  0  0
  160.8450  207.2170  157.1940 Cl  0  0  0  0  0  0  0  0  0  0  0  0
  160.3120  211.1810  156.7000 C   0  0  0  0  0  3  0  0  0  0  0  0
  159.7990  210.1100  154.5910 C   0  0  0  0  0  3  0  0  0  0  0  0
  160.6040  209.9350  157.2610 C   0  0  0  0  0  3  0  0  0  0  0  0
  159.9030  211.2780  155.3600 C   0  0  0  0  0  0  0  0  0  0  0  0
  160.4920  208.7760  156.4870 C   0  0  0  0  0  0  0  0  0  0  0  0
  156.9410  212.3990  155.6090 S   0  0  0  0  0  0  0  0  0  0  0  0
  156.8040  211.2230  154.6820 O   0  0  0  0  0  0  0  0  0  0  0  0
  155.4260  213.3350  155.5900 C   0  0  0  0  0  1  0  0  0  0  0  0
  157.1700  211.8930  157.0060 O   0  0  0  0  0  0  0  0  0  0  0  0
  2  5  1  6  0  0  0
  2  8  1  0  0  0  0
  2 20  1  0  0  0  0
  3 22  2  0  0  0  0
  3 14  1  0  0  0  0
  6  4  1  0  0  0  0
  6 25  1  0  0  0  0
  7  3  1  0  0  0  0
  8 24  1  0  0  0  0
  9 13  1  0  0  0  0
  9 10  1  0  0  0  0
 10  6  2  0  0  0  0
 11  5  1  0  0  0  0
 11 13  1  0  0  0  0
 12 10  1  0  0  0  0
 13 17  1  0  0  0  0
 14 11  2  0  0  0  0
 16 23  1  0  0  0  0
 16  5  2  0  0  0  0
 17  4  2  0  0  0  0
 18 15  1  0  0  0  0
 19 22  1  0  0  0  0
 20 17  1  6  0  0  0
 20 18  1  0  0  0  0
 21  8  2  0  0  0  0
 22 16  1  0  0  0  0
 24  1  1  1  0  0  0
 24 15  1  0  0  0  0
 26 25  1  0  0  0  0
 26 27  1  0  0  0  0
 28 40  1  6  0  0  0
 29 28  1  0  0  0  0
 30 27  1  6  0  0  0
 30 32  1  0  0  0  0
 31 30  1  0  0  0  0
 31 29  1  0  0  0  0
 32 28  1  0  0  0  0
 32 38  1  6  0  0  0
 33 39  1  0  0  0  0
 35 37  1  0  0  0  0
 36 33  2  0  0  0  0
 36 38  1  0  0  0  0
 38 35  2  0  0  0  0
 39 34  1  0  0  0  0
 39 37  2  0  0  0  0
 40 43  2  0  0  0  0
 41 40  2  0  0  0  0
 42 40  1  0  0  0  0
M  END
>  <MODEL>
2

>  <REMARK>
 VINA RESULT:      -6.0      4.411      6.729
  Name = 
  6 active torsions:
  status: ('A' for Active; 'I' for Inactive)
    1  A    between atoms: C_8  and  O_16
    2  A    between atoms: C_12  and  C_33
    3  A    between atoms: C_12  and  O_42
    4  A    between atoms: O_16  and  O_42
    5  A    between atoms: S_18  and  C_23
    6  A    between atoms: C_25  and  C_41
                            x       y       z     vdW  Elec       q    Type
                         _______ _______ _______ _____ _____    ______ ____

>  <TORSDO>
F 6

$$$$
=
 OpenBabel11072413353D

 43 48  0  0  1  0  0  0  0  0999 V2000
  160.6820  200.1110  150.7730 O   0  0  0  0  0  1  0  0  0  0  0  0
  160.6640  203.4200  149.4890 C   0  0  1  0  0  3  0  0  0  0  0  0
  162.0290  205.7990  146.1340 C   0  0  0  0  0  0  0  0  0  0  0  0
  160.5820  206.3210  151.9130 C   0  0  0  0  0  3  0  0  0  0  0  0
  161.1000  204.2870  148.3180 C   0  0  0  0  0  0  0  0  0  0  0  0
  160.9970  207.7330  151.9880 C   0  0  0  0  0  0  0  0  0  0  0  0
  162.5280  206.5430  145.0730 O   0  0  0  0  0  1  0  0  0  0  0  0
  161.3190  202.0440  149.5490 C   0  0  0  0  0  0  0  0  0  0  0  0
  162.5480  207.3340  150.0950 C   0  0  0  0  0  2  0  0  0  0  0  0
  161.8900  208.2230  151.1180 C   0  0  0  0  0  0  0  0  0  0  0  0
  161.7380  205.5260  148.5340 C   0  0  0  0  0  0  0  0  0  0  0  0
  162.3120  209.5810  151.2150 N   0  0  0  0  0  1  0  0  0  0  0  0
  161.7790  206.1060  149.8490 N   0  0  0  0  0  0  0  0  0  0  0  0
  162.2120  206.2580  147.4370 C   0  0  0  0  0  3  0  0  0  0  0  0
  160.8690  202.1520  151.9860 C   0  0  0  0  0  2  0  0  0  0  0  0
  160.8370  203.8710  146.9950 C   0  0  0  0  0  0  0  0  0  0  0  0
  160.9610  205.5530  150.8900 C   0  0  0  0  0  0  0  0  0  0  0  0
  161.3850  203.4470  151.8610 O   0  0  0  0  0  0  0  0  0  0  0  0
  161.0760  204.1490  144.5100 C   0  0  0  0  0  1  0  0  0  0  0  0
  160.5940  204.1040  150.8920 C   0  0  2  0  0  3  0  0  0  0  0  0
  161.7380  201.5070  148.5360 O   0  0  0  0  0  0  0  0  0  0  0  0
  161.3210  204.6140  145.9080 C   0  0  0  0  0  0  0  0  0  0  0  0
  160.0840  202.7270  146.7560 O   0  0  0  0  0  1  0  0  0  0  0  0
  161.4150  201.2970  150.8510 C   0  0  1  0  0  3  0  0  0  0  0  0
  160.4720  208.5630  152.9800 O   0  0  0  0  0  0  0  0  0  0  0  0
  160.5800  208.2520  154.2790 O   0  0  0  0  0  0  0  0  0  0  0  0
  159.7190  209.1410  154.9190 C   0  0  0  0  0  2  0  0  0  0  0  0
  160.4070  212.2550  154.3760 C   0  0  2  0  0  3  0  0  0  0  0  0
  161.5250  211.4240  153.9290 N   0  0  0  0  0  2  0  0  0  0  0  0
  160.5200  210.2240  155.6350 C   0  0  1  0  0  3  0  0  0  0  0  0
  161.7680  210.4400  154.9140 N   0  0  0  0  0  2  0  0  0  0  0  0
  159.8500  211.5750  155.6080 C   0  0  2  0  0  3  0  0  0  0  0  0
  156.7280  213.1490  157.0950 C   0  0  0  0  0  3  0  0  0  0  0  0
  154.0880  212.4800  157.2600 Cl  0  0  0  0  0  0  0  0  0  0  0  0
  157.4100  210.8330  155.6820 C   0  0  0  0  0  3  0  0  0  0  0  0
  158.0560  212.9250  156.7120 C   0  0  0  0  0  3  0  0  0  0  0  0
  156.0840  211.0540  156.0630 C   0  0  0  0  0  3  0  0  0  0  0  0
  158.4080  211.7660  156.0060 C   0  0  0  0  0  0  0  0  0  0  0  0
  155.7450  212.2110  156.7710 C   0  0  0  0  0  0  0  0  0  0  0  0
  159.2450  212.4760  153.0250 S   0  0  0  0  0  0  0  0  0  0  0  0
  158.5200  211.1820  152.7760 O   0  0  0  0  0  0  0  0  0  0  0  0
  160.0470  212.9920  151.5220 C   0  0  0  0  0  1  0  0  0  0  0  0
  158.2440  213.5270  153.4160 O   0  0  0  0  0  0  0  0  0  0  0  0
  2  5  1  6  0  0  0
  2  8  1  0  0  0  0
  2 20  1  0  0  0  0
  3 14  1  0  0  0  0
  4  6  1  0  0  0  0
  5 11  1  0  0  0  0
  6 25  1  0  0  0  0
  7  3  1  0  0  0  0
  8 24  1  0  0  0  0
  9 10  1  0  0  0  0
 10 12  1  0  0  0  0
 10  6  2  0  0  0  0
 11 13  1  0  0  0  0
 13  9  1  0  0  0  0
 13 17  1  0  0  0  0
 14 11  2  0  0  0  0
 16  5  2  0  0  0  0
 17  4  2  0  0  0  0
 18 15  1  0  0  0  0
 19 22  1  0  0  0  0
 20 17  1  6  0  0  0
 20 18  1  0  0  0  0
 21  8  2  0  0  0  0
 22  3  2  0  0  0  0
 22 16  1  0  0  0  0
 23 16  1  0  0  0  0
 24  1  1  6  0  0  0
 24 15  1  0  0  0  0
 25 26  1  0  0  0  0
 26 27  1  0  0  0  0
 28 40  1  6  0  0  0
 28 32  1  0  0  0  0
 29 28  1  0  0  0  0
 29 31  1  0  0  0  0
 30 27  1  6  0  0  0
 31 30  1  0  0  0  0
 32 30  1  0  0  0  0
 32 38  1  6  0  0  0
 35 38  2  0  0  0  0
 35 37  1  0  0  0  0
 36 33  2  0  0  0  0
 37 39  2  0  0  0  0
 38 36  1  0  0  0  0
 39 33  1  0  0  0  0
 39 34  1  0  0  0  0
 40 43  2  0  0  0  0
 41 40  2  0  0  0  0
 42 40  1  0  0  0  0
M  END
>  <MODEL>
3

>  <REMARK>
 VINA RESULT:      -5.0      3.935      6.158
  Name = 
  6 active torsions:
  status: ('A' for Active; 'I' for Inactive)
    1  A    between atoms: C_8  and  O_16
    2  A    between atoms: C_12  and  C_33
    3  A    between atoms: C_12  and  O_42
    4  A    between atoms: O_16  and  O_42
    5  A    between atoms: S_18  and  C_23
    6  A    between atoms: C_25  and  C_41
                            x       y       z     vdW  Elec       q    Type
                         _______ _______ _______ _____ _____    ______ ____

>  <TORSDO>
F 6

$$$$
=
 OpenBabel11072413353D

 43 48  0  0  1  0  0  0  0  0999 V2000
  160.6690  200.1530  150.8670 O   0  0  0  0  0  1  0  0  0  0  0  0
  160.7360  203.4160  149.4700 C   0  0  1  0  0  3  0  0  0  0  0  0
  162.0630  205.6230  145.9860 C   0  0  0  0  0  0  0  0  0  0  0  0
  160.8680  206.3950  151.7940 C   0  0  0  0  0  3  0  0  0  0  0  0
  161.1610  204.2240  148.2550 C   0  0  0  0  0  0  0  0  0  0  0  0
  161.3430  207.7910  151.8050 C   0  0  0  0  0  0  0  0  0  0  0  0
  162.5500  206.3090  144.8810 O   0  0  0  0  0  1  0  0  0  0  0  0
  161.3350  202.0150  149.5530 C   0  0  0  0  0  0  0  0  0  0  0  0
  162.8010  207.2640  149.8690 C   0  0  0  0  0  2  0  0  0  0  0  0
  162.2200  208.2130  150.8850 C   0  0  0  0  0  0  0  0  0  0  0  0
  161.8570  205.4420  148.4030 C   0  0  0  0  0  0  0  0  0  0  0  0
  162.7010  209.5550  150.9180 N   0  0  0  0  0  1  0  0  0  0  0  0
  161.9730  206.0620  149.6940 N   0  0  0  0  0  0  0  0  0  0  0  0
  162.3160  206.1160  147.2640 C   0  0  0  0  0  3  0  0  0  0  0  0
  160.9870  202.2230  152.0000 C   0  0  0  0  0  2  0  0  0  0  0  0
  160.8280  203.7760  146.9570 C   0  0  0  0  0  0  0  0  0  0  0  0
  161.1740  205.5790  150.7850 C   0  0  0  0  0  0  0  0  0  0  0  0
  161.5500  203.4900  151.8110 O   0  0  0  0  0  0  0  0  0  0  0  0
  160.9800  203.9610  144.4570 C   0  0  0  0  0  1  0  0  0  0  0  0
  160.7490  204.1480  150.8510 C   0  0  2  0  0  3  0  0  0  0  0  0
  161.6920  201.4290  148.5440 O   0  0  0  0  0  0  0  0  0  0  0  0
  161.2990  204.4620  145.8280 C   0  0  0  0  0  0  0  0  0  0  0  0
  160.0200  202.6580  146.7870 O   0  0  0  0  0  1  0  0  0  0  0  0
  161.4520  201.3080  150.8760 C   0  0  1  0  0  3  0  0  0  0  0  0
  160.8920  208.6740  152.7870 O   0  0  0  0  0  0  0  0  0  0  0  0
  160.8850  208.3330  154.0820 O   0  0  0  0  0  0  0  0  0  0  0  0
  159.6000  208.6500  154.5150 C   0  0  0  0  0  2  0  0  0  0  0  0
  160.9470  209.9010  157.1780 C   0  0  2  0  0  3  0  0  0  0  0  0
  161.6360  208.6610  156.8200 N   0  0  0  0  0  2  0  0  0  0  0  0
  159.4780  208.4110  156.0180 C   0  0  1  0  0  3  0  0  0  0  0  0
  160.6620  207.6960  156.4760 N   0  0  0  0  0  2  0  0  0  0  0  0
  159.4910  209.6850  156.8250 C   0  0  2  0  0  3  0  0  0  0  0  0
  156.8760  211.8050  155.0660 C   0  0  0  0  0  3  0  0  0  0  0  0
  155.8300  214.3020  155.4040 Cl  0  0  0  0  0  0  0  0  0  0  0  0
  158.5950  212.0330  157.2610 C   0  0  0  0  0  3  0  0  0  0  0  0
  157.7290  210.7480  155.4020 C   0  0  0  0  0  3  0  0  0  0  0  0
  157.7430  213.0890  156.9270 C   0  0  0  0  0  3  0  0  0  0  0  0
  158.5970  210.8540  156.4980 C   0  0  0  0  0  0  0  0  0  0  0  0
  156.8850  212.9750  155.8290 C   0  0  0  0  0  0  0  0  0  0  0  0
  161.7420  211.2870  156.3580 S   0  0  0  0  0  0  0  0  0  0  0  0
  161.1390  211.4690  154.9920 O   0  0  0  0  0  0  0  0  0  0  0  0
  163.5000  211.0570  156.1920 C   0  0  0  0  0  1  0  0  0  0  0  0
  161.4990  212.5310  157.1670 O   0  0  0  0  0  0  0  0  0  0  0  0
  2  5  1  6  0  0  0
  2  8  1  0  0  0  0
  2 20  1  0  0  0  0
  3 14  1  0  0  0  0
  4  6  1  0  0  0  0
  5 11  1  0  0  0  0
  6 25  1  0  0  0  0
  7  3  1  0  0  0  0
  8 24  1  0  0  0  0
  9 10  1  0  0  0  0
 10 12  1  0  0  0  0
 10  6  2  0  0  0  0
 11 13  1  0  0  0  0
 13  9  1  0  0  0  0
 13 17  1  0  0  0  0
 14 11  2  0  0  0  0
 16  5  2  0  0  0  0
 17  4  2  0  0  0  0
 18 15  1  0  0  0  0
 19 22  1  0  0  0  0
 20 17  1  6  0  0  0
 20 18  1  0  0  0  0
 21  8  2  0  0  0  0
 22  3  2  0  0  0  0
 22 16  1  0  0  0  0
 23 16  1  0  0  0  0
 24  1  1  6  0  0  0
 24 15  1  0  0  0  0
 25 26  1  0  0  0  0
 26 27  1  0  0  0  0
 28 40  1  6  0  0  0
 29 28  1  0  0  0  0
 30 27  1  6  0  0  0
 30 31  1  0  0  0  0
 30 32  1  0  0  0  0
 31 29  1  0  0  0  0
 32 38  1  6  0  0  0
 32 28  1  0  0  0  0
 33 36  2  0  0  0  0
 33 39  1  0  0  0  0
 34 39  1  0  0  0  0
 36 38  1  0  0  0  0
 37 35  1  0  0  0  0
 38 35  2  0  0  0  0
 39 37  2  0  0  0  0
 40 43  2  0  0  0  0
 41 40  2  0  0  0  0
 42 40  1  0  0  0  0
M  END
>  <MODEL>
4

>  <REMARK>
 VINA RESULT:      -4.6      4.547      7.032
  Name = 
  6 active torsions:
  status: ('A' for Active; 'I' for Inactive)
    1  A    between atoms: C_8  and  O_16
    2  A    between atoms: C_12  and  C_33
    3  A    between atoms: C_12  and  O_42
    4  A    between atoms: O_16  and  O_42
    5  A    between atoms: S_18  and  C_23
    6  A    between atoms: C_25  and  C_41
                            x       y       z     vdW  Elec       q    Type
                         _______ _______ _______ _____ _____    ______ ____

>  <TORSDO>
F 6

$$$$
=
 OpenBabel11072413353D

 43 48  0  0  1  0  0  0  0  0999 V2000
  160.0930  214.3410  149.3600 O   0  0  0  0  0  1  0  0  0  0  0  0
  159.1490  212.0510  151.9030 C   0  0  1  0  0  3  0  0  0  0  0  0
  157.5940  211.8690  155.9430 C   0  0  0  0  0  0  0  0  0  0  0  0
  160.9090  208.7100  152.0980 C   0  0  0  0  0  3  0  0  0  0  0  0
  158.5800  211.9410  153.3080 C   0  0  0  0  0  0  0  0  0  0  0  0
  161.2520  207.6780  153.0920 C   0  0  0  0  0  0  0  0  0  0  0  0
  157.1470  211.8470  157.2570 O   0  0  0  0  0  1  0  0  0  0  0  0
  159.6240  213.4460  151.5090 C   0  0  0  0  0  0  0  0  0  0  0  0
  160.8880  209.3490  154.8880 C   0  0  0  0  0  2  0  0  0  0  0  0
  161.2090  207.9600  154.4010 C   0  0  0  0  0  0  0  0  0  0  0  0
  159.1760  211.0930  154.2650 C   0  0  0  0  0  0  0  0  0  0  0  0
  161.5730  206.9680  155.3580 N   0  0  0  0  0  1  0  0  0  0  0  0
  160.1810  210.1440  153.8730 N   0  0  0  0  0  0  0  0  0  0  0  0
  158.6850  211.0840  155.5780 C   0  0  0  0  0  3  0  0  0  0  0  0
  161.1290  212.2730  149.9240 C   0  0  0  0  0  2  0  0  0  0  0  0
  157.4190  212.6650  153.6590 C   0  0  0  0  0  0  0  0  0  0  0  0
  160.4000  209.8820  152.4790 C   0  0  0  0  0  0  0  0  0  0  0  0
  161.3910  211.4540  151.0290 O   0  0  0  0  0  0  0  0  0  0  0  0
  155.7400  213.4470  155.3550 C   0  0  0  0  0  1  0  0  0  0  0  0
  160.1470  210.9360  151.4510 C   0  0  2  0  0  3  0  0  0  0  0  0
  159.1520  214.4390  152.0390 O   0  0  0  0  0  0  0  0  0  0  0  0
  156.9440  212.6460  154.9790 C   0  0  0  0  0  0  0  0  0  0  0  0
  156.7300  213.3930  152.6970 O   0  0  0  0  0  1  0  0  0  0  0  0
  160.6500  213.6290  150.4230 C   0  0  1  0  0  3  0  0  0  0  0  0
  161.6400  206.4050  152.6720 O   0  0  0  0  0  0  0  0  0  0  0  0
  162.4440  206.2350  151.6140 O   0  0  0  0  0  0  0  0  0  0  0  0
  161.9280  205.1150  150.9660 C   0  0  0  0  0  2  0  0  0  0  0  0
  160.7280  206.1010  148.1280 C   0  0  2  0  0  3  0  0  0  0  0  0
  160.8570  207.2480  149.0270 N   0  0  0  0  0  2  0  0  0  0  0  0
  160.5390  205.4210  150.4140 C   0  0  1  0  0  3  0  0  0  0  0  0
  160.3860  206.8660  150.3040 N   0  0  0  0  0  2  0  0  0  0  0  0
  160.3390  204.9290  149.0020 C   0  0  2  0  0  3  0  0  0  0  0  0
  160.9990  201.9130  146.7890 C   0  0  0  0  0  3  0  0  0  0  0  0
  161.6660  199.2980  147.1920 Cl  0  0  0  0  0  0  0  0  0  0  0  0
  160.9700  202.5130  149.5210 C   0  0  0  0  0  3  0  0  0  0  0  0
  160.6890  203.2070  147.2200 C   0  0  0  0  0  3  0  0  0  0  0  0
  161.2790  201.2190  149.0930 C   0  0  0  0  0  3  0  0  0  0  0  0
  160.6690  203.5170  148.5880 C   0  0  0  0  0  0  0  0  0  0  0  0
  161.2920  200.9200  147.7270 C   0  0  0  0  0  0  0  0  0  0  0  0
  162.2480  205.8960  147.1950 S   0  0  0  0  0  0  0  0  0  0  0  0
  163.1720  207.0460  147.4890 O   0  0  0  0  0  0  0  0  0  0  0  0
  161.9580  205.8170  145.4400 C   0  0  0  0  0  1  0  0  0  0  0  0
  162.9110  204.6170  147.6260 O   0  0  0  0  0  0  0  0  0  0  0  0
  2  8  1  1  0  0  0
  2  5  1  0  0  0  0
  3  7  1  0  0  0  0
  4 17  2  0  0  0  0
  4  6  1  0  0  0  0
  5 16  2  0  0  0  0
  5 11  1  0  0  0  0
  6 10  2  0  0  0  0
  8 21  2  0  0  0  0
 10  9  1  0  0  0  0
 10 12  1  0  0  0  0
 11 14  2  0  0  0  0
 13 11  1  0  0  0  0
 13  9  1  0  0  0  0
 14  3  1  0  0  0  0
 15 24  1  0  0  0  0
 15 18  1  0  0  0  0
 16 22  1  0  0  0  0
 17 13  1  0  0  0  0
 20 18  1  1  0  0  0
 20  2  1  0  0  0  0
 20 17  1  0  0  0  0
 22 19  1  0  0  0  0
 22  3  2  0  0  0  0
 23 16  1  0  0  0  0
 24  1  1  6  0  0  0
 24  8  1  0  0  0  0
 25  6  1  0  0  0  0
 26 25  1  0  0  0  0
 27 26  1  0  0  0  0
 28 40  1  1  0  0  0
 28 32  1  0  0  0  0
 28 29  1  0  0  0  0
 29 31  1  0  0  0  0
 30 27  1  6  0  0  0
 31 30  1  0  0  0  0
 32 38  1  6  0  0  0
 32 30  1  0  0  0  0
 33 36  2  0  0  0  0
 33 39  1  0  0  0  0
 34 39  1  0  0  0  0
 36 38  1  0  0  0  0
 37 35  1  0  0  0  0
 38 35  2  0  0  0  0
 39 37  2  0  0  0  0
 40 41  2  0  0  0  0
 40 43  2  0  0  0  0
 42 40  1  0  0  0  0
M  END
>  <MODEL>
5

>  <REMARK>
 VINA RESULT:      -4.5      4.478      9.549
  Name = 
  6 active torsions:
  status: ('A' for Active; 'I' for Inactive)
    1  A    between atoms: C_8  and  O_16
    2  A    between atoms: C_12  and  C_33
    3  A    between atoms: C_12  and  O_42
    4  A    between atoms: O_16  and  O_42
    5  A    between atoms: S_18  and  C_23
    6  A    between atoms: C_25  and  C_41
                            x       y       z     vdW  Elec       q    Type
                         _______ _______ _______ _____ _____    ______ ____

>  <TORSDO>
F 6

$$$$
=
 OpenBabel11072413353D

 43 48  0  0  1  0  0  0  0  0999 V2000
  161.0860  204.8960  143.2240 O   0  0  0  0  0  1  0  0  0  0  0  0
  161.6610  204.9140  146.7270 C   0  0  1  0  0  3  0  0  0  0  0  0
  160.7830  202.7120  150.3530 C   0  0  0  0  0  0  0  0  0  0  0  0
  162.1320  208.2290  148.4840 C   0  0  0  0  0  3  0  0  0  0  0  0
  161.4000  204.1580  148.0200 C   0  0  0  0  0  0  0  0  0  0  0  0
  161.9430  208.8310  149.8160 C   0  0  0  0  0  0  0  0  0  0  0  0
  160.4370  202.0140  151.5030 O   0  0  0  0  0  1  0  0  0  0  0  0
  160.7970  204.4870  145.5460 C   0  0  0  0  0  0  0  0  0  0  0  0
  160.4020  206.9740  150.3880 C   0  0  0  0  0  2  0  0  0  0  0  0
  161.1630  208.2300  150.7250 C   0  0  0  0  0  0  0  0  0  0  0  0
  160.9600  204.8340  149.1770 C   0  0  0  0  0  0  0  0  0  0  0  0
  160.9580  208.8320  152.0010 N   0  0  0  0  0  1  0  0  0  0  0  0
  160.9740  206.2700  149.2320 N   0  0  0  0  0  0  0  0  0  0  0  0
  160.6380  204.0970  150.3250 C   0  0  0  0  0  3  0  0  0  0  0  0
  161.1900  206.7770  144.6800 C   0  0  0  0  0  2  0  0  0  0  0  0
  161.6320  202.7660  148.0830 C   0  0  0  0  0  0  0  0  0  0  0  0
  161.6660  207.0090  148.2150 C   0  0  0  0  0  0  0  0  0  0  0  0
  160.8880  207.1530  145.9940 O   0  0  0  0  0  0  0  0  0  0  0  0
  161.5080  200.5650  149.2870 C   0  0  0  0  0  1  0  0  0  0  0  0
  161.7990  206.4680  146.8280 C   0  0  2  0  0  3  0  0  0  0  0  0
  160.3270  203.3620  145.4910 O   0  0  0  0  0  0  0  0  0  0  0  0
  161.3000  202.0440  149.2400 C   0  0  0  0  0  0  0  0  0  0  0  0
  162.2010  202.1010  147.0040 O   0  0  0  0  0  1  0  0  0  0  0  0
  160.5480  205.4270  144.3970 C   0  0  1  0  0  3  0  0  0  0  0  0
  162.5640  210.0400  150.1310 O   0  0  0  0  0  0  0  0  0  0  0  0
  162.7930  210.9710  149.1950 O   0  0  0  0  0  0  0  0  0  0  0  0
  161.5780  211.6400  149.0690 C   0  0  0  0  0  2  0  0  0  0  0  0
  159.8840  214.2920  148.3230 C   0  0  2  0  0  3  0  0  0  0  0  0
  160.8650  214.0300  147.2700 N   0  0  0  0  0  2  0  0  0  0  0  0
  161.7910  213.1450  149.1990 C   0  0  1  0  0  3  0  0  0  0  0  0
  162.0930  213.6920  147.8830 N   0  0  0  0  0  2  0  0  0  0  0  0
  160.5470  213.8860  149.6210 C   0  0  2  0  0  3  0  0  0  0  0  0
  158.2330  214.0920  152.6260 C   0  0  0  0  0  3  0  0  0  0  0  0
  157.1670  212.3140  154.4020 Cl  0  0  0  0  0  0  0  0  0  0  0  0
  159.6140  212.1180  151.2050 C   0  0  0  0  0  3  0  0  0  0  0  0
  159.0200  214.4420  151.5240 C   0  0  0  0  0  3  0  0  0  0  0  0
  158.8280  211.7660  152.3050 C   0  0  0  0  0  3  0  0  0  0  0  0
  159.7190  213.4600  150.8070 C   0  0  0  0  0  0  0  0  0  0  0  0
  158.1390  212.7540  153.0160 C   0  0  0  0  0  0  0  0  0  0  0  0
  158.3500  213.4400  147.9400 S   0  0  0  0  0  0  0  0  0  0  0  0
  158.6210  211.9660  147.8050 O   0  0  0  0  0  0  0  0  0  0  0  0
  157.6030  214.0350  146.4370 C   0  0  0  0  0  1  0  0  0  0  0  0
  157.3830  213.6550  149.0700 O   0  0  0  0  0  0  0  0  0  0  0  0
  2  8  1  6  0  0  0
  2 20  1  0  0  0  0
  2  5  1  0  0  0  0
  3  7  1  0  0  0  0
  4  6  1  0  0  0  0
  5 16  2  0  0  0  0
  5 11  1  0  0  0  0
  6 25  1  0  0  0  0
  6 10  2  0  0  0  0
  9 10  1  0  0  0  0
 10 12  1  0  0  0  0
 11 13  1  0  0  0  0
 11 14  2  0  0  0  0
 13  9  1  0  0  0  0
 14  3  1  0  0  0  0
 15 18  1  0  0  0  0
 16 22  1  0  0  0  0
 17  4  2  0  0  0  0
 17 13  1  0  0  0  0
 20 18  1  6  0  0  0
 20 17  1  0  0  0  0
 21  8  2  0  0  0  0
 22 19  1  0  0  0  0
 22  3  2  0  0  0  0
 23 16  1  0  0  0  0
 24  1  1  6  0  0  0
 24 15  1  0  0  0  0
 24  8  1  0  0  0  0
 26 25  1  0  0  0  0
 27 26  1  0  0  0  0
 28 40  1  6  0  0  0
 28 32  1  0  0  0  0
 29 31  1  0  0  0  0
 29 28  1  0  0  0  0
 30 27  1  6  0  0  0
 30 32  1  0  0  0  0
 31 30  1  0  0  0  0
 32 38  1  6  0  0  0
 33 39  1  0  0  0  0
 35 37  1  0  0  0  0
 36 33  2  0  0  0  0
 37 39  2  0  0  0  0
 38 35  2  0  0  0  0
 38 36  1  0  0  0  0
 39 34  1  0  0  0  0
 40 43  2  0  0  0  0
 41 40  2  0  0  0  0
 42 40  1  0  0  0  0
M  END
>  <MODEL>
6

>  <REMARK>
 VINA RESULT:      -4.2      1.555      2.004
  Name = 
  6 active torsions:
  status: ('A' for Active; 'I' for Inactive)
    1  A    between atoms: C_8  and  O_16
    2  A    between atoms: C_12  and  C_33
    3  A    between atoms: C_12  and  O_42
    4  A    between atoms: O_16  and  O_42
    5  A    between atoms: S_18  and  C_23
    6  A    between atoms: C_25  and  C_41
                            x       y       z     vdW  Elec       q    Type
                         _______ _______ _______ _____ _____    ______ ____

>  <TORSDO>
F 6

$$$$
=
 OpenBabel11072413353D

 43 48  0  0  1  0  0  0  0  0999 V2000
  162.4100  209.2310  137.6660 O   0  0  0  0  0  1  0  0  0  0  0  0
  159.6260  210.4750  139.4830 C   0  0  1  0  0  3  0  0  0  0  0  0
  155.8660  212.5680  138.9790 C   0  0  0  0  0  0  0  0  0  0  0  0
  160.1320  211.6040  143.0560 C   0  0  0  0  0  3  0  0  0  0  0  0
  158.2870  211.1830  139.3480 C   0  0  0  0  0  0  0  0  0  0  0  0
  159.5460  212.5410  144.0310 C   0  0  0  0  0  0  0  0  0  0  0  0
  154.6940  213.2880  138.7890 O   0  0  0  0  0  1  0  0  0  0  0  0
  160.5150  210.5390  138.2450 C   0  0  0  0  0  0  0  0  0  0  0  0
  158.4770  213.7570  142.1540 C   0  0  0  0  0  2  0  0  0  0  0  0
  158.7420  213.5290  143.6190 C   0  0  0  0  0  0  0  0  0  0  0  0
  157.9510  212.2610  140.1940 C   0  0  0  0  0  0  0  0  0  0  0  0
  158.2030  214.4520  144.5630 N   0  0  0  0  0  1  0  0  0  0  0  0
  158.7560  212.5620  141.3450 N   0  0  0  0  0  0  0  0  0  0  0  0
  156.7510  212.9520  139.9840 C   0  0  0  0  0  3  0  0  0  0  0  0
  162.4030  210.2360  139.8250 C   0  0  0  0  0  2  0  0  0  0  0  0
  157.3470  210.7400  138.3920 C   0  0  0  0  0  0  0  0  0  0  0  0
  159.7500  211.6220  141.7790 C   0  0  0  0  0  0  0  0  0  0  0  0
  161.7300  211.2140  140.5660 O   0  0  0  0  0  0  0  0  0  0  0  0
  155.1790  210.9990  137.1510 C   0  0  0  0  0  1  0  0  0  0  0  0
  160.4290  210.7180  140.8020 C   0  0  2  0  0  3  0  0  0  0  0  0
  160.0290  210.6860  137.1350 O   0  0  0  0  0  0  0  0  0  0  0  0
  156.1510  211.4470  138.1930 C   0  0  0  0  0  0  0  0  0  0  0  0
  157.5930  209.5930  137.6470 O   0  0  0  0  0  1  0  0  0  0  0  0
  162.0060  210.3710  138.3620 C   0  0  1  0  0  3  0  0  0  0  0  0
  159.8420  212.4110  145.3890 O   0  0  0  0  0  0  0  0  0  0  0  0
  161.0660  212.6740  145.8640 O   0  0  0  0  0  0  0  0  0  0  0  0
  161.0780  212.0920  147.1300 C   0  0  0  0  0  2  0  0  0  0  0  0
  161.4250  213.3710  150.0810 C   0  0  2  0  0  3  0  0  0  0  0  0
  161.3340  214.4460  149.0930 N   0  0  0  0  0  2  0  0  0  0  0  0
  162.2390  212.6450  147.9520 C   0  0  1  0  0  3  0  0  0  0  0  0
  162.1400  214.0990  147.9850 N   0  0  0  0  0  2  0  0  0  0  0  0
  162.1800  212.2470  149.4050 C   0  0  2  0  0  3  0  0  0  0  0  0
  161.4520  208.5230  149.2290 C   0  0  0  0  0  3  0  0  0  0  0  0
  161.3690  206.4580  151.0110 Cl  0  0  0  0  0  0  0  0  0  0  0  0
  162.1460  210.4100  151.1740 C   0  0  0  0  0  3  0  0  0  0  0  0
  161.6380  209.8630  148.8720 C   0  0  0  0  0  3  0  0  0  0  0  0
  161.9610  209.0710  151.5320 C   0  0  0  0  0  3  0  0  0  0  0  0
  161.9820  210.8170  149.8410 C   0  0  0  0  0  0  0  0  0  0  0  0
  161.6130  208.1290  150.5590 C   0  0  0  0  0  0  0  0  0  0  0  0
  159.7800  212.9530  150.6670 S   0  0  0  0  0  0  0  0  0  0  0  0
  158.8860  212.6830  149.4870 O   0  0  0  0  0  0  0  0  0  0  0  0
  159.0640  214.2500  151.6550 C   0  0  0  0  0  1  0  0  0  0  0  0
  159.8680  211.7080  151.5060 O   0  0  0  0  0  0  0  0  0  0  0  0
  2  8  1  6  0  0  0
  2 20  1  0  0  0  0
  3 14  1  0  0  0  0
  4  6  1  0  0  0  0
  5  2  1  0  0  0  0
  5 11  1  0  0  0  0
  6 25  1  0  0  0  0
  7  3  1  0  0  0  0
  8 24  1  0  0  0  0
  9 10  1  0  0  0  0
 10  6  2  0  0  0  0
 10 12  1  0  0  0  0
 11 13  1  0  0  0  0
 13 17  1  0  0  0  0
 13  9  1  0  0  0  0
 14 11  2  0  0  0  0
 15 18  1  0  0  0  0
 16  5  2  0  0  0  0
 17  4  2  0  0  0  0
 19 22  1  0  0  0  0
 20 18  1  6  0  0  0
 20 17  1  0  0  0  0
 21  8  2  0  0  0  0
 22 16  1  0  0  0  0
 22  3  2  0  0  0  0
 23 16  1  0  0  0  0
 24  1  1  6  0  0  0
 24 15  1  0  0  0  0
 25 26  1  0  0  0  0
 26 27  1  0  0  0  0
 28 40  1  6  0  0  0
 29 28  1  0  0  0  0
 30 27  1  6  0  0  0
 30 31  1  0  0  0  0
 30 32  1  0  0  0  0
 31 29  1  0  0  0  0
 32 38  1  6  0  0  0
 32 28  1  0  0  0  0
 33 39  1  0  0  0  0
 35 37  1  0  0  0  0
 36 33  2  0  0  0  0
 36 38  1  0  0  0  0
 38 35  2  0  0  0  0
 39 34  1  0  0  0  0
 39 37  2  0  0  0  0
 40 43  2  0  0  0  0
 40 42  1  0  0  0  0
 41 40  2  0  0  0  0
M  END
>  <MODEL>
7

>  <REMARK>
 VINA RESULT:      -3.9      5.012      9.381
  Name = 
  6 active torsions:
  status: ('A' for Active; 'I' for Inactive)
    1  A    between atoms: C_8  and  O_16
    2  A    between atoms: C_12  and  C_33
    3  A    between atoms: C_12  and  O_42
    4  A    between atoms: O_16  and  O_42
    5  A    between atoms: S_18  and  C_23
    6  A    between atoms: C_25  and  C_41
                            x       y       z     vdW  Elec       q    Type
                         _______ _______ _______ _____ _____    ______ ____

>  <TORSDO>
F 6

$$$$
=
 OpenBabel11072413353D

 43 48  0  0  1  0  0  0  0  0999 V2000
  160.8060  206.5820  144.3800 O   0  0  0  0  0  1  0  0  0  0  0  0
  161.4970  204.7380  147.3330 C   0  0  1  0  0  3  0  0  0  0  0  0
  160.8180  200.8910  149.2060 C   0  0  0  0  0  0  0  0  0  0  0  0
  161.9120  206.6020  150.5960 C   0  0  0  0  0  3  0  0  0  0  0  0
  161.3060  203.3930  148.0160 C   0  0  0  0  0  0  0  0  0  0  0  0
  161.7470  206.3820  152.0450 C   0  0  0  0  0  0  0  0  0  0  0  0
  160.5350  199.6680  149.8000 O   0  0  0  0  0  1  0  0  0  0  0  0
  160.6090  204.9740  146.1160 C   0  0  0  0  0  0  0  0  0  0  0  0
  160.2910  204.4390  151.5390 C   0  0  0  0  0  2  0  0  0  0  0  0
  161.0190  205.3500  152.4920 C   0  0  0  0  0  0  0  0  0  0  0  0
  160.8820  203.3180  149.3590 C   0  0  0  0  0  0  0  0  0  0  0  0
  160.8370  205.1590  153.8940 N   0  0  0  0  0  1  0  0  0  0  0  0
  160.8480  204.4970  150.1800 N   0  0  0  0  0  0  0  0  0  0  0  0
  160.6250  202.0650  149.9310 C   0  0  0  0  0  3  0  0  0  0  0  0
  160.8940  207.3860  146.6200 C   0  0  0  0  0  2  0  0  0  0  0  0
  161.5880  202.1990  147.3160 C   0  0  0  0  0  0  0  0  0  0  0  0
  161.4800  205.6990  149.7160 C   0  0  0  0  0  0  0  0  0  0  0  0
  160.6230  206.9800  147.9320 O   0  0  0  0  0  0  0  0  0  0  0  0
  161.5810  199.6940  147.1430 C   0  0  0  0  0  1  0  0  0  0  0  0
  161.5850  205.9970  148.2550 C   0  0  2  0  0  3  0  0  0  0  0  0
  160.1770  204.0350  145.4680 O   0  0  0  0  0  0  0  0  0  0  0  0
  161.3210  200.9530  147.9030 C   0  0  0  0  0  0  0  0  0  0  0  0
  162.1430  202.2480  146.0430 O   0  0  0  0  0  1  0  0  0  0  0  0
  160.2890  206.3720  145.6590 C   0  0  1  0  0  3  0  0  0  0  0  0
  162.3360  207.2600  152.9560 O   0  0  0  0  0  0  0  0  0  0  0  0
  161.8640  207.3920  154.2020 O   0  0  0  0  0  0  0  0  0  0  0  0
  160.7790  208.2550  154.0710 C   0  0  0  0  0  2  0  0  0  0  0  0
  160.7040  209.7810  156.9220 C   0  0  2  0  0  3  0  0  0  0  0  0
  161.3850  208.4940  157.0760 N   0  0  0  0  0  2  0  0  0  0  0  0
  159.9050  208.1950  155.3200 C   0  0  1  0  0  3  0  0  0  0  0  0
  160.6430  207.5150  156.3770 N   0  0  0  0  0  2  0  0  0  0  0  0
  159.6080  209.5530  155.9040 C   0  0  2  0  0  3  0  0  0  0  0  0
  157.7810  212.7410  154.9410 C   0  0  0  0  0  3  0  0  0  0  0  0
  157.4620  214.2000  152.6570 Cl  0  0  0  0  0  0  0  0  0  0  0  0
  159.4000  210.8250  153.7030 C   0  0  0  0  0  3  0  0  0  0  0  0
  158.2790  211.6610  155.6780 C   0  0  0  0  0  3  0  0  0  0  0  0
  158.9030  211.9030  152.9650 C   0  0  0  0  0  3  0  0  0  0  0  0
  159.0890  210.6930  155.0660 C   0  0  0  0  0  0  0  0  0  0  0  0
  158.0930  212.8590  153.5840 C   0  0  0  0  0  0  0  0  0  0  0  0
  161.9040  211.0460  156.4940 S   0  0  0  0  0  0  0  0  0  0  0  0
  162.0800  211.0800  155.0010 O   0  0  0  0  0  0  0  0  0  0  0  0
  163.4870  210.7640  157.2610 C   0  0  0  0  0  1  0  0  0  0  0  0
  161.3840  212.3800  156.9530 O   0  0  0  0  0  0  0  0  0  0  0  0
  2  8  1  6  0  0  0
  2  5  1  0  0  0  0
  2 20  1  0  0  0  0
  3  7  1  0  0  0  0
  3 14  1  0  0  0  0
  4  6  1  0  0  0  0
  5 11  1  0  0  0  0
  6 10  2  0  0  0  0
  6 25  1  0  0  0  0
  9 10  1  0  0  0  0
 10 12  1  0  0  0  0
 11 14  2  0  0  0  0
 11 13  1  0  0  0  0
 13  9  1  0  0  0  0
 15 18  1  0  0  0  0
 16 22  1  0  0  0  0
 16  5  2  0  0  0  0
 17 13  1  0  0  0  0
 17  4  2  0  0  0  0
 19 22  1  0  0  0  0
 20 18  1  6  0  0  0
 20 17  1  0  0  0  0
 21  8  2  0  0  0  0
 22  3  2  0  0  0  0
 23 16  1  0  0  0  0
 24  1  1  6  0  0  0
 24  8  1  0  0  0  0
 24 15  1  0  0  0  0
 25 26  1  0  0  0  0
 27 26  1  0  0  0  0
 28 40  1  6  0  0  0
 28 29  1  0  0  0  0
 30 27  1  6  0  0  0
 30 32  1  0  0  0  0
 30 31  1  0  0  0  0
 31 29  1  0  0  0  0
 32 38  1  6  0  0  0
 32 28  1  0  0  0  0
 33 36  1  0  0  0  0
 34 39  1  0  0  0  0
 35 38  1  0  0  0  0
 37 39  1  0  0  0  0
 37 35  2  0  0  0  0
 38 36  2  0  0  0  0
 39 33  2  0  0  0  0
 40 43  2  0  0  0  0
 40 42  1  0  0  0  0
 41 40  2  0  0  0  0
M  END
>  <MODEL>
8

>  <REMARK>
 VINA RESULT:      -3.8      4.416      6.100
  Name = 
  6 active torsions:
  status: ('A' for Active; 'I' for Inactive)
    1  A    between atoms: C_8  and  O_16
    2  A    between atoms: C_12  and  C_33
    3  A    between atoms: C_12  and  O_42
    4  A    between atoms: O_16  and  O_42
    5  A    between atoms: S_18  and  C_23
    6  A    between atoms: C_25  and  C_41
                            x       y       z     vdW  Elec       q    Type
                         _______ _______ _______ _____ _____    ______ ____

>  <TORSDO>
F 6

$$$$
=
 OpenBabel11072413353D

 43 48  0  0  1  0  0  0  0  0999 V2000
  160.7280  213.9930  148.8530 O   0  0  0  0  0  1  0  0  0  0  0  0
  159.4440  212.0750  151.5490 C   0  0  1  0  0  3  0  0  0  0  0  0
  157.6810  212.4550  155.4890 C   0  0  0  0  0  0  0  0  0  0  0  0
  160.8630  208.6260  152.1760 C   0  0  0  0  0  3  0  0  0  0  0  0
  158.7980  212.1630  152.9230 C   0  0  0  0  0  0  0  0  0  0  0  0
  161.0560  207.6760  153.2860 C   0  0  0  0  0  0  0  0  0  0  0  0
  157.1700  212.6110  156.7710 O   0  0  0  0  0  1  0  0  0  0  0  0
  160.0700  213.3720  151.0480 C   0  0  0  0  0  0  0  0  0  0  0  0
  160.7660  209.5510  154.8830 C   0  0  0  0  0  2  0  0  0  0  0  0
  160.9760  208.0960  154.5560 C   0  0  0  0  0  0  0  0  0  0  0  0
  159.2620  211.3690  153.9920 C   0  0  0  0  0  0  0  0  0  0  0  0
  161.1950  207.1790  155.6270 N   0  0  0  0  0  1  0  0  0  0  0  0
  160.1900  210.2970  153.7560 N   0  0  0  0  0  0  0  0  0  0  0  0
  158.7090  211.5400  155.2680 C   0  0  0  0  0  3  0  0  0  0  0  0
  161.5310  211.9100  149.6780 C   0  0  0  0  0  2  0  0  0  0  0  0
  157.6970  213.0210  153.1320 C   0  0  0  0  0  0  0  0  0  0  0  0
  160.4510  209.8730  152.4100 C   0  0  0  0  0  0  0  0  0  0  0  0
  161.6590  211.1890  150.8720 O   0  0  0  0  0  0  0  0  0  0  0  0
  156.0190  214.1250  154.6400 C   0  0  0  0  0  1  0  0  0  0  0  0
  160.3510  210.8330  151.2690 C   0  0  2  0  0  3  0  0  0  0  0  0
  159.6700  214.4530  151.4480 O   0  0  0  0  0  0  0  0  0  0  0  0
  157.1570  213.1840  154.4170 C   0  0  0  0  0  0  0  0  0  0  0  0
  157.1290  213.7060  152.0630 O   0  0  0  0  0  1  0  0  0  0  0  0
  161.1610  213.3470  150.0120 C   0  0  1  0  0  3  0  0  0  0  0  0
  161.3400  206.3370  153.0170 O   0  0  0  0  0  0  0  0  0  0  0  0
  160.3630  205.4400  152.8300 O   0  0  0  0  0  0  0  0  0  0  0  0
  160.4980  205.0560  151.4980 C   0  0  0  0  0  2  0  0  0  0  0  0
  161.6310  202.3240  150.1880 C   0  0  2  0  0  3  0  0  0  0  0  0
  161.5790  202.1810  151.6430 N   0  0  0  0  0  2  0  0  0  0  0  0
  161.8770  204.4460  151.2640 C   0  0  1  0  0  3  0  0  0  0  0  0
  162.0820  203.3680  152.2230 N   0  0  0  0  0  2  0  0  0  0  0  0
  162.0060  203.7660  149.9240 C   0  0  2  0  0  3  0  0  0  0  0  0
  161.6010  204.4200  146.2040 C   0  0  0  0  0  3  0  0  0  0  0  0
  160.4510  206.3640  144.6720 Cl  0  0  0  0  0  0  0  0  0  0  0  0
  160.8850  205.6460  148.6150 C   0  0  0  0  0  3  0  0  0  0  0  0
  161.9580  203.8330  147.4230 C   0  0  0  0  0  3  0  0  0  0  0  0
  160.5280  206.2340  147.3980 C   0  0  0  0  0  3  0  0  0  0  0  0
  161.6070  204.4420  148.6370 C   0  0  0  0  0  0  0  0  0  0  0  0
  160.8870  205.6210  146.1940 C   0  0  0  0  0  0  0  0  0  0  0  0
  160.0710  201.7900  149.4760 S   0  0  0  0  0  0  0  0  0  0  0  0
  159.5280  200.6380  150.2750 O   0  0  0  0  0  0  0  0  0  0  0  0
  160.2400  201.2910  147.7750 C   0  0  0  0  0  1  0  0  0  0  0  0
  159.0940  202.9320  149.5430 O   0  0  0  0  0  0  0  0  0  0  0  0
  2  8  1  1  0  0  0
  2  5  1  0  0  0  0
  3  7  1  0  0  0  0
  4 17  2  0  0  0  0
  4  6  1  0  0  0  0
  5 16  2  0  0  0  0
  5 11  1  0  0  0  0
  6 10  2  0  0  0  0
  8 21  2  0  0  0  0
 10  9  1  0  0  0  0
 10 12  1  0  0  0  0
 11 14  2  0  0  0  0
 13 11  1  0  0  0  0
 13  9  1  0  0  0  0
 14  3  1  0  0  0  0
 15 24  1  0  0  0  0
 15 18  1  0  0  0  0
 16 22  1  0  0  0  0
 17 13  1  0  0  0  0
 20 18  1  1  0  0  0
 20  2  1  0  0  0  0
 20 17  1  0  0  0  0
 22 19  1  0  0  0  0
 22  3  2  0  0  0  0
 23 16  1  0  0  0  0
 24  1  1  6  0  0  0
 24  8  1  0  0  0  0
 25  6  1  0  0  0  0
 26 25  1  0  0  0  0
 27 26  1  0  0  0  0
 28 40  1  6  0  0  0
 28 29  1  0  0  0  0
 29 31  1  0  0  0  0
 30 27  1  1  0  0  0
 30 31  1  0  0  0  0
 32 38  1  6  0  0  0
 32 28  1  0  0  0  0
 32 30  1  0  0  0  0
 33 36  1  0  0  0  0
 34 39  1  0  0  0  0
 35 38  1  0  0  0  0
 36 38  2  0  0  0  0
 37 35  2  0  0  0  0
 39 33  2  0  0  0  0
 39 37  1  0  0  0  0
 40 43  2  0  0  0  0
 40 41  2  0  0  0  0
 42 40  1  0  0  0  0
M  END
>  <MODEL>
9

>  <REMARK>
 VINA RESULT:      -3.6      4.207      9.728
  Name = 
  6 active torsions:
  status: ('A' for Active; 'I' for Inactive)
    1  A    between atoms: C_8  and  O_16
    2  A    between atoms: C_12  and  C_33
    3  A    between atoms: C_12  and  O_42
    4  A    between atoms: O_16  and  O_42
    5  A    between atoms: S_18  and  C_23
    6  A    between atoms: C_25  and  C_41
                            x       y       z     vdW  Elec       q    Type
                         _______ _______ _______ _____ _____    ______ ____

>  <TORSDO>
F 6

$$$$
