=
 OpenBabel11072412013D

 45 50  0  0  1  0  0  0  0  0999 V2000
  161.4890  205.6180  148.2190 C   0  0  0  0  0  0  0  0  0  0  0  0
  161.1440  205.8960  149.5120 N   0  0  0  0  0  2  0  0  0  0  0  0
  160.7620  204.9210  150.3970 C   0  0  0  0  0  0  0  0  0  0  0  0
  161.1470  202.1130  147.9780 C   0  0  0  0  0  0  0  0  0  0  0  0
  161.7420  203.6520  146.6070 C   0  0  0  0  0  0  0  0  0  0  0  0
  160.8290  200.8300  148.5070 N   0  0  0  0  0  1  0  0  0  0  0  0
  161.0830  203.2990  148.6740 C   0  0  0  0  0  0  0  0  0  0  0  0
  161.4580  204.2830  147.8050 C   0  0  0  0  0  0  0  0  0  0  0  0
  162.1930  204.2890  145.4170 N   0  0  0  0  0  1  0  0  0  0  0  0
  161.5550  202.3150  146.7050 N   0  0  0  0  0  0  0  0  0  0  0  0
  160.7230  203.5700  149.9890 C   0  0  0  0  0  3  0  0  0  0  0  0
  161.3300  205.4520  154.0130 C   0  0  0  0  0  2  0  0  0  0  0  0
  161.2110  204.5290  152.8220 C   0  0  0  0  0  2  0  0  0  0  0  0
  161.3180  206.8630  153.4420 C   0  0  1  0  0  3  0  0  0  0  0  0
  160.4160  205.3120  151.7980 C   0  0  1  0  0  3  0  0  0  0  0  0
  160.7060  206.7800  152.0530 C   0  0  0  0  0  2  0  0  0  0  0  0
  160.5440  207.8460  154.3270 C   0  0  2  0  0  3  0  0  0  0  0  0
  159.5340  211.2960  154.4580 C   0  0  2  0  0  0  0  0  0  0  0  0
  159.7700  210.4220  152.2210 F   0  0  0  0  0  0  0  0  0  0  0  0
  161.4400  210.0090  155.2400 C   0  0  1  0  0  3  0  0  0  0  0  0
  160.8020  212.0500  156.3820 O   0  0  0  0  0  1  0  0  0  0  0  0
  160.0930  212.4240  153.8430 O   0  0  0  0  0  1  0  0  0  0  0  0
  160.9040  209.3000  154.0020 C   0  0  2  0  0  3  0  0  0  0  0  0
  162.5690  210.7510  154.8820 O   0  0  0  0  0  1  0  0  0  0  0  0
  160.3180  210.9260  155.7050 C   0  0  1  0  0  3  0  0  0  0  0  0
  159.6630  210.0710  153.5560 C   0  0  1  0  0  3  0  0  0  0  0  0
  157.5060  212.4700  153.9290 O   0  0  0  0  0  1  0  0  0  0  0  0
  158.0780  211.5580  154.8180 C   0  0  0  0  0  2  0  0  0  0  0  0
  160.7750  207.5750  155.6820 O   0  0  0  0  0  0  0  0  0  0  0  0
  159.5930  207.2610  156.1660 O   0  0  0  0  0  1  0  0  0  0  0  0
  161.9550  206.9550  147.1210 S   0  0  0  0  0  0  0  0  0  0  0  0
  162.5440  207.6990  149.7190 C   0  0  0  0  0  3  0  0  0  0  0  0
  161.9050  210.3800  149.3180 C   0  0  0  0  0  0  0  0  0  0  0  0
  162.6510  208.6290  150.7540 C   0  0  0  0  0  3  0  0  0  0  0  0
  162.1040  208.1250  148.4650 C   0  0  0  0  0  0  0  0  0  0  0  0
  162.3350  209.9340  150.5340 N   0  0  0  0  0  0  0  0  0  0  0  0
  161.7860  209.4680  148.2600 C   0  0  0  0  0  3  0  0  0  0  0  0
  159.7260  213.1740  150.0230 C   0  0  0  0  0  3  0  0  0  0  0  0
  161.8040  212.3750  147.9250 C   0  0  0  0  0  3  0  0  0  0  0  0
  162.2090  214.3240  146.5480 F   0  0  0  0  0  0  0  0  0  0  0  0
  161.5770  211.8070  149.1160 C   0  0  0  0  0  0  0  0  0  0  0  0
  160.4220  214.4530  147.9980 C   0  0  0  0  0  3  0  0  0  0  0  0
  159.4560  214.0160  149.0260 C   0  0  0  0  0  3  0  0  0  0  0  0
  161.0920  212.6280  150.2730 C   0  0  0  0  0  2  0  0  0  0  0  0
  161.4820  213.7670  147.5460 C   0  0  0  0  0  0  0  0  0  0  0  0
  1  2  1  0  0  0  0
  2  3  1  0  0  0  0
  4  6  1  0  0  0  0
  4  7  2  0  0  0  0
  5 10  2  0  0  0  0
  5  8  1  0  0  0  0
  7 11  1  0  0  0  0
  8  1  2  0  0  0  0
  8  7  1  0  0  0  0
  9  5  1  0  0  0  0
 10  4  1  0  0  0  0
 11  3  2  0  0  0  0
 13 12  1  0  0  0  0
 14 12  1  0  0  0  0
 14 17  1  1  0  0  0
 15  3  1  6  0  0  0
 15 16  1  0  0  0  0
 15 13  1  0  0  0  0
 16 14  1  0  0  0  0
 17 29  1  1  0  0  0
 18 22  1  6  0  0  0
 18 28  1  0  0  0  0
 18 25  1  0  0  0  0
 20 24  1  6  0  0  0
 20 25  1  0  0  0  0
 23 17  1  1  0  0  0
 23 20  1  0  0  0  0
 25 21  1  6  0  0  0
 26 19  1  6  0  0  0
 26 23  1  0  0  0  0
 26 18  1  0  0  0  0
 27 28  1  0  0  0  0
 29 30  1  0  0  0  0
 31  1  1  0  0  0  0
 31 35  1  0  0  0  0
 32 34  1  0  0  0  0
 33 36  1  0  0  0  0
 35 32  2  0  0  0  0
 36 34  2  0  0  0  0
 37 35  1  0  0  0  0
 37 33  2  0  0  0  0
 38 44  1  0  0  0  0
 39 41  2  0  0  0  0
 40 45  1  0  0  0  0
 41 33  1  0  0  0  0
 41 44  1  0  0  0  0
 42 43  1  0  0  0  0
 43 38  2  0  0  0  0
 45 39  1  0  0  0  0
 45 42  2  0  0  0  0
M  END
>  <MODEL>
1

>  <REMARK>
 VINA RESULT:      -8.5      0.000      0.000
  Name = 
  8 active torsions:
  status: ('A' for Active; 'I' for Inactive)
    1  A    between atoms: C_2  and  S_32
    2  A    between atoms: C_4  and  C_36
    3  A    between atoms: C_5  and  C_21
    4  A    between atoms: C_5  and  C_26
    5  A    between atoms: C_5  and  O_27
    6  A    between atoms: C_11  and  C_16
    7  A    between atoms: C_15  and  S_32
    8  A    between atoms: C_18  and  C_39
                            x       y       z     vdW  Elec       q    Type
                         _______ _______ _______ _____ _____    ______ ____

>  <TORSDO>
F 8

$$$$
=
 OpenBabel11072412013D

 45 50  0  0  1  0  0  0  0  0999 V2000
  160.2470  211.1000  154.0520 C   0  0  0  0  0  0  0  0  0  0  0  0
  160.4630  210.4960  152.8450 N   0  0  0  0  0  0  0  0  0  0  0  0
  160.6360  209.1410  152.7210 C   0  0  0  0  0  0  0  0  0  0  0  0
  160.2510  208.4290  156.3580 C   0  0  0  0  0  0  0  0  0  0  0  0
  159.9850  210.5500  156.5320 C   0  0  0  0  0  0  0  0  0  0  0  0
  160.3710  207.0530  156.7060 N   0  0  0  0  0  1  0  0  0  0  0  0
  160.3560  208.9390  155.0840 C   0  0  0  0  0  0  0  0  0  0  0  0
  160.1890  210.2900  155.1890 C   0  0  0  0  0  0  0  0  0  0  0  0
  159.7460  211.8310  157.1060 N   0  0  0  0  0  1  0  0  0  0  0  0
  160.0200  209.4090  157.2600 N   0  0  0  0  0  2  0  0  0  0  0  0
  160.5830  208.3140  153.8640 C   0  0  0  0  0  3  0  0  0  0  0  0
  162.5660  208.0840  149.7490 C   0  0  0  0  0  2  0  0  0  0  0  0
  162.0520  209.1720  150.6650 C   0  0  0  0  0  2  0  0  0  0  0  0
  162.2120  206.7710  150.4300 C   0  0  1  0  0  3  0  0  0  0  0  0
  160.8520  208.5620  151.3600 C   0  0  1  0  0  3  0  0  0  0  0  0
  161.1020  207.0660  151.4260 C   0  0  0  0  0  2  0  0  0  0  0  0
  161.7830  205.6900  149.4320 C   0  0  2  0  0  3  0  0  0  0  0  0
  161.5830  204.8150  145.9490 C   0  0  2  0  0  0  0  0  0  0  0  0
  163.8370  205.0460  146.7800 F   0  0  0  0  0  0  0  0  0  0  0  0
  160.8080  206.6580  147.3280 C   0  0  1  0  0  3  0  0  0  0  0  0
  159.6260  206.0860  145.2910 O   0  0  0  0  0  1  0  0  0  0  0  0
  162.1640  205.4260  144.8300 O   0  0  0  0  0  1  0  0  0  0  0  0
  162.0690  206.1110  147.9870 C   0  0  2  0  0  3  0  0  0  0  0  0
  161.1340  207.8200  146.6230 O   0  0  0  0  0  1  0  0  0  0  0  0
  160.3350  205.5670  146.3790 C   0  0  1  0  0  3  0  0  0  0  0  0
  162.5120  204.9070  147.1570 C   0  0  1  0  0  3  0  0  0  0  0  0
  161.2790  202.5880  146.7970 O   0  0  0  0  0  1  0  0  0  0  0  0
  161.2350  203.3660  145.6380 C   0  0  0  0  0  2  0  0  0  0  0  0
  160.4260  205.3830  149.5930 O   0  0  0  0  0  0  0  0  0  0  0  0
  160.3720  204.0690  149.5400 O   0  0  0  0  0  1  0  0  0  0  0  0
  160.0540  212.8810  154.1270 S   0  0  0  0  0  0  0  0  0  0  0  0
  157.9980  212.8820  152.2770 C   0  0  0  0  0  3  0  0  0  0  0  0
  159.6910  213.1890  150.0870 C   0  0  0  0  0  0  0  0  0  0  0  0
  157.4930  212.9510  150.9780 C   0  0  0  0  0  3  0  0  0  0  0  0
  159.3770  212.9660  152.4740 C   0  0  0  0  0  0  0  0  0  0  0  0
  158.3380  213.1020  149.9230 N   0  0  0  0  0  0  0  0  0  0  0  0
  160.2270  213.1220  151.3800 C   0  0  0  0  0  3  0  0  0  0  0  0
  160.0370  213.6410  146.5180 C   0  0  0  0  0  3  0  0  0  0  0  0
  161.7520  212.7180  148.8770 C   0  0  0  0  0  3  0  0  0  0  0  0
  164.0200  212.4930  148.0620 F   0  0  0  0  0  0  0  0  0  0  0  0
  160.5770  213.3590  148.9160 C   0  0  0  0  0  0  0  0  0  0  0  0
  162.3890  212.8120  146.4650 C   0  0  0  0  0  3  0  0  0  0  0  0
  161.0340  213.0040  145.9080 C   0  0  0  0  0  3  0  0  0  0  0  0
  160.2000  214.3270  147.8340 C   0  0  0  0  0  2  0  0  0  0  0  0
  162.7220  212.7370  147.7620 C   0  0  0  0  0  0  0  0  0  0  0  0
  1 31  1  0  0  0  0
  1  8  1  0  0  0  0
  2  1  2  0  0  0  0
  3  2  1  0  0  0  0
  3 11  2  0  0  0  0
  4  6  1  0  0  0  0
  4 10  1  0  0  0  0
  5  9  1  0  0  0  0
  5 10  1  0  0  0  0
  7  8  1  0  0  0  0
  7  4  2  0  0  0  0
  8  5  2  0  0  0  0
 11  7  1  0  0  0  0
 12 14  1  0  0  0  0
 12 13  1  0  0  0  0
 13 15  1  0  0  0  0
 14 17  1  6  0  0  0
 14 16  1  0  0  0  0
 15 16  1  0  0  0  0
 15  3  1  1  0  0  0
 17 29  1  6  0  0  0
 18 22  1  6  0  0  0
 18 25  1  0  0  0  0
 18 26  1  0  0  0  0
 20 24  1  6  0  0  0
 20 23  1  0  0  0  0
 23 17  1  1  0  0  0
 25 21  1  6  0  0  0
 25 20  1  0  0  0  0
 26 19  1  6  0  0  0
 26 23  1  0  0  0  0
 28 18  1  0  0  0  0
 28 27  1  0  0  0  0
 30 29  1  0  0  0  0
 32 35  1  0  0  0  0
 33 37  1  0  0  0  0
 34 32  2  0  0  0  0
 35 31  1  0  0  0  0
 36 33  2  0  0  0  0
 36 34  1  0  0  0  0
 37 35  2  0  0  0  0
 38 44  1  0  0  0  0
 39 41  2  0  0  0  0
 41 33  1  0  0  0  0
 42 45  2  0  0  0  0
 43 42  1  0  0  0  0
 43 38  2  0  0  0  0
 44 41  1  0  0  0  0
 45 40  1  0  0  0  0
 45 39  1  0  0  0  0
M  END
>  <MODEL>
2

>  <REMARK>
 VINA RESULT:      -7.8      4.606      7.917
  Name = 
  8 active torsions:
  status: ('A' for Active; 'I' for Inactive)
    1  A    between atoms: C_2  and  S_32
    2  A    between atoms: C_4  and  C_36
    3  A    between atoms: C_5  and  C_21
    4  A    between atoms: C_5  and  C_26
    5  A    between atoms: C_5  and  O_27
    6  A    between atoms: C_11  and  C_16
    7  A    between atoms: C_15  and  S_32
    8  A    between atoms: C_18  and  C_39
                            x       y       z     vdW  Elec       q    Type
                         _______ _______ _______ _____ _____    ______ ____

>  <TORSDO>
F 8

$$$$
=
 OpenBabel11072412013D

 45 50  0  0  1  0  0  0  0  0999 V2000
  160.2580  211.1060  154.1300 C   0  0  0  0  0  0  0  0  0  0  0  0
  160.4200  210.6110  152.8670 N   0  0  0  0  0  0  0  0  0  0  0  0
  160.6610  209.2840  152.6220 C   0  0  0  0  0  0  0  0  0  0  0  0
  160.5860  208.2710  156.2070 C   0  0  0  0  0  0  0  0  0  0  0  0
  160.2100  210.3510  156.5700 C   0  0  0  0  0  0  0  0  0  0  0  0
  160.8090  206.8830  156.4330 N   0  0  0  0  0  1  0  0  0  0  0  0
  160.5670  208.8830  154.9740 C   0  0  0  0  0  0  0  0  0  0  0  0
  160.3300  210.2090  155.1990 C   0  0  0  0  0  0  0  0  0  0  0  0
  159.9410  211.5660  157.2610 N   0  0  0  0  0  1  0  0  0  0  0  0
  160.3650  209.1620  157.1990 N   0  0  0  0  0  2  0  0  0  0  0  0
  160.7400  208.3700  153.6940 C   0  0  0  0  0  3  0  0  0  0  0  0
  162.4510  208.1290  149.5980 C   0  0  0  0  0  2  0  0  0  0  0  0
  162.1600  209.1990  150.6260 C   0  0  0  0  0  2  0  0  0  0  0  0
  161.7550  206.8740  150.1020 C   0  0  1  0  0  3  0  0  0  0  0  0
  160.8110  208.8260  151.2060 C   0  0  1  0  0  3  0  0  0  0  0  0
  160.6930  207.3160  151.0950 C   0  0  0  0  0  2  0  0  0  0  0  0
  161.1390  206.0480  148.9680 C   0  0  2  0  0  3  0  0  0  0  0  0
  160.8270  202.4780  148.6620 C   0  0  2  0  0  0  0  0  0  0  0  0
  162.0170  203.1990  150.6330 F   0  0  0  0  0  0  0  0  0  0  0  0
  161.8040  204.2600  147.3320 C   0  0  1  0  0  3  0  0  0  0  0  0
  161.0390  202.2250  146.2600 O   0  0  0  0  0  1  0  0  0  0  0  0
  161.8090  201.4800  148.6980 O   0  0  0  0  0  1  0  0  0  0  0  0
  161.8630  204.7100  148.7870 C   0  0  2  0  0  3  0  0  0  0  0  0
  163.0660  203.7970  146.9500 O   0  0  0  0  0  1  0  0  0  0  0  0
  160.7820  203.1330  147.2930 C   0  0  1  0  0  3  0  0  0  0  0  0
  161.1830  203.6190  149.6130 C   0  0  1  0  0  3  0  0  0  0  0  0
  159.5970  200.8020  149.8650 O   0  0  0  0  0  1  0  0  0  0  0  0
  159.4640  201.8910  149.0020 C   0  0  0  0  0  2  0  0  0  0  0  0
  161.1480  206.7760  147.7700 O   0  0  0  0  0  0  0  0  0  0  0  0
  160.0490  206.4070  147.1470 O   0  0  0  0  0  1  0  0  0  0  0  0
  159.9690  212.8590  154.3630 S   0  0  0  0  0  0  0  0  0  0  0  0
  157.8520  213.0570  152.5940 C   0  0  0  0  0  3  0  0  0  0  0  0
  159.4810  213.3270  150.3510 C   0  0  0  0  0  0  0  0  0  0  0  0
  157.3060  213.2020  151.3180 C   0  0  0  0  0  3  0  0  0  0  0  0
  159.2400  213.0440  152.7410 C   0  0  0  0  0  0  0  0  0  0  0  0
  158.1210  213.3340  150.2370 N   0  0  0  0  0  0  0  0  0  0  0  0
  160.0580  213.1820  151.6200 C   0  0  0  0  0  3  0  0  0  0  0  0
  159.7250  213.7670  146.7730 C   0  0  0  0  0  3  0  0  0  0  0  0
  161.4950  212.8170  149.0800 C   0  0  0  0  0  3  0  0  0  0  0  0
  163.7320  212.5500  148.1960 F   0  0  0  0  0  0  0  0  0  0  0  0
  160.3340  213.4800  149.1530 C   0  0  0  0  0  0  0  0  0  0  0  0
  162.0590  212.8960  146.6490 C   0  0  0  0  0  3  0  0  0  0  0  0
  160.6910  213.1110  146.1330 C   0  0  0  0  0  3  0  0  0  0  0  0
  159.9410  214.4520  148.0810 C   0  0  0  0  0  2  0  0  0  0  0  0
  162.4300  212.8170  147.9360 C   0  0  0  0  0  0  0  0  0  0  0  0
  1 31  1  0  0  0  0
  1  8  1  0  0  0  0
  2  1  2  0  0  0  0
  3  2  1  0  0  0  0
  3 11  2  0  0  0  0
  4  6  1  0  0  0  0
  4 10  1  0  0  0  0
  5 10  1  0  0  0  0
  5  9  1  0  0  0  0
  7  8  1  0  0  0  0
  7  4  2  0  0  0  0
  8  5  2  0  0  0  0
 11  7  1  0  0  0  0
 12 14  1  0  0  0  0
 12 13  1  0  0  0  0
 13 15  1  0  0  0  0
 14 17  1  6  0  0  0
 14 16  1  0  0  0  0
 15  3  1  1  0  0  0
 16 15  1  0  0  0  0
 17 29  1  6  0  0  0
 18 22  1  1  0  0  0
 18 28  1  0  0  0  0
 18 26  1  0  0  0  0
 20 24  1  1  0  0  0
 20 23  1  0  0  0  0
 23 17  1  6  0  0  0
 23 26  1  0  0  0  0
 25 21  1  6  0  0  0
 25 20  1  0  0  0  0
 25 18  1  0  0  0  0
 26 19  1  1  0  0  0
 28 27  1  0  0  0  0
 30 29  1  0  0  0  0
 32 35  1  0  0  0  0
 33 37  1  0  0  0  0
 34 32  2  0  0  0  0
 35 31  1  0  0  0  0
 36 33  2  0  0  0  0
 36 34  1  0  0  0  0
 37 35  2  0  0  0  0
 38 44  1  0  0  0  0
 39 41  2  0  0  0  0
 41 33  1  0  0  0  0
 42 45  2  0  0  0  0
 43 42  1  0  0  0  0
 43 38  2  0  0  0  0
 44 41  1  0  0  0  0
 45 40  1  0  0  0  0
 45 39  1  0  0  0  0
M  END
>  <MODEL>
3

>  <REMARK>
 VINA RESULT:      -7.4      4.734      8.060
  Name = 
  8 active torsions:
  status: ('A' for Active; 'I' for Inactive)
    1  A    between atoms: C_2  and  S_32
    2  A    between atoms: C_4  and  C_36
    3  A    between atoms: C_5  and  C_21
    4  A    between atoms: C_5  and  C_26
    5  A    between atoms: C_5  and  O_27
    6  A    between atoms: C_11  and  C_16
    7  A    between atoms: C_15  and  S_32
    8  A    between atoms: C_18  and  C_39
                            x       y       z     vdW  Elec       q    Type
                         _______ _______ _______ _____ _____    ______ ____

>  <TORSDO>
F 8

$$$$
=
 OpenBabel11072412013D

 45 50  0  0  1  0  0  0  0  0999 V2000
  161.9090  208.9550  153.2080 C   0  0  0  0  0  0  0  0  0  0  0  0
  162.1360  207.8040  152.5070 N   0  0  0  0  0  0  0  0  0  0  0  0
  161.5740  206.6040  152.8610 C   0  0  0  0  0  0  0  0  0  0  0  0
  159.7220  207.9630  155.7950 C   0  0  0  0  0  0  0  0  0  0  0  0
  160.6110  209.8300  155.2270 C   0  0  0  0  0  0  0  0  0  0  0  0
  158.9570  206.9980  156.5080 N   0  0  0  0  0  1  0  0  0  0  0  0
  160.4890  207.7050  154.6810 C   0  0  0  0  0  0  0  0  0  0  0  0
  161.0600  208.8900  154.3160 C   0  0  0  0  0  0  0  0  0  0  0  0
  160.9380  211.2160  155.2230 N   0  0  0  0  0  1  0  0  0  0  0  0
  159.7860  209.2680  156.1410 N   0  0  0  0  0  2  0  0  0  0  0  0
  160.7180  206.5270  153.9800 C   0  0  0  0  0  3  0  0  0  0  0  0
  160.9530  203.2740  151.3770 C   0  0  0  0  0  2  0  0  0  0  0  0
  161.2060  204.1500  152.5830 C   0  0  0  0  0  2  0  0  0  0  0  0
  160.7440  204.2280  150.2120 C   0  0  1  0  0  3  0  0  0  0  0  0
  161.8640  205.3970  152.0280 C   0  0  1  0  0  3  0  0  0  0  0  0
  161.3520  205.5640  150.6090 C   0  0  0  0  0  2  0  0  0  0  0  0
  161.3610  203.7080  148.9090 C   0  0  2  0  0  3  0  0  0  0  0  0
  161.7040  204.8550  145.5170 C   0  0  2  0  0  0  0  0  0  0  0  0
  163.7910  204.6890  146.7180 F   0  0  0  0  0  0  0  0  0  0  0  0
  160.5380  205.6240  147.5050 C   0  0  1  0  0  3  0  0  0  0  0  0
  159.6980  206.2010  145.3060 O   0  0  0  0  0  1  0  0  0  0  0  0
  162.3370  205.9980  145.0100 O   0  0  0  0  0  1  0  0  0  0  0  0
  161.7680  204.8570  147.9800 C   0  0  2  0  0  3  0  0  0  0  0  0
  160.7990  206.9940  147.5900 O   0  0  0  0  0  1  0  0  0  0  0  0
  160.3280  205.2040  146.0580 C   0  0  1  0  0  3  0  0  0  0  0  0
  162.4580  204.3150  146.7300 C   0  0  1  0  0  3  0  0  0  0  0  0
  160.8310  202.7090  144.8860 O   0  0  0  0  0  1  0  0  0  0  0  0
  161.5830  203.7940  144.4330 C   0  0  0  0  0  2  0  0  0  0  0  0
  160.4750  202.8420  148.2570 O   0  0  0  0  0  0  0  0  0  0  0  0
  161.0760  201.6710  148.2790 O   0  0  0  0  0  1  0  0  0  0  0  0
  162.7020  210.4770  152.6910 S   0  0  0  0  0  0  0  0  0  0  0  0
  162.3070  208.9130  150.4440 C   0  0  0  0  0  3  0  0  0  0  0  0
  161.6530  211.0670  148.8040 C   0  0  0  0  0  0  0  0  0  0  0  0
  161.9890  208.7250  149.0980 C   0  0  0  0  0  3  0  0  0  0  0  0
  162.2980  210.2050  150.9700 C   0  0  0  0  0  0  0  0  0  0  0  0
  161.6710  209.7930  148.3160 N   0  0  0  0  0  0  0  0  0  0  0  0
  161.9690  211.2860  150.1520 C   0  0  0  0  0  3  0  0  0  0  0  0
  159.1100  212.8810  146.9880 C   0  0  0  0  0  3  0  0  0  0  0  0
  162.1560  212.6010  146.9810 C   0  0  0  0  0  3  0  0  0  0  0  0
  163.0210  214.2900  145.4780 F   0  0  0  0  0  0  0  0  0  0  0  0
  161.2960  212.2010  147.9250 C   0  0  0  0  0  0  0  0  0  0  0  0
  160.7400  213.9650  145.4420 C   0  0  0  0  0  3  0  0  0  0  0  0
  159.4340  213.3710  145.7930 C   0  0  0  0  0  3  0  0  0  0  0  0
  160.0220  212.9550  148.1670 C   0  0  0  0  0  2  0  0  0  0  0  0
  161.9290  213.6740  145.9900 C   0  0  0  0  0  0  0  0  0  0  0  0
  1  8  1  0  0  0  0
  2  3  1  0  0  0  0
  2  1  2  0  0  0  0
  3 11  2  0  0  0  0
  4 10  1  0  0  0  0
  4  6  1  0  0  0  0
  5 10  1  0  0  0  0
  7  4  2  0  0  0  0
  8  7  1  0  0  0  0
  8  5  2  0  0  0  0
  9  5  1  0  0  0  0
 11  7  1  0  0  0  0
 12 13  1  0  0  0  0
 14 17  1  6  0  0  0
 14 16  1  0  0  0  0
 14 12  1  0  0  0  0
 15 13  1  0  0  0  0
 15  3  1  1  0  0  0
 16 15  1  0  0  0  0
 17 29  1  6  0  0  0
 18 22  1  6  0  0  0
 18 25  1  0  0  0  0
 18 26  1  0  0  0  0
 20 24  1  6  0  0  0
 20 23  1  0  0  0  0
 23 17  1  1  0  0  0
 25 21  1  6  0  0  0
 25 20  1  0  0  0  0
 26 19  1  6  0  0  0
 26 23  1  0  0  0  0
 28 27  1  0  0  0  0
 28 18  1  0  0  0  0
 29 30  1  0  0  0  0
 31  1  1  0  0  0  0
 32 35  1  0  0  0  0
 33 37  1  0  0  0  0
 34 32  2  0  0  0  0
 35 31  1  0  0  0  0
 36 33  2  0  0  0  0
 36 34  1  0  0  0  0
 37 35  2  0  0  0  0
 38 44  1  0  0  0  0
 39 41  2  0  0  0  0
 40 45  1  0  0  0  0
 41 44  1  0  0  0  0
 41 33  1  0  0  0  0
 42 43  1  0  0  0  0
 42 45  2  0  0  0  0
 43 38  2  0  0  0  0
 45 39  1  0  0  0  0
M  END
>  <MODEL>
4

>  <REMARK>
 VINA RESULT:      -7.2      4.516      7.383
  Name = 
  8 active torsions:
  status: ('A' for Active; 'I' for Inactive)
    1  A    between atoms: C_2  and  S_32
    2  A    between atoms: C_4  and  C_36
    3  A    between atoms: C_5  and  C_21
    4  A    between atoms: C_5  and  C_26
    5  A    between atoms: C_5  and  O_27
    6  A    between atoms: C_11  and  C_16
    7  A    between atoms: C_15  and  S_32
    8  A    between atoms: C_18  and  C_39
                            x       y       z     vdW  Elec       q    Type
                         _______ _______ _______ _____ _____    ______ ____

>  <TORSDO>
F 8

$$$$
=
 OpenBabel11072412013D

 45 50  0  0  1  0  0  0  0  0999 V2000
  160.3790  211.6000  154.1860 C   0  0  0  0  0  0  0  0  0  0  0  0
  160.3410  212.2180  152.9680 N   0  0  0  0  0  0  0  0  0  0  0  0
  159.1820  212.7190  152.4330 C   0  0  0  0  0  0  0  0  0  0  0  0
  157.0390  211.7360  155.3180 C   0  0  0  0  0  0  0  0  0  0  0  0
  158.8610  210.9580  156.1380 C   0  0  0  0  0  0  0  0  0  0  0  0
  155.6650  212.0820  155.1770 N   0  0  0  0  0  1  0  0  0  0  0  0
  158.0230  211.9920  154.3900 C   0  0  0  0  0  0  0  0  0  0  0  0
  159.1860  211.4970  154.9050 C   0  0  0  0  0  0  0  0  0  0  0  0
  159.7720  210.3430  157.0430 N   0  0  0  0  0  1  0  0  0  0  0  0
  157.5410  211.1020  156.4010 N   0  0  0  0  0  2  0  0  0  0  0  0
  157.9700  212.6170  153.1490 C   0  0  0  0  0  3  0  0  0  0  0  0
  160.7580  214.3640  149.5190 C   0  0  0  0  0  2  0  0  0  0  0  0
  160.4050  214.3490  150.9890 C   0  0  0  0  0  2  0  0  0  0  0  0
  160.3790  212.9890  148.9910 C   0  0  1  0  0  3  0  0  0  0  0  0
  159.2340  213.3940  151.0990 C   0  0  1  0  0  3  0  0  0  0  0  0
  159.3870  212.3880  149.9730 C   0  0  0  0  0  2  0  0  0  0  0  0
  159.7890  213.0460  147.5770 C   0  0  2  0  0  3  0  0  0  0  0  0
  161.2880  213.3970  144.3270 C   0  0  2  0  0  0  0  0  0  0  0  0
  159.8740  211.4550  144.5560 F   0  0  0  0  0  0  0  0  0  0  0  0
  162.1020  213.1620  146.6030 C   0  0  1  0  0  3  0  0  0  0  0  0
  163.4560  214.2920  144.9400 O   0  0  0  0  0  1  0  0  0  0  0  0
  162.0480  212.4870  143.5800 O   0  0  0  0  0  1  0  0  0  0  0  0
  160.7520  212.4580  146.5410 C   0  0  2  0  0  3  0  0  0  0  0  0
  163.1160  212.2020  146.5440 O   0  0  0  0  0  1  0  0  0  0  0  0
  162.1480  214.0690  145.3830 C   0  0  1  0  0  3  0  0  0  0  0  0
  160.2100  212.6700  145.1280 C   0  0  1  0  0  3  0  0  0  0  0  0
  159.6570  213.8880  142.6330 O   0  0  0  0  0  1  0  0  0  0  0  0
  160.6720  214.4460  143.4120 C   0  0  0  0  0  2  0  0  0  0  0  0
  159.4490  214.3620  147.2390 O   0  0  0  0  0  0  0  0  0  0  0  0
  158.2310  214.2770  146.7470 O   0  0  0  0  0  1  0  0  0  0  0  0
  161.9330  210.9530  154.8010 S   0  0  0  0  0  0  0  0  0  0  0  0
  161.0800  208.3530  155.2040 C   0  0  0  0  0  3  0  0  0  0  0  0
  161.4030  207.6130  152.5380 C   0  0  0  0  0  0  0  0  0  0  0  0
  160.7860  207.0580  154.7730 C   0  0  0  0  0  3  0  0  0  0  0  0
  161.5470  209.2870  154.2780 C   0  0  0  0  0  0  0  0  0  0  0  0
  160.9500  206.7200  153.4650 N   0  0  0  0  0  0  0  0  0  0  0  0
  161.7080  208.9200  152.9420 C   0  0  0  0  0  3  0  0  0  0  0  0
  162.1970  208.5380  149.1360 C   0  0  0  0  0  3  0  0  0  0  0  0
  160.7500  206.2800  150.6080 C   0  0  0  0  0  3  0  0  0  0  0  0
  160.2610  204.5640  148.9720 F   0  0  0  0  0  0  0  0  0  0  0  0
  161.5620  207.2100  151.1250 C   0  0  0  0  0  0  0  0  0  0  0  0
  161.0150  206.5790  148.1440 C   0  0  0  0  0  3  0  0  0  0  0  0
  161.4820  207.9800  148.1610 C   0  0  0  0  0  3  0  0  0  0  0  0
  162.6940  207.7700  150.3160 C   0  0  0  0  0  2  0  0  0  0  0  0
  160.7410  205.8090  149.2070 C   0  0  0  0  0  0  0  0  0  0  0  0
  1 31  1  0  0  0  0
  1  8  1  0  0  0  0
  2  1  2  0  0  0  0
  3  2  1  0  0  0  0
  3 11  2  0  0  0  0
  4 10  1  0  0  0  0
  5 10  1  0  0  0  0
  5  9  1  0  0  0  0
  6  4  1  0  0  0  0
  7  8  1  0  0  0  0
  7  4  2  0  0  0  0
  8  5  2  0  0  0  0
 11  7  1  0  0  0  0
 12 13  1  0  0  0  0
 13 15  1  0  0  0  0
 14 17  1  6  0  0  0
 14 12  1  0  0  0  0
 14 16  1  0  0  0  0
 15  3  1  1  0  0  0
 16 15  1  0  0  0  0
 17 29  1  6  0  0  0
 18 22  1  6  0  0  0
 18 26  1  0  0  0  0
 18 25  1  0  0  0  0
 20 24  1  6  0  0  0
 23 20  1  0  0  0  0
 23 17  1  1  0  0  0
 25 21  1  6  0  0  0
 25 20  1  0  0  0  0
 26 19  1  6  0  0  0
 26 23  1  0  0  0  0
 27 28  1  0  0  0  0
 28 18  1  0  0  0  0
 30 29  1  0  0  0  0
 33 37  2  0  0  0  0
 33 36  1  0  0  0  0
 34 32  1  0  0  0  0
 35 31  1  0  0  0  0
 35 32  2  0  0  0  0
 36 34  2  0  0  0  0
 37 35  1  0  0  0  0
 38 44  1  0  0  0  0
 39 41  2  0  0  0  0
 40 45  1  0  0  0  0
 41 33  1  0  0  0  0
 42 43  1  0  0  0  0
 42 45  2  0  0  0  0
 43 38  2  0  0  0  0
 44 41  1  0  0  0  0
 45 39  1  0  0  0  0
M  END
>  <MODEL>
5

>  <REMARK>
 VINA RESULT:      -7.1      4.626      9.238
  Name = 
  8 active torsions:
  status: ('A' for Active; 'I' for Inactive)
    1  A    between atoms: C_2  and  S_32
    2  A    between atoms: C_4  and  C_36
    3  A    between atoms: C_5  and  C_21
    4  A    between atoms: C_5  and  C_26
    5  A    between atoms: C_5  and  O_27
    6  A    between atoms: C_11  and  C_16
    7  A    between atoms: C_15  and  S_32
    8  A    between atoms: C_18  and  C_39
                            x       y       z     vdW  Elec       q    Type
                         _______ _______ _______ _____ _____    ______ ____

>  <TORSDO>
F 8

$$$$
=
 OpenBabel11072412013D

 45 50  0  0  1  0  0  0  0  0999 V2000
  161.9010  208.9180  153.4300 C   0  0  0  0  0  0  0  0  0  0  0  0
  161.9970  207.7690  152.6960 N   0  0  0  0  0  0  0  0  0  0  0  0
  161.5370  206.5620  153.1560 C   0  0  0  0  0  0  0  0  0  0  0  0
  160.3020  207.8990  156.4070 C   0  0  0  0  0  0  0  0  0  0  0  0
  161.0290  209.7790  155.6720 C   0  0  0  0  0  0  0  0  0  0  0  0
  159.7120  206.9240  157.2610 N   0  0  0  0  0  1  0  0  0  0  0  0
  160.8290  207.6510  155.1600 C   0  0  0  0  0  0  0  0  0  0  0  0
  161.2960  208.8430  154.6870 C   0  0  0  0  0  0  0  0  0  0  0  0
  161.3270  211.1690  155.6020 N   0  0  0  0  0  1  0  0  0  0  0  0
  160.4160  209.2060  156.7340 N   0  0  0  0  0  2  0  0  0  0  0  0
  160.9280  206.4750  154.4260 C   0  0  0  0  0  3  0  0  0  0  0  0
  160.4010  203.5660  151.3100 C   0  0  0  0  0  2  0  0  0  0  0  0
  160.6400  204.2970  152.6120 C   0  0  0  0  0  2  0  0  0  0  0  0
  160.6400  204.5910  150.2120 C   0  0  1  0  0  3  0  0  0  0  0  0
  161.6690  205.3570  152.2800 C   0  0  1  0  0  3  0  0  0  0  0  0
  161.4730  205.7100  150.8170 C   0  0  0  0  0  2  0  0  0  0  0  0
  161.3350  203.9880  148.9870 C   0  0  2  0  0  3  0  0  0  0  0  0
  161.8200  205.0750  145.5930 C   0  0  2  0  0  0  0  0  0  0  0  0
  163.8690  204.6560  146.7970 F   0  0  0  0  0  0  0  0  0  0  0  0
  160.7550  205.9860  147.5770 C   0  0  1  0  0  3  0  0  0  0  0  0
  159.9950  206.6560  145.3760 O   0  0  0  0  0  1  0  0  0  0  0  0
  162.5890  206.1300  145.0840 O   0  0  0  0  0  1  0  0  0  0  0  0
  161.8800  205.0750  148.0560 C   0  0  2  0  0  3  0  0  0  0  0  0
  161.1820  207.3140  147.6590 O   0  0  0  0  0  1  0  0  0  0  0  0
  160.4970  205.5910  146.1310 C   0  0  1  0  0  3  0  0  0  0  0  0
  162.5010  204.4490  146.8080 C   0  0  1  0  0  3  0  0  0  0  0  0
  160.5200  203.1880  144.8720 O   0  0  0  0  0  1  0  0  0  0  0  0
  161.5710  204.0340  144.5110 C   0  0  0  0  0  2  0  0  0  0  0  0
  160.4600  203.1420  148.2930 O   0  0  0  0  0  0  0  0  0  0  0  0
  160.9970  201.9450  148.3980 O   0  0  0  0  0  1  0  0  0  0  0  0
  162.5490  210.4500  152.7630 S   0  0  0  0  0  0  0  0  0  0  0  0
  159.8340  210.7600  153.1920 C   0  0  0  0  0  3  0  0  0  0  0  0
  159.4500  212.3610  150.9460 C   0  0  0  0  0  0  0  0  0  0  0  0
  158.5710  211.2560  152.8670 C   0  0  0  0  0  3  0  0  0  0  0  0
  160.9180  211.0730  152.3720 C   0  0  0  0  0  0  0  0  0  0  0  0
  158.4070  212.0380  151.7660 N   0  0  0  0  0  0  0  0  0  0  0  0
  160.7300  211.8760  151.2480 C   0  0  0  0  0  3  0  0  0  0  0  0
  157.1700  213.7150  148.4910 C   0  0  0  0  0  3  0  0  0  0  0  0
  160.1820  213.2960  148.8200 C   0  0  0  0  0  3  0  0  0  0  0  0
  161.2640  214.4530  146.9900 F   0  0  0  0  0  0  0  0  0  0  0  0
  159.2340  213.2190  149.7620 C   0  0  0  0  0  0  0  0  0  0  0  0
  158.9730  214.2420  146.8510 C   0  0  0  0  0  3  0  0  0  0  0  0
  157.6080  213.8330  147.2390 C   0  0  0  0  0  3  0  0  0  0  0  0
  158.0030  214.0710  149.6770 C   0  0  0  0  0  2  0  0  0  0  0  0
  160.0990  214.0590  147.5570 C   0  0  0  0  0  0  0  0  0  0  0  0
  1  8  1  0  0  0  0
  2  3  1  0  0  0  0
  2  1  2  0  0  0  0
  3 11  2  0  0  0  0
  4 10  1  0  0  0  0
  4  6  1  0  0  0  0
  5 10  1  0  0  0  0
  7  4  2  0  0  0  0
  8  7  1  0  0  0  0
  8  5  2  0  0  0  0
  9  5  1  0  0  0  0
 11  7  1  0  0  0  0
 12 13  1  0  0  0  0
 14 17  1  6  0  0  0
 14 16  1  0  0  0  0
 14 12  1  0  0  0  0
 15 13  1  0  0  0  0
 15  3  1  1  0  0  0
 16 15  1  0  0  0  0
 17 29  1  6  0  0  0
 18 22  1  6  0  0  0
 18 25  1  0  0  0  0
 18 26  1  0  0  0  0
 20 24  1  6  0  0  0
 20 23  1  0  0  0  0
 23 17  1  1  0  0  0
 25 21  1  6  0  0  0
 25 20  1  0  0  0  0
 26 19  1  6  0  0  0
 26 23  1  0  0  0  0
 28 27  1  0  0  0  0
 28 18  1  0  0  0  0
 29 30  1  0  0  0  0
 31  1  1  0  0  0  0
 33 37  2  0  0  0  0
 33 36  1  0  0  0  0
 34 32  1  0  0  0  0
 35 31  1  0  0  0  0
 35 32  2  0  0  0  0
 36 34  2  0  0  0  0
 37 35  1  0  0  0  0
 38 44  1  0  0  0  0
 39 41  2  0  0  0  0
 40 45  1  0  0  0  0
 41 33  1  0  0  0  0
 42 43  1  0  0  0  0
 42 45  2  0  0  0  0
 43 38  2  0  0  0  0
 44 41  1  0  0  0  0
 45 39  1  0  0  0  0
M  END
>  <MODEL>
6

>  <REMARK>
 VINA RESULT:      -7.1      4.551      7.537
  Name = 
  8 active torsions:
  status: ('A' for Active; 'I' for Inactive)
    1  A    between atoms: C_2  and  S_32
    2  A    between atoms: C_4  and  C_36
    3  A    between atoms: C_5  and  C_21
    4  A    between atoms: C_5  and  C_26
    5  A    between atoms: C_5  and  O_27
    6  A    between atoms: C_11  and  C_16
    7  A    between atoms: C_15  and  S_32
    8  A    between atoms: C_18  and  C_39
                            x       y       z     vdW  Elec       q    Type
                         _______ _______ _______ _____ _____    ______ ____

>  <TORSDO>
F 8

$$$$
=
 OpenBabel11072412013D

 45 50  0  0  1  0  0  0  0  0999 V2000
  159.0230  212.8110  153.4160 C   0  0  0  0  0  0  0  0  0  0  0  0
  159.5460  211.9560  152.4880 N   0  0  0  0  0  0  0  0  0  0  0  0
  159.9760  210.6940  152.8100 C   0  0  0  0  0  0  0  0  0  0  0  0
  159.1120  210.9670  156.4240 C   0  0  0  0  0  0  0  0  0  0  0  0
  158.4460  212.9380  155.9010 C   0  0  0  0  0  0  0  0  0  0  0  0
  159.4140  209.8070  157.1920 N   0  0  0  0  0  1  0  0  0  0  0  0
  159.3390  211.1080  155.0730 C   0  0  0  0  0  0  0  0  0  0  0  0
  158.9180  212.3620  154.7350 C   0  0  0  0  0  0  0  0  0  0  0  0
  157.8890  214.2430  156.0190 N   0  0  0  0  0  1  0  0  0  0  0  0
  158.5600  212.0850  156.9460 N   0  0  0  0  0  2  0  0  0  0  0  0
  159.8780  210.2320  154.1390 C   0  0  0  0  0  3  0  0  0  0  0  0
  162.5690  209.1730  150.6550 C   0  0  0  0  0  2  0  0  0  0  0  0
  161.7900  210.3820  151.1220 C   0  0  0  0  0  2  0  0  0  0  0  0
  162.1810  208.0440  151.5980 C   0  0  1  0  0  3  0  0  0  0  0  0
  160.5210  209.8180  151.7270 C   0  0  1  0  0  3  0  0  0  0  0  0
  160.8660  208.4360  152.2520 C   0  0  0  0  0  2  0  0  0  0  0  0
  162.0590  206.6960  150.8800 C   0  0  2  0  0  3  0  0  0  0  0  0
  162.2300  205.7440  147.4160 C   0  0  2  0  0  0  0  0  0  0  0  0
  162.6790  208.0800  147.8200 F   0  0  0  0  0  0  0  0  0  0  0  0
  160.5330  205.6950  149.1530 C   0  0  1  0  0  3  0  0  0  0  0  0
  160.4440  204.1070  147.3240 O   0  0  0  0  0  1  0  0  0  0  0  0
  161.5820  206.2850  146.2980 O   0  0  0  0  0  1  0  0  0  0  0  0
  161.4660  206.8570  149.4770 C   0  0  2  0  0  3  0  0  0  0  0  0
  159.3720  206.2000  148.5600 O   0  0  0  0  0  1  0  0  0  0  0  0
  161.2980  204.8160  148.1750 C   0  0  1  0  0  3  0  0  0  0  0  0
  162.5720  206.8390  148.4230 C   0  0  1  0  0  3  0  0  0  0  0  0
  163.4600  204.7420  145.6130 O   0  0  0  0  0  1  0  0  0  0  0  0
  163.4800  204.9880  146.9870 C   0  0  0  0  0  2  0  0  0  0  0  0
  161.2900  205.8040  151.6380 O   0  0  0  0  0  0  0  0  0  0  0  0
  162.1500  204.9090  152.0750 O   0  0  0  0  0  1  0  0  0  0  0  0
  158.5060  214.4530  152.9140 S   0  0  0  0  0  0  0  0  0  0  0  0
  156.9280  213.7020  150.7700 C   0  0  0  0  0  3  0  0  0  0  0  0
  159.0790  213.3920  149.0280 C   0  0  0  0  0  0  0  0  0  0  0  0
  156.7340  213.3050  149.4470 C   0  0  0  0  0  3  0  0  0  0  0  0
  158.2260  213.9430  151.2230 C   0  0  0  0  0  0  0  0  0  0  0  0
  157.7990  213.1610  148.6130 N   0  0  0  0  0  0  0  0  0  0  0  0
  159.3050  213.7910  150.3520 C   0  0  0  0  0  3  0  0  0  0  0  0
  162.5460  214.0340  148.2380 C   0  0  0  0  0  3  0  0  0  0  0  0
  159.9820  213.2380  146.7720 C   0  0  0  0  0  3  0  0  0  0  0  0
  160.6100  212.6560  144.5070 F   0  0  0  0  0  0  0  0  0  0  0  0
  160.2110  213.2310  148.0900 C   0  0  0  0  0  0  0  0  0  0  0  0
  162.2380  213.6620  145.7910 C   0  0  0  0  0  3  0  0  0  0  0  0
  162.8510  214.3060  146.9710 C   0  0  0  0  0  3  0  0  0  0  0  0
  161.5840  212.9600  148.6260 C   0  0  0  0  0  2  0  0  0  0  0  0
  161.0030  213.1460  145.7070 C   0  0  0  0  0  0  0  0  0  0  0  0
  1  8  1  0  0  0  0
  2  3  1  0  0  0  0
  2  1  2  0  0  0  0
  3 11  2  0  0  0  0
  4 10  1  0  0  0  0
  4  6  1  0  0  0  0
  5  9  1  0  0  0  0
  5 10  1  0  0  0  0
  7  4  2  0  0  0  0
  8  7  1  0  0  0  0
  8  5  2  0  0  0  0
 11  7  1  0  0  0  0
 12 13  1  0  0  0  0
 12 14  1  0  0  0  0
 13 15  1  0  0  0  0
 14 17  1  6  0  0  0
 14 16  1  0  0  0  0
 15 16  1  0  0  0  0
 15  3  1  1  0  0  0
 17 29  1  1  0  0  0
 18 22  1  6  0  0  0
 18 25  1  0  0  0  0
 18 26  1  0  0  0  0
 20 24  1  6  0  0  0
 20 23  1  0  0  0  0
 23 17  1  1  0  0  0
 25 21  1  6  0  0  0
 25 20  1  0  0  0  0
 26 19  1  6  0  0  0
 26 23  1  0  0  0  0
 27 28  1  0  0  0  0
 28 18  1  0  0  0  0
 29 30  1  0  0  0  0
 31  1  1  0  0  0  0
 32 35  1  0  0  0  0
 33 37  1  0  0  0  0
 34 32  2  0  0  0  0
 35 31  1  0  0  0  0
 36 33  2  0  0  0  0
 36 34  1  0  0  0  0
 37 35  2  0  0  0  0
 38 44  1  0  0  0  0
 39 41  2  0  0  0  0
 40 45  1  0  0  0  0
 41 44  1  0  0  0  0
 41 33  1  0  0  0  0
 42 43  1  0  0  0  0
 43 38  2  0  0  0  0
 45 42  2  0  0  0  0
 45 39  1  0  0  0  0
M  END
>  <MODEL>
7

>  <REMARK>
 VINA RESULT:      -7.0      4.570      8.078
  Name = 
  8 active torsions:
  status: ('A' for Active; 'I' for Inactive)
    1  A    between atoms: C_2  and  S_32
    2  A    between atoms: C_4  and  C_36
    3  A    between atoms: C_5  and  C_21
    4  A    between atoms: C_5  and  C_26
    5  A    between atoms: C_5  and  O_27
    6  A    between atoms: C_11  and  C_16
    7  A    between atoms: C_15  and  S_32
    8  A    between atoms: C_18  and  C_39
                            x       y       z     vdW  Elec       q    Type
                         _______ _______ _______ _____ _____    ______ ____

>  <TORSDO>
F 8

$$$$
=
 OpenBabel11072412013D

 45 50  0  0  1  0  0  0  0  0999 V2000
  161.2450  210.0030  154.2380 C   0  0  0  0  0  0  0  0  0  0  0  0
  161.5830  209.2890  153.1230 N   0  0  0  0  0  0  0  0  0  0  0  0
  161.4010  207.9330  153.0350 C   0  0  0  0  0  0  0  0  0  0  0  0
  159.9310  207.5790  156.4400 C   0  0  0  0  0  0  0  0  0  0  0  0
  160.2250  209.7000  156.5600 C   0  0  0  0  0  0  0  0  0  0  0  0
  159.5740  206.2460  156.7940 N   0  0  0  0  0  1  0  0  0  0  0  0
  160.4890  207.9620  155.2420 C   0  0  0  0  0  0  0  0  0  0  0  0
  160.6810  209.3110  155.3130 C   0  0  0  0  0  0  0  0  0  0  0  0
  160.2130  211.0310  157.0650 N   0  0  0  0  0  1  0  0  0  0  0  0
  159.7590  208.6400  157.2610 N   0  0  0  0  0  2  0  0  0  0  0  0
  160.8350  207.2240  154.1160 C   0  0  0  0  0  3  0  0  0  0  0  0
  161.1590  205.4060  150.3450 C   0  0  0  0  0  2  0  0  0  0  0  0
  161.4040  205.7670  151.7930 C   0  0  0  0  0  2  0  0  0  0  0  0
  160.6680  206.6830  149.6800 C   0  0  1  0  0  3  0  0  0  0  0  0
  161.7850  207.2330  151.7700 C   0  0  1  0  0  3  0  0  0  0  0  0
  161.0940  207.8430  150.5650 C   0  0  0  0  0  2  0  0  0  0  0  0
  161.2080  206.8490  148.2560 C   0  0  2  0  0  3  0  0  0  0  0  0
  161.5000  205.2970  145.0240 C   0  0  2  0  0  0  0  0  0  0  0  0
  159.2520  205.9590  145.6010 F   0  0  0  0  0  0  0  0  0  0  0  0
  161.9750  204.6480  147.3160 C   0  0  1  0  0  3  0  0  0  0  0  0
  163.2050  203.6380  145.4880 O   0  0  0  0  0  1  0  0  0  0  0  0
  160.8080  204.2080  144.4800 O   0  0  0  0  0  1  0  0  0  0  0  0
  160.8340  205.6570  147.3690 C   0  0  2  0  0  3  0  0  0  0  0  0
  161.4470  203.3620  147.4610 O   0  0  0  0  0  1  0  0  0  0  0  0
  162.6100  204.8180  145.9440 C   0  0  1  0  0  3  0  0  0  0  0  0
  160.5870  206.1170  145.9320 C   0  0  1  0  0  3  0  0  0  0  0  0
  161.5280  205.8160  142.6790 O   0  0  0  0  0  1  0  0  0  0  0  0
  162.0820  206.1610  143.9130 C   0  0  0  0  0  2  0  0  0  0  0  0
  162.5980  207.0270  148.2760 O   0  0  0  0  0  0  0  0  0  0  0  0
  162.7690  208.3280  148.1720 O   0  0  0  0  0  1  0  0  0  0  0  0
  161.5390  211.7710  154.2790 S   0  0  0  0  0  0  0  0  0  0  0  0
  158.7870  211.9700  154.0890 C   0  0  0  0  0  3  0  0  0  0  0  0
  158.8250  212.8710  151.4540 C   0  0  0  0  0  0  0  0  0  0  0  0
  157.6040  212.2590  153.4070 C   0  0  0  0  0  3  0  0  0  0  0  0
  160.0060  212.1340  153.4310 C   0  0  0  0  0  0  0  0  0  0  0  0
  157.6470  212.6990  152.1210 N   0  0  0  0  0  0  0  0  0  0  0  0
  160.0290  212.5870  152.1120 C   0  0  0  0  0  3  0  0  0  0  0  0
  157.1170  213.1750  148.2840 C   0  0  0  0  0  3  0  0  0  0  0  0
  159.9750  213.3500  149.3610 C   0  0  0  0  0  3  0  0  0  0  0  0
  161.3640  214.1720  147.5580 F   0  0  0  0  0  0  0  0  0  0  0  0
  158.8320  213.3580  150.0580 C   0  0  0  0  0  0  0  0  0  0  0  0
  159.2150  213.5620  146.9920 C   0  0  0  0  0  3  0  0  0  0  0  0
  157.8430  213.0460  147.1750 C   0  0  0  0  0  3  0  0  0  0  0  0
  157.5840  213.9490  149.4720 C   0  0  0  0  0  2  0  0  0  0  0  0
  160.1390  213.7480  147.9470 C   0  0  0  0  0  0  0  0  0  0  0  0
  1 31  1  0  0  0  0
  1  8  1  0  0  0  0
  2  1  2  0  0  0  0
  3  2  1  0  0  0  0
  3 11  2  0  0  0  0
  4  6  1  0  0  0  0
  4 10  1  0  0  0  0
  5  9  1  0  0  0  0
  5 10  1  0  0  0  0
  7  8  1  0  0  0  0
  7  4  2  0  0  0  0
  8  5  2  0  0  0  0
 11  7  1  0  0  0  0
 12 13  1  0  0  0  0
 14 17  1  6  0  0  0
 14 12  1  0  0  0  0
 14 16  1  0  0  0  0
 15 13  1  0  0  0  0
 15  3  1  1  0  0  0
 16 15  1  0  0  0  0
 17 29  1  1  0  0  0
 18 22  1  6  0  0  0
 18 26  1  0  0  0  0
 18 25  1  0  0  0  0
 20 23  1  0  0  0  0
 20 24  1  6  0  0  0
 23 17  1  1  0  0  0
 25 21  1  6  0  0  0
 25 20  1  0  0  0  0
 26 19  1  6  0  0  0
 26 23  1  0  0  0  0
 27 28  1  0  0  0  0
 28 18  1  0  0  0  0
 30 29  1  0  0  0  0
 33 37  1  0  0  0  0
 33 36  2  0  0  0  0
 34 32  2  0  0  0  0
 35 32  1  0  0  0  0
 35 31  1  0  0  0  0
 36 34  1  0  0  0  0
 37 35  2  0  0  0  0
 38 44  1  0  0  0  0
 39 41  2  0  0  0  0
 40 45  1  0  0  0  0
 41 33  1  0  0  0  0
 42 43  1  0  0  0  0
 42 45  2  0  0  0  0
 43 38  2  0  0  0  0
 44 41  1  0  0  0  0
 45 39  1  0  0  0  0
M  END
>  <MODEL>
8

>  <REMARK>
 VINA RESULT:      -6.8      4.836      8.009
  Name = 
  8 active torsions:
  status: ('A' for Active; 'I' for Inactive)
    1  A    between atoms: C_2  and  S_32
    2  A    between atoms: C_4  and  C_36
    3  A    between atoms: C_5  and  C_21
    4  A    between atoms: C_5  and  C_26
    5  A    between atoms: C_5  and  O_27
    6  A    between atoms: C_11  and  C_16
    7  A    between atoms: C_15  and  S_32
    8  A    between atoms: C_18  and  C_39
                            x       y       z     vdW  Elec       q    Type
                         _______ _______ _______ _____ _____    ______ ____

>  <TORSDO>
F 8

$$$$
=
 OpenBabel11072412013D

 45 50  0  0  1  0  0  0  0  0999 V2000
  160.5930  211.4810  153.9910 C   0  0  0  0  0  0  0  0  0  0  0  0
  161.2740  211.4730  152.8070 N   0  0  0  0  0  0  0  0  0  0  0  0
  160.7380  211.9690  151.6460 C   0  0  0  0  0  0  0  0  0  0  0  0
  157.5030  212.9870  153.1890 C   0  0  0  0  0  0  0  0  0  0  0  0
  158.3580  212.2060  154.9940 C   0  0  0  0  0  0  0  0  0  0  0  0
  156.5790  213.5820  152.2840 N   0  0  0  0  0  1  0  0  0  0  0  0
  158.7590  212.5300  152.8580 C   0  0  0  0  0  0  0  0  0  0  0  0
  159.3080  212.0300  154.0030 C   0  0  0  0  0  0  0  0  0  0  0  0
  158.5070  211.8450  156.3640 N   0  0  0  0  0  1  0  0  0  0  0  0
  157.2440  212.7960  154.5020 N   0  0  0  0  0  2  0  0  0  0  0  0
  159.4400  212.5220  151.6460 C   0  0  0  0  0  3  0  0  0  0  0  0
  161.7590  210.8180  148.2830 C   0  0  0  0  0  2  0  0  0  0  0  0
  161.5730  210.5600  149.7610 C   0  0  0  0  0  2  0  0  0  0  0  0
  161.1160  212.1710  148.0170 C   0  0  1  0  0  3  0  0  0  0  0  0
  161.5610  211.9350  150.3980 C   0  0  1  0  0  3  0  0  0  0  0  0
  161.0230  212.8930  149.3510 C   0  0  0  0  0  2  0  0  0  0  0  0
  161.9000  213.0010  146.9950 C   0  0  2  0  0  3  0  0  0  0  0  0
  159.9770  212.5880  143.9830 C   0  0  2  0  0  0  0  0  0  0  0  0
  161.7960  214.1620  143.7840 F   0  0  0  0  0  0  0  0  0  0  0  0
  159.5150  213.3000  146.2600 C   0  0  1  0  0  3  0  0  0  0  0  0
  157.7570  212.3090  144.9170 O   0  0  0  0  0  1  0  0  0  0  0  0
  159.3480  213.5450  143.1760 O   0  0  0  0  0  1  0  0  0  0  0  0
  160.9690  213.6570  145.9700 C   0  0  2  0  0  3  0  0  0  0  0  0
  158.7350  214.4530  146.1430 O   0  0  0  0  0  1  0  0  0  0  0  0
  159.1260  212.2770  145.2020 C   0  0  1  0  0  3  0  0  0  0  0  0
  161.2750  213.1430  144.5640 C   0  0  1  0  0  3  0  0  0  0  0  0
  161.2880  211.4970  142.2920 O   0  0  0  0  0  1  0  0  0  0  0  0
  160.2340  211.3150  143.1900 C   0  0  0  0  0  2  0  0  0  0  0  0
  162.8590  212.2100  146.3500 O   0  0  0  0  0  0  0  0  0  0  0  0
  163.9910  212.4950  146.9580 O   0  0  0  0  0  1  0  0  0  0  0  0
  161.3590  210.7910  155.4570 S   0  0  0  0  0  0  0  0  0  0  0  0
  159.9230  208.4810  155.9590 C   0  0  0  0  0  3  0  0  0  0  0  0
  160.7600  207.2070  153.6280 C   0  0  0  0  0  0  0  0  0  0  0  0
  159.4930  207.1910  155.6480 C   0  0  0  0  0  3  0  0  0  0  0  0
  160.7900  209.1370  155.0850 C   0  0  0  0  0  0  0  0  0  0  0  0
  159.9140  206.5880  154.5030 N   0  0  0  0  0  0  0  0  0  0  0  0
  161.2090  208.5030  153.9150 C   0  0  0  0  0  3  0  0  0  0  0  0
  161.0510  207.2370  150.0270 C   0  0  0  0  0  3  0  0  0  0  0  0
  161.0800  205.1910  152.3000 C   0  0  0  0  0  3  0  0  0  0  0  0
  161.7380  203.0690  151.3380 F   0  0  0  0  0  0  0  0  0  0  0  0
  161.1900  206.5220  152.3910 C   0  0  0  0  0  0  0  0  0  0  0  0
  161.2480  204.7570  149.8470 C   0  0  0  0  0  3  0  0  0  0  0  0
  160.8310  206.0940  149.3790 C   0  0  0  0  0  3  0  0  0  0  0  0
  161.8380  207.3110  151.2930 C   0  0  0  0  0  2  0  0  0  0  0  0
  161.4100  204.3650  151.1200 C   0  0  0  0  0  0  0  0  0  0  0  0
  1  8  1  0  0  0  0
  1 31  1  0  0  0  0
  2  1  2  0  0  0  0
  3  2  1  0  0  0  0
  4 10  1  0  0  0  0
  5  9  1  0  0  0  0
  6  4  1  0  0  0  0
  7  4  2  0  0  0  0
  7  8  1  0  0  0  0
  8  5  2  0  0  0  0
 10  5  1  0  0  0  0
 11  3  2  0  0  0  0
 11  7  1  0  0  0  0
 12 13  1  0  0  0  0
 13 15  1  0  0  0  0
 14 17  1  6  0  0  0
 14 12  1  0  0  0  0
 14 16  1  0  0  0  0
 15  3  1  1  0  0  0
 16 15  1  0  0  0  0
 17 29  1  6  0  0  0
 18 22  1  6  0  0  0
 18 26  1  0  0  0  0
 18 25  1  0  0  0  0
 20 24  1  6  0  0  0
 23 20  1  0  0  0  0
 23 17  1  1  0  0  0
 25 21  1  6  0  0  0
 25 20  1  0  0  0  0
 26 19  1  6  0  0  0
 26 23  1  0  0  0  0
 27 28  1  0  0  0  0
 28 18  1  0  0  0  0
 29 30  1  0  0  0  0
 33 37  2  0  0  0  0
 33 36  1  0  0  0  0
 34 32  1  0  0  0  0
 35 31  1  0  0  0  0
 35 32  2  0  0  0  0
 36 34  2  0  0  0  0
 37 35  1  0  0  0  0
 38 44  1  0  0  0  0
 39 41  2  0  0  0  0
 41 33  1  0  0  0  0
 42 45  2  0  0  0  0
 43 42  1  0  0  0  0
 43 38  2  0  0  0  0
 44 41  1  0  0  0  0
 45 40  1  0  0  0  0
 45 39  1  0  0  0  0
M  END
>  <MODEL>
9

>  <REMARK>
 VINA RESULT:      -6.3      4.822      9.508
  Name = 
  8 active torsions:
  status: ('A' for Active; 'I' for Inactive)
    1  A    between atoms: C_2  and  S_32
    2  A    between atoms: C_4  and  C_36
    3  A    between atoms: C_5  and  C_21
    4  A    between atoms: C_5  and  C_26
    5  A    between atoms: C_5  and  O_27
    6  A    between atoms: C_11  and  C_16
    7  A    between atoms: C_15  and  S_32
    8  A    between atoms: C_18  and  C_39
                            x       y       z     vdW  Elec       q    Type
                         _______ _______ _______ _____ _____    ______ ____

>  <TORSDO>
F 8

$$$$
