=
 OpenBabel11072411253D

 42 46  0  0  1  0  0  0  0  0999 V2000
  161.8500  207.4190  151.0940 C   0  0  0  0  0  3  0  0  0  0  0  0
  161.4050  208.1520  153.7150 C   0  0  0  0  0  0  0  0  0  0  0  0
  161.4510  206.8370  153.3640 N   0  0  0  0  0  0  0  0  0  0  0  0
  159.3900  208.9270  155.3980 S   0  0  0  0  0  0  0  0  0  0  0  0
  159.1050  211.6620  155.1320 C   0  0  1  0  0  3  0  0  0  0  0  0
  160.0510  210.8970  153.0520 O   0  0  0  0  0  0  0  0  0  0  0  0
  161.4120  210.5830  153.0070 C   0  0  0  0  0  2  0  0  0  0  0  0
  161.5640  209.1280  152.7110 C   0  0  0  0  0  0  0  0  0  0  0  0
  161.7800  208.7330  151.4290 N   0  0  0  0  0  0  0  0  0  0  0  0
  161.6110  207.4950  156.1340 C   0  0  0  0  0  1  0  0  0  0  0  0
  159.9550  212.0080  153.8930 C   0  0  1  0  0  3  0  0  0  0  0  0
  161.1480  208.5490  155.1420 C   0  0  1  0  0  3  0  0  0  0  0  0
  159.7880  210.6010  155.9830 C   0  0  0  0  0  2  0  0  0  0  0  0
  161.6750  206.4500  152.0810 C   0  0  0  0  0  0  0  0  0  0  0  0
  159.3510  213.1550  153.0910 C   0  0  0  0  0  2  0  0  0  0  0  0
  158.2190  212.6710  152.3140 N   0  0  0  0  0  2  0  0  0  0  0  0
  158.3720  213.1810  150.9600 C   0  0  0  0  0  2  0  0  0  0  0  0
  157.1030  213.8910  150.5080 C   0  0  0  0  0  2  0  0  0  0  0  0
  156.4470  214.4510  148.1930 C   0  0  0  0  0  2  0  0  0  0  0  0
  156.6140  213.3210  149.1890 C   0  0  0  0  0  3  0  0  0  0  0  0
  157.6680  213.5600  148.1280 C   0  0  0  0  0  2  0  0  0  0  0  0
  161.7620  205.0020  151.7370 C   0  0  0  0  0  2  0  0  0  0  0  0
  160.4130  204.4660  151.2790 C   0  0  0  0  0  2  0  0  0  0  0  0
  161.8070  204.8990  148.9700 S   0  0  0  0  0  0  0  0  0  0  0  0
  161.2060  202.7920  147.3230 C   0  0  0  0  0  0  0  0  0  0  0  0
  161.0960  202.1380  146.1000 O   0  0  0  0  0  1  0  0  0  0  0  0
  160.4590  204.0300  149.8230 C   0  0  1  0  0  3  0  0  0  0  0  0
  161.1860  200.6090  148.4990 O   0  0  0  0  0  1  0  0  0  0  0  0
  161.4360  204.1220  147.3800 C   0  0  0  0  0  0  0  0  0  0  0  0
  160.7070  202.5560  149.7190 C   0  0  0  0  0  3  0  0  0  0  0  0
  161.0320  201.9880  148.5550 C   0  0  0  0  0  0  0  0  0  0  0  0
  160.5400  206.0600  146.0700 O   0  0  0  0  0  1  0  0  0  0  0  0
  161.4170  204.9850  146.1770 C   0  0  0  0  0  0  0  0  0  0  0  0
  162.2260  204.7670  145.2360 O   0  0  0  0  0  0  0  0  0  0  0  0
  158.8890  212.8830  156.0130 C   0  0  0  0  0  2  0  0  0  0  0  0
  157.4610  212.9020  156.5230 C   0  0  0  0  0  2  0  0  0  0  0  0
  156.2690  214.4520  154.9610 C   0  0  0  0  0  3  0  0  0  0  0  0
  155.6960  212.3280  154.6570 C   0  0  0  0  0  0  0  0  0  0  0  0
  155.2650  214.2960  153.8910 C   0  0  0  0  0  3  0  0  0  0  0  0
  155.6420  211.0790  154.7960 O   0  0  0  0  0  0  0  0  0  0  0  0
  156.5250  213.2350  155.4140 C   0  0  0  0  0  0  0  0  0  0  0  0
  154.9310  213.0560  153.7150 N   0  0  0  0  0  0  0  0  0  0  0  0
  1  9  2  0  0  0  0
  1 14  1  0  0  0  0
  2 12  1  0  0  0  0
  3  2  1  0  0  0  0
  4 13  1  0  0  0  0
  5 13  1  0  0  0  0
  5 35  1  1  0  0  0
  6 11  1  0  0  0  0
  7  6  1  0  0  0  0
  8  7  1  0  0  0  0
  8  2  2  0  0  0  0
  9  8  1  0  0  0  0
 11 15  1  6  0  0  0
 11  5  1  0  0  0  0
 12  4  1  0  0  0  0
 12 10  1  1  0  0  0
 14  3  2  0  0  0  0
 16 15  1  0  0  0  0
 17 16  1  0  0  0  0
 18 17  1  0  0  0  0
 19 20  1  0  0  0  0
 20 18  1  0  0  0  0
 21 19  1  0  0  0  0
 21 20  1  0  0  0  0
 22 14  1  0  0  0  0
 23 22  1  0  0  0  0
 24 27  1  0  0  0  0
 25 29  2  0  0  0  0
 25 31  1  0  0  0  0
 26 25  1  0  0  0  0
 27 23  1  1  0  0  0
 28 31  1  0  0  0  0
 29 24  1  0  0  0  0
 30 27  1  0  0  0  0
 31 30  2  0  0  0  0
 32 33  1  0  0  0  0
 33 29  1  0  0  0  0
 34 33  2  0  0  0  0
 35 36  1  0  0  0  0
 37 41  2  0  0  0  0
 38 40  2  0  0  0  0
 38 41  1  0  0  0  0
 39 37  1  0  0  0  0
 41 36  1  0  0  0  0
 42 39  2  0  0  0  0
 42 38  1  0  0  0  0
M  END
>  <MODEL>
1

>  <REMARK>
 VINA RESULT:      -6.9      0.000      0.000
  Name = 
  12 active torsions:
  status: ('A' for Active; 'I' for Inactive)
    1  A    between atoms: C_1  and  C_15
    2  A    between atoms: C_1  and  C_16
    3  A    between atoms: C_7  and  N_10
    4  A    between atoms: C_7  and  C_36
    5  A    between atoms: N_10  and  C_16
    6  A    between atoms: C_11  and  C_24
    7  A    between atoms: C_12  and  C_30
    8  A    between atoms: C_12  and  C_42
    9  A    between atoms: C_18  and  C_23
   10  A    between atoms: C_20  and  C_30
   11  A    between atoms: C_23  and  C_34
   12  A    between atoms: C_34  and  C_38
                            x       y       z     vdW  Elec       q    Type
                         _______ _______ _______ _____ _____    ______ ____

>  <TORSDO>
F 12

$$$$
=
 OpenBabel11072411253D

 42 46  0  0  1  0  0  0  0  0999 V2000
  161.1450  207.2080  150.3110 C   0  0  0  0  0  3  0  0  0  0  0  0
  161.0510  208.0350  152.9400 C   0  0  0  0  0  0  0  0  0  0  0  0
  160.8480  206.7270  152.6200 N   0  0  0  0  0  0  0  0  0  0  0  0
  159.3410  209.1560  154.7610 S   0  0  0  0  0  0  0  0  0  0  0  0
  159.4930  211.8970  154.4490 C   0  0  1  0  0  3  0  0  0  0  0  0
  160.1190  210.9600  152.3190 O   0  0  0  0  0  0  0  0  0  0  0  0
  161.4010  210.4220  152.1710 C   0  0  0  0  0  2  0  0  0  0  0  0
  161.2840  208.9590  151.9020 C   0  0  0  0  0  0  0  0  0  0  0  0
  161.3220  208.5190  150.6170 N   0  0  0  0  0  0  0  0  0  0  0  0
  161.3480  207.3810  155.3500 C   0  0  0  0  0  1  0  0  0  0  0  0
  160.2810  212.0810  153.1370 C   0  0  1  0  0  3  0  0  0  0  0  0
  160.9850  208.4860  154.3730 C   0  0  1  0  0  3  0  0  0  0  0  0
  160.0600  210.7470  155.2690 C   0  0  0  0  0  2  0  0  0  0  0  0
  160.8950  206.2930  151.3330 C   0  0  0  0  0  0  0  0  0  0  0  0
  159.8100  213.3040  152.3570 C   0  0  0  0  0  2  0  0  0  0  0  0
  159.0880  212.8810  151.1650 N   0  0  0  0  0  2  0  0  0  0  0  0
  159.5910  213.6710  150.0510 C   0  0  0  0  0  2  0  0  0  0  0  0
  160.8070  213.0000  149.4250 C   0  0  0  0  0  2  0  0  0  0  0  0
  162.1040  212.6780  147.3480 C   0  0  0  0  0  2  0  0  0  0  0  0
  161.0340  213.5180  148.0160 C   0  0  0  0  0  3  0  0  0  0  0  0
  160.6460  212.4390  147.0270 C   0  0  0  0  0  2  0  0  0  0  0  0
  160.7120  204.8470  151.0210 C   0  0  0  0  0  2  0  0  0  0  0  0
  161.8090  204.3450  150.0920 C   0  0  0  0  0  2  0  0  0  0  0  0
  162.2700  204.9230  147.4630 S   0  0  0  0  0  0  0  0  0  0  0  0
  160.9000  203.0320  146.0260 C   0  0  0  0  0  0  0  0  0  0  0  0
  160.2790  202.5120  144.8950 O   0  0  0  0  0  1  0  0  0  0  0  0
  161.2640  204.0550  148.7020 C   0  0  1  0  0  3  0  0  0  0  0  0
  161.1190  200.7470  146.9640 O   0  0  0  0  0  1  0  0  0  0  0  0
  161.2580  204.3340  146.0840 C   0  0  0  0  0  0  0  0  0  0  0  0
  161.3160  202.5870  148.4080 C   0  0  0  0  0  3  0  0  0  0  0  0
  161.1270  202.1200  147.1710 C   0  0  0  0  0  0  0  0  0  0  0  0
  161.4620  205.3050  143.7840 O   0  0  0  0  0  0  0  0  0  0  0  0
  160.8710  205.3130  145.0440 C   0  0  0  0  0  0  0  0  0  0  0  0
  159.9700  206.1600  145.2840 O   0  0  0  0  0  1  0  0  0  0  0  0
  159.5580  213.1470  155.3130 C   0  0  0  0  0  2  0  0  0  0  0  0
  158.2110  213.8450  155.3070 C   0  0  0  0  0  2  0  0  0  0  0  0
  157.1340  212.5360  157.1480 C   0  0  0  0  0  3  0  0  0  0  0  0
  156.0490  212.3460  155.2190 C   0  0  0  0  0  0  0  0  0  0  0  0
  155.9550  211.6560  157.2590 C   0  0  0  0  0  3  0  0  0  0  0  0
  155.7440  212.4890  154.0070 O   0  0  0  0  0  0  0  0  0  0  0  0
  157.1710  212.9540  155.8930 C   0  0  0  0  0  0  0  0  0  0  0  0
  155.3220  211.5460  156.1320 N   0  0  0  0  0  0  0  0  0  0  0  0
  1  9  2  0  0  0  0
  1 14  1  0  0  0  0
  2 12  1  0  0  0  0
  3  2  1  0  0  0  0
  4 13  1  0  0  0  0
  5 13  1  0  0  0  0
  5 35  1  1  0  0  0
  6 11  1  0  0  0  0
  7  6  1  0  0  0  0
  8  7  1  0  0  0  0
  8  2  2  0  0  0  0
  9  8  1  0  0  0  0
 11 15  1  6  0  0  0
 11  5  1  0  0  0  0
 12  4  1  0  0  0  0
 12 10  1  1  0  0  0
 14  3  2  0  0  0  0
 16 15  1  0  0  0  0
 17 16  1  0  0  0  0
 18 17  1  0  0  0  0
 19 20  1  0  0  0  0
 20 18  1  0  0  0  0
 21 19  1  0  0  0  0
 21 20  1  0  0  0  0
 22 14  1  0  0  0  0
 23 22  1  0  0  0  0
 24 27  1  0  0  0  0
 25 29  2  0  0  0  0
 25 31  1  0  0  0  0
 26 25  1  0  0  0  0
 27 23  1  1  0  0  0
 28 31  1  0  0  0  0
 29 24  1  0  0  0  0
 30 27  1  0  0  0  0
 31 30  2  0  0  0  0
 32 33  2  0  0  0  0
 33 34  1  0  0  0  0
 33 29  1  0  0  0  0
 36 35  1  0  0  0  0
 36 41  1  0  0  0  0
 37 39  1  0  0  0  0
 38 41  1  0  0  0  0
 38 42  1  0  0  0  0
 40 38  2  0  0  0  0
 41 37  2  0  0  0  0
 42 39  2  0  0  0  0
M  END
>  <MODEL>
2

>  <REMARK>
 VINA RESULT:      -6.7      1.602      2.076
  Name = 
  12 active torsions:
  status: ('A' for Active; 'I' for Inactive)
    1  A    between atoms: C_1  and  C_15
    2  A    between atoms: C_1  and  C_16
    3  A    between atoms: C_7  and  N_10
    4  A    between atoms: C_7  and  C_36
    5  A    between atoms: N_10  and  C_16
    6  A    between atoms: C_11  and  C_24
    7  A    between atoms: C_12  and  C_30
    8  A    between atoms: C_12  and  C_42
    9  A    between atoms: C_18  and  C_23
   10  A    between atoms: C_20  and  C_30
   11  A    between atoms: C_23  and  C_34
   12  A    between atoms: C_34  and  C_38
                            x       y       z     vdW  Elec       q    Type
                         _______ _______ _______ _____ _____    ______ ____

>  <TORSDO>
F 12

$$$$
=
 OpenBabel11072411253D

 42 46  0  0  1  0  0  0  0  0999 V2000
  160.9110  203.7760  152.1580 C   0  0  0  0  0  3  0  0  0  0  0  0
  160.7440  205.6220  150.1160 C   0  0  0  0  0  0  0  0  0  0  0  0
  160.8790  204.2950  149.8390 N   0  0  0  0  0  0  0  0  0  0  0  0
  162.2980  207.3630  148.6860 S   0  0  0  0  0  0  0  0  0  0  0  0
  162.4070  209.7270  150.1120 C   0  0  1  0  0  3  0  0  0  0  0  0
  161.9770  208.0010  151.7380 O   0  0  0  0  0  0  0  0  0  0  0  0
  160.6840  207.4780  151.8370 C   0  0  0  0  0  2  0  0  0  0  0  0
  160.7150  206.0330  151.4630 C   0  0  0  0  0  0  0  0  0  0  0  0
  160.8020  205.0990  152.4450 N   0  0  0  0  0  0  0  0  0  0  0  0
  160.0990  206.0390  147.7210 C   0  0  0  0  0  1  0  0  0  0  0  0
  161.8050  209.3640  151.4840 C   0  0  1  0  0  3  0  0  0  0  0  0
  160.6680  206.6280  149.0010 C   0  0  1  0  0  3  0  0  0  0  0  0
  161.6530  209.0360  148.9860 C   0  0  0  0  0  2  0  0  0  0  0  0
  160.9570  203.3660  150.8260 C   0  0  0  0  0  0  0  0  0  0  0  0
  162.4660  210.1400  152.6190 C   0  0  0  0  0  2  0  0  0  0  0  0
  161.4460  210.7290  153.4730 N   0  0  0  0  0  2  0  0  0  0  0  0
  161.6720  210.2340  154.8230 C   0  0  0  0  0  2  0  0  0  0  0  0
  160.3750  209.7060  155.4230 C   0  0  0  0  0  2  0  0  0  0  0  0
  159.6750  207.3800  155.8710 C   0  0  0  0  0  2  0  0  0  0  0  0
  160.6430  208.4750  156.2710 C   0  0  0  0  0  3  0  0  0  0  0  0
  161.1020  207.3470  155.3700 C   0  0  0  0  0  2  0  0  0  0  0  0
  161.0610  201.9180  150.4880 C   0  0  0  0  0  2  0  0  0  0  0  0
  162.0150  201.6950  149.3230 C   0  0  0  0  0  2  0  0  0  0  0  0
  161.9170  202.7900  146.8230 S   0  0  0  0  0  0  0  0  0  0  0  0
  160.5310  201.0030  145.2730 C   0  0  0  0  0  0  0  0  0  0  0  0
  159.7760  200.6060  144.1740 O   0  0  0  0  0  1  0  0  0  0  0  0
  161.2610  201.5790  148.0070 C   0  0  1  0  0  3  0  0  0  0  0  0
  161.1760  198.6450  145.6910 O   0  0  0  0  0  1  0  0  0  0  0  0
  160.7440  202.3120  145.5330 C   0  0  0  0  0  0  0  0  0  0  0  0
  161.4250  200.2090  147.4220 C   0  0  0  0  0  3  0  0  0  0  0  0
  161.0660  199.9460  146.1630 C   0  0  0  0  0  0  0  0  0  0  0  0
  160.6170  204.6650  144.6820 O   0  0  0  0  0  1  0  0  0  0  0  0
  160.0630  203.3930  144.7830 C   0  0  0  0  0  0  0  0  0  0  0  0
  158.9730  203.1590  144.1980 O   0  0  0  0  0  0  0  0  0  0  0  0
  162.3360  211.2250  149.8570 C   0  0  0  0  0  2  0  0  0  0  0  0
  162.3320  211.4910  148.3630 C   0  0  0  0  0  2  0  0  0  0  0  0
  160.7350  213.3330  148.9300 C   0  0  0  0  0  3  0  0  0  0  0  0
  161.2680  213.2990  146.7740 C   0  0  0  0  0  0  0  0  0  0  0  0
  160.0510  214.3980  148.1730 C   0  0  0  0  0  3  0  0  0  0  0  0
  161.7930  212.9550  145.6830 O   0  0  0  0  0  0  0  0  0  0  0  0
  161.4820  212.6740  148.0570 C   0  0  0  0  0  0  0  0  0  0  0  0
  160.3620  214.3770  146.9140 N   0  0  0  0  0  0  0  0  0  0  0  0
  1  9  1  0  0  0  0
  2  8  1  0  0  0  0
  3  2  2  0  0  0  0
  3 14  1  0  0  0  0
  4 13  1  0  0  0  0
  4 12  1  0  0  0  0
  5 35  1  6  0  0  0
  5 11  1  0  0  0  0
  6  7  1  0  0  0  0
  8  7  1  0  0  0  0
  8  9  2  0  0  0  0
 11  6  1  0  0  0  0
 11 15  1  1  0  0  0
 12 10  1  6  0  0  0
 12  2  1  0  0  0  0
 13  5  1  0  0  0  0
 14  1  2  0  0  0  0
 15 16  1  0  0  0  0
 16 17  1  0  0  0  0
 17 18  1  0  0  0  0
 18 20  1  0  0  0  0
 19 20  1  0  0  0  0
 21 19  1  0  0  0  0
 21 20  1  0  0  0  0
 22 14  1  0  0  0  0
 23 22  1  0  0  0  0
 24 27  1  0  0  0  0
 25 29  2  0  0  0  0
 25 31  1  0  0  0  0
 26 25  1  0  0  0  0
 27 23  1  1  0  0  0
 28 31  1  0  0  0  0
 29 24  1  0  0  0  0
 30 27  1  0  0  0  0
 31 30  2  0  0  0  0
 32 33  1  0  0  0  0
 33 29  1  0  0  0  0
 34 33  2  0  0  0  0
 36 35  1  0  0  0  0
 38 42  1  0  0  0  0
 38 41  1  0  0  0  0
 39 37  1  0  0  0  0
 40 38  2  0  0  0  0
 41 36  1  0  0  0  0
 41 37  2  0  0  0  0
 42 39  2  0  0  0  0
M  END
>  <MODEL>
3

>  <REMARK>
 VINA RESULT:      -6.4      3.573      6.160
  Name = 
  12 active torsions:
  status: ('A' for Active; 'I' for Inactive)
    1  A    between atoms: C_1  and  C_15
    2  A    between atoms: C_1  and  C_16
    3  A    between atoms: C_7  and  N_10
    4  A    between atoms: C_7  and  C_36
    5  A    between atoms: N_10  and  C_16
    6  A    between atoms: C_11  and  C_24
    7  A    between atoms: C_12  and  C_30
    8  A    between atoms: C_12  and  C_42
    9  A    between atoms: C_18  and  C_23
   10  A    between atoms: C_20  and  C_30
   11  A    between atoms: C_23  and  C_34
   12  A    between atoms: C_34  and  C_38
                            x       y       z     vdW  Elec       q    Type
                         _______ _______ _______ _____ _____    ______ ____

>  <TORSDO>
F 12

$$$$
=
 OpenBabel11072411253D

 42 46  0  0  1  0  0  0  0  0999 V2000
  161.8020  207.4980  151.5040 C   0  0  0  0  0  3  0  0  0  0  0  0
  161.4510  208.5640  154.0230 C   0  0  0  0  0  0  0  0  0  0  0  0
  161.5640  207.2170  153.8520 N   0  0  0  0  0  0  0  0  0  0  0  0
  159.4830  209.4500  155.7070 S   0  0  0  0  0  0  0  0  0  0  0  0
  159.0080  212.1010  155.0880 C   0  0  1  0  0  3  0  0  0  0  0  0
  159.8880  211.1070  153.0770 O   0  0  0  0  0  0  0  0  0  0  0  0
  161.2630  210.8680  152.9910 C   0  0  0  0  0  2  0  0  0  0  0  0
  161.4930  209.3970  152.8880 C   0  0  0  0  0  0  0  0  0  0  0  0
  161.6650  208.8400  151.6610 N   0  0  0  0  0  0  0  0  0  0  0  0
  161.8280  208.2640  156.4920 C   0  0  0  0  0  1  0  0  0  0  0  0
  159.7670  212.3170  153.7630 C   0  0  1  0  0  3  0  0  0  0  0  0
  161.2460  209.1410  155.3960 C   0  0  1  0  0  3  0  0  0  0  0  0
  159.8020  211.2100  156.0320 C   0  0  0  0  0  2  0  0  0  0  0  0
  161.7430  206.6680  152.6230 C   0  0  0  0  0  0  0  0  0  0  0  0
  159.0470  213.3050  152.8510 C   0  0  0  0  0  2  0  0  0  0  0  0
  159.1300  212.8520  151.4700 N   0  0  0  0  0  2  0  0  0  0  0  0
  160.1080  213.6930  150.7960 C   0  0  0  0  0  2  0  0  0  0  0  0
  159.9760  213.5610  149.2840 C   0  0  0  0  0  2  0  0  0  0  0  0
  161.8070  212.0260  148.6580 C   0  0  0  0  0  2  0  0  0  0  0  0
  161.3460  213.4700  148.6360 C   0  0  0  0  0  3  0  0  0  0  0  0
  161.2440  212.6210  147.3860 C   0  0  0  0  0  2  0  0  0  0  0  0
  161.9060  205.1930  152.4750 C   0  0  0  0  0  2  0  0  0  0  0  0
  160.7350  204.5870  151.7140 C   0  0  0  0  0  2  0  0  0  0  0  0
  160.0790  202.7640  149.7890 S   0  0  0  0  0  0  0  0  0  0  0  0
  161.2850  203.6360  147.4860 C   0  0  0  0  0  0  0  0  0  0  0  0
  161.8010  203.4980  146.2010 O   0  0  0  0  0  1  0  0  0  0  0  0
  161.1600  204.1200  150.3300 C   0  0  1  0  0  3  0  0  0  0  0  0
  161.0880  206.0850  147.1490 O   0  0  0  0  0  1  0  0  0  0  0  0
  160.9630  202.5520  148.2250 C   0  0  0  0  0  0  0  0  0  0  0  0
  161.0500  205.2380  149.3370 C   0  0  0  0  0  3  0  0  0  0  0  0
  161.1290  205.0080  148.0240 C   0  0  0  0  0  0  0  0  0  0  0  0
  161.0720  200.7480  146.4910 O   0  0  0  0  0  0  0  0  0  0  0  0
  161.2880  201.1720  147.7980 C   0  0  0  0  0  0  0  0  0  0  0  0
  161.7970  200.3650  148.6200 O   0  0  0  0  0  1  0  0  0  0  0  0
  158.7600  213.4190  155.8050 C   0  0  0  0  0  2  0  0  0  0  0  0
  157.4310  213.3660  156.5340 C   0  0  0  0  0  2  0  0  0  0  0  0
  156.2520  211.1640  156.3670 C   0  0  0  0  0  3  0  0  0  0  0  0
  155.8460  212.4830  154.6260 C   0  0  0  0  0  0  0  0  0  0  0  0
  155.3580  210.5250  155.3820 C   0  0  0  0  0  3  0  0  0  0  0  0
  155.8720  213.4780  153.8560 O   0  0  0  0  0  0  0  0  0  0  0  0
  156.5340  212.3660  155.8890 C   0  0  0  0  0  0  0  0  0  0  0  0
  155.1230  211.2960  154.3660 N   0  0  0  0  0  0  0  0  0  0  0  0
  1  9  2  0  0  0  0
  1 14  1  0  0  0  0
  2 12  1  0  0  0  0
  3  2  1  0  0  0  0
  4 13  1  0  0  0  0
  5 35  1  1  0  0  0
  5 13  1  0  0  0  0
  6 11  1  0  0  0  0
  7  6  1  0  0  0  0
  8  7  1  0  0  0  0
  8  2  2  0  0  0  0
  9  8  1  0  0  0  0
 11 15  1  6  0  0  0
 11  5  1  0  0  0  0
 12  4  1  0  0  0  0
 12 10  1  1  0  0  0
 14  3  2  0  0  0  0
 16 15  1  0  0  0  0
 17 16  1  0  0  0  0
 18 17  1  0  0  0  0
 20 19  1  0  0  0  0
 20 18  1  0  0  0  0
 21 20  1  0  0  0  0
 21 19  1  0  0  0  0
 22 14  1  0  0  0  0
 23 22  1  0  0  0  0
 24 27  1  0  0  0  0
 25 31  1  0  0  0  0
 25 29  2  0  0  0  0
 26 25  1  0  0  0  0
 27 23  1  1  0  0  0
 28 31  1  0  0  0  0
 29 24  1  0  0  0  0
 30 27  1  0  0  0  0
 31 30  2  0  0  0  0
 32 33  2  0  0  0  0
 33 29  1  0  0  0  0
 33 34  1  0  0  0  0
 35 36  1  0  0  0  0
 38 41  1  0  0  0  0
 39 37  1  0  0  0  0
 40 38  2  0  0  0  0
 41 37  2  0  0  0  0
 41 36  1  0  0  0  0
 42 38  1  0  0  0  0
 42 39  2  0  0  0  0
M  END
>  <MODEL>
4

>  <REMARK>
 VINA RESULT:      -6.3      1.564      2.552
  Name = 
  12 active torsions:
  status: ('A' for Active; 'I' for Inactive)
    1  A    between atoms: C_1  and  C_15
    2  A    between atoms: C_1  and  C_16
    3  A    between atoms: C_7  and  N_10
    4  A    between atoms: C_7  and  C_36
    5  A    between atoms: N_10  and  C_16
    6  A    between atoms: C_11  and  C_24
    7  A    between atoms: C_12  and  C_30
    8  A    between atoms: C_12  and  C_42
    9  A    between atoms: C_18  and  C_23
   10  A    between atoms: C_20  and  C_30
   11  A    between atoms: C_23  and  C_34
   12  A    between atoms: C_34  and  C_38
                            x       y       z     vdW  Elec       q    Type
                         _______ _______ _______ _____ _____    ______ ____

>  <TORSDO>
F 12

$$$$
=
 OpenBabel11072411253D

 42 46  0  0  1  0  0  0  0  0999 V2000
  160.9780  203.6440  152.0110 C   0  0  0  0  0  3  0  0  0  0  0  0
  160.7370  205.6030  150.0850 C   0  0  0  0  0  0  0  0  0  0  0  0
  160.8590  204.2940  149.7270 N   0  0  0  0  0  0  0  0  0  0  0  0
  162.2380  207.4230  148.6970 S   0  0  0  0  0  0  0  0  0  0  0  0
  162.4060  209.7020  150.2500 C   0  0  1  0  0  3  0  0  0  0  0  0
  162.0340  207.8860  151.7900 O   0  0  0  0  0  0  0  0  0  0  0  0
  160.7460  207.3580  151.9090 C   0  0  0  0  0  2  0  0  0  0  0  0
  160.7600  205.9370  151.4530 C   0  0  0  0  0  0  0  0  0  0  0  0
  160.8830  204.9480  152.3760 N   0  0  0  0  0  0  0  0  0  0  0  0
  160.0010  206.1550  147.7430 C   0  0  0  0  0  1  0  0  0  0  0  0
  161.8560  209.2610  151.6210 C   0  0  1  0  0  3  0  0  0  0  0  0
  160.6200  206.6700  149.0320 C   0  0  1  0  0  3  0  0  0  0  0  0
  161.6070  209.0760  149.1150 C   0  0  0  0  0  2  0  0  0  0  0  0
  160.9730  203.3100  150.6570 C   0  0  0  0  0  0  0  0  0  0  0  0
  162.5610  209.9720  152.7710 C   0  0  0  0  0  2  0  0  0  0  0  0
  161.5860  210.6880  153.5810 N   0  0  0  0  0  2  0  0  0  0  0  0
  161.7750  210.2660  154.9610 C   0  0  0  0  0  2  0  0  0  0  0  0
  160.5170  209.5910  155.4910 C   0  0  0  0  0  2  0  0  0  0  0  0
  159.7140  207.3440  156.1320 C   0  0  0  0  0  2  0  0  0  0  0  0
  160.8710  208.3170  156.2390 C   0  0  0  0  0  3  0  0  0  0  0  0
  160.9320  207.1690  155.2540 C   0  0  0  0  0  2  0  0  0  0  0  0
  161.0610  201.8830  150.2340 C   0  0  0  0  0  2  0  0  0  0  0  0
  161.9550  201.7300  149.0110 C   0  0  0  0  0  2  0  0  0  0  0  0
  162.6160  203.2690  146.8530 S   0  0  0  0  0  0  0  0  0  0  0  0
  160.5380  203.0110  145.0820 C   0  0  0  0  0  0  0  0  0  0  0  0
  159.7450  203.3890  144.0040 O   0  0  0  0  0  1  0  0  0  0  0  0
  161.3330  202.3840  147.7870 C   0  0  1  0  0  3  0  0  0  0  0  0
  159.7140  200.6810  144.8790 O   0  0  0  0  0  1  0  0  0  0  0  0
  161.4410  203.8640  145.6130 C   0  0  0  0  0  0  0  0  0  0  0  0
  160.7210  201.3530  146.8890 C   0  0  0  0  0  3  0  0  0  0  0  0
  160.3370  201.6560  145.6460 C   0  0  0  0  0  0  0  0  0  0  0  0
  160.4070  205.9870  144.7770 O   0  0  0  0  0  0  0  0  0  0  0  0
  161.5290  205.2850  145.2050 C   0  0  0  0  0  0  0  0  0  0  0  0
  162.6340  205.8880  145.2670 O   0  0  0  0  0  1  0  0  0  0  0  0
  162.3280  211.2120  150.0820 C   0  0  0  0  0  2  0  0  0  0  0  0
  162.2260  211.5600  148.6090 C   0  0  0  0  0  2  0  0  0  0  0  0
  160.6490  213.3490  149.3690 C   0  0  0  0  0  3  0  0  0  0  0  0
  160.6540  213.0980  147.1620 C   0  0  0  0  0  0  0  0  0  0  0  0
  159.7100  214.2720  148.7030 C   0  0  0  0  0  3  0  0  0  0  0  0
  160.9340  212.6620  146.0140 O   0  0  0  0  0  0  0  0  0  0  0  0
  161.2230  212.6420  148.4070 C   0  0  0  0  0  0  0  0  0  0  0  0
  159.7140  214.1240  147.4140 N   0  0  0  0  0  0  0  0  0  0  0  0
  1  9  1  0  0  0  0
  2  8  1  0  0  0  0
  3  2  2  0  0  0  0
  3 14  1  0  0  0  0
  4 12  1  0  0  0  0
  4 13  1  0  0  0  0
  5 35  1  1  0  0  0
  5 11  1  0  0  0  0
  6  7  1  0  0  0  0
  8  7  1  0  0  0  0
  8  9  2  0  0  0  0
 11  6  1  0  0  0  0
 11 15  1  1  0  0  0
 12 10  1  6  0  0  0
 12  2  1  0  0  0  0
 13  5  1  0  0  0  0
 14  1  2  0  0  0  0
 15 16  1  0  0  0  0
 16 17  1  0  0  0  0
 17 18  1  0  0  0  0
 18 20  1  0  0  0  0
 19 20  1  0  0  0  0
 21 19  1  0  0  0  0
 21 20  1  0  0  0  0
 22 14  1  0  0  0  0
 23 22  1  0  0  0  0
 24 27  1  0  0  0  0
 25 29  2  0  0  0  0
 25 31  1  0  0  0  0
 26 25  1  0  0  0  0
 27 23  1  1  0  0  0
 28 31  1  0  0  0  0
 29 24  1  0  0  0  0
 30 27  1  0  0  0  0
 31 30  2  0  0  0  0
 32 33  2  0  0  0  0
 33 34  1  0  0  0  0
 33 29  1  0  0  0  0
 36 35  1  0  0  0  0
 38 42  1  0  0  0  0
 38 41  1  0  0  0  0
 39 37  1  0  0  0  0
 40 38  2  0  0  0  0
 41 36  1  0  0  0  0
 41 37  2  0  0  0  0
 42 39  2  0  0  0  0
M  END
>  <MODEL>
5

>  <REMARK>
 VINA RESULT:      -6.2      3.535      5.990
  Name = 
  12 active torsions:
  status: ('A' for Active; 'I' for Inactive)
    1  A    between atoms: C_1  and  C_15
    2  A    between atoms: C_1  and  C_16
    3  A    between atoms: C_7  and  N_10
    4  A    between atoms: C_7  and  C_36
    5  A    between atoms: N_10  and  C_16
    6  A    between atoms: C_11  and  C_24
    7  A    between atoms: C_12  and  C_30
    8  A    between atoms: C_12  and  C_42
    9  A    between atoms: C_18  and  C_23
   10  A    between atoms: C_20  and  C_30
   11  A    between atoms: C_23  and  C_34
   12  A    between atoms: C_34  and  C_38
                            x       y       z     vdW  Elec       q    Type
                         _______ _______ _______ _____ _____    ______ ____

>  <TORSDO>
F 12

$$$$
=
 OpenBabel11072411253D

 42 46  0  0  1  0  0  0  0  0999 V2000
  162.2300  208.9020  149.0270 C   0  0  0  0  0  3  0  0  0  0  0  0
  161.6000  209.9590  151.4950 C   0  0  0  0  0  0  0  0  0  0  0  0
  161.9020  208.6370  151.3660 N   0  0  0  0  0  0  0  0  0  0  0  0
  159.4400  210.6020  153.0500 S   0  0  0  0  0  0  0  0  0  0  0  0
  158.6470  213.1510  152.3370 C   0  0  1  0  0  3  0  0  0  0  0  0
  159.7640  212.2480  150.4020 O   0  0  0  0  0  0  0  0  0  0  0  0
  161.1600  212.1960  150.3940 C   0  0  0  0  0  2  0  0  0  0  0  0
  161.5920  210.7680  150.3420 C   0  0  0  0  0  0  0  0  0  0  0  0
  161.9050  210.2160  149.1410 N   0  0  0  0  0  0  0  0  0  0  0  0
  161.8770  209.7600  153.9870 C   0  0  0  0  0  1  0  0  0  0  0  0
  159.4420  213.4430  151.0490 C   0  0  1  0  0  3  0  0  0  0  0  0
  161.2430  210.5290  152.8400 C   0  0  1  0  0  3  0  0  0  0  0  0
  159.5010  212.3950  153.3450 C   0  0  0  0  0  2  0  0  0  0  0  0
  162.2210  208.0940  150.1630 C   0  0  0  0  0  0  0  0  0  0  0  0
  158.6480  214.3060  150.0740 C   0  0  0  0  0  2  0  0  0  0  0  0
  157.5400  213.5380  149.5250 N   0  0  0  0  0  2  0  0  0  0  0  0
  157.4680  213.8380  148.1030 C   0  0  0  0  0  2  0  0  0  0  0  0
  158.8660  213.9390  147.5050 C   0  0  0  0  0  2  0  0  0  0  0  0
  158.8390  212.5880  145.4370 C   0  0  0  0  0  2  0  0  0  0  0  0
  159.2780  212.6140  146.8880 C   0  0  0  0  0  3  0  0  0  0  0  0
  160.2830  212.8760  145.7860 C   0  0  0  0  0  2  0  0  0  0  0  0
  162.5890  206.6520  150.0630 C   0  0  0  0  0  2  0  0  0  0  0  0
  161.3670  205.7630  150.2430 C   0  0  0  0  0  2  0  0  0  0  0  0
  162.0810  205.6460  147.6090 S   0  0  0  0  0  0  0  0  0  0  0  0
  161.0410  203.2960  146.6510 C   0  0  0  0  0  0  0  0  0  0  0  0
  160.5990  202.4220  145.6640 O   0  0  0  0  0  1  0  0  0  0  0  0
  161.0110  205.0460  148.9490 C   0  0  1  0  0  3  0  0  0  0  0  0
  161.3320  201.3940  148.2150 O   0  0  0  0  0  1  0  0  0  0  0  0
  161.2860  204.5950  146.3700 C   0  0  0  0  0  0  0  0  0  0  0  0
  161.2140  203.5680  149.0900 C   0  0  0  0  0  3  0  0  0  0  0  0
  161.2070  202.7630  148.0240 C   0  0  0  0  0  0  0  0  0  0  0  0
  159.7810  205.9480  144.8930 O   0  0  0  0  0  1  0  0  0  0  0  0
  160.9440  205.2050  145.0640 C   0  0  0  0  0  0  0  0  0  0  0  0
  161.7290  205.0750  144.0880 O   0  0  0  0  0  0  0  0  0  0  0  0
  158.1860  214.4370  153.0060 C   0  0  0  0  0  2  0  0  0  0  0  0
  156.7810  214.2570  153.5510 C   0  0  0  0  0  2  0  0  0  0  0  0
  157.4910  214.4530  155.9430 C   0  0  0  0  0  3  0  0  0  0  0  0
  156.2440  212.6530  155.5680 C   0  0  0  0  0  0  0  0  0  0  0  0
  157.2900  213.6530  157.1660 C   0  0  0  0  0  3  0  0  0  0  0  0
  155.5490  211.7910  154.9710 O   0  0  0  0  0  0  0  0  0  0  0  0
  156.8370  213.8280  154.9760 C   0  0  0  0  0  0  0  0  0  0  0  0
  156.5620  212.6020  156.9450 N   0  0  0  0  0  0  0  0  0  0  0  0
  1  9  2  0  0  0  0
  1 14  1  0  0  0  0
  2 12  1  0  0  0  0
  3  2  1  0  0  0  0
  4 13  1  0  0  0  0
  5 35  1  1  0  0  0
  5 13  1  0  0  0  0
  6 11  1  0  0  0  0
  7  6  1  0  0  0  0
  8  7  1  0  0  0  0
  8  2  2  0  0  0  0
  9  8  1  0  0  0  0
 11 15  1  6  0  0  0
 11  5  1  0  0  0  0
 12  4  1  0  0  0  0
 12 10  1  1  0  0  0
 14  3  2  0  0  0  0
 16 15  1  0  0  0  0
 17 16  1  0  0  0  0
 18 17  1  0  0  0  0
 19 21  1  0  0  0  0
 19 20  1  0  0  0  0
 20 18  1  0  0  0  0
 21 20  1  0  0  0  0
 22 14  1  0  0  0  0
 22 23  1  0  0  0  0
 24 27  1  0  0  0  0
 25 31  1  0  0  0  0
 26 25  1  0  0  0  0
 27 30  1  0  0  0  0
 27 23  1  1  0  0  0
 29 25  2  0  0  0  0
 29 24  1  0  0  0  0
 31 28  1  0  0  0  0
 31 30  2  0  0  0  0
 32 33  1  0  0  0  0
 33 29  1  0  0  0  0
 34 33  2  0  0  0  0
 35 36  1  0  0  0  0
 36 41  1  0  0  0  0
 37 39  1  0  0  0  0
 38 42  1  0  0  0  0
 40 38  2  0  0  0  0
 41 38  1  0  0  0  0
 41 37  2  0  0  0  0
 42 39  2  0  0  0  0
M  END
>  <MODEL>
6

>  <REMARK>
 VINA RESULT:      -5.6      1.821      2.615
  Name = 
  12 active torsions:
  status: ('A' for Active; 'I' for Inactive)
    1  A    between atoms: C_1  and  C_15
    2  A    between atoms: C_1  and  C_16
    3  A    between atoms: C_7  and  N_10
    4  A    between atoms: C_7  and  C_36
    5  A    between atoms: N_10  and  C_16
    6  A    between atoms: C_11  and  C_24
    7  A    between atoms: C_12  and  C_30
    8  A    between atoms: C_12  and  C_42
    9  A    between atoms: C_18  and  C_23
   10  A    between atoms: C_20  and  C_30
   11  A    between atoms: C_23  and  C_34
   12  A    between atoms: C_34  and  C_38
                            x       y       z     vdW  Elec       q    Type
                         _______ _______ _______ _____ _____    ______ ____

>  <TORSDO>
F 12

$$$$
=
 OpenBabel11072411253D

 42 46  0  0  1  0  0  0  0  0999 V2000
  160.4240  211.6750  153.9640 C   0  0  0  0  0  3  0  0  0  0  0  0
  160.2890  208.9320  154.2190 C   0  0  0  0  0  0  0  0  0  0  0  0
  160.3100  209.7280  155.3240 N   0  0  0  0  0  0  0  0  0  0  0  0
  161.8920  206.7130  154.2460 S   0  0  0  0  0  0  0  0  0  0  0  0
  162.2510  205.9290  151.6200 C   0  0  1  0  0  3  0  0  0  0  0  0
  161.7780  208.2910  151.5400 O   0  0  0  0  0  0  0  0  0  0  0  0
  160.4580  208.7190  151.7020 C   0  0  0  0  0  2  0  0  0  0  0  0
  160.3620  209.5350  152.9480 C   0  0  0  0  0  0  0  0  0  0  0  0
  160.4300  210.8890  152.8570 N   0  0  0  0  0  0  0  0  0  0  0  0
  159.5520  206.9980  155.6480 C   0  0  0  0  0  1  0  0  0  0  0  0
  161.6950  207.1100  150.7990 C   0  0  1  0  0  3  0  0  0  0  0  0
  160.2300  207.4360  154.3600 C   0  0  1  0  0  3  0  0  0  0  0  0
  161.3890  205.6660  152.8470 C   0  0  0  0  0  2  0  0  0  0  0  0
  160.3710  211.0820  155.2250 C   0  0  0  0  0  0  0  0  0  0  0  0
  162.4710  207.3130  149.5010 C   0  0  0  0  0  2  0  0  0  0  0  0
  161.5450  207.4130  148.3830 N   0  0  0  0  0  2  0  0  0  0  0  0
  162.0210  206.5120  147.3440 C   0  0  0  0  0  2  0  0  0  0  0  0
  160.8990  206.1800  146.3690 C   0  0  0  0  0  2  0  0  0  0  0  0
  162.2070  204.2820  145.4790 C   0  0  0  0  0  2  0  0  0  0  0  0
  161.4600  205.5480  145.1070 C   0  0  0  0  0  3  0  0  0  0  0  0
  160.8110  204.1950  144.9040 C   0  0  0  0  0  2  0  0  0  0  0  0
  160.3490  211.9270  156.4530 C   0  0  0  0  0  2  0  0  0  0  0  0
  159.8280  213.3240  156.1470 C   0  0  0  0  0  2  0  0  0  0  0  0
  157.3530  214.3690  156.6390 S   0  0  0  0  0  0  0  0  0  0  0  0
  155.8870  213.9340  154.3630 C   0  0  0  0  0  0  0  0  0  0  0  0
  154.7170  213.7960  153.6230 O   0  0  0  0  0  1  0  0  0  0  0  0
  158.3980  213.2780  155.6300 C   0  0  1  0  0  3  0  0  0  0  0  0
  157.1570  214.3920  152.2830 O   0  0  0  0  0  1  0  0  0  0  0  0
  155.8550  213.9540  155.7140 C   0  0  0  0  0  0  0  0  0  0  0  0
  158.3340  213.7460  154.2080 C   0  0  0  0  0  3  0  0  0  0  0  0
  157.1670  214.0280  153.6230 C   0  0  0  0  0  0  0  0  0  0  0  0
  153.4850  214.4530  156.3540 O   0  0  0  0  0  0  0  0  0  0  0  0
  154.6250  213.6660  156.4850 C   0  0  0  0  0  0  0  0  0  0  0  0
  154.5890  212.6730  157.2600 O   0  0  0  0  0  1  0  0  0  0  0  0
  162.2780  204.6490  150.8000 C   0  0  0  0  0  2  0  0  0  0  0  0
  160.9050  204.3880  150.2100 C   0  0  0  0  0  2  0  0  0  0  0  0
  160.7260  202.8020  148.2820 C   0  0  0  0  0  3  0  0  0  0  0  0
  160.9340  201.7560  150.2300 C   0  0  0  0  0  0  0  0  0  0  0  0
  160.7130  201.3350  148.1280 C   0  0  0  0  0  3  0  0  0  0  0  0
  161.0580  201.5570  151.4660 O   0  0  0  0  0  0  0  0  0  0  0  0
  160.8690  203.0410  149.5760 C   0  0  0  0  0  0  0  0  0  0  0  0
  160.8340  200.7250  149.2660 N   0  0  0  0  0  0  0  0  0  0  0  0
  1 14  1  0  0  0  0
  2 12  1  0  0  0  0
  2  3  1  0  0  0  0
  4 12  1  0  0  0  0
  5 35  1  6  0  0  0
  5 13  1  0  0  0  0
  6  7  1  0  0  0  0
  7  8  1  0  0  0  0
  8  2  2  0  0  0  0
  9  8  1  0  0  0  0
  9  1  2  0  0  0  0
 11 15  1  6  0  0  0
 11  6  1  0  0  0  0
 11  5  1  0  0  0  0
 12 10  1  1  0  0  0
 13  4  1  0  0  0  0
 14  3  2  0  0  0  0
 14 22  1  0  0  0  0
 16 15  1  0  0  0  0
 17 16  1  0  0  0  0
 18 17  1  0  0  0  0
 20 19  1  0  0  0  0
 20 18  1  0  0  0  0
 21 20  1  0  0  0  0
 21 19  1  0  0  0  0
 23 22  1  0  0  0  0
 25 29  2  0  0  0  0
 26 25  1  0  0  0  0
 27 23  1  1  0  0  0
 27 24  1  0  0  0  0
 28 31  1  0  0  0  0
 29 33  1  0  0  0  0
 29 24  1  0  0  0  0
 30 27  1  0  0  0  0
 31 30  2  0  0  0  0
 31 25  1  0  0  0  0
 32 33  2  0  0  0  0
 33 34  1  0  0  0  0
 36 35  1  0  0  0  0
 37 41  2  0  0  0  0
 38 40  2  0  0  0  0
 39 37  1  0  0  0  0
 39 42  2  0  0  0  0
 41 36  1  0  0  0  0
 41 38  1  0  0  0  0
 42 38  1  0  0  0  0
M  END
>  <MODEL>
7

>  <REMARK>
 VINA RESULT:      -5.6      3.063     10.431
  Name = 
  12 active torsions:
  status: ('A' for Active; 'I' for Inactive)
    1  A    between atoms: C_1  and  C_15
    2  A    between atoms: C_1  and  C_16
    3  A    between atoms: C_7  and  N_10
    4  A    between atoms: C_7  and  C_36
    5  A    between atoms: N_10  and  C_16
    6  A    between atoms: C_11  and  C_24
    7  A    between atoms: C_12  and  C_30
    8  A    between atoms: C_12  and  C_42
    9  A    between atoms: C_18  and  C_23
   10  A    between atoms: C_20  and  C_30
   11  A    between atoms: C_23  and  C_34
   12  A    between atoms: C_34  and  C_38
                            x       y       z     vdW  Elec       q    Type
                         _______ _______ _______ _____ _____    ______ ____

>  <TORSDO>
F 12

$$$$
=
 OpenBabel11072411253D

 42 46  0  0  1  0  0  0  0  0999 V2000
  162.1090  208.8370  148.6530 C   0  0  0  0  0  3  0  0  0  0  0  0
  161.5660  209.6630  151.2270 C   0  0  0  0  0  0  0  0  0  0  0  0
  161.7200  208.3390  150.9440 N   0  0  0  0  0  0  0  0  0  0  0  0
  159.4700  210.3600  152.8440 S   0  0  0  0  0  0  0  0  0  0  0  0
  158.9790  213.0480  152.4350 C   0  0  1  0  0  3  0  0  0  0  0  0
  160.0150  212.2570  150.4090 O   0  0  0  0  0  0  0  0  0  0  0  0
  161.3960  212.0480  150.3960 C   0  0  0  0  0  2  0  0  0  0  0  0
  161.6660  210.5970  150.1780 C   0  0  0  0  0  0  0  0  0  0  0  0
  161.9320  210.1570  148.9200 N   0  0  0  0  0  0  0  0  0  0  0  0
  161.7830  209.1450  153.6790 C   0  0  0  0  0  1  0  0  0  0  0  0
  159.8200  213.3970  151.1910 C   0  0  1  0  0  3  0  0  0  0  0  0
  161.2560  210.1090  152.6300 C   0  0  1  0  0  3  0  0  0  0  0  0
  159.7280  212.0880  153.3480 C   0  0  0  0  0  2  0  0  0  0  0  0
  161.9940  207.9070  149.6850 C   0  0  0  0  0  0  0  0  0  0  0  0
  159.1420  214.4520  150.3240 C   0  0  0  0  0  2  0  0  0  0  0  0
  158.6090  213.8330  149.1190 N   0  0  0  0  0  2  0  0  0  0  0  0
  159.3790  214.3410  147.9940 C   0  0  0  0  0  2  0  0  0  0  0  0
  159.5680  213.2560  146.9410 C   0  0  0  0  0  2  0  0  0  0  0  0
  161.6810  213.7520  145.7610 C   0  0  0  0  0  2  0  0  0  0  0  0
  161.0340  212.8810  146.8200 C   0  0  0  0  0  3  0  0  0  0  0  0
  161.8820  214.0690  147.2270 C   0  0  0  0  0  2  0  0  0  0  0  0
  162.1990  206.4560  149.4170 C   0  0  0  0  0  2  0  0  0  0  0  0
  162.5180  206.2110  147.9490 C   0  0  0  0  0  2  0  0  0  0  0  0
  161.0300  204.0620  148.7450 S   0  0  0  0  0  0  0  0  0  0  0  0
  160.8540  202.4180  146.5570 C   0  0  0  0  0  0  0  0  0  0  0  0
  160.6430  201.2100  145.9010 O   0  0  0  0  0  1  0  0  0  0  0  0
  162.1890  204.7820  147.5450 C   0  0  1  0  0  3  0  0  0  0  0  0
  160.4290  203.6480  144.4460 O   0  0  0  0  0  1  0  0  0  0  0  0
  160.9940  202.4630  147.9010 C   0  0  0  0  0  0  0  0  0  0  0  0
  161.5470  204.7490  146.1910 C   0  0  0  0  0  3  0  0  0  0  0  0
  160.9490  203.6460  145.7330 C   0  0  0  0  0  0  0  0  0  0  0  0
  160.5810  201.1920  150.0190 O   0  0  0  0  0  1  0  0  0  0  0  0
  161.1020  201.2410  148.7300 C   0  0  0  0  0  0  0  0  0  0  0  0
  161.6530  200.2110  148.2600 O   0  0  0  0  0  0  0  0  0  0  0  0
  158.6540  214.2920  153.2500 C   0  0  0  0  0  2  0  0  0  0  0  0
  157.1980  214.2630  153.6720 C   0  0  0  0  0  2  0  0  0  0  0  0
  157.5190  214.0040  156.1400 C   0  0  0  0  0  3  0  0  0  0  0  0
  156.4480  212.2820  155.2340 C   0  0  0  0  0  0  0  0  0  0  0  0
  157.1780  212.9750  157.1410 C   0  0  0  0  0  3  0  0  0  0  0  0
  155.9030  211.5360  154.3800 O   0  0  0  0  0  0  0  0  0  0  0  0
  157.0580  213.5650  154.9800 C   0  0  0  0  0  0  0  0  0  0  0  0
  156.5530  211.9690  156.6100 N   0  0  0  0  0  0  0  0  0  0  0  0
  1  9  2  0  0  0  0
  1 14  1  0  0  0  0
  2 12  1  0  0  0  0
  3  2  1  0  0  0  0
  4 13  1  0  0  0  0
  5 35  1  1  0  0  0
  5 13  1  0  0  0  0
  6 11  1  0  0  0  0
  7  6  1  0  0  0  0
  8  7  1  0  0  0  0
  8  2  2  0  0  0  0
  9  8  1  0  0  0  0
 11 15  1  6  0  0  0
 11  5  1  0  0  0  0
 12  4  1  0  0  0  0
 12 10  1  1  0  0  0
 14  3  2  0  0  0  0
 16 15  1  0  0  0  0
 17 16  1  0  0  0  0
 18 17  1  0  0  0  0
 19 20  1  0  0  0  0
 19 21  1  0  0  0  0
 20 18  1  0  0  0  0
 20 21  1  0  0  0  0
 22 14  1  0  0  0  0
 23 22  1  0  0  0  0
 25 29  2  0  0  0  0
 26 25  1  0  0  0  0
 27 23  1  1  0  0  0
 27 24  1  0  0  0  0
 28 31  1  0  0  0  0
 29 33  1  0  0  0  0
 29 24  1  0  0  0  0
 30 27  1  0  0  0  0
 31 30  2  0  0  0  0
 31 25  1  0  0  0  0
 33 32  1  0  0  0  0
 34 33  2  0  0  0  0
 35 36  1  0  0  0  0
 36 41  1  0  0  0  0
 37 39  1  0  0  0  0
 38 42  1  0  0  0  0
 40 38  2  0  0  0  0
 41 38  1  0  0  0  0
 41 37  2  0  0  0  0
 42 39  2  0  0  0  0
M  END
>  <MODEL>
8

>  <REMARK>
 VINA RESULT:      -5.4      2.092      3.416
  Name = 
  12 active torsions:
  status: ('A' for Active; 'I' for Inactive)
    1  A    between atoms: C_1  and  C_15
    2  A    between atoms: C_1  and  C_16
    3  A    between atoms: C_7  and  N_10
    4  A    between atoms: C_7  and  C_36
    5  A    between atoms: N_10  and  C_16
    6  A    between atoms: C_11  and  C_24
    7  A    between atoms: C_12  and  C_30
    8  A    between atoms: C_12  and  C_42
    9  A    between atoms: C_18  and  C_23
   10  A    between atoms: C_20  and  C_30
   11  A    between atoms: C_23  and  C_34
   12  A    between atoms: C_34  and  C_38
                            x       y       z     vdW  Elec       q    Type
                         _______ _______ _______ _____ _____    ______ ____

>  <TORSDO>
F 12

$$$$
=
 OpenBabel11072411253D

 42 46  0  0  1  0  0  0  0  0999 V2000
  161.0950  212.2020  150.3670 C   0  0  0  0  0  3  0  0  0  0  0  0
  161.9390  209.7210  149.5100 C   0  0  0  0  0  0  0  0  0  0  0  0
  161.6460  210.7000  148.6090 N   0  0  0  0  0  0  0  0  0  0  0  0
  160.9830  207.2110  148.9810 S   0  0  0  0  0  0  0  0  0  0  0  0
  160.9910  205.8120  151.3640 C   0  0  1  0  0  3  0  0  0  0  0  0
  160.8230  208.1380  151.9710 O   0  0  0  0  0  0  0  0  0  0  0  0
  161.9720  208.9320  151.9150 C   0  0  0  0  0  2  0  0  0  0  0  0
  161.7790  209.9920  150.8830 C   0  0  0  0  0  0  0  0  0  0  0  0
  161.3590  211.2240  151.2720 N   0  0  0  0  0  0  0  0  0  0  0  0
  163.0820  208.4140  147.6900 C   0  0  0  0  0  1  0  0  0  0  0  0
  161.2570  206.8930  152.4310 C   0  0  1  0  0  3  0  0  0  0  0  0
  162.3850  208.3640  149.0390 C   0  0  1  0  0  3  0  0  0  0  0  0
  161.8220  206.0630  150.1150 C   0  0  0  0  0  2  0  0  0  0  0  0
  161.2340  211.9320  149.0060 C   0  0  0  0  0  0  0  0  0  0  0  0
  160.5280  206.5940  153.7370 C   0  0  0  0  0  2  0  0  0  0  0  0
  161.2430  207.1990  154.8510 N   0  0  0  0  0  2  0  0  0  0  0  0
  160.2480  207.6410  155.8160 C   0  0  0  0  0  2  0  0  0  0  0  0
  160.4810  209.0980  156.1950 C   0  0  0  0  0  2  0  0  0  0  0  0
  159.8630  211.4110  155.5860 C   0  0  0  0  0  2  0  0  0  0  0  0
  160.0990  210.0150  155.0460 C   0  0  0  0  0  3  0  0  0  0  0  0
  161.1640  211.0800  154.8900 C   0  0  0  0  0  2  0  0  0  0  0  0
  160.9640  212.9950  147.9970 C   0  0  0  0  0  2  0  0  0  0  0  0
  159.9080  212.5440  146.9980 C   0  0  0  0  0  2  0  0  0  0  0  0
  159.3750  213.2060  144.4020 S   0  0  0  0  0  0  0  0  0  0  0  0
  161.7560  212.9740  143.0630 C   0  0  0  0  0  0  0  0  0  0  0  0
  162.5620  212.8220  141.9390 O   0  0  0  0  0  1  0  0  0  0  0  0
  160.4910  212.4180  145.5990 C   0  0  1  0  0  3  0  0  0  0  0  0
  163.6790  213.9000  144.3250 O   0  0  0  0  0  1  0  0  0  0  0  0
  160.4220  212.7750  142.9920 C   0  0  0  0  0  0  0  0  0  0  0  0
  161.8250  213.0950  145.5180 C   0  0  0  0  0  3  0  0  0  0  0  0
  162.4130  213.3310  144.3420 C   0  0  0  0  0  0  0  0  0  0  0  0
  158.7440  212.9210  141.1370 O   0  0  0  0  0  0  0  0  0  0  0  0
  159.7620  212.2280  141.7840 C   0  0  0  0  0  0  0  0  0  0  0  0
  160.1400  211.1240  141.3090 O   0  0  0  0  0  1  0  0  0  0  0  0
  161.3490  204.4260  151.8790 C   0  0  0  0  0  2  0  0  0  0  0  0
  160.2850  203.4310  151.4580 C   0  0  0  0  0  2  0  0  0  0  0  0
  160.8310  203.4030  149.0160 C   0  0  0  0  0  3  0  0  0  0  0  0
  160.8980  201.3780  149.9280 C   0  0  0  0  0  0  0  0  0  0  0  0
  161.1760  202.3610  148.0300 C   0  0  0  0  0  3  0  0  0  0  0  0
  160.8280  200.4540  150.7790 O   0  0  0  0  0  0  0  0  0  0  0  0
  160.6710  202.7820  150.1740 C   0  0  0  0  0  0  0  0  0  0  0  0
  161.2140  201.1790  148.5630 N   0  0  0  0  0  0  0  0  0  0  0  0
  1  9  1  0  0  0  0
  2  8  1  0  0  0  0
  3 14  1  0  0  0  0
  3  2  2  0  0  0  0
  4 12  1  0  0  0  0
  4 13  1  0  0  0  0
  5 35  1  1  0  0  0
  5 11  1  0  0  0  0
  6 11  1  0  0  0  0
  7  6  1  0  0  0  0
  8  9  2  0  0  0  0
  8  7  1  0  0  0  0
 11 15  1  1  0  0  0
 12 10  1  6  0  0  0
 12  2  1  0  0  0  0
 13  5  1  0  0  0  0
 14  1  2  0  0  0  0
 15 16  1  0  0  0  0
 16 17  1  0  0  0  0
 17 18  1  0  0  0  0
 20 19  1  0  0  0  0
 20 18  1  0  0  0  0
 21 20  1  0  0  0  0
 21 19  1  0  0  0  0
 22 14  1  0  0  0  0
 23 22  1  0  0  0  0
 24 27  1  0  0  0  0
 25 31  1  0  0  0  0
 26 25  1  0  0  0  0
 27 23  1  1  0  0  0
 28 31  1  0  0  0  0
 29 25  2  0  0  0  0
 29 24  1  0  0  0  0
 30 27  1  0  0  0  0
 31 30  2  0  0  0  0
 32 33  2  0  0  0  0
 33 29  1  0  0  0  0
 34 33  1  0  0  0  0
 36 35  1  0  0  0  0
 37 41  2  0  0  0  0
 38 41  1  0  0  0  0
 38 40  2  0  0  0  0
 39 42  2  0  0  0  0
 39 37  1  0  0  0  0
 41 36  1  0  0  0  0
 42 38  1  0  0  0  0
M  END
>  <MODEL>
9

>  <REMARK>
 VINA RESULT:      -5.3      4.233      9.178
  Name = 
  12 active torsions:
  status: ('A' for Active; 'I' for Inactive)
    1  A    between atoms: C_1  and  C_15
    2  A    between atoms: C_1  and  C_16
    3  A    between atoms: C_7  and  N_10
    4  A    between atoms: C_7  and  C_36
    5  A    between atoms: N_10  and  C_16
    6  A    between atoms: C_11  and  C_24
    7  A    between atoms: C_12  and  C_30
    8  A    between atoms: C_12  and  C_42
    9  A    between atoms: C_18  and  C_23
   10  A    between atoms: C_20  and  C_30
   11  A    between atoms: C_23  and  C_34
   12  A    between atoms: C_34  and  C_38
                            x       y       z     vdW  Elec       q    Type
                         _______ _______ _______ _____ _____    ______ ____

>  <TORSDO>
F 12

$$$$
