=
 OpenBabel11072411213D

 42 48  0  0  1  0  0  0  0  0999 V2000
  160.2710  211.5750  153.2920 C   0  0  2  0  0  0  0  0  0  0  0  0
  160.4970  211.9020  155.8100 C   0  0  0  0  0  0  0  0  0  0  0  0
  159.6640  212.8020  152.7440 N   0  0  0  0  0  0  0  0  0  0  0  0
  160.0380  213.1780  155.9340 O   0  0  0  0  0  0  0  0  0  0  0  0
  159.1440  210.0500  154.9210 F   0  0  0  0  0  0  0  0  0  0  0  0
  159.0390  212.2410  153.9470 C   0  0  1  0  0  0  0  0  0  0  0  0
  161.3420  211.3880  156.5900 O   0  0  0  0  0  0  0  0  0  0  0  0
  159.8730  211.2050  154.6810 C   0  0  2  0  0  0  0  0  0  0  0  0
  159.1000  213.4530  154.9160 C   0  0  0  0  0  2  0  0  0  0  0  0
  158.7340  212.5620  151.6400 C   0  0  0  0  0  2  0  0  0  0  0  0
  159.7660  213.8960  149.7810 C   0  0  2  0  0  3  0  0  0  0  0  0
  160.8480  213.1280  149.7560 C   0  0  0  0  0  3  0  0  0  0  0  0
  160.2180  213.4220  147.5930 C   0  0  0  0  0  2  0  0  0  0  0  0
  158.6560  213.8020  150.7630 C   0  0  1  0  0  3  0  0  0  0  0  0
  157.4360  213.7380  149.9500 N   0  0  0  0  0  2  0  0  0  0  0  0
  161.1580  212.8720  148.3550 C   0  0  0  0  0  3  0  0  0  0  0  0
  157.8590  213.6380  148.5410 C   0  0  2  0  0  3  0  0  0  0  0  0
  159.2680  214.1940  148.4460 C   0  0  1  0  0  3  0  0  0  0  0  0
  156.8960  214.3880  147.6200 C   0  0  0  0  0  2  0  0  0  0  0  0
  157.0960  212.3000  146.3000 C   0  0  0  0  0  1  0  0  0  0  0  0
  156.8550  213.7910  146.2230 C   0  0  0  0  0  2  0  0  0  0  0  0
  159.9610  210.4680  152.4820 O   0  0  0  0  0  0  0  0  0  0  0  0
  161.1560  209.7520  152.3460 C   0  0  0  0  0  2  0  0  0  0  0  0
  161.5280  207.3770  151.6480 C   0  0  0  0  0  3  0  0  0  0  0  0
  160.8940  208.2750  152.4110 C   0  0  0  0  0  3  0  0  0  0  0  0
  162.5730  207.7600  150.6490 C   0  0  0  0  0  2  0  0  0  0  0  0
  162.1490  209.3870  148.9620 O   0  0  0  0  0  1  0  0  0  0  0  0
  161.9360  208.0510  149.3010 C   0  0  1  0  0  3  0  0  0  0  0  0
  162.5500  207.1520  148.2380 C   0  0  0  0  0  2  0  0  0  0  0  0
  160.9250  203.1640  150.2470 C   0  0  0  0  0  2  0  0  0  0  0  0
  162.1920  206.0580  145.9790 C   0  0  0  0  0  2  0  0  0  0  0  0
  160.5930  204.5560  149.6950 C   0  0  0  0  0  2  0  0  0  0  0  0
  161.1170  204.0180  145.3000 O   0  0  0  0  0  1  0  0  0  0  0  0
  160.3260  206.0840  147.7110 C   0  0  0  0  0  2  0  0  0  0  0  0
  160.8660  201.7700  148.0230 C   0  0  0  0  0  2  0  0  0  0  0  0
  162.1420  202.5570  147.7030 C   0  0  0  0  0  2  0  0  0  0  0  0
  160.6440  204.6480  148.1640 C   0  0  1  0  0  3  0  0  0  0  0  0
  161.9510  204.0800  147.5590 C   0  0  2  0  0  3  0  0  0  0  0  0
  161.5370  206.8300  147.1390 C   0  0  1  0  0  3  0  0  0  0  0  0
  162.1420  204.5260  146.1080 C   0  0  2  0  0  3  0  0  0  0  0  0
  159.3940  201.4210  149.8300 O   0  0  0  0  0  0  0  0  0  0  0  0
  160.3380  202.0630  149.4040 C   0  0  0  0  0  0  0  0  0  0  0  0
  1 22  1  6  0  0  0
  1  6  1  0  0  0  0
  1  8  1  0  0  0  0
  2  4  1  0  0  0  0
  2  7  2  0  0  0  0
  3  1  1  0  0  0  0
  3  6  1  0  0  0  0
  6  8  1  0  0  0  0
  6  9  1  1  0  0  0
  8  5  1  1  0  0  0
  8  2  1  0  0  0  0
  9  4  1  0  0  0  0
 10  3  1  0  0  0  0
 11 12  1  6  0  0  0
 11 14  1  0  0  0  0
 13 16  1  0  0  0  0
 14 10  1  6  0  0  0
 15 14  1  0  0  0  0
 16 12  2  0  0  0  0
 17 19  1  6  0  0  0
 17 15  1  0  0  0  0
 18 13  1  6  0  0  0
 18 17  1  0  0  0  0
 18 11  1  0  0  0  0
 21 20  1  0  0  0  0
 21 19  1  0  0  0  0
 23 25  1  0  0  0  0
 23 22  1  0  0  0  0
 24 25  2  0  0  0  0
 26 24  1  0  0  0  0
 28 27  1  6  0  0  0
 28 26  1  0  0  0  0
 29 28  1  0  0  0  0
 31 40  1  0  0  0  0
 31 39  1  0  0  0  0
 32 30  1  0  0  0  0
 35 42  1  0  0  0  0
 36 35  1  0  0  0  0
 37 34  1  1  0  0  0
 37 32  1  0  0  0  0
 38 36  1  6  0  0  0
 38 37  1  0  0  0  0
 39 34  1  0  0  0  0
 39 29  1  1  0  0  0
 40 33  1  6  0  0  0
 40 38  1  0  0  0  0
 42 41  2  0  0  0  0
 42 30  1  0  0  0  0
M  END
>  <MODEL>
1

>  <REMARK>
 VINA RESULT:      -8.2      0.000      0.000
  Name = 
  11 active torsions:
  status: ('A' for Active; 'I' for Inactive)
    1  A    between atoms: C_2  and  O_41
    2  A    between atoms: C_4  and  C_9
    3  A    between atoms: C_7  and  N_16
    4  A    between atoms: C_7  and  C_31
    5  A    between atoms: C_9  and  C_23
    6  A    between atoms: C_10  and  C_14
    7  A    between atoms: C_14  and  O_41
    8  A    between atoms: C_15  and  C_34
    9  A    between atoms: C_15  and  C_42
   10  A    between atoms: C_20  and  C_23
   11  A    between atoms: C_20  and  C_24
                            x       y       z     vdW  Elec       q    Type
                         _______ _______ _______ _____ _____    ______ ____

>  <TORSDO>
F 11

$$$$
=
 OpenBabel11072411213D

 42 48  0  0  1  0  0  0  0  0999 V2000
  159.5910  211.6010  153.8710 C   0  0  2  0  0  0  0  0  0  0  0  0
  158.0730  212.4790  155.7200 C   0  0  0  0  0  0  0  0  0  0  0  0
  159.7140  212.6690  152.8630 N   0  0  0  0  0  0  0  0  0  0  0  0
  157.8490  213.7450  155.2730 O   0  0  0  0  0  0  0  0  0  0  0  0
  157.4460  210.4610  154.4630 F   0  0  0  0  0  0  0  0  0  0  0  0
  158.3620  212.3800  153.3510 C   0  0  1  0  0  0  0  0  0  0  0  0
  158.0640  212.1600  156.9400 O   0  0  0  0  0  0  0  0  0  0  0  0
  158.3000  211.5420  154.6170 C   0  0  2  0  0  0  0  0  0  0  0  0
  157.9180  213.7780  153.8640 C   0  0  0  0  0  2  0  0  0  0  0  0
  159.7740  212.1790  151.4840 C   0  0  0  0  0  2  0  0  0  0  0  0
  160.9260  213.0240  149.4210 C   0  0  2  0  0  3  0  0  0  0  0  0
  161.6590  211.9230  149.3120 C   0  0  0  0  0  3  0  0  0  0  0  0
  160.8670  212.3760  147.2320 C   0  0  0  0  0  2  0  0  0  0  0  0
  160.0050  213.3490  150.5390 C   0  0  1  0  0  3  0  0  0  0  0  0
  158.7360  213.7030  149.8950 N   0  0  0  0  0  2  0  0  0  0  0  0
  161.6570  211.5450  147.9050 C   0  0  0  0  0  3  0  0  0  0  0  0
  158.8910  213.4300  148.4540 C   0  0  2  0  0  3  0  0  0  0  0  0
  160.3760  213.4510  148.1420 C   0  0  1  0  0  3  0  0  0  0  0  0
  158.1270  214.4530  147.6130 C   0  0  0  0  0  2  0  0  0  0  0  0
  157.4290  212.6690  146.0390 C   0  0  0  0  0  1  0  0  0  0  0  0
  158.0440  214.0460  146.1500 C   0  0  0  0  0  2  0  0  0  0  0  0
  159.7630  210.3380  153.2750 O   0  0  0  0  0  0  0  0  0  0  0  0
  160.9900  209.8600  153.7510 C   0  0  0  0  0  2  0  0  0  0  0  0
  160.8980  207.3640  153.9150 C   0  0  0  0  0  3  0  0  0  0  0  0
  160.7990  208.5680  154.4910 C   0  0  0  0  0  3  0  0  0  0  0  0
  161.2170  207.1860  152.4650 C   0  0  0  0  0  2  0  0  0  0  0  0
  161.5120  204.8500  152.8320 O   0  0  0  0  0  1  0  0  0  0  0  0
  162.1120  205.9750  152.2640 C   0  0  1  0  0  3  0  0  0  0  0  0
  162.3310  205.7380  150.7770 C   0  0  0  0  0  2  0  0  0  0  0  0
  161.5390  202.1250  147.7950 C   0  0  0  0  0  2  0  0  0  0  0  0
  161.9110  207.3180  148.8400 C   0  0  0  0  0  2  0  0  0  0  0  0
  160.9460  203.1120  148.8080 C   0  0  0  0  0  2  0  0  0  0  0  0
  161.0900  206.9850  146.6040 O   0  0  0  0  0  1  0  0  0  0  0  0
  160.2500  205.4650  149.3780 C   0  0  0  0  0  2  0  0  0  0  0  0
  161.4600  203.6030  145.6260 C   0  0  0  0  0  2  0  0  0  0  0  0
  162.5650  204.3940  146.3380 C   0  0  0  0  0  2  0  0  0  0  0  0
  160.8250  204.5480  148.2830 C   0  0  1  0  0  3  0  0  0  0  0  0
  162.1340  205.0810  147.6490 C   0  0  2  0  0  3  0  0  0  0  0  0
  161.2700  206.4580  149.9450 C   0  0  1  0  0  3  0  0  0  0  0  0
  162.1050  206.6030  147.4910 C   0  0  2  0  0  3  0  0  0  0  0  0
  160.2510  201.5970  145.8920 O   0  0  0  0  0  0  0  0  0  0  0  0
  161.0400  202.3780  146.3970 C   0  0  0  0  0  0  0  0  0  0  0  0
  1 22  1  6  0  0  0
  1  8  1  0  0  0  0
  2  7  2  0  0  0  0
  3  6  1  0  0  0  0
  3  1  1  0  0  0  0
  4  2  1  0  0  0  0
  6  9  1  1  0  0  0
  6  1  1  0  0  0  0
  6  8  1  0  0  0  0
  8  5  1  6  0  0  0
  8  2  1  0  0  0  0
  9  4  1  0  0  0  0
 10  3  1  0  0  0  0
 11 12  1  6  0  0  0
 11 14  1  0  0  0  0
 13 16  1  0  0  0  0
 14 10  1  1  0  0  0
 15 14  1  0  0  0  0
 16 12  2  0  0  0  0
 17 19  1  6  0  0  0
 17 15  1  0  0  0  0
 18 13  1  6  0  0  0
 18 17  1  0  0  0  0
 18 11  1  0  0  0  0
 20 21  1  0  0  0  0
 21 19  1  0  0  0  0
 22 23  1  0  0  0  0
 23 25  1  0  0  0  0
 24 25  2  0  0  0  0
 26 24  1  0  0  0  0
 28 26  1  0  0  0  0
 28 27  1  6  0  0  0
 29 28  1  0  0  0  0
 30 32  1  0  0  0  0
 31 39  1  0  0  0  0
 34 39  1  0  0  0  0
 35 36  1  0  0  0  0
 35 42  1  0  0  0  0
 37 32  1  1  0  0  0
 37 34  1  0  0  0  0
 38 36  1  6  0  0  0
 38 37  1  0  0  0  0
 39 29  1  6  0  0  0
 40 33  1  6  0  0  0
 40 38  1  0  0  0  0
 40 31  1  0  0  0  0
 41 42  2  0  0  0  0
 42 30  1  0  0  0  0
M  END
>  <MODEL>
2

>  <REMARK>
 VINA RESULT:      -7.8      1.631      2.283
  Name = 
  11 active torsions:
  status: ('A' for Active; 'I' for Inactive)
    1  A    between atoms: C_2  and  O_41
    2  A    between atoms: C_4  and  C_9
    3  A    between atoms: C_7  and  N_16
    4  A    between atoms: C_7  and  C_31
    5  A    between atoms: C_9  and  C_23
    6  A    between atoms: C_10  and  C_14
    7  A    between atoms: C_14  and  O_41
    8  A    between atoms: C_15  and  C_34
    9  A    between atoms: C_15  and  C_42
   10  A    between atoms: C_20  and  C_23
   11  A    between atoms: C_20  and  C_24
                            x       y       z     vdW  Elec       q    Type
                         _______ _______ _______ _____ _____    ______ ____

>  <TORSDO>
F 11

$$$$
=
 OpenBabel11072411213D

 42 48  0  0  1  0  0  0  0  0999 V2000
  158.4120  212.9960  151.9410 C   0  0  2  0  0  0  0  0  0  0  0  0
  156.9500  213.2150  149.8640 C   0  0  0  0  0  0  0  0  0  0  0  0
  157.6320  213.5120  153.0800 N   0  0  0  0  0  0  0  0  0  0  0  0
  155.8060  213.7020  150.4190 O   0  0  0  0  0  0  0  0  0  0  0  0
  159.1170  214.3730  149.9770 F   0  0  0  0  0  0  0  0  0  0  0  0
  157.6350  214.3300  151.8640 C   0  0  1  0  0  0  0  0  0  0  0  0
  156.9720  212.5130  148.8180 O   0  0  0  0  0  0  0  0  0  0  0  0
  158.1390  213.6260  150.6160 C   0  0  2  0  0  0  0  0  0  0  0  0
  156.1130  214.4520  151.5750 C   0  0  0  0  0  2  0  0  0  0  0  0
  158.4330  214.2330  154.0700 C   0  0  0  0  0  2  0  0  0  0  0  0
  157.0740  212.7590  155.5790 C   0  0  2  0  0  3  0  0  0  0  0  0
  156.0260  212.7970  154.7650 C   0  0  0  0  0  3  0  0  0  0  0  0
  156.2900  210.6240  155.3720 C   0  0  0  0  0  2  0  0  0  0  0  0
  158.3300  213.5330  155.4170 C   0  0  1  0  0  3  0  0  0  0  0  0
  159.4050  212.5400  155.5230 N   0  0  0  0  0  2  0  0  0  0  0  0
  155.5020  211.4400  154.6770 C   0  0  0  0  0  3  0  0  0  0  0  0
  158.7630  211.2130  155.5850 C   0  0  2  0  0  3  0  0  0  0  0  0
  157.3410  211.4150  156.0750 C   0  0  1  0  0  3  0  0  0  0  0  0
  159.5410  210.2660  156.4990 C   0  0  0  0  0  2  0  0  0  0  0  0
  161.2440  208.5560  155.9300 C   0  0  0  0  0  1  0  0  0  0  0  0
  159.7760  208.9100  155.8530 C   0  0  0  0  0  2  0  0  0  0  0  0
  159.7900  213.1490  152.1770 O   0  0  0  0  0  0  0  0  0  0  0  0
  160.3880  211.9770  151.7000 C   0  0  0  0  0  2  0  0  0  0  0  0
  160.4780  209.5870  152.4410 C   0  0  0  0  0  3  0  0  0  0  0  0
  159.8740  210.7820  152.4500 C   0  0  0  0  0  3  0  0  0  0  0  0
  161.7370  209.3250  151.6800 C   0  0  0  0  0  2  0  0  0  0  0  0
  161.1330  207.1540  152.4540 O   0  0  0  0  0  1  0  0  0  0  0  0
  162.1550  207.8720  151.8310 C   0  0  1  0  0  3  0  0  0  0  0  0
  162.4350  207.2720  150.4610 C   0  0  0  0  0  2  0  0  0  0  0  0
  161.1690  202.6960  150.2640 C   0  0  0  0  0  2  0  0  0  0  0  0
  161.7010  207.4910  148.0440 C   0  0  0  0  0  2  0  0  0  0  0  0
  160.7490  204.1350  150.5860 C   0  0  0  0  0  2  0  0  0  0  0  0
  160.5260  206.0180  146.5500 O   0  0  0  0  0  1  0  0  0  0  0  0
  160.1540  206.4440  149.7730 C   0  0  0  0  0  2  0  0  0  0  0  0
  160.7350  202.6680  147.6740 C   0  0  0  0  0  2  0  0  0  0  0  0
  161.9400  203.6160  147.6400 C   0  0  0  0  0  2  0  0  0  0  0  0
  160.5420  205.0170  149.3480 C   0  0  1  0  0  3  0  0  0  0  0  0
  161.7290  204.9660  148.3540 C   0  0  2  0  0  3  0  0  0  0  0  0
  161.2510  207.4820  149.5170 C   0  0  1  0  0  3  0  0  0  0  0  0
  161.6730  206.1190  147.3480 C   0  0  2  0  0  3  0  0  0  0  0  0
  159.5880  201.2990  149.2120 O   0  0  0  0  0  0  0  0  0  0  0  0
  160.4480  202.1490  149.0600 C   0  0  0  0  0  0  0  0  0  0  0  0
  1 22  1  1  0  0  0
  1  3  1  0  0  0  0
  2  4  1  0  0  0  0
  2  8  1  0  0  0  0
  3 10  1  0  0  0  0
  4  9  1  0  0  0  0
  6  9  1  6  0  0  0
  6  1  1  0  0  0  0
  6  3  1  0  0  0  0
  7  2  2  0  0  0  0
  8  5  1  6  0  0  0
  8  6  1  0  0  0  0
  8  1  1  0  0  0  0
 11 12  1  6  0  0  0
 11 18  1  0  0  0  0
 14 10  1  6  0  0  0
 14 15  1  0  0  0  0
 14 11  1  0  0  0  0
 15 17  1  0  0  0  0
 16 12  2  0  0  0  0
 16 13  1  0  0  0  0
 17 18  1  0  0  0  0
 17 19  1  1  0  0  0
 18 13  1  6  0  0  0
 21 20  1  0  0  0  0
 21 19  1  0  0  0  0
 23 22  1  0  0  0  0
 23 25  1  0  0  0  0
 24 25  2  0  0  0  0
 26 28  1  0  0  0  0
 26 24  1  0  0  0  0
 28 27  1  6  0  0  0
 29 28  1  0  0  0  0
 30 32  1  0  0  0  0
 31 39  1  0  0  0  0
 35 42  1  0  0  0  0
 36 35  1  0  0  0  0
 37 34  1  1  0  0  0
 37 32  1  0  0  0  0
 38 36  1  6  0  0  0
 38 37  1  0  0  0  0
 39 34  1  0  0  0  0
 39 29  1  1  0  0  0
 40 33  1  1  0  0  0
 40 31  1  0  0  0  0
 40 38  1  0  0  0  0
 42 41  2  0  0  0  0
 42 30  1  0  0  0  0
M  END
>  <MODEL>
3

>  <REMARK>
 VINA RESULT:      -7.2      2.418      5.300
  Name = 
  11 active torsions:
  status: ('A' for Active; 'I' for Inactive)
    1  A    between atoms: C_2  and  O_41
    2  A    between atoms: C_4  and  C_9
    3  A    between atoms: C_7  and  N_16
    4  A    between atoms: C_7  and  C_31
    5  A    between atoms: C_9  and  C_23
    6  A    between atoms: C_10  and  C_14
    7  A    between atoms: C_14  and  O_41
    8  A    between atoms: C_15  and  C_34
    9  A    between atoms: C_15  and  C_42
   10  A    between atoms: C_20  and  C_23
   11  A    between atoms: C_20  and  C_24
                            x       y       z     vdW  Elec       q    Type
                         _______ _______ _______ _____ _____    ______ ____

>  <TORSDO>
F 11

$$$$
=
 OpenBabel11072411213D

 42 48  0  0  1  0  0  0  0  0999 V2000
  161.7200  209.6730  153.3540 C   0  0  2  0  0  0  0  0  0  0  0  0
  161.3020  207.2280  153.9410 C   0  0  0  0  0  0  0  0  0  0  0  0
  161.2970  210.4790  154.5140 N   0  0  0  0  0  0  0  0  0  0  0  0
  160.8520  207.3560  155.2190 O   0  0  0  0  0  0  0  0  0  0  0  0
  160.1850  208.2410  151.9970 F   0  0  0  0  0  0  0  0  0  0  0  0
  160.3750  209.4270  154.0750 C   0  0  1  0  0  0  0  0  0  0  0  0
  161.9100  206.2090  153.5160 O   0  0  0  0  0  0  0  0  0  0  0  0
  160.9740  208.4020  153.1260 C   0  0  2  0  0  0  0  0  0  0  0  0
  160.2090  208.6020  155.3810 C   0  0  0  0  0  2  0  0  0  0  0  0
  160.6750  211.7550  154.1550 C   0  0  0  0  0  2  0  0  0  0  0  0
  158.2100  211.8070  154.6280 C   0  0  2  0  0  3  0  0  0  0  0  0
  158.4060  212.0720  155.9140 C   0  0  0  0  0  3  0  0  0  0  0  0
  156.7740  213.4850  155.2070 C   0  0  0  0  0  2  0  0  0  0  0  0
  159.2680  211.5050  153.6310 C   0  0  1  0  0  3  0  0  0  0  0  0
  159.0050  212.4150  152.5110 N   0  0  0  0  0  2  0  0  0  0  0  0
  157.4520  213.1080  156.2870 C   0  0  0  0  0  3  0  0  0  0  0  0
  157.9200  213.3200  152.9340 C   0  0  2  0  0  3  0  0  0  0  0  0
  157.1560  212.6280  154.0480 C   0  0  1  0  0  3  0  0  0  0  0  0
  157.0050  213.6700  151.7600 C   0  0  0  0  0  2  0  0  0  0  0  0
  156.7260  213.2800  149.3280 C   0  0  0  0  0  1  0  0  0  0  0  0
  157.7240  213.5760  150.4240 C   0  0  0  0  0  2  0  0  0  0  0  0
  161.6050  210.4190  152.1680 O   0  0  0  0  0  0  0  0  0  0  0  0
  162.3420  209.7160  151.2070 C   0  0  0  0  0  2  0  0  0  0  0  0
  161.9770  209.5040  148.7390 C   0  0  0  0  0  3  0  0  0  0  0  0
  162.0760  210.2660  149.8350 C   0  0  0  0  0  3  0  0  0  0  0  0
  162.1180  208.0160  148.7750 C   0  0  0  0  0  2  0  0  0  0  0  0
  161.4390  206.8320  146.8220 O   0  0  0  0  0  1  0  0  0  0  0  0
  160.9710  207.3570  148.0270 C   0  0  1  0  0  3  0  0  0  0  0  0
  160.3810  206.2390  148.8740 C   0  0  0  0  0  2  0  0  0  0  0  0
  160.7020  202.0250  146.7020 C   0  0  0  0  0  2  0  0  0  0  0  0
  160.7720  205.0400  151.0730 C   0  0  0  0  0  2  0  0  0  0  0  0
  161.4330  203.2830  147.1870 C   0  0  0  0  0  2  0  0  0  0  0  0
  161.4060  202.7860  151.6180 O   0  0  0  0  0  1  0  0  0  0  0  0
  162.3320  204.6560  149.0970 C   0  0  0  0  0  2  0  0  0  0  0  0
  160.7300  200.6070  148.9120 C   0  0  0  0  0  2  0  0  0  0  0  0
  159.7370  201.6700  149.3980 C   0  0  0  0  0  2  0  0  0  0  0  0
  161.6180  203.3500  148.7080 C   0  0  1  0  0  3  0  0  0  0  0  0
  160.3080  203.0990  149.4960 C   0  0  2  0  0  3  0  0  0  0  0  0
  161.4270  205.6580  149.8240 C   0  0  1  0  0  3  0  0  0  0  0  0
  160.4320  203.5440  150.9550 C   0  0  2  0  0  3  0  0  0  0  0  0
  161.8100  199.9560  146.9210 O   0  0  0  0  0  0  0  0  0  0  0  0
  161.1170  200.7960  147.4670 C   0  0  0  0  0  0  0  0  0  0  0  0
  1 22  1  6  0  0  0
  1  6  1  0  0  0  0
  1  3  1  0  0  0  0
  2  4  1  0  0  0  0
  4  9  1  0  0  0  0
  6  3  1  0  0  0  0
  6  9  1  1  0  0  0
  7  2  2  0  0  0  0
  8  5  1  6  0  0  0
  8  1  1  0  0  0  0
  8  2  1  0  0  0  0
  8  6  1  0  0  0  0
 10  3  1  0  0  0  0
 11 12  1  1  0  0  0
 12 16  2  0  0  0  0
 13 16  1  0  0  0  0
 14 10  1  1  0  0  0
 14 11  1  0  0  0  0
 15 17  1  0  0  0  0
 15 14  1  0  0  0  0
 17 19  1  6  0  0  0
 17 18  1  0  0  0  0
 18 11  1  0  0  0  0
 18 13  1  1  0  0  0
 20 21  1  0  0  0  0
 21 19  1  0  0  0  0
 23 22  1  0  0  0  0
 24 26  1  0  0  0  0
 24 25  2  0  0  0  0
 25 23  1  0  0  0  0
 28 27  1  6  0  0  0
 28 26  1  0  0  0  0
 28 29  1  0  0  0  0
 30 32  1  0  0  0  0
 30 42  1  0  0  0  0
 34 39  1  0  0  0  0
 35 36  1  0  0  0  0
 37 32  1  6  0  0  0
 37 34  1  0  0  0  0
 37 38  1  0  0  0  0
 38 36  1  1  0  0  0
 38 40  1  0  0  0  0
 39 29  1  6  0  0  0
 39 31  1  0  0  0  0
 40 31  1  0  0  0  0
 40 33  1  6  0  0  0
 41 42  2  0  0  0  0
 42 35  1  0  0  0  0
M  END
>  <MODEL>
4

>  <REMARK>
 VINA RESULT:      -6.8      2.285      4.286
  Name = 
  11 active torsions:
  status: ('A' for Active; 'I' for Inactive)
    1  A    between atoms: C_2  and  O_41
    2  A    between atoms: C_4  and  C_9
    3  A    between atoms: C_7  and  N_16
    4  A    between atoms: C_7  and  C_31
    5  A    between atoms: C_9  and  C_23
    6  A    between atoms: C_10  and  C_14
    7  A    between atoms: C_14  and  O_41
    8  A    between atoms: C_15  and  C_34
    9  A    between atoms: C_15  and  C_42
   10  A    between atoms: C_20  and  C_23
   11  A    between atoms: C_20  and  C_24
                            x       y       z     vdW  Elec       q    Type
                         _______ _______ _______ _____ _____    ______ ____

>  <TORSDO>
F 11

$$$$
=
 OpenBabel11072411213D

 42 48  0  0  1  0  0  0  0  0999 V2000
  161.2580  207.0640  151.2100 C   0  0  2  0  0  0  0  0  0  0  0  0
  161.3840  205.6450  153.3230 C   0  0  0  0  0  0  0  0  0  0  0  0
  160.5570  206.2650  150.1880 N   0  0  0  0  0  0  0  0  0  0  0  0
  160.6930  204.5440  152.9210 O   0  0  0  0  0  0  0  0  0  0  0  0
  163.4470  206.4300  152.2380 F   0  0  0  0  0  0  0  0  0  0  0  0
  161.6110  205.5820  150.9450 C   0  0  1  0  0  0  0  0  0  0  0  0
  161.4380  206.0340  154.5210 O   0  0  0  0  0  0  0  0  0  0  0  0
  162.0670  206.3010  152.2040 C   0  0  2  0  0  0  0  0  0  0  0  0
  160.8320  204.3710  151.5270 C   0  0  0  0  0  2  0  0  0  0  0  0
  161.0730  206.4520  148.8310 C   0  0  0  0  0  2  0  0  0  0  0  0
  161.1650  205.3090  146.5980 C   0  0  2  0  0  3  0  0  0  0  0  0
  162.0750  206.1590  146.1380 C   0  0  0  0  0  3  0  0  0  0  0  0
  162.7790  204.0820  145.5460 C   0  0  0  0  0  2  0  0  0  0  0  0
  160.4760  205.3990  147.9100 C   0  0  1  0  0  3  0  0  0  0  0  0
  160.6470  204.0760  148.5210 N   0  0  0  0  0  2  0  0  0  0  0  0
  163.0730  205.3730  145.4260 C   0  0  0  0  0  3  0  0  0  0  0  0
  161.5490  203.3070  147.6430 C   0  0  2  0  0  3  0  0  0  0  0  0
  161.4780  203.9270  146.2590 C   0  0  1  0  0  3  0  0  0  0  0  0
  161.1640  201.8280  147.6150 C   0  0  0  0  0  2  0  0  0  0  0  0
  161.1520  200.9680  149.9400 C   0  0  0  0  0  1  0  0  0  0  0  0
  160.2860  201.4420  148.7940 C   0  0  0  0  0  2  0  0  0  0  0  0
  162.1370  207.9790  150.6020 O   0  0  0  0  0  0  0  0  0  0  0  0
  162.3660  208.9760  151.5570 C   0  0  0  0  0  2  0  0  0  0  0  0
  160.9250  210.5360  152.8830 C   0  0  0  0  0  3  0  0  0  0  0  0
  161.1110  209.7620  151.8070 C   0  0  0  0  0  3  0  0  0  0  0  0
  161.9600  210.6990  153.9500 C   0  0  0  0  0  2  0  0  0  0  0  0
  162.2890  210.8050  156.3070 O   0  0  0  0  0  1  0  0  0  0  0  0
  161.3320  210.5460  155.3250 C   0  0  1  0  0  3  0  0  0  0  0  0
  160.1740  211.5210  155.4730 C   0  0  0  0  0  2  0  0  0  0  0  0
  157.1650  213.9940  152.7500 C   0  0  0  0  0  2  0  0  0  0  0  0
  158.3660  211.4370  157.2470 C   0  0  0  0  0  2  0  0  0  0  0  0
  157.7050  212.6150  153.1480 C   0  0  0  0  0  2  0  0  0  0  0  0
  156.0420  212.0550  157.2470 O   0  0  0  0  0  1  0  0  0  0  0  0
  157.8520  210.7610  154.8470 C   0  0  0  0  0  2  0  0  0  0  0  0
  155.3500  214.3240  154.6190 C   0  0  0  0  0  2  0  0  0  0  0  0
  156.5730  214.4530  155.5360 C   0  0  0  0  0  2  0  0  0  0  0  0
  157.2350  212.1340  154.5270 C   0  0  1  0  0  3  0  0  0  0  0  0
  157.4430  213.1850  155.6460 C   0  0  2  0  0  3  0  0  0  0  0  0
  158.9110  210.8060  155.9530 C   0  0  1  0  0  3  0  0  0  0  0  0
  157.3320  212.5580  157.0370 C   0  0  2  0  0  3  0  0  0  0  0  0
  154.8550  214.1870  152.3190 O   0  0  0  0  0  0  0  0  0  0  0  0
  155.7310  214.1840  153.1670 C   0  0  0  0  0  0  0  0  0  0  0  0
  1 22  1  6  0  0  0
  1  8  1  0  0  0  0
  2  7  2  0  0  0  0
  3  6  1  0  0  0  0
  3  1  1  0  0  0  0
  4  2  1  0  0  0  0
  6  1  1  0  0  0  0
  6  9  1  1  0  0  0
  6  8  1  0  0  0  0
  8  5  1  1  0  0  0
  8  2  1  0  0  0  0
  9  4  1  0  0  0  0
 10  3  1  0  0  0  0
 11 12  1  1  0  0  0
 11 14  1  0  0  0  0
 14 15  1  0  0  0  0
 14 10  1  1  0  0  0
 16 13  1  0  0  0  0
 16 12  2  0  0  0  0
 17 19  1  6  0  0  0
 17 15  1  0  0  0  0
 18 13  1  1  0  0  0
 18 11  1  0  0  0  0
 18 17  1  0  0  0  0
 19 21  1  0  0  0  0
 21 20  1  0  0  0  0
 22 23  1  0  0  0  0
 23 25  1  0  0  0  0
 24 26  1  0  0  0  0
 25 24  2  0  0  0  0
 26 28  1  0  0  0  0
 28 29  1  0  0  0  0
 28 27  1  1  0  0  0
 30 32  1  0  0  0  0
 30 42  1  0  0  0  0
 34 39  1  0  0  0  0
 35 36  1  0  0  0  0
 37 32  1  6  0  0  0
 37 34  1  0  0  0  0
 37 38  1  0  0  0  0
 38 36  1  1  0  0  0
 38 40  1  0  0  0  0
 39 29  1  6  0  0  0
 39 31  1  0  0  0  0
 40 31  1  0  0  0  0
 40 33  1  6  0  0  0
 41 42  2  0  0  0  0
 42 35  1  0  0  0  0
M  END
>  <MODEL>
5

>  <REMARK>
 VINA RESULT:      -6.6      3.569      9.904
  Name = 
  11 active torsions:
  status: ('A' for Active; 'I' for Inactive)
    1  A    between atoms: C_2  and  O_41
    2  A    between atoms: C_4  and  C_9
    3  A    between atoms: C_7  and  N_16
    4  A    between atoms: C_7  and  C_31
    5  A    between atoms: C_9  and  C_23
    6  A    between atoms: C_10  and  C_14
    7  A    between atoms: C_14  and  O_41
    8  A    between atoms: C_15  and  C_34
    9  A    between atoms: C_15  and  C_42
   10  A    between atoms: C_20  and  C_23
   11  A    between atoms: C_20  and  C_24
                            x       y       z     vdW  Elec       q    Type
                         _______ _______ _______ _____ _____    ______ ____

>  <TORSDO>
F 11

$$$$
=
 OpenBabel11072411213D

 42 48  0  0  1  0  0  0  0  0999 V2000
  159.7470  212.5040  150.6910 C   0  0  2  0  0  0  0  0  0  0  0  0
  159.5860  213.3440  148.2900 C   0  0  0  0  0  0  0  0  0  0  0  0
  158.5460  212.9790  151.4020 N   0  0  0  0  0  0  0  0  0  0  0  0
  158.3720  213.9580  148.3260 O   0  0  0  0  0  0  0  0  0  0  0  0
  161.4870  214.0040  149.7050 F   0  0  0  0  0  0  0  0  0  0  0  0
  159.2500  213.9630  150.5740 C   0  0  1  0  0  0  0  0  0  0  0  0
  160.0740  212.8290  147.2490 O   0  0  0  0  0  0  0  0  0  0  0  0
  160.2540  213.3790  149.5940 C   0  0  2  0  0  0  0  0  0  0  0  0
  158.1120  214.4360  149.6290 C   0  0  0  0  0  2  0  0  0  0  0  0
  158.7910  213.3550  152.7950 C   0  0  0  0  0  2  0  0  0  0  0  0
  158.8500  212.1320  154.9860 C   0  0  2  0  0  3  0  0  0  0  0  0
  160.0750  212.5650  155.2590 C   0  0  0  0  0  3  0  0  0  0  0  0
  158.8600  212.8350  157.1590 C   0  0  0  0  0  2  0  0  0  0  0  0
  158.1110  212.3560  153.7190 C   0  0  1  0  0  3  0  0  0  0  0  0
  156.8080  212.8930  154.1290 N   0  0  0  0  0  2  0  0  0  0  0  0
  160.0850  212.9650  156.6600 C   0  0  0  0  0  3  0  0  0  0  0  0
  156.8710  213.1160  155.5850 C   0  0  2  0  0  3  0  0  0  0  0  0
  157.9630  212.2190  156.1390 C   0  0  1  0  0  3  0  0  0  0  0  0
  155.5230  212.8310  156.2470 C   0  0  0  0  0  2  0  0  0  0  0  0
  154.8270  210.4560  156.1000 C   0  0  0  0  0  1  0  0  0  0  0  0
  155.5090  211.4910  156.9660 C   0  0  0  0  0  2  0  0  0  0  0  0
  160.8160  212.3340  151.5890 O   0  0  0  0  0  0  0  0  0  0  0  0
  161.1700  210.9820  151.5050 C   0  0  0  0  0  2  0  0  0  0  0  0
  160.8360  208.9700  152.9570 C   0  0  0  0  0  3  0  0  0  0  0  0
  160.9490  210.2970  152.8230 C   0  0  0  0  0  3  0  0  0  0  0  0
  160.9240  208.0310  151.7980 C   0  0  0  0  0  2  0  0  0  0  0  0
  162.3400  206.2600  152.5300 O   0  0  0  0  0  1  0  0  0  0  0  0
  162.3060  207.4020  151.7290 C   0  0  1  0  0  3  0  0  0  0  0  0
  162.6270  207.0230  150.2900 C   0  0  0  0  0  2  0  0  0  0  0  0
  161.2130  202.4930  150.0510 C   0  0  0  0  0  2  0  0  0  0  0  0
  161.8540  207.3020  147.8920 C   0  0  0  0  0  2  0  0  0  0  0  0
  160.8460  203.9400  150.4030 C   0  0  0  0  0  2  0  0  0  0  0  0
  160.6040  205.8910  146.4010 O   0  0  0  0  0  1  0  0  0  0  0  0
  160.3080  206.2780  149.6370 C   0  0  0  0  0  2  0  0  0  0  0  0
  160.7280  202.5190  147.4710 C   0  0  0  0  0  2  0  0  0  0  0  0
  161.9620  203.4280  147.4270 C   0  0  0  0  0  2  0  0  0  0  0  0
  160.6430  204.8460  149.1820 C   0  0  1  0  0  3  0  0  0  0  0  0
  161.8080  204.7730  148.1640 C   0  0  2  0  0  3  0  0  0  0  0  0
  161.4330  207.2850  149.3730 C   0  0  1  0  0  3  0  0  0  0  0  0
  161.7690  205.9420  147.1770 C   0  0  2  0  0  3  0  0  0  0  0  0
  159.5690  201.1620  149.0110 O   0  0  0  0  0  0  0  0  0  0  0  0
  160.4520  201.9880  148.8550 C   0  0  0  0  0  0  0  0  0  0  0  0
  1  3  1  0  0  0  0
  1 22  1  1  0  0  0
  2  4  1  0  0  0  0
  2  8  1  0  0  0  0
  3 10  1  0  0  0  0
  4  9  1  0  0  0  0
  6  9  1  6  0  0  0
  6  1  1  0  0  0  0
  6  3  1  0  0  0  0
  7  2  2  0  0  0  0
  8  5  1  1  0  0  0
  8  6  1  0  0  0  0
  8  1  1  0  0  0  0
 11 12  1  1  0  0  0
 11 18  1  0  0  0  0
 12 16  2  0  0  0  0
 14 10  1  6  0  0  0
 14 15  1  0  0  0  0
 14 11  1  0  0  0  0
 15 17  1  0  0  0  0
 16 13  1  0  0  0  0
 17 18  1  0  0  0  0
 17 19  1  1  0  0  0
 18 13  1  1  0  0  0
 19 21  1  0  0  0  0
 20 21  1  0  0  0  0
 23 22  1  0  0  0  0
 23 25  1  0  0  0  0
 25 24  2  0  0  0  0
 26 24  1  0  0  0  0
 28 26  1  0  0  0  0
 28 27  1  1  0  0  0
 29 28  1  0  0  0  0
 30 32  1  0  0  0  0
 31 39  1  0  0  0  0
 35 42  1  0  0  0  0
 36 35  1  0  0  0  0
 37 34  1  1  0  0  0
 37 32  1  0  0  0  0
 38 36  1  6  0  0  0
 38 37  1  0  0  0  0
 39 34  1  0  0  0  0
 39 29  1  1  0  0  0
 40 33  1  1  0  0  0
 40 31  1  0  0  0  0
 40 38  1  0  0  0  0
 42 41  2  0  0  0  0
 42 30  1  0  0  0  0
M  END
>  <MODEL>
6

>  <REMARK>
 VINA RESULT:      -6.6      2.439      5.135
  Name = 
  11 active torsions:
  status: ('A' for Active; 'I' for Inactive)
    1  A    between atoms: C_2  and  O_41
    2  A    between atoms: C_4  and  C_9
    3  A    between atoms: C_7  and  N_16
    4  A    between atoms: C_7  and  C_31
    5  A    between atoms: C_9  and  C_23
    6  A    between atoms: C_10  and  C_14
    7  A    between atoms: C_14  and  O_41
    8  A    between atoms: C_15  and  C_34
    9  A    between atoms: C_15  and  C_42
   10  A    between atoms: C_20  and  C_23
   11  A    between atoms: C_20  and  C_24
                            x       y       z     vdW  Elec       q    Type
                         _______ _______ _______ _____ _____    ______ ____

>  <TORSDO>
F 11

$$$$
=
 OpenBabel11072411213D

 42 48  0  0  1  0  0  0  0  0999 V2000
  161.2330  209.8610  153.6730 C   0  0  2  0  0  0  0  0  0  0  0  0
  161.5240  208.9640  156.0410 C   0  0  0  0  0  0  0  0  0  0  0  0
  160.7370  211.2450  153.7880 N   0  0  0  0  0  0  0  0  0  0  0  0
  161.1910  210.0680  156.7640 O   0  0  0  0  0  0  0  0  0  0  0  0
  159.9900  207.8470  154.4770 F   0  0  0  0  0  0  0  0  0  0  0  0
  160.0790  210.2400  154.6290 C   0  0  1  0  0  0  0  0  0  0  0  0
  162.3280  208.0830  156.4480 O   0  0  0  0  0  0  0  0  0  0  0  0
  160.8220  208.9210  154.7560 C   0  0  2  0  0  0  0  0  0  0  0  0
  160.2680  210.8560  156.0430 C   0  0  0  0  0  2  0  0  0  0  0  0
  159.7730  211.6170  152.7520 C   0  0  0  0  0  2  0  0  0  0  0  0
  158.7330  213.6760  151.7610 C   0  0  2  0  0  3  0  0  0  0  0  0
  158.7660  213.1700  150.5340 C   0  0  0  0  0  3  0  0  0  0  0  0
  156.7020  214.0820  150.7980 C   0  0  0  0  0  2  0  0  0  0  0  0
  159.3140  213.0500  152.9760 C   0  0  1  0  0  3  0  0  0  0  0  0
  158.2290  213.0570  153.9630 N   0  0  0  0  0  2  0  0  0  0  0  0
  157.4850  213.4770  149.9110 C   0  0  0  0  0  3  0  0  0  0  0  0
  157.0160  213.5300  153.2700 C   0  0  2  0  0  3  0  0  0  0  0  0
  157.4630  214.3260  152.0580 C   0  0  1  0  0  3  0  0  0  0  0  0
  156.1400  214.3700  154.2000 C   0  0  0  0  0  2  0  0  0  0  0  0
  156.1230  214.0590  156.6590 C   0  0  0  0  0  1  0  0  0  0  0  0
  155.5710  213.5510  155.3470 C   0  0  0  0  0  2  0  0  0  0  0  0
  160.8070  209.2840  152.4630 O   0  0  0  0  0  0  0  0  0  0  0  0
  161.9560  209.1770  151.6710 C   0  0  0  0  0  2  0  0  0  0  0  0
  162.0250  209.6500  149.2130 C   0  0  0  0  0  3  0  0  0  0  0  0
  161.8540  210.0740  150.4710 C   0  0  0  0  0  3  0  0  0  0  0  0
  162.3350  208.2270  148.8760 C   0  0  0  0  0  2  0  0  0  0  0  0
  161.5820  206.9230  147.0300 O   0  0  0  0  0  1  0  0  0  0  0  0
  161.1490  207.5760  148.1840 C   0  0  1  0  0  3  0  0  0  0  0  0
  160.4940  206.5720  149.1220 C   0  0  0  0  0  2  0  0  0  0  0  0
  160.8270  202.2910  147.0880 C   0  0  0  0  0  2  0  0  0  0  0  0
  160.8090  205.4370  151.3660 C   0  0  0  0  0  2  0  0  0  0  0  0
  161.5590  203.5550  147.5550 C   0  0  0  0  0  2  0  0  0  0  0  0
  161.4010  203.1940  151.9970 O   0  0  0  0  0  1  0  0  0  0  0  0
  162.4190  204.9760  149.4480 C   0  0  0  0  0  2  0  0  0  0  0  0
  160.7760  200.9400  149.3390 C   0  0  0  0  0  2  0  0  0  0  0  0
  159.7830  202.0280  149.7650 C   0  0  0  0  0  2  0  0  0  0  0  0
  161.7010  203.6660  149.0790 C   0  0  1  0  0  3  0  0  0  0  0  0
  160.3670  203.4530  149.8360 C   0  0  2  0  0  3  0  0  0  0  0  0
  161.5070  206.0090  150.1180 C   0  0  1  0  0  3  0  0  0  0  0  0
  160.4560  203.9410  151.2840 C   0  0  2  0  0  3  0  0  0  0  0  0
  161.9040  200.2170  147.4000 O   0  0  0  0  0  0  0  0  0  0  0  0
  161.2060  201.0810  147.9010 C   0  0  0  0  0  0  0  0  0  0  0  0
  1 22  1  6  0  0  0
  1  3  1  0  0  0  0
  1  6  1  0  0  0  0
  1  8  1  0  0  0  0
  2  7  2  0  0  0  0
  2  4  1  0  0  0  0
  3  6  1  0  0  0  0
  6  8  1  0  0  0  0
  6  9  1  1  0  0  0
  8  5  1  6  0  0  0
  8  2  1  0  0  0  0
  9  4  1  0  0  0  0
 10  3  1  0  0  0  0
 11 12  1  6  0  0  0
 11 18  1  0  0  0  0
 11 14  1  0  0  0  0
 14 10  1  6  0  0  0
 14 15  1  0  0  0  0
 16 12  2  0  0  0  0
 16 13  1  0  0  0  0
 17 15  1  0  0  0  0
 17 19  1  1  0  0  0
 18 13  1  6  0  0  0
 18 17  1  0  0  0  0
 19 21  1  0  0  0  0
 21 20  1  0  0  0  0
 23 22  1  0  0  0  0
 24 25  2  0  0  0  0
 25 23  1  0  0  0  0
 26 24  1  0  0  0  0
 28 27  1  6  0  0  0
 28 26  1  0  0  0  0
 28 29  1  0  0  0  0
 30 32  1  0  0  0  0
 30 42  1  0  0  0  0
 34 39  1  0  0  0  0
 35 36  1  0  0  0  0
 37 32  1  6  0  0  0
 37 34  1  0  0  0  0
 37 38  1  0  0  0  0
 38 36  1  1  0  0  0
 38 40  1  0  0  0  0
 39 29  1  6  0  0  0
 39 31  1  0  0  0  0
 40 31  1  0  0  0  0
 40 33  1  1  0  0  0
 41 42  2  0  0  0  0
 42 35  1  0  0  0  0
M  END
>  <MODEL>
7

>  <REMARK>
 VINA RESULT:      -6.6      2.142      3.938
  Name = 
  11 active torsions:
  status: ('A' for Active; 'I' for Inactive)
    1  A    between atoms: C_2  and  O_41
    2  A    between atoms: C_4  and  C_9
    3  A    between atoms: C_7  and  N_16
    4  A    between atoms: C_7  and  C_31
    5  A    between atoms: C_9  and  C_23
    6  A    between atoms: C_10  and  C_14
    7  A    between atoms: C_14  and  O_41
    8  A    between atoms: C_15  and  C_34
    9  A    between atoms: C_15  and  C_42
   10  A    between atoms: C_20  and  C_23
   11  A    between atoms: C_20  and  C_24
                            x       y       z     vdW  Elec       q    Type
                         _______ _______ _______ _____ _____    ______ ____

>  <TORSDO>
F 11

$$$$
=
 OpenBabel11072411213D

 42 48  0  0  1  0  0  0  0  0999 V2000
  160.1070  210.4190  154.8240 C   0  0  2  0  0  0  0  0  0  0  0  0
  160.4830  210.5720  152.3080 C   0  0  0  0  0  0  0  0  0  0  0  0
  159.2310  211.5420  155.2050 N   0  0  0  0  0  0  0  0  0  0  0  0
  159.6960  211.6410  152.0070 O   0  0  0  0  0  0  0  0  0  0  0  0
  162.3940  210.6820  153.8520 F   0  0  0  0  0  0  0  0  0  0  0  0
  160.3550  211.8580  154.3180 C   0  0  1  0  0  0  0  0  0  0  0  0
  160.7280  209.6390  151.4980 O   0  0  0  0  0  0  0  0  0  0  0  0
  161.0200  210.6560  153.6690 C   0  0  2  0  0  0  0  0  0  0  0  0
  159.6210  212.5120  153.1160 C   0  0  0  0  0  2  0  0  0  0  0  0
  159.5490  212.1280  156.5080 C   0  0  0  0  0  2  0  0  0  0  0  0
  157.5030  213.5810  156.4880 C   0  0  2  0  0  3  0  0  0  0  0  0
  157.9390  214.2780  155.4450 C   0  0  0  0  0  3  0  0  0  0  0  0
  155.7610  213.7920  155.0260 C   0  0  0  0  0  2  0  0  0  0  0  0
  158.2630  212.5320  157.2120 C   0  0  1  0  0  3  0  0  0  0  0  0
  157.3600  211.3760  157.2610 N   0  0  0  0  0  2  0  0  0  0  0  0
  156.8100  214.4510  154.5420 C   0  0  0  0  0  3  0  0  0  0  0  0
  156.1800  211.7130  156.4430 C   0  0  2  0  0  3  0  0  0  0  0  0
  156.0950  213.2260  156.3650 C   0  0  1  0  0  3  0  0  0  0  0  0
  154.9070  211.1100  157.0370 C   0  0  0  0  0  2  0  0  0  0  0  0
  155.1130  209.9240  154.8700 C   0  0  0  0  0  1  0  0  0  0  0  0
  154.3300  210.0090  156.1610 C   0  0  0  0  0  2  0  0  0  0  0  0
  160.9230  210.0430  155.9060 O   0  0  0  0  0  0  0  0  0  0  0  0
  161.5220  208.8360  155.5260 C   0  0  0  0  0  2  0  0  0  0  0  0
  160.4700  206.9020  154.3360 C   0  0  0  0  0  3  0  0  0  0  0  0
  160.4850  207.7640  155.3600 C   0  0  0  0  0  3  0  0  0  0  0  0
  161.4980  206.9190  153.2510 C   0  0  0  0  0  2  0  0  0  0  0  0
  160.9490  204.6020  153.3060 O   0  0  0  0  0  1  0  0  0  0  0  0
  161.9370  205.5040  152.9140 C   0  0  1  0  0  3  0  0  0  0  0  0
  162.1730  205.3820  151.4150 C   0  0  0  0  0  2  0  0  0  0  0  0
  161.5410  201.8050  148.3510 C   0  0  0  0  0  2  0  0  0  0  0  0
  161.6090  206.9820  149.5320 C   0  0  0  0  0  2  0  0  0  0  0  0
  160.9110  202.7250  149.4040 C   0  0  0  0  0  2  0  0  0  0  0  0
  160.7590  206.6570  147.3070 O   0  0  0  0  0  1  0  0  0  0  0  0
  160.0820  205.0130  150.0540 C   0  0  0  0  0  2  0  0  0  0  0  0
  161.3190  203.3330  146.2270 C   0  0  0  0  0  2  0  0  0  0  0  0
  162.3880  204.1730  146.9360 C   0  0  0  0  0  2  0  0  0  0  0  0
  160.6870  204.1640  148.9220 C   0  0  1  0  0  3  0  0  0  0  0  0
  161.9450  204.7960  148.2750 C   0  0  2  0  0  3  0  0  0  0  0  0
  161.0500  206.0540  150.6260 C   0  0  1  0  0  3  0  0  0  0  0  0
  161.8170  206.3170  148.1600 C   0  0  2  0  0  3  0  0  0  0  0  0
  160.2460  201.2480  146.4620 O   0  0  0  0  0  0  0  0  0  0  0  0
  160.9950  202.0630  146.9720 C   0  0  0  0  0  0  0  0  0  0  0  0
  1  3  1  0  0  0  0
  1 22  1  1  0  0  0
  2  8  1  0  0  0  0
  3 10  1  0  0  0  0
  4  2  1  0  0  0  0
  4  9  1  0  0  0  0
  6  9  1  6  0  0  0
  6  1  1  0  0  0  0
  6  3  1  0  0  0  0
  7  2  2  0  0  0  0
  8  5  1  1  0  0  0
  8  6  1  0  0  0  0
  8  1  1  0  0  0  0
 11 12  1  6  0  0  0
 11 14  1  0  0  0  0
 14 10  1  6  0  0  0
 14 15  1  0  0  0  0
 16 13  1  0  0  0  0
 16 12  2  0  0  0  0
 17 19  1  1  0  0  0
 17 15  1  0  0  0  0
 18 13  1  6  0  0  0
 18 17  1  0  0  0  0
 18 11  1  0  0  0  0
 20 21  1  0  0  0  0
 21 19  1  0  0  0  0
 23 22  1  0  0  0  0
 24 25  2  0  0  0  0
 25 23  1  0  0  0  0
 26 24  1  0  0  0  0
 28 26  1  0  0  0  0
 28 27  1  6  0  0  0
 29 28  1  0  0  0  0
 30 32  1  0  0  0  0
 31 39  1  0  0  0  0
 34 39  1  0  0  0  0
 35 36  1  0  0  0  0
 35 42  1  0  0  0  0
 37 32  1  1  0  0  0
 37 34  1  0  0  0  0
 38 36  1  6  0  0  0
 38 37  1  0  0  0  0
 39 29  1  6  0  0  0
 40 33  1  6  0  0  0
 40 38  1  0  0  0  0
 40 31  1  0  0  0  0
 41 42  2  0  0  0  0
 42 30  1  0  0  0  0
M  END
>  <MODEL>
8

>  <REMARK>
 VINA RESULT:      -6.5      3.170      5.150
  Name = 
  11 active torsions:
  status: ('A' for Active; 'I' for Inactive)
    1  A    between atoms: C_2  and  O_41
    2  A    between atoms: C_4  and  C_9
    3  A    between atoms: C_7  and  N_16
    4  A    between atoms: C_7  and  C_31
    5  A    between atoms: C_9  and  C_23
    6  A    between atoms: C_10  and  C_14
    7  A    between atoms: C_14  and  O_41
    8  A    between atoms: C_15  and  C_34
    9  A    between atoms: C_15  and  C_42
   10  A    between atoms: C_20  and  C_23
   11  A    between atoms: C_20  and  C_24
                            x       y       z     vdW  Elec       q    Type
                         _______ _______ _______ _____ _____    ______ ____

>  <TORSDO>
F 11

$$$$
=
 OpenBabel11072411213D

 42 48  0  0  1  0  0  0  0  0999 V2000
  160.7510  210.1700  154.3600 C   0  0  2  0  0  0  0  0  0  0  0  0
  161.6440  209.2390  156.5580 C   0  0  0  0  0  0  0  0  0  0  0  0
  160.6440  211.6320  154.5160 N   0  0  0  0  0  0  0  0  0  0  0  0
  161.8340  210.3930  157.2540 O   0  0  0  0  0  0  0  0  0  0  0  0
  159.4550  208.5090  155.7060 F   0  0  0  0  0  0  0  0  0  0  0  0
  160.1160  210.8140  155.6130 C   0  0  1  0  0  0  0  0  0  0  0  0
  162.3240  208.1940  156.7440 O   0  0  0  0  0  0  0  0  0  0  0  0
  160.5460  209.3570  155.5940 C   0  0  2  0  0  0  0  0  0  0  0  0
  160.9150  211.3740  156.8220 C   0  0  0  0  0  2  0  0  0  0  0  0
  159.4860  212.2170  153.8380 C   0  0  0  0  0  2  0  0  0  0  0  0
  157.6430  213.8770  154.2210 C   0  0  2  0  0  3  0  0  0  0  0  0
  157.6010  214.2110  152.9360 C   0  0  0  0  0  3  0  0  0  0  0  0
  155.4460  213.9310  153.5980 C   0  0  0  0  0  2  0  0  0  0  0  0
  158.6270  212.9610  154.8500 C   0  0  1  0  0  3  0  0  0  0  0  0
  157.8190  211.9910  155.5980 N   0  0  0  0  0  2  0  0  0  0  0  0
  156.1960  214.2920  152.5610 C   0  0  0  0  0  3  0  0  0  0  0  0
  156.4070  212.2590  155.2680 C   0  0  2  0  0  3  0  0  0  0  0  0
  156.3130  213.6960  154.7890 C   0  0  1  0  0  3  0  0  0  0  0  0
  155.5020  212.0110  156.4750 C   0  0  0  0  0  2  0  0  0  0  0  0
  155.0920  209.9700  155.1300 C   0  0  0  0  0  1  0  0  0  0  0  0
  154.9560  210.5920  156.5010 C   0  0  0  0  0  2  0  0  0  0  0  0
  159.8150  209.7050  153.4190 O   0  0  0  0  0  0  0  0  0  0  0  0
  160.5390  208.8980  152.5320 C   0  0  0  0  0  2  0  0  0  0  0  0
  162.6560  209.0830  151.2090 C   0  0  0  0  0  3  0  0  0  0  0  0
  161.8090  209.5830  152.1160 C   0  0  0  0  0  3  0  0  0  0  0  0
  162.4160  207.7830  150.5110 C   0  0  0  0  0  2  0  0  0  0  0  0
  162.2440  209.3120  148.6920 O   0  0  0  0  0  1  0  0  0  0  0  0
  161.8960  208.0250  149.1030 C   0  0  1  0  0  3  0  0  0  0  0  0
  162.5010  207.0050  148.1490 C   0  0  0  0  0  2  0  0  0  0  0  0
  160.8290  203.0680  150.2190 C   0  0  0  0  0  2  0  0  0  0  0  0
  162.2110  205.8500  145.9120 C   0  0  0  0  0  2  0  0  0  0  0  0
  160.5090  204.4430  149.6200 C   0  0  0  0  0  2  0  0  0  0  0  0
  161.1600  203.7880  145.2580 O   0  0  0  0  0  1  0  0  0  0  0  0
  160.2960  205.9160  147.5880 C   0  0  0  0  0  2  0  0  0  0  0  0
  160.8370  201.6140  148.0320 C   0  0  0  0  0  2  0  0  0  0  0  0
  162.1200  202.3960  147.7280 C   0  0  0  0  0  2  0  0  0  0  0  0
  160.6040  204.4940  148.0900 C   0  0  1  0  0  3  0  0  0  0  0  0
  161.9300  203.9140  147.5380 C   0  0  2  0  0  3  0  0  0  0  0  0
  161.5200  206.6500  147.0320 C   0  0  1  0  0  3  0  0  0  0  0  0
  162.1610  204.3210  146.0800 C   0  0  2  0  0  3  0  0  0  0  0  0
  159.3150  201.3090  149.8060 O   0  0  0  0  0  0  0  0  0  0  0  0
  160.2690  201.9420  149.3900 C   0  0  0  0  0  0  0  0  0  0  0  0
  1 22  1  6  0  0  0
  1  3  1  0  0  0  0
  1  8  1  0  0  0  0
  1  6  1  0  0  0  0
  2  7  2  0  0  0  0
  2  4  1  0  0  0  0
  3  6  1  0  0  0  0
  6  9  1  1  0  0  0
  8  6  1  0  0  0  0
  8  5  1  6  0  0  0
  8  2  1  0  0  0  0
  9  4  1  0  0  0  0
 10  3  1  0  0  0  0
 11 12  1  6  0  0  0
 11 18  1  0  0  0  0
 11 14  1  0  0  0  0
 14 10  1  6  0  0  0
 14 15  1  0  0  0  0
 16 12  2  0  0  0  0
 16 13  1  0  0  0  0
 17 15  1  0  0  0  0
 17 19  1  1  0  0  0
 18 13  1  6  0  0  0
 18 17  1  0  0  0  0
 19 21  1  0  0  0  0
 20 21  1  0  0  0  0
 23 22  1  0  0  0  0
 24 25  2  0  0  0  0
 25 23  1  0  0  0  0
 26 24  1  0  0  0  0
 28 27  1  6  0  0  0
 28 26  1  0  0  0  0
 29 28  1  0  0  0  0
 31 40  1  0  0  0  0
 31 39  1  0  0  0  0
 32 30  1  0  0  0  0
 35 42  1  0  0  0  0
 36 35  1  0  0  0  0
 37 34  1  1  0  0  0
 37 32  1  0  0  0  0
 38 36  1  6  0  0  0
 38 37  1  0  0  0  0
 39 34  1  0  0  0  0
 39 29  1  1  0  0  0
 40 33  1  6  0  0  0
 40 38  1  0  0  0  0
 42 41  2  0  0  0  0
 42 30  1  0  0  0  0
M  END
>  <MODEL>
9

>  <REMARK>
 VINA RESULT:      -6.5      2.778      4.011
  Name = 
  11 active torsions:
  status: ('A' for Active; 'I' for Inactive)
    1  A    between atoms: C_2  and  O_41
    2  A    between atoms: C_4  and  C_9
    3  A    between atoms: C_7  and  N_16
    4  A    between atoms: C_7  and  C_31
    5  A    between atoms: C_9  and  C_23
    6  A    between atoms: C_10  and  C_14
    7  A    between atoms: C_14  and  O_41
    8  A    between atoms: C_15  and  C_34
    9  A    between atoms: C_15  and  C_42
   10  A    between atoms: C_20  and  C_23
   11  A    between atoms: C_20  and  C_24
                            x       y       z     vdW  Elec       q    Type
                         _______ _______ _______ _____ _____    ______ ____

>  <TORSDO>
F 11

$$$$
