=
 OpenBabel11072410103D

 43 46  0  0  1  0  0  0  0  0999 V2000
  160.8030  208.5380  153.5180 C   0  0  2  0  0  3  0  0  0  0  0  0
  158.6820  211.7650  145.9470 C   0  0  0  0  0  2  0  0  0  0  0  0
  159.2940  212.0170  153.2910 C   0  0  2  0  0  3  0  0  0  0  0  0
  157.2150  214.4530  147.0240 C   0  0  0  0  0  1  0  0  0  0  0  0
  161.2460  207.9090  148.6970 C   0  0  0  0  0  2  0  0  0  0  0  0
  162.4150  206.2080  154.0480 C   0  0  0  0  0  2  0  0  0  0  0  0
  158.8170  212.8170  148.1750 C   0  0  2  0  0  0  0  0  0  0  0  0
  157.9610  213.0200  149.4180 C   0  0  0  0  0  0  0  0  0  0  0  0
  160.0810  207.8500  154.7070 C   0  0  2  0  0  3  0  0  0  0  0  0
  156.9450  211.6610  153.6220 O   0  0  0  0  0  0  0  0  0  0  0  0
  162.1180  206.6250  152.6880 N   0  0  0  0  0  0  0  0  0  0  0  0
  159.4650  210.6780  154.0070 C   0  0  0  0  0  2  0  0  0  0  0  0
  157.8380  212.3850  153.0980 C   0  0  0  0  0  0  0  0  0  0  0  0
  157.9040  214.3620  150.1000 C   0  0  0  0  0  2  0  0  0  0  0  0
  162.3640  211.3650  148.9740 C   0  0  1  0  0  3  0  0  0  0  0  0
  160.0180  211.8780  151.9610 C   0  0  0  0  0  2  0  0  0  0  0  0
  160.5240  208.4940  156.0090 C   0  0  0  0  0  1  0  0  0  0  0  0
  160.9440  211.4810  148.6690 N   0  0  0  0  0  2  0  0  0  0  0  0
  161.4930  207.1440  149.9880 C   0  0  0  0  0  2  0  0  0  0  0  0
  158.4240  211.5320  147.4290 C   0  0  0  0  0  2  0  0  0  0  0  0
  162.7100  209.9450  149.4240 C   0  0  0  0  0  2  0  0  0  0  0  0
  157.3110  212.0910  149.8750 O   0  0  0  0  0  0  0  0  0  0  0  0
  161.0180  207.9130  151.0830 O   0  0  0  0  0  0  0  0  0  0  0  0
  160.8810  213.8000  148.9170 O   0  0  0  0  0  0  0  0  0  0  0  0
  157.4480  213.5820  152.3940 N   0  0  0  0  0  0  0  0  0  0  0  0
  160.2690  212.7430  148.5960 C   0  0  0  0  0  0  0  0  0  0  0  0
  161.2200  205.6440  154.6160 N   0  0  0  0  0  0  0  0  0  0  0  0
  162.3520  208.8810  148.4230 C   0  0  0  0  0  0  0  0  0  0  0  0
  159.9700  209.7080  152.9530 C   0  0  1  0  0  3  0  0  0  0  0  0
  161.3310  207.6250  152.4160 C   0  0  0  0  0  0  0  0  0  0  0  0
  162.9790  208.7910  147.3800 O   0  0  0  0  0  0  0  0  0  0  0  0
  160.7840  210.5830  152.0290 C   0  0  0  0  0  2  0  0  0  0  0  0
  159.0600  213.2310  145.8160 C   0  0  2  0  0  3  0  0  0  0  0  0
  158.3900  214.3100  151.5470 C   0  0  0  0  0  2  0  0  0  0  0  0
  158.6490  213.9240  147.1120 C   0  0  1  0  0  3  0  0  0  0  0  0
  163.2040  211.7950  147.7820 C   0  0  0  0  0  1  0  0  0  0  0  0
  160.1670  206.3470  154.8570 C   0  0  0  0  0  3  0  0  0  0  0  0
  155.3140  214.1430  151.3340 C   0  0  0  0  0  1  0  0  0  0  0  0
  156.1290  214.1680  152.6140 C   0  0  0  0  0  2  0  0  0  0  0  0
  158.6880  213.9530  144.5040 C   0  0  0  0  0  2  0  0  0  0  0  0
  161.1560  214.4510  144.3490 C   0  0  0  0  0  1  0  0  0  0  0  0
  159.8410  214.3950  143.5950 C   0  0  1  0  0  3  0  0  0  0  0  0
  159.9580  213.5780  142.4710 O   0  0  0  0  0  1  0  0  0  0  0  0
  1 30  1  6  0  0  0
  1  9  1  0  0  0  0
  2 20  1  0  0  0  0
  3 16  1  6  0  0  0
  3 12  1  0  0  0  0
  5 19  1  0  0  0  0
  6 27  1  0  0  0  0
  7 20  1  6  0  0  0
  7 26  1  0  0  0  0
  7  8  1  0  0  0  0
  8 22  2  0  0  0  0
  8 14  1  0  0  0  0
  9 37  1  0  0  0  0
  9 17  1  1  0  0  0
 11  6  1  0  0  0  0
 13  3  1  0  0  0  0
 13 10  2  0  0  0  0
 14 34  1  0  0  0  0
 15 36  1  6  0  0  0
 15 21  1  0  0  0  0
 16 32  1  0  0  0  0
 18 15  1  0  0  0  0
 19 23  1  0  0  0  0
 23 30  1  0  0  0  0
 25 39  1  0  0  0  0
 25 13  1  0  0  0  0
 26 18  1  0  0  0  0
 26 24  2  0  0  0  0
 27 37  2  0  0  0  0
 28  5  1  0  0  0  0
 28 21  1  0  0  0  0
 29 32  1  6  0  0  0
 29  1  1  0  0  0  0
 29 12  1  0  0  0  0
 30 11  2  0  0  0  0
 31 28  2  0  0  0  0
 33 40  1  6  0  0  0
 33  2  1  0  0  0  0
 33 35  1  0  0  0  0
 34 25  1  0  0  0  0
 35  4  1  6  0  0  0
 35  7  1  0  0  0  0
 38 39  1  0  0  0  0
 42 41  1  1  0  0  0
 42 40  1  0  0  0  0
 43 42  1  0  0  0  0
M  END
>  <MODEL>
1

>  <REMARK>
 VINA RESULT:       3.8      0.000      0.000
  Name = 
  3 active torsions:
  status: ('A' for Active; 'I' for Inactive)
    1  A    between atoms: C_21  and  C_33
    2  A    between atoms: N_29  and  C_32
    3  A    between atoms: C_33  and  C_39
                            x       y       z     vdW  Elec       q    Type
                         _______ _______ _______ _____ _____    ______ ____

>  <TORSDO>
F 3

$$$$
