=
 OpenBabel11072412383D

 31 32  0  0  1  0  0  0  0  0999 V2000
  160.9150  205.7390  148.9770 C   0  0  0  0  0  0  0  0  0  0  0  0
  159.7790  206.1870  148.9830 O   0  0  0  0  0  0  0  0  0  0  0  0
  161.3530  204.8050  150.0670 C   0  0  0  0  0  2  0  0  0  0  0  0
  160.8650  205.2730  151.4350 C   0  0  0  0  0  2  0  0  0  0  0  0
  161.7980  206.2760  152.0400 C   0  0  0  0  0  0  0  0  0  0  0  0
  162.9930  206.3140  151.6410 O   0  0  0  0  0  0  0  0  0  0  0  0
  160.3820  209.0660  154.9430 C   0  0  0  0  0  0  0  0  0  0  0  0
  159.9690  207.1670  156.5870 C   0  0  0  0  0  1  0  0  0  0  0  0
  160.4230  207.6930  155.2660 C   0  0  0  0  0  0  0  0  0  0  0  0
  161.2720  208.6030  152.7840 C   0  0  0  0  0  3  0  0  0  0  0  0
  160.8970  206.7870  154.3170 C   0  0  0  0  0  3  0  0  0  0  0  0
  161.3260  207.2310  153.0610 C   0  0  0  0  0  0  0  0  0  0  0  0
  160.8100  209.4750  153.7170 N   0  0  0  0  0  0  0  0  0  0  0  0
  159.8800  210.1110  155.8970 C   0  0  2  0  0  3  0  0  0  0  0  0
  158.5020  210.6070  155.5000 C   0  0  0  0  0  1  0  0  0  0  0  0
  160.7750  211.1800  155.9800 O   0  0  0  0  0  1  0  0  0  0  0  0
  161.8700  206.1910  147.9100 C   0  0  1  0  0  3  0  0  0  0  0  0
  161.0480  206.2940  146.2910 S   0  0  0  0  0  0  0  0  0  0  0  0
  161.6840  204.7050  145.7530 C   0  0  0  0  0  0  0  0  0  0  0  0
  162.8830  204.5640  145.5660 O   0  0  0  0  0  0  0  0  0  0  0  0
  160.7530  203.5510  145.5600 C   0  0  0  0  0  2  0  0  0  0  0  0
  161.1830  198.6930  145.6420 O   0  0  0  0  0  0  0  0  0  0  0  0
  161.5340  201.0900  148.3830 C   0  0  0  0  0  2  0  0  0  0  0  0
  160.8190  201.0470  145.4850 C   0  0  0  0  0  2  0  0  0  0  0  0
  161.1450  199.7970  146.2450 C   0  0  0  0  0  0  0  0  0  0  0  0
  161.3140  199.8360  147.6670 N   0  0  0  0  0  2  0  0  0  0  0  0
  161.2920  202.2960  146.2300 C   0  0  2  0  0  3  0  0  0  0  0  0
  160.8320  202.2470  147.6810 C   0  0  0  0  0  2  0  0  0  0  0  0
  162.5180  207.5220  148.2550 C   0  0  0  0  0  2  0  0  0  0  0  0
  161.6750  208.2590  149.0880 O   0  0  0  0  0  0  0  0  0  0  0  0
  162.0870  209.5810  148.9210 C   0  0  0  0  0  1  0  0  0  0  0  0
  1  2  2  0  0  0  0
  1  3  1  0  0  0  0
  3  4  1  0  0  0  0
  4  5  1  0  0  0  0
  5 12  1  0  0  0  0
  6  5  2  0  0  0  0
  7  9  1  0  0  0  0
  7 14  1  0  0  0  0
  9  8  1  0  0  0  0
 10 12  2  0  0  0  0
 10 13  1  0  0  0  0
 11  9  2  0  0  0  0
 12 11  1  0  0  0  0
 13  7  2  0  0  0  0
 14 15  1  6  0  0  0
 14 16  1  0  0  0  0
 17 29  1  1  0  0  0
 17  1  1  0  0  0  0
 18 17  1  0  0  0  0
 19 18  1  0  0  0  0
 20 19  2  0  0  0  0
 21 19  1  0  0  0  0
 22 25  2  0  0  0  0
 24 27  1  0  0  0  0
 24 25  1  0  0  0  0
 25 26  1  0  0  0  0
 26 23  1  0  0  0  0
 27 21  1  6  0  0  0
 27 28  1  0  0  0  0
 28 23  1  0  0  0  0
 29 30  1  0  0  0  0
 31 30  1  0  0  0  0
M  END
>  <MODEL>
1

>  <REMARK>
 VINA RESULT:      -6.9      0.000      0.000
  Name = 
  12 active torsions:
  status: ('A' for Active; 'I' for Inactive)
    1  A    between atoms: C_2  and  C_14
    2  A    between atoms: C_2  and  C_24
    3  A    between atoms: O_3  and  C_6
    4  A    between atoms: C_4  and  C_9
    5  A    between atoms: S_5  and  C_23
    6  A    between atoms: S_5  and  C_30
    7  A    between atoms: C_6  and  C_30
    8  A    between atoms: C_7  and  C_23
    9  A    between atoms: C_7  and  C_28
   10  A    between atoms: C_14  and  C_20
   11  A    between atoms: C_19  and  C_20
   12  A    between atoms: C_19  and  C_30
                            x       y       z     vdW  Elec       q    Type
                         _______ _______ _______ _____ _____    ______ ____

>  <TORSDO>
F 12

$$$$
=
 OpenBabel11072412383D

 31 32  0  0  1  0  0  0  0  0999 V2000
  161.6400  207.3230  152.5240 C   0  0  0  0  0  0  0  0  0  0  0  0
  162.0970  207.7910  151.4930 O   0  0  0  0  0  0  0  0  0  0  0  0
  161.2990  205.8620  152.5910 C   0  0  0  0  0  2  0  0  0  0  0  0
  160.6910  205.3680  151.2820 C   0  0  0  0  0  2  0  0  0  0  0  0
  160.7830  203.8790  151.1570 C   0  0  0  0  0  0  0  0  0  0  0  0
  160.7390  203.1770  152.2030 O   0  0  0  0  0  0  0  0  0  0  0  0
  161.0120  201.9900  147.3370 C   0  0  0  0  0  0  0  0  0  0  0  0
  161.8460  204.1590  146.2990 C   0  0  0  0  0  1  0  0  0  0  0  0
  161.3870  203.3450  147.4620 C   0  0  0  0  0  0  0  0  0  0  0  0
  160.5290  201.8900  149.6660 C   0  0  0  0  0  3  0  0  0  0  0  0
  161.3200  203.9530  148.7150 C   0  0  0  0  0  3  0  0  0  0  0  0
  160.8870  203.2330  149.8340 C   0  0  0  0  0  0  0  0  0  0  0  0
  160.5990  201.3080  148.4400 N   0  0  0  0  0  0  0  0  0  0  0  0
  161.0430  201.2550  146.0280 C   0  0  2  0  0  3  0  0  0  0  0  0
  159.7990  201.5360  145.2060 C   0  0  0  0  0  1  0  0  0  0  0  0
  161.1900  199.8820  146.2310 O   0  0  0  0  0  1  0  0  0  0  0  0
  161.3660  208.2390  153.6820 C   0  0  1  0  0  3  0  0  0  0  0  0
  160.7100  209.8380  153.1160 S   0  0  0  0  0  0  0  0  0  0  0  0
  161.3290  210.7160  154.5520 C   0  0  0  0  0  0  0  0  0  0  0  0
  162.5220  210.6850  154.8130 O   0  0  0  0  0  0  0  0  0  0  0  0
  160.3930  211.5030  155.4120 C   0  0  0  0  0  2  0  0  0  0  0  0
  156.9480  213.9990  153.0250 O   0  0  0  0  0  0  0  0  0  0  0  0
  156.6010  211.0580  155.1740 C   0  0  0  0  0  2  0  0  0  0  0  0
  158.7150  212.9480  154.2400 C   0  0  0  0  0  2  0  0  0  0  0  0
  157.2790  213.0930  153.8340 C   0  0  0  0  0  0  0  0  0  0  0  0
  156.2690  212.2750  154.4360 N   0  0  0  0  0  2  0  0  0  0  0  0
  159.0010  211.5540  154.8000 C   0  0  2  0  0  3  0  0  0  0  0  0
  157.9610  211.1870  155.8500 C   0  0  0  0  0  2  0  0  0  0  0  0
  160.4180  207.6100  154.6900 C   0  0  0  0  0  2  0  0  0  0  0  0
  161.0480  207.5010  155.9300 O   0  0  0  0  0  0  0  0  0  0  0  0
  160.0400  207.0810  156.7990 C   0  0  0  0  0  1  0  0  0  0  0  0
  1  3  1  0  0  0  0
  1 17  1  0  0  0  0
  2  1  2  0  0  0  0
  4  3  1  0  0  0  0
  5  4  1  0  0  0  0
  5  6  2  0  0  0  0
  7  9  2  0  0  0  0
  7 13  1  0  0  0  0
  8  9  1  0  0  0  0
  9 11  1  0  0  0  0
 10 12  1  0  0  0  0
 11 12  2  0  0  0  0
 12  5  1  0  0  0  0
 13 10  2  0  0  0  0
 14 15  1  1  0  0  0
 14 16  1  0  0  0  0
 14  7  1  0  0  0  0
 17 29  1  1  0  0  0
 18 17  1  0  0  0  0
 18 19  1  0  0  0  0
 19 20  2  0  0  0  0
 19 21  1  0  0  0  0
 22 25  2  0  0  0  0
 23 28  1  0  0  0  0
 24 27  1  0  0  0  0
 25 24  1  0  0  0  0
 25 26  1  0  0  0  0
 26 23  1  0  0  0  0
 27 21  1  1  0  0  0
 27 28  1  0  0  0  0
 29 30  1  0  0  0  0
 30 31  1  0  0  0  0
M  END
>  <MODEL>
2

>  <REMARK>
 VINA RESULT:      -6.9      2.595     10.361
  Name = 
  12 active torsions:
  status: ('A' for Active; 'I' for Inactive)
    1  A    between atoms: C_2  and  C_14
    2  A    between atoms: C_2  and  C_24
    3  A    between atoms: O_3  and  C_6
    4  A    between atoms: C_4  and  C_9
    5  A    between atoms: S_5  and  C_23
    6  A    between atoms: S_5  and  C_30
    7  A    between atoms: C_6  and  C_30
    8  A    between atoms: C_7  and  C_23
    9  A    between atoms: C_7  and  C_28
   10  A    between atoms: C_14  and  C_20
   11  A    between atoms: C_19  and  C_20
   12  A    between atoms: C_19  and  C_30
                            x       y       z     vdW  Elec       q    Type
                         _______ _______ _______ _____ _____    ______ ____

>  <TORSDO>
F 12

$$$$
=
 OpenBabel11072412383D

 31 32  0  0  1  0  0  0  0  0999 V2000
  162.3090  207.6320  149.9840 C   0  0  0  0  0  0  0  0  0  0  0  0
  162.8570  207.3320  148.9360 O   0  0  0  0  0  0  0  0  0  0  0  0
  162.1260  206.5940  151.0530 C   0  0  0  0  0  2  0  0  0  0  0  0
  160.7600  205.9210  150.9510 C   0  0  0  0  0  2  0  0  0  0  0  0
  160.8770  204.4280  150.9850 C   0  0  0  0  0  0  0  0  0  0  0  0
  160.8660  203.8420  152.1000 O   0  0  0  0  0  0  0  0  0  0  0  0
  161.0670  202.1400  147.3870 C   0  0  0  0  0  0  0  0  0  0  0  0
  161.7040  204.2280  146.0760 C   0  0  0  0  0  1  0  0  0  0  0  0
  161.3530  203.5220  147.3440 C   0  0  0  0  0  0  0  0  0  0  0  0
  160.6950  202.2720  149.7340 C   0  0  0  0  0  3  0  0  0  0  0  0
  161.3000  204.2610  148.5250 C   0  0  0  0  0  3  0  0  0  0  0  0
  160.9670  203.6460  149.7360 C   0  0  0  0  0  0  0  0  0  0  0  0
  160.7510  201.5620  148.5770 N   0  0  0  0  0  0  0  0  0  0  0  0
  161.0910  201.2670  146.1650 C   0  0  2  0  0  3  0  0  0  0  0  0
  159.8140  201.4080  145.3590 C   0  0  0  0  0  1  0  0  0  0  0  0
  161.3000  199.9310  146.5140 O   0  0  0  0  0  1  0  0  0  0  0  0
  161.7690  209.0230  150.1510 C   0  0  1  0  0  3  0  0  0  0  0  0
  162.5360  209.8610  151.5710 S   0  0  0  0  0  0  0  0  0  0  0  0
  160.9810  210.0120  152.4520 C   0  0  0  0  0  0  0  0  0  0  0  0
  160.1310  209.1430  152.3340 O   0  0  0  0  0  0  0  0  0  0  0  0
  160.7360  211.1840  153.3480 C   0  0  0  0  0  2  0  0  0  0  0  0
  156.6600  213.8430  153.0190 O   0  0  0  0  0  0  0  0  0  0  0  0
  157.5020  211.1880  155.3910 C   0  0  0  0  0  2  0  0  0  0  0  0
  158.7550  212.7050  153.1460 C   0  0  0  0  0  2  0  0  0  0  0  0
  157.3600  212.9850  153.6180 C   0  0  0  0  0  0  0  0  0  0  0  0
  156.8560  212.3600  154.8040 N   0  0  0  0  0  2  0  0  0  0  0  0
  159.2520  211.3460  153.6430 C   0  0  2  0  0  3  0  0  0  0  0  0
  159.0050  211.2130  155.1400 C   0  0  0  0  0  2  0  0  0  0  0  0
  161.9460  209.8560  148.8920 C   0  0  0  0  0  2  0  0  0  0  0  0
  162.1240  211.1970  149.2300 O   0  0  0  0  0  0  0  0  0  0  0  0
  161.8650  211.8930  148.0490 C   0  0  0  0  0  1  0  0  0  0  0  0
  1 17  1  0  0  0  0
  1  3  1  0  0  0  0
  2  1  2  0  0  0  0
  4  5  1  0  0  0  0
  4  3  1  0  0  0  0
  5  6  2  0  0  0  0
  7 13  1  0  0  0  0
  8  9  1  0  0  0  0
  9  7  2  0  0  0  0
  9 11  1  0  0  0  0
 10 12  1  0  0  0  0
 11 12  2  0  0  0  0
 12  5  1  0  0  0  0
 13 10  2  0  0  0  0
 14 15  1  1  0  0  0
 14 16  1  0  0  0  0
 14  7  1  0  0  0  0
 17 29  1  6  0  0  0
 17 18  1  0  0  0  0
 18 19  1  0  0  0  0
 19 21  1  0  0  0  0
 20 19  2  0  0  0  0
 22 25  2  0  0  0  0
 24 25  1  0  0  0  0
 24 27  1  0  0  0  0
 25 26  1  0  0  0  0
 26 23  1  0  0  0  0
 27 21  1  1  0  0  0
 27 28  1  0  0  0  0
 28 23  1  0  0  0  0
 29 30  1  0  0  0  0
 31 30  1  0  0  0  0
M  END
>  <MODEL>
3

>  <REMARK>
 VINA RESULT:      -6.8      2.642      9.665
  Name = 
  12 active torsions:
  status: ('A' for Active; 'I' for Inactive)
    1  A    between atoms: C_2  and  C_14
    2  A    between atoms: C_2  and  C_24
    3  A    between atoms: O_3  and  C_6
    4  A    between atoms: C_4  and  C_9
    5  A    between atoms: S_5  and  C_23
    6  A    between atoms: S_5  and  C_30
    7  A    between atoms: C_6  and  C_30
    8  A    between atoms: C_7  and  C_23
    9  A    between atoms: C_7  and  C_28
   10  A    between atoms: C_14  and  C_20
   11  A    between atoms: C_19  and  C_20
   12  A    between atoms: C_19  and  C_30
                            x       y       z     vdW  Elec       q    Type
                         _______ _______ _______ _____ _____    ______ ____

>  <TORSDO>
F 12

$$$$
=
 OpenBabel11072412383D

 31 32  0  0  1  0  0  0  0  0999 V2000
  161.1550  210.0780  152.0500 C   0  0  0  0  0  0  0  0  0  0  0  0
  161.6190  210.7350  151.1320 O   0  0  0  0  0  0  0  0  0  0  0  0
  160.9570  208.5990  151.8820 C   0  0  0  0  0  2  0  0  0  0  0  0
  162.0790  207.9740  151.0580 C   0  0  0  0  0  2  0  0  0  0  0  0
  161.5570  207.3420  149.8060 C   0  0  0  0  0  0  0  0  0  0  0  0
  161.3700  208.0650  148.7910 O   0  0  0  0  0  0  0  0  0  0  0  0
  160.8640  203.1370  149.5690 C   0  0  0  0  0  0  0  0  0  0  0  0
  160.9050  202.9730  152.1090 C   0  0  0  0  0  1  0  0  0  0  0  0
  160.9880  203.7470  150.8360 C   0  0  0  0  0  0  0  0  0  0  0  0
  161.1640  205.2450  148.5050 C   0  0  0  0  0  3  0  0  0  0  0  0
  161.2030  205.1230  150.9060 C   0  0  0  0  0  3  0  0  0  0  0  0
  161.2960  205.8900  149.7400 C   0  0  0  0  0  0  0  0  0  0  0  0
  160.9530  203.9040  148.4490 N   0  0  0  0  0  0  0  0  0  0  0  0
  160.6400  201.6620  149.3960 C   0  0  2  0  0  3  0  0  0  0  0  0
  161.2820  201.1510  148.1190 C   0  0  0  0  0  1  0  0  0  0  0  0
  159.2770  201.3610  149.4070 O   0  0  0  0  0  1  0  0  0  0  0  0
  160.7300  210.7810  153.3070 C   0  0  1  0  0  3  0  0  0  0  0  0
  158.9180  210.8880  153.4220 S   0  0  0  0  0  0  0  0  0  0  0  0
  158.9370  212.6670  153.6560 C   0  0  0  0  0  0  0  0  0  0  0  0
  159.5980  213.1520  154.5620 O   0  0  0  0  0  0  0  0  0  0  0  0
  158.1670  213.5540  152.7300 C   0  0  0  0  0  2  0  0  0  0  0  0
  161.2580  213.5450  148.9570 O   0  0  0  0  0  0  0  0  0  0  0  0
  157.6050  213.3410  148.9520 C   0  0  0  0  0  2  0  0  0  0  0  0
  159.8550  213.6890  150.8830 C   0  0  0  0  0  2  0  0  0  0  0  0
  160.0830  213.5660  149.4070 C   0  0  0  0  0  0  0  0  0  0  0  0
  158.9750  213.5730  148.4990 N   0  0  0  0  0  2  0  0  0  0  0  0
  158.4560  213.2100  151.2770 C   0  0  2  0  0  3  0  0  0  0  0  0
  157.4100  213.8510  150.3750 C   0  0  0  0  0  2  0  0  0  0  0  0
  161.2960  210.1120  154.5500 C   0  0  0  0  0  2  0  0  0  0  0  0
  162.0120  211.0410  155.3050 O   0  0  0  0  0  0  0  0  0  0  0  0
  162.6430  210.2800  156.2900 C   0  0  0  0  0  1  0  0  0  0  0  0
  1 17  1  0  0  0  0
  2  1  2  0  0  0  0
  3  1  1  0  0  0  0
  4  3  1  0  0  0  0
  5  4  1  0  0  0  0
  6  5  2  0  0  0  0
  7  9  1  0  0  0  0
  9 11  2  0  0  0  0
  9  8  1  0  0  0  0
 10 12  2  0  0  0  0
 12  5  1  0  0  0  0
 12 11  1  0  0  0  0
 13 10  1  0  0  0  0
 13  7  2  0  0  0  0
 14 15  1  6  0  0  0
 14 16  1  0  0  0  0
 14  7  1  0  0  0  0
 17 18  1  0  0  0  0
 17 29  1  1  0  0  0
 18 19  1  0  0  0  0
 19 20  2  0  0  0  0
 21 19  1  0  0  0  0
 22 25  2  0  0  0  0
 23 28  1  0  0  0  0
 24 27  1  0  0  0  0
 25 24  1  0  0  0  0
 26 23  1  0  0  0  0
 26 25  1  0  0  0  0
 27 21  1  1  0  0  0
 28 27  1  0  0  0  0
 29 30  1  0  0  0  0
 30 31  1  0  0  0  0
M  END
>  <MODEL>
4

>  <REMARK>
 VINA RESULT:      -6.8      3.684      9.485
  Name = 
  12 active torsions:
  status: ('A' for Active; 'I' for Inactive)
    1  A    between atoms: C_2  and  C_14
    2  A    between atoms: C_2  and  C_24
    3  A    between atoms: O_3  and  C_6
    4  A    between atoms: C_4  and  C_9
    5  A    between atoms: S_5  and  C_23
    6  A    between atoms: S_5  and  C_30
    7  A    between atoms: C_6  and  C_30
    8  A    between atoms: C_7  and  C_23
    9  A    between atoms: C_7  and  C_28
   10  A    between atoms: C_14  and  C_20
   11  A    between atoms: C_19  and  C_20
   12  A    between atoms: C_19  and  C_30
                            x       y       z     vdW  Elec       q    Type
                         _______ _______ _______ _____ _____    ______ ____

>  <TORSDO>
F 12

$$$$
=
 OpenBabel11072412383D

 31 32  0  0  1  0  0  0  0  0999 V2000
  161.1720  207.5920  152.1880 C   0  0  0  0  0  0  0  0  0  0  0  0
  161.3600  207.1770  153.3200 O   0  0  0  0  0  0  0  0  0  0  0  0
  160.8020  209.0310  151.9740 C   0  0  0  0  0  2  0  0  0  0  0  0
  161.8390  209.9710  152.5820 C   0  0  0  0  0  2  0  0  0  0  0  0
  161.3340  210.6130  153.8370 C   0  0  0  0  0  0  0  0  0  0  0  0
  162.0420  210.5510  154.8790 O   0  0  0  0  0  0  0  0  0  0  0  0
  157.6140  212.7050  153.8160 C   0  0  0  0  0  0  0  0  0  0  0  0
  156.6200  210.9820  155.4040 C   0  0  0  0  0  1  0  0  0  0  0  0
  157.7450  211.5350  154.5940 C   0  0  0  0  0  0  0  0  0  0  0  0
  159.8760  212.5040  153.1010 C   0  0  0  0  0  3  0  0  0  0  0  0
  158.9670  210.8620  154.6060 C   0  0  0  0  0  3  0  0  0  0  0  0
  160.0480  211.3370  153.8560 C   0  0  0  0  0  0  0  0  0  0  0  0
  158.6820  213.1510  153.0990 N   0  0  0  0  0  0  0  0  0  0  0  0
  156.3360  213.4890  153.7360 C   0  0  2  0  0  3  0  0  0  0  0  0
  156.1710  214.1400  152.3750 C   0  0  0  0  0  1  0  0  0  0  0  0
  156.2800  214.4530  154.7440 O   0  0  0  0  0  1  0  0  0  0  0  0
  161.2500  206.6300  151.0370 C   0  0  1  0  0  3  0  0  0  0  0  0
  162.2050  207.3310  149.6580 S   0  0  0  0  0  0  0  0  0  0  0  0
  161.3010  206.3960  148.4230 C   0  0  0  0  0  0  0  0  0  0  0  0
  160.0810  206.4530  148.3930 O   0  0  0  0  0  0  0  0  0  0  0  0
  162.0390  205.5690  147.4180 C   0  0  0  0  0  2  0  0  0  0  0  0
  160.8130  201.0040  148.6190 O   0  0  0  0  0  0  0  0  0  0  0  0
  160.7690  202.6200  145.3380 C   0  0  0  0  0  2  0  0  0  0  0  0
  161.5650  203.2210  148.1520 C   0  0  0  0  0  2  0  0  0  0  0  0
  161.0120  201.8880  147.7460 C   0  0  0  0  0  0  0  0  0  0  0  0
  160.8040  201.5800  146.3630 N   0  0  0  0  0  2  0  0  0  0  0  0
  161.2780  204.2910  147.0970 C   0  0  2  0  0  3  0  0  0  0  0  0
  161.6760  203.7860  145.7170 C   0  0  0  0  0  2  0  0  0  0  0  0
  161.8370  205.2920  151.4550 C   0  0  0  0  0  2  0  0  0  0  0  0
  160.8250  204.4570  151.9310 O   0  0  0  0  0  0  0  0  0  0  0  0
  161.3010  203.1660  151.7030 C   0  0  0  0  0  1  0  0  0  0  0  0
  1  2  2  0  0  0  0
  3  1  1  0  0  0  0
  3  4  1  0  0  0  0
  4  5  1  0  0  0  0
  5 12  1  0  0  0  0
  5  6  2  0  0  0  0
  7  9  1  0  0  0  0
  9 11  2  0  0  0  0
  9  8  1  0  0  0  0
 10 12  2  0  0  0  0
 12 11  1  0  0  0  0
 13 10  1  0  0  0  0
 13  7  2  0  0  0  0
 14 15  1  6  0  0  0
 14  7  1  0  0  0  0
 14 16  1  0  0  0  0
 17 29  1  1  0  0  0
 17  1  1  0  0  0  0
 18 17  1  0  0  0  0
 19 18  1  0  0  0  0
 20 19  2  0  0  0  0
 21 19  1  0  0  0  0
 23 28  1  0  0  0  0
 23 26  1  0  0  0  0
 25 24  1  0  0  0  0
 25 22  2  0  0  0  0
 26 25  1  0  0  0  0
 27 21  1  1  0  0  0
 27 24  1  0  0  0  0
 28 27  1  0  0  0  0
 29 30  1  0  0  0  0
 31 30  1  0  0  0  0
M  END
>  <MODEL>
5

>  <REMARK>
 VINA RESULT:      -6.7      2.545      4.337
  Name = 
  12 active torsions:
  status: ('A' for Active; 'I' for Inactive)
    1  A    between atoms: C_2  and  C_14
    2  A    between atoms: C_2  and  C_24
    3  A    between atoms: O_3  and  C_6
    4  A    between atoms: C_4  and  C_9
    5  A    between atoms: S_5  and  C_23
    6  A    between atoms: S_5  and  C_30
    7  A    between atoms: C_6  and  C_30
    8  A    between atoms: C_7  and  C_23
    9  A    between atoms: C_7  and  C_28
   10  A    between atoms: C_14  and  C_20
   11  A    between atoms: C_19  and  C_20
   12  A    between atoms: C_19  and  C_30
                            x       y       z     vdW  Elec       q    Type
                         _______ _______ _______ _____ _____    ______ ____

>  <TORSDO>
F 12

$$$$
=
 OpenBabel11072412383D

 31 32  0  0  1  0  0  0  0  0999 V2000
  160.5410  207.9780  155.1210 C   0  0  0  0  0  0  0  0  0  0  0  0
  159.8950  207.1840  155.7860 O   0  0  0  0  0  0  0  0  0  0  0  0
  161.2290  207.5150  153.8690 C   0  0  0  0  0  2  0  0  0  0  0  0
  160.5360  208.0480  152.6190 C   0  0  0  0  0  2  0  0  0  0  0  0
  161.5090  208.2860  151.5070 C   0  0  0  0  0  0  0  0  0  0  0  0
  162.3960  209.1690  151.6520 O   0  0  0  0  0  0  0  0  0  0  0  0
  161.4380  205.9830  147.9140 C   0  0  0  0  0  0  0  0  0  0  0  0
  160.9380  203.8780  149.2560 C   0  0  0  0  0  1  0  0  0  0  0  0
  161.1990  205.3440  149.1490 C   0  0  0  0  0  0  0  0  0  0  0  0
  161.6890  208.0740  149.0230 C   0  0  0  0  0  3  0  0  0  0  0  0
  161.2120  206.1040  150.3190 C   0  0  0  0  0  3  0  0  0  0  0  0
  161.4610  207.4800  150.2700 C   0  0  0  0  0  0  0  0  0  0  0  0
  161.6720  207.3230  147.8910 N   0  0  0  0  0  0  0  0  0  0  0  0
  161.4520  205.2450  146.6060 C   0  0  2  0  0  3  0  0  0  0  0  0
  162.8610  204.8400  146.2130 C   0  0  0  0  0  1  0  0  0  0  0  0
  160.8680  206.0120  145.5960 O   0  0  0  0  0  1  0  0  0  0  0  0
  160.6860  209.3900  155.6100 C   0  0  1  0  0  3  0  0  0  0  0  0
  159.0960  210.2720  155.5570 S   0  0  0  0  0  0  0  0  0  0  0  0
  159.8120  211.7260  154.7890 C   0  0  0  0  0  0  0  0  0  0  0  0
  160.0290  212.7220  155.4620 O   0  0  0  0  0  0  0  0  0  0  0  0
  160.1670  211.7100  153.3360 C   0  0  0  0  0  2  0  0  0  0  0  0
  156.2860  214.3610  152.0340 O   0  0  0  0  0  0  0  0  0  0  0  0
  159.6130  214.2360  150.5170 C   0  0  0  0  0  2  0  0  0  0  0  0
  158.0640  212.9150  152.7010 C   0  0  0  0  0  2  0  0  0  0  0  0
  157.4620  213.9670  151.8200 C   0  0  0  0  0  0  0  0  0  0  0  0
  158.1770  214.4530  150.6780 N   0  0  0  0  0  2  0  0  0  0  0  0
  159.5920  212.9220  152.6190 C   0  0  2  0  0  3  0  0  0  0  0  0
  160.0390  212.9230  151.1640 C   0  0  0  0  0  2  0  0  0  0  0  0
  161.2720  209.4470  157.0120 C   0  0  0  0  0  2  0  0  0  0  0  0
  162.6650  209.4110  156.9460 O   0  0  0  0  0  0  0  0  0  0  0  0
  163.0290  210.6940  156.5380 C   0  0  0  0  0  1  0  0  0  0  0  0
  1 17  1  0  0  0  0
  1  2  2  0  0  0  0
  3  1  1  0  0  0  0
  4  3  1  0  0  0  0
  5  6  2  0  0  0  0
  5  4  1  0  0  0  0
  7  9  1  0  0  0  0
  9  8  1  0  0  0  0
  9 11  2  0  0  0  0
 10 12  2  0  0  0  0
 12 11  1  0  0  0  0
 12  5  1  0  0  0  0
 13  7  2  0  0  0  0
 13 10  1  0  0  0  0
 14 15  1  6  0  0  0
 14  7  1  0  0  0  0
 16 14  1  0  0  0  0
 17 29  1  1  0  0  0
 18 17  1  0  0  0  0
 19 20  2  0  0  0  0
 19 18  1  0  0  0  0
 21 19  1  0  0  0  0
 23 26  1  0  0  0  0
 23 28  1  0  0  0  0
 25 22  2  0  0  0  0
 25 24  1  0  0  0  0
 26 25  1  0  0  0  0
 27 24  1  0  0  0  0
 27 21  1  1  0  0  0
 28 27  1  0  0  0  0
 30 29  1  0  0  0  0
 31 30  1  0  0  0  0
M  END
>  <MODEL>
6

>  <REMARK>
 VINA RESULT:      -6.6      3.688      9.898
  Name = 
  12 active torsions:
  status: ('A' for Active; 'I' for Inactive)
    1  A    between atoms: C_2  and  C_14
    2  A    between atoms: C_2  and  C_24
    3  A    between atoms: O_3  and  C_6
    4  A    between atoms: C_4  and  C_9
    5  A    between atoms: S_5  and  C_23
    6  A    between atoms: S_5  and  C_30
    7  A    between atoms: C_6  and  C_30
    8  A    between atoms: C_7  and  C_23
    9  A    between atoms: C_7  and  C_28
   10  A    between atoms: C_14  and  C_20
   11  A    between atoms: C_19  and  C_20
   12  A    between atoms: C_19  and  C_30
                            x       y       z     vdW  Elec       q    Type
                         _______ _______ _______ _____ _____    ______ ____

>  <TORSDO>
F 12

$$$$
=
 OpenBabel11072412383D

 31 32  0  0  1  0  0  0  0  0999 V2000
  160.8600  210.3610  152.3330 C   0  0  0  0  0  0  0  0  0  0  0  0
  161.5280  210.7760  151.4000 O   0  0  0  0  0  0  0  0  0  0  0  0
  160.5540  208.8950  152.4360 C   0  0  0  0  0  2  0  0  0  0  0  0
  161.7670  208.0430  152.0720 C   0  0  0  0  0  2  0  0  0  0  0  0
  161.3680  206.6590  151.6650 C   0  0  0  0  0  0  0  0  0  0  0  0
  161.0620  205.8260  152.5610 O   0  0  0  0  0  0  0  0  0  0  0  0
  161.2270  205.5940  147.5350 C   0  0  0  0  0  0  0  0  0  0  0  0
  161.1500  203.1280  148.1580 C   0  0  0  0  0  1  0  0  0  0  0  0
  161.2030  204.5770  148.5120 C   0  0  0  0  0  0  0  0  0  0  0  0
  161.3140  207.2540  149.2390 C   0  0  0  0  0  3  0  0  0  0  0  0
  161.2380  204.9320  149.8610 C   0  0  0  0  0  3  0  0  0  0  0  0
  161.2970  206.2770  150.2410 C   0  0  0  0  0  0  0  0  0  0  0  0
  161.2790  206.8960  147.9290 N   0  0  0  0  0  0  0  0  0  0  0  0
  161.2010  205.3070  146.0610 C   0  0  2  0  0  3  0  0  0  0  0  0
  162.5910  205.3840  145.4580 C   0  0  0  0  0  1  0  0  0  0  0  0
  160.3360  206.1800  145.3990 O   0  0  0  0  0  1  0  0  0  0  0  0
  160.3020  211.3430  153.3230 C   0  0  1  0  0  3  0  0  0  0  0  0
  158.4880  211.4270  153.2160 S   0  0  0  0  0  0  0  0  0  0  0  0
  158.4770  213.2160  153.0850 C   0  0  0  0  0  0  0  0  0  0  0  0
  159.0490  213.8890  153.9290 O   0  0  0  0  0  0  0  0  0  0  0  0
  157.7930  213.8800  151.9320 C   0  0  0  0  0  2  0  0  0  0  0  0
  161.4770  213.1690  148.8150 O   0  0  0  0  0  0  0  0  0  0  0  0
  157.8770  213.2110  148.1660 C   0  0  0  0  0  2  0  0  0  0  0  0
  159.7800  213.6580  150.4220 C   0  0  0  0  0  2  0  0  0  0  0  0
  160.2480  213.3280  149.0370 C   0  0  0  0  0  0  0  0  0  0  0  0
  159.3190  213.2900  147.9470 N   0  0  0  0  0  2  0  0  0  0  0  0
  158.2980  213.3290  150.6060 C   0  0  2  0  0  3  0  0  0  0  0  0
  157.4840  213.9150  149.4600 C   0  0  0  0  0  2  0  0  0  0  0  0
  160.7290  211.0180  154.7460 C   0  0  0  0  0  2  0  0  0  0  0  0
  162.1100  210.8290  154.7950 O   0  0  0  0  0  0  0  0  0  0  0  0
  162.3330  210.1980  156.0190 C   0  0  0  0  0  1  0  0  0  0  0  0
  1  3  1  0  0  0  0
  1 17  1  0  0  0  0
  2  1  2  0  0  0  0
  4  3  1  0  0  0  0
  5  4  1  0  0  0  0
  5  6  2  0  0  0  0
  7 13  2  0  0  0  0
  7  9  1  0  0  0  0
  8  9  1  0  0  0  0
  9 11  2  0  0  0  0
 10 12  2  0  0  0  0
 11 12  1  0  0  0  0
 12  5  1  0  0  0  0
 13 10  1  0  0  0  0
 14 15  1  6  0  0  0
 14  7  1  0  0  0  0
 16 14  1  0  0  0  0
 17 29  1  1  0  0  0
 18 17  1  0  0  0  0
 19 18  1  0  0  0  0
 19 20  2  0  0  0  0
 21 19  1  0  0  0  0
 22 25  2  0  0  0  0
 23 28  1  0  0  0  0
 24 27  1  0  0  0  0
 25 24  1  0  0  0  0
 26 23  1  0  0  0  0
 26 25  1  0  0  0  0
 27 21  1  1  0  0  0
 28 27  1  0  0  0  0
 29 30  1  0  0  0  0
 30 31  1  0  0  0  0
M  END
>  <MODEL>
7

>  <REMARK>
 VINA RESULT:      -6.6      3.822      9.496
  Name = 
  12 active torsions:
  status: ('A' for Active; 'I' for Inactive)
    1  A    between atoms: C_2  and  C_14
    2  A    between atoms: C_2  and  C_24
    3  A    between atoms: O_3  and  C_6
    4  A    between atoms: C_4  and  C_9
    5  A    between atoms: S_5  and  C_23
    6  A    between atoms: S_5  and  C_30
    7  A    between atoms: C_6  and  C_30
    8  A    between atoms: C_7  and  C_23
    9  A    between atoms: C_7  and  C_28
   10  A    between atoms: C_14  and  C_20
   11  A    between atoms: C_19  and  C_20
   12  A    between atoms: C_19  and  C_30
                            x       y       z     vdW  Elec       q    Type
                         _______ _______ _______ _____ _____    ______ ____

>  <TORSDO>
F 12

$$$$
=
 OpenBabel11072412383D

 31 32  0  0  1  0  0  0  0  0999 V2000
  161.1230  207.2980  153.2310 C   0  0  0  0  0  0  0  0  0  0  0  0
  160.6820  207.3460  154.3670 O   0  0  0  0  0  0  0  0  0  0  0  0
  161.5850  205.9860  152.6650 C   0  0  0  0  0  2  0  0  0  0  0  0
  160.4100  205.1390  152.1870 C   0  0  0  0  0  2  0  0  0  0  0  0
  160.8700  203.8560  151.5670 C   0  0  0  0  0  0  0  0  0  0  0  0
  161.0510  202.8520  152.3070 O   0  0  0  0  0  0  0  0  0  0  0  0
  161.5390  203.5810  147.3600 C   0  0  0  0  0  0  0  0  0  0  0  0
  161.1340  201.0690  147.4460 C   0  0  0  0  0  1  0  0  0  0  0  0
  161.2240  202.4130  148.0880 C   0  0  0  0  0  0  0  0  0  0  0  0
  161.3890  204.8820  149.3480 C   0  0  0  0  0  3  0  0  0  0  0  0
  160.9960  202.5120  149.4610 C   0  0  0  0  0  3  0  0  0  0  0  0
  161.0780  203.7490  150.1090 C   0  0  0  0  0  0  0  0  0  0  0  0
  161.6080  204.7740  148.0120 N   0  0  0  0  0  0  0  0  0  0  0  0
  161.8090  203.5700  145.8830 C   0  0  2  0  0  3  0  0  0  0  0  0
  162.7510  204.6910  145.4840 C   0  0  0  0  0  1  0  0  0  0  0  0
  160.6190  203.6560  145.1590 O   0  0  0  0  0  1  0  0  0  0  0  0
  161.2550  208.5720  152.4460 C   0  0  1  0  0  3  0  0  0  0  0  0
  161.7850  209.9490  153.5100 S   0  0  0  0  0  0  0  0  0  0  0  0
  160.2380  210.8350  153.3050 C   0  0  0  0  0  0  0  0  0  0  0  0
  159.4960  210.5520  152.3780 O   0  0  0  0  0  0  0  0  0  0  0  0
  159.8480  211.8980  154.2820 C   0  0  0  0  0  2  0  0  0  0  0  0
  155.3430  213.5830  153.4700 O   0  0  0  0  0  0  0  0  0  0  0  0
  156.6480  211.7840  156.3760 C   0  0  0  0  0  2  0  0  0  0  0  0
  157.6150  212.9250  153.7920 C   0  0  0  0  0  2  0  0  0  0  0  0
  156.1870  213.0430  154.2310 C   0  0  0  0  0  0  0  0  0  0  0  0
  155.7980  212.6370  155.5490 N   0  0  0  0  0  2  0  0  0  0  0  0
  158.3570  211.8440  154.5810 C   0  0  2  0  0  3  0  0  0  0  0  0
  158.1220  212.0300  156.0740 C   0  0  0  0  0  2  0  0  0  0  0  0
  162.2100  208.4180  151.2720 C   0  0  0  0  0  2  0  0  0  0  0  0
  162.1160  209.5300  150.4350 O   0  0  0  0  0  0  0  0  0  0  0  0
  161.8710  208.9960  149.1700 C   0  0  0  0  0  1  0  0  0  0  0  0
  1  2  2  0  0  0  0
  3  1  1  0  0  0  0
  4  3  1  0  0  0  0
  5  4  1  0  0  0  0
  5  6  2  0  0  0  0
  7 13  2  0  0  0  0
  7  9  1  0  0  0  0
  8  9  1  0  0  0  0
  9 11  2  0  0  0  0
 10 12  2  0  0  0  0
 11 12  1  0  0  0  0
 12  5  1  0  0  0  0
 13 10  1  0  0  0  0
 14 15  1  1  0  0  0
 14  7  1  0  0  0  0
 16 14  1  0  0  0  0
 17 29  1  6  0  0  0
 17  1  1  0  0  0  0
 17 18  1  0  0  0  0
 19 18  1  0  0  0  0
 19 21  1  0  0  0  0
 20 19  2  0  0  0  0
 22 25  2  0  0  0  0
 24 25  1  0  0  0  0
 24 27  1  0  0  0  0
 25 26  1  0  0  0  0
 26 23  1  0  0  0  0
 27 21  1  1  0  0  0
 27 28  1  0  0  0  0
 28 23  1  0  0  0  0
 30 29  1  0  0  0  0
 31 30  1  0  0  0  0
M  END
>  <MODEL>
8

>  <REMARK>
 VINA RESULT:      -6.6      3.043      9.901
  Name = 
  12 active torsions:
  status: ('A' for Active; 'I' for Inactive)
    1  A    between atoms: C_2  and  C_14
    2  A    between atoms: C_2  and  C_24
    3  A    between atoms: O_3  and  C_6
    4  A    between atoms: C_4  and  C_9
    5  A    between atoms: S_5  and  C_23
    6  A    between atoms: S_5  and  C_30
    7  A    between atoms: C_6  and  C_30
    8  A    between atoms: C_7  and  C_23
    9  A    between atoms: C_7  and  C_28
   10  A    between atoms: C_14  and  C_20
   11  A    between atoms: C_19  and  C_20
   12  A    between atoms: C_19  and  C_30
                            x       y       z     vdW  Elec       q    Type
                         _______ _______ _______ _____ _____    ______ ____

>  <TORSDO>
F 12

$$$$
=
 OpenBabel11072412383D

 31 32  0  0  1  0  0  0  0  0999 V2000
  161.1930  207.4500  152.5220 C   0  0  0  0  0  0  0  0  0  0  0  0
  161.3790  206.9890  153.6360 O   0  0  0  0  0  0  0  0  0  0  0  0
  160.8450  208.9020  152.3660 C   0  0  0  0  0  2  0  0  0  0  0  0
  161.9610  209.8040  152.8850 C   0  0  0  0  0  2  0  0  0  0  0  0
  161.5890  210.4530  154.1820 C   0  0  0  0  0  0  0  0  0  0  0  0
  162.4080  210.4120  155.1400 O   0  0  0  0  0  0  0  0  0  0  0  0
  157.8920  212.5220  154.6950 C   0  0  0  0  0  0  0  0  0  0  0  0
  158.2640  213.7600  152.5020 C   0  0  0  0  0  1  0  0  0  0  0  0
  158.6720  212.7750  153.5470 C   0  0  0  0  0  0  0  0  0  0  0  0
  159.4960  210.9370  155.4580 C   0  0  0  0  0  3  0  0  0  0  0  0
  159.8740  212.0870  153.3800 C   0  0  0  0  0  3  0  0  0  0  0  0
  160.3030  211.1600  154.3360 C   0  0  0  0  0  0  0  0  0  0  0  0
  158.3260  211.6120  155.6090 N   0  0  0  0  0  0  0  0  0  0  0  0
  156.5900  213.2210  154.9630 C   0  0  2  0  0  3  0  0  0  0  0  0
  156.3360  213.3660  156.4520 C   0  0  0  0  0  1  0  0  0  0  0  0
  155.5290  212.5480  154.3540 O   0  0  0  0  0  1  0  0  0  0  0  0
  161.2510  206.5330  151.3340 C   0  0  1  0  0  3  0  0  0  0  0  0
  162.1760  207.2900  149.9630 S   0  0  0  0  0  0  0  0  0  0  0  0
  161.3000  206.3430  148.7160 C   0  0  0  0  0  0  0  0  0  0  0  0
  160.0780  206.3370  148.7070 O   0  0  0  0  0  0  0  0  0  0  0  0
  162.0620  205.5860  147.6750 C   0  0  0  0  0  2  0  0  0  0  0  0
  160.8290  200.9370  148.4870 O   0  0  0  0  0  0  0  0  0  0  0  0
  160.8130  202.8170  145.3490 C   0  0  0  0  0  2  0  0  0  0  0  0
  161.5830  203.1850  148.2100 C   0  0  0  0  0  2  0  0  0  0  0  0
  161.0350  201.8900  147.6910 C   0  0  0  0  0  0  0  0  0  0  0  0
  160.8390  201.6960  146.2860 N   0  0  0  0  0  2  0  0  0  0  0  0
  161.3050  204.3380  147.2440 C   0  0  2  0  0  3  0  0  0  0  0  0
  161.7150  203.9480  145.8300 C   0  0  0  0  0  2  0  0  0  0  0  0
  161.8500  205.1820  151.6890 C   0  0  0  0  0  2  0  0  0  0  0  0
  160.8430  204.3080  152.0990 O   0  0  0  0  0  0  0  0  0  0  0  0
  161.2990  203.0460  151.7190 C   0  0  0  0  0  1  0  0  0  0  0  0
  1  2  2  0  0  0  0
  3  1  1  0  0  0  0
  3  4  1  0  0  0  0
  4  5  1  0  0  0  0
  5 12  1  0  0  0  0
  5  6  2  0  0  0  0
  7 14  1  0  0  0  0
  7 13  1  0  0  0  0
  8  9  1  0  0  0  0
  9  7  2  0  0  0  0
 10 13  2  0  0  0  0
 11  9  1  0  0  0  0
 11 12  2  0  0  0  0
 12 10  1  0  0  0  0
 14 15  1  1  0  0  0
 16 14  1  0  0  0  0
 17 29  1  1  0  0  0
 17  1  1  0  0  0  0
 18 17  1  0  0  0  0
 19 18  1  0  0  0  0
 20 19  2  0  0  0  0
 21 19  1  0  0  0  0
 23 28  1  0  0  0  0
 23 26  1  0  0  0  0
 25 24  1  0  0  0  0
 25 22  2  0  0  0  0
 26 25  1  0  0  0  0
 27 21  1  1  0  0  0
 27 24  1  0  0  0  0
 28 27  1  0  0  0  0
 29 30  1  0  0  0  0
 31 30  1  0  0  0  0
M  END
>  <MODEL>
9

>  <REMARK>
 VINA RESULT:      -6.5      2.482      4.486
  Name = 
  12 active torsions:
  status: ('A' for Active; 'I' for Inactive)
    1  A    between atoms: C_2  and  C_14
    2  A    between atoms: C_2  and  C_24
    3  A    between atoms: O_3  and  C_6
    4  A    between atoms: C_4  and  C_9
    5  A    between atoms: S_5  and  C_23
    6  A    between atoms: S_5  and  C_30
    7  A    between atoms: C_6  and  C_30
    8  A    between atoms: C_7  and  C_23
    9  A    between atoms: C_7  and  C_28
   10  A    between atoms: C_14  and  C_20
   11  A    between atoms: C_19  and  C_20
   12  A    between atoms: C_19  and  C_30
                            x       y       z     vdW  Elec       q    Type
                         _______ _______ _______ _____ _____    ______ ____

>  <TORSDO>
F 12

$$$$
