=
 OpenBabel11072411333D

 52 58  0  0  1  0  0  0  0  0999 V2000
  160.4190  207.8550  153.7580 C   0  0  0  0  0  2  0  0  0  0  0  0
  162.7530  207.5020  150.7130 N   0  0  0  0  0  2  0  0  0  0  0  0
  161.3620  210.1630  154.4080 C   0  0  0  0  0  2  0  0  0  0  0  0
  159.8030  210.2690  152.3220 C   0  0  1  0  0  3  0  0  0  0  0  0
  161.0310  208.7310  154.8540 C   0  0  0  0  0  2  0  0  0  0  0  0
  160.7960  209.2620  151.7610 C   0  0  0  0  0  0  0  0  0  0  0  0
  162.4410  208.7170  150.0410 C   0  0  0  0  0  0  0  0  0  0  0  0
  160.2050  210.8780  153.6920 C   0  0  1  0  0  3  0  0  0  0  0  0
  161.0450  208.1090  152.4190 C   0  0  0  0  0  0  0  0  0  0  0  0
  163.0600  209.0370  148.9920 O   0  0  0  0  0  0  0  0  0  0  0  0
  161.9590  207.0450  151.8540 C   0  0  1  0  0  3  0  0  0  0  0  0
  161.4630  209.5570  150.5620 O   0  0  0  0  0  0  0  0  0  0  0  0
  160.9940  203.5000  152.0010 C   0  0  0  0  0  2  0  0  0  0  0  0
  161.4280  204.7650  152.5670 N   0  0  0  0  0  2  0  0  0  0  0  0
  161.2010  205.7590  151.5310 C   0  0  2  0  0  3  0  0  0  0  0  0
  161.6640  205.0560  149.9090 S   0  0  0  0  0  0  0  0  0  0  0  0
  161.5860  203.3870  150.6150 C   0  0  2  0  0  3  0  0  0  0  0  0
  160.8610  200.8910  150.0330 O   0  0  0  0  0  0  0  0  0  0  0  0
  160.6170  202.3010  149.5790 S   0  0  0  0  0  0  0  0  0  0  0  0
  159.1550  202.6190  149.7510 O   0  0  0  0  0  0  0  0  0  0  0  0
  161.0750  202.4600  147.9040 N   0  0  0  0  0  0  0  0  0  0  0  0
  160.8510  200.4120  146.4530 C   0  0  0  0  0  2  0  0  0  0  0  0
  158.8620  201.4910  147.4480 F   0  0  0  0  0  0  0  0  0  0  0  0
  159.4260  201.4320  144.7520 F   0  0  0  0  0  0  0  0  0  0  0  0
  160.4990  201.6220  145.6040 C   0  0  0  0  0  0  0  0  0  0  0  0
  160.1920  201.6290  147.0860 C   0  0  1  0  0  0  0  0  0  0  0  0
  161.5930  202.3520  145.1730 F   0  0  0  0  0  0  0  0  0  0  0  0
  160.8710  203.8470  147.5080 C   0  0  0  0  0  2  0  0  0  0  0  0
  162.1410  204.3930  146.8840 C   0  0  0  0  0  3  0  0  0  0  0  0
  162.0000  205.8900  146.7110 C   0  0  0  0  0  2  0  0  0  0  0  0
  161.8170  204.9720  145.5220 C   0  0  0  0  0  2  0  0  0  0  0  0
  158.4810  212.2050  151.7920 O   0  0  0  0  0  1  0  0  0  0  0  0
  159.4420  211.3350  151.2700 C   0  0  1  0  0  3  0  0  0  0  0  0
  160.8650  212.3160  150.6940 S   0  0  0  0  0  0  0  0  0  0  0  0
  161.1060  212.4570  147.9770 C   0  0  0  0  0  2  0  0  0  0  0  0
  159.2970  214.1450  146.6690 O   0  0  0  0  0  0  0  0  0  0  0  0
  159.2030  212.8010  146.2880 C   0  0  0  0  0  2  0  0  0  0  0  0
  159.4940  214.0210  149.0700 C   0  0  0  0  0  2  0  0  0  0  0  0
  160.0740  212.6110  149.0880 C   0  0  2  0  0  3  0  0  0  0  0  0
  160.4850  212.0400  146.6410 C   0  0  0  0  0  2  0  0  0  0  0  0
  158.5730  214.2290  147.8670 C   0  0  0  0  0  2  0  0  0  0  0  0
  158.9760  210.9770  154.5960 C   0  0  0  0  0  2  0  0  0  0  0  0
  158.7110  212.4100  155.0370 C   0  0  1  0  0  3  0  0  0  0  0  0
  157.9690  212.4030  156.3840 C   0  0  1  0  0  3  0  0  0  0  0  0
  160.7560  214.3320  157.2420 O   0  0  0  0  0  0  0  0  0  0  0  0
  159.8940  213.6320  156.6530 C   0  0  0  0  0  0  0  0  0  0  0  0
  160.0280  213.1540  155.2670 C   0  0  0  0  0  2  0  0  0  0  0  0
  158.7260  213.2240  157.2540 O   0  0  0  0  0  0  0  0  0  0  0  0
  156.2900  213.7760  155.1030 N   0  0  0  0  0  2  0  0  0  0  0  0
  155.7060  212.7030  157.0960 O   0  0  0  0  0  0  0  0  0  0  0  0
  156.5860  212.9410  156.2240 C   0  0  0  0  0  0  0  0  0  0  0  0
  154.9890  214.4010  154.9320 C   0  0  0  0  0  1  0  0  0  0  0  0
  1  5  1  0  0  0  0
  3  5  1  0  0  0  0
  4 33  1  6  0  0  0
  4  8  1  0  0  0  0
  6  4  1  0  0  0  0
  6  9  2  0  0  0  0
  7 12  1  0  0  0  0
  7  2  1  0  0  0  0
  8  3  1  0  0  0  0
  8 42  1  1  0  0  0
  9  1  1  0  0  0  0
 10  7  2  0  0  0  0
 11  2  1  6  0  0  0
 11  9  1  0  0  0  0
 12  6  1  0  0  0  0
 13 14  1  0  0  0  0
 15 16  1  6  0  0  0
 15 11  1  0  0  0  0
 15 14  1  0  0  0  0
 16 17  1  0  0  0  0
 17 19  1  6  0  0  0
 17 13  1  0  0  0  0
 19 20  2  0  0  0  0
 19 18  2  0  0  0  0
 21 19  1  0  0  0  0
 22 26  1  0  0  0  0
 24 25  1  0  0  0  0
 25 22  1  0  0  0  0
 25 26  1  0  0  0  0
 26 23  1  1  0  0  0
 26 21  1  0  0  0  0
 27 25  1  0  0  0  0
 28 21  1  0  0  0  0
 29 28  1  0  0  0  0
 30 29  1  0  0  0  0
 31 30  1  0  0  0  0
 31 29  1  0  0  0  0
 33 32  1  1  0  0  0
 34 33  1  0  0  0  0
 35 39  1  0  0  0  0
 36 41  1  0  0  0  0
 37 40  1  0  0  0  0
 37 36  1  0  0  0  0
 38 39  1  0  0  0  0
 39 34  1  1  0  0  0
 40 35  1  0  0  0  0
 41 38  1  0  0  0  0
 43 42  1  1  0  0  0
 43 47  1  0  0  0  0
 43 44  1  0  0  0  0
 44 51  1  6  0  0  0
 44 48  1  0  0  0  0
 46 45  2  0  0  0  0
 46 48  1  0  0  0  0
 47 46  1  0  0  0  0
 49 51  1  0  0  0  0
 51 50  2  0  0  0  0
 52 49  1  0  0  0  0
M  END
>  <MODEL>
1

>  <REMARK>
 VINA RESULT:      -4.0      0.000      0.000
  Name = 
  12 active torsions:
  status: ('A' for Active; 'I' for Inactive)
    1  A    between atoms: C_6  and  C_36
    2  A    between atoms: C_7  and  C_22
    3  A    between atoms: C_9  and  C_15
    4  A    between atoms: S_20  and  N_27
    5  A    between atoms: S_20  and  C_51
    6  A    between atoms: C_22  and  C_37
    7  A    between atoms: N_27  and  C_34
    8  A    between atoms: N_27  and  C_36
    9  A    between atoms: C_28  and  C_45
   10  A    between atoms: C_35  and  C_49
   11  A    between atoms: C_42  and  S_44
   12  A    between atoms: S_44  and  C_45
                            x       y       z     vdW  Elec       q    Type
                         _______ _______ _______ _____ _____    ______ ____

>  <TORSDO>
F 12

$$$$
=
 OpenBabel11072411333D

 52 58  0  0  1  0  0  0  0  0999 V2000
  160.6620  207.8230  154.2200 C   0  0  0  0  0  2  0  0  0  0  0  0
  162.5770  208.4570  150.9380 N   0  0  0  0  0  2  0  0  0  0  0  0
  161.2220  210.1480  155.1780 C   0  0  0  0  0  2  0  0  0  0  0  0
  159.4000  210.2440  153.3170 C   0  0  1  0  0  3  0  0  0  0  0  0
  161.2390  208.6270  155.3880 C   0  0  0  0  0  2  0  0  0  0  0  0
  160.4820  209.5730  152.4830 C   0  0  0  0  0  0  0  0  0  0  0  0
  161.9480  209.6690  150.5330 C   0  0  0  0  0  0  0  0  0  0  0  0
  159.8620  210.7030  154.7260 C   0  0  1  0  0  3  0  0  0  0  0  0
  161.0360  208.4110  152.8920 C   0  0  0  0  0  0  0  0  0  0  0  0
  162.3430  210.2730  149.5020 O   0  0  0  0  0  0  0  0  0  0  0  0
  162.0520  207.6690  152.0530 C   0  0  1  0  0  3  0  0  0  0  0  0
  160.9070  210.1880  151.2960 O   0  0  0  0  0  0  0  0  0  0  0  0
  162.0280  204.0840  151.2350 C   0  0  0  0  0  2  0  0  0  0  0  0
  162.3960  205.2460  152.0250 N   0  0  0  0  0  2  0  0  0  0  0  0
  161.5190  206.3170  151.5810 C   0  0  2  0  0  3  0  0  0  0  0  0
  161.3280  206.2280  149.7650 S   0  0  0  0  0  0  0  0  0  0  0  0
  161.9320  204.5190  149.7900 C   0  0  2  0  0  3  0  0  0  0  0  0
  161.3040  202.0320  149.0740 O   0  0  0  0  0  0  0  0  0  0  0  0
  160.8500  203.4470  148.8570 S   0  0  0  0  0  0  0  0  0  0  0  0
  159.4420  203.5880  149.3710 O   0  0  0  0  0  0  0  0  0  0  0  0
  160.9120  203.8230  147.1550 N   0  0  0  0  0  0  0  0  0  0  0  0
  161.9260  206.1150  146.8970 C   0  0  0  0  0  2  0  0  0  0  0  0
  163.3450  204.1340  147.3170 F   0  0  0  0  0  0  0  0  0  0  0  0
  163.3300  205.5820  144.9720 F   0  0  0  0  0  0  0  0  0  0  0  0
  162.1050  205.3780  145.5810 C   0  0  0  0  0  0  0  0  0  0  0  0
  162.1170  204.6050  146.8810 C   0  0  1  0  0  0  0  0  0  0  0  0
  160.9600  205.3120  144.8060 F   0  0  0  0  0  0  0  0  0  0  0  0
  161.0200  202.5700  146.4190 C   0  0  0  0  0  2  0  0  0  0  0  0
  159.6590  202.1750  145.8790 C   0  0  0  0  0  3  0  0  0  0  0  0
  159.8370  201.0790  144.8500 C   0  0  0  0  0  2  0  0  0  0  0  0
  159.5950  202.5040  144.4010 C   0  0  0  0  0  2  0  0  0  0  0  0
  157.3390  211.3860  152.8400 O   0  0  0  0  0  1  0  0  0  0  0  0
  158.6990  211.3600  152.5190 C   0  0  1  0  0  3  0  0  0  0  0  0
  159.3960  213.0200  152.8000 S   0  0  0  0  0  0  0  0  0  0  0  0
  157.9560  212.7380  150.4970 C   0  0  0  0  0  2  0  0  0  0  0  0
  159.3650  213.1310  148.1110 O   0  0  0  0  0  0  0  0  0  0  0  0
  158.3080  214.0280  148.3050 C   0  0  0  0  0  2  0  0  0  0  0  0
  160.4240  213.0560  150.2770 C   0  0  0  0  0  2  0  0  0  0  0  0
  159.1760  213.4620  151.0540 C   0  0  2  0  0  3  0  0  0  0  0  0
  157.3060  213.4820  149.3270 C   0  0  0  0  0  2  0  0  0  0  0  0
  160.4220  213.6540  148.8700 C   0  0  0  0  0  2  0  0  0  0  0  0
  158.7730  210.3950  155.7550 C   0  0  0  0  0  2  0  0  0  0  0  0
  157.5450  211.2720  155.5590 C   0  0  1  0  0  3  0  0  0  0  0  0
  156.5390  211.0040  156.6910 C   0  0  1  0  0  3  0  0  0  0  0  0
  156.9810  214.4520  157.0800 O   0  0  0  0  0  0  0  0  0  0  0  0
  157.0260  213.2510  156.7050 C   0  0  0  0  0  0  0  0  0  0  0  0
  157.9210  212.7520  155.6480 C   0  0  0  0  0  2  0  0  0  0  0  0
  156.2430  212.2670  157.2600 O   0  0  0  0  0  0  0  0  0  0  0  0
  154.1560  210.2480  156.9990 N   0  0  0  0  0  2  0  0  0  0  0  0
  155.2870  209.8890  154.9860 O   0  0  0  0  0  0  0  0  0  0  0  0
  155.3010  210.3660  156.1530 C   0  0  0  0  0  0  0  0  0  0  0  0
  152.9490  209.5640  156.5690 C   0  0  0  0  0  1  0  0  0  0  0  0
  1  5  1  0  0  0  0
  3  5  1  0  0  0  0
  4 33  1  6  0  0  0
  4  8  1  0  0  0  0
  6  9  2  0  0  0  0
  6  4  1  0  0  0  0
  7  2  1  0  0  0  0
  7 12  1  0  0  0  0
  8  3  1  0  0  0  0
  8 42  1  1  0  0  0
  9  1  1  0  0  0  0
 10  7  2  0  0  0  0
 11  2  1  6  0  0  0
 11  9  1  0  0  0  0
 12  6  1  0  0  0  0
 13 14  1  0  0  0  0
 15 16  1  6  0  0  0
 15 14  1  0  0  0  0
 15 11  1  0  0  0  0
 16 17  1  0  0  0  0
 17 19  1  6  0  0  0
 17 13  1  0  0  0  0
 19 18  2  0  0  0  0
 19 20  2  0  0  0  0
 21 19  1  0  0  0  0
 24 25  1  0  0  0  0
 25 26  1  0  0  0  0
 25 22  1  0  0  0  0
 26 22  1  0  0  0  0
 26 21  1  0  0  0  0
 26 23  1  1  0  0  0
 27 25  1  0  0  0  0
 28 21  1  0  0  0  0
 29 28  1  0  0  0  0
 30 29  1  0  0  0  0
 31 30  1  0  0  0  0
 31 29  1  0  0  0  0
 33 34  1  0  0  0  0
 33 32  1  1  0  0  0
 35 39  1  0  0  0  0
 36 37  1  0  0  0  0
 36 41  1  0  0  0  0
 37 40  1  0  0  0  0
 38 39  1  0  0  0  0
 39 34  1  1  0  0  0
 40 35  1  0  0  0  0
 41 38  1  0  0  0  0
 43 47  1  0  0  0  0
 43 42  1  1  0  0  0
 43 44  1  0  0  0  0
 44 51  1  6  0  0  0
 44 48  1  0  0  0  0
 46 45  2  0  0  0  0
 46 48  1  0  0  0  0
 47 46  1  0  0  0  0
 50 51  2  0  0  0  0
 51 49  1  0  0  0  0
 52 49  1  0  0  0  0
M  END
>  <MODEL>
2

>  <REMARK>
 VINA RESULT:      -3.8      1.885      2.783
  Name = 
  12 active torsions:
  status: ('A' for Active; 'I' for Inactive)
    1  A    between atoms: C_6  and  C_36
    2  A    between atoms: C_7  and  C_22
    3  A    between atoms: C_9  and  C_15
    4  A    between atoms: S_20  and  N_27
    5  A    between atoms: S_20  and  C_51
    6  A    between atoms: C_22  and  C_37
    7  A    between atoms: N_27  and  C_34
    8  A    between atoms: N_27  and  C_36
    9  A    between atoms: C_28  and  C_45
   10  A    between atoms: C_35  and  C_49
   11  A    between atoms: C_42  and  S_44
   12  A    between atoms: S_44  and  C_45
                            x       y       z     vdW  Elec       q    Type
                         _______ _______ _______ _____ _____    ______ ____

>  <TORSDO>
F 12

$$$$
=
 OpenBabel11072411333D

 52 58  0  0  1  0  0  0  0  0999 V2000
  160.1540  209.9840  154.4880 C   0  0  0  0  0  2  0  0  0  0  0  0
  162.4290  209.4040  151.4330 N   0  0  0  0  0  2  0  0  0  0  0  0
  160.8950  212.4350  154.7690 C   0  0  0  0  0  2  0  0  0  0  0  0
  159.2790  212.1020  152.7520 C   0  0  1  0  0  3  0  0  0  0  0  0
  160.7110  211.0580  155.4250 C   0  0  0  0  0  2  0  0  0  0  0  0
  160.3460  211.1170  152.3000 C   0  0  0  0  0  0  0  0  0  0  0  0
  161.9880  210.4780  150.6090 C   0  0  0  0  0  0  0  0  0  0  0  0
  159.6590  212.9350  154.0060 C   0  0  1  0  0  3  0  0  0  0  0  0
  160.7180  210.0970  153.1030 C   0  0  0  0  0  0  0  0  0  0  0  0
  162.5470  210.6970  149.5030 O   0  0  0  0  0  0  0  0  0  0  0  0
  161.7120  209.0470  152.6580 C   0  0  1  0  0  3  0  0  0  0  0  0
  160.9500  211.2950  151.0460 O   0  0  0  0  0  0  0  0  0  0  0  0
  161.2120  205.4430  153.1800 C   0  0  0  0  0  2  0  0  0  0  0  0
  161.5810  206.7870  153.5860 N   0  0  0  0  0  2  0  0  0  0  0  0
  161.0680  207.6670  152.5490 C   0  0  2  0  0  3  0  0  0  0  0  0
  161.3320  206.8910  150.9140 S   0  0  0  0  0  0  0  0  0  0  0  0
  161.5720  205.2850  151.7210 C   0  0  2  0  0  3  0  0  0  0  0  0
  160.5650  202.8220  151.8360 O   0  0  0  0  0  0  0  0  0  0  0  0
  160.5790  204.0240  150.9360 S   0  0  0  0  0  0  0  0  0  0  0  0
  159.1690  204.5260  150.7770 O   0  0  0  0  0  0  0  0  0  0  0  0
  161.2400  203.5810  149.3850 N   0  0  0  0  0  0  0  0  0  0  0  0
  161.5030  201.1580  148.7430 C   0  0  0  0  0  2  0  0  0  0  0  0
  159.2860  202.0910  149.3170 F   0  0  0  0  0  0  0  0  0  0  0  0
  160.0170  201.2220  146.8060 F   0  0  0  0  0  0  0  0  0  0  0  0
  160.9780  201.9060  147.5280 C   0  0  0  0  0  0  0  0  0  0  0  0
  160.5850  202.3600  148.9160 C   0  0  1  0  0  0  0  0  0  0  0  0
  161.9370  202.6460  146.8590 F   0  0  0  0  0  0  0  0  0  0  0  0
  160.9250  204.6430  148.4380 C   0  0  0  0  0  2  0  0  0  0  0  0
  162.1960  205.1180  147.7610 C   0  0  0  0  0  3  0  0  0  0  0  0
  162.2890  206.6230  147.8880 C   0  0  0  0  0  2  0  0  0  0  0  0
  161.8340  206.0020  146.5860 C   0  0  0  0  0  2  0  0  0  0  0  0
  158.5610  214.2760  152.0180 O   0  0  0  0  0  1  0  0  0  0  0  0
  158.7930  212.9710  151.5750 C   0  0  1  0  0  3  0  0  0  0  0  0
  159.9520  213.0280  150.1710 S   0  0  0  0  0  0  0  0  0  0  0  0
  157.3230  212.9700  149.4340 C   0  0  0  0  0  2  0  0  0  0  0  0
  156.7870  213.5360  146.7460 O   0  0  0  0  0  0  0  0  0  0  0  0
  156.2020  214.4330  147.6470 C   0  0  0  0  0  2  0  0  0  0  0  0
  159.0180  213.2570  147.6210 C   0  0  0  0  0  2  0  0  0  0  0  0
  158.6480  213.6200  149.0560 C   0  0  2  0  0  3  0  0  0  0  0  0
  156.1110  213.8230  149.0490 C   0  0  0  0  0  2  0  0  0  0  0  0
  158.1130  213.9720  146.6170 C   0  0  0  0  0  2  0  0  0  0  0  0
  158.4500  213.0550  154.9350 C   0  0  0  0  0  2  0  0  0  0  0  0
  157.1870  212.5000  154.2930 C   0  0  1  0  0  3  0  0  0  0  0  0
  156.0860  212.3670  155.3600 C   0  0  1  0  0  3  0  0  0  0  0  0
  154.4470  214.4250  153.0570 O   0  0  0  0  0  0  0  0  0  0  0  0
  155.2700  213.7030  153.6760 C   0  0  0  0  0  0  0  0  0  0  0  0
  156.6530  213.4640  153.2320 C   0  0  0  0  0  2  0  0  0  0  0  0
  154.9620  213.0630  154.8530 O   0  0  0  0  0  0  0  0  0  0  0  0
  154.4080  210.5710  155.9080 N   0  0  0  0  0  2  0  0  0  0  0  0
  156.6630  210.0560  155.5740 O   0  0  0  0  0  0  0  0  0  0  0  0
  155.7540  210.9310  155.5960 C   0  0  0  0  0  0  0  0  0  0  0  0
  154.0320  209.2050  156.2320 C   0  0  0  0  0  1  0  0  0  0  0  0
  1  5  1  0  0  0  0
  3  5  1  0  0  0  0
  4 33  1  6  0  0  0
  4  8  1  0  0  0  0
  6  4  1  0  0  0  0
  6  9  2  0  0  0  0
  7 12  1  0  0  0  0
  7  2  1  0  0  0  0
  8  3  1  0  0  0  0
  8 42  1  1  0  0  0
  9  1  1  0  0  0  0
 10  7  2  0  0  0  0
 11  2  1  6  0  0  0
 11  9  1  0  0  0  0
 12  6  1  0  0  0  0
 13 14  1  0  0  0  0
 15 16  1  6  0  0  0
 15 11  1  0  0  0  0
 15 14  1  0  0  0  0
 16 17  1  0  0  0  0
 17 19  1  6  0  0  0
 17 13  1  0  0  0  0
 19 18  2  0  0  0  0
 20 19  2  0  0  0  0
 21 19  1  0  0  0  0
 22 26  1  0  0  0  0
 24 25  1  0  0  0  0
 25 22  1  0  0  0  0
 25 26  1  0  0  0  0
 26 23  1  1  0  0  0
 26 21  1  0  0  0  0
 27 25  1  0  0  0  0
 28 21  1  0  0  0  0
 29 30  1  0  0  0  0
 29 28  1  0  0  0  0
 31 29  1  0  0  0  0
 31 30  1  0  0  0  0
 33 32  1  1  0  0  0
 34 33  1  0  0  0  0
 36 37  1  0  0  0  0
 37 40  1  0  0  0  0
 38 39  1  0  0  0  0
 39 35  1  0  0  0  0
 39 34  1  1  0  0  0
 40 35  1  0  0  0  0
 41 36  1  0  0  0  0
 41 38  1  0  0  0  0
 43 42  1  1  0  0  0
 43 44  1  0  0  0  0
 44 51  1  6  0  0  0
 45 46  2  0  0  0  0
 46 48  1  0  0  0  0
 47 46  1  0  0  0  0
 47 43  1  0  0  0  0
 48 44  1  0  0  0  0
 49 52  1  0  0  0  0
 50 51  2  0  0  0  0
 51 49  1  0  0  0  0
M  END
>  <MODEL>
3

>  <REMARK>
 VINA RESULT:      -3.3      2.016      2.797
  Name = 
  12 active torsions:
  status: ('A' for Active; 'I' for Inactive)
    1  A    between atoms: C_6  and  C_36
    2  A    between atoms: C_7  and  C_22
    3  A    between atoms: C_9  and  C_15
    4  A    between atoms: S_20  and  N_27
    5  A    between atoms: S_20  and  C_51
    6  A    between atoms: C_22  and  C_37
    7  A    between atoms: N_27  and  C_34
    8  A    between atoms: N_27  and  C_36
    9  A    between atoms: C_28  and  C_45
   10  A    between atoms: C_35  and  C_49
   11  A    between atoms: C_42  and  S_44
   12  A    between atoms: S_44  and  C_45
                            x       y       z     vdW  Elec       q    Type
                         _______ _______ _______ _____ _____    ______ ____

>  <TORSDO>
F 12

$$$$
=
 OpenBabel11072411333D

 52 58  0  0  1  0  0  0  0  0999 V2000
  161.1920  209.5140  150.9450 C   0  0  0  0  0  2  0  0  0  0  0  0
  161.8070  208.7240  154.6650 N   0  0  0  0  0  2  0  0  0  0  0  0
  162.9750  207.8410  150.1340 C   0  0  0  0  0  2  0  0  0  0  0  0
  160.8020  206.6650  150.9640 C   0  0  1  0  0  3  0  0  0  0  0  0
  162.4410  209.2800  150.0920 C   0  0  0  0  0  2  0  0  0  0  0  0
  161.1100  207.4170  152.2510 C   0  0  0  0  0  0  0  0  0  0  0  0
  161.6320  207.3110  154.6340 C   0  0  0  0  0  0  0  0  0  0  0  0
  161.9050  206.7680  149.8760 C   0  0  1  0  0  3  0  0  0  0  0  0
  161.2450  208.7610  152.2410 C   0  0  0  0  0  0  0  0  0  0  0  0
  161.8210  206.6270  155.6730 O   0  0  0  0  0  0  0  0  0  0  0  0
  161.4660  209.5530  153.5090 C   0  0  1  0  0  3  0  0  0  0  0  0
  161.2700  206.6920  153.4420 O   0  0  0  0  0  0  0  0  0  0  0  0
  157.9960  210.7620  153.6470 C   0  0  0  0  0  2  0  0  0  0  0  0
  159.0350  209.7500  153.7150 N   0  0  0  0  0  2  0  0  0  0  0  0
  160.2890  210.4790  153.8120 C   0  0  2  0  0  3  0  0  0  0  0  0
  160.2300  211.9320  152.7050 S   0  0  0  0  0  0  0  0  0  0  0  0
  158.4240  211.7950  152.6300 C   0  0  2  0  0  3  0  0  0  0  0  0
  158.6320  214.4500  152.5660 O   0  0  0  0  0  0  0  0  0  0  0  0
  157.6520  213.3760  152.9420 S   0  0  0  0  0  0  0  0  0  0  0  0
  156.4280  213.5140  152.0760 O   0  0  0  0  0  0  0  0  0  0  0  0
  157.2230  213.5430  154.6240 N   0  0  0  0  0  0  0  0  0  0  0  0
  154.8750  214.4460  154.7700 C   0  0  0  0  0  2  0  0  0  0  0  0
  155.2940  212.0640  154.2570 F   0  0  0  0  0  0  0  0  0  0  0  0
  154.1290  212.9840  156.5790 F   0  0  0  0  0  0  0  0  0  0  0  0
  155.1790  213.7300  156.0760 C   0  0  0  0  0  0  0  0  0  0  0  0
  155.8020  213.2390  154.7880 C   0  0  1  0  0  0  0  0  0  0  0  0
  155.9840  214.4480  156.9440 F   0  0  0  0  0  0  0  0  0  0  0  0
  157.9780  212.5560  155.3840 C   0  0  0  0  0  2  0  0  0  0  0  0
  158.6770  213.2320  156.5480 C   0  0  0  0  0  3  0  0  0  0  0  0
  159.6400  214.2670  156.0090 C   0  0  0  0  0  2  0  0  0  0  0  0
  160.1590  212.9280  156.4840 C   0  0  0  0  0  2  0  0  0  0  0  0
  159.4800  204.7770  150.2830 O   0  0  0  0  0  1  0  0  0  0  0  0
  160.3800  205.2120  151.2590 C   0  0  1  0  0  3  0  0  0  0  0  0
  161.7720  204.0390  151.3340 S   0  0  0  0  0  0  0  0  0  0  0  0
  160.5870  201.6320  150.8210 C   0  0  0  0  0  2  0  0  0  0  0  0
  160.7730  200.7080  148.1860 O   0  0  0  0  0  0  0  0  0  0  0  0
  159.4610  200.9170  148.6270 C   0  0  0  0  0  2  0  0  0  0  0  0
  161.9410  202.6600  148.9900 C   0  0  0  0  0  2  0  0  0  0  0  0
  160.9710  202.9370  150.1350 C   0  0  2  0  0  3  0  0  0  0  0  0
  159.3940  200.9400  150.1580 C   0  0  0  0  0  2  0  0  0  0  0  0
  161.2340  201.9790  147.8170 C   0  0  0  0  0  2  0  0  0  0  0  0
  161.2610  206.9520  148.5010 C   0  0  0  0  0  2  0  0  0  0  0  0
  161.4490  205.7270  147.6200 C   0  0  1  0  0  3  0  0  0  0  0  0
  161.4260  206.1500  146.1410 C   0  0  1  0  0  3  0  0  0  0  0  0
  164.5460  204.5750  146.2680 O   0  0  0  0  0  0  0  0  0  0  0  0
  163.4140  205.0610  146.5250 C   0  0  0  0  0  0  0  0  0  0  0  0
  162.8160  205.0870  147.8710 C   0  0  0  0  0  2  0  0  0  0  0  0
  162.6140  205.6360  145.5670 O   0  0  0  0  0  0  0  0  0  0  0  0
  160.2860  204.2740  144.9060 N   0  0  0  0  0  2  0  0  0  0  0  0
  159.1880  206.2970  145.3110 O   0  0  0  0  0  0  0  0  0  0  0  0
  160.2250  205.5920  145.4540 C   0  0  0  0  0  0  0  0  0  0  0  0
  159.1840  203.7020  144.1520 C   0  0  0  0  0  1  0  0  0  0  0  0
  1  9  1  0  0  0  0
  4 33  1  1  0  0  0
  4  6  1  0  0  0  0
  5  3  1  0  0  0  0
  5  1  1  0  0  0  0
  6 12  1  0  0  0  0
  7  2  1  0  0  0  0
  7 10  2  0  0  0  0
  8 42  1  6  0  0  0
  8  3  1  0  0  0  0
  8  4  1  0  0  0  0
  9  6  2  0  0  0  0
 11  9  1  6  0  0  0
 11 15  1  0  0  0  0
 11  2  1  0  0  0  0
 12  7  1  0  0  0  0
 13 14  1  0  0  0  0
 14 15  1  0  0  0  0
 15 16  1  6  0  0  0
 17 16  1  0  0  0  0
 17 19  1  1  0  0  0
 17 13  1  0  0  0  0
 18 19  2  0  0  0  0
 19 21  1  0  0  0  0
 20 19  2  0  0  0  0
 21 26  1  0  0  0  0
 21 28  1  0  0  0  0
 22 26  1  0  0  0  0
 22 25  1  0  0  0  0
 25 24  1  0  0  0  0
 25 27  1  0  0  0  0
 26 23  1  6  0  0  0
 26 25  1  0  0  0  0
 28 29  1  0  0  0  0
 30 31  1  0  0  0  0
 30 29  1  0  0  0  0
 31 29  1  0  0  0  0
 33 32  1  6  0  0  0
 33 34  1  0  0  0  0
 36 37  1  0  0  0  0
 37 40  1  0  0  0  0
 38 39  1  0  0  0  0
 39 35  1  0  0  0  0
 39 34  1  1  0  0  0
 40 35  1  0  0  0  0
 41 36  1  0  0  0  0
 41 38  1  0  0  0  0
 43 47  1  0  0  0  0
 43 42  1  1  0  0  0
 44 51  1  6  0  0  0
 44 43  1  0  0  0  0
 45 46  2  0  0  0  0
 46 47  1  0  0  0  0
 48 44  1  0  0  0  0
 48 46  1  0  0  0  0
 49 51  1  0  0  0  0
 50 51  2  0  0  0  0
 52 49  1  0  0  0  0
M  END
>  <MODEL>
4

>  <REMARK>
 VINA RESULT:      -1.7      4.445     11.164
  Name = 
  12 active torsions:
  status: ('A' for Active; 'I' for Inactive)
    1  A    between atoms: C_6  and  C_36
    2  A    between atoms: C_7  and  C_22
    3  A    between atoms: C_9  and  C_15
    4  A    between atoms: S_20  and  N_27
    5  A    between atoms: S_20  and  C_51
    6  A    between atoms: C_22  and  C_37
    7  A    between atoms: N_27  and  C_34
    8  A    between atoms: N_27  and  C_36
    9  A    between atoms: C_28  and  C_45
   10  A    between atoms: C_35  and  C_49
   11  A    between atoms: C_42  and  S_44
   12  A    between atoms: S_44  and  C_45
                            x       y       z     vdW  Elec       q    Type
                         _______ _______ _______ _____ _____    ______ ____

>  <TORSDO>
F 12

$$$$
