=
 OpenBabel11072413173D

 27 31  0  0  1  0  0  0  0  0999 V2000
  161.4000  204.2740  146.9180 C   0  0  0  0  0  3  0  0  0  0  0  0
  161.4200  204.8860  149.2320 N   0  0  0  0  0  0  0  0  0  0  0  0
  160.8000  203.2000  152.2460 N   0  0  0  0  0  0  0  0  0  0  0  0
  161.0850  204.4120  152.7230 N   0  0  0  0  0  2  0  0  0  0  0  0
  161.2490  204.5240  150.5290 C   0  0  0  0  0  0  0  0  0  0  0  0
  160.9000  203.2660  150.9070 C   0  0  0  0  0  0  0  0  0  0  0  0
  160.6780  201.6480  147.6190 C   0  0  0  0  0  3  0  0  0  0  0  0
  161.2090  203.3060  145.9280 C   0  0  0  0  0  3  0  0  0  0  0  0
  160.6610  201.0470  145.2830 O   0  0  0  0  0  1  0  0  0  0  0  0
  160.6950  202.2580  149.9730 C   0  0  0  0  0  3  0  0  0  0  0  0
  160.8490  201.9990  146.2760 C   0  0  0  0  0  0  0  0  0  0  0  0
  160.8660  202.6040  148.6190 C   0  0  0  0  0  0  0  0  0  0  0  0
  161.2330  203.9400  148.2640 C   0  0  0  0  0  0  0  0  0  0  0  0
  161.3650  205.2450  151.6900 C   0  0  0  0  0  0  0  0  0  0  0  0
  162.7160  207.1470  151.1620 N   0  0  0  0  0  2  0  0  0  0  0  0
  161.7220  206.6640  151.8340 C   0  0  0  0  0  0  0  0  0  0  0  0
  160.9790  207.4980  152.7290 N   0  0  0  0  0  2  0  0  0  0  0  0
  160.5630  211.2580  152.1950 C   0  0  0  0  0  2  0  0  0  0  0  0
  160.4130  209.7470  151.9420 C   0  0  0  0  0  2  0  0  0  0  0  0
  161.5330  209.6470  156.6140 C   0  0  2  0  0  3  0  0  0  0  0  0
  161.2600  208.9150  152.9210 C   0  0  1  0  0  3  0  0  0  0  0  0
  162.8950  209.7980  157.2610 C   0  0  0  0  0  1  0  0  0  0  0  0
  161.6230  208.6500  155.4580 C   0  0  0  0  0  2  0  0  0  0  0  0
  161.2140  210.7770  154.5250 C   0  0  2  0  0  3  0  0  0  0  0  0
  160.2900  211.6180  153.6620 C   0  0  0  0  0  2  0  0  0  0  0  0
  160.8770  209.3280  154.3350 C   0  0  1  0  0  3  0  0  0  0  0  0
  161.0880  210.9820  156.0130 C   0  0  0  0  0  2  0  0  0  0  0  0
  1 13  1  0  0  0  0
  2  5  1  0  0  0  0
  3  4  1  0  0  0  0
  5  6  1  0  0  0  0
  5 14  2  0  0  0  0
  6  3  2  0  0  0  0
  7 12  1  0  0  0  0
  8 11  1  0  0  0  0
  8  1  2  0  0  0  0
  9 11  1  0  0  0  0
 10  6  1  0  0  0  0
 11  7  2  0  0  0  0
 12 10  2  0  0  0  0
 13 12  1  0  0  0  0
 13  2  2  0  0  0  0
 14 16  1  0  0  0  0
 14  4  1  0  0  0  0
 15 16  2  0  0  0  0
 16 17  1  0  0  0  0
 18 25  1  0  0  0  0
 19 18  1  0  0  0  0
 19 21  1  0  0  0  0
 20 22  1  6  0  0  0
 21 17  1  1  0  0  0
 21 26  1  0  0  0  0
 23 20  1  0  0  0  0
 24 25  1  6  0  0  0
 24 27  1  0  0  0  0
 26 24  1  0  0  0  0
 26 23  1  1  0  0  0
 27 20  1  0  0  0  0
M  END
>  <MODEL>
1

>  <REMARK>
 VINA RESULT:      -9.9      0.000      0.000
  Name = 
  2 active torsions:
  status: ('A' for Active; 'I' for Inactive)
    1  A    between atoms: C_8  and  N_18
    2  A    between atoms: C_14  and  C_26
                            x       y       z     vdW  Elec       q    Type
                         _______ _______ _______ _____ _____    ______ ____

>  <TORSDO>
F 2

$$$$
=
 OpenBabel11072413173D

 27 31  0  0  1  0  0  0  0  0999 V2000
  160.9730  203.9030  151.7670 C   0  0  0  0  0  3  0  0  0  0  0  0
  161.2960  206.1580  151.0320 N   0  0  0  0  0  0  0  0  0  0  0  0
  161.6530  207.7180  147.9090 N   0  0  0  0  0  0  0  0  0  0  0  0
  161.7490  208.7850  148.7040 N   0  0  0  0  0  0  0  0  0  0  0  0
  161.4580  207.0310  150.0060 C   0  0  0  0  0  0  0  0  0  0  0  0
  161.4750  206.6470  148.7020 C   0  0  0  0  0  0  0  0  0  0  0  0
  160.9970  203.0270  149.0950 C   0  0  0  0  0  3  0  0  0  0  0  0
  160.8170  202.5460  151.4670 C   0  0  0  0  0  2  0  0  0  0  0  0
  160.6730  200.7610  149.8510 O   0  0  0  0  0  1  0  0  0  0  0  0
  161.3250  205.3150  148.3360 C   0  0  0  0  0  3  0  0  0  0  0  0
  160.8290  202.1100  150.1370 C   0  0  0  0  0  0  0  0  0  0  0  0
  161.1550  204.3860  149.3790 C   0  0  0  0  0  0  0  0  0  0  0  0
  161.1430  204.8320  150.7380 C   0  0  0  0  0  0  0  0  0  0  0  0
  161.6320  208.3910  149.9970 C   0  0  0  0  0  0  0  0  0  0  0  0
  162.7850  209.9320  151.4180 N   0  0  0  0  0  2  0  0  0  0  0  0
  161.6900  209.2960  151.1540 C   0  0  0  0  0  0  0  0  0  0  0  0
  160.5400  209.4540  151.9920 N   0  0  0  0  0  2  0  0  0  0  0  0
  159.3330  212.3680  154.1490 C   0  0  0  0  0  2  0  0  0  0  0  0
  159.5110  211.4820  152.9030 C   0  0  0  0  0  2  0  0  0  0  0  0
  160.6020  208.2690  156.3060 C   0  0  2  0  0  3  0  0  0  0  0  0
  160.5110  210.3380  153.1500 C   0  0  1  0  0  3  0  0  0  0  0  0
  161.8960  208.1160  157.0780 C   0  0  0  0  0  1  0  0  0  0  0  0
  160.9090  208.4120  154.8150 C   0  0  0  0  0  2  0  0  0  0  0  0
  160.0590  210.4820  155.5620 C   0  0  2  0  0  3  0  0  0  0  0  0
  158.9810  211.5380  155.3910 C   0  0  0  0  0  2  0  0  0  0  0  0
  160.0410  209.5660  154.3750 C   0  0  1  0  0  3  0  0  0  0  0  0
  159.8850  209.5510  156.7350 C   0  0  0  0  0  2  0  0  0  0  0  0
  3  6  2  0  0  0  0
  3  4  1  0  0  0  0
  4 14  2  0  0  0  0
  5  2  2  0  0  0  0
  6  5  1  0  0  0  0
  7 12  1  0  0  0  0
  7 11  2  0  0  0  0
  8  1  1  0  0  0  0
  9 11  1  0  0  0  0
 10  6  1  0  0  0  0
 10 12  2  0  0  0  0
 11  8  1  0  0  0  0
 12 13  1  0  0  0  0
 13  2  1  0  0  0  0
 13  1  2  0  0  0  0
 14  5  1  0  0  0  0
 14 16  1  0  0  0  0
 16 15  2  0  0  0  0
 16 17  1  0  0  0  0
 18 25  1  0  0  0  0
 19 21  1  0  0  0  0
 19 18  1  0  0  0  0
 20 27  1  0  0  0  0
 20 22  1  1  0  0  0
 21 17  1  6  0  0  0
 21 26  1  0  0  0  0
 23 20  1  0  0  0  0
 24 25  1  6  0  0  0
 24 27  1  0  0  0  0
 26 23  1  1  0  0  0
 26 24  1  0  0  0  0
M  END
>  <MODEL>
2

>  <REMARK>
 VINA RESULT:      -9.5      1.955      3.269
  Name = 
  2 active torsions:
  status: ('A' for Active; 'I' for Inactive)
    1  A    between atoms: C_8  and  N_18
    2  A    between atoms: C_14  and  C_26
                            x       y       z     vdW  Elec       q    Type
                         _______ _______ _______ _____ _____    ______ ____

>  <TORSDO>
F 2

$$$$
=
 OpenBabel11072413173D

 27 31  0  0  1  0  0  0  0  0999 V2000
  160.7950  206.7300  153.9230 C   0  0  0  0  0  3  0  0  0  0  0  0
  161.3150  207.5230  151.7250 N   0  0  0  0  0  0  0  0  0  0  0  0
  162.0880  210.6510  150.3380 N   0  0  0  0  0  0  0  0  0  0  0  0
  162.1510  209.8980  149.2390 N   0  0  0  0  0  0  0  0  0  0  0  0
  161.6340  208.5610  150.9120 C   0  0  0  0  0  0  0  0  0  0  0  0
  161.7730  209.8370  151.3600 C   0  0  0  0  0  0  0  0  0  0  0  0
  161.0640  209.3430  154.9290 C   0  0  0  0  0  3  0  0  0  0  0  0
  160.6010  206.9870  155.2840 C   0  0  0  0  0  2  0  0  0  0  0  0
  160.5380  208.5300  157.1370 O   0  0  0  0  0  1  0  0  0  0  0  0
  161.5940  210.1590  152.7000 C   0  0  0  0  0  3  0  0  0  0  0  0
  160.7350  208.2880  155.7840 C   0  0  0  0  0  0  0  0  0  0  0  0
  161.2620  209.1020  153.5670 C   0  0  0  0  0  0  0  0  0  0  0  0
  161.1250  207.7740  153.0550 C   0  0  0  0  0  0  0  0  0  0  0  0
  161.8770  208.6100  149.5630 C   0  0  0  0  0  0  0  0  0  0  0  0
  162.9420  207.1380  148.0070 N   0  0  0  0  0  2  0  0  0  0  0  0
  161.8530  207.4950  148.6060 C   0  0  0  0  0  0  0  0  0  0  0  0
  160.6200  206.8220  148.3290 N   0  0  0  0  0  2  0  0  0  0  0  0
  161.2160  204.8730  145.0960 C   0  0  0  0  0  2  0  0  0  0  0  0
  161.1750  206.0700  146.0650 C   0  0  0  0  0  2  0  0  0  0  0  0
  161.1640  202.4790  149.2580 C   0  0  2  0  0  3  0  0  0  0  0  0
  160.5120  205.7010  147.4040 C   0  0  1  0  0  3  0  0  0  0  0  0
  160.0070  201.5970  149.6830 C   0  0  0  0  0  1  0  0  0  0  0  0
  160.7250  203.9430  149.2760 C   0  0  0  0  0  2  0  0  0  0  0  0
  161.0850  203.3410  147.0240 C   0  0  2  0  0  3  0  0  0  0  0  0
  161.8500  203.6370  145.7470 C   0  0  0  0  0  2  0  0  0  0  0  0
  161.2450  204.4930  147.9700 C   0  0  1  0  0  3  0  0  0  0  0  0
  161.5690  202.1540  147.8190 C   0  0  0  0  0  2  0  0  0  0  0  0
  1  8  1  0  0  0  0
  2 13  1  0  0  0  0
  3  6  2  0  0  0  0
  4 14  2  0  0  0  0
  4  3  1  0  0  0  0
  5  6  1  0  0  0  0
  5  2  2  0  0  0  0
  6 10  1  0  0  0  0
  7 11  2  0  0  0  0
  8 11  1  0  0  0  0
 10 12  2  0  0  0  0
 11  9  1  0  0  0  0
 12  7  1  0  0  0  0
 13 12  1  0  0  0  0
 13  1  2  0  0  0  0
 14  5  1  0  0  0  0
 15 16  2  0  0  0  0
 16 14  1  0  0  0  0
 17 16  1  0  0  0  0
 18 25  1  0  0  0  0
 18 19  1  0  0  0  0
 19 21  1  0  0  0  0
 20 23  1  0  0  0  0
 20 22  1  6  0  0  0
 21 26  1  0  0  0  0
 21 17  1  1  0  0  0
 24 25  1  6  0  0  0
 24 27  1  0  0  0  0
 24 26  1  0  0  0  0
 26 23  1  1  0  0  0
 27 20  1  0  0  0  0
M  END
>  <MODEL>
3

>  <REMARK>
 VINA RESULT:      -9.4      3.294      8.472
  Name = 
  2 active torsions:
  status: ('A' for Active; 'I' for Inactive)
    1  A    between atoms: C_8  and  N_18
    2  A    between atoms: C_14  and  C_26
                            x       y       z     vdW  Elec       q    Type
                         _______ _______ _______ _____ _____    ______ ____

>  <TORSDO>
F 2

$$$$
=
 OpenBabel11072413173D

 27 31  0  0  1  0  0  0  0  0999 V2000
  160.6110  203.2220  150.5020 C   0  0  0  0  0  3  0  0  0  0  0  0
  160.9090  205.5670  150.8810 N   0  0  0  0  0  0  0  0  0  0  0  0
  161.8540  208.2980  148.8920 N   0  0  0  0  0  0  0  0  0  0  0  0
  161.6730  208.9220  150.0570 N   0  0  0  0  0  2  0  0  0  0  0  0
  161.2330  206.7890  150.3900 C   0  0  0  0  0  0  0  0  0  0  0  0
  161.5850  206.9960  149.0930 C   0  0  0  0  0  0  0  0  0  0  0  0
  161.3290  203.5670  147.8050 C   0  0  0  0  0  3  0  0  0  0  0  0
  160.6410  202.1270  149.6330 C   0  0  0  0  0  3  0  0  0  0  0  0
  161.0260  201.2030  147.4380 O   0  0  0  0  0  1  0  0  0  0  0  0
  161.6350  205.9510  148.1790 C   0  0  0  0  0  3  0  0  0  0  0  0
  160.9990  202.2990  148.2910 C   0  0  0  0  0  0  0  0  0  0  0  0
  161.3040  204.6710  148.6610 C   0  0  0  0  0  0  0  0  0  0  0  0
  160.9380  204.4970  150.0320 C   0  0  0  0  0  0  0  0  0  0  0  0
  161.2910  208.0200  150.9930 C   0  0  0  0  0  0  0  0  0  0  0  0
  160.9590  207.3980  153.2790 N   0  0  0  0  0  2  0  0  0  0  0  0
  161.0020  208.3440  152.3980 C   0  0  0  0  0  0  0  0  0  0  0  0
  160.7540  209.7010  152.7790 N   0  0  0  0  0  2  0  0  0  0  0  0
  161.5560  210.9420  156.3030 C   0  0  0  0  0  2  0  0  0  0  0  0
  161.7940  210.3730  154.8920 C   0  0  0  0  0  2  0  0  0  0  0  0
  157.5360  212.4800  154.1720 C   0  0  2  0  0  3  0  0  0  0  0  0
  160.4730  210.1080  154.1490 C   0  0  1  0  0  3  0  0  0  0  0  0
  156.1600  211.9820  154.5620 C   0  0  0  0  0  1  0  0  0  0  0  0
  158.3140  211.3520  153.4920 C   0  0  0  0  0  2  0  0  0  0  0  0
  159.3580  211.7810  155.5640 C   0  0  2  0  0  3  0  0  0  0  0  0
  160.6430  212.1750  156.2700 C   0  0  0  0  0  2  0  0  0  0  0  0
  159.6730  211.4030  154.1470 C   0  0  1  0  0  3  0  0  0  0  0  0
  158.3260  212.8720  155.4220 C   0  0  0  0  0  2  0  0  0  0  0  0
  3  6  2  0  0  0  0
  3  4  1  0  0  0  0
  4 14  1  0  0  0  0
  5  2  1  0  0  0  0
  5 14  2  0  0  0  0
  6  5  1  0  0  0  0
  7 11  2  0  0  0  0
  7 12  1  0  0  0  0
  8  1  2  0  0  0  0
  9 11  1  0  0  0  0
 10 12  2  0  0  0  0
 10  6  1  0  0  0  0
 11  8  1  0  0  0  0
 12 13  1  0  0  0  0
 13  1  1  0  0  0  0
 13  2  2  0  0  0  0
 14 16  1  0  0  0  0
 16 17  1  0  0  0  0
 16 15  2  0  0  0  0
 19 18  1  0  0  0  0
 20 22  1  1  0  0  0
 20 27  1  0  0  0  0
 21 17  1  6  0  0  0
 21 19  1  0  0  0  0
 23 20  1  0  0  0  0
 24 27  1  6  0  0  0
 24 25  1  0  0  0  0
 25 18  1  0  0  0  0
 26 23  1  6  0  0  0
 26 21  1  0  0  0  0
 26 24  1  0  0  0  0
M  END
>  <MODEL>
4

>  <REMARK>
 VINA RESULT:      -9.3      1.854      3.640
  Name = 
  2 active torsions:
  status: ('A' for Active; 'I' for Inactive)
    1  A    between atoms: C_8  and  N_18
    2  A    between atoms: C_14  and  C_26
                            x       y       z     vdW  Elec       q    Type
                         _______ _______ _______ _____ _____    ______ ____

>  <TORSDO>
F 2

$$$$
=
 OpenBabel11072413173D

 27 31  0  0  1  0  0  0  0  0999 V2000
  159.9190  208.8970  155.6380 C   0  0  0  0  0  3  0  0  0  0  0  0
  160.8450  208.5030  153.4660 N   0  0  0  0  0  0  0  0  0  0  0  0
  161.6550  210.5240  150.7140 N   0  0  0  0  0  0  0  0  0  0  0  0
  162.0180  209.3340  150.2320 N   0  0  0  0  0  0  0  0  0  0  0  0
  161.2520  209.0010  152.2710 C   0  0  0  0  0  0  0  0  0  0  0  0
  161.1880  210.3220  151.9580 C   0  0  0  0  0  0  0  0  0  0  0  0
  159.7530  211.6470  155.0680 C   0  0  0  0  0  3  0  0  0  0  0  0
  159.4100  209.7870  156.5890 C   0  0  0  0  0  2  0  0  0  0  0  0
  158.8200  212.0280  157.2590 O   0  0  0  0  0  1  0  0  0  0  0  0
  160.6940  211.2580  152.8590 C   0  0  0  0  0  3  0  0  0  0  0  0
  159.3280  211.1550  156.3060 C   0  0  0  0  0  0  0  0  0  0  0  0
  160.2640  210.7700  154.1070 C   0  0  0  0  0  0  0  0  0  0  0  0
  160.3480  209.3720  154.3960 C   0  0  0  0  0  0  0  0  0  0  0  0
  161.7820  208.3810  151.1680 C   0  0  0  0  0  0  0  0  0  0  0  0
  162.9190  206.3600  151.7520 N   0  0  0  0  0  2  0  0  0  0  0  0
  162.0560  206.9480  150.9890 C   0  0  0  0  0  0  0  0  0  0  0  0
  161.3800  206.2170  149.9610 N   0  0  0  0  0  2  0  0  0  0  0  0
  160.8370  202.4670  150.4510 C   0  0  0  0  0  2  0  0  0  0  0  0
  160.7690  203.9770  150.7420 C   0  0  0  0  0  2  0  0  0  0  0  0
  161.5870  204.1290  146.0090 C   0  0  2  0  0  3  0  0  0  0  0  0
  161.5860  204.7940  149.7250 C   0  0  1  0  0  3  0  0  0  0  0  0
  162.8960  203.9350  145.2710 C   0  0  0  0  0  1  0  0  0  0  0  0
  161.7950  205.0970  147.1740 C   0  0  0  0  0  2  0  0  0  0  0  0
  161.3550  202.9700  148.0930 C   0  0  2  0  0  3  0  0  0  0  0  0
  160.4530  202.1500  149.0000 C   0  0  0  0  0  2  0  0  0  0  0  0
  161.0950  204.4270  148.3310 C   0  0  1  0  0  3  0  0  0  0  0  0
  161.1240  202.8020  146.6130 C   0  0  0  0  0  2  0  0  0  0  0  0
  1  8  1  0  0  0  0
  2 13  1  0  0  0  0
  3  6  2  0  0  0  0
  4  3  1  0  0  0  0
  4 14  2  0  0  0  0
  5  2  2  0  0  0  0
  6  5  1  0  0  0  0
  6 10  1  0  0  0  0
  7 11  2  0  0  0  0
 10 12  2  0  0  0  0
 11  8  1  0  0  0  0
 11  9  1  0  0  0  0
 12 13  1  0  0  0  0
 12  7  1  0  0  0  0
 13  1  2  0  0  0  0
 14  5  1  0  0  0  0
 16 14  1  0  0  0  0
 16 15  2  0  0  0  0
 17 16  1  0  0  0  0
 18 19  1  0  0  0  0
 20 22  1  1  0  0  0
 20 27  1  0  0  0  0
 20 23  1  0  0  0  0
 21 17  1  1  0  0  0
 21 19  1  0  0  0  0
 24 27  1  6  0  0  0
 24 26  1  0  0  0  0
 24 25  1  0  0  0  0
 25 18  1  0  0  0  0
 26 23  1  6  0  0  0
 26 21  1  0  0  0  0
M  END
>  <MODEL>
5

>  <REMARK>
 VINA RESULT:      -9.0      3.508      9.254
  Name = 
  2 active torsions:
  status: ('A' for Active; 'I' for Inactive)
    1  A    between atoms: C_8  and  N_18
    2  A    between atoms: C_14  and  C_26
                            x       y       z     vdW  Elec       q    Type
                         _______ _______ _______ _____ _____    ______ ____

>  <TORSDO>
F 2

$$$$
=
 OpenBabel11072413173D

 27 31  0  0  1  0  0  0  0  0999 V2000
  160.1480  211.3990  152.0130 C   0  0  0  0  0  3  0  0  0  0  0  0
  160.6440  209.2130  152.8530 N   0  0  0  0  0  0  0  0  0  0  0  0
  160.3470  207.6310  155.9710 N   0  0  0  0  0  0  0  0  0  0  0  0
  160.8630  206.6270  155.2600 N   0  0  0  0  0  2  0  0  0  0  0  0
  160.6540  208.3470  153.8970 C   0  0  0  0  0  0  0  0  0  0  0  0
  160.2190  208.6810  155.1410 C   0  0  0  0  0  0  0  0  0  0  0  0
  159.2300  212.1680  154.5580 C   0  0  0  0  0  3  0  0  0  0  0  0
  159.6680  212.6940  152.2290 C   0  0  0  0  0  3  0  0  0  0  0  0
  158.7370  214.3670  153.6970 O   0  0  0  0  0  1  0  0  0  0  0  0
  159.7290  209.9510  155.4220 C   0  0  0  0  0  3  0  0  0  0  0  0
  159.2110  213.0770  153.4960 C   0  0  0  0  0  0  0  0  0  0  0  0
  159.7070  210.8710  154.3570 C   0  0  0  0  0  0  0  0  0  0  0  0
  160.1740  210.4780  153.0640 C   0  0  0  0  0  0  0  0  0  0  0  0
  161.0600  207.0390  153.9830 C   0  0  0  0  0  0  0  0  0  0  0  0
  162.7740  206.4870  152.4080 N   0  0  0  0  0  2  0  0  0  0  0  0
  161.6170  206.2020  152.9110 C   0  0  0  0  0  0  0  0  0  0  0  0
  160.8690  205.0860  152.4180 N   0  0  0  0  0  2  0  0  0  0  0  0
  161.2590  201.8010  150.5040 C   0  0  0  0  0  2  0  0  0  0  0  0
  160.8960  202.7580  151.6540 C   0  0  0  0  0  2  0  0  0  0  0  0
  160.9670  205.9010  148.0200 C   0  0  2  0  0  3  0  0  0  0  0  0
  161.3530  204.2000  151.3670 C   0  0  1  0  0  3  0  0  0  0  0  0
  162.1650  206.5390  147.3480 C   0  0  0  0  0  1  0  0  0  0  0  0
  161.1190  205.9990  149.5380 C   0  0  0  0  0  2  0  0  0  0  0  0
  161.3050  203.7210  148.9560 C   0  0  2  0  0  3  0  0  0  0  0  0
  160.7510  202.3210  149.1520 C   0  0  0  0  0  2  0  0  0  0  0  0
  160.7610  204.6180  150.0280 C   0  0  1  0  0  3  0  0  0  0  0  0
  160.9060  204.4110  147.6760 C   0  0  0  0  0  2  0  0  0  0  0  0
  1  8  2  0  0  0  0
  1 13  1  0  0  0  0
  2 13  2  0  0  0  0
  2  5  1  0  0  0  0
  4  3  1  0  0  0  0
  5 14  2  0  0  0  0
  5  6  1  0  0  0  0
  6 10  1  0  0  0  0
  6  3  2  0  0  0  0
  8 11  1  0  0  0  0
 11  9  1  0  0  0  0
 11  7  2  0  0  0  0
 12  7  1  0  0  0  0
 12 10  2  0  0  0  0
 13 12  1  0  0  0  0
 14  4  1  0  0  0  0
 15 16  2  0  0  0  0
 16 14  1  0  0  0  0
 17 16  1  0  0  0  0
 18 19  1  0  0  0  0
 20 22  1  6  0  0  0
 20 23  1  0  0  0  0
 21 19  1  0  0  0  0
 21 17  1  1  0  0  0
 24 27  1  6  0  0  0
 24 25  1  0  0  0  0
 24 26  1  0  0  0  0
 25 18  1  0  0  0  0
 26 23  1  6  0  0  0
 26 21  1  0  0  0  0
 27 20  1  0  0  0  0
M  END
>  <MODEL>
6

>  <REMARK>
 VINA RESULT:      -8.9      3.467      8.554
  Name = 
  2 active torsions:
  status: ('A' for Active; 'I' for Inactive)
    1  A    between atoms: C_8  and  N_18
    2  A    between atoms: C_14  and  C_26
                            x       y       z     vdW  Elec       q    Type
                         _______ _______ _______ _____ _____    ______ ____

>  <TORSDO>
F 2

$$$$
=
 OpenBabel11072413173D

 27 31  0  0  1  0  0  0  0  0999 V2000
  161.0750  206.7330  148.8210 C   0  0  0  0  0  3  0  0  0  0  0  0
  161.0670  207.6030  151.0520 N   0  0  0  0  0  0  0  0  0  0  0  0
  161.2060  206.1920  154.2610 N   0  0  0  0  0  0  0  0  0  0  0  0
  161.1370  207.4830  154.5880 N   0  0  0  0  0  2  0  0  0  0  0  0
  161.1060  207.3690  152.3870 C   0  0  0  0  0  0  0  0  0  0  0  0
  161.1870  206.1200  152.9190 C   0  0  0  0  0  0  0  0  0  0  0  0
  161.2440  204.1180  149.8410 C   0  0  0  0  0  3  0  0  0  0  0  0
  161.1220  205.6380  147.9530 C   0  0  0  0  0  3  0  0  0  0  0  0
  161.2500  203.2570  147.5890 O   0  0  0  0  0  1  0  0  0  0  0  0
  161.2370  204.9900  152.1120 C   0  0  0  0  0  3  0  0  0  0  0  0
  161.2050  204.3360  148.4610 C   0  0  0  0  0  0  0  0  0  0  0  0
  161.1990  205.2020  150.7210 C   0  0  0  0  0  0  0  0  0  0  0  0
  161.1130  206.5330  150.2030 C   0  0  0  0  0  0  0  0  0  0  0  0
  161.0760  208.2280  153.4560 C   0  0  0  0  0  0  0  0  0  0  0  0
  161.9560  210.4060  153.9070 N   0  0  0  0  0  2  0  0  0  0  0  0
  160.9890  209.6950  153.4250 C   0  0  0  0  0  0  0  0  0  0  0  0
  159.8280  210.3280  152.8790 N   0  0  0  0  0  2  0  0  0  0  0  0
  159.7950  213.7670  151.2130 C   0  0  0  0  0  2  0  0  0  0  0  0
  160.0770  212.2650  151.4000 C   0  0  0  0  0  2  0  0  0  0  0  0
  156.4640  212.7750  154.5260 C   0  0  2  0  0  3  0  0  0  0  0  0
  159.6680  211.7750  152.8000 C   0  0  1  0  0  3  0  0  0  0  0  0
  156.5020  213.3530  155.9260 C   0  0  0  0  0  1  0  0  0  0  0  0
  157.6110  211.7800  154.3520 C   0  0  0  0  0  2  0  0  0  0  0  0
  158.0710  213.6360  152.9720 C   0  0  2  0  0  3  0  0  0  0  0  0
  158.3410  214.1190  151.5580 C   0  0  0  0  0  2  0  0  0  0  0  0
  158.2060  212.1430  153.0140 C   0  0  1  0  0  3  0  0  0  0  0  0
  156.6790  213.8840  153.4950 C   0  0  0  0  0  2  0  0  0  0  0  0
  1 13  1  0  0  0  0
  2  5  1  0  0  0  0
  3  4  1  0  0  0  0
  5  6  1  0  0  0  0
  5 14  2  0  0  0  0
  6  3  2  0  0  0  0
  7 12  1  0  0  0  0
  8 11  1  0  0  0  0
  8  1  2  0  0  0  0
  9 11  1  0  0  0  0
 10  6  1  0  0  0  0
 11  7  2  0  0  0  0
 12 10  2  0  0  0  0
 13 12  1  0  0  0  0
 13  2  2  0  0  0  0
 14  4  1  0  0  0  0
 16 14  1  0  0  0  0
 16 15  2  0  0  0  0
 17 16  1  0  0  0  0
 18 19  1  0  0  0  0
 18 25  1  0  0  0  0
 19 21  1  0  0  0  0
 20 22  1  1  0  0  0
 21 17  1  6  0  0  0
 21 26  1  0  0  0  0
 23 20  1  0  0  0  0
 24 25  1  6  0  0  0
 24 26  1  0  0  0  0
 24 27  1  0  0  0  0
 26 23  1  1  0  0  0
 27 20  1  0  0  0  0
M  END
>  <MODEL>
7

>  <REMARK>
 VINA RESULT:      -8.8      2.474      4.002
  Name = 
  2 active torsions:
  status: ('A' for Active; 'I' for Inactive)
    1  A    between atoms: C_8  and  N_18
    2  A    between atoms: C_14  and  C_26
                            x       y       z     vdW  Elec       q    Type
                         _______ _______ _______ _____ _____    ______ ____

>  <TORSDO>
F 2

$$$$
=
 OpenBabel11072413173D

 27 31  0  0  1  0  0  0  0  0999 V2000
  159.5670  211.9450  152.3910 C   0  0  0  0  0  3  0  0  0  0  0  0
  160.4300  209.7130  152.4240 N   0  0  0  0  0  0  0  0  0  0  0  0
  161.2810  207.4220  154.9420 N   0  0  0  0  0  0  0  0  0  0  0  0
  161.5800  206.6930  153.8660 N   0  0  0  0  0  0  0  0  0  0  0  0
  160.8350  208.6370  153.1440 C   0  0  0  0  0  0  0  0  0  0  0  0
  160.8260  208.6090  154.5030 C   0  0  2  0  0  3  0  0  0  0  0  0
  159.5160  211.9670  155.2030 C   0  0  0  0  0  3  0  0  0  0  0  0
  159.1190  213.0760  153.0810 C   0  0  0  0  0  3  0  0  0  0  0  0
  158.6470  214.2160  155.1540 O   0  0  0  0  0  1  0  0  0  0  0  0
  160.3930  209.6990  155.2480 C   0  0  0  0  0  3  0  0  0  0  0  0
  159.0930  213.0870  154.4810 C   0  0  0  0  0  0  0  0  0  0  0  0
  159.9660  210.8300  154.5280 C   0  0  0  0  0  0  0  0  0  0  0  0
  159.9920  210.8180  153.0980 C   0  0  0  0  0  0  0  0  0  0  0  0
  161.3160  207.4140  152.7480 C   0  0  0  0  0  0  0  0  0  0  0  0
  162.7120  206.9470  150.8640 N   0  0  0  0  0  2  0  0  0  0  0  0
  161.5250  206.9340  151.3750 C   0  0  0  0  0  0  0  0  0  0  0  0
  160.4100  206.4720  150.6050 N   0  0  0  0  0  2  0  0  0  0  0  0
  161.7250  206.3460  147.0200 C   0  0  0  0  0  2  0  0  0  0  0  0
  161.4460  206.9030  148.4280 C   0  0  0  0  0  2  0  0  0  0  0  0
  160.8940  202.2140  149.3200 C   0  0  2  0  0  3  0  0  0  0  0  0
  160.5320  205.9700  149.2420 C   0  0  1  0  0  3  0  0  0  0  0  0
  159.7050  201.3280  149.0110 C   0  0  0  0  0  1  0  0  0  0  0  0
  160.4130  203.5050  149.9820 C   0  0  0  0  0  2  0  0  0  0  0  0
  161.2500  204.0740  147.8520 C   0  0  2  0  0  3  0  0  0  0  0  0
  162.2530  204.9060  147.0730 C   0  0  0  0  0  2  0  0  0  0  0  0
  161.1720  204.5890  149.2580 C   0  0  1  0  0  3  0  0  0  0  0  0
  161.5980  202.6170  148.0230 C   0  0  0  0  0  2  0  0  0  0  0  0
  1  8  2  0  0  0  0
  1 13  1  0  0  0  0
  2 13  2  0  0  0  0
  2  5  1  0  0  0  0
  4  3  2  0  0  0  0
  5  6  1  0  0  0  0
  6  3  1  0  0  0  0
  6 10  1  1  0  0  0
  8 11  1  0  0  0  0
 11  9  1  0  0  0  0
 11  7  2  0  0  0  0
 12  7  1  0  0  0  0
 12 10  2  0  0  0  0
 13 12  1  0  0  0  0
 14  5  2  0  0  0  0
 14  4  1  0  0  0  0
 15 16  2  0  0  0  0
 16 14  1  0  0  0  0
 17 16  1  0  0  0  0
 18 25  1  0  0  0  0
 18 19  1  0  0  0  0
 19 21  1  0  0  0  0
 20 22  1  6  0  0  0
 20 23  1  0  0  0  0
 21 26  1  0  0  0  0
 21 17  1  1  0  0  0
 24 25  1  6  0  0  0
 24 27  1  0  0  0  0
 24 26  1  0  0  0  0
 26 23  1  1  0  0  0
 27 20  1  0  0  0  0
M  END
>  <MODEL>
8

>  <REMARK>
 VINA RESULT:      -8.6      3.584      8.729
  Name = 
  2 active torsions:
  status: ('A' for Active; 'I' for Inactive)
    1  A    between atoms: C_8  and  N_18
    2  A    between atoms: C_14  and  C_26
                            x       y       z     vdW  Elec       q    Type
                         _______ _______ _______ _____ _____    ______ ____

>  <TORSDO>
F 2

$$$$
=
 OpenBabel11072413173D

 27 31  0  0  1  0  0  0  0  0999 V2000
  160.4600  204.1110  151.1600 C   0  0  0  0  0  3  0  0  0  0  0  0
  160.8140  206.4100  151.7260 N   0  0  0  0  0  0  0  0  0  0  0  0
  162.0010  209.2300  150.0090 N   0  0  0  0  0  0  0  0  0  0  0  0
  161.7580  209.7790  151.2000 N   0  0  0  0  0  2  0  0  0  0  0  0
  161.2170  207.6480  151.3470 C   0  0  0  0  0  0  0  0  0  0  0  0
  161.6720  207.9290  150.0970 C   0  0  0  0  0  0  0  0  0  0  0  0
  161.3870  204.6110  148.5520 C   0  0  0  0  0  3  0  0  0  0  0  0
  160.5150  203.0780  150.2190 C   0  0  0  0  0  3  0  0  0  0  0  0
  161.0260  202.2920  147.9970 O   0  0  0  0  0  1  0  0  0  0  0  0
  161.7510  206.9480  149.1160 C   0  0  0  0  0  3  0  0  0  0  0  0
  160.9760  203.3260  148.9210 C   0  0  0  0  0  0  0  0  0  0  0  0
  161.3390  205.6530  149.4810 C   0  0  0  0  0  0  0  0  0  0  0  0
  160.8670  205.4000  150.8070 C   0  0  0  0  0  0  0  0  0  0  0  0
  161.2750  208.8310  152.0400 C   0  0  0  0  0  0  0  0  0  0  0  0
  161.1520  208.1720  154.3360 N   0  0  0  0  0  2  0  0  0  0  0  0
  160.8970  209.0690  153.4410 C   0  0  0  0  0  0  0  0  0  0  0  0
  160.2320  210.2840  153.8010 N   0  0  0  0  0  2  0  0  0  0  0  0
  160.4820  211.9600  157.2260 C   0  0  0  0  0  2  0  0  0  0  0  0
  160.9140  211.4750  155.8300 C   0  0  0  0  0  2  0  0  0  0  0  0
  156.1460  211.4050  155.2380 C   0  0  2  0  0  3  0  0  0  0  0  0
  159.8340  210.6030  155.1660 C   0  0  1  0  0  3  0  0  0  0  0  0
  155.1510  210.3680  155.7170 C   0  0  0  0  0  1  0  0  0  0  0  0
  157.3300  210.7070  154.5680 C   0  0  0  0  0  2  0  0  0  0  0  0
  158.1230  211.6800  156.5640 C   0  0  2  0  0  3  0  0  0  0  0  0
  159.1110  212.6490  157.1890 C   0  0  0  0  0  2  0  0  0  0  0  0
  158.5370  211.4000  155.1510 C   0  0  1  0  0  3  0  0  0  0  0  0
  156.7070  212.1830  156.4300 C   0  0  0  0  0  2  0  0  0  0  0  0
  3  6  2  0  0  0  0
  3  4  1  0  0  0  0
  4 14  1  0  0  0  0
  5  2  1  0  0  0  0
  5 14  2  0  0  0  0
  6  5  1  0  0  0  0
  7 11  2  0  0  0  0
  7 12  1  0  0  0  0
  8  1  2  0  0  0  0
  9 11  1  0  0  0  0
 10 12  2  0  0  0  0
 10  6  1  0  0  0  0
 11  8  1  0  0  0  0
 12 13  1  0  0  0  0
 13  1  1  0  0  0  0
 13  2  2  0  0  0  0
 14 16  1  0  0  0  0
 16 17  1  0  0  0  0
 16 15  2  0  0  0  0
 19 18  1  0  0  0  0
 20 22  1  1  0  0  0
 20 27  1  0  0  0  0
 21 17  1  6  0  0  0
 21 19  1  0  0  0  0
 23 20  1  0  0  0  0
 24 27  1  6  0  0  0
 24 25  1  0  0  0  0
 25 18  1  0  0  0  0
 26 23  1  1  0  0  0
 26 21  1  0  0  0  0
 26 24  1  0  0  0  0
M  END
>  <MODEL>
9

>  <REMARK>
 VINA RESULT:      -8.2      2.512      4.326
  Name = 
  2 active torsions:
  status: ('A' for Active; 'I' for Inactive)
    1  A    between atoms: C_8  and  N_18
    2  A    between atoms: C_14  and  C_26
                            x       y       z     vdW  Elec       q    Type
                         _______ _______ _______ _____ _____    ______ ____

>  <TORSDO>
F 2

$$$$
