=
 OpenBabel11072414253D

 26 30  0  0  1  0  0  0  0  0999 V2000
  160.3080  211.9230  154.3550 C   0  0  0  0  0  0  0  0  0  0  0  0
  162.2310  209.4410  148.7480 C   0  0  0  0  0  3  0  0  0  0  0  0
  162.6200  208.1510  148.8750 N   0  0  0  0  0  0  0  0  0  0  0  0
  161.6340  209.4650  151.0930 C   0  0  0  0  0  0  0  0  0  0  0  0
  161.9000  210.7220  155.9090 C   0  0  0  0  0  2  0  0  0  0  0  0
  159.8960  212.7330  155.4090 O   0  0  0  0  0  1  0  0  0  0  0  0
  160.3830  208.6610  156.0240 C   0  0  0  0  0  2  0  0  0  0  0  0
  161.3300  210.9810  154.5510 C   0  0  0  0  0  0  0  0  0  0  0  0
  160.1400  211.2240  152.0410 C   0  0  0  0  0  3  0  0  0  0  0  0
  160.6910  207.3350  153.1700 N   0  0  2  0  0  0  0  0  0  0  0  0
  161.7340  210.1130  149.8550 C   0  0  0  0  0  3  0  0  0  0  0  0
  160.8350  206.2910  152.1190 C   0  0  1  0  0  3  0  0  0  0  0  0
  161.7500  210.1710  153.4910 C   0  0  0  0  0  3  0  0  0  0  0  0
  160.9590  209.8660  156.7670 C   0  0  0  0  0  2  0  0  0  0  0  0
  161.4880  207.7690  155.4830 C   0  0  0  0  0  2  0  0  0  0  0  0
  162.5210  207.5100  150.0400 N   0  0  0  0  0  0  0  0  0  0  0  0
  161.9420  207.2140  152.3880 C   0  0  1  0  0  3  0  0  0  0  0  0
  159.7000  212.0390  153.0920 C   0  0  0  0  0  0  0  0  0  0  0  0
  161.1500  210.2700  152.2360 C   0  0  0  0  0  0  0  0  0  0  0  0
  160.9130  206.7610  154.5060 C   0  0  0  0  0  2  0  0  0  0  0  0
  162.0280  208.1000  151.1640 C   0  0  0  0  0  0  0  0  0  0  0  0
  158.6350  213.0650  152.8360 C   0  0  2  0  0  3  0  0  0  0  0  0
  158.2750  213.0400  151.4730 O   0  0  0  0  0  0  0  0  0  0  0  0
  159.1030  214.0990  151.8820 C   0  0  0  0  0  2  0  0  0  0  0  0
  161.2250  204.8820  152.5800 C   0  0  0  0  0  2  0  0  0  0  0  0
  161.6910  204.1490  151.4900 O   0  0  0  0  0  1  0  0  0  0  0  0
  1  8  1  0  0  0  0
  1  6  1  0  0  0  0
  2  3  2  0  0  0  0
  2 11  1  0  0  0  0
  3 16  1  0  0  0  0
  4 21  1  0  0  0  0
  4 19  1  0  0  0  0
  5 14  1  0  0  0  0
  7 14  1  0  0  0  0
  8  5  1  0  0  0  0
  9 19  2  0  0  0  0
  9 18  1  0  0  0  0
 10 20  1  1  0  0  0
 11  4  2  0  0  0  0
 12 17  1  0  0  0  0
 12 25  1  1  0  0  0
 12 10  1  0  0  0  0
 13  8  2  0  0  0  0
 15  7  1  0  0  0  0
 16 21  2  0  0  0  0
 17 21  1  6  0  0  0
 17 10  1  0  0  0  0
 18  1  2  0  0  0  0
 19 13  1  0  0  0  0
 20 15  1  0  0  0  0
 22 18  1  6  0  0  0
 23 24  1  0  0  0  0
 23 22  1  0  0  0  0
 24 22  1  0  0  0  0
 26 25  1  0  0  0  0
M  END
>  <MODEL>
1

>  <REMARK>
 VINA RESULT:      -6.8      0.000      0.000
  Name = 
  2 active torsions:
  status: ('A' for Active; 'I' for Inactive)
    1  A    between atoms: C_10  and  C_15
    2  A    between atoms: C_12  and  C_22
                            x       y       z     vdW  Elec       q    Type
                         _______ _______ _______ _____ _____    ______ ____

>  <TORSDO>
F 2

$$$$
=
 OpenBabel11072414253D

 26 30  0  0  1  0  0  0  0  0999 V2000
  160.0220  210.7670  154.7970 C   0  0  0  0  0  0  0  0  0  0  0  0
  162.1330  210.0410  148.7710 C   0  0  0  0  0  3  0  0  0  0  0  0
  162.6220  208.7980  148.5550 N   0  0  0  0  0  0  0  0  0  0  0  0
  161.5370  209.3870  151.0230 C   0  0  0  0  0  0  0  0  0  0  0  0
  161.7030  209.3150  156.0050 C   0  0  0  0  0  2  0  0  0  0  0  0
  159.5470  211.2290  156.0220 O   0  0  0  0  0  1  0  0  0  0  0  0
  160.3520  207.1910  155.5290 C   0  0  0  0  0  2  0  0  0  0  0  0
  161.1150  209.8860  154.7540 C   0  0  0  0  0  0  0  0  0  0  0  0
  159.9090  210.7070  152.3770 C   0  0  0  0  0  3  0  0  0  0  0  0
  160.7640  206.7100  152.4310 N   0  0  2  0  0  0  0  0  0  0  0  0
  161.5850  210.3500  150.0080 C   0  0  0  0  0  3  0  0  0  0  0  0
  160.9890  206.0020  151.1420 C   0  0  1  0  0  3  0  0  0  0  0  0
  161.5970  209.4270  153.5250 C   0  0  0  0  0  3  0  0  0  0  0  0
  160.8330  208.1910  156.5810 C   0  0  0  0  0  2  0  0  0  0  0  0
  161.5240  206.5640  154.7920 C   0  0  0  0  0  2  0  0  0  0  0  0
  162.5740  207.8610  149.5020 N   0  0  0  0  0  0  0  0  0  0  0  0
  162.0200  206.9000  151.6720 C   0  0  1  0  0  3  0  0  0  0  0  0
  159.4070  211.1730  153.5990 C   0  0  0  0  0  0  0  0  0  0  0  0
  160.9910  209.8150  152.3300 C   0  0  0  0  0  0  0  0  0  0  0  0
  161.0290  205.8160  153.5680 C   0  0  0  0  0  2  0  0  0  0  0  0
  162.0360  208.0870  150.7340 C   0  0  0  0  0  0  0  0  0  0  0  0
  158.2650  212.1460  153.6070 C   0  0  2  0  0  3  0  0  0  0  0  0
  158.1910  212.7950  152.3570 O   0  0  0  0  0  0  0  0  0  0  0  0
  158.7420  213.5370  153.4150 C   0  0  0  0  0  2  0  0  0  0  0  0
  161.4880  204.5550  151.2150 C   0  0  0  0  0  2  0  0  0  0  0  0
  160.5020  203.6980  150.7280 O   0  0  0  0  0  1  0  0  0  0  0  0
  1  6  1  0  0  0  0
  2 11  1  0  0  0  0
  3  2  2  0  0  0  0
  3 16  1  0  0  0  0
  4 19  1  0  0  0  0
  5 14  1  0  0  0  0
  7 14  1  0  0  0  0
  8  1  1  0  0  0  0
  8  5  1  0  0  0  0
  9 18  1  0  0  0  0
 10 20  1  1  0  0  0
 11  4  2  0  0  0  0
 12 25  1  1  0  0  0
 12 17  1  0  0  0  0
 12 10  1  0  0  0  0
 13  8  2  0  0  0  0
 15  7  1  0  0  0  0
 16 21  2  0  0  0  0
 17 21  1  6  0  0  0
 17 10  1  0  0  0  0
 18  1  2  0  0  0  0
 19  9  2  0  0  0  0
 19 13  1  0  0  0  0
 20 15  1  0  0  0  0
 21  4  1  0  0  0  0
 22 18  1  6  0  0  0
 23 24  1  0  0  0  0
 23 22  1  0  0  0  0
 24 22  1  0  0  0  0
 26 25  1  0  0  0  0
M  END
>  <MODEL>
2

>  <REMARK>
 VINA RESULT:      -6.6      1.016      1.122
  Name = 
  2 active torsions:
  status: ('A' for Active; 'I' for Inactive)
    1  A    between atoms: C_10  and  C_15
    2  A    between atoms: C_12  and  C_22
                            x       y       z     vdW  Elec       q    Type
                         _______ _______ _______ _____ _____    ______ ____

>  <TORSDO>
F 2

$$$$
=
 OpenBabel11072414253D

 26 30  0  0  1  0  0  0  0  0999 V2000
  158.9880  211.0340  155.5140 C   0  0  0  0  0  0  0  0  0  0  0  0
  161.3970  212.0180  149.6390 C   0  0  0  0  0  3  0  0  0  0  0  0
  162.1490  210.9730  149.2210 N   0  0  0  0  0  0  0  0  0  0  0  0
  160.8840  210.8040  151.6680 C   0  0  0  0  0  0  0  0  0  0  0  0
  160.9030  209.7380  156.5370 C   0  0  0  0  0  2  0  0  0  0  0  0
  158.3870  211.1250  156.7660 O   0  0  0  0  0  1  0  0  0  0  0  0
  160.0570  207.5280  155.5550 C   0  0  0  0  0  2  0  0  0  0  0  0
  160.2460  210.4240  155.3820 C   0  0  0  0  0  0  0  0  0  0  0  0
  158.9680  211.4550  153.1280 C   0  0  0  0  0  3  0  0  0  0  0  0
  160.6600  207.7940  152.4630 N   0  0  2  0  0  0  0  0  0  0  0  0
  160.7570  211.9470  150.8680 C   0  0  0  0  0  3  0  0  0  0  0  0
  161.0730  207.4300  151.0810 C   0  0  1  0  0  3  0  0  0  0  0  0
  160.8550  210.3370  154.1260 C   0  0  0  0  0  3  0  0  0  0  0  0
  160.2770  208.3650  156.8150 C   0  0  0  0  0  2  0  0  0  0  0  0
  161.3580  207.3210  154.8000 C   0  0  0  0  0  2  0  0  0  0  0  0
  162.2740  209.8710  149.9600 N   0  0  0  0  0  0  0  0  0  0  0  0
  161.8700  208.3890  151.8520 C   0  0  1  0  0  3  0  0  0  0  0  0
  158.3390  211.5450  154.3760 C   0  0  0  0  0  0  0  0  0  0  0  0
  160.2180  210.8320  152.9890 C   0  0  0  0  0  0  0  0  0  0  0  0
  161.0760  206.7570  153.4200 C   0  0  0  0  0  2  0  0  0  0  0  0
  161.6610  209.7230  151.1680 C   0  0  0  0  0  0  0  0  0  0  0  0
  157.0150  212.2410  154.4880 C   0  0  2  0  0  3  0  0  0  0  0  0
  156.9020  213.2060  153.4650 O   0  0  0  0  0  0  0  0  0  0  0  0
  157.1900  213.6900  154.7520 C   0  0  0  0  0  2  0  0  0  0  0  0
  161.8700  206.1320  150.9060 C   0  0  0  0  0  2  0  0  0  0  0  0
  161.0970  205.2020  150.2120 O   0  0  0  0  0  1  0  0  0  0  0  0
  1  6  1  0  0  0  0
  2 11  1  0  0  0  0
  3  2  2  0  0  0  0
  3 16  1  0  0  0  0
  4 19  1  0  0  0  0
  5 14  1  0  0  0  0
  7 14  1  0  0  0  0
  8  1  1  0  0  0  0
  8  5  1  0  0  0  0
  9 18  1  0  0  0  0
 10 20  1  1  0  0  0
 11  4  2  0  0  0  0
 12 25  1  1  0  0  0
 12 17  1  0  0  0  0
 12 10  1  0  0  0  0
 13  8  2  0  0  0  0
 15  7  1  0  0  0  0
 16 21  2  0  0  0  0
 17 21  1  6  0  0  0
 17 10  1  0  0  0  0
 18  1  2  0  0  0  0
 19  9  2  0  0  0  0
 19 13  1  0  0  0  0
 20 15  1  0  0  0  0
 21  4  1  0  0  0  0
 22 18  1  6  0  0  0
 22 24  1  0  0  0  0
 23 22  1  0  0  0  0
 23 24  1  0  0  0  0
 26 25  1  0  0  0  0
M  END
>  <MODEL>
3

>  <REMARK>
 VINA RESULT:      -6.0      1.632      1.963
  Name = 
  2 active torsions:
  status: ('A' for Active; 'I' for Inactive)
    1  A    between atoms: C_10  and  C_15
    2  A    between atoms: C_12  and  C_22
                            x       y       z     vdW  Elec       q    Type
                         _______ _______ _______ _____ _____    ______ ____

>  <TORSDO>
F 2

$$$$
=
 OpenBabel11072414253D

 26 30  0  0  1  0  0  0  0  0999 V2000
  161.8720  208.7530  149.5950 C   0  0  0  0  0  0  0  0  0  0  0  0
  160.6700  207.6950  155.8180 C   0  0  0  0  0  3  0  0  0  0  0  0
  160.2210  208.8100  156.4410 N   0  0  0  0  0  0  0  0  0  0  0  0
  160.7230  208.9150  153.7300 C   0  0  0  0  0  0  0  0  0  0  0  0
  162.7060  211.1360  149.7320 C   0  0  0  0  0  2  0  0  0  0  0  0
  162.2660  208.6960  148.2610 O   0  0  0  0  0  1  0  0  0  0  0  0
  160.3230  212.0730  149.6800 C   0  0  0  0  0  2  0  0  0  0  0  0
  162.1350  209.9030  150.3560 C   0  0  0  0  0  0  0  0  0  0  0  0
  160.8310  207.7370  151.5330 C   0  0  0  0  0  3  0  0  0  0  0  0
  159.1570  211.3310  152.5240 N   0  0  2  0  0  0  0  0  0  0  0  0
  160.9270  207.7350  154.4550 C   0  0  0  0  0  3  0  0  0  0  0  0
  158.4160  211.4530  153.8090 C   0  0  1  0  0  3  0  0  0  0  0  0
  161.7460  209.9600  151.6980 C   0  0  0  0  0  3  0  0  0  0  0  0
  161.6500  211.9140  148.9380 C   0  0  0  0  0  2  0  0  0  0  0  0
  160.5230  212.7610  151.0200 C   0  0  0  0  0  2  0  0  0  0  0  0
  160.0070  209.9400  155.7680 N   0  0  0  0  0  0  0  0  0  0  0  0
  159.8810  211.3900  153.8130 C   0  0  1  0  0  3  0  0  0  0  0  0
  161.2060  207.6640  150.1850 C   0  0  0  0  0  0  0  0  0  0  0  0
  161.0770  208.8900  152.2930 C   0  0  0  0  0  0  0  0  0  0  0  0
  159.2660  212.6390  151.8610 C   0  0  0  0  0  2  0  0  0  0  0  0
  160.2210  210.0490  154.4260 C   0  0  0  0  0  0  0  0  0  0  0  0
  160.9480  206.4040  149.4130 C   0  0  2  0  0  3  0  0  0  0  0  0
  160.2110  205.5050  150.2110 O   0  0  0  0  0  0  0  0  0  0  0  0
  161.5810  205.2330  150.0680 C   0  0  0  0  0  2  0  0  0  0  0  0
  157.9670  212.8570  154.2280 C   0  0  0  0  0  2  0  0  0  0  0  0
  156.5750  212.9090  154.2610 O   0  0  0  0  0  1  0  0  0  0  0  0
  1 18  2  0  0  0  0
  1  8  1  0  0  0  0
  2  3  1  0  0  0  0
  4 21  2  0  0  0  0
  4 11  1  0  0  0  0
  5  8  1  0  0  0  0
  6  1  1  0  0  0  0
  7 15  1  0  0  0  0
  8 13  2  0  0  0  0
  9 19  2  0  0  0  0
 10 20  1  6  0  0  0
 10 12  1  0  0  0  0
 10 17  1  0  0  0  0
 11  2  2  0  0  0  0
 12 17  1  0  0  0  0
 12 25  1  6  0  0  0
 13 19  1  0  0  0  0
 14  7  1  0  0  0  0
 14  5  1  0  0  0  0
 15 20  1  0  0  0  0
 16  3  2  0  0  0  0
 17 21  1  1  0  0  0
 18  9  1  0  0  0  0
 19  4  1  0  0  0  0
 21 16  1  0  0  0  0
 22 24  1  0  0  0  0
 22 18  1  1  0  0  0
 22 23  1  0  0  0  0
 24 23  1  0  0  0  0
 25 26  1  0  0  0  0
M  END
>  <MODEL>
4

>  <REMARK>
 VINA RESULT:      -5.2      2.421      6.553
  Name = 
  2 active torsions:
  status: ('A' for Active; 'I' for Inactive)
    1  A    between atoms: C_10  and  C_15
    2  A    between atoms: C_12  and  C_22
                            x       y       z     vdW  Elec       q    Type
                         _______ _______ _______ _____ _____    ______ ____

>  <TORSDO>
F 2

$$$$
=
 OpenBabel11072414253D

 26 30  0  0  1  0  0  0  0  0999 V2000
  161.5170  203.5720  147.6270 C   0  0  0  0  0  0  0  0  0  0  0  0
  161.5810  209.8050  149.1930 C   0  0  0  0  0  3  0  0  0  0  0  0
  161.3300  209.9960  150.5100 N   0  0  0  0  0  0  0  0  0  0  0  0
  161.4790  207.4130  149.5480 C   0  0  0  0  0  0  0  0  0  0  0  0
  159.7060  202.7680  149.1980 C   0  0  0  0  0  2  0  0  0  0  0  0
  161.5110  202.3340  146.9920 O   0  0  0  0  0  1  0  0  0  0  0  0
  161.3650  202.5140  151.1320 C   0  0  0  0  0  2  0  0  0  0  0  0
  160.6020  203.8370  148.6590 C   0  0  0  0  0  0  0  0  0  0  0  0
  162.4180  205.8070  147.8860 C   0  0  0  0  0  3  0  0  0  0  0  0
  162.0430  205.4930  151.9440 N   0  0  2  0  0  0  0  0  0  0  0  0
  161.6570  208.5110  148.6970 C   0  0  0  0  0  3  0  0  0  0  0  0
  162.3310  206.6830  152.7900 C   0  0  1  0  0  3  0  0  0  0  0  0
  160.6020  205.0830  149.2940 C   0  0  0  0  0  3  0  0  0  0  0  0
  160.4600  201.8060  150.1240 C   0  0  0  0  0  2  0  0  0  0  0  0
  160.5760  203.4890  151.9890 C   0  0  0  0  0  2  0  0  0  0  0  0
  161.1710  208.9650  151.3410 N   0  0  0  0  0  0  0  0  0  0  0  0
  161.0910  206.6240  152.0110 C   0  0  1  0  0  3  0  0  0  0  0  0
  162.4390  204.5620  147.2430 C   0  0  0  0  0  0  0  0  0  0  0  0
  161.5170  206.0700  148.9290 C   0  0  0  0  0  0  0  0  0  0  0  0
  161.5220  204.3880  152.7620 C   0  0  0  0  0  2  0  0  0  0  0  0
  161.2490  207.6690  150.9280 C   0  0  0  0  0  0  0  0  0  0  0  0
  163.4010  204.3280  146.1160 C   0  0  2  0  0  3  0  0  0  0  0  0
  163.4070  205.4510  145.2620 O   0  0  0  0  0  0  0  0  0  0  0  0
  162.7040  204.3240  144.8070 C   0  0  0  0  0  2  0  0  0  0  0  0
  161.9990  206.5780  154.2820 C   0  0  0  0  0  2  0  0  0  0  0  0
  160.8730  207.3500  154.5640 O   0  0  0  0  0  1  0  0  0  0  0  0
  1  8  1  0  0  0  0
  2  3  1  0  0  0  0
  3 16  2  0  0  0  0
  4 21  2  0  0  0  0
  5 14  1  0  0  0  0
  6  1  1  0  0  0  0
  7 15  1  0  0  0  0
  8  5  1  0  0  0  0
  8 13  2  0  0  0  0
  9 19  2  0  0  0  0
 10 17  1  0  0  0  0
 10 20  1  1  0  0  0
 10 12  1  0  0  0  0
 11  2  2  0  0  0  0
 11  4  1  0  0  0  0
 12 25  1  1  0  0  0
 14  7  1  0  0  0  0
 15 20  1  0  0  0  0
 17 21  1  6  0  0  0
 17 12  1  0  0  0  0
 18  1  2  0  0  0  0
 18  9  1  0  0  0  0
 19 13  1  0  0  0  0
 19  4  1  0  0  0  0
 21 16  1  0  0  0  0
 22 18  1  1  0  0  0
 23 22  1  0  0  0  0
 24 23  1  0  0  0  0
 24 22  1  0  0  0  0
 25 26  1  0  0  0  0
M  END
>  <MODEL>
5

>  <REMARK>
 VINA RESULT:      -5.1      3.672      7.393
  Name = 
  2 active torsions:
  status: ('A' for Active; 'I' for Inactive)
    1  A    between atoms: C_10  and  C_15
    2  A    between atoms: C_12  and  C_22
                            x       y       z     vdW  Elec       q    Type
                         _______ _______ _______ _____ _____    ______ ____

>  <TORSDO>
F 2

$$$$
=
 OpenBabel11072414253D

 26 30  0  0  1  0  0  0  0  0999 V2000
  160.8250  207.5020  153.9880 C   0  0  0  0  0  0  0  0  0  0  0  0
  162.3470  211.4700  149.1680 C   0  0  0  0  0  3  0  0  0  0  0  0
  162.5570  210.8000  148.0110 N   0  0  0  0  0  0  0  0  0  0  0  0
  161.7770  209.3800  150.2450 C   0  0  0  0  0  0  0  0  0  0  0  0
  162.2480  205.5110  153.3540 C   0  0  0  0  0  2  0  0  0  0  0  0
  160.5350  206.9010  155.2100 O   0  0  0  0  0  1  0  0  0  0  0  0
  160.4640  204.6290  151.7410 C   0  0  0  0  0  2  0  0  0  0  0  0
  161.7100  206.8820  153.0920 C   0  0  0  0  0  0  0  0  0  0  0  0
  160.5450  209.3230  152.4140 C   0  0  0  0  0  3  0  0  0  0  0  0
  160.5670  206.6560  149.3180 N   0  0  2  0  0  0  0  0  0  0  0  0
  161.9560  210.7680  150.2990 C   0  0  0  0  0  3  0  0  0  0  0  0
  160.5580  207.1710  147.9210 C   0  0  1  0  0  3  0  0  0  0  0  0
  162.0070  207.4870  151.8680 C   0  0  0  0  0  3  0  0  0  0  0  0
  161.2060  204.4240  153.0620 C   0  0  0  0  0  2  0  0  0  0  0  0
  161.4320  204.6950  150.5730 C   0  0  0  0  0  2  0  0  0  0  0  0
  162.3800  209.4810  147.9340 N   0  0  0  0  0  0  0  0  0  0  0  0
  161.7830  207.2540  148.7220 C   0  0  1  0  0  3  0  0  0  0  0  0
  160.2290  208.7280  153.6430 C   0  0  0  0  0  0  0  0  0  0  0  0
  161.4160  208.6990  151.5090 C   0  0  0  0  0  0  0  0  0  0  0  0
  160.7170  205.1930  149.3310 C   0  0  0  0  0  2  0  0  0  0  0  0
  161.9810  208.7290  148.9980 C   0  0  0  0  0  0  0  0  0  0  0  0
  159.3130  209.4400  154.5950 C   0  0  2  0  0  3  0  0  0  0  0  0
  159.3510  210.8260  154.3380 O   0  0  0  0  0  0  0  0  0  0  0  0
  160.0630  210.3790  155.4630 C   0  0  0  0  0  2  0  0  0  0  0  0
  160.7540  206.1490  146.7970 C   0  0  0  0  0  2  0  0  0  0  0  0
  162.0720  206.2040  146.3430 O   0  0  0  0  0  1  0  0  0  0  0  0
  1  6  1  0  0  0  0
  2 11  1  0  0  0  0
  3  2  2  0  0  0  0
  4 11  2  0  0  0  0
  4 19  1  0  0  0  0
  7 14  1  0  0  0  0
  8  5  1  0  0  0  0
  8  1  2  0  0  0  0
  9 18  2  0  0  0  0
 10 20  1  6  0  0  0
 12 25  1  6  0  0  0
 12 17  1  0  0  0  0
 12 10  1  0  0  0  0
 13  8  1  0  0  0  0
 14  5  1  0  0  0  0
 15  7  1  0  0  0  0
 16  3  1  0  0  0  0
 16 21  2  0  0  0  0
 17 21  1  1  0  0  0
 17 10  1  0  0  0  0
 18  1  1  0  0  0  0
 19 13  2  0  0  0  0
 19  9  1  0  0  0  0
 20 15  1  0  0  0  0
 21  4  1  0  0  0  0
 22 18  1  6  0  0  0
 22 24  1  0  0  0  0
 23 22  1  0  0  0  0
 23 24  1  0  0  0  0
 26 25  1  0  0  0  0
M  END
>  <MODEL>
6

>  <REMARK>
 VINA RESULT:      -5.1      2.368      4.276
  Name = 
  2 active torsions:
  status: ('A' for Active; 'I' for Inactive)
    1  A    between atoms: C_10  and  C_15
    2  A    between atoms: C_12  and  C_22
                            x       y       z     vdW  Elec       q    Type
                         _______ _______ _______ _____ _____    ______ ____

>  <TORSDO>
F 2

$$$$
=
 OpenBabel11072414253D

 26 30  0  0  1  0  0  0  0  0999 V2000
  161.9130  209.0090  149.5280 C   0  0  0  0  0  0  0  0  0  0  0  0
  160.5440  209.5270  155.7860 C   0  0  0  0  0  3  0  0  0  0  0  0
  160.0610  210.7520  156.0960 N   0  0  0  0  0  0  0  0  0  0  0  0
  160.6400  210.1820  153.4590 C   0  0  0  0  0  0  0  0  0  0  0  0
  162.7060  211.3670  149.0800 C   0  0  0  0  0  2  0  0  0  0  0  0
  162.3470  208.6260  148.2620 O   0  0  0  0  0  1  0  0  0  0  0  0
  160.3110  212.2080  148.7350 C   0  0  0  0  0  2  0  0  0  0  0  0
  162.1360  210.3190  149.9810 C   0  0  0  0  0  0  0  0  0  0  0  0
  160.8310  208.4910  151.6340 C   0  0  0  0  0  3  0  0  0  0  0  0
  159.0740  212.1810  151.6440 N   0  0  2  0  0  0  0  0  0  0  0  0
  160.8410  209.2280  154.4640 C   0  0  0  0  0  3  0  0  0  0  0  0
  158.2940  212.6060  152.8380 C   0  0  1  0  0  3  0  0  0  0  0  0
  161.7070  210.7030  151.2550 C   0  0  0  0  0  3  0  0  0  0  0  0
  161.6620  211.8970  148.0890 C   0  0  0  0  0  2  0  0  0  0  0  0
  160.4610  213.2150  149.8620 C   0  0  0  0  0  2  0  0  0  0  0  0
  159.8490  211.6710  155.1540 N   0  0  0  0  0  0  0  0  0  0  0  0
  159.7580  212.5780  152.8940 C   0  0  1  0  0  3  0  0  0  0  0  0
  161.2470  208.0890  150.3580 C   0  0  0  0  0  0  0  0  0  0  0  0
  161.0370  209.8040  152.0840 C   0  0  0  0  0  0  0  0  0  0  0  0
  159.1820  213.2820  150.6750 C   0  0  0  0  0  2  0  0  0  0  0  0
  160.1010  211.4430  153.8340 C   0  0  0  0  0  0  0  0  0  0  0  0
  161.0310  206.6700  149.9230 C   0  0  2  0  0  3  0  0  0  0  0  0
  160.6190  205.8960  151.0270 O   0  0  0  0  0  0  0  0  0  0  0  0
  161.9560  205.7460  150.6240 C   0  0  0  0  0  2  0  0  0  0  0  0
  157.8110  214.0600  152.8780 C   0  0  0  0  0  2  0  0  0  0  0  0
  156.4180  214.0890  152.8280 O   0  0  0  0  0  1  0  0  0  0  0  0
  1  8  2  0  0  0  0
  1 18  1  0  0  0  0
  2  3  1  0  0  0  0
  4 21  2  0  0  0  0
  4 11  1  0  0  0  0
  5  8  1  0  0  0  0
  6  1  1  0  0  0  0
  7 15  1  0  0  0  0
  8 13  1  0  0  0  0
  9 19  1  0  0  0  0
 10 20  1  6  0  0  0
 10 12  1  0  0  0  0
 10 17  1  0  0  0  0
 11  2  2  0  0  0  0
 12 25  1  6  0  0  0
 12 17  1  0  0  0  0
 13 19  2  0  0  0  0
 14  7  1  0  0  0  0
 14  5  1  0  0  0  0
 15 20  1  0  0  0  0
 16  3  2  0  0  0  0
 17 21  1  1  0  0  0
 18  9  2  0  0  0  0
 19  4  1  0  0  0  0
 21 16  1  0  0  0  0
 22 18  1  1  0  0  0
 22 24  1  0  0  0  0
 22 23  1  0  0  0  0
 24 23  1  0  0  0  0
 26 25  1  0  0  0  0
M  END
>  <MODEL>
7

>  <REMARK>
 VINA RESULT:      -4.9      2.525      6.879
  Name = 
  2 active torsions:
  status: ('A' for Active; 'I' for Inactive)
    1  A    between atoms: C_10  and  C_15
    2  A    between atoms: C_12  and  C_22
                            x       y       z     vdW  Elec       q    Type
                         _______ _______ _______ _____ _____    ______ ____

>  <TORSDO>
F 2

$$$$
=
 OpenBabel11072414253D

 26 30  0  0  1  0  0  0  0  0999 V2000
  161.2970  208.1270  153.0060 C   0  0  0  0  0  0  0  0  0  0  0  0
  157.8360  213.3300  151.5050 C   0  0  0  0  0  3  0  0  0  0  0  0
  157.4820  214.0340  152.6050 N   0  0  0  0  0  0  0  0  0  0  0  0
  159.0720  211.7990  152.9140 C   0  0  0  0  0  0  0  0  0  0  0  0
  160.1950  207.5130  155.1970 C   0  0  0  0  0  2  0  0  0  0  0  0
  162.0010  206.9260  153.0280 O   0  0  0  0  0  1  0  0  0  0  0  0
  161.6570  209.1610  156.5040 C   0  0  0  0  0  2  0  0  0  0  0  0
  160.3600  208.4110  154.0130 C   0  0  0  0  0  0  0  0  0  0  0  0
  160.7950  210.2600  151.9720 C   0  0  0  0  0  3  0  0  0  0  0  0
  160.5370  211.9960  155.6630 N   0  0  2  0  0  0  0  0  0  0  0  0
  158.6340  212.2030  151.6460 C   0  0  0  0  0  3  0  0  0  0  0  0
  160.0890  213.4110  155.7660 C   0  0  1  0  0  3  0  0  0  0  0  0
  159.6480  209.6140  153.9890 C   0  0  0  0  0  3  0  0  0  0  0  0
  161.3290  207.6960  156.2140 C   0  0  0  0  0  2  0  0  0  0  0  0
  160.4330  209.9090  157.0060 C   0  0  0  0  0  2  0  0  0  0  0  0
  157.8990  213.6760  153.8200 N   0  0  0  0  0  0  0  0  0  0  0  0
  159.1150  212.3570  155.4680 C   0  0  1  0  0  3  0  0  0  0  0  0
  161.5240  209.0640  151.9820 C   0  0  0  0  0  0  0  0  0  0  0  0
  159.8690  210.5550  152.9840 C   0  0  0  0  0  0  0  0  0  0  0  0
  160.6960  211.4020  156.9990 C   0  0  0  0  0  2  0  0  0  0  0  0
  158.6970  212.5920  154.0330 C   0  0  0  0  0  0  0  0  0  0  0  0
  162.4860  208.7750  150.8680 C   0  0  2  0  0  3  0  0  0  0  0  0
  162.0650  209.4390  149.6970 O   0  0  0  0  0  0  0  0  0  0  0  0
  161.8190  208.0580  149.7540 C   0  0  0  0  0  2  0  0  0  0  0  0
  159.8280  213.9630  157.1710 C   0  0  0  0  0  2  0  0  0  0  0  0
  158.5200  214.4400  157.2480 O   0  0  0  0  0  1  0  0  0  0  0  0
  1  6  1  0  0  0  0
  1  8  1  0  0  0  0
  2 11  2  0  0  0  0
  2  3  1  0  0  0  0
  3 16  2  0  0  0  0
  4 19  1  0  0  0  0
  4 21  2  0  0  0  0
  5 14  1  0  0  0  0
  7 15  1  0  0  0  0
  8  5  1  0  0  0  0
  9 18  1  0  0  0  0
  9 19  2  0  0  0  0
 10 12  1  0  0  0  0
 10 20  1  1  0  0  0
 11  4  1  0  0  0  0
 12 25  1  1  0  0  0
 13  8  2  0  0  0  0
 14  7  1  0  0  0  0
 16 21  1  0  0  0  0
 17 21  1  6  0  0  0
 17 10  1  0  0  0  0
 17 12  1  0  0  0  0
 18  1  2  0  0  0  0
 19 13  1  0  0  0  0
 20 15  1  0  0  0  0
 22 18  1  1  0  0  0
 23 24  1  0  0  0  0
 23 22  1  0  0  0  0
 24 22  1  0  0  0  0
 25 26  1  0  0  0  0
M  END
>  <MODEL>
8

>  <REMARK>
 VINA RESULT:      -4.9      3.080      5.940
  Name = 
  2 active torsions:
  status: ('A' for Active; 'I' for Inactive)
    1  A    between atoms: C_10  and  C_15
    2  A    between atoms: C_12  and  C_22
                            x       y       z     vdW  Elec       q    Type
                         _______ _______ _______ _____ _____    ______ ____

>  <TORSDO>
F 2

$$$$
=
 OpenBabel11072414253D

 26 30  0  0  1  0  0  0  0  0999 V2000
  161.6700  208.4290  149.6840 C   0  0  0  0  0  0  0  0  0  0  0  0
  158.9800  212.3230  154.0310 C   0  0  0  0  0  3  0  0  0  0  0  0
  158.8420  211.7170  155.2330 N   0  0  0  0  0  0  0  0  0  0  0  0
  160.0690  210.3360  153.1830 C   0  0  0  0  0  0  0  0  0  0  0  0
  160.6770  206.2260  150.4280 C   0  0  0  0  0  2  0  0  0  0  0  0
  162.1700  207.8130  148.5400 O   0  0  0  0  0  1  0  0  0  0  0  0
  162.4940  205.8990  152.2040 C   0  0  0  0  0  2  0  0  0  0  0  0
  160.8820  207.6990  150.5880 C   0  0  0  0  0  0  0  0  0  0  0  0
  161.4320  210.3860  151.0940 C   0  0  0  0  0  3  0  0  0  0  0  0
  161.7790  208.0370  154.4200 N   0  0  2  0  0  0  0  0  0  0  0  0
  159.5940  211.6390  152.9910 C   0  0  0  0  0  3  0  0  0  0  0  0
  161.5770  208.6490  155.7620 C   0  0  1  0  0  3  0  0  0  0  0  0
  160.3740  208.3180  151.7340 C   0  0  0  0  0  3  0  0  0  0  0  0
  161.9100  205.4280  150.8710 C   0  0  0  0  0  2  0  0  0  0  0  0
  161.4550  205.8380  153.3110 C   0  0  0  0  0  2  0  0  0  0  0  0
  159.2980  210.4820  155.4420 N   0  0  0  0  0  0  0  0  0  0  0  0
  160.4230  208.3910  154.8950 C   0  0  1  0  0  3  0  0  0  0  0  0
  161.9560  209.7820  149.9440 C   0  0  0  0  0  0  0  0  0  0  0  0
  160.6580  209.6560  152.0080 C   0  0  0  0  0  0  0  0  0  0  0  0
  161.9550  206.5810  154.5350 C   0  0  0  0  0  2  0  0  0  0  0  0
  159.9260  209.7570  154.4740 C   0  0  0  0  0  0  0  0  0  0  0  0
  162.7580  210.6030  148.9780 C   0  0  2  0  0  3  0  0  0  0  0  0
  162.4430  211.9670  149.1440 O   0  0  0  0  0  0  0  0  0  0  0  0
  161.8790  211.3270  148.0280 C   0  0  0  0  0  2  0  0  0  0  0  0
  161.5310  207.7010  156.9650 C   0  0  0  0  0  2  0  0  0  0  0  0
  160.2050  207.3890  157.2610 O   0  0  0  0  0  1  0  0  0  0  0  0
  1 18  2  0  0  0  0
  1  8  1  0  0  0  0
  2  3  1  0  0  0  0
  3 16  2  0  0  0  0
  4 21  2  0  0  0  0
  5  8  1  0  0  0  0
  5 14  1  0  0  0  0
  6  1  1  0  0  0  0
  7 15  1  0  0  0  0
  8 13  2  0  0  0  0
  9 19  2  0  0  0  0
 10 20  1  1  0  0  0
 10 17  1  0  0  0  0
 10 12  1  0  0  0  0
 11  4  1  0  0  0  0
 11  2  2  0  0  0  0
 12 25  1  1  0  0  0
 13 19  1  0  0  0  0
 14  7  1  0  0  0  0
 15 20  1  0  0  0  0
 17 21  1  6  0  0  0
 17 12  1  0  0  0  0
 18  9  1  0  0  0  0
 19  4  1  0  0  0  0
 21 16  1  0  0  0  0
 22 23  1  0  0  0  0
 22 18  1  1  0  0  0
 24 22  1  0  0  0  0
 24 23  1  0  0  0  0
 25 26  1  0  0  0  0
M  END
>  <MODEL>
9

>  <REMARK>
 VINA RESULT:      -4.6      2.588      5.255
  Name = 
  2 active torsions:
  status: ('A' for Active; 'I' for Inactive)
    1  A    between atoms: C_10  and  C_15
    2  A    between atoms: C_12  and  C_22
                            x       y       z     vdW  Elec       q    Type
                         _______ _______ _______ _____ _____    ______ ____

>  <TORSDO>
F 2

$$$$
