=
 OpenBabel11072413493D

 29 30  0  0  1  0  0  0  0  0999 V2000
  161.1670  205.6230  150.5840 C   0  0  2  0  0  3  0  0  0  0  0  0
  161.2600  203.2940  145.6430 O   0  0  0  0  0  0  0  0  0  0  0  0
  161.4980  205.9360  148.0730 C   0  0  1  0  0  3  0  0  0  0  0  0
  161.4720  203.8230  146.7250 C   0  0  0  0  0  0  0  0  0  0  0  0
  161.9520  205.2470  146.7820 C   0  0  2  0  0  3  0  0  0  0  0  0
  160.6900  203.8630  148.9840 O   0  0  0  0  0  0  0  0  0  0  0  0
  160.2020  206.4310  147.9060 O   0  0  0  0  0  1  0  0  0  0  0  0
  161.5450  204.9490  149.2560 C   0  0  2  0  0  3  0  0  0  0  0  0
  163.3330  205.2700  146.7020 F   0  0  0  0  0  0  0  0  0  0  0  0
  161.3440  203.0580  148.0300 C   0  0  1  0  0  3  0  0  0  0  0  0
  159.6350  201.5950  148.8690 O   0  0  0  0  0  1  0  0  0  0  0  0
  160.6070  201.7250  147.8720 C   0  0  2  0  0  3  0  0  0  0  0  0
  161.5950  200.5680  147.9740 C   0  0  0  0  0  2  0  0  0  0  0  0
  160.6000  200.2700  145.7020 C   0  0  0  0  0  1  0  0  0  0  0  0
  161.5160  199.6690  146.7510 C   0  0  0  0  0  2  0  0  0  0  0  0
  161.6950  207.0610  150.6350 C   0  0  2  0  0  3  0  0  0  0  0  0
  162.9870  207.1010  151.1700 O   0  0  0  0  0  1  0  0  0  0  0  0
  160.7550  207.9530  151.4390 C   0  0  0  0  0  2  0  0  0  0  0  0
  161.2890  208.1810  152.8440 C   0  0  0  0  0  2  0  0  0  0  0  0
  160.7410  209.3480  153.3820 O   0  0  0  0  0  0  0  0  0  0  0  0
  160.4600  207.5090  154.8830 C   0  0  0  0  0  2  0  0  0  0  0  0
  161.2020  207.7850  157.2600 C   0  0  0  0  0  2  0  0  0  0  0  0
  161.1980  209.3020  157.0860 C   0  0  0  0  0  2  0  0  0  0  0  0
  160.1670  207.1440  156.3380 C   0  0  0  0  0  2  0  0  0  0  0  0
  160.4520  209.0270  154.7110 C   0  0  0  0  0  3  0  0  0  0  0  0
  161.4920  209.6650  155.6310 C   0  0  0  0  0  2  0  0  0  0  0  0
  161.6740  204.8140  151.7780 C   0  0  0  0  0  2  0  0  0  0  0  0
  160.7480  203.6470  152.0570 C   0  0  0  0  0  2  0  0  0  0  0  0
  161.4150  202.4520  151.7910 O   0  0  0  0  0  1  0  0  0  0  0  0
  1 16  1  0  0  0  0
  1 27  1  1  0  0  0
  2  4  2  0  0  0  0
  3  7  1  6  0  0  0
  3  8  1  0  0  0  0
  4  5  1  0  0  0  0
  4 10  1  0  0  0  0
  5  9  1  1  0  0  0
  5  3  1  0  0  0  0
  6  8  1  0  0  0  0
  8  1  1  1  0  0  0
 10 12  1  6  0  0  0
 10  6  1  0  0  0  0
 12 13  1  0  0  0  0
 12 11  1  1  0  0  0
 14 15  1  0  0  0  0
 15 13  1  0  0  0  0
 16 17  1  1  0  0  0
 16 18  1  0  0  0  0
 18 19  1  0  0  0  0
 19 20  1  0  0  0  0
 20 25  1  0  0  0  0
 21 24  1  0  0  0  0
 23 22  1  0  0  0  0
 24 22  1  0  0  0  0
 25 21  1  0  0  0  0
 25 26  1  0  0  0  0
 26 23  1  0  0  0  0
 27 28  1  0  0  0  0
 29 28  1  0  0  0  0
M  END
>  <MODEL>
1

>  <REMARK>
 VINA RESULT:      -7.3      0.000      0.000
  Name = 
  11 active torsions:
  status: ('A' for Active; 'I' for Inactive)
    1  A    between atoms: C_3  and  C_7
    2  A    between atoms: C_3  and  C_12
    3  A    between atoms: C_7  and  O_22
    4  A    between atoms: C_9  and  C_26
    5  A    between atoms: C_10  and  C_23
    6  A    between atoms: C_12  and  C_29
    7  A    between atoms: C_20  and  C_29
    8  A    between atoms: C_21  and  O_22
    9  A    between atoms: C_23  and  C_27
   10  A    between atoms: C_25  and  C_27
   11  A    between atoms: C_26  and  C_29
                            x       y       z     vdW  Elec       q    Type
                         _______ _______ _______ _____ _____    ______ ____

>  <TORSDO>
F 11

$$$$
=
 OpenBabel11072413493D

 29 30  0  0  1  0  0  0  0  0999 V2000
  161.0080  207.4730  152.6370 C   0  0  2  0  0  3  0  0  0  0  0  0
  160.1670  210.7880  156.8960 O   0  0  0  0  0  0  0  0  0  0  0  0
  161.0640  207.7610  155.1710 C   0  0  1  0  0  3  0  0  0  0  0  0
  160.5820  210.0810  155.9890 C   0  0  0  0  0  0  0  0  0  0  0  0
  161.2560  208.7750  156.3050 C   0  0  2  0  0  3  0  0  0  0  0  0
  160.1010  209.4350  153.7380 O   0  0  0  0  0  0  0  0  0  0  0  0
  159.8370  207.1120  155.3290 O   0  0  0  0  0  1  0  0  0  0  0  0
  161.1230  208.4670  153.8030 C   0  0  2  0  0  3  0  0  0  0  0  0
  162.6060  208.9920  156.5130 F   0  0  0  0  0  0  0  0  0  0  0  0
  160.5140  210.5200  154.5370 C   0  0  1  0  0  3  0  0  0  0  0  0
  158.2520  211.3170  154.4220 O   0  0  0  0  0  1  0  0  0  0  0  0
  159.5880  211.7190  154.3160 C   0  0  2  0  0  3  0  0  0  0  0  0
  159.8290  212.3160  152.9350 C   0  0  0  0  0  2  0  0  0  0  0  0
  158.8620  213.7640  151.1430 C   0  0  0  0  0  1  0  0  0  0  0  0
  158.5580  212.9330  152.3740 C   0  0  0  0  0  2  0  0  0  0  0  0
  161.9080  206.2550  152.8700 C   0  0  2  0  0  3  0  0  0  0  0  0
  162.9870  206.2520  151.9790 O   0  0  0  0  0  1  0  0  0  0  0  0
  161.1090  204.9620  152.7460 C   0  0  0  0  0  2  0  0  0  0  0  0
  161.3840  204.2750  151.4180 C   0  0  0  0  0  2  0  0  0  0  0  0
  160.4060  204.6260  150.4830 O   0  0  0  0  0  0  0  0  0  0  0  0
  161.2460  203.7700  148.4150 C   0  0  0  0  0  2  0  0  0  0  0  0
  161.2860  205.2910  146.4240 C   0  0  0  0  0  2  0  0  0  0  0  0
  161.1550  206.5020  147.3460 C   0  0  0  0  0  2  0  0  0  0  0  0
  162.0050  204.1530  147.1450 C   0  0  0  0  0  2  0  0  0  0  0  0
  161.1200  204.9830  149.3360 C   0  0  0  0  0  3  0  0  0  0  0  0
  160.3960  206.1180  148.6140 C   0  0  0  0  0  2  0  0  0  0  0  0
  161.3370  208.1450  151.3030 C   0  0  0  0  0  2  0  0  0  0  0  0
  162.2420  209.3410  151.5230 C   0  0  0  0  0  2  0  0  0  0  0  0
  161.9030  210.3520  150.6240 O   0  0  0  0  0  1  0  0  0  0  0  0
  1 27  1  6  0  0  0
  1 16  1  0  0  0  0
  3  7  1  1  0  0  0
  3  5  1  0  0  0  0
  4  5  1  0  0  0  0
  4  2  2  0  0  0  0
  5  9  1  6  0  0  0
  6  8  1  0  0  0  0
  6 10  1  0  0  0  0
  8  1  1  6  0  0  0
  8  3  1  0  0  0  0
 10 12  1  1  0  0  0
 10  4  1  0  0  0  0
 12 11  1  6  0  0  0
 13 12  1  0  0  0  0
 14 15  1  0  0  0  0
 15 13  1  0  0  0  0
 16 17  1  6  0  0  0
 18 16  1  0  0  0  0
 19 18  1  0  0  0  0
 20 19  1  0  0  0  0
 21 25  1  0  0  0  0
 22 24  1  0  0  0  0
 22 23  1  0  0  0  0
 23 26  1  0  0  0  0
 24 21  1  0  0  0  0
 25 20  1  0  0  0  0
 26 25  1  0  0  0  0
 27 28  1  0  0  0  0
 29 28  1  0  0  0  0
M  END
>  <MODEL>
2

>  <REMARK>
 VINA RESULT:      -7.1      3.026      9.018
  Name = 
  11 active torsions:
  status: ('A' for Active; 'I' for Inactive)
    1  A    between atoms: C_3  and  C_7
    2  A    between atoms: C_3  and  C_12
    3  A    between atoms: C_7  and  O_22
    4  A    between atoms: C_9  and  C_26
    5  A    between atoms: C_10  and  C_23
    6  A    between atoms: C_12  and  C_29
    7  A    between atoms: C_20  and  C_29
    8  A    between atoms: C_21  and  O_22
    9  A    between atoms: C_23  and  C_27
   10  A    between atoms: C_25  and  C_27
   11  A    between atoms: C_26  and  C_29
                            x       y       z     vdW  Elec       q    Type
                         _______ _______ _______ _____ _____    ______ ____

>  <TORSDO>
F 11

$$$$
=
 OpenBabel11072413493D

 29 30  0  0  1  0  0  0  0  0999 V2000
  161.1430  205.7500  150.5070 C   0  0  2  0  0  3  0  0  0  0  0  0
  161.2810  203.1680  145.6950 O   0  0  0  0  0  0  0  0  0  0  0  0
  161.5130  205.9290  147.9890 C   0  0  1  0  0  3  0  0  0  0  0  0
  161.4830  203.7500  146.7510 C   0  0  0  0  0  0  0  0  0  0  0  0
  161.9780  205.1690  146.7420 C   0  0  2  0  0  3  0  0  0  0  0  0
  160.6700  203.9140  148.9930 O   0  0  0  0  0  0  0  0  0  0  0  0
  160.2250  206.4280  147.7770 O   0  0  0  0  0  1  0  0  0  0  0  0
  161.5320  205.0040  149.2210 C   0  0  2  0  0  3  0  0  0  0  0  0
  163.3600  205.1740  146.6810 F   0  0  0  0  0  0  0  0  0  0  0  0
  161.3280  203.0540  148.0920 C   0  0  1  0  0  3  0  0  0  0  0  0
  159.5700  201.6680  148.9590 O   0  0  0  0  0  1  0  0  0  0  0  0
  160.5790  201.7230  147.9910 C   0  0  2  0  0  3  0  0  0  0  0  0
  161.5450  200.5630  148.2030 C   0  0  0  0  0  2  0  0  0  0  0  0
  160.6480  200.1140  145.9150 C   0  0  0  0  0  1  0  0  0  0  0  0
  161.7170  199.7520  146.9290 C   0  0  0  0  0  2  0  0  0  0  0  0
  161.6240  207.2040  150.4600 C   0  0  2  0  0  3  0  0  0  0  0  0
  163.0040  207.2820  150.6770 O   0  0  0  0  0  1  0  0  0  0  0  0
  160.8740  208.0540  151.4800 C   0  0  0  0  0  2  0  0  0  0  0  0
  161.7600  209.1630  152.0240 C   0  0  0  0  0  2  0  0  0  0  0  0
  161.1160  210.3970  151.8980 O   0  0  0  0  0  0  0  0  0  0  0  0
  160.7430  210.4790  154.2590 C   0  0  0  0  0  2  0  0  0  0  0  0
  158.6920  211.6450  155.1010 C   0  0  0  0  0  2  0  0  0  0  0  0
  158.0650  211.5470  153.7120 C   0  0  0  0  0  2  0  0  0  0  0  0
  159.6550  210.4820  155.3300 C   0  0  0  0  0  2  0  0  0  0  0  0
  160.1130  210.3770  152.8700 C   0  0  0  0  0  3  0  0  0  0  0  0
  159.1550  211.5450  152.6420 C   0  0  0  0  0  2  0  0  0  0  0  0
  161.6860  205.0360  151.7450 C   0  0  0  0  0  2  0  0  0  0  0  0
  160.7210  203.9590  152.2000 C   0  0  0  0  0  2  0  0  0  0  0  0
  161.2490  202.7050  151.8940 O   0  0  0  0  0  1  0  0  0  0  0  0
  1 27  1  1  0  0  0
  2  4  2  0  0  0  0
  3  7  1  6  0  0  0
  3  8  1  0  0  0  0
  4 10  1  0  0  0  0
  5  9  1  1  0  0  0
  5  4  1  0  0  0  0
  5  3  1  0  0  0  0
  6  8  1  0  0  0  0
  8  1  1  1  0  0  0
 10 12  1  6  0  0  0
 10  6  1  0  0  0  0
 12 13  1  0  0  0  0
 12 11  1  1  0  0  0
 14 15  1  0  0  0  0
 15 13  1  0  0  0  0
 16  1  1  0  0  0  0
 16 17  1  1  0  0  0
 16 18  1  0  0  0  0
 18 19  1  0  0  0  0
 20 19  1  0  0  0  0
 20 25  1  0  0  0  0
 21 24  1  0  0  0  0
 22 24  1  0  0  0  0
 23 22  1  0  0  0  0
 25 21  1  0  0  0  0
 26 25  1  0  0  0  0
 26 23  1  0  0  0  0
 27 28  1  0  0  0  0
 29 28  1  0  0  0  0
M  END
>  <MODEL>
3

>  <REMARK>
 VINA RESULT:      -7.0      1.361      1.888
  Name = 
  11 active torsions:
  status: ('A' for Active; 'I' for Inactive)
    1  A    between atoms: C_3  and  C_7
    2  A    between atoms: C_3  and  C_12
    3  A    between atoms: C_7  and  O_22
    4  A    between atoms: C_9  and  C_26
    5  A    between atoms: C_10  and  C_23
    6  A    between atoms: C_12  and  C_29
    7  A    between atoms: C_20  and  C_29
    8  A    between atoms: C_21  and  O_22
    9  A    between atoms: C_23  and  C_27
   10  A    between atoms: C_25  and  C_27
   11  A    between atoms: C_26  and  C_29
                            x       y       z     vdW  Elec       q    Type
                         _______ _______ _______ _____ _____    ______ ____

>  <TORSDO>
F 11

$$$$
=
 OpenBabel11072413493D

 29 30  0  0  1  0  0  0  0  0999 V2000
  161.0780  207.5190  152.6150 C   0  0  2  0  0  3  0  0  0  0  0  0
  160.1830  211.0390  156.6960 O   0  0  0  0  0  0  0  0  0  0  0  0
  161.0970  207.9300  155.1340 C   0  0  1  0  0  3  0  0  0  0  0  0
  160.6100  210.2880  155.8310 C   0  0  0  0  0  0  0  0  0  0  0  0
  161.2750  208.9970  156.2190 C   0  0  2  0  0  3  0  0  0  0  0  0
  160.1600  209.5340  153.6070 O   0  0  0  0  0  0  0  0  0  0  0  0
  159.8660  207.2910  155.3050 O   0  0  0  0  0  1  0  0  0  0  0  0
  161.1780  208.5680  153.7330 C   0  0  2  0  0  3  0  0  0  0  0  0
  162.6220  209.2210  156.4370 F   0  0  0  0  0  0  0  0  0  0  0  0
  160.5650  210.6550  154.3580 C   0  0  1  0  0  3  0  0  0  0  0  0
  158.3070  211.4470  154.1540 O   0  0  0  0  0  1  0  0  0  0  0  0
  159.6450  211.8440  154.0660 C   0  0  2  0  0  3  0  0  0  0  0  0
  159.9220  212.3860  152.6680 C   0  0  0  0  0  2  0  0  0  0  0  0
  158.9150  213.4400  150.6400 C   0  0  0  0  0  1  0  0  0  0  0  0
  158.6280  212.7220  151.9450 C   0  0  0  0  0  2  0  0  0  0  0  0
  161.9410  206.2950  152.9390 C   0  0  2  0  0  3  0  0  0  0  0  0
  163.0170  206.1920  152.0500 O   0  0  0  0  0  1  0  0  0  0  0  0
  161.1030  205.0220  152.9140 C   0  0  0  0  0  2  0  0  0  0  0  0
  161.5930  204.0670  151.8370 C   0  0  0  0  0  2  0  0  0  0  0  0
  160.5150  203.6110  151.0730 O   0  0  0  0  0  0  0  0  0  0  0  0
  160.4350  201.6300  149.7360 C   0  0  0  0  0  2  0  0  0  0  0  0
  160.8910  201.8290  147.2810 C   0  0  0  0  0  2  0  0  0  0  0  0
  161.5510  203.1860  147.5130 C   0  0  0  0  0  2  0  0  0  0  0  0
  161.0490  200.9450  148.5170 C   0  0  0  0  0  2  0  0  0  0  0  0
  161.1000  202.9860  149.9690 C   0  0  0  0  0  3  0  0  0  0  0  0
  160.9350  203.8690  148.7330 C   0  0  0  0  0  2  0  0  0  0  0  0
  161.4650  208.1160  151.2620 C   0  0  0  0  0  2  0  0  0  0  0  0
  160.8670  207.2980  150.1330 C   0  0  0  0  0  2  0  0  0  0  0  0
  161.6800  207.4000  149.0050 O   0  0  0  0  0  1  0  0  0  0  0  0
  1 27  1  6  0  0  0
  1 16  1  0  0  0  0
  3  7  1  1  0  0  0
  3  5  1  0  0  0  0
  4  5  1  0  0  0  0
  4  2  2  0  0  0  0
  5  9  1  6  0  0  0
  6  8  1  0  0  0  0
  6 10  1  0  0  0  0
  8  1  1  6  0  0  0
  8  3  1  0  0  0  0
 10 12  1  1  0  0  0
 10  4  1  0  0  0  0
 12 11  1  6  0  0  0
 13 12  1  0  0  0  0
 14 15  1  0  0  0  0
 15 13  1  0  0  0  0
 16 17  1  6  0  0  0
 18 16  1  0  0  0  0
 19 18  1  0  0  0  0
 20 19  1  0  0  0  0
 21 25  1  0  0  0  0
 22 23  1  0  0  0  0
 22 24  1  0  0  0  0
 23 26  1  0  0  0  0
 24 21  1  0  0  0  0
 25 20  1  0  0  0  0
 26 25  1  0  0  0  0
 28 27  1  0  0  0  0
 29 28  1  0  0  0  0
M  END
>  <MODEL>
4

>  <REMARK>
 VINA RESULT:      -6.9      3.004      9.035
  Name = 
  11 active torsions:
  status: ('A' for Active; 'I' for Inactive)
    1  A    between atoms: C_3  and  C_7
    2  A    between atoms: C_3  and  C_12
    3  A    between atoms: C_7  and  O_22
    4  A    between atoms: C_9  and  C_26
    5  A    between atoms: C_10  and  C_23
    6  A    between atoms: C_12  and  C_29
    7  A    between atoms: C_20  and  C_29
    8  A    between atoms: C_21  and  O_22
    9  A    between atoms: C_23  and  C_27
   10  A    between atoms: C_25  and  C_27
   11  A    between atoms: C_26  and  C_29
                            x       y       z     vdW  Elec       q    Type
                         _______ _______ _______ _____ _____    ______ ____

>  <TORSDO>
F 11

$$$$
=
 OpenBabel11072413493D

 29 30  0  0  1  0  0  0  0  0999 V2000
  160.8540  209.0890  151.8720 C   0  0  2  0  0  3  0  0  0  0  0  0
  159.9950  212.6710  155.9060 O   0  0  0  0  0  0  0  0  0  0  0  0
  159.5010  211.0800  152.7180 C   0  0  1  0  0  3  0  0  0  0  0  0
  159.9870  211.7720  155.0770 C   0  0  0  0  0  0  0  0  0  0  0  0
  158.9680  211.7800  153.9730 C   0  0  2  0  0  3  0  0  0  0  0  0
  161.4470  210.2950  153.8920 O   0  0  0  0  0  0  0  0  0  0  0  0
  160.2530  211.9840  151.9640 O   0  0  0  0  0  1  0  0  0  0  0  0
  160.3610  209.8610  153.1050 C   0  0  2  0  0  3  0  0  0  0  0  0
  157.8160  211.1470  154.4060 F   0  0  0  0  0  0  0  0  0  0  0  0
  160.9330  210.5870  155.1710 C   0  0  1  0  0  3  0  0  0  0  0  0
  163.3070  210.7570  155.4900 O   0  0  0  0  0  1  0  0  0  0  0  0
  162.0800  210.8140  156.1600 C   0  0  2  0  0  3  0  0  0  0  0  0
  162.0480  209.7480  157.2480 C   0  0  0  0  0  2  0  0  0  0  0  0
  160.9530  207.5030  157.2610 C   0  0  0  0  0  1  0  0  0  0  0  0
  160.7240  209.0020  157.2470 C   0  0  0  0  0  2  0  0  0  0  0  0
  160.8300  207.5790  152.1300 C   0  0  2  0  0  3  0  0  0  0  0  0
  161.1210  207.2950  153.4690 O   0  0  0  0  0  1  0  0  0  0  0  0
  161.8060  206.8580  151.2060 C   0  0  0  0  0  2  0  0  0  0  0  0
  161.0700  205.9280  150.2550 C   0  0  0  0  0  2  0  0  0  0  0  0
  160.7800  204.7190  150.8920 O   0  0  0  0  0  0  0  0  0  0  0  0
  160.4600  202.4410  150.2380 C   0  0  0  0  0  2  0  0  0  0  0  0
  160.7850  201.8360  147.8290 C   0  0  0  0  0  2  0  0  0  0  0  0
  161.5660  203.1300  147.6090 C   0  0  0  0  0  2  0  0  0  0  0  0
  160.9440  201.3620  149.2720 C   0  0  0  0  0  2  0  0  0  0  0  0
  161.2460  203.7330  150.0180 C   0  0  0  0  0  3  0  0  0  0  0  0
  161.0800  204.2080  148.5750 C   0  0  0  0  0  2  0  0  0  0  0  0
  162.2510  209.5480  151.4540 C   0  0  0  0  0  2  0  0  0  0  0  0
  162.1910  210.2860  150.1310 C   0  0  0  0  0  2  0  0  0  0  0  0
  161.9770  209.3720  149.1000 O   0  0  0  0  0  1  0  0  0  0  0  0
  1 27  1  1  0  0  0
  1 16  1  0  0  0  0
  3  7  1  1  0  0  0
  3  8  1  0  0  0  0
  3  5  1  0  0  0  0
  4 10  1  0  0  0  0
  4  2  2  0  0  0  0
  5  9  1  1  0  0  0
  5  4  1  0  0  0  0
  6 10  1  0  0  0  0
  8  1  1  6  0  0  0
  8  6  1  0  0  0  0
 10 12  1  1  0  0  0
 12 11  1  6  0  0  0
 12 13  1  0  0  0  0
 15 13  1  0  0  0  0
 15 14  1  0  0  0  0
 16 17  1  1  0  0  0
 18 16  1  0  0  0  0
 19 20  1  0  0  0  0
 19 18  1  0  0  0  0
 22 24  1  0  0  0  0
 23 22  1  0  0  0  0
 23 26  1  0  0  0  0
 24 21  1  0  0  0  0
 25 21  1  0  0  0  0
 25 20  1  0  0  0  0
 26 25  1  0  0  0  0
 28 27  1  0  0  0  0
 29 28  1  0  0  0  0
M  END
>  <MODEL>
5

>  <REMARK>
 VINA RESULT:      -6.8      2.950      9.154
  Name = 
  11 active torsions:
  status: ('A' for Active; 'I' for Inactive)
    1  A    between atoms: C_3  and  C_7
    2  A    between atoms: C_3  and  C_12
    3  A    between atoms: C_7  and  O_22
    4  A    between atoms: C_9  and  C_26
    5  A    between atoms: C_10  and  C_23
    6  A    between atoms: C_12  and  C_29
    7  A    between atoms: C_20  and  C_29
    8  A    between atoms: C_21  and  O_22
    9  A    between atoms: C_23  and  C_27
   10  A    between atoms: C_25  and  C_27
   11  A    between atoms: C_26  and  C_29
                            x       y       z     vdW  Elec       q    Type
                         _______ _______ _______ _____ _____    ______ ____

>  <TORSDO>
F 11

$$$$
=
 OpenBabel11072413493D

 29 30  0  0  1  0  0  0  0  0999 V2000
  160.9260  205.4390  150.8080 C   0  0  2  0  0  3  0  0  0  0  0  0
  161.3010  201.0740  147.5440 O   0  0  0  0  0  0  0  0  0  0  0  0
  160.6400  202.9150  150.5630 C   0  0  1  0  0  3  0  0  0  0  0  0
  160.9860  202.0240  148.2460 C   0  0  0  0  0  0  0  0  0  0  0  0
  160.3220  201.7890  149.5740 C   0  0  2  0  0  3  0  0  0  0  0  0
  161.6810  204.2330  148.8430 O   0  0  0  0  0  0  0  0  0  0  0  0
  161.8650  202.6580  151.1850 O   0  0  0  0  0  1  0  0  0  0  0  0
  160.6840  204.2730  149.8360 C   0  0  2  0  0  3  0  0  0  0  0  0
  158.9540  201.6980  149.3940 F   0  0  0  0  0  0  0  0  0  0  0  0
  161.1700  203.4590  147.7820 C   0  0  1  0  0  3  0  0  0  0  0  0
  163.0070  204.6090  146.7480 O   0  0  0  0  0  1  0  0  0  0  0  0
  162.0800  203.5790  146.5560 C   0  0  2  0  0  3  0  0  0  0  0  0
  161.2460  203.8740  145.3150 C   0  0  0  0  0  2  0  0  0  0  0  0
  160.3390  206.2000  145.2650 C   0  0  0  0  0  1  0  0  0  0  0  0
  161.4730  205.2950  144.8260 C   0  0  0  0  0  2  0  0  0  0  0  0
  160.7090  206.7850  150.1090 C   0  0  2  0  0  3  0  0  0  0  0  0
  160.1330  206.6060  148.8460 O   0  0  0  0  0  1  0  0  0  0  0  0
  162.0210  207.5520  149.9940 C   0  0  0  0  0  2  0  0  0  0  0  0
  161.9560  208.8630  150.7600 C   0  0  0  0  0  2  0  0  0  0  0  0
  160.8190  208.8900  151.5710 O   0  0  0  0  0  0  0  0  0  0  0  0
  159.7230  210.6890  152.7020 C   0  0  0  0  0  2  0  0  0  0  0  0
  160.4980  211.2980  155.0050 C   0  0  0  0  0  2  0  0  0  0  0  0
  161.8090  210.5530  154.7620 C   0  0  0  0  0  2  0  0  0  0  0  0
  159.9420  211.8350  153.6880 C   0  0  0  0  0  2  0  0  0  0  0  0
  161.0360  209.9480  152.4570 C   0  0  0  0  0  3  0  0  0  0  0  0
  161.5870  209.4070  153.7760 C   0  0  0  0  0  2  0  0  0  0  0  0
  162.3250  205.3640  151.4220 C   0  0  0  0  0  2  0  0  0  0  0  0
  162.2920  205.8210  152.8670 C   0  0  0  0  0  2  0  0  0  0  0  0
  161.1530  205.3130  153.4890 O   0  0  0  0  0  1  0  0  0  0  0  0
  1 27  1  6  0  0  0
  2  4  2  0  0  0  0
  3  7  1  6  0  0  0
  4  5  1  0  0  0  0
  5  9  1  6  0  0  0
  5  3  1  0  0  0  0
  6  8  1  0  0  0  0
  8  3  1  0  0  0  0
  8  1  1  1  0  0  0
 10 12  1  6  0  0  0
 10  4  1  0  0  0  0
 10  6  1  0  0  0  0
 12 11  1  1  0  0  0
 13 12  1  0  0  0  0
 15 14  1  0  0  0  0
 15 13  1  0  0  0  0
 16 17  1  6  0  0  0
 16  1  1  0  0  0  0
 18 16  1  0  0  0  0
 18 19  1  0  0  0  0
 19 20  1  0  0  0  0
 20 25  1  0  0  0  0
 21 24  1  0  0  0  0
 23 22  1  0  0  0  0
 24 22  1  0  0  0  0
 25 21  1  0  0  0  0
 25 26  1  0  0  0  0
 26 23  1  0  0  0  0
 27 28  1  0  0  0  0
 28 29  1  0  0  0  0
M  END
>  <MODEL>
6

>  <REMARK>
 VINA RESULT:      -6.8      2.279      3.577
  Name = 
  11 active torsions:
  status: ('A' for Active; 'I' for Inactive)
    1  A    between atoms: C_3  and  C_7
    2  A    between atoms: C_3  and  C_12
    3  A    between atoms: C_7  and  O_22
    4  A    between atoms: C_9  and  C_26
    5  A    between atoms: C_10  and  C_23
    6  A    between atoms: C_12  and  C_29
    7  A    between atoms: C_20  and  C_29
    8  A    between atoms: C_21  and  O_22
    9  A    between atoms: C_23  and  C_27
   10  A    between atoms: C_25  and  C_27
   11  A    between atoms: C_26  and  C_29
                            x       y       z     vdW  Elec       q    Type
                         _______ _______ _______ _____ _____    ______ ____

>  <TORSDO>
F 11

$$$$
=
 OpenBabel11072413493D

 29 30  0  0  1  0  0  0  0  0999 V2000
  162.0560  206.3120  148.8350 C   0  0  2  0  0  3  0  0  0  0  0  0
  160.7710  202.3830  145.2640 O   0  0  0  0  0  0  0  0  0  0  0  0
  161.6160  205.6900  146.4000 C   0  0  1  0  0  3  0  0  0  0  0  0
  161.2740  203.2440  145.9710 C   0  0  0  0  0  0  0  0  0  0  0  0
  161.6940  204.5570  145.3710 C   0  0  2  0  0  3  0  0  0  0  0  0
  161.1950  204.1380  148.1880 O   0  0  0  0  0  0  0  0  0  0  0  0
  160.3110  206.1860  146.4500 O   0  0  0  0  0  1  0  0  0  0  0  0
  162.0490  205.1860  147.7900 C   0  0  2  0  0  3  0  0  0  0  0  0
  162.9870  204.4510  144.8920 F   0  0  0  0  0  0  0  0  0  0  0  0
  161.5680  203.0020  147.4420 C   0  0  1  0  0  3  0  0  0  0  0  0
  159.5330  202.0490  148.2890 O   0  0  0  0  0  1  0  0  0  0  0  0
  160.8690  201.7570  147.9940 C   0  0  2  0  0  3  0  0  0  0  0  0
  161.5740  201.2830  149.2600 C   0  0  0  0  0  2  0  0  0  0  0  0
  161.2300  202.5330  151.3950 C   0  0  0  0  0  1  0  0  0  0  0  0
  160.6840  201.4540  150.4800 C   0  0  0  0  0  2  0  0  0  0  0  0
  161.3230  205.8780  150.1090 C   0  0  2  0  0  3  0  0  0  0  0  0
  160.0300  206.4120  150.1490 O   0  0  0  0  0  1  0  0  0  0  0  0
  162.1090  206.2860  151.3500 C   0  0  0  0  0  2  0  0  0  0  0  0
  161.2590  207.1370  152.2790 C   0  0  0  0  0  2  0  0  0  0  0  0
  160.9210  206.4100  153.4230 O   0  0  0  0  0  0  0  0  0  0  0  0
  160.8630  208.7310  153.9920 C   0  0  0  0  0  2  0  0  0  0  0  0
  160.0690  209.3790  156.2790 C   0  0  0  0  0  2  0  0  0  0  0  0
  160.3060  207.9500  156.7660 C   0  0  0  0  0  2  0  0  0  0  0  0
  161.0360  209.7180  155.1460 C   0  0  0  0  0  2  0  0  0  0  0  0
  161.1030  207.3040  154.4810 C   0  0  0  0  0  3  0  0  0  0  0  0
  160.1320  206.9660  155.6110 C   0  0  0  0  0  2  0  0  0  0  0  0
  161.4480  207.5960  148.2680 C   0  0  0  0  0  2  0  0  0  0  0  0
  162.3540  208.7790  148.5500 C   0  0  0  0  0  2  0  0  0  0  0  0
  161.9590  209.3920  149.7390 O   0  0  0  0  0  1  0  0  0  0  0  0
  1 27  1  6  0  0  0
  1 16  1  0  0  0  0
  2  4  2  0  0  0  0
  3  7  1  1  0  0  0
  3  8  1  0  0  0  0
  4 10  1  0  0  0  0
  5  9  1  1  0  0  0
  5  4  1  0  0  0  0
  5  3  1  0  0  0  0
  8  6  1  0  0  0  0
  8  1  1  1  0  0  0
 10 12  1  1  0  0  0
 10  6  1  0  0  0  0
 12 11  1  1  0  0  0
 12 13  1  0  0  0  0
 13 15  1  0  0  0  0
 15 14  1  0  0  0  0
 16 17  1  1  0  0  0
 16 18  1  0  0  0  0
 18 19  1  0  0  0  0
 19 20  1  0  0  0  0
 20 25  1  0  0  0  0
 21 25  1  0  0  0  0
 21 24  1  0  0  0  0
 22 23  1  0  0  0  0
 24 22  1  0  0  0  0
 25 26  1  0  0  0  0
 26 23  1  0  0  0  0
 27 28  1  0  0  0  0
 28 29  1  0  0  0  0
M  END
>  <MODEL>
7

>  <REMARK>
 VINA RESULT:      -6.7      1.626      2.951
  Name = 
  11 active torsions:
  status: ('A' for Active; 'I' for Inactive)
    1  A    between atoms: C_3  and  C_7
    2  A    between atoms: C_3  and  C_12
    3  A    between atoms: C_7  and  O_22
    4  A    between atoms: C_9  and  C_26
    5  A    between atoms: C_10  and  C_23
    6  A    between atoms: C_12  and  C_29
    7  A    between atoms: C_20  and  C_29
    8  A    between atoms: C_21  and  O_22
    9  A    between atoms: C_23  and  C_27
   10  A    between atoms: C_25  and  C_27
   11  A    between atoms: C_26  and  C_29
                            x       y       z     vdW  Elec       q    Type
                         _______ _______ _______ _____ _____    ______ ____

>  <TORSDO>
F 11

$$$$
=
 OpenBabel11072413493D

 29 30  0  0  1  0  0  0  0  0999 V2000
  160.8940  207.6580  152.7570 C   0  0  2  0  0  3  0  0  0  0  0  0
  160.3280  210.7200  157.2440 O   0  0  0  0  0  0  0  0  0  0  0  0
  161.0750  207.7890  155.2990 C   0  0  1  0  0  3  0  0  0  0  0  0
  160.6840  210.0630  156.2780 C   0  0  0  0  0  0  0  0  0  0  0  0
  161.3420  208.7260  156.4810 C   0  0  2  0  0  3  0  0  0  0  0  0
  160.0830  209.5660  154.0170 O   0  0  0  0  0  0  0  0  0  0  0  0
  159.8420  207.1550  155.4760 O   0  0  0  0  0  1  0  0  0  0  0  0
  161.0850  208.5760  153.9740 C   0  0  2  0  0  3  0  0  0  0  0  0
  162.7050  208.9030  156.6370 F   0  0  0  0  0  0  0  0  0  0  0  0
  160.5580  210.5910  154.8590 C   0  0  1  0  0  3  0  0  0  0  0  0
  160.0800  212.8070  155.6500 O   0  0  0  0  0  1  0  0  0  0  0  0
  159.6500  211.8200  154.7570 C   0  0  2  0  0  3  0  0  0  0  0  0
  158.2120  211.4330  155.0830 C   0  0  0  0  0  2  0  0  0  0  0  0
  155.9810  212.4700  154.6510 C   0  0  0  0  0  1  0  0  0  0  0  0
  157.3450  212.6650  155.2840 C   0  0  0  0  0  2  0  0  0  0  0  0
  161.7510  206.3940  152.8870 C   0  0  2  0  0  3  0  0  0  0  0  0
  162.7910  206.3960  151.9510 O   0  0  0  0  0  1  0  0  0  0  0  0
  160.8940  205.1430  152.7330 C   0  0  0  0  0  2  0  0  0  0  0  0
  161.5030  204.1860  151.7210 C   0  0  0  0  0  2  0  0  0  0  0  0
  160.5050  203.6540  150.9010 O   0  0  0  0  0  0  0  0  0  0  0  0
  160.4560  202.0380  149.1400 C   0  0  0  0  0  2  0  0  0  0  0  0
  161.2020  202.7430  146.8540 C   0  0  0  0  0  2  0  0  0  0  0  0
  161.9140  203.9520  147.4590 C   0  0  0  0  0  2  0  0  0  0  0  0
  161.1630  201.5950  147.8600 C   0  0  0  0  0  2  0  0  0  0  0  0
  161.1720  203.2450  149.7440 C   0  0  0  0  0  3  0  0  0  0  0  0
  161.2050  204.3940  148.7380 C   0  0  0  0  0  2  0  0  0  0  0  0
  161.2070  208.3950  151.4540 C   0  0  0  0  0  2  0  0  0  0  0  0
  162.1700  209.5380  151.7110 C   0  0  0  0  0  2  0  0  0  0  0  0
  162.2890  210.3130  150.5590 O   0  0  0  0  0  1  0  0  0  0  0  0
  1 27  1  6  0  0  0
  1 16  1  0  0  0  0
  3  7  1  1  0  0  0
  3  5  1  0  0  0  0
  4  5  1  0  0  0  0
  4  2  2  0  0  0  0
  5  9  1  6  0  0  0
  6 10  1  0  0  0  0
  8  1  1  6  0  0  0
  8  6  1  0  0  0  0
  8  3  1  0  0  0  0
 10 12  1  1  0  0  0
 10  4  1  0  0  0  0
 12 13  1  0  0  0  0
 12 11  1  1  0  0  0
 13 15  1  0  0  0  0
 14 15  1  0  0  0  0
 16 17  1  6  0  0  0
 18 16  1  0  0  0  0
 19 18  1  0  0  0  0
 20 19  1  0  0  0  0
 21 25  1  0  0  0  0
 22 23  1  0  0  0  0
 22 24  1  0  0  0  0
 23 26  1  0  0  0  0
 24 21  1  0  0  0  0
 25 20  1  0  0  0  0
 26 25  1  0  0  0  0
 27 28  1  0  0  0  0
 29 28  1  0  0  0  0
M  END
>  <MODEL>
8

>  <REMARK>
 VINA RESULT:      -6.5      3.060      9.495
  Name = 
  11 active torsions:
  status: ('A' for Active; 'I' for Inactive)
    1  A    between atoms: C_3  and  C_7
    2  A    between atoms: C_3  and  C_12
    3  A    between atoms: C_7  and  O_22
    4  A    between atoms: C_9  and  C_26
    5  A    between atoms: C_10  and  C_23
    6  A    between atoms: C_12  and  C_29
    7  A    between atoms: C_20  and  C_29
    8  A    between atoms: C_21  and  O_22
    9  A    between atoms: C_23  and  C_27
   10  A    between atoms: C_25  and  C_27
   11  A    between atoms: C_26  and  C_29
                            x       y       z     vdW  Elec       q    Type
                         _______ _______ _______ _____ _____    ______ ____

>  <TORSDO>
F 11

$$$$
=
 OpenBabel11072413493D

 29 30  0  0  1  0  0  0  0  0999 V2000
  160.9570  205.8700  150.6190 C   0  0  2  0  0  3  0  0  0  0  0  0
  161.4930  201.2690  147.7250 O   0  0  0  0  0  0  0  0  0  0  0  0
  160.7330  203.3290  150.5740 C   0  0  1  0  0  3  0  0  0  0  0  0
  161.1430  202.2640  148.3420 C   0  0  0  0  0  0  0  0  0  0  0  0
  160.4600  202.1200  149.6730 C   0  0  2  0  0  3  0  0  0  0  0  0
  161.7760  204.5300  148.7710 O   0  0  0  0  0  0  0  0  0  0  0  0
  161.9510  203.1530  151.2350 O   0  0  0  0  0  1  0  0  0  0  0  0
  160.7590  204.6250  149.7410 C   0  0  2  0  0  3  0  0  0  0  0  0
  159.0980  201.9810  149.4780 F   0  0  0  0  0  0  0  0  0  0  0  0
  161.3030  203.6610  147.7670 C   0  0  1  0  0  3  0  0  0  0  0  0
  163.1730  204.7300  146.7050 O   0  0  0  0  0  1  0  0  0  0  0  0
  162.2330  203.7050  146.5520 C   0  0  2  0  0  3  0  0  0  0  0  0
  161.4230  203.9480  145.2840 C   0  0  0  0  0  2  0  0  0  0  0  0
  160.3530  206.2030  145.1790 C   0  0  0  0  0  1  0  0  0  0  0  0
  161.5720  205.3820  144.8040 C   0  0  0  0  0  2  0  0  0  0  0  0
  160.7780  207.1510  149.7970 C   0  0  2  0  0  3  0  0  0  0  0  0
  160.5650  206.8530  148.4470 O   0  0  0  0  0  1  0  0  0  0  0  0
  161.9850  208.0690  149.9580 C   0  0  0  0  0  2  0  0  0  0  0  0
  161.9590  209.1900  148.9320 C   0  0  0  0  0  2  0  0  0  0  0  0
  162.3200  210.3990  149.5330 O   0  0  0  0  0  0  0  0  0  0  0  0
  161.2040  212.5080  149.3830 C   0  0  0  0  0  2  0  0  0  0  0  0
  161.9860  214.1510  147.6600 C   0  0  0  0  0  2  0  0  0  0  0  0
  162.6970  213.0260  146.9100 C   0  0  0  0  0  2  0  0  0  0  0  0
  160.7720  213.6020  148.4080 C   0  0  0  0  0  2  0  0  0  0  0  0
  161.9120  211.3830  148.6290 C   0  0  0  0  0  3  0  0  0  0  0  0
  163.1280  211.9340  147.8860 C   0  0  0  0  0  2  0  0  0  0  0  0
  162.3220  205.8510  151.3070 C   0  0  0  0  0  2  0  0  0  0  0  0
  162.1850  206.2380  152.7670 C   0  0  0  0  0  2  0  0  0  0  0  0
  161.2070  205.4450  153.3660 O   0  0  0  0  0  1  0  0  0  0  0  0
  1 27  1  6  0  0  0
  2  4  2  0  0  0  0
  3  7  1  6  0  0  0
  4  5  1  0  0  0  0
  5  9  1  6  0  0  0
  5  3  1  0  0  0  0
  6  8  1  0  0  0  0
  8  3  1  0  0  0  0
  8  1  1  1  0  0  0
 10 12  1  6  0  0  0
 10  4  1  0  0  0  0
 10  6  1  0  0  0  0
 12 11  1  1  0  0  0
 13 12  1  0  0  0  0
 15 14  1  0  0  0  0
 15 13  1  0  0  0  0
 16 17  1  6  0  0  0
 16 18  1  0  0  0  0
 16  1  1  0  0  0  0
 19 20  1  0  0  0  0
 19 18  1  0  0  0  0
 22 24  1  0  0  0  0
 23 22  1  0  0  0  0
 23 26  1  0  0  0  0
 24 21  1  0  0  0  0
 25 21  1  0  0  0  0
 25 20  1  0  0  0  0
 26 25  1  0  0  0  0
 27 28  1  0  0  0  0
 28 29  1  0  0  0  0
M  END
>  <MODEL>
9

>  <REMARK>
 VINA RESULT:      -6.4      3.412      5.384
  Name = 
  11 active torsions:
  status: ('A' for Active; 'I' for Inactive)
    1  A    between atoms: C_3  and  C_7
    2  A    between atoms: C_3  and  C_12
    3  A    between atoms: C_7  and  O_22
    4  A    between atoms: C_9  and  C_26
    5  A    between atoms: C_10  and  C_23
    6  A    between atoms: C_12  and  C_29
    7  A    between atoms: C_20  and  C_29
    8  A    between atoms: C_21  and  O_22
    9  A    between atoms: C_23  and  C_27
   10  A    between atoms: C_25  and  C_27
   11  A    between atoms: C_26  and  C_29
                            x       y       z     vdW  Elec       q    Type
                         _______ _______ _______ _____ _____    ______ ____

>  <TORSDO>
F 11

$$$$
