=
 OpenBabel11072414243D

 26 28  0  0  1  0  0  0  0  0999 V2000
  161.7450  206.5760  148.5540 C   0  0  0  0  0  0  0  0  0  0  0  0
  161.8900  206.3730  147.0940 C   0  0  0  0  0  2  0  0  0  0  0  0
  162.2220  204.8830  146.9870 C   0  0  2  0  0  3  0  0  0  0  0  0
  161.6870  206.6430  152.7430 N   0  0  0  0  0  1  0  0  0  0  0  0
  161.8220  205.4100  150.6190 C   0  0  0  0  0  0  0  0  0  0  0  0
  161.9360  204.2740  148.3700 C   0  0  1  0  0  3  0  0  0  0  0  0
  163.6920  204.7150  146.6550 C   0  0  0  0  0  1  0  0  0  0  0  0
  161.6940  206.6190  151.3190 C   0  0  0  0  0  0  0  0  0  0  0  0
  161.8010  205.4260  149.2530 N   0  0  0  0  0  0  0  0  0  0  0  0
  161.9710  204.3260  151.2460 O   0  0  0  0  0  0  0  0  0  0  0  0
  161.6230  207.8110  149.2020 C   0  0  0  0  0  0  0  0  0  0  0  0
  161.5900  207.8170  150.6030 C   0  0  0  0  0  3  0  0  0  0  0  0
  160.6210  203.4780  148.2950 C   0  0  2  0  0  3  0  0  0  0  0  0
  160.1220  203.1990  149.5680 O   0  0  0  0  0  1  0  0  0  0  0  0
  161.3130  198.2760  145.2910 Cl  0  0  0  0  0  0  0  0  0  0  0  0
  161.1120  199.7840  146.1530 C   0  0  0  0  0  0  0  0  0  0  0  0
  160.4070  202.1000  146.1900 C   0  0  0  0  0  3  0  0  0  0  0  0
  161.3370  201.0850  148.1840 C   0  0  0  0  0  3  0  0  0  0  0  0
  160.7920  202.1990  147.5360 C   0  0  0  0  0  0  0  0  0  0  0  0
  160.5680  200.8950  145.5010 C   0  0  0  0  0  3  0  0  0  0  0  0
  161.4970  199.8790  147.4940 C   0  0  0  0  0  3  0  0  0  0  0  0
  162.0200  210.1730  148.9020 N   0  0  0  0  0  0  0  0  0  0  0  0
  161.5470  209.0610  148.4330 C   0  0  0  0  0  3  0  0  0  0  0  0
  163.0940  212.2490  148.1230 N   0  0  0  0  0  1  0  0  0  0  0  0
  160.9040  211.7320  147.5580 O   0  0  0  0  0  0  0  0  0  0  0  0
  161.9550  211.3980  148.1670 C   0  0  0  0  0  0  0  0  0  0  0  0
  1 11  2  0  0  0  0
  1  9  1  0  0  0  0
  2  1  1  0  0  0  0
  3  7  1  1  0  0  0
  3  2  1  0  0  0  0
  3  6  1  0  0  0  0
  5 10  2  0  0  0  0
  5  8  1  0  0  0  0
  6 13  1  6  0  0  0
  6  9  1  0  0  0  0
  8  4  1  0  0  0  0
  9  5  1  0  0  0  0
 11 12  1  0  0  0  0
 12  8  2  0  0  0  0
 13 14  1  1  0  0  0
 15 16  1  0  0  0  0
 16 21  1  0  0  0  0
 17 19  2  0  0  0  0
 19 18  1  0  0  0  0
 19 13  1  0  0  0  0
 20 16  2  0  0  0  0
 20 17  1  0  0  0  0
 21 18  2  0  0  0  0
 23 22  2  0  0  0  0
 23 11  1  0  0  0  0
 24 26  1  0  0  0  0
 25 26  2  0  0  0  0
 26 22  1  0  0  0  0
M  END
>  <MODEL>
1

>  <REMARK>
 VINA RESULT:      -7.0      0.000      0.000
  Name = 
  4 active torsions:
  status: ('A' for Active; 'I' for Inactive)
    1  A    between atoms: C_8  and  C_11
    2  A    between atoms: C_8  and  C_15
    3  A    between atoms: N_22  and  C_25
    4  A    between atoms: C_23  and  C_24
                            x       y       z     vdW  Elec       q    Type
                         _______ _______ _______ _____ _____    ______ ____

>  <TORSDO>
F 4

$$$$
=
 OpenBabel11072414243D

 26 28  0  0  1  0  0  0  0  0999 V2000
  160.9480  208.3940  152.0440 C   0  0  0  0  0  0  0  0  0  0  0  0
  161.3020  208.7840  150.6610 C   0  0  0  0  0  2  0  0  0  0  0  0
  161.9700  207.5220  150.1100 C   0  0  2  0  0  3  0  0  0  0  0  0
  160.3960  206.8650  155.9060 N   0  0  0  0  0  1  0  0  0  0  0  0
  161.0470  206.5650  153.5530 C   0  0  0  0  0  0  0  0  0  0  0  0
  161.6710  206.3970  151.1160 C   0  0  1  0  0  3  0  0  0  0  0  0
  163.4680  207.7390  150.0250 C   0  0  0  0  0  1  0  0  0  0  0  0
  160.5710  207.3810  154.5910 C   0  0  0  0  0  0  0  0  0  0  0  0
  161.1800  207.0910  152.3000 N   0  0  0  0  0  0  0  0  0  0  0  0
  161.3620  205.3650  153.7830 O   0  0  0  0  0  0  0  0  0  0  0  0
  160.4780  209.2540  153.0440 C   0  0  0  0  0  0  0  0  0  0  0  0
  160.2840  208.7250  154.3280 C   0  0  0  0  0  3  0  0  0  0  0  0
  160.5850  205.4820  150.5220 C   0  0  2  0  0  3  0  0  0  0  0  0
  160.5510  204.2470  151.1720 O   0  0  0  0  0  1  0  0  0  0  0  0
  161.4000  204.5440  144.6040 Cl  0  0  0  0  0  0  0  0  0  0  0  0
  161.1640  204.8230  146.3140 C   0  0  0  0  0  0  0  0  0  0  0  0
  160.4140  206.2480  148.1220 C   0  0  0  0  0  3  0  0  0  0  0  0
  161.3490  204.0650  148.6080 C   0  0  0  0  0  3  0  0  0  0  0  0
  160.7870  205.2670  149.0540 C   0  0  0  0  0  0  0  0  0  0  0  0
  160.6030  206.0250  146.7550 C   0  0  0  0  0  3  0  0  0  0  0  0
  161.5370  203.8440  147.2400 C   0  0  0  0  0  3  0  0  0  0  0  0
  159.0040  211.1340  152.6970 N   0  0  0  0  0  0  0  0  0  0  0  0
  160.2130  210.6700  152.7560 C   0  0  0  0  0  3  0  0  0  0  0  0
  159.6580  213.2690  151.6560 N   0  0  0  0  0  1  0  0  0  0  0  0
  157.6740  213.0560  152.8390 O   0  0  0  0  0  0  0  0  0  0  0  0
  158.7290  212.5090  152.4190 C   0  0  0  0  0  0  0  0  0  0  0  0
  1  9  1  0  0  0  0
  1 11  2  0  0  0  0
  2  1  1  0  0  0  0
  3  7  1  1  0  0  0
  3  2  1  0  0  0  0
  3  6  1  0  0  0  0
  5 10  2  0  0  0  0
  5  8  1  0  0  0  0
  6 13  1  6  0  0  0
  6  9  1  0  0  0  0
  8  4  1  0  0  0  0
  9  5  1  0  0  0  0
 11 12  1  0  0  0  0
 12  8  2  0  0  0  0
 13 14  1  1  0  0  0
 15 16  1  0  0  0  0
 16 20  2  0  0  0  0
 16 21  1  0  0  0  0
 17 19  2  0  0  0  0
 18 19  1  0  0  0  0
 19 13  1  0  0  0  0
 20 17  1  0  0  0  0
 21 18  2  0  0  0  0
 22 23  2  0  0  0  0
 23 11  1  0  0  0  0
 24 26  1  0  0  0  0
 26 22  1  0  0  0  0
 26 25  2  0  0  0  0
M  END
>  <MODEL>
2

>  <REMARK>
 VINA RESULT:      -6.6      3.141      4.297
  Name = 
  4 active torsions:
  status: ('A' for Active; 'I' for Inactive)
    1  A    between atoms: C_8  and  C_11
    2  A    between atoms: C_8  and  C_15
    3  A    between atoms: N_22  and  C_25
    4  A    between atoms: C_23  and  C_24
                            x       y       z     vdW  Elec       q    Type
                         _______ _______ _______ _____ _____    ______ ____

>  <TORSDO>
F 4

$$$$
=
 OpenBabel11072414243D

 26 28  0  0  1  0  0  0  0  0999 V2000
  161.1620  208.1680  151.4490 C   0  0  0  0  0  0  0  0  0  0  0  0
  161.2400  208.3370  149.9800 C   0  0  0  0  0  2  0  0  0  0  0  0
  161.7060  206.9600  149.5020 C   0  0  2  0  0  3  0  0  0  0  0  0
  161.3460  207.2270  155.5280 N   0  0  0  0  0  1  0  0  0  0  0  0
  161.4730  206.5580  153.1640 C   0  0  0  0  0  0  0  0  0  0  0  0
  161.5610  206.0110  150.7040 C   0  0  1  0  0  3  0  0  0  0  0  0
  163.1630  207.0340  149.0890 C   0  0  0  0  0  1  0  0  0  0  0  0
  161.2710  207.5440  154.1420 C   0  0  0  0  0  0  0  0  0  0  0  0
  161.3690  206.8970  151.8450 N   0  0  0  0  0  0  0  0  0  0  0  0
  161.7610  205.3780  153.5030 O   0  0  0  0  0  0  0  0  0  0  0  0
  160.9610  209.1920  152.3820 C   0  0  0  0  0  0  0  0  0  0  0  0
  161.0110  208.8600  153.7430 C   0  0  0  0  0  3  0  0  0  0  0  0
  160.3270  205.1200  150.4820 C   0  0  2  0  0  3  0  0  0  0  0  0
  159.7460  204.7450  151.6950 O   0  0  0  0  0  1  0  0  0  0  0  0
  161.6530  200.1290  147.3360 Cl  0  0  0  0  0  0  0  0  0  0  0  0
  161.2740  201.5760  148.2410 C   0  0  0  0  0  0  0  0  0  0  0  0
  161.0730  203.9870  148.3530 C   0  0  0  0  0  3  0  0  0  0  0  0
  160.5630  202.6370  150.3000 C   0  0  0  0  0  3  0  0  0  0  0  0
  160.6650  203.8940  149.6920 C   0  0  0  0  0  0  0  0  0  0  0  0
  161.3780  202.8300  147.6300 C   0  0  0  0  0  3  0  0  0  0  0  0
  160.8670  201.4800  149.5750 C   0  0  0  0  0  3  0  0  0  0  0  0
  159.7680  211.2900  152.4540 N   0  0  0  0  0  0  0  0  0  0  0  0
  160.7210  210.5750  151.9440 C   0  0  0  0  0  3  0  0  0  0  0  0
  158.8850  213.5390  152.9360 N   0  0  0  0  0  1  0  0  0  0  0  0
  159.8620  213.0330  150.8940 O   0  0  0  0  0  0  0  0  0  0  0  0
  159.5220  212.6360  152.0400 C   0  0  0  0  0  0  0  0  0  0  0  0
  1  9  1  0  0  0  0
  1 11  2  0  0  0  0
  2  1  1  0  0  0  0
  3  7  1  1  0  0  0
  3  2  1  0  0  0  0
  3  6  1  0  0  0  0
  5 10  2  0  0  0  0
  5  8  1  0  0  0  0
  6 13  1  6  0  0  0
  6  9  1  0  0  0  0
  8  4  1  0  0  0  0
  9  5  1  0  0  0  0
 11 12  1  0  0  0  0
 12  8  2  0  0  0  0
 13 14  1  1  0  0  0
 15 16  1  0  0  0  0
 16 21  1  0  0  0  0
 17 19  2  0  0  0  0
 19 18  1  0  0  0  0
 19 13  1  0  0  0  0
 20 16  2  0  0  0  0
 20 17  1  0  0  0  0
 21 18  2  0  0  0  0
 23 11  1  0  0  0  0
 23 22  2  0  0  0  0
 25 26  2  0  0  0  0
 26 22  1  0  0  0  0
 26 24  1  0  0  0  0
M  END
>  <MODEL>
3

>  <REMARK>
 VINA RESULT:      -6.4      2.625      3.409
  Name = 
  4 active torsions:
  status: ('A' for Active; 'I' for Inactive)
    1  A    between atoms: C_8  and  C_11
    2  A    between atoms: C_8  and  C_15
    3  A    between atoms: N_22  and  C_25
    4  A    between atoms: C_23  and  C_24
                            x       y       z     vdW  Elec       q    Type
                         _______ _______ _______ _____ _____    ______ ____

>  <TORSDO>
F 4

$$$$
=
 OpenBabel11072414243D

 26 28  0  0  1  0  0  0  0  0999 V2000
  161.0540  208.4200  152.0970 C   0  0  0  0  0  0  0  0  0  0  0  0
  160.5980  208.3970  153.5050 C   0  0  0  0  0  2  0  0  0  0  0  0
  160.7160  209.8630  153.9270 C   0  0  2  0  0  3  0  0  0  0  0  0
  162.6410  209.0070  148.2640 N   0  0  0  0  0  1  0  0  0  0  0  0
  161.8170  209.8970  150.4040 C   0  0  0  0  0  0  0  0  0  0  0  0
  160.9340  210.6700  152.6360 C   0  0  1  0  0  3  0  0  0  0  0  0
  161.9170  210.0320  154.8380 C   0  0  0  0  0  1  0  0  0  0  0  0
  162.0900  208.8090  149.5610 C   0  0  0  0  0  0  0  0  0  0  0  0
  161.2670  209.6670  151.6320 N   0  0  0  0  0  0  0  0  0  0  0  0
  162.0930  211.0710  150.0330 O   0  0  0  0  0  0  0  0  0  0  0  0
  161.3140  207.2980  151.3010 C   0  0  0  0  0  0  0  0  0  0  0  0
  161.8320  207.5100  150.0150 C   0  0  0  0  0  3  0  0  0  0  0  0
  159.6240  211.3940  152.2810 C   0  0  2  0  0  3  0  0  0  0  0  0
  159.8630  212.5200  151.4910 O   0  0  0  0  0  1  0  0  0  0  0  0
  156.5960  213.0900  157.2330 Cl  0  0  0  0  0  0  0  0  0  0  0  0
  157.4680  212.5930  155.8010 C   0  0  0  0  0  0  0  0  0  0  0  0
  157.6800  211.1450  153.8720 C   0  0  0  0  0  3  0  0  0  0  0  0
  159.3490  212.8490  154.2960 C   0  0  0  0  0  3  0  0  0  0  0  0
  158.8660  211.7980  153.5080 C   0  0  0  0  0  0  0  0  0  0  0  0
  156.9830  211.5420  155.0170 C   0  0  0  0  0  3  0  0  0  0  0  0
  158.6510  213.2460  155.4410 C   0  0  0  0  0  3  0  0  0  0  0  0
  161.1560  204.9040  151.0350 N   0  0  0  0  0  0  0  0  0  0  0  0
  161.0660  205.9410  151.8070 C   0  0  0  0  0  3  0  0  0  0  0  0
  160.8590  202.5000  150.5840 N   0  0  0  0  0  1  0  0  0  0  0  0
  160.7630  203.3490  152.7410 O   0  0  0  0  0  0  0  0  0  0  0  0
  160.9190  203.5770  151.5120 C   0  0  0  0  0  0  0  0  0  0  0  0
  1  2  1  0  0  0  0
  2  3  1  0  0  0  0
  3  7  1  1  0  0  0
  4  8  1  0  0  0  0
  5  9  1  0  0  0  0
  6 13  1  6  0  0  0
  6  3  1  0  0  0  0
  8 12  2  0  0  0  0
  8  5  1  0  0  0  0
  9  1  1  0  0  0  0
  9  6  1  0  0  0  0
 10  5  2  0  0  0  0
 11 23  1  0  0  0  0
 11  1  2  0  0  0  0
 12 11  1  0  0  0  0
 13 14  1  1  0  0  0
 13 19  1  0  0  0  0
 16 15  1  0  0  0  0
 17 20  1  0  0  0  0
 18 21  2  0  0  0  0
 19 17  2  0  0  0  0
 19 18  1  0  0  0  0
 20 16  2  0  0  0  0
 21 16  1  0  0  0  0
 22 26  1  0  0  0  0
 22 23  2  0  0  0  0
 24 26  1  0  0  0  0
 26 25  2  0  0  0  0
M  END
>  <MODEL>
4

>  <REMARK>
 VINA RESULT:      -6.1      5.655      9.826
  Name = 
  4 active torsions:
  status: ('A' for Active; 'I' for Inactive)
    1  A    between atoms: C_8  and  C_11
    2  A    between atoms: C_8  and  C_15
    3  A    between atoms: N_22  and  C_25
    4  A    between atoms: C_23  and  C_24
                            x       y       z     vdW  Elec       q    Type
                         _______ _______ _______ _____ _____    ______ ____

>  <TORSDO>
F 4

$$$$
=
 OpenBabel11072414243D

 26 28  0  0  1  0  0  0  0  0999 V2000
  161.2210  207.9630  150.9310 C   0  0  0  0  0  0  0  0  0  0  0  0
  161.3820  208.6650  149.6380 C   0  0  0  0  0  2  0  0  0  0  0  0
  162.0690  207.6150  148.7610 C   0  0  2  0  0  3  0  0  0  0  0  0
  161.2350  205.6160  154.4020 N   0  0  0  0  0  1  0  0  0  0  0  0
  161.6260  205.8770  151.9880 C   0  0  0  0  0  0  0  0  0  0  0  0
  161.9700  206.2820  149.5230 C   0  0  1  0  0  3  0  0  0  0  0  0
  163.5280  207.9850  148.5780 C   0  0  0  0  0  1  0  0  0  0  0  0
  161.2180  206.4090  153.2200 C   0  0  0  0  0  0  0  0  0  0  0  0
  161.5740  206.6640  150.8720 N   0  0  0  0  0  0  0  0  0  0  0  0
  162.0500  204.6910  151.9180 O   0  0  0  0  0  0  0  0  0  0  0  0
  160.8120  208.5470  152.1350 C   0  0  0  0  0  0  0  0  0  0  0  0
  160.8080  207.7460  153.2860 C   0  0  0  0  0  3  0  0  0  0  0  0
  160.8910  205.4120  148.8540 C   0  0  2  0  0  3  0  0  0  0  0  0
  160.9400  204.0960  149.3170 O   0  0  0  0  0  1  0  0  0  0  0  0
  161.3850  205.5130  142.8280 Cl  0  0  0  0  0  0  0  0  0  0  0  0
  161.2460  205.4770  144.5710 C   0  0  0  0  0  0  0  0  0  0  0  0
  161.9600  204.6060  146.7140 C   0  0  0  0  0  3  0  0  0  0  0  0
  160.1950  206.2630  146.6080 C   0  0  0  0  0  3  0  0  0  0  0  0
  161.0210  205.4210  147.3630 C   0  0  0  0  0  0  0  0  0  0  0  0
  162.0720  204.6340  145.3210 C   0  0  0  0  0  3  0  0  0  0  0  0
  160.3080  206.2900  145.2140 C   0  0  0  0  0  3  0  0  0  0  0  0
  159.9550  210.4930  153.2790 N   0  0  0  0  0  0  0  0  0  0  0  0
  160.4140  209.9610  152.1910 C   0  0  0  0  0  3  0  0  0  0  0  0
  158.8910  212.4600  152.2480 N   0  0  0  0  0  1  0  0  0  0  0  0
  159.8090  212.5560  154.3760 O   0  0  0  0  0  0  0  0  0  0  0  0
  159.5650  211.8660  153.3500 C   0  0  0  0  0  0  0  0  0  0  0  0
  1 11  2  0  0  0  0
  2  1  1  0  0  0  0
  3  7  1  1  0  0  0
  3  6  1  0  0  0  0
  3  2  1  0  0  0  0
  5  8  1  0  0  0  0
  6 13  1  6  0  0  0
  6  9  1  0  0  0  0
  8 12  2  0  0  0  0
  8  4  1  0  0  0  0
  9  1  1  0  0  0  0
  9  5  1  0  0  0  0
 10  5  2  0  0  0  0
 11 23  1  0  0  0  0
 11 12  1  0  0  0  0
 13 14  1  1  0  0  0
 15 16  1  0  0  0  0
 16 21  2  0  0  0  0
 16 20  1  0  0  0  0
 17 19  1  0  0  0  0
 18 19  2  0  0  0  0
 19 13  1  0  0  0  0
 20 17  2  0  0  0  0
 21 18  1  0  0  0  0
 22 26  1  0  0  0  0
 23 22  2  0  0  0  0
 24 26  1  0  0  0  0
 26 25  2  0  0  0  0
M  END
>  <MODEL>
5

>  <REMARK>
 VINA RESULT:      -5.8      3.347      4.166
  Name = 
  4 active torsions:
  status: ('A' for Active; 'I' for Inactive)
    1  A    between atoms: C_8  and  C_11
    2  A    between atoms: C_8  and  C_15
    3  A    between atoms: N_22  and  C_25
    4  A    between atoms: C_23  and  C_24
                            x       y       z     vdW  Elec       q    Type
                         _______ _______ _______ _____ _____    ______ ____

>  <TORSDO>
F 4

$$$$
=
 OpenBabel11072414243D

 26 28  0  0  1  0  0  0  0  0999 V2000
  161.1400  203.4510  148.3120 C   0  0  0  0  0  0  0  0  0  0  0  0
  160.6920  202.7100  149.5130 C   0  0  0  0  0  2  0  0  0  0  0  0
  161.1220  203.6270  150.6600 C   0  0  2  0  0  3  0  0  0  0  0  0
  162.8120  205.8270  145.2920 N   0  0  0  0  0  1  0  0  0  0  0  0
  162.2000  205.4680  147.6480 C   0  0  0  0  0  0  0  0  0  0  0  0
  161.5070  204.9720  150.0210 C   0  0  1  0  0  3  0  0  0  0  0  0
  162.3320  203.0340  151.3560 C   0  0  0  0  0  1  0  0  0  0  0  0
  162.2320  205.0250  146.3170 C   0  0  0  0  0  0  0  0  0  0  0  0
  161.6150  204.6790  148.5970 N   0  0  0  0  0  0  0  0  0  0  0  0
  162.7200  206.5730  147.9620 O   0  0  0  0  0  0  0  0  0  0  0  0
  161.1530  202.9570  147.0020 C   0  0  0  0  0  0  0  0  0  0  0  0
  161.7020  203.7690  145.9990 C   0  0  0  0  0  3  0  0  0  0  0  0
  160.3810  205.9850  150.2930 C   0  0  2  0  0  3  0  0  0  0  0  0
  159.9360  206.5800  149.1110 O   0  0  0  0  0  1  0  0  0  0  0  0
  162.1220  210.3330  154.1180 Cl  0  0  0  0  0  0  0  0  0  0  0  0
  161.6200  209.0710  153.0170 C   0  0  0  0  0  0  0  0  0  0  0  0
  160.8310  206.8140  152.6350 C   0  0  0  0  0  3  0  0  0  0  0  0
  161.2060  208.3000  150.7580 C   0  0  0  0  0  3  0  0  0  0  0  0
  160.8160  207.0500  151.2520 C   0  0  0  0  0  0  0  0  0  0  0  0
  161.2330  207.8230  153.5150 C   0  0  0  0  0  3  0  0  0  0  0  0
  161.6070  209.3090  151.6390 C   0  0  0  0  0  3  0  0  0  0  0  0
  160.9600  200.9910  145.6140 N   0  0  0  0  0  0  0  0  0  0  0  0
  160.6210  201.6220  146.6940 C   0  0  0  0  0  3  0  0  0  0  0  0
  161.2340  198.5430  145.6020 N   0  0  0  0  0  1  0  0  0  0  0  0
  159.3230  199.5520  144.7610 O   0  0  0  0  0  0  0  0  0  0  0  0
  160.4520  199.6920  145.3000 C   0  0  0  0  0  0  0  0  0  0  0  0
  1  9  1  0  0  0  0
  1  2  1  0  0  0  0
  2  3  1  0  0  0  0
  3  7  1  6  0  0  0
  4  8  1  0  0  0  0
  5 10  2  0  0  0  0
  5  9  1  0  0  0  0
  6 13  1  6  0  0  0
  6  3  1  0  0  0  0
  8  5  1  0  0  0  0
  9  6  1  0  0  0  0
 11  1  2  0  0  0  0
 12  8  2  0  0  0  0
 12 11  1  0  0  0  0
 13 14  1  6  0  0  0
 13 19  1  0  0  0  0
 16 20  1  0  0  0  0
 16 15  1  0  0  0  0
 17 20  2  0  0  0  0
 18 19  2  0  0  0  0
 18 21  1  0  0  0  0
 19 17  1  0  0  0  0
 21 16  2  0  0  0  0
 22 23  2  0  0  0  0
 23 11  1  0  0  0  0
 25 26  2  0  0  0  0
 26 24  1  0  0  0  0
 26 22  1  0  0  0  0
M  END
>  <MODEL>
6

>  <REMARK>
 VINA RESULT:      -5.8      4.136      8.021
  Name = 
  4 active torsions:
  status: ('A' for Active; 'I' for Inactive)
    1  A    between atoms: C_8  and  C_11
    2  A    between atoms: C_8  and  C_15
    3  A    between atoms: N_22  and  C_25
    4  A    between atoms: C_23  and  C_24
                            x       y       z     vdW  Elec       q    Type
                         _______ _______ _______ _____ _____    ______ ____

>  <TORSDO>
F 4

$$$$
=
 OpenBabel11072414243D

 26 28  0  0  1  0  0  0  0  0999 V2000
  161.6910  206.6130  149.1070 C   0  0  0  0  0  0  0  0  0  0  0  0
  161.7350  206.5020  147.6320 C   0  0  0  0  0  2  0  0  0  0  0  0
  162.0970  205.0310  147.4100 C   0  0  2  0  0  3  0  0  0  0  0  0
  161.9380  206.4310  153.2860 N   0  0  0  0  0  1  0  0  0  0  0  0
  161.9490  205.3300  151.0870 C   0  0  0  0  0  0  0  0  0  0  0  0
  161.9280  204.3330  148.7710 C   0  0  1  0  0  3  0  0  0  0  0  0
  163.5420  204.9270  146.9650 C   0  0  0  0  0  1  0  0  0  0  0  0
  161.8410  206.4910  151.8670 C   0  0  0  0  0  0  0  0  0  0  0  0
  161.8280  205.4260  149.7290 N   0  0  0  0  0  0  0  0  0  0  0  0
  162.1710  204.2160  151.6350 O   0  0  0  0  0  0  0  0  0  0  0  0
  161.5850  207.8040  149.8360 C   0  0  0  0  0  0  0  0  0  0  0  0
  161.6550  207.7260  151.2350 C   0  0  0  0  0  3  0  0  0  0  0  0
  160.6320  203.5040  148.7410 C   0  0  2  0  0  3  0  0  0  0  0  0
  160.2250  203.1490  150.0280 O   0  0  0  0  0  1  0  0  0  0  0  0
  161.2700  198.5540  145.3250 Cl  0  0  0  0  0  0  0  0  0  0  0  0
  161.0840  199.9820  146.3190 C   0  0  0  0  0  0  0  0  0  0  0  0
  161.0570  201.0270  148.5030 C   0  0  0  0  0  3  0  0  0  0  0  0
  160.6640  202.3590  146.5170 C   0  0  0  0  0  3  0  0  0  0  0  0
  160.7860  202.2680  147.9090 C   0  0  0  0  0  0  0  0  0  0  0  0
  161.2050  199.8860  147.7090 C   0  0  0  0  0  3  0  0  0  0  0  0
  160.8130  201.2170  145.7240 C   0  0  0  0  0  3  0  0  0  0  0  0
  161.8220  210.2020  149.6940 N   0  0  0  0  0  0  0  0  0  0  0  0
  161.4220  209.0940  149.1530 C   0  0  0  0  0  3  0  0  0  0  0  0
  161.0700  212.5480  149.7430 N   0  0  0  0  0  1  0  0  0  0  0  0
  162.0640  211.6340  147.8570 O   0  0  0  0  0  0  0  0  0  0  0  0
  161.6710  211.4650  149.0420 C   0  0  0  0  0  0  0  0  0  0  0  0
  1  9  1  0  0  0  0
  1 11  2  0  0  0  0
  2  1  1  0  0  0  0
  3  7  1  1  0  0  0
  3  2  1  0  0  0  0
  3  6  1  0  0  0  0
  5 10  2  0  0  0  0
  5  8  1  0  0  0  0
  6 13  1  6  0  0  0
  6  9  1  0  0  0  0
  8  4  1  0  0  0  0
  9  5  1  0  0  0  0
 11 12  1  0  0  0  0
 12  8  2  0  0  0  0
 13 14  1  1  0  0  0
 15 16  1  0  0  0  0
 16 20  1  0  0  0  0
 18 19  2  0  0  0  0
 19 17  1  0  0  0  0
 19 13  1  0  0  0  0
 20 17  2  0  0  0  0
 21 16  2  0  0  0  0
 21 18  1  0  0  0  0
 23 22  2  0  0  0  0
 23 11  1  0  0  0  0
 25 26  2  0  0  0  0
 26 22  1  0  0  0  0
 26 24  1  0  0  0  0
M  END
>  <MODEL>
7

>  <REMARK>
 VINA RESULT:      -5.7      0.765      1.207
  Name = 
  4 active torsions:
  status: ('A' for Active; 'I' for Inactive)
    1  A    between atoms: C_8  and  C_11
    2  A    between atoms: C_8  and  C_15
    3  A    between atoms: N_22  and  C_25
    4  A    between atoms: C_23  and  C_24
                            x       y       z     vdW  Elec       q    Type
                         _______ _______ _______ _____ _____    ______ ____

>  <TORSDO>
F 4

$$$$
=
 OpenBabel11072414243D

 26 28  0  0  1  0  0  0  0  0999 V2000
  160.3470  209.4640  153.5450 C   0  0  0  0  0  0  0  0  0  0  0  0
  160.3950  210.1080  152.2130 C   0  0  0  0  0  2  0  0  0  0  0  0
  161.3710  209.2200  151.4390 C   0  0  2  0  0  3  0  0  0  0  0  0
  160.7650  207.4030  157.1700 N   0  0  0  0  0  1  0  0  0  0  0  0
  161.2080  207.6150  154.7590 C   0  0  0  0  0  0  0  0  0  0  0  0
  161.5710  207.9520  152.2870 C   0  0  1  0  0  3  0  0  0  0  0  0
  162.6970  209.9390  151.2840 C   0  0  0  0  0  1  0  0  0  0  0  0
  160.6130  208.0960  155.9350 C   0  0  0  0  0  0  0  0  0  0  0  0
  161.0190  208.2970  153.5910 N   0  0  0  0  0  0  0  0  0  0  0  0
  161.9210  206.5750  154.7880 O   0  0  0  0  0  0  0  0  0  0  0  0
  159.7390  209.9930  154.6900 C   0  0  0  0  0  0  0  0  0  0  0  0
  159.8750  209.2850  155.8930 C   0  0  0  0  0  3  0  0  0  0  0  0
  160.7830  206.7980  151.6410 C   0  0  2  0  0  3  0  0  0  0  0  0
  160.9300  205.6140  152.3650 O   0  0  0  0  0  1  0  0  0  0  0  0
  162.4270  205.8280  145.9020 Cl  0  0  0  0  0  0  0  0  0  0  0  0
  161.9570  206.1140  147.5630 C   0  0  0  0  0  0  0  0  0  0  0  0
  161.9550  207.5290  149.5270 C   0  0  0  0  0  3  0  0  0  0  0  0
  160.8320  205.3830  149.5790 C   0  0  0  0  0  3  0  0  0  0  0  0
  161.2040  206.5700  150.2220 C   0  0  0  0  0  0  0  0  0  0  0  0
  162.3310  207.3010  148.2000 C   0  0  0  0  0  3  0  0  0  0  0  0
  161.2090  205.1550  148.2520 C   0  0  0  0  0  3  0  0  0  0  0  0
  157.7220  211.3080  154.8680 N   0  0  0  0  0  0  0  0  0  0  0  0
  158.9960  211.2600  154.6320 C   0  0  0  0  0  3  0  0  0  0  0  0
  155.6610  212.5290  154.2940 N   0  0  0  0  0  1  0  0  0  0  0  0
  157.4890  213.6100  155.2280 O   0  0  0  0  0  0  0  0  0  0  0  0
  156.9840  212.5310  154.8160 C   0  0  0  0  0  0  0  0  0  0  0  0
  1  9  1  0  0  0  0
  1 11  2  0  0  0  0
  2  1  1  0  0  0  0
  3  7  1  1  0  0  0
  3  2  1  0  0  0  0
  3  6  1  0  0  0  0
  5 10  2  0  0  0  0
  5  8  1  0  0  0  0
  6 13  1  6  0  0  0
  6  9  1  0  0  0  0
  8  4  1  0  0  0  0
  9  5  1  0  0  0  0
 11 12  1  0  0  0  0
 12  8  2  0  0  0  0
 13 14  1  1  0  0  0
 15 16  1  0  0  0  0
 16 20  2  0  0  0  0
 16 21  1  0  0  0  0
 17 19  2  0  0  0  0
 18 19  1  0  0  0  0
 19 13  1  0  0  0  0
 20 17  1  0  0  0  0
 21 18  2  0  0  0  0
 23 11  1  0  0  0  0
 23 22  2  0  0  0  0
 24 26  1  0  0  0  0
 26 22  1  0  0  0  0
 26 25  2  0  0  0  0
M  END
>  <MODEL>
8

>  <REMARK>
 VINA RESULT:      -5.7      4.497      6.298
  Name = 
  4 active torsions:
  status: ('A' for Active; 'I' for Inactive)
    1  A    between atoms: C_8  and  C_11
    2  A    between atoms: C_8  and  C_15
    3  A    between atoms: N_22  and  C_25
    4  A    between atoms: C_23  and  C_24
                            x       y       z     vdW  Elec       q    Type
                         _______ _______ _______ _____ _____    ______ ____

>  <TORSDO>
F 4

$$$$
=
 OpenBabel11072414243D

 26 28  0  0  1  0  0  0  0  0999 V2000
  160.4410  209.2990  152.9940 C   0  0  0  0  0  0  0  0  0  0  0  0
  160.4980  209.1440  151.5230 C   0  0  0  0  0  2  0  0  0  0  0  0
  161.3930  207.9150  151.3430 C   0  0  2  0  0  3  0  0  0  0  0  0
  160.8120  209.4190  157.1660 N   0  0  0  0  0  1  0  0  0  0  0  0
  161.2060  208.3050  155.0090 C   0  0  0  0  0  0  0  0  0  0  0  0
  161.5290  207.2700  152.7320 C   0  0  1  0  0  3  0  0  0  0  0  0
  162.7600  208.3520  150.8520 C   0  0  0  0  0  1  0  0  0  0  0  0
  160.6750  209.3720  155.7500 C   0  0  0  0  0  0  0  0  0  0  0  0
  161.0340  208.2850  153.6540 N   0  0  0  0  0  0  0  0  0  0  0  0
  161.8490  207.3880  155.5890 O   0  0  0  0  0  0  0  0  0  0  0  0
  159.8990  210.3900  153.6830 C   0  0  0  0  0  0  0  0  0  0  0  0
  160.0170  210.4100  155.0800 C   0  0  0  0  0  3  0  0  0  0  0  0
  160.6500  206.0070  152.7760 C   0  0  2  0  0  3  0  0  0  0  0  0
  160.9460  205.2210  153.8910 O   0  0  0  0  0  1  0  0  0  0  0  0
  161.2420  202.6330  147.7930 Cl  0  0  0  0  0  0  0  0  0  0  0  0
  161.0720  203.6150  149.2310 C   0  0  0  0  0  0  0  0  0  0  0  0
  160.6650  205.7670  150.2630 C   0  0  0  0  0  3  0  0  0  0  0  0
  161.0730  203.8180  151.6440 C   0  0  0  0  0  3  0  0  0  0  0  0
  160.8010  205.1860  151.5330 C   0  0  0  0  0  0  0  0  0  0  0  0
  160.8010  204.9820  149.1150 C   0  0  0  0  0  3  0  0  0  0  0  0
  161.2090  203.0340  150.4940 C   0  0  0  0  0  3  0  0  0  0  0  0
  159.9150  212.3150  152.2250 N   0  0  0  0  0  0  0  0  0  0  0  0
  159.2400  211.4870  152.9590 C   0  0  0  0  0  3  0  0  0  0  0  0
  157.8820  213.3670  151.3150 N   0  0  0  0  0  1  0  0  0  0  0  0
  159.9690  214.3470  151.0640 O   0  0  0  0  0  0  0  0  0  0  0  0
  159.2910  213.3860  151.5150 C   0  0  0  0  0  0  0  0  0  0  0  0
  1  9  1  0  0  0  0
  1 11  2  0  0  0  0
  2  1  1  0  0  0  0
  3  7  1  1  0  0  0
  3  2  1  0  0  0  0
  3  6  1  0  0  0  0
  5 10  2  0  0  0  0
  5  8  1  0  0  0  0
  6 13  1  6  0  0  0
  6  9  1  0  0  0  0
  8  4  1  0  0  0  0
  9  5  1  0  0  0  0
 11 12  1  0  0  0  0
 12  8  2  0  0  0  0
 13 14  1  1  0  0  0
 15 16  1  0  0  0  0
 16 21  1  0  0  0  0
 17 19  2  0  0  0  0
 19 18  1  0  0  0  0
 19 13  1  0  0  0  0
 20 16  2  0  0  0  0
 20 17  1  0  0  0  0
 21 18  2  0  0  0  0
 22 23  2  0  0  0  0
 23 11  1  0  0  0  0
 24 26  1  0  0  0  0
 25 26  2  0  0  0  0
 26 22  1  0  0  0  0
M  END
>  <MODEL>
9

>  <REMARK>
 VINA RESULT:      -5.6      3.644      5.195
  Name = 
  4 active torsions:
  status: ('A' for Active; 'I' for Inactive)
    1  A    between atoms: C_8  and  C_11
    2  A    between atoms: C_8  and  C_15
    3  A    between atoms: N_22  and  C_25
    4  A    between atoms: C_23  and  C_24
                            x       y       z     vdW  Elec       q    Type
                         _______ _______ _______ _____ _____    ______ ____

>  <TORSDO>
F 4

$$$$
