=
 OpenBabel11072412273D

 33 35  0  0  1  0  0  0  0  0999 V2000
  161.2980  208.2200  151.1870 C   0  0  1  0  0  3  0  0  0  0  0  0
  160.1880  206.1160  150.5550 C   0  0  0  0  0  2  0  0  0  0  0  0
  161.9460  208.4090  149.8040 C   0  0  1  0  0  3  0  0  0  0  0  0
  162.4010  204.7400  147.6290 C   0  0  0  0  0  2  0  0  0  0  0  0
  161.4720  204.7340  148.8630 C   0  0  1  0  0  3  0  0  0  0  0  0
  161.7130  207.2650  148.8400 C   0  0  0  0  0  0  0  0  0  0  0  0
  162.4450  207.2110  147.7190 C   0  0  0  0  0  3  0  0  0  0  0  0
  160.7940  206.0900  149.1490 C   0  0  2  0  0  3  0  0  0  0  0  0
  161.1320  206.7540  151.5580 C   0  0  0  0  0  2  0  0  0  0  0  0
  162.3110  206.0290  146.8060 C   0  0  0  0  0  2  0  0  0  0  0  0
  162.1180  208.9050  152.2310 C   0  0  0  0  0  3  0  0  0  0  0  0
  161.7430  209.9840  152.9340 C   0  0  0  0  0  0  0  0  0  0  0  0
  160.4590  210.7090  152.7460 C   0  0  0  0  0  0  0  0  0  0  0  0
  158.2400  213.1070  151.4730 O   0  0  0  0  0  0  0  0  0  0  0  0
  158.8630  212.1670  152.0320 C   0  0  0  0  0  0  0  0  0  0  0  0
  159.2910  210.3700  153.2970 C   0  0  0  0  0  3  0  0  0  0  0  0
  160.3110  211.9080  151.8620 C   0  0  0  0  0  2  0  0  0  0  0  0
  158.2380  211.2390  152.9000 N   0  0  0  0  0  2  0  0  0  0  0  0
  162.7050  210.4910  153.9610 C   0  0  0  0  0  2  0  0  0  0  0  0
  162.0980  210.4500  155.3310 C   0  0  0  0  0  0  0  0  0  0  0  0
  161.7530  211.5260  155.8850 O   0  0  0  0  0  0  0  0  0  0  0  0
  161.9030  209.2420  156.0090 O   0  0  0  0  0  0  0  0  0  0  0  0
  160.6790  208.8920  156.6490 C   0  0  0  0  0  2  0  0  0  0  0  0
  160.3250  207.1220  154.9280 O   0  0  0  0  0  0  0  0  0  0  0  0
  160.2460  207.5180  156.2570 C   0  0  0  0  0  0  0  0  0  0  0  0
  159.7890  206.7230  157.1200 O   0  0  0  0  0  1  0  0  0  0  0  0
  161.4700  209.7170  149.1770 C   0  0  0  0  0  2  0  0  0  0  0  0
  162.4440  210.7090  149.3200 O   0  0  0  0  0  0  0  0  0  0  0  0
  162.0500  211.7140  148.4330 C   0  0  0  0  0  1  0  0  0  0  0  0
  160.4540  203.7020  148.7100 N   0  0  0  0  0  2  0  0  0  0  0  0
  159.8810  201.5480  149.2350 C   0  0  0  0  0  1  0  0  0  0  0  0
  160.9320  202.5450  149.3430 N   0  0  0  0  0  0  0  0  0  0  0  0
  161.0510  202.8390  150.6600 O   0  0  0  0  0  1  0  0  0  0  0  0
  1  9  1  0  0  0  0
  1 11  1  1  0  0  0
  2  9  1  0  0  0  0
  3 27  1  6  0  0  0
  3  1  1  0  0  0  0
  4  5  1  0  0  0  0
  5 30  1  6  0  0  0
  5  8  1  0  0  0  0
  6  8  1  0  0  0  0
  6  3  1  0  0  0  0
  7  6  2  0  0  0  0
  8  2  1  1  0  0  0
 10  4  1  0  0  0  0
 10  7  1  0  0  0  0
 11 12  2  0  0  0  0
 12 19  1  0  0  0  0
 13 12  1  0  0  0  0
 13 16  2  0  0  0  0
 14 15  2  0  0  0  0
 15 18  1  0  0  0  0
 17 15  1  0  0  0  0
 17 13  1  0  0  0  0
 18 16  1  0  0  0  0
 19 20  1  0  0  0  0
 20 21  2  0  0  0  0
 20 22  1  0  0  0  0
 22 23  1  0  0  0  0
 24 25  2  0  0  0  0
 25 23  1  0  0  0  0
 25 26  1  0  0  0  0
 27 28  1  0  0  0  0
 29 28  1  0  0  0  0
 30 32  1  0  0  0  0
 31 32  1  0  0  0  0
 32 33  1  0  0  0  0
M  END
>  <MODEL>
1

>  <REMARK>
 VINA RESULT:      -5.4      0.000      0.000
  Name = 
  11 active torsions:
  status: ('A' for Active; 'I' for Inactive)
    1  A    between atoms: C_1  and  C_2
    2  A    between atoms: C_3  and  C_12
    3  A    between atoms: C_3  and  O_21
    4  A    between atoms: C_6  and  C_7
    5  A    between atoms: C_6  and  C_12
    6  A    between atoms: C_8  and  C_16
    7  A    between atoms: O_10  and  C_16
    8  A    between atoms: C_13  and  C_14
    9  A    between atoms: C_14  and  O_21
   10  A    between atoms: N_17  and  N_20
   11  A    between atoms: C_19  and  N_20
                            x       y       z     vdW  Elec       q    Type
                         _______ _______ _______ _____ _____    ______ ____

>  <TORSDO>
F 11

$$$$
=
 OpenBabel11072412273D

 33 35  0  0  1  0  0  0  0  0999 V2000
  161.4870  208.2240  151.1480 C   0  0  1  0  0  3  0  0  0  0  0  0
  161.3780  207.9420  153.5900 C   0  0  0  0  0  2  0  0  0  0  0  0
  161.2100  209.7360  151.2100 C   0  0  1  0  0  3  0  0  0  0  0  0
  159.1420  210.9350  154.7710 C   0  0  0  0  0  2  0  0  0  0  0  0
  159.7690  209.5230  154.7450 C   0  0  1  0  0  3  0  0  0  0  0  0
  160.9140  210.2620  152.5980 C   0  0  0  0  0  0  0  0  0  0  0  0
  160.4050  211.4960  152.7220 C   0  0  0  0  0  3  0  0  0  0  0  0
  161.0240  209.4080  153.8540 C   0  0  2  0  0  3  0  0  0  0  0  0
  160.8040  207.4580  152.2710 C   0  0  0  0  0  2  0  0  0  0  0  0
  160.0000  211.9950  154.0750 C   0  0  0  0  0  2  0  0  0  0  0  0
  161.0380  207.6780  149.8310 C   0  0  0  0  0  3  0  0  0  0  0  0
  160.9060  206.3770  149.5290 C   0  0  0  0  0  0  0  0  0  0  0  0
  161.2420  205.2590  150.4490 C   0  0  0  0  0  0  0  0  0  0  0  0
  160.9160  202.1480  152.0340 O   0  0  0  0  0  0  0  0  0  0  0  0
  161.2170  203.2820  151.5770 C   0  0  0  0  0  0  0  0  0  0  0  0
  162.3290  205.1920  151.2210 C   0  0  0  0  0  3  0  0  0  0  0  0
  160.4030  204.0270  150.5900 C   0  0  0  0  0  2  0  0  0  0  0  0
  162.3860  203.9810  151.9640 N   0  0  0  0  0  2  0  0  0  0  0  0
  160.4050  206.0480  148.1600 C   0  0  0  0  0  2  0  0  0  0  0  0
  161.5120  205.5300  147.2920 C   0  0  0  0  0  0  0  0  0  0  0  0
  162.2850  206.3470  146.7250 O   0  0  0  0  0  0  0  0  0  0  0  0
  161.7110  204.1590  147.0990 O   0  0  0  0  0  0  0  0  0  0  0  0
  161.5570  203.5160  145.8380 C   0  0  0  0  0  2  0  0  0  0  0  0
  160.0110  201.7690  144.9540 O   0  0  0  0  0  0  0  0  0  0  0  0
  160.8250  202.2220  145.9840 C   0  0  0  0  0  0  0  0  0  0  0  0
  160.9230  201.5510  147.0450 O   0  0  0  0  0  1  0  0  0  0  0  0
  162.3790  210.5080  150.6040 C   0  0  0  0  0  2  0  0  0  0  0  0
  161.9110  211.4890  149.7240 O   0  0  0  0  0  0  0  0  0  0  0  0
  162.1590  210.9640  148.4530 C   0  0  0  0  0  1  0  0  0  0  0  0
  160.0940  209.1020  156.1020 N   0  0  0  0  0  2  0  0  0  0  0  0
  162.0530  208.6570  157.2020 C   0  0  0  0  0  1  0  0  0  0  0  0
  161.3410  209.6570  156.4250 N   0  0  0  0  0  0  0  0  0  0  0  0
  161.1030  210.6960  157.2610 O   0  0  0  0  0  1  0  0  0  0  0  0
  1 11  1  6  0  0  0
  1  3  1  0  0  0  0
  1  9  1  0  0  0  0
  3 27  1  1  0  0  0
  3  6  1  0  0  0  0
  5  4  1  0  0  0  0
  5 30  1  1  0  0  0
  6  7  2  0  0  0  0
  6  8  1  0  0  0  0
  7 10  1  0  0  0  0
  8  2  1  6  0  0  0
  8  5  1  0  0  0  0
  9  2  1  0  0  0  0
 10  4  1  0  0  0  0
 12 11  2  0  0  0  0
 12 13  1  0  0  0  0
 13 17  1  0  0  0  0
 13 16  2  0  0  0  0
 15 18  1  0  0  0  0
 15 14  2  0  0  0  0
 16 18  1  0  0  0  0
 17 15  1  0  0  0  0
 19 12  1  0  0  0  0
 20 19  1  0  0  0  0
 21 20  2  0  0  0  0
 22 20  1  0  0  0  0
 23 25  1  0  0  0  0
 23 22  1  0  0  0  0
 24 25  2  0  0  0  0
 25 26  1  0  0  0  0
 28 27  1  0  0  0  0
 29 28  1  0  0  0  0
 30 32  1  0  0  0  0
 32 31  1  0  0  0  0
 32 33  1  0  0  0  0
M  END
>  <MODEL>
2

>  <REMARK>
 VINA RESULT:      -5.4      2.559      8.073
  Name = 
  11 active torsions:
  status: ('A' for Active; 'I' for Inactive)
    1  A    between atoms: C_1  and  C_2
    2  A    between atoms: C_3  and  C_12
    3  A    between atoms: C_3  and  O_21
    4  A    between atoms: C_6  and  C_7
    5  A    between atoms: C_6  and  C_12
    6  A    between atoms: C_8  and  C_16
    7  A    between atoms: O_10  and  C_16
    8  A    between atoms: C_13  and  C_14
    9  A    between atoms: C_14  and  O_21
   10  A    between atoms: N_17  and  N_20
   11  A    between atoms: C_19  and  N_20
                            x       y       z     vdW  Elec       q    Type
                         _______ _______ _______ _____ _____    ______ ____

>  <TORSDO>
F 11

$$$$
=
 OpenBabel11072412273D

 33 35  0  0  1  0  0  0  0  0999 V2000
  160.7730  209.0380  153.1310 C   0  0  1  0  0  3  0  0  0  0  0  0
  161.9750  208.4270  151.0720 C   0  0  0  0  0  2  0  0  0  0  0  0
  160.6730  207.5840  153.6230 C   0  0  1  0  0  3  0  0  0  0  0  0
  160.9260  204.7020  150.4560 C   0  0  0  0  0  2  0  0  0  0  0  0
  161.3470  206.1550  150.1410 C   0  0  1  0  0  3  0  0  0  0  0  0
  161.2050  206.5540  152.6480 C   0  0  0  0  0  0  0  0  0  0  0  0
  160.9250  205.2610  152.8640 C   0  0  0  0  0  3  0  0  0  0  0  0
  161.9160  206.9220  151.3530 C   0  0  2  0  0  3  0  0  0  0  0  0
  160.7520  209.1440  151.6140 C   0  0  0  0  0  2  0  0  0  0  0  0
  161.3440  204.2360  151.8540 C   0  0  0  0  0  2  0  0  0  0  0  0
  159.6520  209.8460  153.6990 C   0  0  0  0  0  3  0  0  0  0  0  0
  159.7460  210.6890  154.7390 C   0  0  0  0  0  0  0  0  0  0  0  0
  160.9830  210.9160  155.5310 C   0  0  0  0  0  0  0  0  0  0  0  0
  164.4200  211.1020  156.2050 O   0  0  0  0  0  0  0  0  0  0  0  0
  163.1620  211.1090  156.1650 C   0  0  0  0  0  0  0  0  0  0  0  0
  161.0270  211.3640  156.7880 C   0  0  0  0  0  3  0  0  0  0  0  0
  162.3620  210.7060  154.9860 C   0  0  0  0  0  2  0  0  0  0  0  0
  162.3590  211.5100  157.2610 N   0  0  0  0  0  2  0  0  0  0  0  0
  158.5060  211.4290  155.1240 C   0  0  0  0  0  2  0  0  0  0  0  0
  158.1590  212.4660  154.0980 C   0  0  0  0  0  0  0  0  0  0  0  0
  156.9510  212.6640  153.8040 O   0  0  0  0  0  0  0  0  0  0  0  0
  159.1470  213.2250  153.4620 O   0  0  0  0  0  0  0  0  0  0  0  0
  158.8780  214.1090  152.3780 C   0  0  0  0  0  2  0  0  0  0  0  0
  157.9800  213.2950  150.1970 O   0  0  0  0  0  0  0  0  0  0  0  0
  159.0560  213.4160  151.0670 C   0  0  0  0  0  0  0  0  0  0  0  0
  160.1700  212.9180  150.7550 O   0  0  0  0  0  1  0  0  0  0  0  0
  161.3810  207.4360  154.9670 C   0  0  0  0  0  2  0  0  0  0  0  0
  160.4990  206.9370  155.9300 O   0  0  0  0  0  0  0  0  0  0  0  0
  160.8650  207.5910  157.1090 C   0  0  0  0  0  1  0  0  0  0  0  0
  162.3220  206.1630  149.0570 N   0  0  0  0  0  2  0  0  0  0  0  0
  162.3530  205.0820  147.0390 C   0  0  0  0  0  1  0  0  0  0  0  0
  161.6120  206.0270  147.8550 N   0  0  0  0  0  0  0  0  0  0  0  0
  161.6820  207.2220  147.2210 O   0  0  0  0  0  1  0  0  0  0  0  0
  1  3  1  0  0  0  0
  1 11  1  1  0  0  0
  2  9  1  0  0  0  0
  3 27  1  1  0  0  0
  4 10  1  0  0  0  0
  5 30  1  6  0  0  0
  5  4  1  0  0  0  0
  5  8  1  0  0  0  0
  6  7  2  0  0  0  0
  6  3  1  0  0  0  0
  8  2  1  6  0  0  0
  8  6  1  0  0  0  0
  9  1  1  0  0  0  0
 10  7  1  0  0  0  0
 11 12  2  0  0  0  0
 12 19  1  0  0  0  0
 12 13  1  0  0  0  0
 13 16  2  0  0  0  0
 15 14  2  0  0  0  0
 15 18  1  0  0  0  0
 16 18  1  0  0  0  0
 17 13  1  0  0  0  0
 17 15  1  0  0  0  0
 20 19  1  0  0  0  0
 21 20  2  0  0  0  0
 22 20  1  0  0  0  0
 23 22  1  0  0  0  0
 24 25  2  0  0  0  0
 25 23  1  0  0  0  0
 26 25  1  0  0  0  0
 27 28  1  0  0  0  0
 28 29  1  0  0  0  0
 31 32  1  0  0  0  0
 32 30  1  0  0  0  0
 33 32  1  0  0  0  0
M  END
>  <MODEL>
3

>  <REMARK>
 VINA RESULT:      -5.2      2.418      5.388
  Name = 
  11 active torsions:
  status: ('A' for Active; 'I' for Inactive)
    1  A    between atoms: C_1  and  C_2
    2  A    between atoms: C_3  and  C_12
    3  A    between atoms: C_3  and  O_21
    4  A    between atoms: C_6  and  C_7
    5  A    between atoms: C_6  and  C_12
    6  A    between atoms: C_8  and  C_16
    7  A    between atoms: O_10  and  C_16
    8  A    between atoms: C_13  and  C_14
    9  A    between atoms: C_14  and  O_21
   10  A    between atoms: N_17  and  N_20
   11  A    between atoms: C_19  and  N_20
                            x       y       z     vdW  Elec       q    Type
                         _______ _______ _______ _____ _____    ______ ____

>  <TORSDO>
F 11

$$$$
=
 OpenBabel11072412273D

 33 35  0  0  1  0  0  0  0  0999 V2000
  161.0710  208.5220  152.0730 C   0  0  1  0  0  3  0  0  0  0  0  0
  162.2280  207.4680  150.1730 C   0  0  0  0  0  2  0  0  0  0  0  0
  160.7390  207.1790  152.7440 C   0  0  1  0  0  3  0  0  0  0  0  0
  160.6480  203.8870  149.9950 C   0  0  0  0  0  2  0  0  0  0  0  0
  161.2920  205.2070  149.5150 C   0  0  1  0  0  3  0  0  0  0  0  0
  161.1370  205.9600  151.9390 C   0  0  0  0  0  0  0  0  0  0  0  0
  160.6600  204.7630  152.3070 C   0  0  0  0  0  3  0  0  0  0  0  0
  161.9340  206.0410  150.6440 C   0  0  2  0  0  3  0  0  0  0  0  0
  161.1120  208.4230  150.5560 C   0  0  0  0  0  2  0  0  0  0  0  0
  160.9490  203.5600  151.4610 C   0  0  0  0  0  2  0  0  0  0  0  0
  160.0690  209.5540  152.4750 C   0  0  0  0  0  3  0  0  0  0  0  0
  160.2390  210.4750  153.4360 C   0  0  0  0  0  0  0  0  0  0  0  0
  161.4450  210.5820  154.2980 C   0  0  0  0  0  0  0  0  0  0  0  0
  163.3130  210.7700  157.2600 O   0  0  0  0  0  0  0  0  0  0  0  0
  162.8350  210.7010  156.0980 C   0  0  0  0  0  0  0  0  0  0  0  0
  162.7080  210.5950  153.8650 C   0  0  0  0  0  3  0  0  0  0  0  0
  161.3870  210.6440  155.7930 C   0  0  0  0  0  2  0  0  0  0  0  0
  163.6410  210.6710  154.9340 N   0  0  0  0  0  2  0  0  0  0  0  0
  159.1180  211.4410  153.6530 C   0  0  0  0  0  2  0  0  0  0  0  0
  159.0110  212.4050  152.5100 C   0  0  0  0  0  0  0  0  0  0  0  0
  157.9470  213.0590  152.3530 O   0  0  0  0  0  0  0  0  0  0  0  0
  160.0670  212.5980  151.6140 O   0  0  0  0  0  0  0  0  0  0  0  0
  159.9500  213.3660  150.4200 C   0  0  0  0  0  2  0  0  0  0  0  0
  161.1610  213.6760  148.2610 O   0  0  0  0  0  0  0  0  0  0  0  0
  160.9250  212.9010  149.3890 C   0  0  0  0  0  0  0  0  0  0  0  0
  161.5180  211.7980  149.5240 O   0  0  0  0  0  1  0  0  0  0  0  0
  161.3760  207.1130  154.1290 C   0  0  0  0  0  2  0  0  0  0  0  0
  160.3890  207.0670  155.1180 O   0  0  0  0  0  0  0  0  0  0  0  0
  161.0800  207.2990  156.3110 C   0  0  0  0  0  1  0  0  0  0  0  0
  162.2880  204.9260  148.4890 N   0  0  0  0  0  2  0  0  0  0  0  0
  162.6400  205.0890  146.2330 C   0  0  0  0  0  1  0  0  0  0  0  0
  161.6240  204.9080  147.2550 N   0  0  0  0  0  0  0  0  0  0  0  0
  160.8370  206.0100  147.2160 O   0  0  0  0  0  1  0  0  0  0  0  0
  1 11  1  6  0  0  0
  1  3  1  0  0  0  0
  2  9  1  0  0  0  0
  3 27  1  1  0  0  0
  4 10  1  0  0  0  0
  5 30  1  6  0  0  0
  5  4  1  0  0  0  0
  5  8  1  0  0  0  0
  6  7  2  0  0  0  0
  6  3  1  0  0  0  0
  8  2  1  6  0  0  0
  8  6  1  0  0  0  0
  9  1  1  0  0  0  0
 10  7  1  0  0  0  0
 11 12  2  0  0  0  0
 12 19  1  0  0  0  0
 12 13  1  0  0  0  0
 13 17  1  0  0  0  0
 15 14  2  0  0  0  0
 16 13  2  0  0  0  0
 16 18  1  0  0  0  0
 17 15  1  0  0  0  0
 18 15  1  0  0  0  0
 20 19  1  0  0  0  0
 21 20  2  0  0  0  0
 22 20  1  0  0  0  0
 23 22  1  0  0  0  0
 24 25  2  0  0  0  0
 25 26  1  0  0  0  0
 25 23  1  0  0  0  0
 27 28  1  0  0  0  0
 28 29  1  0  0  0  0
 31 32  1  0  0  0  0
 32 30  1  0  0  0  0
 33 32  1  0  0  0  0
M  END
>  <MODEL>
4

>  <REMARK>
 VINA RESULT:      -5.2      2.021      5.285
  Name = 
  11 active torsions:
  status: ('A' for Active; 'I' for Inactive)
    1  A    between atoms: C_1  and  C_2
    2  A    between atoms: C_3  and  C_12
    3  A    between atoms: C_3  and  O_21
    4  A    between atoms: C_6  and  C_7
    5  A    between atoms: C_6  and  C_12
    6  A    between atoms: C_8  and  C_16
    7  A    between atoms: O_10  and  C_16
    8  A    between atoms: C_13  and  C_14
    9  A    between atoms: C_14  and  O_21
   10  A    between atoms: N_17  and  N_20
   11  A    between atoms: C_19  and  N_20
                            x       y       z     vdW  Elec       q    Type
                         _______ _______ _______ _____ _____    ______ ____

>  <TORSDO>
F 11

$$$$
=
 OpenBabel11072412273D

 33 35  0  0  1  0  0  0  0  0999 V2000
  161.8030  210.7030  150.1500 C   0  0  1  0  0  3  0  0  0  0  0  0
  162.4580  209.0200  148.4770 C   0  0  0  0  0  2  0  0  0  0  0  0
  161.5150  209.6540  151.2380 C   0  0  1  0  0  3  0  0  0  0  0  0
  160.6080  205.7720  149.6540 C   0  0  0  0  0  2  0  0  0  0  0  0
  161.2380  206.8100  148.6970 C   0  0  1  0  0  3  0  0  0  0  0  0
  161.6450  208.2180  150.7750 C   0  0  0  0  0  0  0  0  0  0  0  0
  161.1640  207.2440  151.5610 C   0  0  0  0  0  3  0  0  0  0  0  0
  162.1600  207.8310  149.3950 C   0  0  2  0  0  3  0  0  0  0  0  0
  161.5200  210.1830  148.7490 C   0  0  0  0  0  2  0  0  0  0  0  0
  161.1800  205.8270  151.0730 C   0  0  0  0  0  2  0  0  0  0  0  0
  160.9860  211.9290  150.3970 C   0  0  0  0  0  3  0  0  0  0  0  0
  160.7900  212.9260  149.5200 C   0  0  0  0  0  0  0  0  0  0  0  0
  161.4030  212.9940  148.1680 C   0  0  0  0  0  0  0  0  0  0  0  0
  161.5570  212.9300  144.6650 O   0  0  0  0  0  0  0  0  0  0  0  0
  161.7120  213.0020  145.9120 C   0  0  0  0  0  0  0  0  0  0  0  0
  162.6820  213.2790  147.9110 C   0  0  0  0  0  3  0  0  0  0  0  0
  160.6320  212.7870  146.9020 C   0  0  0  0  0  3  0  0  0  0  0  0
  162.9570  213.3020  146.5170 N   0  0  0  0  0  0  0  0  0  0  0  0
  159.9040  214.0480  149.9590 C   0  0  0  0  0  2  0  0  0  0  0  0
  158.4740  213.6040  150.0360 C   0  0  0  0  0  0  0  0  0  0  0  0
  157.8320  213.4050  148.9710 O   0  0  0  0  0  0  0  0  0  0  0  0
  157.8350  213.4020  151.2640 O   0  0  0  0  0  0  0  0  0  0  0  0
  158.3840  213.8210  152.5100 C   0  0  0  0  0  2  0  0  0  0  0  0
  158.5180  211.3590  152.8920 O   0  0  0  0  0  0  0  0  0  0  0  0
  158.8130  212.6450  153.3260 C   0  0  0  0  0  0  0  0  0  0  0  0
  159.4200  212.8130  154.4160 O   0  0  0  0  0  1  0  0  0  0  0  0
  162.4180  209.8910  152.4450 C   0  0  0  0  0  2  0  0  0  0  0  0
  161.7290  210.5890  153.4410 O   0  0  0  0  0  0  0  0  0  0  0  0
  161.2970  209.5980  154.3260 C   0  0  0  0  0  1  0  0  0  0  0  0
  161.9750  206.1260  147.6430 N   0  0  0  0  0  2  0  0  0  0  0  0
  161.7760  204.4070  146.1440 C   0  0  0  0  0  1  0  0  0  0  0  0
  161.0410  205.4370  146.8570 N   0  0  0  0  0  0  0  0  0  0  0  0
  160.5940  206.3100  145.9230 O   0  0  0  0  0  1  0  0  0  0  0  0
  1 11  1  1  0  0  0
  1  3  1  0  0  0  0
  2  9  1  0  0  0  0
  3 27  1  1  0  0  0
  4 10  1  0  0  0  0
  5 30  1  6  0  0  0
  5  8  1  0  0  0  0
  5  4  1  0  0  0  0
  6  3  1  0  0  0  0
  6  7  2  0  0  0  0
  8  2  1  6  0  0  0
  8  6  1  0  0  0  0
  9  1  1  0  0  0  0
 10  7  1  0  0  0  0
 12 19  1  0  0  0  0
 12 11  2  0  0  0  0
 13 12  1  0  0  0  0
 14 15  2  0  0  0  0
 15 18  1  0  0  0  0
 15 17  1  0  0  0  0
 16 13  1  0  0  0  0
 17 13  2  0  0  0  0
 18 16  2  0  0  0  0
 19 20  1  0  0  0  0
 20 22  1  0  0  0  0
 21 20  2  0  0  0  0
 22 23  1  0  0  0  0
 23 25  1  0  0  0  0
 24 25  2  0  0  0  0
 25 26  1  0  0  0  0
 27 28  1  0  0  0  0
 28 29  1  0  0  0  0
 31 32  1  0  0  0  0
 32 30  1  0  0  0  0
 33 32  1  0  0  0  0
M  END
>  <MODEL>
5

>  <REMARK>
 VINA RESULT:      -5.1      2.896      5.302
  Name = 
  11 active torsions:
  status: ('A' for Active; 'I' for Inactive)
    1  A    between atoms: C_1  and  C_2
    2  A    between atoms: C_3  and  C_12
    3  A    between atoms: C_3  and  O_21
    4  A    between atoms: C_6  and  C_7
    5  A    between atoms: C_6  and  C_12
    6  A    between atoms: C_8  and  C_16
    7  A    between atoms: O_10  and  C_16
    8  A    between atoms: C_13  and  C_14
    9  A    between atoms: C_14  and  O_21
   10  A    between atoms: N_17  and  N_20
   11  A    between atoms: C_19  and  N_20
                            x       y       z     vdW  Elec       q    Type
                         _______ _______ _______ _____ _____    ______ ____

>  <TORSDO>
F 11

$$$$
=
 OpenBabel11072412273D

 33 35  0  0  1  0  0  0  0  0999 V2000
  160.1860  210.2270  153.3640 C   0  0  1  0  0  3  0  0  0  0  0  0
  157.8650  210.8500  153.8920 C   0  0  0  0  0  2  0  0  0  0  0  0
  160.7760  211.0480  154.5230 C   0  0  1  0  0  3  0  0  0  0  0  0
  158.2290  214.2570  155.7950 C   0  0  0  0  0  2  0  0  0  0  0  0
  157.6150  213.1680  154.8860 C   0  0  1  0  0  3  0  0  0  0  0  0
  159.7600  211.8650  155.2930 C   0  0  0  0  0  0  0  0  0  0  0  0
  160.2010  212.8070  156.1390 C   0  0  0  0  0  3  0  0  0  0  0  0
  158.2600  211.7760  155.0470 C   0  0  2  0  0  3  0  0  0  0  0  0
  158.9160  210.8430  152.7980 C   0  0  0  0  0  2  0  0  0  0  0  0
  159.2160  213.7020  156.8260 C   0  0  0  0  0  2  0  0  0  0  0  0
  161.1980  210.0870  152.2730 C   0  0  0  0  0  3  0  0  0  0  0  0
  161.7130  208.9300  151.8290 C   0  0  0  0  0  0  0  0  0  0  0  0
  161.3950  207.5930  152.3960 C   0  0  0  0  0  0  0  0  0  0  0  0
  160.8550  204.1280  152.4360 O   0  0  0  0  0  0  0  0  0  0  0  0
  161.0200  205.3600  152.6350 C   0  0  0  0  0  0  0  0  0  0  0  0
  161.1780  207.3300  153.6860 C   0  0  0  0  0  3  0  0  0  0  0  0
  161.3220  206.3450  151.5720 C   0  0  0  0  0  2  0  0  0  0  0  0
  160.9320  205.9500  153.9200 N   0  0  0  0  0  2  0  0  0  0  0  0
  162.6880  209.0130  150.6990 C   0  0  0  0  0  2  0  0  0  0  0  0
  161.9890  209.3210  149.4090 C   0  0  0  0  0  0  0  0  0  0  0  0
  161.8550  210.5210  149.0510 O   0  0  0  0  0  0  0  0  0  0  0  0
  161.4850  208.3060  148.5890 O   0  0  0  0  0  0  0  0  0  0  0  0
  162.2440  207.1650  148.1990 C   0  0  0  0  0  2  0  0  0  0  0  0
  160.5290  206.3020  146.6070 O   0  0  0  0  0  0  0  0  0  0  0  0
  161.3510  206.0750  147.7030 C   0  0  0  0  0  0  0  0  0  0  0  0
  161.3220  204.9600  148.2860 O   0  0  0  0  0  1  0  0  0  0  0  0
  161.5350  210.1330  155.4800 C   0  0  0  0  0  2  0  0  0  0  0  0
  162.8530  210.5730  155.6320 O   0  0  0  0  0  0  0  0  0  0  0  0
  163.0960  210.4770  157.0050 C   0  0  0  0  0  1  0  0  0  0  0  0
  156.1810  213.0730  155.1290 N   0  0  0  0  0  2  0  0  0  0  0  0
  155.4270  212.1600  157.0890 C   0  0  0  0  0  1  0  0  0  0  0  0
  155.9650  213.3650  156.4830 N   0  0  0  0  0  0  0  0  0  0  0  0
  154.9810  214.2940  156.5320 O   0  0  0  0  0  1  0  0  0  0  0  0
  1 11  1  6  0  0  0
  1  3  1  0  0  0  0
  3  6  1  0  0  0  0
  3 27  1  1  0  0  0
  4 10  1  0  0  0  0
  5  8  1  0  0  0  0
  5 30  1  1  0  0  0
  5  4  1  0  0  0  0
  6  7  2  0  0  0  0
  7 10  1  0  0  0  0
  8  2  1  6  0  0  0
  8  6  1  0  0  0  0
  9  1  1  0  0  0  0
  9  2  1  0  0  0  0
 12 11  2  0  0  0  0
 12 13  1  0  0  0  0
 13 16  2  0  0  0  0
 14 15  2  0  0  0  0
 15 18  1  0  0  0  0
 16 18  1  0  0  0  0
 17 13  1  0  0  0  0
 17 15  1  0  0  0  0
 19 12  1  0  0  0  0
 20 19  1  0  0  0  0
 21 20  2  0  0  0  0
 22 20  1  0  0  0  0
 23 22  1  0  0  0  0
 24 25  2  0  0  0  0
 25 23  1  0  0  0  0
 25 26  1  0  0  0  0
 27 28  1  0  0  0  0
 28 29  1  0  0  0  0
 30 32  1  0  0  0  0
 32 33  1  0  0  0  0
 32 31  1  0  0  0  0
M  END
>  <MODEL>
6

>  <REMARK>
 VINA RESULT:      -4.9      2.966      8.536
  Name = 
  11 active torsions:
  status: ('A' for Active; 'I' for Inactive)
    1  A    between atoms: C_1  and  C_2
    2  A    between atoms: C_3  and  C_12
    3  A    between atoms: C_3  and  O_21
    4  A    between atoms: C_6  and  C_7
    5  A    between atoms: C_6  and  C_12
    6  A    between atoms: C_8  and  C_16
    7  A    between atoms: O_10  and  C_16
    8  A    between atoms: C_13  and  C_14
    9  A    between atoms: C_14  and  O_21
   10  A    between atoms: N_17  and  N_20
   11  A    between atoms: C_19  and  N_20
                            x       y       z     vdW  Elec       q    Type
                         _______ _______ _______ _____ _____    ______ ____

>  <TORSDO>
F 11

$$$$
=
 OpenBabel11072412273D

 33 35  0  0  1  0  0  0  0  0999 V2000
  160.9250  208.9110  152.6960 C   0  0  1  0  0  3  0  0  0  0  0  0
  162.1600  208.3740  150.6360 C   0  0  0  0  0  2  0  0  0  0  0  0
  160.6890  207.4340  153.0580 C   0  0  1  0  0  3  0  0  0  0  0  0
  160.8450  204.8130  149.6660 C   0  0  0  0  0  2  0  0  0  0  0  0
  161.3930  206.2470  149.4920 C   0  0  1  0  0  3  0  0  0  0  0  0
  161.1770  206.4480  152.0180 C   0  0  0  0  0  0  0  0  0  0  0  0
  160.7870  205.1690  152.1120 C   0  0  0  0  0  3  0  0  0  0  0  0
  161.9690  206.8620  150.7850 C   0  0  2  0  0  3  0  0  0  0  0  0
  160.9760  209.1430  151.1940 C   0  0  0  0  0  2  0  0  0  0  0  0
  161.1650  204.2000  151.0330 C   0  0  0  0  0  2  0  0  0  0  0  0
  159.8490  209.7590  153.2930 C   0  0  0  0  0  3  0  0  0  0  0  0
  159.9520  210.4670  154.4280 C   0  0  0  0  0  0  0  0  0  0  0  0
  161.1490  210.4780  155.3100 C   0  0  0  0  0  0  0  0  0  0  0  0
  164.4700  211.0670  156.2690 O   0  0  0  0  0  0  0  0  0  0  0  0
  163.2510  210.7880  156.1280 C   0  0  0  0  0  0  0  0  0  0  0  0
  161.1730  210.0910  156.5870 C   0  0  0  0  0  3  0  0  0  0  0  0
  162.4910  210.9770  154.8720 C   0  0  0  0  0  2  0  0  0  0  0  0
  162.4580  210.2520  157.1730 N   0  0  0  0  0  2  0  0  0  0  0  0
  158.7630  211.2800  154.8280 C   0  0  0  0  0  2  0  0  0  0  0  0
  158.8590  212.6740  154.2840 C   0  0  0  0  0  0  0  0  0  0  0  0
  159.7260  212.9370  153.4090 O   0  0  0  0  0  0  0  0  0  0  0  0
  158.0050  213.6910  154.7220 O   0  0  0  0  0  0  0  0  0  0  0  0
  156.8580  213.4550  155.5330 C   0  0  0  0  0  2  0  0  0  0  0  0
  154.9420  214.1680  154.1030 O   0  0  0  0  0  0  0  0  0  0  0  0
  155.6660  213.1380  154.6900 C   0  0  0  0  0  0  0  0  0  0  0  0
  155.2990  211.9450  154.5280 O   0  0  0  0  0  1  0  0  0  0  0  0
  161.3260  207.1170  154.4080 C   0  0  0  0  0  2  0  0  0  0  0  0
  160.4970  206.2710  155.1520 O   0  0  0  0  0  0  0  0  0  0  0  0
  159.8570  207.1200  156.0590 C   0  0  0  0  0  1  0  0  0  0  0  0
  162.4090  206.2640  148.4480 N   0  0  0  0  0  2  0  0  0  0  0  0
  163.0780  205.0400  146.6320 C   0  0  0  0  0  1  0  0  0  0  0  0
  161.9190  205.5060  147.3750 N   0  0  0  0  0  0  0  0  0  0  0  0
  161.2580  206.3620  146.5600 O   0  0  0  0  0  1  0  0  0  0  0  0
  1  3  1  0  0  0  0
  1 11  1  6  0  0  0
  2  9  1  0  0  0  0
  3 27  1  1  0  0  0
  4 10  1  0  0  0  0
  5 30  1  6  0  0  0
  5  4  1  0  0  0  0
  5  8  1  0  0  0  0
  6  7  2  0  0  0  0
  6  3  1  0  0  0  0
  8  2  1  6  0  0  0
  8  6  1  0  0  0  0
  9  1  1  0  0  0  0
 10  7  1  0  0  0  0
 11 12  2  0  0  0  0
 12 19  1  0  0  0  0
 12 13  1  0  0  0  0
 13 16  2  0  0  0  0
 15 14  2  0  0  0  0
 15 18  1  0  0  0  0
 16 18  1  0  0  0  0
 17 13  1  0  0  0  0
 17 15  1  0  0  0  0
 20 22  1  0  0  0  0
 20 19  1  0  0  0  0
 21 20  2  0  0  0  0
 22 23  1  0  0  0  0
 24 25  2  0  0  0  0
 25 23  1  0  0  0  0
 26 25  1  0  0  0  0
 27 28  1  0  0  0  0
 28 29  1  0  0  0  0
 31 32  1  0  0  0  0
 32 30  1  0  0  0  0
 33 32  1  0  0  0  0
M  END
>  <MODEL>
7

>  <REMARK>
 VINA RESULT:      -4.8      2.599      5.105
  Name = 
  11 active torsions:
  status: ('A' for Active; 'I' for Inactive)
    1  A    between atoms: C_1  and  C_2
    2  A    between atoms: C_3  and  C_12
    3  A    between atoms: C_3  and  O_21
    4  A    between atoms: C_6  and  C_7
    5  A    between atoms: C_6  and  C_12
    6  A    between atoms: C_8  and  C_16
    7  A    between atoms: O_10  and  C_16
    8  A    between atoms: C_13  and  C_14
    9  A    between atoms: C_14  and  O_21
   10  A    between atoms: N_17  and  N_20
   11  A    between atoms: C_19  and  N_20
                            x       y       z     vdW  Elec       q    Type
                         _______ _______ _______ _____ _____    ______ ____

>  <TORSDO>
F 11

$$$$
=
 OpenBabel11072412273D

 33 35  0  0  1  0  0  0  0  0999 V2000
  159.9580  211.0890  153.3890 C   0  0  1  0  0  3  0  0  0  0  0  0
  161.3150  209.9960  151.6510 C   0  0  0  0  0  2  0  0  0  0  0  0
  160.0870  209.9120  154.3710 C   0  0  1  0  0  3  0  0  0  0  0  0
  160.9290  206.1760  152.4380 C   0  0  0  0  0  2  0  0  0  0  0  0
  161.1100  207.4700  151.6130 C   0  0  1  0  0  3  0  0  0  0  0  0
  160.8170  208.7080  153.8140 C   0  0  0  0  0  0  0  0  0  0  0  0
  160.7510  207.5500  154.4860 C   0  0  0  0  0  3  0  0  0  0  0  0
  161.5000  208.7040  152.4530 C   0  0  2  0  0  3  0  0  0  0  0  0
  159.9720  210.6410  151.9350 C   0  0  0  0  0  2  0  0  0  0  0  0
  161.3700  206.3190  153.8980 C   0  0  0  0  0  2  0  0  0  0  0  0
  158.6990  211.8450  153.6620 C   0  0  0  0  0  3  0  0  0  0  0  0
  158.1910  212.8220  152.8950 C   0  0  0  0  0  0  0  0  0  0  0  0
  158.8370  213.3490  151.6640 C   0  0  0  0  0  0  0  0  0  0  0  0
  159.2380  214.0470  148.2510 O   0  0  0  0  0  0  0  0  0  0  0  0
  159.2760  213.9100  149.5020 C   0  0  0  0  0  0  0  0  0  0  0  0
  159.9640  214.0640  151.6270 C   0  0  0  0  0  3  0  0  0  0  0  0
  158.2640  213.1740  150.2930 C   0  0  0  0  0  3  0  0  0  0  0  0
  160.3100  214.4530  150.3040 N   0  0  0  0  0  0  0  0  0  0  0  0
  156.8950  213.4230  153.3340 C   0  0  0  0  0  2  0  0  0  0  0  0
  156.9780  213.9000  154.7530 C   0  0  0  0  0  0  0  0  0  0  0  0
  158.0450  214.4270  155.1660 O   0  0  0  0  0  0  0  0  0  0  0  0
  155.8960  213.7770  155.6310 O   0  0  0  0  0  0  0  0  0  0  0  0
  155.9340  212.9830  156.8140 C   0  0  0  0  0  2  0  0  0  0  0  0
  157.5920  211.1210  156.7270 O   0  0  0  0  0  1  0  0  0  0  0  0
  156.2980  211.5700  156.4950 C   0  0  0  0  0  0  0  0  0  0  0  0
  155.4450  210.7900  155.9960 O   0  0  0  0  0  0  0  0  0  0  0  0
  160.7630  210.3760  155.6580 C   0  0  0  0  0  2  0  0  0  0  0  0
  161.9750  211.0120  155.3710 O   0  0  0  0  0  0  0  0  0  0  0  0
  162.8420  210.5790  156.3780 C   0  0  0  0  0  1  0  0  0  0  0  0
  162.1060  207.2550  150.5710 N   0  0  0  0  0  2  0  0  0  0  0  0
  160.6780  206.4810  148.9560 C   0  0  0  0  0  1  0  0  0  0  0  0
  161.5130  207.6030  149.3480 N   0  0  0  0  0  0  0  0  0  0  0  0
  162.5120  207.6780  148.4360 O   0  0  0  0  0  1  0  0  0  0  0  0
  1 11  1  1  0  0  0
  1  3  1  0  0  0  0
  2  9  1  0  0  0  0
  3 27  1  1  0  0  0
  4 10  1  0  0  0  0
  5 30  1  6  0  0  0
  5  4  1  0  0  0  0
  5  8  1  0  0  0  0
  6  3  1  0  0  0  0
  6  7  2  0  0  0  0
  8  2  1  6  0  0  0
  8  6  1  0  0  0  0
  9  1  1  0  0  0  0
 10  7  1  0  0  0  0
 12 19  1  0  0  0  0
 12 11  2  0  0  0  0
 13 12  1  0  0  0  0
 14 15  2  0  0  0  0
 15 17  1  0  0  0  0
 15 18  1  0  0  0  0
 16 13  1  0  0  0  0
 17 13  2  0  0  0  0
 18 16  2  0  0  0  0
 19 20  1  0  0  0  0
 20 21  2  0  0  0  0
 20 22  1  0  0  0  0
 22 23  1  0  0  0  0
 25 24  1  0  0  0  0
 25 23  1  0  0  0  0
 26 25  2  0  0  0  0
 28 27  1  0  0  0  0
 28 29  1  0  0  0  0
 31 32  1  0  0  0  0
 32 30  1  0  0  0  0
 33 32  1  0  0  0  0
M  END
>  <MODEL>
8

>  <REMARK>
 VINA RESULT:      -4.4      2.969      5.299
  Name = 
  11 active torsions:
  status: ('A' for Active; 'I' for Inactive)
    1  A    between atoms: C_1  and  C_2
    2  A    between atoms: C_3  and  C_12
    3  A    between atoms: C_3  and  O_21
    4  A    between atoms: C_6  and  C_7
    5  A    between atoms: C_6  and  C_12
    6  A    between atoms: C_8  and  C_16
    7  A    between atoms: O_10  and  C_16
    8  A    between atoms: C_13  and  C_14
    9  A    between atoms: C_14  and  O_21
   10  A    between atoms: N_17  and  N_20
   11  A    between atoms: C_19  and  N_20
                            x       y       z     vdW  Elec       q    Type
                         _______ _______ _______ _____ _____    ______ ____

>  <TORSDO>
F 11

$$$$
=
 OpenBabel11072412273D

 33 35  0  0  1  0  0  0  0  0999 V2000
  160.2190  210.3170  153.2650 C   0  0  1  0  0  3  0  0  0  0  0  0
  157.9540  211.0850  153.8450 C   0  0  0  0  0  2  0  0  0  0  0  0
  160.8750  211.0340  154.4570 C   0  0  1  0  0  3  0  0  0  0  0  0
  158.5830  214.3570  155.9070 C   0  0  0  0  0  2  0  0  0  0  0  0
  157.8840  213.3640  154.9520 C   0  0  1  0  0  3  0  0  0  0  0  0
  159.9280  211.8860  155.2760 C   0  0  0  0  0  0  0  0  0  0  0  0
  160.4430  212.7490  156.1620 C   0  0  0  0  0  3  0  0  0  0  0  0
  158.4240  211.9210  155.0390 C   0  0  2  0  0  3  0  0  0  0  0  0
  158.9960  211.0540  152.7420 C   0  0  0  0  0  2  0  0  0  0  0  0
  159.5320  213.6810  156.9010 C   0  0  0  0  0  2  0  0  0  0  0  0
  161.2110  210.1560  152.1590 C   0  0  0  0  0  3  0  0  0  0  0  0
  161.7260  208.9910  151.7360 C   0  0  0  0  0  0  0  0  0  0  0  0
  161.4270  207.6670  152.3420 C   0  0  0  0  0  0  0  0  0  0  0  0
  161.1050  204.1800  152.5290 O   0  0  0  0  0  0  0  0  0  0  0  0
  161.1670  205.4290  152.6710 C   0  0  0  0  0  0  0  0  0  0  0  0
  161.0760  207.4590  153.6120 C   0  0  0  0  0  3  0  0  0  0  0  0
  161.5310  206.3750  151.5920 C   0  0  0  0  0  2  0  0  0  0  0  0
  160.8910  206.0790  153.8990 N   0  0  0  0  0  2  0  0  0  0  0  0
  162.6790  209.0520  150.5860 C   0  0  0  0  0  2  0  0  0  0  0  0
  161.9440  209.0740  149.2800 C   0  0  0  0  0  0  0  0  0  0  0  0
  161.3590  208.0320  148.8830 O   0  0  0  0  0  0  0  0  0  0  0  0
  161.8870  210.2280  148.4910 O   0  0  0  0  0  0  0  0  0  0  0  0
  162.3340  211.5040  148.9380 C   0  0  0  0  0  2  0  0  0  0  0  0
  160.7390  213.3680  149.3900 O   0  0  0  0  0  1  0  0  0  0  0  0
  161.4190  212.5860  148.4650 C   0  0  0  0  0  0  0  0  0  0  0  0
  161.2400  212.7760  147.2330 O   0  0  0  0  0  0  0  0  0  0  0  0
  161.5690  210.0200  155.3620 C   0  0  0  0  0  2  0  0  0  0  0  0
  162.5350  210.6510  156.1520 O   0  0  0  0  0  0  0  0  0  0  0  0
  162.7770  209.7490  157.1920 C   0  0  0  0  0  1  0  0  0  0  0  0
  156.4490  213.3630  155.2040 N   0  0  0  0  0  2  0  0  0  0  0  0
  154.4780  214.4480  154.7740 C   0  0  0  0  0  1  0  0  0  0  0  0
  155.8880  214.3880  154.4270 N   0  0  0  0  0  0  0  0  0  0  0  0
  155.9510  213.9820  153.1370 O   0  0  0  0  0  1  0  0  0  0  0  0
  1 11  1  6  0  0  0
  1  3  1  0  0  0  0
  3  6  1  0  0  0  0
  3 27  1  1  0  0  0
  4 10  1  0  0  0  0
  5  8  1  0  0  0  0
  5 30  1  1  0  0  0
  5  4  1  0  0  0  0
  6  7  2  0  0  0  0
  7 10  1  0  0  0  0
  8  2  1  6  0  0  0
  8  6  1  0  0  0  0
  9  1  1  0  0  0  0
  9  2  1  0  0  0  0
 12 11  2  0  0  0  0
 12 13  1  0  0  0  0
 13 16  2  0  0  0  0
 14 15  2  0  0  0  0
 15 18  1  0  0  0  0
 16 18  1  0  0  0  0
 17 13  1  0  0  0  0
 17 15  1  0  0  0  0
 19 12  1  0  0  0  0
 20 19  1  0  0  0  0
 21 20  2  0  0  0  0
 22 23  1  0  0  0  0
 22 20  1  0  0  0  0
 25 23  1  0  0  0  0
 25 24  1  0  0  0  0
 26 25  2  0  0  0  0
 27 28  1  0  0  0  0
 28 29  1  0  0  0  0
 32 31  1  0  0  0  0
 32 30  1  0  0  0  0
 33 32  1  0  0  0  0
M  END
>  <MODEL>
9

>  <REMARK>
 VINA RESULT:      -4.4      2.784      8.667
  Name = 
  11 active torsions:
  status: ('A' for Active; 'I' for Inactive)
    1  A    between atoms: C_1  and  C_2
    2  A    between atoms: C_3  and  C_12
    3  A    between atoms: C_3  and  O_21
    4  A    between atoms: C_6  and  C_7
    5  A    between atoms: C_6  and  C_12
    6  A    between atoms: C_8  and  C_16
    7  A    between atoms: O_10  and  C_16
    8  A    between atoms: C_13  and  C_14
    9  A    between atoms: C_14  and  O_21
   10  A    between atoms: N_17  and  N_20
   11  A    between atoms: C_19  and  N_20
                            x       y       z     vdW  Elec       q    Type
                         _______ _______ _______ _____ _____    ______ ____

>  <TORSDO>
F 11

$$$$
