=
 OpenBabel11072413333D

 36 42  0  0  1  0  0  0  0  0999 V2000
  161.4530  207.5170  151.2200 C   0  0  0  0  0  0  0  0  0  0  0  0
  161.1350  208.6550  153.3630 C   0  0  0  0  0  0  0  0  0  0  0  0
  161.4980  206.3050  150.5070 C   0  0  0  0  0  3  0  0  0  0  0  0
  161.3360  209.8990  152.7400 C   0  0  0  0  0  0  0  0  0  0  0  0
  160.8820  208.5750  154.7000 N   0  0  0  0  0  0  0  0  0  0  0  0
  162.3200  212.4700  148.4600 C   0  0  0  0  0  1  0  0  0  0  0  0
  160.7370  206.2240  154.5930 N   0  0  0  0  0  0  0  0  0  0  0  0
  160.9860  206.2460  153.2580 C   0  0  0  0  0  0  0  0  0  0  0  0
  160.6840  207.3760  155.3110 C   0  0  0  0  0  3  0  0  0  0  0  0
  161.8200  211.3030  150.6980 C   0  0  0  0  0  3  0  0  0  0  0  0
  161.6580  208.7650  150.5910 C   0  0  0  0  0  0  0  0  0  0  0  0
  161.2930  205.0830  151.1560 C   0  0  0  0  0  0  0  0  0  0  0  0
  161.0370  205.0550  152.5320 C   0  0  0  0  0  3  0  0  0  0  0  0
  161.1940  207.4750  152.6050 C   0  0  1  0  0  3  0  0  0  0  0  0
  162.0880  211.2170  149.2240 C   0  0  0  0  0  0  0  0  0  0  0  0
  161.9090  208.8300  149.2740 C   0  0  0  0  0  3  0  0  0  0  0  0
  162.1230  210.0780  148.6060 N   0  0  0  0  0  0  0  0  0  0  0  0
  161.5990  209.9580  151.3530 C   0  0  0  0  0  0  0  0  0  0  0  0
  161.2340  211.1620  153.5490 C   0  0  0  0  0  2  0  0  0  0  0  0
  159.3290  211.8450  154.9240 N   0  0  0  0  0  0  0  0  0  0  0  0
  157.1170  211.0530  155.5560 C   0  0  0  0  0  1  0  0  0  0  0  0
  157.8990  212.0450  154.7180 C   0  0  2  0  0  3  0  0  0  0  0  0
  157.7020  211.7530  153.3030 N   0  0  0  0  0  0  0  0  0  0  0  0
  159.8030  211.5190  153.7710 C   0  0  0  0  0  0  0  0  0  0  0  0
  158.8110  211.4500  152.7660 N   0  0  0  0  0  0  0  0  0  0  0  0
  161.3690  203.8020  150.3850 C   0  0  0  0  0  2  0  0  0  0  0  0
  160.6410  205.3730  148.5300 C   0  0  0  0  0  2  0  0  0  0  0  0
  160.8850  204.8560  146.1970 O   0  0  0  0  0  0  0  0  0  0  0  0
  161.4390  205.6160  147.2560 C   0  0  2  0  0  3  0  0  0  0  0  0
  161.7810  203.2800  147.9390 C   0  0  2  0  0  3  0  0  0  0  0  0
  160.8440  203.9200  148.9510 C   0  0  1  0  0  3  0  0  0  0  0  0
  163.2030  204.4000  146.1560 O   0  0  0  0  0  1  0  0  0  0  0  0
  162.0020  204.3180  146.8570 C   0  0  1  0  0  0  0  0  0  0  0  0
  161.1580  200.7610  148.2390 C   0  0  0  0  0  1  0  0  0  0  0  0
  160.8300  201.9550  146.2460 O   0  0  0  0  0  0  0  0  0  0  0  0
  161.2290  201.9940  147.3970 C   0  0  0  0  0  0  0  0  0  0  0  0
  2  5  2  0  0  0  0
  3 12  2  0  0  0  0
  3  1  1  0  0  0  0
  4  2  1  0  0  0  0
  4 19  1  0  0  0  0
  5  9  1  0  0  0  0
  6 15  1  0  0  0  0
  7  9  2  0  0  0  0
  8  7  1  0  0  0  0
 10 18  1  0  0  0  0
 11  1  2  0  0  0  0
 11 18  1  0  0  0  0
 12 13  1  0  0  0  0
 13  8  2  0  0  0  0
 14  1  1  6  0  0  0
 14  8  1  0  0  0  0
 14  2  1  0  0  0  0
 15 10  2  0  0  0  0
 16 11  1  0  0  0  0
 17 15  1  0  0  0  0
 17 16  2  0  0  0  0
 18  4  2  0  0  0  0
 19 24  1  0  0  0  0
 22 20  1  0  0  0  0
 22 21  1  1  0  0  0
 23 22  1  0  0  0  0
 24 20  2  0  0  0  0
 25 23  2  0  0  0  0
 25 24  1  0  0  0  0
 26 12  1  0  0  0  0
 27 31  1  0  0  0  0
 28 33  1  0  0  0  0
 28 29  1  0  0  0  0
 29 27  1  1  0  0  0
 30 36  1  6  0  0  0
 30 31  1  0  0  0  0
 31 26  1  1  0  0  0
 33 32  1  6  0  0  0
 33 29  1  0  0  0  0
 33 30  1  0  0  0  0
 35 36  2  0  0  0  0
 36 34  1  0  0  0  0
M  END
>  <MODEL>
1

>  <REMARK>
 VINA RESULT:     -10.4      0.000      0.000
  Name = 
  5 active torsions:
  status: ('A' for Active; 'I' for Inactive)
    1  A    between atoms: C_5  and  C_21
    2  A    between atoms: C_15  and  C_32
    3  A    between atoms: C_16  and  C_31
    4  A    between atoms: C_21  and  C_22
    5  A    between atoms: C_26  and  C_31
                            x       y       z     vdW  Elec       q    Type
                         _______ _______ _______ _____ _____    ______ ____

>  <TORSDO>
F 5

$$$$
=
 OpenBabel11072413333D

 36 42  0  0  1  0  0  0  0  0999 V2000
  161.5170  207.6980  151.2550 C   0  0  0  0  0  0  0  0  0  0  0  0
  161.4690  210.1420  151.3770 C   0  0  0  0  0  0  0  0  0  0  0  0
  161.7280  206.5450  150.4750 C   0  0  0  0  0  3  0  0  0  0  0  0
  161.1190  210.0720  152.7370 C   0  0  0  0  0  0  0  0  0  0  0  0
  161.6210  211.3430  150.7540 N   0  0  0  0  0  0  0  0  0  0  0  0
  160.0830  207.1640  156.7830 C   0  0  0  0  0  1  0  0  0  0  0  0
  162.1550  210.2860  148.7150 N   0  0  0  0  0  0  0  0  0  0  0  0
  162.0170  209.0630  149.2860 C   0  0  0  0  0  0  0  0  0  0  0  0
  161.9610  211.4190  149.4390 C   0  0  0  0  0  3  0  0  0  0  0  0
  160.5820  208.7570  154.8240 C   0  0  0  0  0  3  0  0  0  0  0  0
  161.1630  207.6240  152.6190 C   0  0  0  0  0  0  0  0  0  0  0  0
  162.0760  206.6470  149.1240 C   0  0  0  0  0  0  0  0  0  0  0  0
  162.2190  207.9070  148.5310 C   0  0  0  0  0  3  0  0  0  0  0  0
  161.6650  208.9600  150.6440 C   0  0  1  0  0  3  0  0  0  0  0  0
  160.4520  207.3600  155.3570 C   0  0  0  0  0  0  0  0  0  0  0  0
  161.0130  206.4340  153.2210 C   0  0  0  0  0  3  0  0  0  0  0  0
  160.6550  206.3250  154.6030 N   0  0  0  0  0  0  0  0  0  0  0  0
  160.9650  208.8150  153.3620 C   0  0  0  0  0  0  0  0  0  0  0  0
  160.9480  211.3410  153.5260 C   0  0  0  0  0  2  0  0  0  0  0  0
  159.1910  212.7180  152.5260 N   0  0  0  0  0  0  0  0  0  0  0  0
  157.5910  214.4360  153.1620 C   0  0  0  0  0  1  0  0  0  0  0  0
  157.7810  212.9790  152.7880 C   0  0  2  0  0  3  0  0  0  0  0  0
  157.4720  212.1340  153.9360 N   0  0  0  0  0  0  0  0  0  0  0  0
  159.5500  211.8430  153.4010 C   0  0  0  0  0  0  0  0  0  0  0  0
  158.5030  211.4820  154.2820 N   0  0  0  0  0  0  0  0  0  0  0  0
  162.2730  205.4090  148.3050 C   0  0  0  0  0  2  0  0  0  0  0  0
  160.3660  206.3500  146.9210 C   0  0  0  0  0  2  0  0  0  0  0  0
  159.5240  205.2800  144.9420 O   0  0  0  0  0  0  0  0  0  0  0  0
  160.3350  206.3470  145.3980 C   0  0  2  0  0  3  0  0  0  0  0  0
  161.5160  204.3250  146.1420 C   0  0  2  0  0  3  0  0  0  0  0  0
  161.0900  205.0900  147.3860 C   0  0  1  0  0  3  0  0  0  0  0  0
  161.5410  205.1050  143.7250 O   0  0  0  0  0  1  0  0  0  0  0  0
  160.9110  205.0660  144.9670 C   0  0  1  0  0  0  0  0  0  0  0  0
  161.1060  202.1160  147.4760 C   0  0  0  0  0  1  0  0  0  0  0  0
  160.7220  202.3360  145.1710 O   0  0  0  0  0  0  0  0  0  0  0  0
  161.0900  202.8870  146.1950 C   0  0  0  0  0  0  0  0  0  0  0  0
  1 11  2  0  0  0  0
  2  4  1  0  0  0  0
  3  1  1  0  0  0  0
  4 18  2  0  0  0  0
  4 19  1  0  0  0  0
  5  2  2  0  0  0  0
  7  8  1  0  0  0  0
  7  9  2  0  0  0  0
  9  5  1  0  0  0  0
 10 15  2  0  0  0  0
 11 16  1  0  0  0  0
 11 18  1  0  0  0  0
 12  3  2  0  0  0  0
 13 12  1  0  0  0  0
 13  8  2  0  0  0  0
 14  8  1  1  0  0  0
 14  1  1  0  0  0  0
 14  2  1  0  0  0  0
 15  6  1  0  0  0  0
 16 17  2  0  0  0  0
 17 15  1  0  0  0  0
 18 10  1  0  0  0  0
 20 22  1  0  0  0  0
 20 24  2  0  0  0  0
 22 21  1  1  0  0  0
 22 23  1  0  0  0  0
 23 25  2  0  0  0  0
 24 19  1  0  0  0  0
 24 25  1  0  0  0  0
 26 12  1  0  0  0  0
 27 31  1  0  0  0  0
 28 33  1  0  0  0  0
 28 29  1  0  0  0  0
 29 27  1  1  0  0  0
 30 36  1  1  0  0  0
 30 31  1  0  0  0  0
 31 26  1  6  0  0  0
 33 32  1  6  0  0  0
 33 29  1  0  0  0  0
 33 30  1  0  0  0  0
 35 36  2  0  0  0  0
 36 34  1  0  0  0  0
M  END
>  <MODEL>
2

>  <REMARK>
 VINA RESULT:     -10.0      1.369      3.904
  Name = 
  5 active torsions:
  status: ('A' for Active; 'I' for Inactive)
    1  A    between atoms: C_5  and  C_21
    2  A    between atoms: C_15  and  C_32
    3  A    between atoms: C_16  and  C_31
    4  A    between atoms: C_21  and  C_22
    5  A    between atoms: C_26  and  C_31
                            x       y       z     vdW  Elec       q    Type
                         _______ _______ _______ _____ _____    ______ ____

>  <TORSDO>
F 5

$$$$
=
 OpenBabel11072413333D

 36 42  0  0  1  0  0  0  0  0999 V2000
  161.5770  207.5520  150.9510 C   0  0  0  0  0  0  0  0  0  0  0  0
  161.5720  209.9960  151.0870 C   0  0  0  0  0  0  0  0  0  0  0  0
  161.7540  206.4000  150.1630 C   0  0  0  0  0  3  0  0  0  0  0  0
  161.2470  209.9250  152.4520 C   0  0  0  0  0  0  0  0  0  0  0  0
  161.7330  211.1980  150.4660 N   0  0  0  0  0  0  0  0  0  0  0  0
  160.2350  207.0150  156.5020 C   0  0  0  0  0  1  0  0  0  0  0  0
  162.2130  210.1430  148.4130 N   0  0  0  0  0  0  0  0  0  0  0  0
  162.0640  208.9190  148.9810 C   0  0  0  0  0  0  0  0  0  0  0  0
  162.0510  211.2750  149.1460 C   0  0  0  0  0  3  0  0  0  0  0  0
  160.7250  208.6090  154.5420 C   0  0  0  0  0  3  0  0  0  0  0  0
  161.2470  207.4780  152.3220 C   0  0  0  0  0  0  0  0  0  0  0  0
  162.0800  206.5030  148.8060 C   0  0  0  0  0  0  0  0  0  0  0  0
  162.2340  207.7640  148.2160 C   0  0  0  0  0  3  0  0  0  0  0  0
  161.7360  208.8150  150.3440 C   0  0  1  0  0  3  0  0  0  0  0  0
  160.5820  207.2110  155.0710 C   0  0  0  0  0  0  0  0  0  0  0  0
  161.0880  206.2870  152.9200 C   0  0  0  0  0  3  0  0  0  0  0  0
  160.7530  206.1770  154.3080 N   0  0  0  0  0  0  0  0  0  0  0  0
  161.0820  208.6680  153.0730 C   0  0  0  0  0  0  0  0  0  0  0  0
  161.1110  211.1930  153.2500 C   0  0  0  0  0  2  0  0  0  0  0  0
  159.4460  212.7160  152.3070 N   0  0  0  0  0  0  0  0  0  0  0  0
  157.8620  214.4140  153.0310 C   0  0  0  0  0  1  0  0  0  0  0  0
  158.0310  212.9960  152.5250 C   0  0  2  0  0  3  0  0  0  0  0  0
  157.6410  212.0530  153.5670 N   0  0  0  0  0  0  0  0  0  0  0  0
  159.7350  211.7490  153.1080 C   0  0  0  0  0  0  0  0  0  0  0  0
  158.6350  211.3380  153.8960 N   0  0  0  0  0  0  0  0  0  0  0  0
  162.2410  205.2660  147.9770 C   0  0  0  0  0  2  0  0  0  0  0  0
  160.7020  203.5960  146.8460 C   0  0  0  0  0  2  0  0  0  0  0  0
  159.8390  201.6450  147.9500 O   0  0  0  0  0  0  0  0  0  0  0  0
  160.8090  202.0870  147.0160 C   0  0  2  0  0  3  0  0  0  0  0  0
  161.4750  203.1440  149.1320 C   0  0  2  0  0  3  0  0  0  0  0  0
  161.1050  204.2550  148.1610 C   0  0  1  0  0  3  0  0  0  0  0  0
  161.8780  200.6820  148.6540 O   0  0  0  0  0  1  0  0  0  0  0  0
  161.1450  201.8450  148.4260 C   0  0  1  0  0  0  0  0  0  0  0  0
  161.3180  202.7060  151.7030 C   0  0  0  0  0  1  0  0  0  0  0  0
  159.6960  203.8820  150.4810 O   0  0  0  0  0  0  0  0  0  0  0  0
  160.7580  203.2840  150.4430 C   0  0  0  0  0  0  0  0  0  0  0  0
  1 11  2  0  0  0  0
  2  4  1  0  0  0  0
  3  1  1  0  0  0  0
  4 18  2  0  0  0  0
  4 19  1  0  0  0  0
  5  2  2  0  0  0  0
  7  8  1  0  0  0  0
  7  9  2  0  0  0  0
  9  5  1  0  0  0  0
 10 15  2  0  0  0  0
 11 16  1  0  0  0  0
 11 18  1  0  0  0  0
 12  3  2  0  0  0  0
 13 12  1  0  0  0  0
 13  8  2  0  0  0  0
 14  8  1  1  0  0  0
 14  1  1  0  0  0  0
 14  2  1  0  0  0  0
 15  6  1  0  0  0  0
 16 17  2  0  0  0  0
 17 15  1  0  0  0  0
 18 10  1  0  0  0  0
 20 22  1  0  0  0  0
 20 24  2  0  0  0  0
 22 21  1  1  0  0  0
 22 23  1  0  0  0  0
 23 25  2  0  0  0  0
 24 19  1  0  0  0  0
 24 25  1  0  0  0  0
 26 12  1  0  0  0  0
 27 31  1  0  0  0  0
 28 33  1  0  0  0  0
 29 27  1  1  0  0  0
 29 28  1  0  0  0  0
 29 33  1  0  0  0  0
 30 36  1  1  0  0  0
 31 26  1  6  0  0  0
 31 30  1  0  0  0  0
 33 32  1  1  0  0  0
 33 30  1  0  0  0  0
 36 35  2  0  0  0  0
 36 34  1  0  0  0  0
M  END
>  <MODEL>
3

>  <REMARK>
 VINA RESULT:      -9.8      1.567      4.172
  Name = 
  5 active torsions:
  status: ('A' for Active; 'I' for Inactive)
    1  A    between atoms: C_5  and  C_21
    2  A    between atoms: C_15  and  C_32
    3  A    between atoms: C_16  and  C_31
    4  A    between atoms: C_21  and  C_22
    5  A    between atoms: C_26  and  C_31
                            x       y       z     vdW  Elec       q    Type
                         _______ _______ _______ _____ _____    ______ ____

>  <TORSDO>
F 5

$$$$
=
 OpenBabel11072413333D

 36 42  0  0  1  0  0  0  0  0999 V2000
  160.9620  206.5360  151.7560 C   0  0  0  0  0  0  0  0  0  0  0  0
  161.6430  208.7690  151.0200 C   0  0  0  0  0  0  0  0  0  0  0  0
  160.6390  205.2110  151.4090 C   0  0  0  0  0  3  0  0  0  0  0  0
  161.6310  209.2170  152.3520 C   0  0  0  0  0  0  0  0  0  0  0  0
  161.9760  209.6090  150.0010 N   0  0  0  0  0  0  0  0  0  0  0  0
  160.8250  208.1430  157.2610 C   0  0  0  0  0  1  0  0  0  0  0  0
  161.6740  207.8960  148.4090 N   0  0  0  0  0  0  0  0  0  0  0  0
  161.3350  207.0160  149.3860 C   0  0  0  0  0  0  0  0  0  0  0  0
  161.9930  209.1820  148.7100 C   0  0  0  0  0  3  0  0  0  0  0  0
  161.2650  208.8290  154.8190 C   0  0  0  0  0  3  0  0  0  0  0  0
  160.9450  206.9850  153.0940 C   0  0  0  0  0  0  0  0  0  0  0  0
  160.6620  204.7940  150.0730 C   0  0  0  0  0  0  0  0  0  0  0  0
  161.0100  205.6980  149.0630 C   0  0  0  0  0  3  0  0  0  0  0  0
  161.3110  207.4360  150.7280 C   0  0  1  0  0  3  0  0  0  0  0  0
  160.8770  207.7800  155.8210 C   0  0  0  0  0  0  0  0  0  0  0  0
  160.6130  206.1470  154.0890 C   0  0  0  0  0  3  0  0  0  0  0  0
  160.5860  206.5700  155.4570 N   0  0  0  0  0  0  0  0  0  0  0  0
  161.2810  208.3290  153.3920 C   0  0  0  0  0  0  0  0  0  0  0  0
  162.0250  210.6350  152.6630 C   0  0  0  0  0  2  0  0  0  0  0  0
  160.2790  211.8010  153.9170 N   0  0  0  0  0  0  0  0  0  0  0  0
  157.8540  211.8700  154.0960 C   0  0  0  0  0  1  0  0  0  0  0  0
  159.0920  212.5830  153.5910 C   0  0  2  0  0  3  0  0  0  0  0  0
  159.0790  212.6150  152.1330 N   0  0  0  0  0  0  0  0  0  0  0  0
  160.8130  211.4940  152.7850 C   0  0  0  0  0  0  0  0  0  0  0  0
  160.0790  211.9810  151.6780 N   0  0  0  0  0  0  0  0  0  0  0  0
  160.2930  203.3860  149.7210 C   0  0  0  0  0  2  0  0  0  0  0  0
  161.3690  201.2360  148.9110 C   0  0  0  0  0  2  0  0  0  0  0  0
  161.9830  200.8540  146.6190 O   0  0  0  0  0  0  0  0  0  0  0  0
  161.0110  200.5440  147.6020 C   0  0  2  0  0  3  0  0  0  0  0  0
  160.7880  202.9680  147.2700 C   0  0  2  0  0  3  0  0  0  0  0  0
  161.2410  202.7420  148.7040 C   0  0  1  0  0  3  0  0  0  0  0  0
  159.8950  201.2770  145.5980 O   0  0  0  0  0  1  0  0  0  0  0  0
  160.7960  201.6050  146.6090 C   0  0  1  0  0  0  0  0  0  0  0  0
  161.1750  204.6960  145.3490 C   0  0  0  0  0  1  0  0  0  0  0  0
  162.7880  204.1660  146.9700 O   0  0  0  0  0  0  0  0  0  0  0  0
  161.6600  203.9590  146.5560 C   0  0  0  0  0  0  0  0  0  0  0  0
  1 11  2  0  0  0  0
  2  4  1  0  0  0  0
  3  1  1  0  0  0  0
  4 19  1  0  0  0  0
  4 18  2  0  0  0  0
  5  2  2  0  0  0  0
  7  9  2  0  0  0  0
  7  8  1  0  0  0  0
  9  5  1  0  0  0  0
 10 15  2  0  0  0  0
 11 18  1  0  0  0  0
 11 16  1  0  0  0  0
 12  3  2  0  0  0  0
 13  8  2  0  0  0  0
 13 12  1  0  0  0  0
 14  8  1  1  0  0  0
 14  2  1  0  0  0  0
 14  1  1  0  0  0  0
 15  6  1  0  0  0  0
 16 17  2  0  0  0  0
 17 15  1  0  0  0  0
 18 10  1  0  0  0  0
 19 24  1  0  0  0  0
 22 20  1  0  0  0  0
 22 21  1  6  0  0  0
 23 22  1  0  0  0  0
 24 20  2  0  0  0  0
 25 23  2  0  0  0  0
 25 24  1  0  0  0  0
 26 12  1  0  0  0  0
 28 29  1  0  0  0  0
 29 27  1  1  0  0  0
 30 36  1  6  0  0  0
 30 31  1  0  0  0  0
 31 27  1  0  0  0  0
 31 26  1  1  0  0  0
 33 32  1  6  0  0  0
 33 28  1  0  0  0  0
 33 30  1  0  0  0  0
 33 29  1  0  0  0  0
 34 36  1  0  0  0  0
 36 35  2  0  0  0  0
M  END
>  <MODEL>
4

>  <REMARK>
 VINA RESULT:      -9.7      1.360      4.085
  Name = 
  5 active torsions:
  status: ('A' for Active; 'I' for Inactive)
    1  A    between atoms: C_5  and  C_21
    2  A    between atoms: C_15  and  C_32
    3  A    between atoms: C_16  and  C_31
    4  A    between atoms: C_21  and  C_22
    5  A    between atoms: C_26  and  C_31
                            x       y       z     vdW  Elec       q    Type
                         _______ _______ _______ _____ _____    ______ ____

>  <TORSDO>
F 5

$$$$
=
 OpenBabel11072413333D

 36 42  0  0  1  0  0  0  0  0999 V2000
  160.8240  209.0640  152.6310 C   0  0  0  0  0  0  0  0  0  0  0  0
  160.1040  209.6070  154.9060 C   0  0  0  0  0  0  0  0  0  0  0  0
  161.2900  208.0920  151.7250 C   0  0  0  0  0  3  0  0  0  0  0  0
  159.8830  210.9410  154.5240 C   0  0  0  0  0  0  0  0  0  0  0  0
  159.8710  209.1960  156.1840 N   0  0  0  0  0  0  0  0  0  0  0  0
  160.0110  214.4530  150.8430 C   0  0  0  0  0  1  0  0  0  0  0  0
  160.5320  206.9940  155.6620 N   0  0  0  0  0  0  0  0  0  0  0  0
  160.7810  207.3490  154.3760 C   0  0  0  0  0  0  0  0  0  0  0  0
  160.0800  207.9070  156.5620 C   0  0  0  0  0  3  0  0  0  0  0  0
  159.8980  212.7850  152.8000 C   0  0  0  0  0  3  0  0  0  0  0  0
  160.6060  210.4040  152.2450 C   0  0  0  0  0  0  0  0  0  0  0  0
  161.4990  206.7710  152.1360 C   0  0  0  0  0  0  0  0  0  0  0  0
  161.2440  206.4010  153.4620 C   0  0  0  0  0  3  0  0  0  0  0  0
  160.5720  208.6770  153.9630 C   0  0  1  0  0  3  0  0  0  0  0  0
  160.2040  213.0730  151.3590 C   0  0  0  0  0  0  0  0  0  0  0  0
  160.8430  210.7960  150.9830 C   0  0  0  0  0  3  0  0  0  0  0  0
  160.6330  212.1470  150.5590 N   0  0  0  0  0  0  0  0  0  0  0  0
  160.1340  211.3440  153.1940 C   0  0  0  0  0  0  0  0  0  0  0  0
  159.3460  211.9230  155.5280 C   0  0  0  0  0  2  0  0  0  0  0  0
  157.1380  211.1560  156.2490 N   0  0  0  0  0  0  0  0  0  0  0  0
  155.1260  210.1530  155.3190 C   0  0  0  0  0  1  0  0  0  0  0  0
  155.7550  211.4180  155.8670 C   0  0  2  0  0  3  0  0  0  0  0  0
  155.8650  212.4110  154.8050 N   0  0  0  0  0  0  0  0  0  0  0  0
  157.8550  211.9240  155.5040 C   0  0  0  0  0  0  0  0  0  0  0  0
  157.0840  212.6960  154.6030 N   0  0  0  0  0  0  0  0  0  0  0  0
  162.0170  205.7570  151.1640 C   0  0  0  0  0  2  0  0  0  0  0  0
  160.8330  206.9300  149.2510 C   0  0  0  0  0  2  0  0  0  0  0  0
  160.4550  205.9040  147.1120 O   0  0  0  0  0  0  0  0  0  0  0  0
  161.2700  206.8400  147.7950 C   0  0  2  0  0  3  0  0  0  0  0  0
  161.7710  204.6920  148.8770 C   0  0  2  0  0  3  0  0  0  0  0  0
  161.1340  205.5940  149.9230 C   0  0  1  0  0  3  0  0  0  0  0  0
  162.6790  205.3070  146.5850 O   0  0  0  0  0  1  0  0  0  0  0  0
  161.7030  205.4540  147.5690 C   0  0  1  0  0  0  0  0  0  0  0  0
  160.4080  202.7590  149.9870 C   0  0  0  0  0  1  0  0  0  0  0  0
  161.0970  202.7450  147.7440 O   0  0  0  0  0  0  0  0  0  0  0  0
  161.0910  203.3560  148.7990 C   0  0  0  0  0  0  0  0  0  0  0  0
  2  5  2  0  0  0  0
  3 12  2  0  0  0  0
  3  1  1  0  0  0  0
  4  2  1  0  0  0  0
  4 19  1  0  0  0  0
  5  9  1  0  0  0  0
  6 15  1  0  0  0  0
  7  9  2  0  0  0  0
  8  7  1  0  0  0  0
 10 18  1  0  0  0  0
 11  1  2  0  0  0  0
 11 18  1  0  0  0  0
 12 13  1  0  0  0  0
 13  8  2  0  0  0  0
 14  1  1  6  0  0  0
 14  8  1  0  0  0  0
 14  2  1  0  0  0  0
 15 10  2  0  0  0  0
 16 11  1  0  0  0  0
 17 16  2  0  0  0  0
 17 15  1  0  0  0  0
 18  4  2  0  0  0  0
 22 21  1  6  0  0  0
 22 20  1  0  0  0  0
 23 22  1  0  0  0  0
 24 19  1  0  0  0  0
 24 20  2  0  0  0  0
 25 23  2  0  0  0  0
 25 24  1  0  0  0  0
 26 12  1  0  0  0  0
 27 31  1  0  0  0  0
 28 33  1  0  0  0  0
 28 29  1  0  0  0  0
 29 27  1  1  0  0  0
 30 36  1  6  0  0  0
 30 31  1  0  0  0  0
 31 26  1  1  0  0  0
 33 32  1  6  0  0  0
 33 29  1  0  0  0  0
 33 30  1  0  0  0  0
 35 36  2  0  0  0  0
 36 34  1  0  0  0  0
M  END
>  <MODEL>
5

>  <REMARK>
 VINA RESULT:      -9.6      1.628      2.314
  Name = 
  5 active torsions:
  status: ('A' for Active; 'I' for Inactive)
    1  A    between atoms: C_5  and  C_21
    2  A    between atoms: C_15  and  C_32
    3  A    between atoms: C_16  and  C_31
    4  A    between atoms: C_21  and  C_22
    5  A    between atoms: C_26  and  C_31
                            x       y       z     vdW  Elec       q    Type
                         _______ _______ _______ _____ _____    ______ ____

>  <TORSDO>
F 5

$$$$
=
 OpenBabel11072413333D

 36 42  0  0  1  0  0  0  0  0999 V2000
  161.1460  207.1220  150.9570 C   0  0  0  0  0  0  0  0  0  0  0  0
  161.7580  209.4900  151.0410 C   0  0  0  0  0  0  0  0  0  0  0  0
  160.9300  205.9710  150.1770 C   0  0  0  0  0  3  0  0  0  0  0  0
  161.6070  209.4860  152.4380 C   0  0  0  0  0  0  0  0  0  0  0  0
  162.1260  210.6230  150.3800 N   0  0  0  0  0  0  0  0  0  0  0  0
  160.4520  206.8650  156.6450 C   0  0  0  0  0  1  0  0  0  0  0  0
  162.0590  209.5070  148.3040 N   0  0  0  0  0  0  0  0  0  0  0  0
  161.6900  208.3500  148.9120 C   0  0  0  0  0  0  0  0  0  0  0  0
  162.2770  210.6360  149.0290 C   0  0  0  0  0  3  0  0  0  0  0  0
  161.0570  208.3130  154.6050 C   0  0  0  0  0  3  0  0  0  0  0  0
  160.9900  207.1150  152.3600 C   0  0  0  0  0  0  0  0  0  0  0  0
  161.0910  206.0070  148.7870 C   0  0  0  0  0  0  0  0  0  0  0  0
  161.4700  207.1980  148.1560 C   0  0  0  0  0  3  0  0  0  0  0  0
  161.5280  208.3140  150.3090 C   0  0  1  0  0  3  0  0  0  0  0  0
  160.6460  206.9870  155.1770 C   0  0  0  0  0  0  0  0  0  0  0  0
  160.6240  205.9930  152.9990 C   0  0  0  0  0  3  0  0  0  0  0  0
  160.4570  205.9520  154.4200 N   0  0  0  0  0  0  0  0  0  0  0  0
  161.2220  208.3000  153.1020 C   0  0  0  0  0  0  0  0  0  0  0  0
  161.8920  210.7380  153.2210 C   0  0  0  0  0  2  0  0  0  0  0  0
  160.0670  211.5640  154.6250 N   0  0  0  0  0  0  0  0  0  0  0  0
  157.6410  211.4620  154.7670 C   0  0  0  0  0  1  0  0  0  0  0  0
  158.8390  212.3230  154.4180 C   0  0  2  0  0  3  0  0  0  0  0  0
  158.8380  212.6080  152.9870 N   0  0  0  0  0  0  0  0  0  0  0  0
  160.6290  211.4920  153.4680 C   0  0  0  0  0  0  0  0  0  0  0  0
  159.8780  212.1220  152.4490 N   0  0  0  0  0  0  0  0  0  0  0  0
  160.8340  204.7790  147.9700 C   0  0  0  0  0  2  0  0  0  0  0  0
  161.5810  203.6480  150.1150 C   0  0  0  0  0  2  0  0  0  0  0  0
  161.3540  201.2890  150.5070 O   0  0  0  0  0  0  0  0  0  0  0  0
  160.7930  202.5520  150.8200 C   0  0  2  0  0  3  0  0  0  0  0  0
  160.4390  202.3120  148.4010 C   0  0  2  0  0  3  0  0  0  0  0  0
  161.3710  203.4960  148.6120 C   0  0  1  0  0  3  0  0  0  0  0  0
  159.0350  201.0670  150.1130 O   0  0  0  0  0  1  0  0  0  0  0  0
  160.2310  201.6940  149.7690 C   0  0  1  0  0  0  0  0  0  0  0  0
  160.8340  201.5440  145.9350 C   0  0  0  0  0  1  0  0  0  0  0  0
  161.5830  200.3460  147.8080 O   0  0  0  0  0  0  0  0  0  0  0  0
  160.9920  201.3330  147.4070 C   0  0  0  0  0  0  0  0  0  0  0  0
  1 11  2  0  0  0  0
  2  4  1  0  0  0  0
  3  1  1  0  0  0  0
  4 18  2  0  0  0  0
  4 19  1  0  0  0  0
  5  2  2  0  0  0  0
  7  8  1  0  0  0  0
  7  9  2  0  0  0  0
  9  5  1  0  0  0  0
 10 15  2  0  0  0  0
 11 16  1  0  0  0  0
 11 18  1  0  0  0  0
 12  3  2  0  0  0  0
 13 12  1  0  0  0  0
 13  8  2  0  0  0  0
 14  8  1  1  0  0  0
 14  1  1  0  0  0  0
 14  2  1  0  0  0  0
 15  6  1  0  0  0  0
 16 17  2  0  0  0  0
 17 15  1  0  0  0  0
 18 10  1  0  0  0  0
 19 24  1  0  0  0  0
 22 20  1  0  0  0  0
 22 21  1  6  0  0  0
 23 22  1  0  0  0  0
 24 20  2  0  0  0  0
 25 23  2  0  0  0  0
 25 24  1  0  0  0  0
 26 12  1  0  0  0  0
 28 29  1  0  0  0  0
 29 27  1  6  0  0  0
 30 36  1  6  0  0  0
 30 31  1  0  0  0  0
 30 33  1  0  0  0  0
 31 26  1  1  0  0  0
 31 27  1  0  0  0  0
 33 32  1  1  0  0  0
 33 28  1  0  0  0  0
 33 29  1  0  0  0  0
 34 36  1  0  0  0  0
 36 35  2  0  0  0  0
M  END
>  <MODEL>
6

>  <REMARK>
 VINA RESULT:      -9.4      1.557      4.158
  Name = 
  5 active torsions:
  status: ('A' for Active; 'I' for Inactive)
    1  A    between atoms: C_5  and  C_21
    2  A    between atoms: C_15  and  C_32
    3  A    between atoms: C_16  and  C_31
    4  A    between atoms: C_21  and  C_22
    5  A    between atoms: C_26  and  C_31
                            x       y       z     vdW  Elec       q    Type
                         _______ _______ _______ _____ _____    ______ ____

>  <TORSDO>
F 5

$$$$
=
 OpenBabel11072413333D

 36 42  0  0  1  0  0  0  0  0999 V2000
  161.3130  207.1200  150.5600 C   0  0  0  0  0  0  0  0  0  0  0  0
  161.4710  207.9260  152.8650 C   0  0  0  0  0  0  0  0  0  0  0  0
  161.0830  206.0430  149.6840 C   0  0  0  0  0  3  0  0  0  0  0  0
  161.7540  209.2210  152.3990 C   0  0  0  0  0  0  0  0  0  0  0  0
  161.4040  207.6610  154.2000 N   0  0  0  0  0  0  0  0  0  0  0  0
  162.4680  212.3170  148.4230 C   0  0  0  0  0  1  0  0  0  0  0  0
  160.9130  205.3920  153.7870 N   0  0  0  0  0  0  0  0  0  0  0  0
  160.9680  205.6000  152.4460 C   0  0  0  0  0  0  0  0  0  0  0  0
  161.1270  206.4110  154.6590 C   0  0  0  0  0  3  0  0  0  0  0  0
  162.1340  210.8700  150.5260 C   0  0  0  0  0  3  0  0  0  0  0  0
  161.6000  208.4200  150.0880 C   0  0  0  0  0  0  0  0  0  0  0  0
  160.8020  204.7640  150.1800 C   0  0  0  0  0  0  0  0  0  0  0  0
  160.7450  204.5450  151.5610 C   0  0  0  0  0  3  0  0  0  0  0  0
  161.2520  206.8850  151.9490 C   0  0  1  0  0  3  0  0  0  0  0  0
  162.1730  210.9930  149.0300 C   0  0  0  0  0  0  0  0  0  0  0  0
  161.6660  208.6670  148.7710 C   0  0  0  0  0  3  0  0  0  0  0  0
  161.9560  209.9720  148.2600 N   0  0  0  0  0  0  0  0  0  0  0  0
  161.8210  209.4720  151.0110 C   0  0  0  0  0  0  0  0  0  0  0  0
  161.9490  210.3400  153.3850 C   0  0  0  0  0  2  0  0  0  0  0  0
  159.5940  210.9320  153.0960 N   0  0  0  0  0  0  0  0  0  0  0  0
  158.1250  212.8600  153.3090 C   0  0  0  0  0  1  0  0  0  0  0  0
  158.5510  211.5380  153.9170 C   0  0  2  0  0  3  0  0  0  0  0  0
  159.2050  211.7760  155.1980 N   0  0  0  0  0  0  0  0  0  0  0  0
  160.6300  210.8490  153.8570 C   0  0  0  0  0  0  0  0  0  0  0  0
  160.4070  211.3740  155.1520 N   0  0  0  0  0  0  0  0  0  0  0  0
  160.5840  203.6250  149.2330 C   0  0  0  0  0  2  0  0  0  0  0  0
  161.8630  202.3420  147.4560 C   0  0  0  0  0  2  0  0  0  0  0  0
  162.1130  203.1190  145.1970 O   0  0  0  0  0  0  0  0  0  0  0  0
  161.4060  202.2010  146.0110 C   0  0  2  0  0  3  0  0  0  0  0  0
  160.6960  204.4080  146.8250 C   0  0  2  0  0  3  0  0  0  0  0  0
  161.4330  203.7160  147.9610 C   0  0  1  0  0  3  0  0  0  0  0  0
  159.8340  203.4170  144.6500 O   0  0  0  0  0  1  0  0  0  0  0  0
  160.8290  203.4950  145.6230 C   0  0  1  0  0  0  0  0  0  0  0  0
  162.6920  206.0880  146.6880 C   0  0  0  0  0  1  0  0  0  0  0  0
  160.4630  206.6740  146.2440 O   0  0  0  0  0  0  0  0  0  0  0  0
  161.2330  205.7840  146.5640 C   0  0  0  0  0  0  0  0  0  0  0  0
  2  5  2  0  0  0  0
  3 12  2  0  0  0  0
  3  1  1  0  0  0  0
  4  2  1  0  0  0  0
  4 19  1  0  0  0  0
  5  9  1  0  0  0  0
  6 15  1  0  0  0  0
  7  9  2  0  0  0  0
  8  7  1  0  0  0  0
 10 18  1  0  0  0  0
 11  1  2  0  0  0  0
 11 18  1  0  0  0  0
 12 13  1  0  0  0  0
 13  8  2  0  0  0  0
 14  1  1  6  0  0  0
 14  8  1  0  0  0  0
 14  2  1  0  0  0  0
 15 10  2  0  0  0  0
 16 11  1  0  0  0  0
 17 16  2  0  0  0  0
 17 15  1  0  0  0  0
 18  4  2  0  0  0  0
 19 24  1  0  0  0  0
 20 24  2  0  0  0  0
 20 22  1  0  0  0  0
 22 21  1  6  0  0  0
 22 23  1  0  0  0  0
 24 25  1  0  0  0  0
 25 23  2  0  0  0  0
 26 12  1  0  0  0  0
 27 31  1  0  0  0  0
 28 33  1  0  0  0  0
 28 29  1  0  0  0  0
 29 27  1  1  0  0  0
 30 36  1  6  0  0  0
 30 31  1  0  0  0  0
 31 26  1  1  0  0  0
 33 32  1  6  0  0  0
 33 29  1  0  0  0  0
 33 30  1  0  0  0  0
 35 36  2  0  0  0  0
 36 34  1  0  0  0  0
M  END
>  <MODEL>
7

>  <REMARK>
 VINA RESULT:      -8.9      1.135      2.182
  Name = 
  5 active torsions:
  status: ('A' for Active; 'I' for Inactive)
    1  A    between atoms: C_5  and  C_21
    2  A    between atoms: C_15  and  C_32
    3  A    between atoms: C_16  and  C_31
    4  A    between atoms: C_21  and  C_22
    5  A    between atoms: C_26  and  C_31
                            x       y       z     vdW  Elec       q    Type
                         _______ _______ _______ _____ _____    ______ ____

>  <TORSDO>
F 5

$$$$
=
 OpenBabel11072413333D

 36 42  0  0  1  0  0  0  0  0999 V2000
  161.0380  208.5450  151.8510 C   0  0  0  0  0  0  0  0  0  0  0  0
  162.1070  208.8580  149.6720 C   0  0  0  0  0  0  0  0  0  0  0  0
  160.4100  209.1260  152.9680 C   0  0  0  0  0  3  0  0  0  0  0  0
  162.3070  207.4720  149.5640 C   0  0  0  0  0  0  0  0  0  0  0  0
  162.5170  209.7040  148.6850 N   0  0  0  0  0  2  0  0  0  0  0  0
  161.7590  202.8580  151.6410 C   0  0  0  0  0  1  0  0  0  0  0  0
  161.7160  211.5760  149.8740 N   0  0  0  0  0  0  0  0  0  0  0  0
  161.2880  210.7800  150.8870 C   0  0  0  0  0  0  0  0  0  0  0  0
  162.3250  211.0470  148.7810 C   0  0  0  0  0  3  0  0  0  0  0  0
  162.1050  205.1250  150.4730 C   0  0  0  0  0  3  0  0  0  0  0  0
  161.2410  207.1510  151.7470 C   0  0  0  0  0  0  0  0  0  0  0  0
  160.2230  210.5110  153.0450 C   0  0  0  0  0  0  0  0  0  0  0  0
  160.6640  211.3360  152.0040 C   0  0  0  0  0  3  0  0  0  0  0  0
  161.4760  209.3880  150.8090 C   0  0  0  0  0  0  0  0  0  0  0  0
  161.5980  204.3350  151.6440 C   0  0  0  0  0  0  0  0  0  0  0  0
  160.8350  206.3300  152.7280 C   0  0  0  0  0  3  0  0  0  0  0  0
  161.0250  204.9120  152.6540 N   0  0  0  0  0  0  0  0  0  0  0  0
  161.8760  206.6140  150.6000 C   0  0  0  0  0  0  0  0  0  0  0  0
  162.9480  206.9070  148.3260 C   0  0  0  0  0  2  0  0  0  0  0  0
  162.1020  205.2500  146.7390 N   0  0  0  0  0  0  0  0  0  0  0  0
  161.2150  205.1300  144.4770 C   0  0  0  0  0  1  0  0  0  0  0  0
  160.8860  205.0670  145.9550 C   0  0  2  0  0  3  0  0  0  0  0  0
  160.0550  206.2080  146.3220 N   0  0  0  0  0  0  0  0  0  0  0  0
  161.9120  206.3210  147.4290 C   0  0  0  0  0  0  0  0  0  0  0  0
  160.6590  206.9270  147.1740 N   0  0  0  0  0  0  0  0  0  0  0  0
  159.5740  211.1150  154.2520 C   0  0  0  0  0  2  0  0  0  0  0  0
  157.1460  210.9600  154.9730 C   0  0  0  0  0  2  0  0  0  0  0  0
  155.5860  212.7710  154.7380 O   0  0  0  0  0  0  0  0  0  0  0  0
  156.3920  212.0810  155.6760 C   0  0  2  0  0  3  0  0  0  0  0  0
  158.0010  213.0990  154.1230 C   0  0  2  0  0  3  0  0  0  0  0  0
  158.1390  211.5890  154.0010 C   0  0  1  0  0  3  0  0  0  0  0  0
  156.7820  214.4470  155.8970 O   0  0  0  0  0  1  0  0  0  0  0  0
  156.8310  213.3380  155.0550 C   0  0  1  0  0  0  0  0  0  0  0  0
  158.9450  214.4480  152.0940 C   0  0  0  0  0  1  0  0  0  0  0  0
  156.7190  213.7210  152.2540 O   0  0  0  0  0  0  0  0  0  0  0  0
  157.8150  213.7550  152.7860 C   0  0  0  0  0  0  0  0  0  0  0  0
  1  3  2  0  0  0  0
  2 14  1  0  0  0  0
  3 12  1  0  0  0  0
  4  2  2  0  0  0  0
  4 18  1  0  0  0  0
  5  9  1  0  0  0  0
  5  2  1  0  0  0  0
  6 15  1  0  0  0  0
  7  8  1  0  0  0  0
  8 13  1  0  0  0  0
  9  7  2  0  0  0  0
 10 18  2  0  0  0  0
 10 15  1  0  0  0  0
 11  1  1  0  0  0  0
 11 16  2  0  0  0  0
 12 26  1  0  0  0  0
 13 12  2  0  0  0  0
 14  8  2  0  0  0  0
 14  1  1  0  0  0  0
 15 17  2  0  0  0  0
 17 16  1  0  0  0  0
 18 11  1  0  0  0  0
 19  4  1  0  0  0  0
 20 24  2  0  0  0  0
 22 21  1  6  0  0  0
 22 23  1  0  0  0  0
 22 20  1  0  0  0  0
 23 25  2  0  0  0  0
 24 19  1  0  0  0  0
 25 24  1  0  0  0  0
 28 33  1  0  0  0  0
 28 29  1  0  0  0  0
 29 27  1  6  0  0  0
 30 36  1  6  0  0  0
 30 33  1  0  0  0  0
 31 30  1  0  0  0  0
 31 26  1  1  0  0  0
 31 27  1  0  0  0  0
 33 29  1  0  0  0  0
 33 32  1  1  0  0  0
 34 36  1  0  0  0  0
 35 36  2  0  0  0  0
M  END
>  <MODEL>
8

>  <REMARK>
 VINA RESULT:      -8.4      4.289      9.063
  Name = 
  5 active torsions:
  status: ('A' for Active; 'I' for Inactive)
    1  A    between atoms: C_5  and  C_21
    2  A    between atoms: C_15  and  C_32
    3  A    between atoms: C_16  and  C_31
    4  A    between atoms: C_21  and  C_22
    5  A    between atoms: C_26  and  C_31
                            x       y       z     vdW  Elec       q    Type
                         _______ _______ _______ _____ _____    ______ ____

>  <TORSDO>
F 5

$$$$
=
 OpenBabel11072413333D

 36 42  0  0  1  0  0  0  0  0999 V2000
  161.4950  207.7640  149.8950 C   0  0  0  0  0  0  0  0  0  0  0  0
  161.3850  208.2050  152.3000 C   0  0  0  0  0  0  0  0  0  0  0  0
  161.4650  206.8210  148.8510 C   0  0  0  0  0  3  0  0  0  0  0  0
  161.5390  209.5810  152.0610 C   0  0  0  0  0  0  0  0  0  0  0  0
  161.2550  207.7250  153.5690 N   0  0  0  0  0  0  0  0  0  0  0  0
  162.1490  213.3300  148.6740 C   0  0  0  0  0  1  0  0  0  0  0  0
  161.0810  205.5100  152.7770 N   0  0  0  0  0  0  0  0  0  0  0  0
  161.2060  205.9340  151.4940 C   0  0  0  0  0  0  0  0  0  0  0  0
  161.1030  206.3950  153.8090 C   0  0  0  0  0  3  0  0  0  0  0  0
  161.8460  211.5390  150.4970 C   0  0  0  0  0  3  0  0  0  0  0  0
  161.6530  209.1450  149.6510 C   0  0  0  0  0  0  0  0  0  0  0  0
  161.3090  205.4560  149.1220 C   0  0  0  0  0  0  0  0  0  0  0  0
  161.1800  205.0150  150.4440 C   0  0  0  0  0  3  0  0  0  0  0  0
  161.3640  207.3050  151.2220 C   0  0  1  0  0  3  0  0  0  0  0  0
  161.9780  211.9020  149.0460 C   0  0  0  0  0  0  0  0  0  0  0  0
  161.7830  209.6050  148.3970 C   0  0  0  0  0  3  0  0  0  0  0  0
  161.9450  211.0000  148.1160 N   0  0  0  0  0  0  0  0  0  0  0  0
  161.6740  210.0550  150.7370 C   0  0  0  0  0  0  0  0  0  0  0  0
  161.5220  210.5430  153.2160 C   0  0  0  0  0  2  0  0  0  0  0  0
  159.2180  211.2950  152.8840 N   0  0  0  0  0  0  0  0  0  0  0  0
  157.6420  212.9080  153.7960 C   0  0  0  0  0  1  0  0  0  0  0  0
  158.0290  211.4450  153.7140 C   0  0  2  0  0  3  0  0  0  0  0  0
  158.4550  210.9770  155.0280 N   0  0  0  0  0  0  0  0  0  0  0  0
  160.1210  210.7970  153.6570 C   0  0  0  0  0  0  0  0  0  0  0  0
  159.6660  210.6050  154.9830 N   0  0  0  0  0  0  0  0  0  0  0  0
  161.3030  204.4650  148.0000 C   0  0  0  0  0  2  0  0  0  0  0  0
  161.5890  202.9060  149.9810 C   0  0  0  0  0  2  0  0  0  0  0  0
  160.8450  200.6220  149.9750 O   0  0  0  0  0  0  0  0  0  0  0  0
  160.5280  201.9190  150.4490 C   0  0  2  0  0  3  0  0  0  0  0  0
  160.3700  202.1080  148.0040 C   0  0  2  0  0  3  0  0  0  0  0  0
  161.5000  203.0180  148.4620 C   0  0  1  0  0  3  0  0  0  0  0  0
  158.5800  200.9680  149.4000 O   0  0  0  0  0  1  0  0  0  0  0  0
  159.9070  201.3630  149.2390 C   0  0  1  0  0  0  0  0  0  0  0  0
  160.3960  201.4140  145.4860 C   0  0  0  0  0  1  0  0  0  0  0  0
  161.5080  200.2250  147.1750 O   0  0  0  0  0  0  0  0  0  0  0  0
  160.8050  201.1840  146.9040 C   0  0  0  0  0  0  0  0  0  0  0  0
  2  5  2  0  0  0  0
  3 12  2  0  0  0  0
  3  1  1  0  0  0  0
  4  2  1  0  0  0  0
  4 19  1  0  0  0  0
  5  9  1  0  0  0  0
  6 15  1  0  0  0  0
  7  9  2  0  0  0  0
  8  7  1  0  0  0  0
 10 18  1  0  0  0  0
 11  1  2  0  0  0  0
 11 18  1  0  0  0  0
 12 13  1  0  0  0  0
 13  8  2  0  0  0  0
 14  1  1  6  0  0  0
 14  8  1  0  0  0  0
 14  2  1  0  0  0  0
 15 10  2  0  0  0  0
 16 11  1  0  0  0  0
 17 16  2  0  0  0  0
 17 15  1  0  0  0  0
 18  4  2  0  0  0  0
 19 24  1  0  0  0  0
 20 24  2  0  0  0  0
 20 22  1  0  0  0  0
 22 21  1  1  0  0  0
 22 23  1  0  0  0  0
 24 25  1  0  0  0  0
 25 23  2  0  0  0  0
 26 12  1  0  0  0  0
 28 29  1  0  0  0  0
 29 27  1  6  0  0  0
 30 36  1  6  0  0  0
 30 31  1  0  0  0  0
 30 33  1  0  0  0  0
 31 26  1  1  0  0  0
 31 27  1  0  0  0  0
 33 32  1  1  0  0  0
 33 28  1  0  0  0  0
 33 29  1  0  0  0  0
 34 36  1  0  0  0  0
 36 35  2  0  0  0  0
M  END
>  <MODEL>
9

>  <REMARK>
 VINA RESULT:      -8.3      1.584      2.434
  Name = 
  5 active torsions:
  status: ('A' for Active; 'I' for Inactive)
    1  A    between atoms: C_5  and  C_21
    2  A    between atoms: C_15  and  C_32
    3  A    between atoms: C_16  and  C_31
    4  A    between atoms: C_21  and  C_22
    5  A    between atoms: C_26  and  C_31
                            x       y       z     vdW  Elec       q    Type
                         _______ _______ _______ _____ _____    ______ ____

>  <TORSDO>
F 5

$$$$
