=
 OpenBabel11072410283D

 32 35  0  0  1  0  0  0  0  0999 V2000
  161.5450  203.0380  146.4040 C   0  0  2  0  0  3  0  0  0  0  0  0
  161.1540  207.0590  148.2800 C   0  0  0  0  0  2  0  0  0  0  0  0
  161.0060  202.3940  147.6290 C   0  0  0  0  0  0  0  0  0  0  0  0
  161.4620  205.8650  150.4220 C   0  0  0  0  0  0  0  0  0  0  0  0
  161.8680  208.2640  148.9090 C   0  0  2  0  0  0  0  0  0  0  0  0
  161.3870  207.1950  151.1050 C   0  0  0  0  0  0  0  0  0  0  0  0
  163.3770  208.1370  148.7330 C   0  0  0  0  0  1  0  0  0  0  0  0
  161.8150  204.4780  146.8590 C   0  0  0  0  0  2  0  0  0  0  0  0
  161.8130  204.6490  151.2310 C   0  0  0  0  0  2  0  0  0  0  0  0
  161.5560  208.3110  150.3760 C   0  0  0  0  0  3  0  0  0  0  0  0
  160.7330  203.6200  151.1760 C   0  0  0  0  0  3  0  0  0  0  0  0
  160.9710  203.3300  148.7290 C   0  0  0  0  0  0  0  0  0  0  0  0
  161.4180  204.5170  148.3100 C   0  0  0  0  0  0  0  0  0  0  0  0
  160.6380  201.1910  147.6990 O   0  0  0  0  0  0  0  0  0  0  0  0
  160.3890  203.0100  150.0460 C   0  0  0  0  0  3  0  0  0  0  0  0
  161.3690  205.7920  149.0720 C   0  0  0  0  0  0  0  0  0  0  0  0
  161.0540  206.1910  153.3830 C   0  0  0  0  0  3  0  0  0  0  0  0
  160.8710  208.5870  153.1330 C   0  0  0  0  0  3  0  0  0  0  0  0
  161.0880  207.3270  152.5550 C   0  0  0  0  0  0  0  0  0  0  0  0
  160.5700  207.5750  155.3080 C   0  0  0  0  0  3  0  0  0  0  0  0
  160.6060  208.7180  154.5050 C   0  0  0  0  0  0  0  0  0  0  0  0
  160.7930  206.3150  154.7500 C   0  0  0  0  0  3  0  0  0  0  0  0
  160.3760  209.9660  155.0890 O   0  0  0  0  0  0  0  0  0  0  0  0
  160.8950  211.1740  154.5490 C   0  0  0  0  0  1  0  0  0  0  0  0
  160.6090  204.1760  144.6330 O   0  0  0  0  0  1  0  0  0  0  0  0
  160.5860  202.9930  145.2980 N   0  0  0  0  0  2  0  0  0  0  0  0
  161.4070  209.4790  148.3130 O   0  0  0  0  0  0  0  0  0  0  0  0
  161.9880  211.0200  149.9440 O   0  0  0  0  0  0  0  0  0  0  0  0
  161.7930  210.7630  148.7240 C   0  0  0  0  0  0  0  0  0  0  0  0
  160.9830  212.3080  147.1250 O   0  0  0  0  0  0  0  0  0  0  0  0
  161.9770  211.8110  147.7180 C   0  0  0  0  0  0  0  0  0  0  0  0
  163.2230  212.2570  147.4240 F   0  0  0  0  0  0  0  0  0  0  0  0
  1 26  1  6  0  0  0
  1  8  1  0  0  0  0
  1  3  1  0  0  0  0
  2  5  1  0  0  0  0
  2 16  1  0  0  0  0
  3 14  2  0  0  0  0
  3 12  1  0  0  0  0
  4  6  1  0  0  0  0
  4  9  1  0  0  0  0
  5  7  1  6  0  0  0
  5 10  1  0  0  0  0
  6 19  1  0  0  0  0
  8 13  1  0  0  0  0
 10  6  2  0  0  0  0
 11  9  1  0  0  0  0
 12 15  1  0  0  0  0
 13 12  2  0  0  0  0
 13 16  1  0  0  0  0
 15 11  2  0  0  0  0
 16  4  2  0  0  0  0
 17 22  1  0  0  0  0
 18 21  2  0  0  0  0
 19 18  1  0  0  0  0
 19 17  2  0  0  0  0
 21 23  1  0  0  0  0
 21 20  1  0  0  0  0
 22 20  2  0  0  0  0
 24 23  1  0  0  0  0
 25 26  1  0  0  0  0
 27 29  1  0  0  0  0
 27  5  1  0  0  0  0
 29 28  2  0  0  0  0
 30 31  2  0  0  0  0
 31 29  1  0  0  0  0
 32 31  1  0  0  0  0
M  END
>  <MODEL>
1

>  <REMARK>
 VINA RESULT:      -9.3      0.000      0.000
  Name = 
  6 active torsions:
  status: ('A' for Active; 'I' for Inactive)
    1  A    between atoms: O_1  and  C_21
    2  A    between atoms: C_3  and  N_27
    3  A    between atoms: C_10  and  C_29
    4  A    between atoms: C_11  and  O_32
    5  A    between atoms: C_12  and  C_15
    6  A    between atoms: C_29  and  O_32
                            x       y       z     vdW  Elec       q    Type
                         _______ _______ _______ _____ _____    ______ ____

>  <TORSDO>
F 6

$$$$
=
 OpenBabel11072410283D

 32 35  0  0  1  0  0  0  0  0999 V2000
  161.0930  209.3160  152.5800 C   0  0  2  0  0  3  0  0  0  0  0  0
  161.8910  206.8630  148.9490 C   0  0  0  0  0  2  0  0  0  0  0  0
  161.2210  208.1140  153.4420 C   0  0  0  0  0  0  0  0  0  0  0  0
  160.9040  204.9990  150.2400 C   0  0  0  0  0  0  0  0  0  0  0  0
  161.3210  206.2150  147.6790 C   0  0  2  0  0  0  0  0  0  0  0  0
  161.1020  204.1380  149.0330 C   0  0  0  0  0  0  0  0  0  0  0  0
  159.8880  206.6810  147.4440 C   0  0  0  0  0  1  0  0  0  0  0  0
  161.0320  208.7240  151.1660 C   0  0  0  0  0  2  0  0  0  0  0  0
  160.1520  204.4460  151.4160 C   0  0  0  0  0  2  0  0  0  0  0  0
  161.3200  204.7240  147.8440 C   0  0  0  0  0  3  0  0  0  0  0  0
  160.9880  204.4420  152.6530 C   0  0  0  0  0  3  0  0  0  0  0  0
  161.2140  206.9080  152.6470 C   0  0  0  0  0  0  0  0  0  0  0  0
  161.1160  207.2340  151.3560 C   0  0  0  0  0  0  0  0  0  0  0  0
  161.3140  208.1450  154.6990 O   0  0  0  0  0  0  0  0  0  0  0  0
  161.4290  205.5640  153.2150 C   0  0  0  0  0  3  0  0  0  0  0  0
  161.2610  206.3060  150.2030 C   0  0  0  0  0  0  0  0  0  0  0  0
  160.8510  202.0010  150.3280 C   0  0  0  0  0  3  0  0  0  0  0  0
  161.3420  201.8740  147.9670 C   0  0  0  0  0  3  0  0  0  0  0  0
  161.1110  202.6530  149.1110 C   0  0  0  0  0  0  0  0  0  0  0  0
  161.0800  199.8440  149.2530 C   0  0  0  0  0  3  0  0  0  0  0  0
  161.3340  200.4720  148.0310 C   0  0  0  0  0  0  0  0  0  0  0  0
  160.8390  200.6060  150.3990 C   0  0  0  0  0  3  0  0  0  0  0  0
  161.5750  199.6860  146.9010 O   0  0  0  0  0  0  0  0  0  0  0  0
  160.8580  199.8510  145.6850 C   0  0  0  0  0  1  0  0  0  0  0  0
  162.9140  210.2960  151.5640 O   0  0  0  0  0  1  0  0  0  0  0  0
  162.2330  210.2230  152.7360 N   0  0  0  0  0  2  0  0  0  0  0  0
  162.1330  206.5430  146.5490 O   0  0  0  0  0  0  0  0  0  0  0  0
  163.5280  205.0230  145.4910 O   0  0  0  0  0  0  0  0  0  0  0  0
  162.4370  205.6560  145.5050 C   0  0  0  0  0  0  0  0  0  0  0  0
  160.5020  204.6670  144.5690 O   0  0  0  0  0  0  0  0  0  0  0  0
  161.4670  205.4640  144.4250 C   0  0  0  0  0  0  0  0  0  0  0  0
  161.6020  206.1480  143.2620 F   0  0  0  0  0  0  0  0  0  0  0  0
  1 26  1  6  0  0  0
  1  3  1  0  0  0  0
  2 16  1  0  0  0  0
  3 14  2  0  0  0  0
  4  9  1  0  0  0  0
  5  7  1  6  0  0  0
  5 10  1  0  0  0  0
  5  2  1  0  0  0  0
  6 19  1  0  0  0  0
  6  4  1  0  0  0  0
  8 13  1  0  0  0  0
  8  1  1  0  0  0  0
  9 11  1  0  0  0  0
 10  6  2  0  0  0  0
 11 15  2  0  0  0  0
 12 15  1  0  0  0  0
 12  3  1  0  0  0  0
 13 12  2  0  0  0  0
 16  4  2  0  0  0  0
 16 13  1  0  0  0  0
 17 22  1  0  0  0  0
 18 21  2  0  0  0  0
 18 19  1  0  0  0  0
 19 17  2  0  0  0  0
 20 22  2  0  0  0  0
 21 20  1  0  0  0  0
 23 21  1  0  0  0  0
 24 23  1  0  0  0  0
 25 26  1  0  0  0  0
 27  5  1  0  0  0  0
 28 29  2  0  0  0  0
 29 27  1  0  0  0  0
 31 30  2  0  0  0  0
 31 29  1  0  0  0  0
 32 31  1  0  0  0  0
M  END
>  <MODEL>
2

>  <REMARK>
 VINA RESULT:      -8.3      3.017      7.204
  Name = 
  6 active torsions:
  status: ('A' for Active; 'I' for Inactive)
    1  A    between atoms: O_1  and  C_21
    2  A    between atoms: C_3  and  N_27
    3  A    between atoms: C_10  and  C_29
    4  A    between atoms: C_11  and  O_32
    5  A    between atoms: C_12  and  C_15
    6  A    between atoms: C_29  and  O_32
                            x       y       z     vdW  Elec       q    Type
                         _______ _______ _______ _____ _____    ______ ____

>  <TORSDO>
F 6

$$$$
=
 OpenBabel11072410283D

 32 35  0  0  1  0  0  0  0  0999 V2000
  161.6320  203.6030  146.8550 C   0  0  2  0  0  3  0  0  0  0  0  0
  161.2490  207.7890  148.3270 C   0  0  0  0  0  2  0  0  0  0  0  0
  161.1670  203.0800  148.1650 C   0  0  0  0  0  0  0  0  0  0  0  0
  161.6860  206.8270  150.5620 C   0  0  0  0  0  0  0  0  0  0  0  0
  161.9670  209.0630  148.7920 C   0  0  2  0  0  0  0  0  0  0  0  0
  161.6180  208.2200  151.1070 C   0  0  0  0  0  0  0  0  0  0  0  0
  163.4690  208.9430  148.5540 C   0  0  0  0  0  1  0  0  0  0  0  0
  161.8940  205.0860  147.1450 C   0  0  0  0  0  2  0  0  0  0  0  0
  162.1020  205.7080  151.4710 C   0  0  0  0  0  2  0  0  0  0  0  0
  161.7270  209.2570  150.2600 C   0  0  0  0  0  3  0  0  0  0  0  0
  161.0420  204.6620  151.5780 C   0  0  0  0  0  3  0  0  0  0  0  0
  161.1670  204.1240  149.1630 C   0  0  0  0  0  0  0  0  0  0  0  0
  161.5670  205.2680  148.6030 C   0  0  0  0  0  0  0  0  0  0  0  0
  160.8280  201.8850  148.3760 O   0  0  0  0  0  0  0  0  0  0  0  0
  160.6570  203.9320  150.5340 C   0  0  0  0  0  3  0  0  0  0  0  0
  161.5300  206.6140  149.2330 C   0  0  0  0  0  0  0  0  0  0  0  0
  161.5740  209.7890  153.0680 C   0  0  0  0  0  3  0  0  0  0  0  0
  160.9450  207.4830  153.4140 C   0  0  0  0  0  3  0  0  0  0  0  0
  161.3870  208.4960  152.5500 C   0  0  0  0  0  0  0  0  0  0  0  0
  160.9070  209.0340  155.2680 C   0  0  0  0  0  3  0  0  0  0  0  0
  160.7080  207.7420  154.7730 C   0  0  0  0  0  0  0  0  0  0  0  0
  161.3390  210.0550  154.4190 C   0  0  0  0  0  3  0  0  0  0  0  0
  160.2790  206.7390  155.6460 O   0  0  0  0  0  0  0  0  0  0  0  0
  160.1770  206.9360  157.0490 C   0  0  0  0  0  1  0  0  0  0  0  0
  160.8090  204.3610  144.8410 O   0  0  0  0  0  1  0  0  0  0  0  0
  160.6210  203.4280  145.8090 N   0  0  0  0  0  2  0  0  0  0  0  0
  161.4530  210.2030  148.0990 O   0  0  0  0  0  0  0  0  0  0  0  0
  161.1760  212.0680  149.4470 O   0  0  0  0  0  0  0  0  0  0  0  0
  161.7260  211.5350  148.4450 C   0  0  0  0  0  0  0  0  0  0  0  0
  162.3050  212.7990  146.5310 O   0  0  0  0  0  0  0  0  0  0  0  0
  162.6680  212.3060  147.6320 C   0  0  0  0  0  0  0  0  0  0  0  0
  163.9390  212.4980  148.0650 F   0  0  0  0  0  0  0  0  0  0  0  0
  1 26  1  6  0  0  0
  1  8  1  0  0  0  0
  1  3  1  0  0  0  0
  2  5  1  0  0  0  0
  2 16  1  0  0  0  0
  3 14  2  0  0  0  0
  3 12  1  0  0  0  0
  4  6  1  0  0  0  0
  4  9  1  0  0  0  0
  5  7  1  6  0  0  0
  5 10  1  0  0  0  0
  6 19  1  0  0  0  0
  8 13  1  0  0  0  0
  9 11  1  0  0  0  0
 10  6  2  0  0  0  0
 12 15  1  0  0  0  0
 13 12  2  0  0  0  0
 13 16  1  0  0  0  0
 15 11  2  0  0  0  0
 16  4  2  0  0  0  0
 17 22  1  0  0  0  0
 18 21  2  0  0  0  0
 19 17  2  0  0  0  0
 19 18  1  0  0  0  0
 21 20  1  0  0  0  0
 21 23  1  0  0  0  0
 22 20  2  0  0  0  0
 23 24  1  0  0  0  0
 25 26  1  0  0  0  0
 27 29  1  0  0  0  0
 27  5  1  0  0  0  0
 29 28  2  0  0  0  0
 30 31  2  0  0  0  0
 31 32  1  0  0  0  0
 31 29  1  0  0  0  0
M  END
>  <MODEL>
3

>  <REMARK>
 VINA RESULT:      -8.1      1.104      1.684
  Name = 
  6 active torsions:
  status: ('A' for Active; 'I' for Inactive)
    1  A    between atoms: O_1  and  C_21
    2  A    between atoms: C_3  and  N_27
    3  A    between atoms: C_10  and  C_29
    4  A    between atoms: C_11  and  O_32
    5  A    between atoms: C_12  and  C_15
    6  A    between atoms: C_29  and  O_32
                            x       y       z     vdW  Elec       q    Type
                         _______ _______ _______ _____ _____    ______ ____

>  <TORSDO>
F 6

$$$$
=
 OpenBabel11072410283D

 32 35  0  0  1  0  0  0  0  0999 V2000
  162.1740  211.1190  150.3020 C   0  0  2  0  0  3  0  0  0  0  0  0
  160.8600  207.3580  152.2940 C   0  0  0  0  0  2  0  0  0  0  0  0
  161.9530  210.5100  148.9650 C   0  0  0  0  0  0  0  0  0  0  0  0
  161.6880  206.2300  150.2560 C   0  0  0  0  0  0  0  0  0  0  0  0
  161.2680  206.1100  153.0880 C   0  0  2  0  0  0  0  0  0  0  0  0
  161.3120  204.9300  150.8960 C   0  0  0  0  0  0  0  0  0  0  0  0
  162.7300  206.2040  153.5110 C   0  0  0  0  0  1  0  0  0  0  0  0
  162.0750  209.9190  151.2510 C   0  0  0  0  0  2  0  0  0  0  0  0
  162.4380  206.2120  148.9550 C   0  0  0  0  0  2  0  0  0  0  0  0
  161.0950  204.8960  152.2210 C   0  0  0  0  0  3  0  0  0  0  0  0
  161.6860  206.9180  147.8760 C   0  0  0  0  0  3  0  0  0  0  0  0
  161.7640  209.0830  149.0770 C   0  0  0  0  0  0  0  0  0  0  0  0
  161.8210  208.7310  150.3630 C   0  0  0  0  0  0  0  0  0  0  0  0
  161.9420  211.1540  147.8820 O   0  0  0  0  0  0  0  0  0  0  0  0
  161.4200  208.2200  147.9300 C   0  0  0  0  0  3  0  0  0  0  0  0
  161.4930  207.3930  150.9230 C   0  0  0  0  0  0  0  0  0  0  0  0
  160.8310  202.4690  150.7530 C   0  0  0  0  0  3  0  0  0  0  0  0
  161.2060  203.6980  148.7080 C   0  0  0  0  0  3  0  0  0  0  0  0
  161.1270  203.6830  150.1090 C   0  0  0  0  0  0  0  0  0  0  0  0
  160.7280  201.3300  148.6210 C   0  0  0  0  0  3  0  0  0  0  0  0
  161.0130  202.5270  147.9590 C   0  0  0  0  0  0  0  0  0  0  0  0
  160.6360  201.3000  150.0140 C   0  0  0  0  0  3  0  0  0  0  0  0
  161.1010  202.5280  146.5640 O   0  0  0  0  0  0  0  0  0  0  0  0
  161.5810  203.6430  145.8260 C   0  0  0  0  0  1  0  0  0  0  0  0
  160.4560  211.7500  151.7010 O   0  0  0  0  0  1  0  0  0  0  0  0
  161.1660  212.1360  150.6100 N   0  0  0  0  0  2  0  0  0  0  0  0
  160.4330  205.9610  154.2390 O   0  0  0  0  0  0  0  0  0  0  0  0
  159.0140  207.0850  155.6870 O   0  0  0  0  0  0  0  0  0  0  0  0
  160.1530  206.9860  155.1560 C   0  0  0  0  0  0  0  0  0  0  0  0
  161.9360  207.7520  156.5100 O   0  0  0  0  0  0  0  0  0  0  0  0
  161.2060  207.9430  155.5010 C   0  0  0  0  0  0  0  0  0  0  0  0
  161.4030  209.0420  154.7320 F   0  0  0  0  0  0  0  0  0  0  0  0
  1 26  1  1  0  0  0
  1  8  1  0  0  0  0
  2  5  1  0  0  0  0
  3 12  1  0  0  0  0
  3  1  1  0  0  0  0
  4  6  1  0  0  0  0
  4 16  2  0  0  0  0
  5  7  1  1  0  0  0
  5 27  1  0  0  0  0
  6 10  2  0  0  0  0
  9  4  1  0  0  0  0
 10  5  1  0  0  0  0
 11 15  2  0  0  0  0
 11  9  1  0  0  0  0
 12 13  2  0  0  0  0
 13 16  1  0  0  0  0
 13  8  1  0  0  0  0
 14  3  2  0  0  0  0
 15 12  1  0  0  0  0
 16  2  1  0  0  0  0
 18 19  2  0  0  0  0
 19 17  1  0  0  0  0
 19  6  1  0  0  0  0
 20 22  1  0  0  0  0
 21 20  2  0  0  0  0
 21 18  1  0  0  0  0
 22 17  2  0  0  0  0
 23 21  1  0  0  0  0
 24 23  1  0  0  0  0
 26 25  1  0  0  0  0
 27 29  1  0  0  0  0
 29 31  1  0  0  0  0
 29 28  2  0  0  0  0
 31 30  2  0  0  0  0
 32 31  1  0  0  0  0
M  END
>  <MODEL>
4

>  <REMARK>
 VINA RESULT:      -7.4      2.812      7.301
  Name = 
  6 active torsions:
  status: ('A' for Active; 'I' for Inactive)
    1  A    between atoms: O_1  and  C_21
    2  A    between atoms: C_3  and  N_27
    3  A    between atoms: C_10  and  C_29
    4  A    between atoms: C_11  and  O_32
    5  A    between atoms: C_12  and  C_15
    6  A    between atoms: C_29  and  O_32
                            x       y       z     vdW  Elec       q    Type
                         _______ _______ _______ _____ _____    ______ ____

>  <TORSDO>
F 6

$$$$
=
 OpenBabel11072410283D

 32 35  0  0  1  0  0  0  0  0999 V2000
  161.9360  210.9230  149.6610 C   0  0  2  0  0  3  0  0  0  0  0  0
  162.0980  207.1570  147.2870 C   0  0  0  0  0  2  0  0  0  0  0  0
  162.1410  210.1600  150.9190 C   0  0  0  0  0  0  0  0  0  0  0  0
  161.2390  206.0700  149.3350 C   0  0  0  0  0  0  0  0  0  0  0  0
  161.3240  206.1130  146.4710 C   0  0  2  0  0  0  0  0  0  0  0  0
  161.2250  204.7820  148.5720 C   0  0  0  0  0  0  0  0  0  0  0  0
  159.8910  206.5800  146.2350 C   0  0  0  0  0  1  0  0  0  0  0  0
  161.6460  209.8230  148.6320 C   0  0  0  0  0  2  0  0  0  0  0  0
  160.6450  206.1070  150.7130 C   0  0  0  0  0  2  0  0  0  0  0  0
  161.2890  204.8190  147.2300 C   0  0  0  0  0  3  0  0  0  0  0  0
  161.6520  206.5190  151.7360 C   0  0  0  0  0  3  0  0  0  0  0  0
  161.9710  208.7430  150.6940 C   0  0  0  0  0  0  0  0  0  0  0  0
  161.6980  208.5330  149.4040 C   0  0  0  0  0  0  0  0  0  0  0  0
  162.4180  210.6820  152.0320 O   0  0  0  0  0  0  0  0  0  0  0  0
  162.2140  207.7250  151.7330 C   0  0  0  0  0  3  0  0  0  0  0  0
  161.6370  207.2120  148.7240 C   0  0  0  0  0  0  0  0  0  0  0  0
  161.0460  203.3760  150.6450 C   0  0  0  0  0  3  0  0  0  0  0  0
  161.2540  202.2690  148.5080 C   0  0  0  0  0  3  0  0  0  0  0  0
  161.1870  203.4590  149.2490 C   0  0  0  0  0  0  0  0  0  0  0  0
  161.0670  200.9580  150.5310 C   0  0  0  0  0  3  0  0  0  0  0  0
  161.2000  201.0180  149.1410 C   0  0  0  0  0  0  0  0  0  0  0  0
  160.9890  202.1340  151.2820 C   0  0  0  0  0  3  0  0  0  0  0  0
  161.2780  199.8270  148.4150 O   0  0  0  0  0  0  0  0  0  0  0  0
  161.5780  199.7930  147.0270 C   0  0  0  0  0  1  0  0  0  0  0  0
  162.9740  212.1840  148.0370 O   0  0  0  0  0  1  0  0  0  0  0  0
  163.1210  211.7030  149.2970 N   0  0  0  0  0  2  0  0  0  0  0  0
  161.9750  205.8820  145.2190 O   0  0  0  0  0  0  0  0  0  0  0  0
  161.5080  205.4920  142.9820 O   0  0  0  0  0  0  0  0  0  0  0  0
  161.4460  205.1020  144.1800 C   0  0  0  0  0  0  0  0  0  0  0  0
  159.6400  203.5730  144.1330 O   0  0  0  0  0  0  0  0  0  0  0  0
  160.8210  203.8160  144.4970 C   0  0  0  0  0  0  0  0  0  0  0  0
  161.5170  202.8750  145.1830 F   0  0  0  0  0  0  0  0  0  0  0  0
  1 26  1  6  0  0  0
  1  3  1  0  0  0  0
  2 16  1  0  0  0  0
  3 14  2  0  0  0  0
  4  9  1  0  0  0  0
  5  7  1  6  0  0  0
  5 10  1  0  0  0  0
  5  2  1  0  0  0  0
  6 19  1  0  0  0  0
  6  4  1  0  0  0  0
  8 13  1  0  0  0  0
  8  1  1  0  0  0  0
  9 11  1  0  0  0  0
 10  6  2  0  0  0  0
 12  3  1  0  0  0  0
 12 15  1  0  0  0  0
 13 12  2  0  0  0  0
 15 11  2  0  0  0  0
 16  4  2  0  0  0  0
 16 13  1  0  0  0  0
 17 22  1  0  0  0  0
 18 21  2  0  0  0  0
 18 19  1  0  0  0  0
 19 17  2  0  0  0  0
 20 22  2  0  0  0  0
 21 20  1  0  0  0  0
 23 21  1  0  0  0  0
 24 23  1  0  0  0  0
 25 26  1  0  0  0  0
 27  5  1  0  0  0  0
 28 29  2  0  0  0  0
 29 31  1  0  0  0  0
 29 27  1  0  0  0  0
 30 31  2  0  0  0  0
 31 32  1  0  0  0  0
M  END
>  <MODEL>
5

>  <REMARK>
 VINA RESULT:      -7.2      3.137      7.223
  Name = 
  6 active torsions:
  status: ('A' for Active; 'I' for Inactive)
    1  A    between atoms: O_1  and  C_21
    2  A    between atoms: C_3  and  N_27
    3  A    between atoms: C_10  and  C_29
    4  A    between atoms: C_11  and  O_32
    5  A    between atoms: C_12  and  C_15
    6  A    between atoms: C_29  and  O_32
                            x       y       z     vdW  Elec       q    Type
                         _______ _______ _______ _____ _____    ______ ____

>  <TORSDO>
F 6

$$$$
=
 OpenBabel11072410283D

 32 35  0  0  1  0  0  0  0  0999 V2000
  161.0230  207.4520  154.9780 C   0  0  2  0  0  3  0  0  0  0  0  0
  160.4390  204.3060  151.8800 C   0  0  0  0  0  2  0  0  0  0  0  0
  161.0130  208.5080  153.9340 C   0  0  0  0  0  0  0  0  0  0  0  0
  161.6020  205.8730  150.3620 C   0  0  0  0  0  0  0  0  0  0  0  0
  161.0600  203.1520  151.0800 C   0  0  2  0  0  0  0  0  0  0  0  0
  161.4790  204.8330  149.2920 C   0  0  0  0  0  0  0  0  0  0  0  0
  162.4420  202.8110  151.6280 C   0  0  0  0  0  1  0  0  0  0  0  0
  161.1320  206.1580  154.1620 C   0  0  0  0  0  2  0  0  0  0  0  0
  162.4090  207.1080  150.0870 C   0  0  0  0  0  2  0  0  0  0  0  0
  161.2000  203.5660  149.6450 C   0  0  0  0  0  3  0  0  0  0  0  0
  161.5840  208.3460  150.2180 C   0  0  0  0  0  3  0  0  0  0  0  0
  161.1290  207.9280  152.6160 C   0  0  0  0  0  0  0  0  0  0  0  0
  161.1890  206.5990  152.7250 C   0  0  0  0  0  0  0  0  0  0  0  0
  160.9240  209.7430  154.1700 O   0  0  0  0  0  0  0  0  0  0  0  0
  161.0430  208.7190  151.3740 C   0  0  0  0  0  3  0  0  0  0  0  0
  161.1250  205.6230  151.6050 C   0  0  0  0  0  0  0  0  0  0  0  0
  162.2830  206.3240  147.4380 C   0  0  0  0  0  3  0  0  0  0  0  0
  161.0960  204.3000  146.8660 C   0  0  0  0  0  3  0  0  0  0  0  0
  161.6090  205.1610  147.8480 C   0  0  0  0  0  0  0  0  0  0  0  0
  161.9000  205.7620  145.1160 C   0  0  0  0  0  3  0  0  0  0  0  0
  161.2320  204.5960  145.5010 C   0  0  0  0  0  0  0  0  0  0  0  0
  162.4250  206.6240  146.0810 C   0  0  0  0  0  3  0  0  0  0  0  0
  160.7150  203.7530  144.5140 O   0  0  0  0  0  0  0  0  0  0  0  0
  160.0680  202.5240  144.8170 C   0  0  0  0  0  1  0  0  0  0  0  0
  160.1210  207.8120  157.0670 O   0  0  0  0  0  1  0  0  0  0  0  0
  159.8050  207.4770  155.7900 N   0  0  0  0  0  2  0  0  0  0  0  0
  160.2140  202.0010  151.1350 O   0  0  0  0  0  0  0  0  0  0  0  0
  158.5890  200.9600  149.8510 O   0  0  0  0  0  0  0  0  0  0  0  0
  159.8020  201.2630  150.0150 C   0  0  0  0  0  0  0  0  0  0  0  0
  160.5830  201.0230  147.7940 O   0  0  0  0  0  0  0  0  0  0  0  0
  160.7980  200.8510  149.0230 C   0  0  0  0  0  0  0  0  0  0  0  0
  161.9620  200.2850  149.4270 F   0  0  0  0  0  0  0  0  0  0  0  0
  1 26  1  6  0  0  0
  3 14  2  0  0  0  0
  3  1  1  0  0  0  0
  4 16  2  0  0  0  0
  5 27  1  0  0  0  0
  5  7  1  1  0  0  0
  5  2  1  0  0  0  0
  6 10  2  0  0  0  0
  6  4  1  0  0  0  0
  8  1  1  0  0  0  0
  9 11  1  0  0  0  0
  9  4  1  0  0  0  0
 10  5  1  0  0  0  0
 11 15  2  0  0  0  0
 12 13  2  0  0  0  0
 12  3  1  0  0  0  0
 13  8  1  0  0  0  0
 15 12  1  0  0  0  0
 16  2  1  0  0  0  0
 16 13  1  0  0  0  0
 17 19  1  0  0  0  0
 18 19  2  0  0  0  0
 19  6  1  0  0  0  0
 20 21  2  0  0  0  0
 20 22  1  0  0  0  0
 21 18  1  0  0  0  0
 22 17  2  0  0  0  0
 23 24  1  0  0  0  0
 23 21  1  0  0  0  0
 26 25  1  0  0  0  0
 28 29  2  0  0  0  0
 29 27  1  0  0  0  0
 30 31  2  0  0  0  0
 31 32  1  0  0  0  0
 31 29  1  0  0  0  0
M  END
>  <MODEL>
6

>  <REMARK>
 VINA RESULT:      -7.1      3.760      8.475
  Name = 
  6 active torsions:
  status: ('A' for Active; 'I' for Inactive)
    1  A    between atoms: O_1  and  C_21
    2  A    between atoms: C_3  and  N_27
    3  A    between atoms: C_10  and  C_29
    4  A    between atoms: C_11  and  O_32
    5  A    between atoms: C_12  and  C_15
    6  A    between atoms: C_29  and  O_32
                            x       y       z     vdW  Elec       q    Type
                         _______ _______ _______ _____ _____    ______ ____

>  <TORSDO>
F 6

$$$$
=
 OpenBabel11072410283D

 32 35  0  0  1  0  0  0  0  0999 V2000
  162.0710  205.1580  147.0370 C   0  0  2  0  0  3  0  0  0  0  0  0
  161.3220  209.3870  148.2180 C   0  0  0  0  0  2  0  0  0  0  0  0
  161.5570  204.6830  148.3460 C   0  0  0  0  0  0  0  0  0  0  0  0
  161.6740  208.5900  150.5310 C   0  0  0  0  0  0  0  0  0  0  0  0
  161.9240  210.7330  148.6450 C   0  0  2  0  0  0  0  0  0  0  0  0
  161.4800  210.0040  150.9830 C   0  0  0  0  0  0  0  0  0  0  0  0
  163.4430  210.7020  148.5080 C   0  0  0  0  0  1  0  0  0  0  0  0
  162.2160  206.6700  147.2490 C   0  0  0  0  0  2  0  0  0  0  0  0
  162.1020  207.5560  151.5330 C   0  0  0  0  0  2  0  0  0  0  0  0
  161.5770  210.9950  150.0810 C   0  0  0  0  0  3  0  0  0  0  0  0
  161.1070  206.4480  151.6390 C   0  0  0  0  0  3  0  0  0  0  0  0
  161.4240  205.7800  149.2750 C   0  0  0  0  0  0  0  0  0  0  0  0
  161.7840  206.9150  148.6700 C   0  0  0  0  0  0  0  0  0  0  0  0
  161.2830  203.4810  148.6110 O   0  0  0  0  0  0  0  0  0  0  0  0
  160.8390  205.6340  150.6220 C   0  0  0  0  0  3  0  0  0  0  0  0
  161.6190  208.2900  149.2110 C   0  0  0  0  0  0  0  0  0  0  0  0
  159.8150  210.6570  152.7470 C   0  0  0  0  0  3  0  0  0  0  0  0
  162.1200  210.3320  153.3920 C   0  0  0  0  0  3  0  0  0  0  0  0
  161.1390  210.3470  152.3890 C   0  0  0  0  0  0  0  0  0  0  0  0
  160.4790  210.9500  155.0550 C   0  0  0  0  0  3  0  0  0  0  0  0
  161.8000  210.6370  154.7230 C   0  0  0  0  0  0  0  0  0  0  0  0
  159.4880  210.9610  154.0710 C   0  0  0  0  0  3  0  0  0  0  0  0
  162.7700  210.6370  155.7280 O   0  0  0  0  0  0  0  0  0  0  0  0
  162.6990  209.7860  156.8640 C   0  0  0  0  0  1  0  0  0  0  0  0
  161.2630  205.7980  144.9760 O   0  0  0  0  0  1  0  0  0  0  0  0
  161.1440  204.8540  145.9450 N   0  0  0  0  0  2  0  0  0  0  0  0
  161.3830  211.7920  147.8520 O   0  0  0  0  0  0  0  0  0  0  0  0
  162.7160  213.6550  148.2040 O   0  0  0  0  0  0  0  0  0  0  0  0
  162.1150  212.8970  147.3940 C   0  0  0  0  0  0  0  0  0  0  0  0
  161.1750  213.5940  145.3380 O   0  0  0  0  0  0  0  0  0  0  0  0
  162.1850  213.1630  145.9560 C   0  0  0  0  0  0  0  0  0  0  0  0
  163.3420  212.9510  145.2820 F   0  0  0  0  0  0  0  0  0  0  0  0
  1 26  1  6  0  0  0
  1  8  1  0  0  0  0
  1  3  1  0  0  0  0
  2  5  1  0  0  0  0
  2 16  1  0  0  0  0
  3 14  2  0  0  0  0
  3 12  1  0  0  0  0
  4  6  1  0  0  0  0
  4  9  1  0  0  0  0
  5  7  1  6  0  0  0
  5 10  1  0  0  0  0
  6 19  1  0  0  0  0
  8 13  1  0  0  0  0
  9 11  1  0  0  0  0
 10  6  2  0  0  0  0
 12 15  1  0  0  0  0
 13 16  1  0  0  0  0
 13 12  2  0  0  0  0
 15 11  2  0  0  0  0
 16  4  2  0  0  0  0
 17 22  1  0  0  0  0
 18 21  2  0  0  0  0
 19 17  2  0  0  0  0
 19 18  1  0  0  0  0
 21 20  1  0  0  0  0
 21 23  1  0  0  0  0
 22 20  2  0  0  0  0
 23 24  1  0  0  0  0
 25 26  1  0  0  0  0
 27  5  1  0  0  0  0
 29 27  1  0  0  0  0
 29 28  2  0  0  0  0
 30 31  2  0  0  0  0
 31 29  1  0  0  0  0
 32 31  1  0  0  0  0
M  END
>  <MODEL>
7

>  <REMARK>
 VINA RESULT:      -6.9      1.830      2.767
  Name = 
  6 active torsions:
  status: ('A' for Active; 'I' for Inactive)
    1  A    between atoms: O_1  and  C_21
    2  A    between atoms: C_3  and  N_27
    3  A    between atoms: C_10  and  C_29
    4  A    between atoms: C_11  and  O_32
    5  A    between atoms: C_12  and  C_15
    6  A    between atoms: C_29  and  O_32
                            x       y       z     vdW  Elec       q    Type
                         _______ _______ _______ _____ _____    ______ ____

>  <TORSDO>
F 6

$$$$
=
 OpenBabel11072410283D

 32 35  0  0  1  0  0  0  0  0999 V2000
  162.2380  205.5620  146.8730 C   0  0  2  0  0  3  0  0  0  0  0  0
  161.2650  209.0720  149.4360 C   0  0  0  0  0  2  0  0  0  0  0  0
  161.6390  204.6420  147.8740 C   0  0  0  0  0  0  0  0  0  0  0  0
  161.4610  207.4900  151.3250 C   0  0  0  0  0  0  0  0  0  0  0  0
  161.7890  210.1720  150.3710 C   0  0  2  0  0  0  0  0  0  0  0  0
  161.1870  208.6430  152.2400 C   0  0  0  0  0  0  0  0  0  0  0  0
  163.3140  210.1950  150.3590 C   0  0  0  0  0  1  0  0  0  0  0  0
  162.3180  206.8940  147.6300 C   0  0  0  0  0  2  0  0  0  0  0  0
  161.8420  206.1640  151.9170 C   0  0  0  0  0  2  0  0  0  0  0  0
  161.3220  209.8940  151.7700 C   0  0  0  0  0  3  0  0  0  0  0  0
  160.8780  205.0910  151.5320 C   0  0  0  0  0  3  0  0  0  0  0  0
  161.3990  205.3280  149.1220 C   0  0  0  0  0  0  0  0  0  0  0  0
  161.7690  206.6050  149.0010 C   0  0  0  0  0  0  0  0  0  0  0  0
  161.3840  203.4260  147.6610 O   0  0  0  0  0  0  0  0  0  0  0  0
  160.7160  204.7020  150.2700 C   0  0  0  0  0  3  0  0  0  0  0  0
  161.5180  207.6890  149.9860 C   0  0  0  0  0  0  0  0  0  0  0  0
  160.7590  207.1780  154.2360 C   0  0  0  0  0  3  0  0  0  0  0  0
  160.2860  209.5400  154.4080 C   0  0  0  0  0  3  0  0  0  0  0  0
  160.7270  208.4510  153.6410 C   0  0  0  0  0  0  0  0  0  0  0  0
  159.9010  208.0920  156.3050 C   0  0  0  0  0  3  0  0  0  0  0  0
  159.8680  209.3690  155.7370 C   0  0  0  0  0  0  0  0  0  0  0  0
  160.3460  207.0000  155.5580 C   0  0  0  0  0  3  0  0  0  0  0  0
  159.4160  210.4430  156.5060 O   0  0  0  0  0  0  0  0  0  0  0  0
  158.3090  211.2480  156.1250 C   0  0  0  0  0  1  0  0  0  0  0  0
  160.3630  206.5020  145.9200 O   0  0  0  0  0  1  0  0  0  0  0  0
  161.4090  205.6740  145.6710 N   0  0  0  0  0  2  0  0  0  0  0  0
  161.2770  211.4460  149.9720 O   0  0  0  0  0  0  0  0  0  0  0  0
  162.8010  212.3580  148.4820 O   0  0  0  0  0  0  0  0  0  0  0  0
  161.6020  212.0930  148.7700 C   0  0  0  0  0  0  0  0  0  0  0  0
  159.6240  213.2560  148.1910 O   0  0  0  0  0  0  0  0  0  0  0  0
  160.5310  212.4540  147.8400 C   0  0  0  0  0  0  0  0  0  0  0  0
  160.5120  211.9290  146.5900 F   0  0  0  0  0  0  0  0  0  0  0  0
  1 26  1  6  0  0  0
  1  8  1  0  0  0  0
  1  3  1  0  0  0  0
  2 16  1  0  0  0  0
  2  5  1  0  0  0  0
  3 12  1  0  0  0  0
  4  9  1  0  0  0  0
  4  6  1  0  0  0  0
  5  7  1  6  0  0  0
  5 10  1  0  0  0  0
  6 19  1  0  0  0  0
  8 13  1  0  0  0  0
 10  6  2  0  0  0  0
 11  9  1  0  0  0  0
 12 15  1  0  0  0  0
 13 12  2  0  0  0  0
 13 16  1  0  0  0  0
 14  3  2  0  0  0  0
 15 11  2  0  0  0  0
 16  4  2  0  0  0  0
 17 22  1  0  0  0  0
 18 21  2  0  0  0  0
 19 17  2  0  0  0  0
 19 18  1  0  0  0  0
 21 20  1  0  0  0  0
 21 23  1  0  0  0  0
 22 20  2  0  0  0  0
 24 23  1  0  0  0  0
 26 25  1  0  0  0  0
 27  5  1  0  0  0  0
 28 29  2  0  0  0  0
 29 27  1  0  0  0  0
 31 30  2  0  0  0  0
 31 29  1  0  0  0  0
 32 31  1  0  0  0  0
M  END
>  <MODEL>
8

>  <REMARK>
 VINA RESULT:      -6.9      1.634      2.121
  Name = 
  6 active torsions:
  status: ('A' for Active; 'I' for Inactive)
    1  A    between atoms: O_1  and  C_21
    2  A    between atoms: C_3  and  N_27
    3  A    between atoms: C_10  and  C_29
    4  A    between atoms: C_11  and  O_32
    5  A    between atoms: C_12  and  C_15
    6  A    between atoms: C_29  and  O_32
                            x       y       z     vdW  Elec       q    Type
                         _______ _______ _______ _____ _____    ______ ____

>  <TORSDO>
F 6

$$$$
=
 OpenBabel11072410283D

 32 35  0  0  1  0  0  0  0  0999 V2000
  161.4790  205.4380  153.4560 C   0  0  2  0  0  3  0  0  0  0  0  0
  161.2790  207.0800  149.3200 C   0  0  0  0  0  2  0  0  0  0  0  0
  161.1590  206.7740  154.0210 C   0  0  0  0  0  0  0  0  0  0  0  0
  161.9560  209.2210  150.3560 C   0  0  0  0  0  0  0  0  0  0  0  0
  162.0500  207.5050  148.0630 C   0  0  2  0  0  0  0  0  0  0  0  0
  161.9550  209.8160  148.9830 C   0  0  0  0  0  0  0  0  0  0  0  0
  163.5160  207.0990  148.1770 C   0  0  0  0  0  1  0  0  0  0  0  0
  161.7770  205.7470  151.9840 C   0  0  0  0  0  2  0  0  0  0  0  0
  162.4650  210.0410  151.5060 C   0  0  0  0  0  2  0  0  0  0  0  0
  161.9750  208.9970  147.9180 C   0  0  0  0  0  3  0  0  0  0  0  0
  161.4180  210.2300  152.5540 C   0  0  0  0  0  3  0  0  0  0  0  0
  161.2730  207.8000  153.0110 C   0  0  0  0  0  0  0  0  0  0  0  0
  161.6140  207.2370  151.8490 C   0  0  0  0  0  0  0  0  0  0  0  0
  160.8390  206.9820  155.2230 O   0  0  0  0  0  0  0  0  0  0  0  0
  160.9170  209.2120  153.2480 C   0  0  0  0  0  3  0  0  0  0  0  0
  161.6530  207.9110  150.5250 C   0  0  0  0  0  0  0  0  0  0  0  0
  162.8590  211.9310  147.9740 C   0  0  0  0  0  3  0  0  0  0  0  0
  160.8310  212.0450  149.2810 C   0  0  0  0  0  3  0  0  0  0  0  0
  161.8860  211.2830  148.7550 C   0  0  0  0  0  0  0  0  0  0  0  0
  161.7350  214.0520  148.2810 C   0  0  0  0  0  3  0  0  0  0  0  0
  160.7520  213.4270  149.0530 C   0  0  0  0  0  0  0  0  0  0  0  0
  162.7860  213.3060  147.7420 C   0  0  0  0  0  3  0  0  0  0  0  0
  159.7130  214.1970  149.5820 O   0  0  0  0  0  0  0  0  0  0  0  0
  158.3880  213.7040  149.7260 C   0  0  0  0  0  1  0  0  0  0  0  0
  160.4560  203.5390  152.6470 O   0  0  0  0  0  1  0  0  0  0  0  0
  160.3580  204.5060  153.5950 N   0  0  0  0  0  2  0  0  0  0  0  0
  161.4670  206.9110  146.9010 O   0  0  0  0  0  0  0  0  0  0  0  0
  162.6980  205.8280  145.2610 O   0  0  0  0  0  0  0  0  0  0  0  0
  161.9490  205.7520  146.2730 C   0  0  0  0  0  0  0  0  0  0  0  0
  161.2310  203.5100  146.0370 O   0  0  0  0  0  0  0  0  0  0  0  0
  161.5790  204.4410  146.8110 C   0  0  0  0  0  0  0  0  0  0  0  0
  161.6150  204.2220  148.1480 F   0  0  0  0  0  0  0  0  0  0  0  0
  1 26  1  6  0  0  0
  1  3  1  0  0  0  0
  2 16  1  0  0  0  0
  3 14  2  0  0  0  0
  4 16  2  0  0  0  0
  4  9  1  0  0  0  0
  5  7  1  1  0  0  0
  5  2  1  0  0  0  0
  6  4  1  0  0  0  0
  8  1  1  0  0  0  0
  9 11  1  0  0  0  0
 10  5  1  0  0  0  0
 10  6  2  0  0  0  0
 11 15  2  0  0  0  0
 12 15  1  0  0  0  0
 12  3  1  0  0  0  0
 13  8  1  0  0  0  0
 13 12  2  0  0  0  0
 16 13  1  0  0  0  0
 17 19  1  0  0  0  0
 19  6  1  0  0  0  0
 19 18  2  0  0  0  0
 20 21  2  0  0  0  0
 21 18  1  0  0  0  0
 21 23  1  0  0  0  0
 22 17  2  0  0  0  0
 22 20  1  0  0  0  0
 23 24  1  0  0  0  0
 25 26  1  0  0  0  0
 27  5  1  0  0  0  0
 28 29  2  0  0  0  0
 29 31  1  0  0  0  0
 29 27  1  0  0  0  0
 30 31  2  0  0  0  0
 31 32  1  0  0  0  0
M  END
>  <MODEL>
9

>  <REMARK>
 VINA RESULT:      -6.8      2.901      6.466
  Name = 
  6 active torsions:
  status: ('A' for Active; 'I' for Inactive)
    1  A    between atoms: O_1  and  C_21
    2  A    between atoms: C_3  and  N_27
    3  A    between atoms: C_10  and  C_29
    4  A    between atoms: C_11  and  O_32
    5  A    between atoms: C_12  and  C_15
    6  A    between atoms: C_29  and  O_32
                            x       y       z     vdW  Elec       q    Type
                         _______ _______ _______ _____ _____    ______ ____

>  <TORSDO>
F 6

$$$$
