=
 OpenBabel11072411323D

 52 55  0  0  1  0  0  0  0  0999 V2000
  160.5440  207.0020  155.9240 C   0  0  0  0  0  2  0  0  0  0  0  0
  161.6480  207.2000  155.0760 O   0  0  0  0  0  0  0  0  0  0  0  0
  161.3540  208.2630  154.2610 N   0  0  0  0  0  0  0  0  0  0  0  0
  159.9180  208.3360  156.1650 C   0  0  0  0  0  2  0  0  0  0  0  0
  160.3490  209.0810  154.9420 C   0  0  1  0  0  3  0  0  0  0  0  0
  159.2640  213.2220  157.1780 C   0  0  0  0  0  3  0  0  0  0  0  0
  161.3220  211.8050  157.2450 C   0  0  0  0  0  2  0  0  0  0  0  0
  161.7400  210.5350  156.5290 C   0  0  2  0  0  3  0  0  0  0  0  0
  158.1320  213.4780  156.6880 O   0  0  0  0  0  0  0  0  0  0  0  0
  159.8080  211.5080  155.3690 C   0  0  1  0  0  3  0  0  0  0  0  0
  163.0960  210.5960  156.2120 O   0  0  0  0  0  1  0  0  0  0  0  0
  160.9110  210.4720  155.2480 C   0  0  2  0  0  3  0  0  0  0  0  0
  160.1360  212.2730  156.5600 N   0  0  0  0  0  0  0  0  0  0  0  0
  159.8570  212.3970  154.1310 C   0  0  0  0  0  2  0  0  0  0  0  0
  158.5150  212.4900  153.4820 C   0  0  0  0  0  0  0  0  0  0  0  0
  157.6840  211.6140  153.6670 O   0  0  0  0  0  0  0  0  0  0  0  0
  158.1990  213.6550  152.6040 C   0  0  0  0  0  2  0  0  0  0  0  0
  158.7620  213.8170  150.1000 C   0  0  1  0  0  0  0  0  0  0  0  0
  159.5680  214.4520  149.1730 F   0  0  0  0  0  0  0  0  0  0  0  0
  159.3530  212.5600  150.7180 C   0  0  2  0  0  3  0  0  0  0  0  0
  159.2760  213.8410  151.5420 C   0  0  2  0  0  3  0  0  0  0  0  0
  160.6650  212.3690  150.2830 O   0  0  0  0  0  1  0  0  0  0  0  0
  156.7710  213.2610  148.5890 N   0  0  0  0  0  2  0  0  0  0  0  0
  156.4800  214.4140  150.6070 N   0  0  0  0  0  2  0  0  0  0  0  0
  157.2820  213.7730  149.8250 C   0  0  0  0  0  0  0  0  0  0  0  0
  157.1390  213.0990  146.2500 N   0  0  0  0  0  1  0  0  0  0  0  0
  157.6130  212.6770  147.5550 C   0  0  0  0  0  2  0  0  0  0  0  0
  160.8340  207.7370  152.9760 C   0  0  1  0  0  3  0  0  0  0  0  0
  160.9680  208.7330  151.8040 C   0  0  1  0  0  3  0  0  0  0  0  0
  159.8830  209.6080  151.7470 O   0  0  0  0  0  1  0  0  0  0  0  0
  162.2750  209.5090  151.8230 C   0  0  0  0  0  1  0  0  0  0  0  0
  160.8870  205.2800  152.9860 O   0  0  0  0  0  1  0  0  0  0  0  0
  161.5410  206.4360  152.5520 C   0  0  1  0  0  3  0  0  0  0  0  0
  161.7960  206.4210  151.0270 C   0  0  1  0  0  3  0  0  0  0  0  0
  163.1450  206.6790  150.6880 O   0  0  0  0  0  0  0  0  0  0  0  0
  163.1750  207.6400  149.6620 C   0  0  0  0  0  1  0  0  0  0  0  0
  161.1150  205.2980  150.1980 C   0  0  1  0  0  3  0  0  0  0  0  0
  159.7120  206.8960  148.7600 C   0  0  0  0  0  1  0  0  0  0  0  0
  160.7060  205.7450  148.7860 C   0  0  1  0  0  3  0  0  0  0  0  0
  161.8500  205.8720  147.7690 C   0  0  0  0  0  2  0  0  0  0  0  0
  161.9540  204.6900  146.8060 C   0  0  2  0  0  3  0  0  0  0  0  0
  163.2400  204.8370  146.0010 C   0  0  0  0  0  1  0  0  0  0  0  0
  160.6960  205.8650  144.9670 C   0  0  0  0  0  1  0  0  0  0  0  0
  160.7710  203.4090  145.0070 C   0  0  0  0  0  1  0  0  0  0  0  0
  160.7340  204.6500  145.8800 C   0  0  0  0  0  3  0  0  0  0  0  0
  161.9840  204.0500  150.0620 C   0  0  0  0  0  2  0  0  0  0  0  0
  161.2170  201.9930  152.2700 C   0  0  0  0  0  1  0  0  0  0  0  0
  161.1440  202.8270  149.9020 C   0  0  0  0  0  0  0  0  0  0  0  0
  160.8240  201.9540  150.8700 N   0  0  0  0  0  0  0  0  0  0  0  0
  160.0450  201.0280  150.3430 N   0  0  0  0  0  0  0  0  0  0  0  0
  160.5180  202.4110  148.7440 C   0  0  0  0  0  3  0  0  0  0  0  0
  159.8470  201.2810  149.0570 N   0  0  0  0  0  0  0  0  0  0  0  0
  1  4  1  0  0  0  0
  2  1  1  0  0  0  0
  3  5  1  0  0  0  0
  3  2  1  0  0  0  0
  5  4  1  1  0  0  0
  8 11  1  6  0  0  0
  8  7  1  0  0  0  0
  9  6  2  0  0  0  0
 10 14  1  6  0  0  0
 10 13  1  0  0  0  0
 12  5  1  1  0  0  0
 12 10  1  0  0  0  0
 12  8  1  0  0  0  0
 13  6  1  0  0  0  0
 13  7  1  0  0  0  0
 15 16  2  0  0  0  0
 15 14  1  0  0  0  0
 17 15  1  0  0  0  0
 18 19  1  6  0  0  0
 18 20  1  0  0  0  0
 18 21  1  0  0  0  0
 20 22  1  6  0  0  0
 20 21  1  0  0  0  0
 21 17  1  1  0  0  0
 23 25  1  0  0  0  0
 25 18  1  0  0  0  0
 25 24  2  0  0  0  0
 26 27  1  0  0  0  0
 27 23  1  0  0  0  0
 28 29  1  6  0  0  0
 28  3  1  0  0  0  0
 29 31  1  1  0  0  0
 30 29  1  0  0  0  0
 33 28  1  0  0  0  0
 33 32  1  6  0  0  0
 34 35  1  1  0  0  0
 34 33  1  0  0  0  0
 36 35  1  0  0  0  0
 37 46  1  6  0  0  0
 37 34  1  0  0  0  0
 39 38  1  1  0  0  0
 39 37  1  0  0  0  0
 40 39  1  0  0  0  0
 41 42  1  6  0  0  0
 41 40  1  0  0  0  0
 43 45  1  0  0  0  0
 44 45  1  0  0  0  0
 45 41  1  0  0  0  0
 48 46  1  0  0  0  0
 48 49  1  0  0  0  0
 49 47  1  0  0  0  0
 50 49  1  0  0  0  0
 51 52  1  0  0  0  0
 51 48  2  0  0  0  0
 52 50  2  0  0  0  0
M  END
>  <MODEL>
1

>  <REMARK>
 VINA RESULT:      -3.8      0.000      0.000
  Name = 
  19 active torsions:
  status: ('A' for Active; 'I' for Inactive)
    1  A    between atoms: C_3  and  C_48
    2  A    between atoms: C_4  and  C_7
    3  A    between atoms: C_4  and  C_33
    4  A    between atoms: C_4  and  N_43
    5  A    between atoms: C_5  and  C_15
    6  A    between atoms: C_5  and  C_25
    7  A    between atoms: C_8  and  C_28
    8  A    between atoms: C_8  and  C_45
    9  A    between atoms: O_12  and  C_17
   10  A    between atoms: C_15  and  C_17
   11  A    between atoms: C_15  and  C_45
   12  A    between atoms: C_17  and  C_33
   13  A    between atoms: C_18  and  C_30
   14  A    between atoms: C_18  and  C_38
   15  A    between atoms: C_23  and  C_38
   16  A    between atoms: C_28  and  C_47
   17  A    between atoms: C_29  and  C_30
   18  A    between atoms: N_31  and  C_36
   19  A    between atoms: C_40  and  C_51
                            x       y       z     vdW  Elec       q    Type
                         _______ _______ _______ _____ _____    ______ ____

>  <TORSDO>
F 19

$$$$
=
 OpenBabel11072411323D

 52 55  0  0  1  0  0  0  0  0999 V2000
  162.8540  210.7190  148.1290 C   0  0  0  0  0  2  0  0  0  0  0  0
  161.6850  210.0680  148.5610 O   0  0  0  0  0  0  0  0  0  0  0  0
  161.2980  210.6570  149.7380 N   0  0  0  0  0  0  0  0  0  0  0  0
  162.7730  212.1380  148.5870 C   0  0  0  0  0  2  0  0  0  0  0  0
  161.8600  212.0090  149.7640 C   0  0  1  0  0  3  0  0  0  0  0  0
  157.5820  213.0320  147.7700 C   0  0  0  0  0  3  0  0  0  0  0  0
  158.3330  213.0480  150.1540 C   0  0  0  0  0  2  0  0  0  0  0  0
  159.6660  212.7930  150.8320 C   0  0  2  0  0  3  0  0  0  0  0  0
  157.8490  212.9210  146.5440 O   0  0  0  0  0  0  0  0  0  0  0  0
  160.0430  213.1430  148.4310 C   0  0  1  0  0  3  0  0  0  0  0  0
  159.8290  213.6740  151.8990 O   0  0  0  0  0  1  0  0  0  0  0  0
  160.7390  213.0520  149.7770 C   0  0  2  0  0  3  0  0  0  0  0  0
  158.6230  213.1620  148.7400 N   0  0  0  0  0  0  0  0  0  0  0  0
  160.4630  214.4520  147.7700 C   0  0  0  0  0  2  0  0  0  0  0  0
  161.2570  214.1960  146.5310 C   0  0  0  0  0  0  0  0  0  0  0  0
  162.4780  214.2140  146.5720 O   0  0  0  0  0  0  0  0  0  0  0  0
  160.5510  213.9250  145.2440 C   0  0  0  0  0  2  0  0  0  0  0  0
  161.0970  213.7280  142.7380 C   0  0  1  0  0  0  0  0  0  0  0  0
  161.3990  214.4510  141.5990 F   0  0  0  0  0  0  0  0  0  0  0  0
  162.2930  213.3440  143.5960 C   0  0  2  0  0  3  0  0  0  0  0  0
  161.3560  214.4530  144.0620 C   0  0  2  0  0  3  0  0  0  0  0  0
  163.4640  213.9110  143.0900 O   0  0  0  0  0  1  0  0  0  0  0  0
  158.6550  213.0660  142.3490 N   0  0  0  0  0  2  0  0  0  0  0  0
  160.2430  211.4940  143.0530 N   0  0  0  0  0  2  0  0  0  0  0  0
  160.0070  212.6950  142.6420 C   0  0  0  0  0  0  0  0  0  0  0  0
  157.3810  214.4280  140.8820 N   0  0  0  0  0  1  0  0  0  0  0  0
  158.2480  214.4300  142.0460 C   0  0  0  0  0  2  0  0  0  0  0  0
  161.8150  209.8410  150.8620 C   0  0  1  0  0  3  0  0  0  0  0  0
  161.4820  210.4250  152.2520 C   0  0  1  0  0  3  0  0  0  0  0  0
  160.2500  209.9670  152.7180 O   0  0  0  0  0  1  0  0  0  0  0  0
  162.5690  210.1700  153.2840 C   0  0  0  0  0  1  0  0  0  0  0  0
  160.2840  208.1980  149.8630 O   0  0  0  0  0  1  0  0  0  0  0  0
  161.2710  208.3990  150.8310 C   0  0  1  0  0  3  0  0  0  0  0  0
  162.4260  207.3790  150.7040 C   0  0  1  0  0  3  0  0  0  0  0  0
  162.8390  206.8530  151.9500 O   0  0  0  0  0  0  0  0  0  0  0  0
  161.7070  206.6820  152.7650 C   0  0  0  0  0  1  0  0  0  0  0  0
  162.3440  206.3440  149.5500 C   0  0  1  0  0  3  0  0  0  0  0  0
  159.9480  205.4570  149.7970 C   0  0  0  0  0  1  0  0  0  0  0  0
  161.4340  205.1470  149.8680 C   0  0  1  0  0  3  0  0  0  0  0  0
  161.8370  203.8140  149.2180 C   0  0  0  0  0  2  0  0  0  0  0  0
  160.8770  202.6640  149.5220 C   0  0  2  0  0  3  0  0  0  0  0  0
  161.0090  202.3040  150.9960 C   0  0  0  0  0  1  0  0  0  0  0  0
  160.4340  200.2230  149.0870 C   0  0  0  0  0  1  0  0  0  0  0  0
  160.8190  201.7410  147.1930 C   0  0  0  0  0  1  0  0  0  0  0  0
  161.1980  201.4560  148.6350 C   0  0  0  0  0  3  0  0  0  0  0  0
  161.8710  206.9570  148.2330 C   0  0  0  0  0  2  0  0  0  0  0  0
  160.0660  206.3580  145.7680 C   0  0  0  0  0  1  0  0  0  0  0  0
  162.1860  206.0630  147.0810 C   0  0  0  0  0  0  0  0  0  0  0  0
  161.3920  205.8210  146.0260 N   0  0  0  0  0  0  0  0  0  0  0  0
  162.0350  205.0060  145.2100 N   0  0  0  0  0  0  0  0  0  0  0  0
  163.3640  205.3700  146.8830 C   0  0  0  0  0  3  0  0  0  0  0  0
  163.2300  204.7170  145.7080 N   0  0  0  0  0  0  0  0  0  0  0  0
  1  2  1  0  0  0  0
  1  4  1  0  0  0  0
  2  3  1  0  0  0  0
  3  5  1  0  0  0  0
  3 28  1  0  0  0  0
  5  4  1  6  0  0  0
  6 13  1  0  0  0  0
  7  8  1  0  0  0  0
  8 11  1  1  0  0  0
  9  6  2  0  0  0  0
 10 14  1  1  0  0  0
 10 13  1  0  0  0  0
 10 12  1  0  0  0  0
 12  5  1  6  0  0  0
 12  8  1  0  0  0  0
 13  7  1  0  0  0  0
 15 16  2  0  0  0  0
 15 14  1  0  0  0  0
 17 15  1  0  0  0  0
 18 19  1  6  0  0  0
 18 20  1  0  0  0  0
 18 21  1  0  0  0  0
 20 22  1  6  0  0  0
 20 21  1  0  0  0  0
 21 17  1  1  0  0  0
 23 25  1  0  0  0  0
 25 18  1  0  0  0  0
 25 24  2  0  0  0  0
 26 27  1  0  0  0  0
 27 23  1  0  0  0  0
 28 33  1  1  0  0  0
 28 29  1  0  0  0  0
 29 30  1  0  0  0  0
 29 31  1  1  0  0  0
 33 32  1  6  0  0  0
 34 33  1  0  0  0  0
 34 35  1  1  0  0  0
 35 36  1  0  0  0  0
 37 46  1  6  0  0  0
 37 39  1  0  0  0  0
 37 34  1  0  0  0  0
 39 38  1  6  0  0  0
 40 41  1  0  0  0  0
 40 39  1  0  0  0  0
 41 42  1  1  0  0  0
 44 45  1  0  0  0  0
 45 43  1  0  0  0  0
 45 41  1  0  0  0  0
 47 49  1  0  0  0  0
 48 46  1  0  0  0  0
 49 48  1  0  0  0  0
 50 52  2  0  0  0  0
 50 49  1  0  0  0  0
 51 48  2  0  0  0  0
 52 51  1  0  0  0  0
M  END
>  <MODEL>
2

>  <REMARK>
 VINA RESULT:      -2.8      3.591      6.180
  Name = 
  19 active torsions:
  status: ('A' for Active; 'I' for Inactive)
    1  A    between atoms: C_3  and  C_48
    2  A    between atoms: C_4  and  C_7
    3  A    between atoms: C_4  and  C_33
    4  A    between atoms: C_4  and  N_43
    5  A    between atoms: C_5  and  C_15
    6  A    between atoms: C_5  and  C_25
    7  A    between atoms: C_8  and  C_28
    8  A    between atoms: C_8  and  C_45
    9  A    between atoms: O_12  and  C_17
   10  A    between atoms: C_15  and  C_17
   11  A    between atoms: C_15  and  C_45
   12  A    between atoms: C_17  and  C_33
   13  A    between atoms: C_18  and  C_30
   14  A    between atoms: C_18  and  C_38
   15  A    between atoms: C_23  and  C_38
   16  A    between atoms: C_28  and  C_47
   17  A    between atoms: C_29  and  C_30
   18  A    between atoms: N_31  and  C_36
   19  A    between atoms: C_40  and  C_51
                            x       y       z     vdW  Elec       q    Type
                         _______ _______ _______ _____ _____    ______ ____

>  <TORSDO>
F 19

$$$$
=
 OpenBabel11072411323D

 52 55  0  0  1  0  0  0  0  0999 V2000
  162.2090  210.0970  148.6950 C   0  0  0  0  0  2  0  0  0  0  0  0
  161.1210  209.6420  149.4620 O   0  0  0  0  0  0  0  0  0  0  0  0
  161.0640  210.4160  150.5930 N   0  0  0  0  0  0  0  0  0  0  0  0
  162.3520  211.5630  148.9430 C   0  0  0  0  0  2  0  0  0  0  0  0
  161.7260  211.6880  150.2950 C   0  0  1  0  0  3  0  0  0  0  0  0
  157.6380  213.3710  148.3500 C   0  0  0  0  0  3  0  0  0  0  0  0
  158.3270  213.0750  150.7350 C   0  0  0  0  0  2  0  0  0  0  0  0
  159.6060  212.6080  151.4030 C   0  0  2  0  0  3  0  0  0  0  0  0
  157.9220  213.3490  147.1230 O   0  0  0  0  0  0  0  0  0  0  0  0
  160.0790  213.1410  149.0540 C   0  0  1  0  0  3  0  0  0  0  0  0
  159.8380  213.3590  152.5540 O   0  0  0  0  0  1  0  0  0  0  0  0
  160.7270  212.8450  150.3940 C   0  0  2  0  0  3  0  0  0  0  0  0
  158.6630  213.2890  149.3430 N   0  0  0  0  0  0  0  0  0  0  0  0
  160.6580  214.4520  148.5300 C   0  0  0  0  0  2  0  0  0  0  0  0
  161.5030  214.2200  147.3210 C   0  0  0  0  0  0  0  0  0  0  0  0
  162.7150  214.3560  147.3860 O   0  0  0  0  0  0  0  0  0  0  0  0
  160.8580  213.8260  146.0340 C   0  0  0  0  0  2  0  0  0  0  0  0
  161.3290  213.6990  143.5080 C   0  0  1  0  0  0  0  0  0  0  0  0
  161.6110  214.4530  142.3830 F   0  0  0  0  0  0  0  0  0  0  0  0
  162.5420  213.2680  144.3180 C   0  0  2  0  0  3  0  0  0  0  0  0
  161.6380  214.3770  144.8460 C   0  0  2  0  0  3  0  0  0  0  0  0
  163.7070  213.8300  143.7960 O   0  0  0  0  0  1  0  0  0  0  0  0
  160.2480  211.6430  142.4330 N   0  0  0  0  0  2  0  0  0  0  0  0
  159.1200  212.9000  144.0570 N   0  0  0  0  0  2  0  0  0  0  0  0
  160.2180  212.6880  143.4110 C   0  0  0  0  0  0  0  0  0  0  0  0
  160.9490  211.7070  140.1670 N   0  0  0  0  0  1  0  0  0  0  0  0
  161.3660  211.4250  141.5280 C   0  0  0  0  0  2  0  0  0  0  0  0
  161.7580  209.6960  151.6870 C   0  0  1  0  0  3  0  0  0  0  0  0
  161.6310  210.3910  153.0600 C   0  0  1  0  0  3  0  0  0  0  0  0
  160.2960  210.5720  153.4220 O   0  0  0  0  0  1  0  0  0  0  0  0
  162.3900  209.6760  154.1660 C   0  0  0  0  0  1  0  0  0  0  0  0
  159.9170  208.0880  151.4290 O   0  0  0  0  0  1  0  0  0  0  0  0
  161.2360  208.2560  151.8570 C   0  0  1  0  0  3  0  0  0  0  0  0
  162.1960  207.2420  151.1910 C   0  0  1  0  0  3  0  0  0  0  0  0
  163.1280  206.6850  152.0970 O   0  0  0  0  0  0  0  0  0  0  0  0
  162.4240  206.0830  153.1550 C   0  0  0  0  0  1  0  0  0  0  0  0
  161.5850  206.2370  150.1780 C   0  0  1  0  0  3  0  0  0  0  0  0
  162.8730  207.2110  148.1830 C   0  0  0  0  0  1  0  0  0  0  0  0
  161.5270  206.7790  148.7410 C   0  0  1  0  0  3  0  0  0  0  0  0
  160.6620  205.9720  147.7600 C   0  0  0  0  0  2  0  0  0  0  0  0
  161.2080  205.9450  146.3330 C   0  0  2  0  0  3  0  0  0  0  0  0
  160.0480  206.1720  145.3700 C   0  0  0  0  0  1  0  0  0  0  0  0
  160.9370  203.6230  145.3960 C   0  0  0  0  0  1  0  0  0  0  0  0
  163.0770  204.7990  145.1210 C   0  0  0  0  0  1  0  0  0  0  0  0
  161.8940  204.6040  146.0520 C   0  0  0  0  0  3  0  0  0  0  0  0
  162.3250  204.9010  150.1470 C   0  0  0  0  0  2  0  0  0  0  0  0
  160.0140  204.1070  152.0760 C   0  0  0  0  0  1  0  0  0  0  0  0
  161.3710  203.7640  149.9910 C   0  0  0  0  0  0  0  0  0  0  0  0
  160.3790  203.4410  150.8360 N   0  0  0  0  0  0  0  0  0  0  0  0
  159.7420  202.3980  150.3370 N   0  0  0  0  0  0  0  0  0  0  0  0
  161.3190  202.8800  148.9310 C   0  0  0  0  0  3  0  0  0  0  0  0
  160.2940  202.0380  149.1870 N   0  0  0  0  0  0  0  0  0  0  0  0
  1  4  1  0  0  0  0
  1  2  1  0  0  0  0
  2  3  1  0  0  0  0
  3 28  1  0  0  0  0
  5  4  1  6  0  0  0
  5  3  1  0  0  0  0
  6 13  1  0  0  0  0
  7  8  1  0  0  0  0
  8 11  1  1  0  0  0
  9  6  2  0  0  0  0
 10 14  1  1  0  0  0
 10 13  1  0  0  0  0
 10 12  1  0  0  0  0
 12  5  1  6  0  0  0
 12  8  1  0  0  0  0
 13  7  1  0  0  0  0
 15 16  2  0  0  0  0
 15 14  1  0  0  0  0
 17 15  1  0  0  0  0
 18 19  1  6  0  0  0
 18 20  1  0  0  0  0
 18 21  1  0  0  0  0
 20 22  1  6  0  0  0
 20 21  1  0  0  0  0
 21 17  1  1  0  0  0
 23 25  1  0  0  0  0
 25 18  1  0  0  0  0
 25 24  2  0  0  0  0
 26 27  1  0  0  0  0
 27 23  1  0  0  0  0
 28 33  1  1  0  0  0
 28 29  1  0  0  0  0
 29 30  1  0  0  0  0
 29 31  1  1  0  0  0
 33 32  1  6  0  0  0
 34 33  1  0  0  0  0
 34 35  1  1  0  0  0
 35 36  1  0  0  0  0
 37 46  1  6  0  0  0
 37 34  1  0  0  0  0
 39 38  1  6  0  0  0
 39 37  1  0  0  0  0
 40 39  1  0  0  0  0
 41 42  1  6  0  0  0
 41 40  1  0  0  0  0
 43 45  1  0  0  0  0
 44 45  1  0  0  0  0
 45 41  1  0  0  0  0
 48 46  1  0  0  0  0
 48 49  1  0  0  0  0
 49 47  1  0  0  0  0
 50 49  1  0  0  0  0
 51 52  1  0  0  0  0
 51 48  2  0  0  0  0
 52 50  2  0  0  0  0
M  END
>  <MODEL>
3

>  <REMARK>
 VINA RESULT:      -2.6      3.210      5.326
  Name = 
  19 active torsions:
  status: ('A' for Active; 'I' for Inactive)
    1  A    between atoms: C_3  and  C_48
    2  A    between atoms: C_4  and  C_7
    3  A    between atoms: C_4  and  C_33
    4  A    between atoms: C_4  and  N_43
    5  A    between atoms: C_5  and  C_15
    6  A    between atoms: C_5  and  C_25
    7  A    between atoms: C_8  and  C_28
    8  A    between atoms: C_8  and  C_45
    9  A    between atoms: O_12  and  C_17
   10  A    between atoms: C_15  and  C_17
   11  A    between atoms: C_15  and  C_45
   12  A    between atoms: C_17  and  C_33
   13  A    between atoms: C_18  and  C_30
   14  A    between atoms: C_18  and  C_38
   15  A    between atoms: C_23  and  C_38
   16  A    between atoms: C_28  and  C_47
   17  A    between atoms: C_29  and  C_30
   18  A    between atoms: N_31  and  C_36
   19  A    between atoms: C_40  and  C_51
                            x       y       z     vdW  Elec       q    Type
                         _______ _______ _______ _____ _____    ______ ____

>  <TORSDO>
F 19

$$$$
=
 OpenBabel11072411323D

 52 55  0  0  1  0  0  0  0  0999 V2000
  161.6860  208.2850  148.2760 C   0  0  0  0  0  2  0  0  0  0  0  0
  160.6570  207.9930  149.1880 O   0  0  0  0  0  0  0  0  0  0  0  0
  161.1790  208.1190  150.4500 N   0  0  0  0  0  0  0  0  0  0  0  0
  162.5830  209.2920  148.9180 C   0  0  0  0  0  2  0  0  0  0  0  0
  162.3320  209.0180  150.3660 C   0  0  1  0  0  3  0  0  0  0  0  0
  158.8400  212.1000  151.6420 C   0  0  0  0  0  3  0  0  0  0  0  0
  160.5930  210.9450  152.9990 C   0  0  0  0  0  2  0  0  0  0  0  0
  161.7410  210.0170  152.6510 C   0  0  2  0  0  3  0  0  0  0  0  0
  158.3430  212.3870  150.5210 O   0  0  0  0  0  0  0  0  0  0  0  0
  160.9510  211.1160  150.6030 C   0  0  1  0  0  3  0  0  0  0  0  0
  162.8430  210.3100  153.4530 O   0  0  0  0  0  1  0  0  0  0  0  0
  162.0800  210.2860  151.1860 C   0  0  2  0  0  3  0  0  0  0  0  0
  160.1280  211.4890  151.7410 N   0  0  0  0  0  0  0  0  0  0  0  0
  161.5610  212.3550  149.9550 C   0  0  0  0  0  2  0  0  0  0  0  0
  162.1150  212.0370  148.6050 C   0  0  0  0  0  0  0  0  0  0  0  0
  163.3070  212.1850  148.3820 O   0  0  0  0  0  0  0  0  0  0  0  0
  161.2040  211.5430  147.5300 C   0  0  0  0  0  2  0  0  0  0  0  0
  159.9820  213.4890  146.3730 C   0  0  1  0  0  0  0  0  0  0  0  0
  158.7470  213.9350  145.9410 F   0  0  0  0  0  0  0  0  0  0  0  0
  160.3260  213.8320  147.8140 C   0  0  2  0  0  3  0  0  0  0  0  0
  159.9470  212.4010  147.4500 C   0  0  2  0  0  3  0  0  0  0  0  0
  159.2460  214.4510  148.4430 O   0  0  0  0  0  1  0  0  0  0  0  0
  161.1000  212.8110  144.1720 N   0  0  0  0  0  2  0  0  0  0  0  0
  162.2410  214.0870  145.7720 N   0  0  0  0  0  2  0  0  0  0  0  0
  161.1270  213.5500  145.3980 C   0  0  0  0  0  0  0  0  0  0  0  0
  159.0690  212.8540  142.9450 N   0  0  0  0  0  1  0  0  0  0  0  0
  159.9570  212.0230  143.7380 C   0  0  0  0  0  2  0  0  0  0  0  0
  161.5830  206.7740  150.9260 C   0  0  1  0  0  3  0  0  0  0  0  0
  161.9300  206.7310  152.4290 C   0  0  1  0  0  3  0  0  0  0  0  0
  160.7860  206.8100  153.2230 O   0  0  0  0  0  1  0  0  0  0  0  0
  162.7640  205.5200  152.8170 C   0  0  0  0  0  1  0  0  0  0  0  0
  159.6040  206.0610  149.6540 O   0  0  0  0  0  1  0  0  0  0  0  0
  160.4870  205.7190  150.6810 C   0  0  1  0  0  3  0  0  0  0  0  0
  161.1110  204.3200  150.4690 C   0  0  1  0  0  3  0  0  0  0  0  0
  160.4840  203.3120  151.2390 O   0  0  0  0  0  0  0  0  0  0  0  0
  161.4550  202.6910  152.0450 C   0  0  0  0  0  1  0  0  0  0  0  0
  161.4670  203.9070  149.0150 C   0  0  1  0  0  3  0  0  0  0  0  0
  159.6780  202.0680  148.9560 C   0  0  0  0  0  1  0  0  0  0  0  0
  161.1280  202.4430  148.6960 C   0  0  1  0  0  3  0  0  0  0  0  0
  161.6980  201.9000  147.3770 C   0  0  0  0  0  2  0  0  0  0  0  0
  160.8120  200.8510  146.7050 C   0  0  2  0  0  3  0  0  0  0  0  0
  161.5090  199.5000  146.8010 C   0  0  0  0  0  1  0  0  0  0  0  0
  159.8460  200.1100  144.5000 C   0  0  0  0  0  1  0  0  0  0  0  0
  159.6870  202.4710  145.1610 C   0  0  0  0  0  1  0  0  0  0  0  0
  160.5560  201.2300  145.2430 C   0  0  0  0  0  3  0  0  0  0  0  0
  160.7910  204.7860  147.9650 C   0  0  0  0  0  2  0  0  0  0  0  0
  160.0600  206.1660  145.2710 C   0  0  0  0  0  1  0  0  0  0  0  0
  161.6890  205.0110  146.7950 C   0  0  0  0  0  0  0  0  0  0  0  0
  161.3520  205.6120  145.6420 N   0  0  0  0  0  0  0  0  0  0  0  0
  162.4240  205.6480  144.8730 N   0  0  0  0  0  0  0  0  0  0  0  0
  163.0270  204.6820  146.7170 C   0  0  0  0  0  3  0  0  0  0  0  0
  163.4500  205.0890  145.4990 N   0  0  0  0  0  0  0  0  0  0  0  0
  1  4  1  0  0  0  0
  1  2  1  0  0  0  0
  2  3  1  0  0  0  0
  3 28  1  0  0  0  0
  5  4  1  6  0  0  0
  5  3  1  0  0  0  0
  6 13  1  0  0  0  0
  8  7  1  0  0  0  0
  8 11  1  1  0  0  0
  9  6  2  0  0  0  0
 10 14  1  1  0  0  0
 10 12  1  0  0  0  0
 10 13  1  0  0  0  0
 12  5  1  6  0  0  0
 12  8  1  0  0  0  0
 13  7  1  0  0  0  0
 15 14  1  0  0  0  0
 16 15  2  0  0  0  0
 17 15  1  0  0  0  0
 18 19  1  6  0  0  0
 18 21  1  0  0  0  0
 18 20  1  0  0  0  0
 20 22  1  1  0  0  0
 21 17  1  6  0  0  0
 21 20  1  0  0  0  0
 23 25  1  0  0  0  0
 25 24  2  0  0  0  0
 25 18  1  0  0  0  0
 26 27  1  0  0  0  0
 27 23  1  0  0  0  0
 28 33  1  1  0  0  0
 28 29  1  0  0  0  0
 29 31  1  6  0  0  0
 29 30  1  0  0  0  0
 33 32  1  6  0  0  0
 34 33  1  0  0  0  0
 34 35  1  6  0  0  0
 35 36  1  0  0  0  0
 37 46  1  6  0  0  0
 37 34  1  0  0  0  0
 39 38  1  6  0  0  0
 39 37  1  0  0  0  0
 40 39  1  0  0  0  0
 41 42  1  6  0  0  0
 41 40  1  0  0  0  0
 43 45  1  0  0  0  0
 44 45  1  0  0  0  0
 45 41  1  0  0  0  0
 47 49  1  0  0  0  0
 48 46  1  0  0  0  0
 49 48  1  0  0  0  0
 50 52  2  0  0  0  0
 50 49  1  0  0  0  0
 51 48  2  0  0  0  0
 52 51  1  0  0  0  0
M  END
>  <MODEL>
4

>  <REMARK>
 VINA RESULT:      -2.4      3.071      4.947
  Name = 
  19 active torsions:
  status: ('A' for Active; 'I' for Inactive)
    1  A    between atoms: C_3  and  C_48
    2  A    between atoms: C_4  and  C_7
    3  A    between atoms: C_4  and  C_33
    4  A    between atoms: C_4  and  N_43
    5  A    between atoms: C_5  and  C_15
    6  A    between atoms: C_5  and  C_25
    7  A    between atoms: C_8  and  C_28
    8  A    between atoms: C_8  and  C_45
    9  A    between atoms: O_12  and  C_17
   10  A    between atoms: C_15  and  C_17
   11  A    between atoms: C_15  and  C_45
   12  A    between atoms: C_17  and  C_33
   13  A    between atoms: C_18  and  C_30
   14  A    between atoms: C_18  and  C_38
   15  A    between atoms: C_23  and  C_38
   16  A    between atoms: C_28  and  C_47
   17  A    between atoms: C_29  and  C_30
   18  A    between atoms: N_31  and  C_36
   19  A    between atoms: C_40  and  C_51
                            x       y       z     vdW  Elec       q    Type
                         _______ _______ _______ _____ _____    ______ ____

>  <TORSDO>
F 19

$$$$
=
 OpenBabel11072411323D

 52 55  0  0  1  0  0  0  0  0999 V2000
  160.7790  206.1470  153.8310 C   0  0  0  0  0  2  0  0  0  0  0  0
  161.9250  206.6670  153.2050 O   0  0  0  0  0  0  0  0  0  0  0  0
  161.6980  208.0000  152.9740 N   0  0  0  0  0  0  0  0  0  0  0  0
  160.1790  207.2420  154.6500 C   0  0  0  0  0  2  0  0  0  0  0  0
  160.6860  208.4500  153.9300 C   0  0  1  0  0  3  0  0  0  0  0  0
  159.4110  211.7680  157.2010 C   0  0  0  0  0  3  0  0  0  0  0  0
  161.1770  209.9990  157.2520 C   0  0  0  0  0  2  0  0  0  0  0  0
  161.6580  208.9730  156.2430 C   0  0  2  0  0  3  0  0  0  0  0  0
  158.5250  212.4060  156.5720 O   0  0  0  0  0  0  0  0  0  0  0  0
  160.3050  210.6620  155.0830 C   0  0  1  0  0  3  0  0  0  0  0  0
  163.0430  208.8420  156.3280 O   0  0  0  0  0  1  0  0  0  0  0  0
  161.2710  209.5110  154.8670 C   0  0  2  0  0  3  0  0  0  0  0  0
  160.3240  210.9080  156.5160 N   0  0  0  0  0  0  0  0  0  0  0  0
  160.8380  211.8740  154.3250 C   0  0  0  0  0  2  0  0  0  0  0  0
  159.7230  212.6540  153.7100 C   0  0  0  0  0  0  0  0  0  0  0  0
  159.8110  213.0390  152.5540 O   0  0  0  0  0  0  0  0  0  0  0  0
  158.5060  212.9640  154.5160 C   0  0  0  0  0  2  0  0  0  0  0  0
  156.0670  213.4450  153.8570 C   0  0  1  0  0  0  0  0  0  0  0  0
  155.1580  214.4520  153.5890 F   0  0  0  0  0  0  0  0  0  0  0  0
  156.8790  212.9710  152.6620 C   0  0  2  0  0  3  0  0  0  0  0  0
  157.5410  213.8390  153.7260 C   0  0  2  0  0  3  0  0  0  0  0  0
  156.6000  213.7500  151.5380 O   0  0  0  0  0  1  0  0  0  0  0  0
  155.2340  212.6980  156.1590 N   0  0  0  0  0  2  0  0  0  0  0  0
  155.9020  211.1380  154.5440 N   0  0  0  0  0  2  0  0  0  0  0  0
  155.6540  212.3730  154.8300 C   0  0  0  0  0  0  0  0  0  0  0  0
  153.6970  214.4530  156.5930 N   0  0  0  0  0  1  0  0  0  0  0  0
  155.0940  214.0630  156.6430 C   0  0  0  0  0  2  0  0  0  0  0  0
  161.2240  208.1580  151.5780 C   0  0  1  0  0  3  0  0  0  0  0  0
  161.0580  209.6310  151.1480 C   0  0  1  0  0  3  0  0  0  0  0  0
  159.8730  210.1790  151.6390 O   0  0  0  0  0  1  0  0  0  0  0  0
  162.2430  210.5040  151.5280 C   0  0  0  0  0  1  0  0  0  0  0  0
  162.7630  206.3190  151.0410 O   0  0  0  0  0  1  0  0  0  0  0  0
  162.1730  207.4920  150.5630 C   0  0  1  0  0  3  0  0  0  0  0  0
  161.4620  207.2740  149.2080 C   0  0  1  0  0  3  0  0  0  0  0  0
  161.8040  208.2470  148.2400 O   0  0  0  0  0  0  0  0  0  0  0  0
  163.2030  208.2730  148.1030 C   0  0  0  0  0  1  0  0  0  0  0  0
  161.3720  205.8200  148.6710 C   0  0  1  0  0  3  0  0  0  0  0  0
  159.7230  204.9180  150.4190 C   0  0  0  0  0  1  0  0  0  0  0  0
  161.0900  204.7810  149.7680 C   0  0  1  0  0  3  0  0  0  0  0  0
  161.4950  203.3370  149.4370 C   0  0  0  0  0  2  0  0  0  0  0  0
  160.8230  202.2880  150.3230 C   0  0  2  0  0  3  0  0  0  0  0  0
  161.7960  201.8970  151.4280 C   0  0  0  0  0  1  0  0  0  0  0  0
  159.0780  201.2700  148.8180 C   0  0  0  0  0  1  0  0  0  0  0  0
  161.4550  200.8060  148.4050 C   0  0  0  0  0  1  0  0  0  0  0  0
  160.4260  201.0650  149.4890 C   0  0  0  0  0  3  0  0  0  0  0  0
  160.3150  205.6520  147.5820 C   0  0  0  0  0  2  0  0  0  0  0  0
  163.2930  204.9720  146.9800 C   0  0  0  0  0  1  0  0  0  0  0  0
  160.9470  205.4830  146.2410 C   0  0  0  0  0  0  0  0  0  0  0  0
  162.2350  205.1870  146.0060 N   0  0  0  0  0  0  0  0  0  0  0  0
  162.3990  205.0910  144.6990 N   0  0  0  0  0  0  0  0  0  0  0  0
  160.3070  205.5570  145.0200 C   0  0  0  0  0  3  0  0  0  0  0  0
  161.2480  205.3140  144.0810 N   0  0  0  0  0  0  0  0  0  0  0  0
  1  4  1  0  0  0  0
  2  1  1  0  0  0  0
  3  2  1  0  0  0  0
  3  5  1  0  0  0  0
  5  4  1  1  0  0  0
  8 11  1  6  0  0  0
  8  7  1  0  0  0  0
  9  6  2  0  0  0  0
 10 14  1  6  0  0  0
 10 13  1  0  0  0  0
 12  5  1  6  0  0  0
 12 10  1  0  0  0  0
 12  8  1  0  0  0  0
 13  6  1  0  0  0  0
 13  7  1  0  0  0  0
 15 14  1  0  0  0  0
 15 17  1  0  0  0  0
 16 15  2  0  0  0  0
 18 19  1  6  0  0  0
 18 25  1  0  0  0  0
 20 22  1  6  0  0  0
 20 21  1  0  0  0  0
 20 18  1  0  0  0  0
 21 18  1  0  0  0  0
 21 17  1  1  0  0  0
 23 27  1  0  0  0  0
 24 25  2  0  0  0  0
 25 23  1  0  0  0  0
 26 27  1  0  0  0  0
 28 33  1  6  0  0  0
 28  3  1  0  0  0  0
 29 31  1  1  0  0  0
 29 28  1  0  0  0  0
 29 30  1  0  0  0  0
 33 32  1  1  0  0  0
 34 35  1  6  0  0  0
 34 33  1  0  0  0  0
 36 35  1  0  0  0  0
 37 46  1  6  0  0  0
 37 34  1  0  0  0  0
 37 39  1  0  0  0  0
 39 38  1  6  0  0  0
 40 39  1  0  0  0  0
 40 41  1  0  0  0  0
 41 42  1  1  0  0  0
 43 45  1  0  0  0  0
 44 45  1  0  0  0  0
 45 41  1  0  0  0  0
 48 46  1  0  0  0  0
 49 48  1  0  0  0  0
 49 47  1  0  0  0  0
 50 49  1  0  0  0  0
 51 48  2  0  0  0  0
 52 50  2  0  0  0  0
 52 51  1  0  0  0  0
M  END
>  <MODEL>
5

>  <REMARK>
 VINA RESULT:      -2.3      2.858      4.167
  Name = 
  19 active torsions:
  status: ('A' for Active; 'I' for Inactive)
    1  A    between atoms: C_3  and  C_48
    2  A    between atoms: C_4  and  C_7
    3  A    between atoms: C_4  and  C_33
    4  A    between atoms: C_4  and  N_43
    5  A    between atoms: C_5  and  C_15
    6  A    between atoms: C_5  and  C_25
    7  A    between atoms: C_8  and  C_28
    8  A    between atoms: C_8  and  C_45
    9  A    between atoms: O_12  and  C_17
   10  A    between atoms: C_15  and  C_17
   11  A    between atoms: C_15  and  C_45
   12  A    between atoms: C_17  and  C_33
   13  A    between atoms: C_18  and  C_30
   14  A    between atoms: C_18  and  C_38
   15  A    between atoms: C_23  and  C_38
   16  A    between atoms: C_28  and  C_47
   17  A    between atoms: C_29  and  C_30
   18  A    between atoms: N_31  and  C_36
   19  A    between atoms: C_40  and  C_51
                            x       y       z     vdW  Elec       q    Type
                         _______ _______ _______ _____ _____    ______ ____

>  <TORSDO>
F 19

$$$$
=
 OpenBabel11072411323D

 52 55  0  0  1  0  0  0  0  0999 V2000
  161.8600  210.8310  151.8120 C   0  0  0  0  0  2  0  0  0  0  0  0
  162.1750  210.1520  153.0020 O   0  0  0  0  0  0  0  0  0  0  0  0
  161.3400  209.0670  153.0890 N   0  0  0  0  0  0  0  0  0  0  0  0
  161.3960  209.8130  150.8230 C   0  0  0  0  0  2  0  0  0  0  0  0
  160.9030  208.7330  151.7320 C   0  0  1  0  0  3  0  0  0  0  0  0
  162.9380  206.2980  148.0910 C   0  0  0  0  0  3  0  0  0  0  0  0
  163.4850  206.3750  150.5290 C   0  0  0  0  0  2  0  0  0  0  0  0
  162.8540  207.0710  151.7210 C   0  0  2  0  0  3  0  0  0  0  0  0
  162.1800  206.6060  147.1340 O   0  0  0  0  0  0  0  0  0  0  0  0
  161.2680  207.0970  149.8470 C   0  0  1  0  0  3  0  0  0  0  0  0
  162.9050  206.2360  152.8360 O   0  0  0  0  0  1  0  0  0  0  0  0
  161.4000  207.3380  151.3400 C   0  0  2  0  0  3  0  0  0  0  0  0
  162.5330  206.5030  149.4470 N   0  0  0  0  0  0  0  0  0  0  0  0
  160.1220  206.1150  149.6260 C   0  0  0  0  0  2  0  0  0  0  0  0
  160.6050  204.7030  149.6910 C   0  0  0  0  0  0  0  0  0  0  0  0
  160.9510  204.2240  150.7600 O   0  0  0  0  0  0  0  0  0  0  0  0
  160.6650  203.8850  148.4440 C   0  0  0  0  0  2  0  0  0  0  0  0
  161.1620  201.4970  147.6290 C   0  0  1  0  0  0  0  0  0  0  0  0
  162.1450  200.5280  147.5370 F   0  0  0  0  0  0  0  0  0  0  0  0
  160.3600  201.4840  148.9210 C   0  0  2  0  0  3  0  0  0  0  0  0
  161.4000  202.5740  148.6910 C   0  0  2  0  0  3  0  0  0  0  0  0
  160.8710  200.5350  149.8080 O   0  0  0  0  0  1  0  0  0  0  0  0
  160.7350  202.9390  145.5580 N   0  0  0  0  0  2  0  0  0  0  0  0
  159.2520  201.2360  146.1790 N   0  0  0  0  0  2  0  0  0  0  0  0
  160.3840  201.8230  146.3830 C   0  0  0  0  0  0  0  0  0  0  0  0
  162.0030  204.7760  144.7520 N   0  0  0  0  0  1  0  0  0  0  0  0
  161.8960  203.7820  145.8030 C   0  0  0  0  0  2  0  0  0  0  0  0
  160.1880  209.4300  153.9480 C   0  0  1  0  0  3  0  0  0  0  0  0
  160.4820  209.3050  155.4580 C   0  0  1  0  0  3  0  0  0  0  0  0
  159.6870  208.3270  156.0560 O   0  0  0  0  0  1  0  0  0  0  0  0
  161.9510  209.0570  155.7640 C   0  0  0  0  0  1  0  0  0  0  0  0
  158.5240  210.9430  152.9570 O   0  0  0  0  0  1  0  0  0  0  0  0
  159.7080  210.8730  153.6950 C   0  0  1  0  0  3  0  0  0  0  0  0
  159.6120  211.6600  155.0230 C   0  0  1  0  0  3  0  0  0  0  0  0
  160.8450  212.2300  155.4180 O   0  0  0  0  0  0  0  0  0  0  0  0
  160.7540  212.6080  156.7700 C   0  0  0  0  0  1  0  0  0  0  0  0
  158.3730  212.5720  155.2270 C   0  0  1  0  0  3  0  0  0  0  0  0
  158.3560  214.2060  157.2060 C   0  0  0  0  0  1  0  0  0  0  0  0
  158.0270  212.8090  156.7050 C   0  0  1  0  0  3  0  0  0  0  0  0
  156.6610  212.2760  157.1640 C   0  0  0  0  0  2  0  0  0  0  0  0
  155.5040  212.6670  156.2430 C   0  0  2  0  0  3  0  0  0  0  0  0
  154.6490  213.7050  156.9600 C   0  0  0  0  0  1  0  0  0  0  0  0
  155.3340  210.6270  154.7760 C   0  0  0  0  0  1  0  0  0  0  0  0
  154.5160  210.5260  157.0900 C   0  0  0  0  0  1  0  0  0  0  0  0
  154.6730  211.4320  155.8820 C   0  0  0  0  0  3  0  0  0  0  0  0
  158.5190  213.9350  154.5540 C   0  0  0  0  0  2  0  0  0  0  0  0
  159.4810  214.0740  151.5960 C   0  0  0  0  0  1  0  0  0  0  0  0
  157.6670  214.0250  153.3330 C   0  0  0  0  0  0  0  0  0  0  0  0
  158.1050  214.0820  152.0650 N   0  0  0  0  0  0  0  0  0  0  0  0
  157.0500  214.1220  151.2710 N   0  0  0  0  0  0  0  0  0  0  0  0
  156.2870  214.0200  153.2970 C   0  0  0  0  0  3  0  0  0  0  0  0
  155.9390  214.0890  151.9930 N   0  0  0  0  0  0  0  0  0  0  0  0
  1  2  1  0  0  0  0
  2  3  1  0  0  0  0
  3 28  1  0  0  0  0
  4  1  1  0  0  0  0
  5  4  1  6  0  0  0
  5  3  1  0  0  0  0
  6 13  1  0  0  0  0
  7  8  1  0  0  0  0
  8 11  1  1  0  0  0
  9  6  2  0  0  0  0
 10 14  1  1  0  0  0
 10 12  1  0  0  0  0
 12  8  1  0  0  0  0
 12  5  1  6  0  0  0
 13 10  1  0  0  0  0
 13  7  1  0  0  0  0
 14 15  1  0  0  0  0
 15 16  2  0  0  0  0
 17 15  1  0  0  0  0
 18 19  1  6  0  0  0
 18 21  1  0  0  0  0
 18 20  1  0  0  0  0
 20 22  1  1  0  0  0
 21 17  1  6  0  0  0
 21 20  1  0  0  0  0
 23 27  1  0  0  0  0
 23 25  1  0  0  0  0
 24 25  2  0  0  0  0
 25 18  1  0  0  0  0
 26 27  1  0  0  0  0
 28 33  1  1  0  0  0
 28 29  1  0  0  0  0
 29 31  1  6  0  0  0
 29 30  1  0  0  0  0
 33 32  1  1  0  0  0
 33 34  1  0  0  0  0
 34 37  1  0  0  0  0
 34 35  1  6  0  0  0
 35 36  1  0  0  0  0
 37 46  1  1  0  0  0
 37 39  1  0  0  0  0
 39 40  1  0  0  0  0
 39 38  1  6  0  0  0
 41 42  1  1  0  0  0
 41 40  1  0  0  0  0
 43 45  1  0  0  0  0
 45 41  1  0  0  0  0
 45 44  1  0  0  0  0
 47 49  1  0  0  0  0
 48 46  1  0  0  0  0
 49 48  1  0  0  0  0
 50 52  2  0  0  0  0
 50 49  1  0  0  0  0
 51 48  2  0  0  0  0
 52 51  1  0  0  0  0
M  END
>  <MODEL>
6

>  <REMARK>
 VINA RESULT:      -2.0      3.228     10.242
  Name = 
  19 active torsions:
  status: ('A' for Active; 'I' for Inactive)
    1  A    between atoms: C_3  and  C_48
    2  A    between atoms: C_4  and  C_7
    3  A    between atoms: C_4  and  C_33
    4  A    between atoms: C_4  and  N_43
    5  A    between atoms: C_5  and  C_15
    6  A    between atoms: C_5  and  C_25
    7  A    between atoms: C_8  and  C_28
    8  A    between atoms: C_8  and  C_45
    9  A    between atoms: O_12  and  C_17
   10  A    between atoms: C_15  and  C_17
   11  A    between atoms: C_15  and  C_45
   12  A    between atoms: C_17  and  C_33
   13  A    between atoms: C_18  and  C_30
   14  A    between atoms: C_18  and  C_38
   15  A    between atoms: C_23  and  C_38
   16  A    between atoms: C_28  and  C_47
   17  A    between atoms: C_29  and  C_30
   18  A    between atoms: N_31  and  C_36
   19  A    between atoms: C_40  and  C_51
                            x       y       z     vdW  Elec       q    Type
                         _______ _______ _______ _____ _____    ______ ____

>  <TORSDO>
F 19

$$$$
=
 OpenBabel11072411323D

 52 55  0  0  1  0  0  0  0  0999 V2000
  161.9210  210.3500  150.9100 C   0  0  0  0  0  2  0  0  0  0  0  0
  160.8800  209.4460  151.1840 O   0  0  0  0  0  0  0  0  0  0  0  0
  161.2490  208.7170  152.2860 N   0  0  0  0  0  0  0  0  0  0  0  0
  162.5580  210.7110  152.2110 C   0  0  0  0  0  2  0  0  0  0  0  0
  162.2240  209.5100  153.0370 C   0  0  1  0  0  3  0  0  0  0  0  0
  159.9620  207.5800  156.8430 C   0  0  0  0  0  3  0  0  0  0  0  0
  161.9760  209.0530  156.6980 C   0  0  0  0  0  2  0  0  0  0  0  0
  162.6950  209.7310  155.5470 C   0  0  2  0  0  3  0  0  0  0  0  0
  158.9850  207.0120  156.2870 O   0  0  0  0  0  0  0  0  0  0  0  0
  160.4790  208.9970  154.7860 C   0  0  1  0  0  3  0  0  0  0  0  0
  163.1310  210.9950  155.9410 O   0  0  0  0  0  1  0  0  0  0  0  0
  161.6710  209.8630  154.4210 C   0  0  2  0  0  3  0  0  0  0  0  0
  160.7210  208.5770  156.1560 N   0  0  0  0  0  0  0  0  0  0  0  0
  159.2250  209.8620  154.7060 C   0  0  0  0  0  2  0  0  0  0  0  0
  159.5680  211.2740  154.3620 C   0  0  0  0  0  0  0  0  0  0  0  0
  160.1940  211.9620  155.1540 O   0  0  0  0  0  0  0  0  0  0  0  0
  159.1370  211.8400  153.0500 C   0  0  0  0  0  2  0  0  0  0  0  0
  157.6040  213.7270  152.2090 C   0  0  1  0  0  0  0  0  0  0  0  0
  156.2890  214.0710  151.9560 F   0  0  0  0  0  0  0  0  0  0  0  0
  158.0810  213.9940  153.6280 C   0  0  2  0  0  3  0  0  0  0  0  0
  157.8020  212.5630  153.1840 C   0  0  2  0  0  3  0  0  0  0  0  0
  157.0280  214.4460  154.4240 O   0  0  0  0  0  1  0  0  0  0  0  0
  158.3600  213.6030  149.7660 N   0  0  0  0  0  2  0  0  0  0  0  0
  159.8120  214.3380  151.4520 N   0  0  0  0  0  2  0  0  0  0  0  0
  158.6140  213.9840  151.1230 C   0  0  0  0  0  0  0  0  0  0  0  0
  157.1000  212.9320  147.8710 N   0  0  0  0  0  1  0  0  0  0  0  0
  157.1020  213.0260  149.3200 C   0  0  0  0  0  2  0  0  0  0  0  0
  161.8410  207.4390  151.8250 C   0  0  1  0  0  3  0  0  0  0  0  0
  161.9640  206.3790  152.9400 C   0  0  1  0  0  3  0  0  0  0  0  0
  160.8060  206.3110  153.7140 O   0  0  0  0  0  1  0  0  0  0  0  0
  162.3350  205.0000  152.4170 C   0  0  0  0  0  1  0  0  0  0  0  0
  159.8280  207.4660  150.4130 O   0  0  0  0  0  1  0  0  0  0  0  0
  161.0290  206.8030  150.6790 C   0  0  1  0  0  3  0  0  0  0  0  0
  161.8990  206.6460  149.4110 C   0  0  1  0  0  3  0  0  0  0  0  0
  162.8370  207.6930  149.2510 O   0  0  0  0  0  0  0  0  0  0  0  0
  162.3000  208.6490  148.3710 C   0  0  0  0  0  1  0  0  0  0  0  0
  162.4370  205.2280  149.0820 C   0  0  1  0  0  3  0  0  0  0  0  0
  159.9860  204.5790  149.4840 C   0  0  0  0  0  1  0  0  0  0  0  0
  161.4280  204.1080  149.3820 C   0  0  1  0  0  3  0  0  0  0  0  0
  161.6170  202.8100  148.5820 C   0  0  0  0  0  2  0  0  0  0  0  0
  160.3500  201.9620  148.4710 C   0  0  2  0  0  3  0  0  0  0  0  0
  160.1700  201.1930  149.7750 C   0  0  0  0  0  1  0  0  0  0  0  0
  160.4370  201.7540  145.9630 C   0  0  0  0  0  1  0  0  0  0  0  0
  161.7510  200.2120  147.3530 C   0  0  0  0  0  1  0  0  0  0  0  0
  160.4570  201.0010  147.2830 C   0  0  0  0  0  3  0  0  0  0  0  0
  162.8810  205.0830  147.6280 C   0  0  0  0  0  2  0  0  0  0  0  0
  162.5990  204.2630  144.6370 C   0  0  0  0  0  1  0  0  0  0  0  0
  161.7820  205.4570  146.6900 C   0  0  0  0  0  0  0  0  0  0  0  0
  161.6800  205.0890  145.4030 N   0  0  0  0  0  0  0  0  0  0  0  0
  160.5570  205.5920  144.9240 N   0  0  0  0  0  0  0  0  0  0  0  0
  160.6630  206.2050  147.0000 C   0  0  0  0  0  3  0  0  0  0  0  0
  159.9260  206.2730  145.8700 N   0  0  0  0  0  0  0  0  0  0  0  0
  1  2  1  0  0  0  0
  1  4  1  0  0  0  0
  2  3  1  0  0  0  0
  3  5  1  0  0  0  0
  5  4  1  6  0  0  0
  8 11  1  1  0  0  0
  8  7  1  0  0  0  0
  9  6  2  0  0  0  0
 10 14  1  1  0  0  0
 10 13  1  0  0  0  0
 12  5  1  6  0  0  0
 12 10  1  0  0  0  0
 12  8  1  0  0  0  0
 13  7  1  0  0  0  0
 13  6  1  0  0  0  0
 15 14  1  0  0  0  0
 15 16  2  0  0  0  0
 17 15  1  0  0  0  0
 18 19  1  6  0  0  0
 18 21  1  0  0  0  0
 18 20  1  0  0  0  0
 20 22  1  1  0  0  0
 21 17  1  6  0  0  0
 21 20  1  0  0  0  0
 23 25  1  0  0  0  0
 25 24  2  0  0  0  0
 25 18  1  0  0  0  0
 26 27  1  0  0  0  0
 27 23  1  0  0  0  0
 28 33  1  6  0  0  0
 28  3  1  0  0  0  0
 28 29  1  0  0  0  0
 29 31  1  6  0  0  0
 29 30  1  0  0  0  0
 33 32  1  6  0  0  0
 34 35  1  1  0  0  0
 34 33  1  0  0  0  0
 36 35  1  0  0  0  0
 37 46  1  6  0  0  0
 37 39  1  0  0  0  0
 37 34  1  0  0  0  0
 39 38  1  6  0  0  0
 40 39  1  0  0  0  0
 41 40  1  0  0  0  0
 41 42  1  1  0  0  0
 43 45  1  0  0  0  0
 45 44  1  0  0  0  0
 45 41  1  0  0  0  0
 47 49  1  0  0  0  0
 48 51  2  0  0  0  0
 48 46  1  0  0  0  0
 49 48  1  0  0  0  0
 50 49  1  0  0  0  0
 50 52  2  0  0  0  0
 52 51  1  0  0  0  0
M  END
>  <MODEL>
7

>  <REMARK>
 VINA RESULT:      -1.8      2.319      3.831
  Name = 
  19 active torsions:
  status: ('A' for Active; 'I' for Inactive)
    1  A    between atoms: C_3  and  C_48
    2  A    between atoms: C_4  and  C_7
    3  A    between atoms: C_4  and  C_33
    4  A    between atoms: C_4  and  N_43
    5  A    between atoms: C_5  and  C_15
    6  A    between atoms: C_5  and  C_25
    7  A    between atoms: C_8  and  C_28
    8  A    between atoms: C_8  and  C_45
    9  A    between atoms: O_12  and  C_17
   10  A    between atoms: C_15  and  C_17
   11  A    between atoms: C_15  and  C_45
   12  A    between atoms: C_17  and  C_33
   13  A    between atoms: C_18  and  C_30
   14  A    between atoms: C_18  and  C_38
   15  A    between atoms: C_23  and  C_38
   16  A    between atoms: C_28  and  C_47
   17  A    between atoms: C_29  and  C_30
   18  A    between atoms: N_31  and  C_36
   19  A    between atoms: C_40  and  C_51
                            x       y       z     vdW  Elec       q    Type
                         _______ _______ _______ _____ _____    ______ ____

>  <TORSDO>
F 19

$$$$
=
 OpenBabel11072411323D

 52 55  0  0  1  0  0  0  0  0999 V2000
  160.4550  206.9000  154.0370 C   0  0  0  0  0  2  0  0  0  0  0  0
  161.6110  207.1800  153.2860 O   0  0  0  0  0  0  0  0  0  0  0  0
  161.3300  208.2580  152.4860 N   0  0  0  0  0  0  0  0  0  0  0  0
  159.7490  208.1950  154.2720 C   0  0  0  0  0  2  0  0  0  0  0  0
  160.2370  209.0030  153.1130 C   0  0  1  0  0  3  0  0  0  0  0  0
  158.6230  213.2140  154.8430 C   0  0  0  0  0  3  0  0  0  0  0  0
  160.5840  211.8080  155.4970 C   0  0  0  0  0  2  0  0  0  0  0  0
  161.1690  210.5160  154.9600 C   0  0  2  0  0  3  0  0  0  0  0  0
  157.6620  213.4480  154.0640 O   0  0  0  0  0  0  0  0  0  0  0  0
  159.6150  211.4410  153.3000 C   0  0  1  0  0  3  0  0  0  0  0  0
  162.5610  210.5720  155.0090 O   0  0  0  0  0  1  0  0  0  0  0  0
  160.7060  210.4060  153.5090 C   0  0  2  0  0  3  0  0  0  0  0  0
  159.6220  212.2480  154.5090 N   0  0  0  0  0  0  0  0  0  0  0  0
  159.9940  212.2880  152.0900 C   0  0  0  0  0  2  0  0  0  0  0  0
  158.8270  212.4680  151.1740 C   0  0  0  0  0  0  0  0  0  0  0  0
  157.6940  212.2640  151.5790 O   0  0  0  0  0  0  0  0  0  0  0  0
  159.0570  212.8930  149.7610 C   0  0  0  0  0  2  0  0  0  0  0  0
  160.8650  213.6560  148.0990 C   0  0  1  0  0  0  0  0  0  0  0  0
  161.9880  214.4500  147.9540 F   0  0  0  0  0  0  0  0  0  0  0  0
  161.1310  212.2440  148.5940 C   0  0  2  0  0  3  0  0  0  0  0  0
  160.5170  213.2690  149.5390 C   0  0  2  0  0  3  0  0  0  0  0  0
  162.4810  212.0780  148.9060 O   0  0  0  0  0  1  0  0  0  0  0  0
  160.0060  213.4460  145.6970 N   0  0  0  0  0  2  0  0  0  0  0  0
  158.7030  214.4400  147.3710 N   0  0  0  0  0  2  0  0  0  0  0  0
  159.7770  213.7910  147.0670 C   0  0  0  0  0  0  0  0  0  0  0  0
  161.3900  213.1390  143.7940 N   0  0  0  0  0  1  0  0  0  0  0  0
  161.2530  212.8720  145.2140 C   0  0  0  0  0  2  0  0  0  0  0  0
  160.9370  207.7570  151.1470 C   0  0  1  0  0  3  0  0  0  0  0  0
  161.8240  208.2950  150.0040 C   0  0  1  0  0  3  0  0  0  0  0  0
  161.0580  208.7890  148.9480 O   0  0  0  0  0  1  0  0  0  0  0  0
  162.8280  209.3400  150.4660 C   0  0  0  0  0  1  0  0  0  0  0  0
  159.7220  205.6420  150.8490 O   0  0  0  0  0  1  0  0  0  0  0  0
  160.9750  206.2190  151.0680 C   0  0  1  0  0  3  0  0  0  0  0  0
  162.0200  205.7480  150.0300 C   0  0  1  0  0  3  0  0  0  0  0  0
  163.2140  205.2740  150.6230 O   0  0  0  0  0  0  0  0  0  0  0  0
  163.0130  205.1540  152.0090 C   0  0  0  0  0  1  0  0  0  0  0  0
  161.5080  204.9110  148.8270 C   0  0  1  0  0  3  0  0  0  0  0  0
  163.2690  205.0360  146.9640 C   0  0  0  0  0  1  0  0  0  0  0  0
  161.9080  205.4950  147.4630 C   0  0  1  0  0  3  0  0  0  0  0  0
  160.8070  205.5000  146.3920 C   0  0  0  0  0  2  0  0  0  0  0  0
  161.3200  205.2330  144.9770 C   0  0  2  0  0  3  0  0  0  0  0  0
  160.8450  206.3630  144.0730 C   0  0  0  0  0  1  0  0  0  0  0  0
  161.0750  202.7790  145.4850 C   0  0  0  0  0  1  0  0  0  0  0  0
  159.3110  203.9380  144.2270 C   0  0  0  0  0  1  0  0  0  0  0  0
  160.8080  203.8800  144.4720 C   0  0  0  0  0  3  0  0  0  0  0  0
  161.9750  203.4580  148.8720 C   0  0  0  0  0  2  0  0  0  0  0  0
  161.2170  202.3790  151.6920 C   0  0  0  0  0  1  0  0  0  0  0  0
  160.8480  202.5410  149.2130 C   0  0  0  0  0  0  0  0  0  0  0  0
  160.5380  202.0900  150.4380 N   0  0  0  0  0  0  0  0  0  0  0  0
  159.4620  201.3320  150.3330 N   0  0  0  0  0  0  0  0  0  0  0  0
  159.9080  202.0400  148.3340 C   0  0  0  0  0  3  0  0  0  0  0  0
  159.0640  201.2840  149.0700 N   0  0  0  0  0  0  0  0  0  0  0  0
  1  4  1  0  0  0  0
  2  1  1  0  0  0  0
  3  5  1  0  0  0  0
  3  2  1  0  0  0  0
  5  4  1  1  0  0  0
  8 11  1  6  0  0  0
  8  7  1  0  0  0  0
  9  6  2  0  0  0  0
 10 14  1  6  0  0  0
 10 12  1  0  0  0  0
 10 13  1  0  0  0  0
 12  5  1  1  0  0  0
 12  8  1  0  0  0  0
 13  6  1  0  0  0  0
 13  7  1  0  0  0  0
 15 16  2  0  0  0  0
 15 14  1  0  0  0  0
 17 15  1  0  0  0  0
 18 19  1  6  0  0  0
 18 20  1  0  0  0  0
 18 21  1  0  0  0  0
 20 22  1  1  0  0  0
 20 21  1  0  0  0  0
 21 17  1  6  0  0  0
 23 25  1  0  0  0  0
 25 24  2  0  0  0  0
 25 18  1  0  0  0  0
 26 27  1  0  0  0  0
 27 23  1  0  0  0  0
 28 29  1  6  0  0  0
 28  3  1  0  0  0  0
 29 31  1  1  0  0  0
 30 29  1  0  0  0  0
 33 32  1  6  0  0  0
 33 28  1  0  0  0  0
 34 35  1  1  0  0  0
 34 33  1  0  0  0  0
 35 36  1  0  0  0  0
 37 46  1  1  0  0  0
 37 34  1  0  0  0  0
 39 38  1  6  0  0  0
 39 37  1  0  0  0  0
 40 39  1  0  0  0  0
 41 42  1  6  0  0  0
 41 40  1  0  0  0  0
 44 45  1  0  0  0  0
 45 41  1  0  0  0  0
 45 43  1  0  0  0  0
 46 48  1  0  0  0  0
 48 49  1  0  0  0  0
 49 47  1  0  0  0  0
 50 49  1  0  0  0  0
 51 52  1  0  0  0  0
 51 48  2  0  0  0  0
 52 50  2  0  0  0  0
M  END
>  <MODEL>
8

>  <REMARK>
 VINA RESULT:      -1.6      1.848      2.430
  Name = 
  19 active torsions:
  status: ('A' for Active; 'I' for Inactive)
    1  A    between atoms: C_3  and  C_48
    2  A    between atoms: C_4  and  C_7
    3  A    between atoms: C_4  and  C_33
    4  A    between atoms: C_4  and  N_43
    5  A    between atoms: C_5  and  C_15
    6  A    between atoms: C_5  and  C_25
    7  A    between atoms: C_8  and  C_28
    8  A    between atoms: C_8  and  C_45
    9  A    between atoms: O_12  and  C_17
   10  A    between atoms: C_15  and  C_17
   11  A    between atoms: C_15  and  C_45
   12  A    between atoms: C_17  and  C_33
   13  A    between atoms: C_18  and  C_30
   14  A    between atoms: C_18  and  C_38
   15  A    between atoms: C_23  and  C_38
   16  A    between atoms: C_28  and  C_47
   17  A    between atoms: C_29  and  C_30
   18  A    between atoms: N_31  and  C_36
   19  A    between atoms: C_40  and  C_51
                            x       y       z     vdW  Elec       q    Type
                         _______ _______ _______ _____ _____    ______ ____

>  <TORSDO>
F 19

$$$$
=
 OpenBabel11072411323D

 52 55  0  0  1  0  0  0  0  0999 V2000
  160.5430  207.1540  154.4010 C   0  0  0  0  0  2  0  0  0  0  0  0
  161.7180  207.4400  153.6840 O   0  0  0  0  0  0  0  0  0  0  0  0
  161.4670  208.5440  152.9090 N   0  0  0  0  0  0  0  0  0  0  0  0
  159.8460  208.4500  154.6570 C   0  0  0  0  0  2  0  0  0  0  0  0
  160.3690  209.2850  153.5320 C   0  0  1  0  0  3  0  0  0  0  0  0
  158.8650  213.2950  155.7630 C   0  0  0  0  0  3  0  0  0  0  0  0
  160.9270  211.9160  156.0690 C   0  0  0  0  0  2  0  0  0  0  0  0
  161.4770  210.6890  155.3670 C   0  0  2  0  0  3  0  0  0  0  0  0
  157.8100  213.5520  155.1240 O   0  0  0  0  0  0  0  0  0  0  0  0
  159.7100  211.6780  153.9800 C   0  0  1  0  0  3  0  0  0  0  0  0
  162.8630  210.7910  155.2550 O   0  0  0  0  0  1  0  0  0  0  0  0
  160.8450  210.6700  153.9770 C   0  0  2  0  0  3  0  0  0  0  0  0
  159.8420  212.3930  155.2390 N   0  0  0  0  0  0  0  0  0  0  0  0
  159.9160  212.6250  152.8030 C   0  0  0  0  0  2  0  0  0  0  0  0
  158.6580  212.7830  152.0140 C   0  0  0  0  0  0  0  0  0  0  0  0
  157.5750  212.5790  152.5410 O   0  0  0  0  0  0  0  0  0  0  0  0
  158.7320  213.1870  150.5790 C   0  0  0  0  0  2  0  0  0  0  0  0
  160.3770  213.7050  148.6700 C   0  0  1  0  0  0  0  0  0  0  0  0
  161.5090  214.4240  148.3330 F   0  0  0  0  0  0  0  0  0  0  0  0
  160.6370  212.3300  149.2650 C   0  0  2  0  0  3  0  0  0  0  0  0
  160.1730  213.4670  150.1690 C   0  0  2  0  0  3  0  0  0  0  0  0
  162.0050  212.1240  149.4470 O   0  0  0  0  0  1  0  0  0  0  0  0
  159.3050  213.5180  146.3520 N   0  0  0  0  0  2  0  0  0  0  0  0
  158.1100  214.3690  148.1790 N   0  0  0  0  0  2  0  0  0  0  0  0
  159.1890  213.8020  147.7510 C   0  0  0  0  0  0  0  0  0  0  0  0
  160.4070  213.1210  144.2890 N   0  0  0  0  0  1  0  0  0  0  0  0
  160.5330  213.0440  145.7320 C   0  0  0  0  0  2  0  0  0  0  0  0
  161.0990  208.0850  151.5480 C   0  0  1  0  0  3  0  0  0  0  0  0
  161.9850  208.6840  150.4350 C   0  0  1  0  0  3  0  0  0  0  0  0
  161.2910  208.7960  149.2310 O   0  0  0  0  0  1  0  0  0  0  0  0
  162.6050  210.0190  150.8170 C   0  0  0  0  0  1  0  0  0  0  0  0
  159.9270  205.9520  151.2070 O   0  0  0  0  0  1  0  0  0  0  0  0
  161.1720  206.5520  151.4120 C   0  0  1  0  0  3  0  0  0  0  0  0
  162.1980  206.1450  150.3300 C   0  0  1  0  0  3  0  0  0  0  0  0
  163.5350  206.1870  150.7900 O   0  0  0  0  0  0  0  0  0  0  0  0
  163.5510  205.8670  152.1590 C   0  0  0  0  0  1  0  0  0  0  0  0
  161.8510  204.9230  149.4370 C   0  0  1  0  0  3  0  0  0  0  0  0
  159.6480  203.9530  150.3270 C   0  0  0  0  0  1  0  0  0  0  0  0
  161.1540  203.7870  150.2020 C   0  0  1  0  0  3  0  0  0  0  0  0
  161.6090  202.3640  149.8420 C   0  0  0  0  0  2  0  0  0  0  0  0
  160.4570  201.3950  149.5780 C   0  0  2  0  0  3  0  0  0  0  0  0
  160.6420  200.1740  150.4700 C   0  0  0  0  0  1  0  0  0  0  0  0
  160.4800  202.2110  147.1950 C   0  0  0  0  0  1  0  0  0  0  0  0
  161.6240  200.1140  147.7690 C   0  0  0  0  0  1  0  0  0  0  0  0
  160.4310  200.9910  148.1000 C   0  0  0  0  0  3  0  0  0  0  0  0
  160.9770  205.2890  148.2400 C   0  0  0  0  0  2  0  0  0  0  0  0
  160.0490  206.2060  145.4130 C   0  0  0  0  0  1  0  0  0  0  0  0
  161.7470  205.1980  146.9650 C   0  0  0  0  0  0  0  0  0  0  0  0
  161.3260  205.6020  145.7560 N   0  0  0  0  0  0  0  0  0  0  0  0
  162.3000  205.3830  144.8920 N   0  0  0  0  0  0  0  0  0  0  0  0
  163.0360  204.7250  146.8210 C   0  0  0  0  0  3  0  0  0  0  0  0
  163.3440  204.8500  145.5110 N   0  0  0  0  0  0  0  0  0  0  0  0
  1  4  1  0  0  0  0
  2  1  1  0  0  0  0
  3  5  1  0  0  0  0
  3  2  1  0  0  0  0
  5  4  1  1  0  0  0
  8 11  1  6  0  0  0
  8  7  1  0  0  0  0
  9  6  2  0  0  0  0
 10 14  1  6  0  0  0
 10 13  1  0  0  0  0
 12  5  1  1  0  0  0
 12 10  1  0  0  0  0
 12  8  1  0  0  0  0
 13  6  1  0  0  0  0
 13  7  1  0  0  0  0
 15 16  2  0  0  0  0
 15 14  1  0  0  0  0
 17 15  1  0  0  0  0
 18 19  1  6  0  0  0
 18 20  1  0  0  0  0
 18 21  1  0  0  0  0
 20 22  1  1  0  0  0
 20 21  1  0  0  0  0
 21 17  1  6  0  0  0
 23 25  1  0  0  0  0
 25 24  2  0  0  0  0
 25 18  1  0  0  0  0
 26 27  1  0  0  0  0
 27 23  1  0  0  0  0
 28 29  1  6  0  0  0
 28  3  1  0  0  0  0
 29 31  1  1  0  0  0
 30 29  1  0  0  0  0
 33 32  1  6  0  0  0
 33 28  1  0  0  0  0
 34 35  1  1  0  0  0
 34 33  1  0  0  0  0
 35 36  1  0  0  0  0
 37 46  1  6  0  0  0
 37 39  1  0  0  0  0
 37 34  1  0  0  0  0
 39 38  1  6  0  0  0
 40 39  1  0  0  0  0
 41 40  1  0  0  0  0
 41 42  1  1  0  0  0
 43 45  1  0  0  0  0
 44 45  1  0  0  0  0
 45 41  1  0  0  0  0
 47 49  1  0  0  0  0
 48 46  1  0  0  0  0
 49 48  1  0  0  0  0
 50 52  2  0  0  0  0
 50 49  1  0  0  0  0
 51 48  2  0  0  0  0
 52 51  1  0  0  0  0
M  END
>  <MODEL>
9

>  <REMARK>
 VINA RESULT:      -1.4      2.173      3.205
  Name = 
  19 active torsions:
  status: ('A' for Active; 'I' for Inactive)
    1  A    between atoms: C_3  and  C_48
    2  A    between atoms: C_4  and  C_7
    3  A    between atoms: C_4  and  C_33
    4  A    between atoms: C_4  and  N_43
    5  A    between atoms: C_5  and  C_15
    6  A    between atoms: C_5  and  C_25
    7  A    between atoms: C_8  and  C_28
    8  A    between atoms: C_8  and  C_45
    9  A    between atoms: O_12  and  C_17
   10  A    between atoms: C_15  and  C_17
   11  A    between atoms: C_15  and  C_45
   12  A    between atoms: C_17  and  C_33
   13  A    between atoms: C_18  and  C_30
   14  A    between atoms: C_18  and  C_38
   15  A    between atoms: C_23  and  C_38
   16  A    between atoms: C_28  and  C_47
   17  A    between atoms: C_29  and  C_30
   18  A    between atoms: N_31  and  C_36
   19  A    between atoms: C_40  and  C_51
                            x       y       z     vdW  Elec       q    Type
                         _______ _______ _______ _____ _____    ______ ____

>  <TORSDO>
F 19

$$$$
