=
 OpenBabel11072409473D

 49 51  0  0  1  0  0  0  0  0999 V2000
  161.2990  206.7250  150.1100 C   0  0  1  0  0  3  0  0  0  0  0  0
  160.1770  205.8020  148.2250 O   0  0  0  0  0  0  0  0  0  0  0  0
  160.9300  205.5860  149.2100 C   0  0  0  0  0  0  0  0  0  0  0  0
  161.4080  204.2970  149.4870 O   0  0  0  0  0  0  0  0  0  0  0  0
  160.5950  203.1240  149.5060 C   0  0  1  0  0  3  0  0  0  0  0  0
  161.2860  201.9750  148.7770 C   0  0  0  0  0  2  0  0  0  0  0  0
  160.4350  201.4800  147.6240 C   0  0  0  0  0  2  0  0  0  0  0  0
  161.1170  201.6790  146.3920 O   0  0  0  0  0  0  0  0  0  0  0  0
  162.9090  204.8060  146.1720 C   0  0  0  0  0  3  0  0  0  0  0  0
  160.9930  205.9430  144.9090 C   0  0  0  0  0  2  0  0  0  0  0  0
  161.2020  202.9400  145.8050 C   0  0  0  0  0  0  0  0  0  0  0  0
  160.5720  204.7350  144.0420 C   0  0  0  0  0  2  0  0  0  0  0  0
  162.1650  203.7500  146.1090 C   0  0  0  0  0  0  0  0  0  0  0  0
  162.5010  205.9450  145.2720 C   0  0  0  0  0  2  0  0  0  0  0  0
  160.1570  203.4660  144.8430 C   0  0  0  0  0  2  0  0  0  0  0  0
  160.2350  202.7480  150.9430 C   0  0  0  0  0  2  0  0  0  0  0  0
  161.3760  203.0390  151.9040 C   0  0  0  0  0  2  0  0  0  0  0  0
  162.2630  201.9590  151.9400 O   0  0  0  0  0  1  0  0  0  0  0  0
  161.7600  206.2370  151.4830 C   0  0  0  0  0  2  0  0  0  0  0  0
  160.7690  206.5220  152.6040 C   0  0  0  0  0  2  0  0  0  0  0  0
  161.4480  207.2210  153.7760 C   0  0  0  0  0  2  0  0  0  0  0  0
  161.3900  209.1730  155.4100 C   0  0  2  0  0  3  0  0  0  0  0  0
  158.8360  212.7400  153.9390 C   0  0  0  0  0  2  0  0  0  0  0  0
  158.0660  213.8590  156.6720 O   0  0  0  0  0  0  0  0  0  0  0  0
  158.7900  211.3490  157.2610 C   0  0  0  0  0  2  0  0  0  0  0  0
  160.8850  211.6500  155.0030 C   0  0  0  0  0  2  0  0  0  0  0  0
  159.9830  211.7420  153.7620 C   0  0  1  0  0  3  0  0  0  0  0  0
  156.2900  212.2130  156.9660 O   0  0  0  0  0  0  0  0  0  0  0  0
  159.5280  210.4180  153.1390 C   0  0  0  0  0  2  0  0  0  0  0  0
  160.6840  209.4500  152.9740 C   0  0  0  0  0  2  0  0  0  0  0  0
  160.6810  210.4340  155.9150 C   0  0  1  0  0  3  0  0  0  0  0  0
  160.7430  208.5160  154.1760 C   0  0  1  0  0  3  0  0  0  0  0  0
  159.2400  210.2070  156.3660 C   0  0  0  0  0  2  0  0  0  0  0  0
  157.6160  212.1520  154.6480 C   0  0  0  0  0  2  0  0  0  0  0  0
  161.4820  208.2450  156.4560 O   0  0  0  0  0  1  0  0  0  0  0  0
  157.6650  212.4360  156.4120 S   0  0  0  0  0  0  0  0  0  0  0  0
  162.2730  207.5690  149.4990 O   0  0  0  0  0  0  0  0  0  0  0  0
  161.9050  209.7740  148.4840 N   0  0  0  0  0  2  0  0  0  0  0  0
  162.1860  211.8740  149.4790 O   0  0  0  0  0  0  0  0  0  0  0  0
  161.9040  211.2050  148.4460 C   0  0  0  0  0  0  0  0  0  0  0  0
  162.2250  208.9610  149.6210 C   0  0  0  0  0  0  0  0  0  0  0  0
  162.4730  209.4880  150.7370 O   0  0  0  0  0  0  0  0  0  0  0  0
  161.6070  211.8460  147.2370 O   0  0  0  0  0  0  0  0  0  0  0  0
  161.9970  214.2350  147.2180 C   0  0  0  0  0  1  0  0  0  0  0  0
  160.0060  213.2710  148.2920 C   0  0  0  0  0  1  0  0  0  0  0  0
  160.9660  213.1200  147.1250 C   0  0  0  0  0  0  0  0  0  0  0  0
  161.0990  213.0700  144.6600 N   0  0  0  0  0  1  0  0  0  0  0  0
  159.1840  212.2640  145.7190 O   0  0  0  0  0  1  0  0  0  0  0  0
  160.2010  213.2210  145.7940 C   0  0  1  0  0  3  0  0  0  0  0  0
  1 19  1  1  0  0  0
  2  3  2  0  0  0  0
  3  4  1  0  0  0  0
  3  1  1  0  0  0  0
  4  5  1  0  0  0  0
  5  6  1  1  0  0  0
  5 16  1  0  0  0  0
  7  6  1  0  0  0  0
  8  7  1  0  0  0  0
 10 14  1  0  0  0  0
 11 13  2  0  0  0  0
 11  8  1  0  0  0  0
 12 15  1  0  0  0  0
 12 10  1  0  0  0  0
 13  9  2  0  0  0  0
 14  9  1  0  0  0  0
 15 11  1  0  0  0  0
 16 17  1  0  0  0  0
 17 18  1  0  0  0  0
 19 20  1  0  0  0  0
 20 21  1  0  0  0  0
 22 31  1  0  0  0  0
 22 35  1  1  0  0  0
 23 34  1  0  0  0  0
 27 29  1  1  0  0  0
 27 23  1  0  0  0  0
 27 26  1  0  0  0  0
 30 29  1  0  0  0  0
 30 32  1  0  0  0  0
 31 26  1  6  0  0  0
 31 33  1  0  0  0  0
 32 21  1  6  0  0  0
 32 22  1  0  0  0  0
 33 25  1  0  0  0  0
 34 36  1  0  0  0  0
 36 24  2  0  0  0  0
 36 28  2  0  0  0  0
 36 25  1  0  0  0  0
 37 41  1  0  0  0  0
 37  1  1  0  0  0  0
 38 41  1  0  0  0  0
 40 38  1  0  0  0  0
 40 39  2  0  0  0  0
 41 42  2  0  0  0  0
 43 40  1  0  0  0  0
 46 44  1  0  0  0  0
 46 43  1  0  0  0  0
 46 45  1  0  0  0  0
 48 49  1  0  0  0  0
 49 47  1  6  0  0  0
 49 46  1  0  0  0  0
M  END
>  <MODEL>
1

>  <REMARK>
 VINA RESULT:      -7.1      0.000      0.000
  Name = 
  18 active torsions:
  status: ('A' for Active; 'I' for Inactive)
    1  A    between atoms: C_4  and  O_42
    2  A    between atoms: C_13  and  O_35
    3  A    between atoms: C_15  and  O_42
    4  A    between atoms: C_15  and  C_49
    5  A    between atoms: C_16  and  O_25
    6  A    between atoms: C_16  and  C_45
    7  A    between atoms: C_16  and  C_48
    8  A    between atoms: C_22  and  C_32
    9  A    between atoms: O_25  and  C_30
   10  A    between atoms: C_28  and  C_36
   11  A    between atoms: C_28  and  C_44
   12  A    between atoms: C_29  and  C_32
   13  A    between atoms: C_29  and  O_39
   14  A    between atoms: C_29  and  C_49
   15  A    between atoms: C_34  and  C_46
   16  A    between atoms: O_35  and  C_46
   17  A    between atoms: O_39  and  C_45
   18  A    between atoms: C_44  and  C_48
                            x       y       z     vdW  Elec       q    Type
                         _______ _______ _______ _____ _____    ______ ____

>  <TORSDO>
F 18

$$$$
=
 OpenBabel11072409473D

 49 51  0  0  1  0  0  0  0  0999 V2000
  161.9830  208.8060  149.4870 C   0  0  1  0  0  3  0  0  0  0  0  0
  160.4440  206.9990  149.3120 O   0  0  0  0  0  0  0  0  0  0  0  0
  161.5300  207.4990  148.9140 C   0  0  0  0  0  0  0  0  0  0  0  0
  162.3250  206.8410  147.9660 O   0  0  0  0  0  0  0  0  0  0  0  0
  161.9380  206.6140  146.6100 C   0  0  1  0  0  3  0  0  0  0  0  0
  162.7410  205.4660  146.0040 C   0  0  0  0  0  2  0  0  0  0  0  0
  162.8300  204.3010  146.9690 C   0  0  0  0  0  2  0  0  0  0  0  0
  161.5260  203.8290  147.2860 O   0  0  0  0  0  0  0  0  0  0  0  0
  161.1970  204.1420  150.8680 C   0  0  0  0  0  3  0  0  0  0  0  0
  161.2470  201.6050  151.2070 C   0  0  0  0  0  2  0  0  0  0  0  0
  161.2600  203.1920  148.4970 C   0  0  0  0  0  0  0  0  0  0  0  0
  160.4310  201.2140  149.9550 C   0  0  0  0  0  2  0  0  0  0  0  0
  161.2540  203.8560  149.6080 C   0  0  0  0  0  0  0  0  0  0  0  0
  160.8620  202.9930  151.7840 C   0  0  0  0  0  2  0  0  0  0  0  0
  161.0310  201.6980  148.6030 C   0  0  0  0  0  2  0  0  0  0  0  0
  160.4340  206.3620  146.5200 C   0  0  0  0  0  2  0  0  0  0  0  0
  160.0320  205.8340  145.1520 C   0  0  0  0  0  2  0  0  0  0  0  0
  160.8350  206.4060  144.1600 O   0  0  0  0  0  1  0  0  0  0  0  0
  161.9840  209.9160  148.4350 C   0  0  0  0  0  2  0  0  0  0  0  0
  162.3180  211.2940  148.9920 C   0  0  0  0  0  2  0  0  0  0  0  0
  161.3000  212.3330  148.5400 C   0  0  0  0  0  2  0  0  0  0  0  0
  159.9940  213.1740  146.5220 C   0  0  2  0  0  3  0  0  0  0  0  0
  162.6180  213.8340  142.7670 C   0  0  0  0  0  2  0  0  0  0  0  0
  160.4550  213.3850  140.6620 O   0  0  0  0  0  0  0  0  0  0  0  0
  159.4010  212.2160  142.8280 C   0  0  0  0  0  2  0  0  0  0  0  0
  160.7990  214.4480  144.4510 C   0  0  0  0  0  2  0  0  0  0  0  0
  162.2810  214.0980  144.2370 C   0  0  1  0  0  3  0  0  0  0  0  0
  160.6390  210.9590  140.8340 O   0  0  0  0  0  0  0  0  0  0  0  0
  162.8870  213.0550  145.1820 C   0  0  0  0  0  2  0  0  0  0  0  0
  162.5380  213.3400  146.6300 C   0  0  0  0  0  2  0  0  0  0  0  0
  159.9000  213.3340  145.0010 C   0  0  1  0  0  3  0  0  0  0  0  0
  161.3050  212.5390  147.0260 C   0  0  1  0  0  3  0  0  0  0  0  0
  159.9620  212.0200  144.2260 C   0  0  0  0  0  2  0  0  0  0  0  0
  162.3260  212.4030  142.3190 C   0  0  0  0  0  2  0  0  0  0  0  0
  158.8950  212.4350  146.9770 O   0  0  0  0  0  1  0  0  0  0  0  0
  160.6950  212.2440  141.6060 S   0  0  0  0  0  0  0  0  0  0  0  0
  161.2050  209.1660  150.6280 O   0  0  0  0  0  0  0  0  0  0  0  0
  160.6300  208.9760  153.0070 N   0  0  0  0  0  2  0  0  0  0  0  0
  161.5200  207.4880  154.5810 O   0  0  0  0  0  0  0  0  0  0  0  0
  160.7460  208.4550  154.3350 C   0  0  0  0  0  0  0  0  0  0  0  0
  161.3470  208.5110  151.8540 C   0  0  0  0  0  0  0  0  0  0  0  0
  162.1140  207.5160  151.9340 O   0  0  0  0  0  0  0  0  0  0  0  0
  160.0020  209.0550  155.3590 O   0  0  0  0  0  0  0  0  0  0  0  0
  161.3930  211.0360  155.3750 C   0  0  0  0  0  1  0  0  0  0  0  0
  159.7540  210.6070  157.1570 C   0  0  0  0  0  1  0  0  0  0  0  0
  160.0190  210.4510  155.6700 C   0  0  0  0  0  0  0  0  0  0  0  0
  157.6200  210.9730  155.4150 N   0  0  0  0  0  1  0  0  0  0  0  0
  159.2090  212.5690  154.8080 O   0  0  0  0  0  1  0  0  0  0  0  0
  158.9450  211.1960  154.8590 C   0  0  1  0  0  3  0  0  0  0  0  0
  1 19  1  6  0  0  0
  1 37  1  0  0  0  0
  3  2  2  0  0  0  0
  3  1  1  0  0  0  0
  4  3  1  0  0  0  0
  5  6  1  1  0  0  0
  5  4  1  0  0  0  0
  6  7  1  0  0  0  0
  7  8  1  0  0  0  0
  8 11  1  0  0  0  0
  9 14  1  0  0  0  0
 10 14  1  0  0  0  0
 11 15  1  0  0  0  0
 11 13  2  0  0  0  0
 12 10  1  0  0  0  0
 13  9  2  0  0  0  0
 15 12  1  0  0  0  0
 16  5  1  0  0  0  0
 17 16  1  0  0  0  0
 18 17  1  0  0  0  0
 19 20  1  0  0  0  0
 21 20  1  0  0  0  0
 22 35  1  6  0  0  0
 22 32  1  0  0  0  0
 24 36  2  0  0  0  0
 25 33  1  0  0  0  0
 26 31  1  0  0  0  0
 27 23  1  6  0  0  0
 27 26  1  0  0  0  0
 27 29  1  0  0  0  0
 28 36  2  0  0  0  0
 29 30  1  0  0  0  0
 30 32  1  0  0  0  0
 31 33  1  6  0  0  0
 31 22  1  0  0  0  0
 32 21  1  1  0  0  0
 34 23  1  0  0  0  0
 36 34  1  0  0  0  0
 36 25  1  0  0  0  0
 37 41  1  0  0  0  0
 38 40  1  0  0  0  0
 40 39  2  0  0  0  0
 40 43  1  0  0  0  0
 41 42  2  0  0  0  0
 41 38  1  0  0  0  0
 43 46  1  0  0  0  0
 44 46  1  0  0  0  0
 46 45  1  0  0  0  0
 49 48  1  1  0  0  0
 49 47  1  0  0  0  0
 49 46  1  0  0  0  0
M  END
>  <MODEL>
2

>  <REMARK>
 VINA RESULT:      -7.0      3.277      8.524
  Name = 
  18 active torsions:
  status: ('A' for Active; 'I' for Inactive)
    1  A    between atoms: C_4  and  O_42
    2  A    between atoms: C_13  and  O_35
    3  A    between atoms: C_15  and  O_42
    4  A    between atoms: C_15  and  C_49
    5  A    between atoms: C_16  and  O_25
    6  A    between atoms: C_16  and  C_45
    7  A    between atoms: C_16  and  C_48
    8  A    between atoms: C_22  and  C_32
    9  A    between atoms: O_25  and  C_30
   10  A    between atoms: C_28  and  C_36
   11  A    between atoms: C_28  and  C_44
   12  A    between atoms: C_29  and  C_32
   13  A    between atoms: C_29  and  O_39
   14  A    between atoms: C_29  and  C_49
   15  A    between atoms: C_34  and  C_46
   16  A    between atoms: O_35  and  C_46
   17  A    between atoms: O_39  and  C_45
   18  A    between atoms: C_44  and  C_48
                            x       y       z     vdW  Elec       q    Type
                         _______ _______ _______ _____ _____    ______ ____

>  <TORSDO>
F 18

$$$$
=
 OpenBabel11072409473D

 49 51  0  0  1  0  0  0  0  0999 V2000
  162.0570  209.6280  151.2190 C   0  0  1  0  0  3  0  0  0  0  0  0
  162.7550  207.6290  150.1310 O   0  0  0  0  0  0  0  0  0  0  0  0
  161.8760  208.1910  150.8370 C   0  0  0  0  0  0  0  0  0  0  0  0
  160.7280  207.5000  151.2480 O   0  0  0  0  0  0  0  0  0  0  0  0
  160.6830  206.0980  151.5120 C   0  0  1  0  0  3  0  0  0  0  0  0
  161.0160  205.3000  150.2540 C   0  0  0  0  0  2  0  0  0  0  0  0
  160.6540  203.8390  150.4320 C   0  0  0  0  0  2  0  0  0  0  0  0
  161.5350  203.0210  149.6720 O   0  0  0  0  0  0  0  0  0  0  0  0
  161.7520  204.4140  146.3490 C   0  0  0  0  0  3  0  0  0  0  0  0
  160.3390  202.5290  145.3450 C   0  0  0  0  0  2  0  0  0  0  0  0
  161.3440  202.8230  148.3060 C   0  0  0  0  0  0  0  0  0  0  0  0
  160.9010  201.3720  146.2020 C   0  0  0  0  0  2  0  0  0  0  0  0
  161.6320  203.7550  147.4550 C   0  0  0  0  0  0  0  0  0  0  0  0
  161.3650  203.6670  145.0980 C   0  0  0  0  0  2  0  0  0  0  0  0
  160.7370  201.5560  147.7390 C   0  0  0  0  0  2  0  0  0  0  0  0
  161.6130  205.7430  152.6700 C   0  0  0  0  0  2  0  0  0  0  0  0
  161.0100  206.1190  154.0130 C   0  0  0  0  0  2  0  0  0  0  0  0
  161.5300  207.3420  154.4500 O   0  0  0  0  0  1  0  0  0  0  0  0
  162.5520  210.4690  150.0420 C   0  0  0  0  0  2  0  0  0  0  0  0
  161.4540  210.8750  149.0690 C   0  0  0  0  0  2  0  0  0  0  0  0
  161.5870  212.3390  148.6660 C   0  0  0  0  0  2  0  0  0  0  0  0
  160.2360  213.1710  146.6750 C   0  0  2  0  0  3  0  0  0  0  0  0
  162.7720  213.8020  142.8550 C   0  0  0  0  0  2  0  0  0  0  0  0
  160.5590  213.3450  140.8040 O   0  0  0  0  0  0  0  0  0  0  0  0
  159.5540  212.1910  143.0010 C   0  0  0  0  0  2  0  0  0  0  0  0
  160.9940  214.4300  144.5770 C   0  0  0  0  0  2  0  0  0  0  0  0
  162.4700  214.0750  144.3310 C   0  0  1  0  0  3  0  0  0  0  0  0
  160.7420  210.9190  140.9870 O   0  0  0  0  0  0  0  0  0  0  0  0
  163.0960  213.0370  145.2680 C   0  0  0  0  0  2  0  0  0  0  0  0
  162.7820  213.3320  146.7210 C   0  0  0  0  0  2  0  0  0  0  0  0
  160.1060  213.3220  145.1550 C   0  0  1  0  0  3  0  0  0  0  0  0
  161.5560  212.5360  147.1520 C   0  0  1  0  0  3  0  0  0  0  0  0
  160.1470  212.0030  144.3870 C   0  0  0  0  0  2  0  0  0  0  0  0
  162.4670  212.3690  142.4220 C   0  0  0  0  0  2  0  0  0  0  0  0
  159.1460  212.4370  147.1600 O   0  0  0  0  0  1  0  0  0  0  0  0
  160.8190  212.2090  141.7490 S   0  0  0  0  0  0  0  0  0  0  0  0
  160.8620  210.1650  151.7820 O   0  0  0  0  0  0  0  0  0  0  0  0
  159.8370  211.7140  153.3880 N   0  0  0  0  0  2  0  0  0  0  0  0
  160.5910  212.2550  155.5370 O   0  0  0  0  0  0  0  0  0  0  0  0
  159.7490  212.4450  154.6150 C   0  0  0  0  0  0  0  0  0  0  0  0
  160.8410  210.7450  153.0540 C   0  0  0  0  0  0  0  0  0  0  0  0
  161.7140  210.4110  153.8960 O   0  0  0  0  0  0  0  0  0  0  0  0
  158.7260  213.3900  154.7640 O   0  0  0  0  0  0  0  0  0  0  0  0
  156.7770  214.4380  155.7450 C   0  0  0  0  0  1  0  0  0  0  0  0
  157.6920  212.3390  156.6430 C   0  0  0  0  0  1  0  0  0  0  0  0
  157.4560  213.1290  155.3670 C   0  0  0  0  0  0  0  0  0  0  0  0
  156.0790  211.1080  155.0330 N   0  0  0  0  0  1  0  0  0  0  0  0
  155.4690  213.0960  153.9760 O   0  0  0  0  0  1  0  0  0  0  0  0
  156.5580  212.3300  154.4080 C   0  0  1  0  0  3  0  0  0  0  0  0
  1 19  1  6  0  0  0
  1 37  1  0  0  0  0
  2  3  2  0  0  0  0
  3  1  1  0  0  0  0
  3  4  1  0  0  0  0
  4  5  1  0  0  0  0
  5  6  1  6  0  0  0
  5 16  1  0  0  0  0
  6  7  1  0  0  0  0
  8  7  1  0  0  0  0
  9 13  2  0  0  0  0
 10 12  1  0  0  0  0
 11  8  1  0  0  0  0
 12 15  1  0  0  0  0
 13 11  2  0  0  0  0
 14 10  1  0  0  0  0
 14  9  1  0  0  0  0
 15 11  1  0  0  0  0
 16 17  1  0  0  0  0
 17 18  1  0  0  0  0
 20 19  1  0  0  0  0
 21 20  1  0  0  0  0
 22 32  1  0  0  0  0
 22 35  1  6  0  0  0
 24 36  2  0  0  0  0
 25 33  1  0  0  0  0
 26 31  1  0  0  0  0
 27 23  1  6  0  0  0
 27 26  1  0  0  0  0
 27 29  1  0  0  0  0
 28 36  2  0  0  0  0
 29 30  1  0  0  0  0
 30 32  1  0  0  0  0
 31 33  1  6  0  0  0
 31 22  1  0  0  0  0
 32 21  1  1  0  0  0
 34 23  1  0  0  0  0
 36 34  1  0  0  0  0
 36 25  1  0  0  0  0
 37 41  1  0  0  0  0
 38 40  1  0  0  0  0
 40 43  1  0  0  0  0
 40 39  2  0  0  0  0
 41 38  1  0  0  0  0
 41 42  2  0  0  0  0
 43 46  1  0  0  0  0
 46 44  1  0  0  0  0
 46 45  1  0  0  0  0
 49 48  1  1  0  0  0
 49 47  1  0  0  0  0
 49 46  1  0  0  0  0
M  END
>  <MODEL>
3

>  <REMARK>
 VINA RESULT:      -6.5      3.356      8.195
  Name = 
  18 active torsions:
  status: ('A' for Active; 'I' for Inactive)
    1  A    between atoms: C_4  and  O_42
    2  A    between atoms: C_13  and  O_35
    3  A    between atoms: C_15  and  O_42
    4  A    between atoms: C_15  and  C_49
    5  A    between atoms: C_16  and  O_25
    6  A    between atoms: C_16  and  C_45
    7  A    between atoms: C_16  and  C_48
    8  A    between atoms: C_22  and  C_32
    9  A    between atoms: O_25  and  C_30
   10  A    between atoms: C_28  and  C_36
   11  A    between atoms: C_28  and  C_44
   12  A    between atoms: C_29  and  C_32
   13  A    between atoms: C_29  and  O_39
   14  A    between atoms: C_29  and  C_49
   15  A    between atoms: C_34  and  C_46
   16  A    between atoms: O_35  and  C_46
   17  A    between atoms: O_39  and  C_45
   18  A    between atoms: C_44  and  C_48
                            x       y       z     vdW  Elec       q    Type
                         _______ _______ _______ _____ _____    ______ ____

>  <TORSDO>
F 18

$$$$
=
 OpenBabel11072409473D

 49 51  0  0  1  0  0  0  0  0999 V2000
  162.1240  209.3950  150.9270 C   0  0  1  0  0  3  0  0  0  0  0  0
  163.3700  207.7420  149.7510 O   0  0  0  0  0  0  0  0  0  0  0  0
  162.2350  208.2380  149.9830 C   0  0  0  0  0  0  0  0  0  0  0  0
  161.0850  207.7370  149.3560 O   0  0  0  0  0  0  0  0  0  0  0  0
  160.9420  206.3960  148.8890 C   0  0  1  0  0  3  0  0  0  0  0  0
  160.3540  205.5040  149.9790 C   0  0  0  0  0  2  0  0  0  0  0  0
  161.3070  204.3770  150.3250 C   0  0  0  0  0  2  0  0  0  0  0  0
  160.6540  203.1220  150.1840 O   0  0  0  0  0  0  0  0  0  0  0  0
  160.8880  202.8640  146.5910 C   0  0  0  0  0  3  0  0  0  0  0  0
  160.8310  200.3050  146.6590 C   0  0  0  0  0  2  0  0  0  0  0  0
  160.8890  202.3010  149.0830 C   0  0  0  0  0  0  0  0  0  0  0  0
  161.6800  200.1140  147.9350 C   0  0  0  0  0  2  0  0  0  0  0  0
  160.8640  202.7810  147.8810 C   0  0  0  0  0  0  0  0  0  0  0  0
  161.1990  201.5830  145.8600 C   0  0  0  0  0  2  0  0  0  0  0  0
  161.1150  200.8090  149.2090 C   0  0  0  0  0  2  0  0  0  0  0  0
  160.1010  206.3620  147.6150 C   0  0  0  0  0  2  0  0  0  0  0  0
  160.9520  206.1030  146.3830 C   0  0  0  0  0  2  0  0  0  0  0  0
  160.2730  206.5150  145.2320 O   0  0  0  0  0  1  0  0  0  0  0  0
  162.3950  210.7270  150.2270 C   0  0  0  0  0  2  0  0  0  0  0  0
  161.6770  210.8790  148.8920 C   0  0  0  0  0  2  0  0  0  0  0  0
  161.5440  212.3460  148.5020 C   0  0  0  0  0  2  0  0  0  0  0  0
  160.1780  213.1840  146.5230 C   0  0  2  0  0  3  0  0  0  0  0  0
  162.6860  213.8330  142.6880 C   0  0  0  0  0  2  0  0  0  0  0  0
  160.4590  213.3820  140.6510 O   0  0  0  0  0  0  0  0  0  0  0  0
  159.4710  212.2190  142.8510 C   0  0  0  0  0  2  0  0  0  0  0  0
  160.9200  214.4530  144.4260 C   0  0  0  0  0  2  0  0  0  0  0  0
  162.3940  214.1000  144.1670 C   0  0  1  0  0  3  0  0  0  0  0  0
  160.6450  210.9560  140.8230 O   0  0  0  0  0  0  0  0  0  0  0  0
  163.0280  213.0590  145.0950 C   0  0  0  0  0  2  0  0  0  0  0  0
  162.7240  213.3480  146.5520 C   0  0  0  0  0  2  0  0  0  0  0  0
  160.0370  213.3410  145.0050 C   0  0  1  0  0  3  0  0  0  0  0  0
  161.5020  212.5490  146.9880 C   0  0  1  0  0  3  0  0  0  0  0  0
  160.0740  212.0250  144.2310 C   0  0  0  0  0  2  0  0  0  0  0  0
  162.3790  212.4010  142.2520 C   0  0  0  0  0  2  0  0  0  0  0  0
  159.0920  212.4470  147.0140 O   0  0  0  0  0  1  0  0  0  0  0  0
  160.7260  212.2420  141.5890 S   0  0  0  0  0  0  0  0  0  0  0  0
  160.8610  209.3990  151.5900 O   0  0  0  0  0  0  0  0  0  0  0  0
  160.2440  210.9160  153.4190 N   0  0  0  0  0  2  0  0  0  0  0  0
  160.5200  210.5740  155.7190 O   0  0  0  0  0  0  0  0  0  0  0  0
  160.1540  211.3400  154.7840 C   0  0  0  0  0  0  0  0  0  0  0  0
  160.7470  209.6530  152.9600 C   0  0  0  0  0  0  0  0  0  0  0  0
  161.0960  208.7660  153.7810 O   0  0  0  0  0  0  0  0  0  0  0  0
  159.6760  212.6270  155.0580 O   0  0  0  0  0  0  0  0  0  0  0  0
  157.9690  213.8080  156.3030 C   0  0  0  0  0  1  0  0  0  0  0  0
  157.4600  211.7350  155.0830 C   0  0  0  0  0  1  0  0  0  0  0  0
  158.2960  213.0030  155.0540 C   0  0  0  0  0  0  0  0  0  0  0  0
  158.8510  213.4800  152.6960 N   0  0  0  0  0  1  0  0  0  0  0  0
  156.6350  213.6430  153.4050 O   0  0  0  0  0  1  0  0  0  0  0  0
  157.9660  213.8260  153.7970 C   0  0  1  0  0  3  0  0  0  0  0  0
  1 19  1  6  0  0  0
  1 37  1  0  0  0  0
  2  3  2  0  0  0  0
  3  1  1  0  0  0  0
  4  3  1  0  0  0  0
  5 16  1  6  0  0  0
  5  4  1  0  0  0  0
  5  6  1  0  0  0  0
  6  7  1  0  0  0  0
  8  7  1  0  0  0  0
  9 13  2  0  0  0  0
 10 12  1  0  0  0  0
 11 15  1  0  0  0  0
 11  8  1  0  0  0  0
 12 15  1  0  0  0  0
 13 11  2  0  0  0  0
 14  9  1  0  0  0  0
 14 10  1  0  0  0  0
 17 16  1  0  0  0  0
 18 17  1  0  0  0  0
 20 19  1  0  0  0  0
 21 20  1  0  0  0  0
 22 32  1  0  0  0  0
 22 35  1  6  0  0  0
 24 36  2  0  0  0  0
 25 33  1  0  0  0  0
 26 31  1  0  0  0  0
 27 23  1  6  0  0  0
 27 26  1  0  0  0  0
 27 29  1  0  0  0  0
 28 36  2  0  0  0  0
 29 30  1  0  0  0  0
 30 32  1  0  0  0  0
 31 33  1  6  0  0  0
 31 22  1  0  0  0  0
 32 21  1  1  0  0  0
 34 23  1  0  0  0  0
 36 34  1  0  0  0  0
 36 25  1  0  0  0  0
 37 41  1  0  0  0  0
 38 40  1  0  0  0  0
 40 43  1  0  0  0  0
 40 39  2  0  0  0  0
 41 38  1  0  0  0  0
 41 42  2  0  0  0  0
 46 43  1  0  0  0  0
 46 45  1  0  0  0  0
 46 44  1  0  0  0  0
 48 49  1  0  0  0  0
 49 47  1  6  0  0  0
 49 46  1  0  0  0  0
M  END
>  <MODEL>
4

>  <REMARK>
 VINA RESULT:      -5.9      3.257      8.288
  Name = 
  18 active torsions:
  status: ('A' for Active; 'I' for Inactive)
    1  A    between atoms: C_4  and  O_42
    2  A    between atoms: C_13  and  O_35
    3  A    between atoms: C_15  and  O_42
    4  A    between atoms: C_15  and  C_49
    5  A    between atoms: C_16  and  O_25
    6  A    between atoms: C_16  and  C_45
    7  A    between atoms: C_16  and  C_48
    8  A    between atoms: C_22  and  C_32
    9  A    between atoms: O_25  and  C_30
   10  A    between atoms: C_28  and  C_36
   11  A    between atoms: C_28  and  C_44
   12  A    between atoms: C_29  and  C_32
   13  A    between atoms: C_29  and  O_39
   14  A    between atoms: C_29  and  C_49
   15  A    between atoms: C_34  and  C_46
   16  A    between atoms: O_35  and  C_46
   17  A    between atoms: O_39  and  C_45
   18  A    between atoms: C_44  and  C_48
                            x       y       z     vdW  Elec       q    Type
                         _______ _______ _______ _____ _____    ______ ____

>  <TORSDO>
F 18

$$$$
=
 OpenBabel11072409473D

 49 51  0  0  1  0  0  0  0  0999 V2000
  161.5930  209.0560  150.9460 C   0  0  1  0  0  3  0  0  0  0  0  0
  163.3350  210.2740  152.0170 O   0  0  0  0  0  0  0  0  0  0  0  0
  162.1420  209.8750  152.0740 C   0  0  0  0  0  0  0  0  0  0  0  0
  161.3330  210.1660  153.1810 O   0  0  0  0  0  0  0  0  0  0  0  0
  161.1530  209.2950  154.2980 C   0  0  1  0  0  3  0  0  0  0  0  0
  160.5370  210.0450  155.4750 C   0  0  0  0  0  2  0  0  0  0  0  0
  161.2550  211.3590  155.7120 C   0  0  0  0  0  2  0  0  0  0  0  0
  160.3170  212.3780  156.0380 O   0  0  0  0  0  0  0  0  0  0  0  0
  158.5490  213.6830  153.1730 C   0  0  0  0  0  3  0  0  0  0  0  0
  156.2640  213.2020  154.2240 C   0  0  0  0  0  2  0  0  0  0  0  0
  159.1020  212.4890  155.3630 C   0  0  0  0  0  0  0  0  0  0  0  0
  156.6280  211.8630  154.9050 C   0  0  0  0  0  2  0  0  0  0  0  0
  159.0250  213.1270  154.2400 C   0  0  0  0  0  0  0  0  0  0  0  0
  157.0760  213.4760  152.9310 C   0  0  0  0  0  2  0  0  0  0  0  0
  157.8050  211.9430  155.9210 C   0  0  0  0  0  2  0  0  0  0  0  0
  160.3140  208.0830  153.8980 C   0  0  0  0  0  2  0  0  0  0  0  0
  160.7570  206.8250  154.6260 C   0  0  0  0  0  2  0  0  0  0  0  0
  160.4600  206.9270  155.9890 O   0  0  0  0  0  1  0  0  0  0  0  0
  161.1660  209.9300  149.7660 C   0  0  0  0  0  2  0  0  0  0  0  0
  162.3140  210.6930  149.1170 C   0  0  0  0  0  2  0  0  0  0  0  0
  161.9180  212.1340  148.8180 C   0  0  0  0  0  2  0  0  0  0  0  0
  160.4600  213.1130  146.9740 C   0  0  2  0  0  3  0  0  0  0  0  0
  162.7340  213.8380  143.0090 C   0  0  0  0  0  2  0  0  0  0  0  0
  160.3600  213.5660  141.1100 O   0  0  0  0  0  0  0  0  0  0  0  0
  159.4720  212.3430  143.3200 C   0  0  0  0  0  2  0  0  0  0  0  0
  161.1140  214.4460  144.8870 C   0  0  0  0  0  2  0  0  0  0  0  0
  162.5520  214.0490  144.5140 C   0  0  1  0  0  3  0  0  0  0  0  0
  160.4570  211.1290  141.1650 O   0  0  0  0  0  0  0  0  0  0  0  0
  163.2020  212.9430  145.3520 C   0  0  0  0  0  2  0  0  0  0  0  0
  163.0070  213.1770  146.8370 C   0  0  0  0  0  2  0  0  0  0  0  0
  160.2260  213.3440  145.4770 C   0  0  1  0  0  3  0  0  0  0  0  0
  161.7850  212.4070  147.3200 C   0  0  1  0  0  3  0  0  0  0  0  0
  160.1570  212.0640  144.6470 C   0  0  0  0  0  2  0  0  0  0  0  0
  162.3400  212.4400  142.5340 C   0  0  0  0  0  2  0  0  0  0  0  0
  159.3800  212.3970  147.5050 O   0  0  0  0  0  1  0  0  0  0  0  0
  160.6420  212.3750  141.9790 S   0  0  0  0  0  0  0  0  0  0  0  0
  162.5180  208.0480  150.5440 O   0  0  0  0  0  0  0  0  0  0  0  0
  161.7300  206.2010  149.1320 N   0  0  0  0  0  2  0  0  0  0  0  0
  161.1470  204.0340  149.8010 O   0  0  0  0  0  0  0  0  0  0  0  0
  161.2390  204.8820  148.8700 C   0  0  0  0  0  0  0  0  0  0  0  0
  162.1390  206.7090  150.4100 C   0  0  0  0  0  0  0  0  0  0  0  0
  162.1560  205.9610  151.4220 O   0  0  0  0  0  0  0  0  0  0  0  0
  160.8400  204.5600  147.5670 O   0  0  0  0  0  0  0  0  0  0  0  0
  161.5530  203.3590  145.5890 C   0  0  0  0  0  1  0  0  0  0  0  0
  163.1230  204.7360  146.8870 C   0  0  0  0  0  1  0  0  0  0  0  0
  161.6840  204.6320  146.4140 C   0  0  0  0  0  0  0  0  0  0  0  0
  161.0700  205.4700  144.1750 N   0  0  0  0  0  1  0  0  0  0  0  0
  160.1990  206.5180  146.0680 O   0  0  0  0  0  1  0  0  0  0  0  0
  161.3190  205.8540  145.5550 C   0  0  1  0  0  3  0  0  0  0  0  0
  1 19  1  6  0  0  0
  1  3  1  0  0  0  0
  2  3  2  0  0  0  0
  3  4  1  0  0  0  0
  4  5  1  0  0  0  0
  5 16  1  6  0  0  0
  5  6  1  0  0  0  0
  6  7  1  0  0  0  0
  7  8  1  0  0  0  0
  9 13  2  0  0  0  0
 10 12  1  0  0  0  0
 11 15  1  0  0  0  0
 11  8  1  0  0  0  0
 12 15  1  0  0  0  0
 13 11  2  0  0  0  0
 14  9  1  0  0  0  0
 14 10  1  0  0  0  0
 16 17  1  0  0  0  0
 17 18  1  0  0  0  0
 20 19  1  0  0  0  0
 21 20  1  0  0  0  0
 22 32  1  0  0  0  0
 22 35  1  6  0  0  0
 24 36  2  0  0  0  0
 25 33  1  0  0  0  0
 26 31  1  0  0  0  0
 27 23  1  6  0  0  0
 27 26  1  0  0  0  0
 27 29  1  0  0  0  0
 28 36  2  0  0  0  0
 29 30  1  0  0  0  0
 30 32  1  0  0  0  0
 31 33  1  6  0  0  0
 31 22  1  0  0  0  0
 32 21  1  1  0  0  0
 34 23  1  0  0  0  0
 36 34  1  0  0  0  0
 36 25  1  0  0  0  0
 37  1  1  0  0  0  0
 38 41  1  0  0  0  0
 40 38  1  0  0  0  0
 40 39  2  0  0  0  0
 41 37  1  0  0  0  0
 41 42  2  0  0  0  0
 43 40  1  0  0  0  0
 44 46  1  0  0  0  0
 46 45  1  0  0  0  0
 46 43  1  0  0  0  0
 49 47  1  6  0  0  0
 49 48  1  0  0  0  0
 49 46  1  0  0  0  0
M  END
>  <MODEL>
5

>  <REMARK>
 VINA RESULT:      -5.5      3.036      9.865
  Name = 
  18 active torsions:
  status: ('A' for Active; 'I' for Inactive)
    1  A    between atoms: C_4  and  O_42
    2  A    between atoms: C_13  and  O_35
    3  A    between atoms: C_15  and  O_42
    4  A    between atoms: C_15  and  C_49
    5  A    between atoms: C_16  and  O_25
    6  A    between atoms: C_16  and  C_45
    7  A    between atoms: C_16  and  C_48
    8  A    between atoms: C_22  and  C_32
    9  A    between atoms: O_25  and  C_30
   10  A    between atoms: C_28  and  C_36
   11  A    between atoms: C_28  and  C_44
   12  A    between atoms: C_29  and  C_32
   13  A    between atoms: C_29  and  O_39
   14  A    between atoms: C_29  and  C_49
   15  A    between atoms: C_34  and  C_46
   16  A    between atoms: O_35  and  C_46
   17  A    between atoms: O_39  and  C_45
   18  A    between atoms: C_44  and  C_48
                            x       y       z     vdW  Elec       q    Type
                         _______ _______ _______ _____ _____    ______ ____

>  <TORSDO>
F 18

$$$$
=
 OpenBabel11072409473D

 49 51  0  0  1  0  0  0  0  0999 V2000
  161.7610  210.5260  149.4450 C   0  0  1  0  0  3  0  0  0  0  0  0
  163.1120  212.2480  148.5100 O   0  0  0  0  0  0  0  0  0  0  0  0
  161.9450  211.8210  148.7150 C   0  0  0  0  0  0  0  0  0  0  0  0
  160.8230  212.5460  148.2910 O   0  0  0  0  0  0  0  0  0  0  0  0
  160.8360  213.4980  147.2270 C   0  0  1  0  0  3  0  0  0  0  0  0
  161.2520  212.8390  145.9150 C   0  0  0  0  0  2  0  0  0  0  0  0
  160.3470  213.2780  144.7810 C   0  0  0  0  0  2  0  0  0  0  0  0
  160.0970  212.1860  143.9040 O   0  0  0  0  0  0  0  0  0  0  0  0
  159.4740  211.8600  140.3630 C   0  0  0  0  0  3  0  0  0  0  0  0
  161.9530  211.4780  139.8480 C   0  0  0  0  0  2  0  0  0  0  0  0
  160.6370  212.1490  142.6190 C   0  0  0  0  0  0  0  0  0  0  0  0
  162.5330  212.4710  140.8800 C   0  0  0  0  0  2  0  0  0  0  0  0
  159.8730  212.0130  141.5840 C   0  0  0  0  0  0  0  0  0  0  0  0
  160.5560  211.8900  139.3140 C   0  0  0  0  0  2  0  0  0  0  0  0
  162.1280  212.1940  142.3570 C   0  0  0  0  0  2  0  0  0  0  0  0
  159.4750  214.1830  147.1090 C   0  0  0  0  0  2  0  0  0  0  0  0
  158.4060  213.4550  147.9070 C   0  0  0  0  0  2  0  0  0  0  0  0
  157.8230  212.4510  147.1270 O   0  0  0  0  0  1  0  0  0  0  0  0
  162.3220  209.3440  148.6540 C   0  0  0  0  0  2  0  0  0  0  0  0
  162.2240  208.0110  149.3840 C   0  0  0  0  0  2  0  0  0  0  0  0
  160.8270  207.4150  149.2590 C   0  0  0  0  0  2  0  0  0  0  0  0
  161.9840  205.7570  147.7110 C   0  0  2  0  0  3  0  0  0  0  0  0
  160.8800  201.3460  148.5690 C   0  0  0  0  0  2  0  0  0  0  0  0
  161.3310  200.2470  145.7580 O   0  0  0  0  0  0  0  0  0  0  0  0
  161.0600  202.8740  145.3130 C   0  0  0  0  0  2  0  0  0  0  0  0
  162.4770  203.2650  148.0350 C   0  0  0  0  0  2  0  0  0  0  0  0
  161.4260  202.7070  149.0090 C   0  0  1  0  0  3  0  0  0  0  0  0
  159.1580  201.0410  144.9830 O   0  0  0  0  0  0  0  0  0  0  0  0
  160.3250  203.6710  149.4630 C   0  0  0  0  0  2  0  0  0  0  0  0
  160.8940  205.0090  149.8930 C   0  0  0  0  0  2  0  0  0  0  0  0
  162.0110  204.3640  147.0730 C   0  0  1  0  0  3  0  0  0  0  0  0
  160.8450  205.9840  148.7240 C   0  0  1  0  0  3  0  0  0  0  0  0
  160.7620  204.0190  146.2650 C   0  0  0  0  0  2  0  0  0  0  0  0
  159.7370  201.4410  147.5600 C   0  0  0  0  0  2  0  0  0  0  0  0
  161.9300  206.7260  146.7010 O   0  0  0  0  0  1  0  0  0  0  0  0
  160.3230  201.3530  145.8740 S   0  0  0  0  0  0  0  0  0  0  0  0
  162.3190  210.5910  150.7570 O   0  0  0  0  0  0  0  0  0  0  0  0
  160.3090  210.9950  152.1070 N   0  0  0  0  0  2  0  0  0  0  0  0
  159.8000  210.1160  154.2160 O   0  0  0  0  0  0  0  0  0  0  0  0
  159.4740  210.8780  153.2640 C   0  0  0  0  0  0  0  0  0  0  0  0
  161.5580  210.3200  151.8970 C   0  0  0  0  0  0  0  0  0  0  0  0
  161.9840  209.4850  152.7360 O   0  0  0  0  0  0  0  0  0  0  0  0
  158.3030  211.6430  153.3280 O   0  0  0  0  0  0  0  0  0  0  0  0
  158.2160  214.0300  152.9340 C   0  0  0  0  0  1  0  0  0  0  0  0
  159.4010  213.0940  154.8750 C   0  0  0  0  0  1  0  0  0  0  0  0
  158.1940  212.9160  153.9710 C   0  0  0  0  0  0  0  0  0  0  0  0
  155.9850  213.9830  154.2490 N   0  0  0  0  0  1  0  0  0  0  0  0
  156.2610  211.7480  154.8570 O   0  0  0  0  0  1  0  0  0  0  0  0
  156.8980  212.9930  154.7960 C   0  0  1  0  0  3  0  0  0  0  0  0
  1 19  1  6  0  0  0
  1 37  1  0  0  0  0
  2  3  2  0  0  0  0
  3  1  1  0  0  0  0
  4  3  1  0  0  0  0
  5  6  1  6  0  0  0
  5  4  1  0  0  0  0
  7  6  1  0  0  0  0
  8  7  1  0  0  0  0
  9 13  2  0  0  0  0
 10 12  1  0  0  0  0
 11  8  1  0  0  0  0
 12 15  1  0  0  0  0
 13 11  2  0  0  0  0
 14 10  1  0  0  0  0
 14  9  1  0  0  0  0
 15 11  1  0  0  0  0
 16  5  1  0  0  0  0
 16 17  1  0  0  0  0
 18 17  1  0  0  0  0
 19 20  1  0  0  0  0
 21 20  1  0  0  0  0
 22 35  1  6  0  0  0
 22 32  1  0  0  0  0
 23 27  1  0  0  0  0
 24 36  2  0  0  0  0
 25 36  1  0  0  0  0
 25 33  1  0  0  0  0
 27 26  1  6  0  0  0
 27 29  1  0  0  0  0
 28 36  2  0  0  0  0
 29 30  1  0  0  0  0
 31 33  1  1  0  0  0
 31 22  1  0  0  0  0
 31 26  1  0  0  0  0
 32 21  1  1  0  0  0
 32 30  1  0  0  0  0
 34 23  1  0  0  0  0
 36 34  1  0  0  0  0
 37 41  1  0  0  0  0
 38 40  1  0  0  0  0
 40 43  1  0  0  0  0
 40 39  2  0  0  0  0
 41 38  1  0  0  0  0
 41 42  2  0  0  0  0
 43 46  1  0  0  0  0
 44 46  1  0  0  0  0
 46 49  1  0  0  0  0
 46 45  1  0  0  0  0
 49 47  1  6  0  0  0
 49 48  1  0  0  0  0
M  END
>  <MODEL>
6

>  <REMARK>
 VINA RESULT:      -5.3      3.612      9.587
  Name = 
  18 active torsions:
  status: ('A' for Active; 'I' for Inactive)
    1  A    between atoms: C_4  and  O_42
    2  A    between atoms: C_13  and  O_35
    3  A    between atoms: C_15  and  O_42
    4  A    between atoms: C_15  and  C_49
    5  A    between atoms: C_16  and  O_25
    6  A    between atoms: C_16  and  C_45
    7  A    between atoms: C_16  and  C_48
    8  A    between atoms: C_22  and  C_32
    9  A    between atoms: O_25  and  C_30
   10  A    between atoms: C_28  and  C_36
   11  A    between atoms: C_28  and  C_44
   12  A    between atoms: C_29  and  C_32
   13  A    between atoms: C_29  and  O_39
   14  A    between atoms: C_29  and  C_49
   15  A    between atoms: C_34  and  C_46
   16  A    between atoms: O_35  and  C_46
   17  A    between atoms: O_39  and  C_45
   18  A    between atoms: C_44  and  C_48
                            x       y       z     vdW  Elec       q    Type
                         _______ _______ _______ _____ _____    ______ ____

>  <TORSDO>
F 18

$$$$
=
 OpenBabel11072409473D

 49 51  0  0  1  0  0  0  0  0999 V2000
  161.3080  207.5140  150.9140 C   0  0  1  0  0  3  0  0  0  0  0  0
  163.2330  206.2170  151.4420 O   0  0  0  0  0  0  0  0  0  0  0  0
  162.1090  206.2490  150.8750 C   0  0  0  0  0  0  0  0  0  0  0  0
  161.6100  205.1300  150.1940 O   0  0  0  0  0  0  0  0  0  0  0  0
  160.5930  204.2670  150.7010 C   0  0  1  0  0  3  0  0  0  0  0  0
  160.0580  203.3540  149.6000 C   0  0  0  0  0  2  0  0  0  0  0  0
  161.1590  202.4650  149.0570 C   0  0  0  0  0  2  0  0  0  0  0  0
  162.0100  203.2110  148.1960 O   0  0  0  0  0  0  0  0  0  0  0  0
  160.4520  203.0920  144.9410 C   0  0  0  0  0  3  0  0  0  0  0  0
  160.9330  205.5680  144.4970 C   0  0  0  0  0  2  0  0  0  0  0  0
  161.5010  203.9290  147.1150 C   0  0  0  0  0  0  0  0  0  0  0  0
  160.6840  206.0860  145.9310 C   0  0  0  0  0  2  0  0  0  0  0  0
  160.9850  203.3180  146.0980 C   0  0  0  0  0  0  0  0  0  0  0  0
  160.0890  204.3160  144.1390 C   0  0  0  0  0  2  0  0  0  0  0  0
  161.5790  205.4390  147.0280 C   0  0  0  0  0  2  0  0  0  0  0  0
  161.1170  203.4680  151.8930 C   0  0  0  0  0  2  0  0  0  0  0  0
  161.0900  204.2840  153.1750 C   0  0  0  0  0  2  0  0  0  0  0  0
  160.1560  205.3190  153.0670 O   0  0  0  0  0  1  0  0  0  0  0  0
  161.9580  208.5690  151.8090 C   0  0  0  0  0  2  0  0  0  0  0  0
  161.0010  209.2060  152.8080 C   0  0  0  0  0  2  0  0  0  0  0  0
  161.1210  210.7250  152.7960 C   0  0  0  0  0  2  0  0  0  0  0  0
  160.3790  212.0260  154.8550 C   0  0  2  0  0  3  0  0  0  0  0  0
  156.3050  214.1560  154.3280 C   0  0  0  0  0  2  0  0  0  0  0  0
  155.4620  214.1790  157.2610 O   0  0  0  0  0  0  0  0  0  0  0  0
  157.3290  212.2600  157.2130 C   0  0  0  0  0  2  0  0  0  0  0  0
  158.7430  213.9840  155.0680 C   0  0  0  0  0  2  0  0  0  0  0  0
  157.7500  213.8890  153.8980 C   0  0  1  0  0  3  0  0  0  0  0  0
  154.6970  211.8640  157.1710 O   0  0  0  0  0  0  0  0  0  0  0  0
  157.8810  212.6700  152.9790 C   0  0  0  0  0  2  0  0  0  0  0  0
  159.3200  212.4290  152.5690 C   0  0  0  0  0  2  0  0  0  0  0  0
  159.2390  212.6600  155.6600 C   0  0  1  0  0  3  0  0  0  0  0  0
  159.9560  211.4110  153.5070 C   0  0  1  0  0  3  0  0  0  0  0  0
  158.1360  211.6850  156.0620 C   0  0  0  0  0  2  0  0  0  0  0  0
  155.5940  212.9250  154.8890 C   0  0  0  0  0  2  0  0  0  0  0  0
  161.0200  211.0620  155.6440 O   0  0  0  0  0  1  0  0  0  0  0  0
  155.7320  212.8270  156.6690 S   0  0  0  0  0  0  0  0  0  0  0  0
  161.0730  208.0150  149.5990 O   0  0  0  0  0  0  0  0  0  0  0  0
  161.6250  210.3610  149.1300 N   0  0  0  0  0  2  0  0  0  0  0  0
  163.3570  211.1830  147.7850 O   0  0  0  0  0  0  0  0  0  0  0  0
  162.3500  211.4270  148.5070 C   0  0  0  0  0  0  0  0  0  0  0  0
  161.9150  208.9610  149.0080 C   0  0  0  0  0  0  0  0  0  0  0  0
  162.9230  208.5690  148.3650 O   0  0  0  0  0  0  0  0  0  0  0  0
  161.9060  212.7420  148.6960 O   0  0  0  0  0  0  0  0  0  0  0  0
  160.2800  212.4110  146.9340 C   0  0  0  0  0  1  0  0  0  0  0  0
  161.7030  214.4150  147.0040 C   0  0  0  0  0  1  0  0  0  0  0  0
  160.9550  213.4100  147.8630 C   0  0  0  0  0  0  0  0  0  0  0  0
  158.6920  213.3250  148.8450 N   0  0  0  0  0  1  0  0  0  0  0  0
  160.3970  214.4280  149.9930 O   0  0  0  0  0  1  0  0  0  0  0  0
  159.8990  214.1270  148.7200 C   0  0  1  0  0  3  0  0  0  0  0  0
  1 19  1  1  0  0  0
  3  1  1  0  0  0  0
  3  2  2  0  0  0  0
  4  5  1  0  0  0  0
  4  3  1  0  0  0  0
  5  6  1  6  0  0  0
  5 16  1  0  0  0  0
  7  6  1  0  0  0  0
  8  7  1  0  0  0  0
  9 13  2  0  0  0  0
 10 12  1  0  0  0  0
 11  8  1  0  0  0  0
 12 15  1  0  0  0  0
 13 11  2  0  0  0  0
 14 10  1  0  0  0  0
 14  9  1  0  0  0  0
 15 11  1  0  0  0  0
 16 17  1  0  0  0  0
 18 17  1  0  0  0  0
 19 20  1  0  0  0  0
 21 20  1  0  0  0  0
 22 35  1  1  0  0  0
 22 31  1  0  0  0  0
 23 34  1  0  0  0  0
 27 29  1  1  0  0  0
 27 23  1  0  0  0  0
 27 26  1  0  0  0  0
 30 29  1  0  0  0  0
 30 32  1  0  0  0  0
 31 26  1  6  0  0  0
 31 33  1  0  0  0  0
 32 21  1  6  0  0  0
 32 22  1  0  0  0  0
 33 25  1  0  0  0  0
 34 36  1  0  0  0  0
 36 28  2  0  0  0  0
 36 25  1  0  0  0  0
 36 24  2  0  0  0  0
 37  1  1  0  0  0  0
 39 40  2  0  0  0  0
 40 43  1  0  0  0  0
 40 38  1  0  0  0  0
 41 38  1  0  0  0  0
 41 37  1  0  0  0  0
 42 41  2  0  0  0  0
 44 46  1  0  0  0  0
 45 46  1  0  0  0  0
 46 43  1  0  0  0  0
 46 49  1  0  0  0  0
 49 47  1  1  0  0  0
 49 48  1  0  0  0  0
M  END
>  <MODEL>
7

>  <REMARK>
 VINA RESULT:      -5.2      1.821      2.587
  Name = 
  18 active torsions:
  status: ('A' for Active; 'I' for Inactive)
    1  A    between atoms: C_4  and  O_42
    2  A    between atoms: C_13  and  O_35
    3  A    between atoms: C_15  and  O_42
    4  A    between atoms: C_15  and  C_49
    5  A    between atoms: C_16  and  O_25
    6  A    between atoms: C_16  and  C_45
    7  A    between atoms: C_16  and  C_48
    8  A    between atoms: C_22  and  C_32
    9  A    between atoms: O_25  and  C_30
   10  A    between atoms: C_28  and  C_36
   11  A    between atoms: C_28  and  C_44
   12  A    between atoms: C_29  and  C_32
   13  A    between atoms: C_29  and  O_39
   14  A    between atoms: C_29  and  C_49
   15  A    between atoms: C_34  and  C_46
   16  A    between atoms: O_35  and  C_46
   17  A    between atoms: O_39  and  C_45
   18  A    between atoms: C_44  and  C_48
                            x       y       z     vdW  Elec       q    Type
                         _______ _______ _______ _____ _____    ______ ____

>  <TORSDO>
F 18

$$$$
=
 OpenBabel11072409473D

 49 51  0  0  1  0  0  0  0  0999 V2000
  161.2860  207.8570  149.2370 C   0  0  1  0  0  3  0  0  0  0  0  0
  163.1090  207.1060  150.5710 O   0  0  0  0  0  0  0  0  0  0  0  0
  161.9070  207.4830  150.5480 C   0  0  0  0  0  0  0  0  0  0  0  0
  161.1430  207.5380  151.7210 O   0  0  0  0  0  0  0  0  0  0  0  0
  161.5960  207.0900  152.9990 C   0  0  1  0  0  3  0  0  0  0  0  0
  161.2060  208.0830  154.0900 C   0  0  0  0  0  2  0  0  0  0  0  0
  160.4120  209.2370  153.5100 C   0  0  0  0  0  2  0  0  0  0  0  0
  160.1480  210.2050  154.5170 O   0  0  0  0  0  0  0  0  0  0  0  0
  157.6060  212.2160  156.1060 C   0  0  0  0  0  3  0  0  0  0  0  0
  156.5370  212.8370  153.8630 C   0  0  0  0  0  2  0  0  0  0  0  0
  159.1450  211.1610  154.3620 C   0  0  0  0  0  0  0  0  0  0  0  0
  157.8410  212.9740  153.0450 C   0  0  0  0  0  2  0  0  0  0  0  0
  158.4780  211.5920  155.3830 C   0  0  0  0  0  0  0  0  0  0  0  0
  156.7140  213.1810  155.3660 C   0  0  0  0  0  2  0  0  0  0  0  0
  158.7290  211.6960  153.0080 C   0  0  0  0  0  2  0  0  0  0  0  0
  161.0640  205.6890  153.2920 C   0  0  0  0  0  2  0  0  0  0  0  0
  161.6470  204.6540  152.3450 C   0  0  0  0  0  2  0  0  0  0  0  0
  160.8110  203.5350  152.2790 O   0  0  0  0  0  1  0  0  0  0  0  0
  160.9930  209.3550  149.1540 C   0  0  0  0  0  2  0  0  0  0  0  0
  162.2400  210.2290  149.1700 C   0  0  0  0  0  2  0  0  0  0  0  0
  161.8830  211.7020  149.0150 C   0  0  0  0  0  2  0  0  0  0  0  0
  160.4870  212.9430  147.2850 C   0  0  2  0  0  3  0  0  0  0  0  0
  162.8010  213.9140  143.3960 C   0  0  0  0  0  2  0  0  0  0  0  0
  160.4150  213.9720  141.4940 O   0  0  0  0  0  0  0  0  0  0  0  0
  159.4550  212.5940  143.5790 C   0  0  0  0  0  2  0  0  0  0  0  0
  161.2200  214.4320  145.3340 C   0  0  0  0  0  2  0  0  0  0  0  0
  162.6320  213.9870  144.9160 C   0  0  1  0  0  3  0  0  0  0  0  0
  160.3640  211.5400  141.3100 O   0  0  0  0  0  0  0  0  0  0  0  0
  163.2140  212.7680  145.6380 C   0  0  0  0  0  2  0  0  0  0  0  0
  163.0340  212.8670  147.1400 C   0  0  0  0  0  2  0  0  0  0  0  0
  160.2680  213.3330  145.8190 C   0  0  1  0  0  3  0  0  0  0  0  0
  161.7670  212.1280  147.5530 C   0  0  1  0  0  3  0  0  0  0  0  0
  160.1210  212.1470  144.8680 C   0  0  0  0  0  2  0  0  0  0  0  0
  162.3230  212.5960  142.7890 C   0  0  0  0  0  2  0  0  0  0  0  0
  159.3650  212.2450  147.7500 O   0  0  0  0  0  1  0  0  0  0  0  0
  160.6240  212.6870  142.2400 S   0  0  0  0  0  0  0  0  0  0  0  0
  162.0900  207.4190  148.1430 O   0  0  0  0  0  0  0  0  0  0  0  0
  161.8850  205.0320  147.6050 N   0  0  0  0  0  2  0  0  0  0  0  0
  161.0560  204.0740  145.6360 O   0  0  0  0  0  0  0  0  0  0  0  0
  161.5810  203.9080  146.7720 C   0  0  0  0  0  0  0  0  0  0  0  0
  161.6660  206.4100  147.2720 C   0  0  0  0  0  0  0  0  0  0  0  0
  161.0980  206.7280  146.1950 O   0  0  0  0  0  0  0  0  0  0  0  0
  161.8990  202.6240  147.2330 O   0  0  0  0  0  0  0  0  0  0  0  0
  161.6420  200.3730  148.0840 C   0  0  0  0  0  1  0  0  0  0  0  0
  160.2930  201.1910  146.1980 C   0  0  0  0  0  1  0  0  0  0  0  0
  160.9430  201.5970  147.5090 C   0  0  0  0  0  0  0  0  0  0  0  0
  159.0020  201.0240  148.9230 N   0  0  0  0  0  1  0  0  0  0  0  0
  160.4630  202.7050  149.6130 O   0  0  0  0  0  1  0  0  0  0  0  0
  159.8760  202.1040  148.4940 C   0  0  1  0  0  3  0  0  0  0  0  0
  1 19  1  1  0  0  0
  1  3  1  0  0  0  0
  3  2  2  0  0  0  0
  3  4  1  0  0  0  0
  4  5  1  0  0  0  0
  5 16  1  1  0  0  0
  5  6  1  0  0  0  0
  7  6  1  0  0  0  0
  7  8  1  0  0  0  0
 10 14  1  0  0  0  0
 11  8  1  0  0  0  0
 11 13  2  0  0  0  0
 12 10  1  0  0  0  0
 13  9  2  0  0  0  0
 14  9  1  0  0  0  0
 15 12  1  0  0  0  0
 15 11  1  0  0  0  0
 17 16  1  0  0  0  0
 18 17  1  0  0  0  0
 19 20  1  0  0  0  0
 21 20  1  0  0  0  0
 22 32  1  0  0  0  0
 22 35  1  6  0  0  0
 24 36  2  0  0  0  0
 25 33  1  0  0  0  0
 26 31  1  0  0  0  0
 27 23  1  6  0  0  0
 27 26  1  0  0  0  0
 27 29  1  0  0  0  0
 28 36  2  0  0  0  0
 29 30  1  0  0  0  0
 30 32  1  0  0  0  0
 31 33  1  6  0  0  0
 31 22  1  0  0  0  0
 32 21  1  1  0  0  0
 34 23  1  0  0  0  0
 36 34  1  0  0  0  0
 36 25  1  0  0  0  0
 37  1  1  0  0  0  0
 39 40  2  0  0  0  0
 40 43  1  0  0  0  0
 40 38  1  0  0  0  0
 41 38  1  0  0  0  0
 41 37  1  0  0  0  0
 42 41  2  0  0  0  0
 43 46  1  0  0  0  0
 45 46  1  0  0  0  0
 46 44  1  0  0  0  0
 46 49  1  0  0  0  0
 49 47  1  1  0  0  0
 49 48  1  0  0  0  0
M  END
>  <MODEL>
8

>  <REMARK>
 VINA RESULT:      -5.0      3.198      9.847
  Name = 
  18 active torsions:
  status: ('A' for Active; 'I' for Inactive)
    1  A    between atoms: C_4  and  O_42
    2  A    between atoms: C_13  and  O_35
    3  A    between atoms: C_15  and  O_42
    4  A    between atoms: C_15  and  C_49
    5  A    between atoms: C_16  and  O_25
    6  A    between atoms: C_16  and  C_45
    7  A    between atoms: C_16  and  C_48
    8  A    between atoms: C_22  and  C_32
    9  A    between atoms: O_25  and  C_30
   10  A    between atoms: C_28  and  C_36
   11  A    between atoms: C_28  and  C_44
   12  A    between atoms: C_29  and  C_32
   13  A    between atoms: C_29  and  O_39
   14  A    between atoms: C_29  and  C_49
   15  A    between atoms: C_34  and  C_46
   16  A    between atoms: O_35  and  C_46
   17  A    between atoms: O_39  and  C_45
   18  A    between atoms: C_44  and  C_48
                            x       y       z     vdW  Elec       q    Type
                         _______ _______ _______ _____ _____    ______ ____

>  <TORSDO>
F 18

$$$$
=
 OpenBabel11072409473D

 49 51  0  0  1  0  0  0  0  0999 V2000
  161.5820  208.1090  150.9430 C   0  0  1  0  0  3  0  0  0  0  0  0
  161.8780  206.9650  148.8770 O   0  0  0  0  0  0  0  0  0  0  0  0
  161.2540  207.0180  149.9700 C   0  0  0  0  0  0  0  0  0  0  0  0
  160.2490  206.0910  150.2760 O   0  0  0  0  0  0  0  0  0  0  0  0
  160.4930  204.7420  150.6770 C   0  0  1  0  0  3  0  0  0  0  0  0
  161.4330  204.0480  149.6950 C   0  0  0  0  0  2  0  0  0  0  0  0
  160.8030  202.7830  149.1480 C   0  0  0  0  0  2  0  0  0  0  0  0
  161.4350  202.4070  147.9310 O   0  0  0  0  0  0  0  0  0  0  0  0
  163.1040  205.1830  146.3350 C   0  0  0  0  0  3  0  0  0  0  0  0
  161.1750  205.5420  144.6910 C   0  0  0  0  0  2  0  0  0  0  0  0
  161.4830  203.2730  146.8400 C   0  0  0  0  0  0  0  0  0  0  0  0
  160.8230  204.0560  144.4570 C   0  0  0  0  0  2  0  0  0  0  0  0
  162.4060  204.1770  146.7510 C   0  0  0  0  0  0  0  0  0  0  0  0
  162.6730  205.7770  145.0190 C   0  0  0  0  0  2  0  0  0  0  0  0
  160.4410  203.2630  145.7410 C   0  0  0  0  0  2  0  0  0  0  0  0
  161.0340  204.7000  152.1050 C   0  0  0  0  0  2  0  0  0  0  0  0
  160.8050  203.3450  152.7540 C   0  0  0  0  0  2  0  0  0  0  0  0
  161.6860  202.3990  152.2210 O   0  0  0  0  0  1  0  0  0  0  0  0
  162.2880  209.2820  150.2640 C   0  0  0  0  0  2  0  0  0  0  0  0
  161.4710  209.9380  149.1590 C   0  0  0  0  0  2  0  0  0  0  0  0
  161.7450  211.4360  149.0860 C   0  0  0  0  0  2  0  0  0  0  0  0
  160.4620  212.8090  147.3680 C   0  0  2  0  0  3  0  0  0  0  0  0
  163.0140  214.0460  143.7120 C   0  0  0  0  0  2  0  0  0  0  0  0
  160.7510  214.2590  141.6750 O   0  0  0  0  0  0  0  0  0  0  0  0
  159.6600  212.7390  143.5900 C   0  0  0  0  0  2  0  0  0  0  0  0
  161.3180  214.4310  145.5810 C   0  0  0  0  0  2  0  0  0  0  0  0
  162.7510  214.0090  145.2190 C   0  0  1  0  0  3  0  0  0  0  0  0
  160.7070  211.8480  141.3110 O   0  0  0  0  0  0  0  0  0  0  0  0
  163.2850  212.7360  145.8850 C   0  0  0  0  0  2  0  0  0  0  0  0
  163.0120  212.7260  147.3760 C   0  0  0  0  0  2  0  0  0  0  0  0
  160.3340  213.3060  145.9240 C   0  0  1  0  0  3  0  0  0  0  0  0
  161.7200  211.9670  147.6540 C   0  0  1  0  0  3  0  0  0  0  0  0
  160.2450  212.1940  144.8820 C   0  0  0  0  0  2  0  0  0  0  0  0
  162.5720  212.7790  142.9810 C   0  0  0  0  0  2  0  0  0  0  0  0
  159.3120  212.0860  147.7110 O   0  0  0  0  0  1  0  0  0  0  0  0
  160.9110  212.9220  142.3370 S   0  0  0  0  0  0  0  0  0  0  0  0
  160.4180  208.5360  151.6490 O   0  0  0  0  0  0  0  0  0  0  0  0
  160.1010  210.3560  153.2660 N   0  0  0  0  0  2  0  0  0  0  0  0
  160.6360  210.3560  155.5450 O   0  0  0  0  0  0  0  0  0  0  0  0
  160.1980  210.9910  154.5460 C   0  0  0  0  0  0  0  0  0  0  0  0
  160.4830  209.0060  152.9640 C   0  0  0  0  0  0  0  0  0  0  0  0
  160.8840  208.2350  153.8730 O   0  0  0  0  0  0  0  0  0  0  0  0
  159.8200  212.3340  154.6600 O   0  0  0  0  0  0  0  0  0  0  0  0
  157.8760  212.5580  153.2340 C   0  0  0  0  0  1  0  0  0  0  0  0
  158.4910  214.3100  154.8460 C   0  0  0  0  0  1  0  0  0  0  0  0
  158.4720  212.8090  154.6120 C   0  0  0  0  0  0  0  0  0  0  0  0
  156.8930  213.0890  156.4890 N   0  0  0  0  0  1  0  0  0  0  0  0
  156.7170  211.2120  155.1160 O   0  0  0  0  0  1  0  0  0  0  0  0
  157.6190  212.1160  155.6880 C   0  0  1  0  0  3  0  0  0  0  0  0
  1 19  1  6  0  0  0
  1 37  1  0  0  0  0
  2  3  2  0  0  0  0
  3  4  1  0  0  0  0
  3  1  1  0  0  0  0
  4  5  1  0  0  0  0
  5  6  1  6  0  0  0
  5 16  1  0  0  0  0
  7  6  1  0  0  0  0
  8  7  1  0  0  0  0
  9 13  2  0  0  0  0
 10 14  1  0  0  0  0
 11  8  1  0  0  0  0
 12 10  1  0  0  0  0
 12 15  1  0  0  0  0
 13 11  2  0  0  0  0
 14  9  1  0  0  0  0
 15 11  1  0  0  0  0
 16 17  1  0  0  0  0
 18 17  1  0  0  0  0
 20 19  1  0  0  0  0
 21 20  1  0  0  0  0
 22 32  1  0  0  0  0
 22 35  1  6  0  0  0
 24 36  2  0  0  0  0
 25 33  1  0  0  0  0
 26 31  1  0  0  0  0
 27 23  1  6  0  0  0
 27 26  1  0  0  0  0
 27 29  1  0  0  0  0
 28 36  2  0  0  0  0
 29 30  1  0  0  0  0
 30 32  1  0  0  0  0
 31 33  1  6  0  0  0
 31 22  1  0  0  0  0
 32 21  1  1  0  0  0
 34 23  1  0  0  0  0
 36 34  1  0  0  0  0
 36 25  1  0  0  0  0
 37 41  1  0  0  0  0
 38 40  1  0  0  0  0
 40 43  1  0  0  0  0
 40 39  2  0  0  0  0
 41 38  1  0  0  0  0
 41 42  2  0  0  0  0
 44 46  1  0  0  0  0
 46 43  1  0  0  0  0
 46 45  1  0  0  0  0
 46 49  1  0  0  0  0
 49 48  1  6  0  0  0
 49 47  1  0  0  0  0
M  END
>  <MODEL>
9

>  <REMARK>
 VINA RESULT:      -5.0      3.208      7.563
  Name = 
  18 active torsions:
  status: ('A' for Active; 'I' for Inactive)
    1  A    between atoms: C_4  and  O_42
    2  A    between atoms: C_13  and  O_35
    3  A    between atoms: C_15  and  O_42
    4  A    between atoms: C_15  and  C_49
    5  A    between atoms: C_16  and  O_25
    6  A    between atoms: C_16  and  C_45
    7  A    between atoms: C_16  and  C_48
    8  A    between atoms: C_22  and  C_32
    9  A    between atoms: O_25  and  C_30
   10  A    between atoms: C_28  and  C_36
   11  A    between atoms: C_28  and  C_44
   12  A    between atoms: C_29  and  C_32
   13  A    between atoms: C_29  and  O_39
   14  A    between atoms: C_29  and  C_49
   15  A    between atoms: C_34  and  C_46
   16  A    between atoms: O_35  and  C_46
   17  A    between atoms: O_39  and  C_45
   18  A    between atoms: C_44  and  C_48
                            x       y       z     vdW  Elec       q    Type
                         _______ _______ _______ _____ _____    ______ ____

>  <TORSDO>
F 18

$$$$
