=
 OpenBabel11072411403D

 53 58  0  0  1  0  0  0  0  0999 V2000
  161.1470  209.5090  150.3330 C   0  0  0  0  0  0  0  0  0  0  0  0
  162.7130  209.2520  148.3250 C   0  0  0  0  0  2  0  0  0  0  0  0
  162.3280  210.0910  152.4810 C   0  0  0  0  0  1  0  0  0  0  0  0
  161.3380  208.2370  150.5070 C   0  0  0  0  0  0  0  0  0  0  0  0
  161.7740  207.0400  150.2830 C   0  0  0  0  0  0  0  0  0  0  0  0
  161.8850  211.6920  150.6360 C   0  0  0  0  0  3  0  0  0  0  0  0
  162.3150  207.8160  147.9100 C   0  0  0  0  0  2  0  0  0  0  0  0
  161.5500  210.0500  148.9860 C   0  0  2  0  0  3  0  0  0  0  0  0
  162.4290  206.8520  149.0200 N   0  0  0  0  0  2  0  0  0  0  0  0
  161.9950  211.4280  149.3400 C   0  0  0  0  0  0  0  0  0  0  0  0
  161.3270  210.5420  151.4100 C   0  0  1  0  0  0  0  0  0  0  0  0
  163.8000  212.4540  147.9820 O   0  0  0  0  0  1  0  0  0  0  0  0
  162.4610  212.4190  148.3570 C   0  0  0  0  0  0  0  0  0  0  0  0
  161.6550  213.2410  147.8460 O   0  0  0  0  0  0  0  0  0  0  0  0
  160.0060  210.8880  151.9650 N   0  0  0  0  0  2  0  0  0  0  0  0
  157.6760  213.7770  152.1420 O   0  0  0  0  0  0  0  0  0  0  0  0
  160.0080  212.1280  152.7550 C   0  0  1  0  0  3  0  0  0  0  0  0
  158.4050  212.7150  150.2050 O   0  0  0  0  0  1  0  0  0  0  0  0
  158.7140  213.6600  151.1880 C   0  0  2  0  0  3  0  0  0  0  0  0
  160.0700  213.3650  151.8490 C   0  0  0  0  0  2  0  0  0  0  0  0
  157.5180  212.5450  152.8120 C   0  0  0  0  0  2  0  0  0  0  0  0
  158.7610  212.2260  153.6450 C   0  0  1  0  0  3  0  0  0  0  0  0
  158.5550  211.0490  154.6010 C   0  0  0  0  0  2  0  0  0  0  0  0
  158.2380  211.4840  156.0290 C   0  0  0  0  0  2  0  0  0  0  0  0
  156.7060  213.3440  156.3000 C   0  0  0  0  0  3  0  0  0  0  0  0
  155.4640  213.9630  156.3810 O   0  0  0  0  0  1  0  0  0  0  0  0
  156.8490  212.0310  156.1060 C   0  0  0  0  0  0  0  0  0  0  0  0
  155.7010  211.1110  155.9460 C   0  0  0  0  0  0  0  0  0  0  0  0
  155.3730  210.5760  154.7060 O   0  0  0  0  0  0  0  0  0  0  0  0
  155.0010  210.7990  156.9460 O   0  0  0  0  0  1  0  0  0  0  0  0
  162.0920  206.1300  151.4220 C   0  0  0  0  0  2  0  0  0  0  0  0
  161.2460  205.1280  153.5100 C   0  0  1  0  0  3  0  0  0  0  0  0
  161.0050  206.2310  152.4920 C   0  0  1  0  0  0  0  0  0  0  0  0
  161.5890  206.5680  153.8470 C   0  0  1  0  0  3  0  0  0  0  0  0
  160.0340  205.0520  152.6000 C   0  0  1  0  0  3  0  0  0  0  0  0
  161.1480  202.2370  149.5270 C   0  0  0  0  0  2  0  0  0  0  0  0
  161.3640  203.7260  149.2600 C   0  0  2  0  0  3  0  0  0  0  0  0
  160.4810  204.5910  150.1740 C   0  0  0  0  0  2  0  0  0  0  0  0
  160.2350  203.9630  151.5540 C   0  0  1  0  0  3  0  0  0  0  0  0
  161.3860  203.0430  151.9510 C   0  0  0  0  0  2  0  0  0  0  0  0
  160.6110  200.8650  151.3930 F   0  0  0  0  0  0  0  0  0  0  0  0
  161.4760  201.8600  150.9810 C   0  0  1  0  0  3  0  0  0  0  0  0
  161.0760  204.0320  147.8020 C   0  0  0  0  0  2  0  0  0  0  0  0
  163.4560  204.1990  145.0260 O   0  0  0  0  0  0  0  0  0  0  0  0
  162.3470  204.1680  145.6200 C   0  0  0  0  0  0  0  0  0  0  0  0
  162.3170  204.0530  147.0440 N   0  0  0  0  0  2  0  0  0  0  0  0
  161.0850  204.2300  144.8200 C   0  0  0  0  0  2  0  0  0  0  0  0
  160.1600  206.4100  145.3940 N   0  0  0  0  0  1  0  0  0  0  0  0
  160.8150  205.6490  144.3460 C   0  0  0  0  0  2  0  0  0  0  0  0
  160.5790  207.1260  154.6770 O   0  0  0  0  0  0  0  0  0  0  0  0
  160.8860  207.7880  155.8660 C   0  0  0  0  0  0  0  0  0  0  0  0
  162.0760  207.8670  156.2740 O   0  0  0  0  0  0  0  0  0  0  0  0
  159.8440  208.3900  156.6230 N   0  0  0  0  0  1  0  0  0  0  0  0
  1  4  2  0  0  0  0
  1 11  1  0  0  0  0
  5  4  2  0  0  0  0
  5 31  1  0  0  0  0
  6 11  1  0  0  0  0
  7  2  1  0  0  0  0
  7  9  1  0  0  0  0
  8  2  1  1  0  0  0
  8 10  1  0  0  0  0
  8  1  1  0  0  0  0
  9  5  1  0  0  0  0
 10  6  2  0  0  0  0
 11 15  1  0  0  0  0
 11  3  1  1  0  0  0
 12 13  1  0  0  0  0
 13 10  1  0  0  0  0
 14 13  2  0  0  0  0
 16 21  1  0  0  0  0
 17 15  1  6  0  0  0
 17 22  1  0  0  0  0
 19 18  1  6  0  0  0
 19 20  1  0  0  0  0
 19 16  1  0  0  0  0
 20 17  1  0  0  0  0
 21 22  1  0  0  0  0
 22 23  1  6  0  0  0
 23 24  1  0  0  0  0
 24 27  1  0  0  0  0
 25 26  1  0  0  0  0
 27 25  2  0  0  0  0
 28 27  1  0  0  0  0
 28 30  1  0  0  0  0
 29 28  2  0  0  0  0
 31 33  1  0  0  0  0
 32 34  1  0  0  0  0
 33 35  1  0  0  0  0
 33 32  1  0  0  0  0
 33 34  1  0  0  0  0
 34 50  1  0  0  0  0
 35 32  1  0  0  0  0
 36 42  1  0  0  0  0
 37 36  1  0  0  0  0
 37 38  1  0  0  0  0
 38 39  1  0  0  0  0
 39 40  1  0  0  0  0
 39 35  1  0  0  0  0
 42 41  1  0  0  0  0
 42 40  1  0  0  0  0
 43 37  1  0  0  0  0
 44 45  2  0  0  0  0
 45 46  1  0  0  0  0
 46 43  1  0  0  0  0
 47 45  1  0  0  0  0
 49 47  1  0  0  0  0
 49 48  1  0  0  0  0
 50 51  1  0  0  0  0
 51 52  2  0  0  0  0
 51 53  1  0  0  0  0
M  END
>  <MODEL>
1

>  <REMARK>
 VINA RESULT:      -4.8      0.000      0.000
  Name = 
  16 active torsions:
  status: ('A' for Active; 'I' for Inactive)
    1  A    between atoms: C_6  and  N_15
    2  A    between atoms: O_10  and  C_16
    3  A    between atoms: O_10  and  C_44
    4  A    between atoms: C_11  and  C_43
    5  A    between atoms: C_14  and  C_20
    6  A    between atoms: N_15  and  C_52
    7  A    between atoms: C_20  and  C_28
    8  A    between atoms: C_21  and  C_47
    9  A    between atoms: C_22  and  C_38
   10  A    between atoms: C_26  and  C_42
   11  A    between atoms: C_29  and  C_51
   12  A    between atoms: C_34  and  C_38
   13  A    between atoms: N_35  and  C_43
   14  A    between atoms: C_41  and  C_45
   15  A    between atoms: C_41  and  C_53
   16  A    between atoms: C_42  and  C_53
                            x       y       z     vdW  Elec       q    Type
                         _______ _______ _______ _____ _____    ______ ____

>  <TORSDO>
F 16

$$$$
=
 OpenBabel11072411403D

 53 58  0  0  1  0  0  0  0  0999 V2000
  161.2120  209.9000  150.3090 C   0  0  0  0  0  0  0  0  0  0  0  0
  162.8180  209.7780  148.3200 C   0  0  0  0  0  2  0  0  0  0  0  0
  162.3030  210.6360  152.4580 C   0  0  0  0  0  1  0  0  0  0  0  0
  161.5340  208.6580  150.5070 C   0  0  0  0  0  0  0  0  0  0  0  0
  162.0960  207.5100  150.3070 C   0  0  0  0  0  0  0  0  0  0  0  0
  161.7140  212.1520  150.5820 C   0  0  0  0  0  3  0  0  0  0  0  0
  162.5770  208.3010  147.9260 C   0  0  0  0  0  2  0  0  0  0  0  0
  161.5710  210.4590  148.9580 C   0  0  2  0  0  3  0  0  0  0  0  0
  162.7810  207.3720  149.0530 N   0  0  0  0  0  2  0  0  0  0  0  0
  161.8650  211.8810  149.2920 C   0  0  0  0  0  0  0  0  0  0  0  0
  161.2710  210.9620  151.3710 C   0  0  1  0  0  0  0  0  0  0  0  0
  163.5670  213.0770  147.9410 O   0  0  0  0  0  1  0  0  0  0  0  0
  162.2340  212.9000  148.2970 C   0  0  0  0  0  0  0  0  0  0  0  0
  161.3510  213.6180  147.7580 O   0  0  0  0  0  0  0  0  0  0  0  0
  159.9160  211.1760  151.9080 N   0  0  0  0  0  2  0  0  0  0  0  0
  157.1650  213.4660  152.9060 O   0  0  0  0  0  0  0  0  0  0  0  0
  159.8340  212.2820  152.8740 C   0  0  1  0  0  3  0  0  0  0  0  0
  157.7030  212.8280  150.7350 O   0  0  0  0  0  1  0  0  0  0  0  0
  158.0100  213.6880  151.7940 C   0  0  2  0  0  3  0  0  0  0  0  0
  159.4950  213.6060  152.1770 C   0  0  0  0  0  2  0  0  0  0  0  0
  157.3660  212.1550  153.3890 C   0  0  0  0  0  2  0  0  0  0  0  0
  158.7800  212.0050  153.9540 C   0  0  1  0  0  3  0  0  0  0  0  0
  158.9780  210.7020  154.7320 C   0  0  0  0  0  2  0  0  0  0  0  0
  159.0060  210.9050  156.2440 C   0  0  0  0  0  2  0  0  0  0  0  0
  156.8530  211.8210  156.8830 C   0  0  0  0  0  3  0  0  0  0  0  0
  155.9580  212.8170  157.2530 O   0  0  0  0  0  1  0  0  0  0  0  0
  158.1400  212.0630  156.6270 C   0  0  0  0  0  0  0  0  0  0  0  0
  158.7410  213.4120  156.7240 C   0  0  0  0  0  0  0  0  0  0  0  0
  160.0770  213.5830  157.0670 O   0  0  0  0  0  1  0  0  0  0  0  0
  158.0390  214.4320  156.4920 O   0  0  0  0  0  0  0  0  0  0  0  0
  162.4950  206.6560  151.4640 C   0  0  0  0  0  2  0  0  0  0  0  0
  161.5560  205.0320  153.0620 C   0  0  1  0  0  3  0  0  0  0  0  0
  161.2720  206.3260  152.3180 C   0  0  1  0  0  0  0  0  0  0  0  0
  161.6000  206.3610  153.7950 C   0  0  1  0  0  3  0  0  0  0  0  0
  160.5100  205.0460  151.9640 C   0  0  1  0  0  3  0  0  0  0  0  0
  161.4050  202.8150  148.3810 C   0  0  0  0  0  2  0  0  0  0  0  0
  160.4580  202.1920  149.4060 C   0  0  2  0  0  3  0  0  0  0  0  0
  160.6400  202.8290  150.7940 C   0  0  0  0  0  2  0  0  0  0  0  0
  161.0340  204.3120  150.7350 C   0  0  1  0  0  3  0  0  0  0  0  0
  160.5180  204.9680  149.4570 C   0  0  0  0  0  2  0  0  0  0  0  0
  162.3890  204.9430  147.9910 F   0  0  0  0  0  0  0  0  0  0  0  0
  161.1760  204.3270  148.2310 C   0  0  1  0  0  3  0  0  0  0  0  0
  160.6920  200.6950  149.4770 C   0  0  0  0  0  2  0  0  0  0  0  0
  161.8480  200.0510  146.0630 O   0  0  0  0  0  0  0  0  0  0  0  0
  161.0870  200.4270  146.9930 C   0  0  0  0  0  0  0  0  0  0  0  0
  161.5060  200.2660  148.3500 N   0  0  0  0  0  2  0  0  0  0  0  0
  159.7530  201.0130  146.6570 C   0  0  0  0  0  2  0  0  0  0  0  0
  160.7180  202.6480  145.1290 N   0  0  0  0  0  1  0  0  0  0  0  0
  159.7490  201.5730  145.2440 C   0  0  0  0  0  2  0  0  0  0  0  0
  160.4060  206.5410  154.5450 O   0  0  0  0  0  0  0  0  0  0  0  0
  160.3910  207.2560  155.7430 C   0  0  0  0  0  0  0  0  0  0  0  0
  159.4690  207.0860  156.5850 O   0  0  0  0  0  0  0  0  0  0  0  0
  161.4340  208.1810  156.0220 N   0  0  0  0  0  1  0  0  0  0  0  0
  1  4  2  0  0  0  0
  1 11  1  0  0  0  0
  5  4  2  0  0  0  0
  5 31  1  0  0  0  0
  6 11  1  0  0  0  0
  7  2  1  0  0  0  0
  7  9  1  0  0  0  0
  8  2  1  1  0  0  0
  8 10  1  0  0  0  0
  8  1  1  0  0  0  0
  9  5  1  0  0  0  0
 10  6  2  0  0  0  0
 11 15  1  0  0  0  0
 11  3  1  1  0  0  0
 12 13  1  0  0  0  0
 13 10  1  0  0  0  0
 14 13  2  0  0  0  0
 16 21  1  0  0  0  0
 17 15  1  6  0  0  0
 17 22  1  0  0  0  0
 19 18  1  6  0  0  0
 19 20  1  0  0  0  0
 19 16  1  0  0  0  0
 20 17  1  0  0  0  0
 21 22  1  0  0  0  0
 22 23  1  6  0  0  0
 23 24  1  0  0  0  0
 24 27  1  0  0  0  0
 25 26  1  0  0  0  0
 27 28  1  0  0  0  0
 27 25  2  0  0  0  0
 28 29  1  0  0  0  0
 30 28  2  0  0  0  0
 31 33  1  0  0  0  0
 32 34  1  0  0  0  0
 33 32  1  0  0  0  0
 33 34  1  0  0  0  0
 34 50  1  0  0  0  0
 35 33  1  0  0  0  0
 35 32  1  0  0  0  0
 36 37  1  0  0  0  0
 37 43  1  0  0  0  0
 37 38  1  0  0  0  0
 39 38  1  0  0  0  0
 39 35  1  0  0  0  0
 40 39  1  0  0  0  0
 41 42  1  0  0  0  0
 42 36  1  0  0  0  0
 42 40  1  0  0  0  0
 44 45  2  0  0  0  0
 45 46  1  0  0  0  0
 46 43  1  0  0  0  0
 47 45  1  0  0  0  0
 48 49  1  0  0  0  0
 49 47  1  0  0  0  0
 50 51  1  0  0  0  0
 51 53  1  0  0  0  0
 51 52  2  0  0  0  0
M  END
>  <MODEL>
2

>  <REMARK>
 VINA RESULT:      -4.1      1.799      2.326
  Name = 
  16 active torsions:
  status: ('A' for Active; 'I' for Inactive)
    1  A    between atoms: C_6  and  N_15
    2  A    between atoms: O_10  and  C_16
    3  A    between atoms: O_10  and  C_44
    4  A    between atoms: C_11  and  C_43
    5  A    between atoms: C_14  and  C_20
    6  A    between atoms: N_15  and  C_52
    7  A    between atoms: C_20  and  C_28
    8  A    between atoms: C_21  and  C_47
    9  A    between atoms: C_22  and  C_38
   10  A    between atoms: C_26  and  C_42
   11  A    between atoms: C_29  and  C_51
   12  A    between atoms: C_34  and  C_38
   13  A    between atoms: N_35  and  C_43
   14  A    between atoms: C_41  and  C_45
   15  A    between atoms: C_41  and  C_53
   16  A    between atoms: C_42  and  C_53
                            x       y       z     vdW  Elec       q    Type
                         _______ _______ _______ _____ _____    ______ ____

>  <TORSDO>
F 16

$$$$
=
 OpenBabel11072411403D

 53 58  0  0  1  0  0  0  0  0999 V2000
  161.3030  209.6980  150.1320 C   0  0  0  0  0  0  0  0  0  0  0  0
  162.9480  209.3540  148.2010 C   0  0  0  0  0  2  0  0  0  0  0  0
  162.3880  210.4680  152.2710 C   0  0  0  0  0  1  0  0  0  0  0  0
  161.5280  208.4480  150.4020 C   0  0  0  0  0  0  0  0  0  0  0  0
  162.0090  207.2540  150.2790 C   0  0  0  0  0  0  0  0  0  0  0  0
  161.9610  211.9200  150.3030 C   0  0  0  0  0  3  0  0  0  0  0  0
  162.6100  207.8800  147.8760 C   0  0  0  0  0  2  0  0  0  0  0  0
  161.7380  210.1560  148.7640 C   0  0  2  0  0  3  0  0  0  0  0  0
  162.7150  207.0000  149.0540 N   0  0  0  0  0  2  0  0  0  0  0  0
  162.1260  211.5700  149.0330 C   0  0  0  0  0  0  0  0  0  0  0  0
  161.4120  210.8080  151.1380 C   0  0  1  0  0  0  0  0  0  0  0  0
  161.7290  212.9330  147.0000 O   0  0  0  0  0  0  0  0  0  0  0  0
  162.5960  212.5040  147.9990 C   0  0  0  0  0  0  0  0  0  0  0  0
  163.7830  212.9250  148.0090 O   0  0  0  0  0  1  0  0  0  0  0  0
  160.0620  211.1470  151.6220 N   0  0  0  0  0  2  0  0  0  0  0  0
  157.4460  213.5680  152.6720 O   0  0  0  0  0  0  0  0  0  0  0  0
  160.0480  212.2430  152.6020 C   0  0  1  0  0  3  0  0  0  0  0  0
  157.9320  212.9300  150.4890 O   0  0  0  0  0  1  0  0  0  0  0  0
  158.2930  213.7590  151.5560 C   0  0  2  0  0  3  0  0  0  0  0  0
  159.7750  213.5930  151.9250 C   0  0  0  0  0  2  0  0  0  0  0  0
  157.5800  212.2430  153.1370 C   0  0  0  0  0  2  0  0  0  0  0  0
  158.9880  212.0090  153.6880 C   0  0  1  0  0  3  0  0  0  0  0  0
  159.1230  210.6880  154.4480 C   0  0  0  0  0  2  0  0  0  0  0  0
  158.9480  210.8430  155.9560 C   0  0  0  0  0  2  0  0  0  0  0  0
  161.2340  211.0930  156.7230 C   0  0  0  0  0  3  0  0  0  0  0  0
  162.3330  211.7720  157.2370 O   0  0  0  0  0  1  0  0  0  0  0  0
  160.0520  211.6770  156.5220 C   0  0  0  0  0  0  0  0  0  0  0  0
  159.7990  213.1060  156.8150 C   0  0  0  0  0  0  0  0  0  0  0  0
  160.8160  213.9420  157.2600 O   0  0  0  0  0  1  0  0  0  0  0  0
  158.6440  213.5850  156.6610 O   0  0  0  0  0  0  0  0  0  0  0  0
  162.3140  206.4370  151.4890 C   0  0  0  0  0  2  0  0  0  0  0  0
  161.5220  205.7030  153.7060 C   0  0  1  0  0  3  0  0  0  0  0  0
  161.2280  206.6400  152.5460 C   0  0  1  0  0  0  0  0  0  0  0  0
  161.8030  207.1900  153.8330 C   0  0  1  0  0  3  0  0  0  0  0  0
  160.3110  205.4470  152.8290 C   0  0  1  0  0  3  0  0  0  0  0  0
  161.4600  202.3360  150.0700 C   0  0  0  0  0  2  0  0  0  0  0  0
  161.3260  203.7630  149.5390 C   0  0  2  0  0  3  0  0  0  0  0  0
  160.4460  204.6220  150.4630 C   0  0  0  0  0  2  0  0  0  0  0  0
  160.5560  204.2310  151.9440 C   0  0  1  0  0  3  0  0  0  0  0  0
  161.9170  203.6110  152.2480 C   0  0  0  0  0  2  0  0  0  0  0  0
  161.5160  201.2680  152.1930 F   0  0  0  0  0  0  0  0  0  0  0  0
  162.0860  202.3000  151.4730 C   0  0  1  0  0  3  0  0  0  0  0  0
  160.7510  203.7360  148.1360 C   0  0  0  0  0  2  0  0  0  0  0  0
  160.4880  206.6960  145.9980 O   0  0  0  0  0  0  0  0  0  0  0  0
  160.7480  205.5120  146.3350 C   0  0  0  0  0  0  0  0  0  0  0  0
  160.4970  205.0940  147.6770 N   0  0  0  0  0  2  0  0  0  0  0  0
  161.3340  204.5750  145.3270 C   0  0  0  0  0  2  0  0  0  0  0  0
  159.5650  203.2480  144.3040 N   0  0  0  0  0  1  0  0  0  0  0  0
  160.4080  204.4170  144.1320 C   0  0  0  0  0  2  0  0  0  0  0  0
  160.7730  207.8150  154.5870 O   0  0  0  0  0  0  0  0  0  0  0  0
  160.4810  207.4320  155.8970 C   0  0  0  0  0  0  0  0  0  0  0  0
  161.3280  207.5830  156.8180 O   0  0  0  0  0  0  0  0  0  0  0  0
  159.2100  206.8720  156.1970 N   0  0  0  0  0  1  0  0  0  0  0  0
  1  4  2  0  0  0  0
  1 11  1  0  0  0  0
  5  4  2  0  0  0  0
  5 31  1  0  0  0  0
  6 11  1  0  0  0  0
  7  2  1  0  0  0  0
  7  9  1  0  0  0  0
  8  2  1  1  0  0  0
  8 10  1  0  0  0  0
  8  1  1  0  0  0  0
  9  5  1  0  0  0  0
 10  6  2  0  0  0  0
 11 15  1  0  0  0  0
 11  3  1  1  0  0  0
 12 13  2  0  0  0  0
 13 14  1  0  0  0  0
 13 10  1  0  0  0  0
 16 21  1  0  0  0  0
 17 15  1  6  0  0  0
 17 22  1  0  0  0  0
 19 18  1  6  0  0  0
 19 20  1  0  0  0  0
 19 16  1  0  0  0  0
 20 17  1  0  0  0  0
 21 22  1  0  0  0  0
 22 23  1  6  0  0  0
 23 24  1  0  0  0  0
 24 27  1  0  0  0  0
 25 26  1  0  0  0  0
 27 25  2  0  0  0  0
 27 28  1  0  0  0  0
 28 29  1  0  0  0  0
 30 28  2  0  0  0  0
 31 33  1  0  0  0  0
 32 34  1  0  0  0  0
 33 35  1  0  0  0  0
 33 32  1  0  0  0  0
 33 34  1  0  0  0  0
 34 50  1  0  0  0  0
 35 32  1  0  0  0  0
 36 42  1  0  0  0  0
 37 36  1  0  0  0  0
 37 38  1  0  0  0  0
 38 39  1  0  0  0  0
 39 40  1  0  0  0  0
 39 35  1  0  0  0  0
 42 41  1  0  0  0  0
 42 40  1  0  0  0  0
 43 37  1  0  0  0  0
 44 45  2  0  0  0  0
 45 46  1  0  0  0  0
 46 43  1  0  0  0  0
 47 45  1  0  0  0  0
 49 48  1  0  0  0  0
 49 47  1  0  0  0  0
 50 51  1  0  0  0  0
 51 53  1  0  0  0  0
 51 52  2  0  0  0  0
M  END
>  <MODEL>
3

>  <REMARK>
 VINA RESULT:      -3.5      1.558      2.144
  Name = 
  16 active torsions:
  status: ('A' for Active; 'I' for Inactive)
    1  A    between atoms: C_6  and  N_15
    2  A    between atoms: O_10  and  C_16
    3  A    between atoms: O_10  and  C_44
    4  A    between atoms: C_11  and  C_43
    5  A    between atoms: C_14  and  C_20
    6  A    between atoms: N_15  and  C_52
    7  A    between atoms: C_20  and  C_28
    8  A    between atoms: C_21  and  C_47
    9  A    between atoms: C_22  and  C_38
   10  A    between atoms: C_26  and  C_42
   11  A    between atoms: C_29  and  C_51
   12  A    between atoms: C_34  and  C_38
   13  A    between atoms: N_35  and  C_43
   14  A    between atoms: C_41  and  C_45
   15  A    between atoms: C_41  and  C_53
   16  A    between atoms: C_42  and  C_53
                            x       y       z     vdW  Elec       q    Type
                         _______ _______ _______ _____ _____    ______ ____

>  <TORSDO>
F 16

$$$$
=
 OpenBabel11072411403D

 53 58  0  0  1  0  0  0  0  0999 V2000
  161.2830  206.6650  149.5200 C   0  0  0  0  0  0  0  0  0  0  0  0
  162.3190  208.3750  147.9230 C   0  0  0  0  0  2  0  0  0  0  0  0
  158.7720  206.5240  149.3760 C   0  0  0  0  0  1  0  0  0  0  0  0
  161.2350  207.6470  150.3680 C   0  0  0  0  0  0  0  0  0  0  0  0
  161.4050  208.8360  150.8480 C   0  0  0  0  0  0  0  0  0  0  0  0
  160.3370  205.5450  147.7170 C   0  0  0  0  0  3  0  0  0  0  0  0
  163.0870  209.2220  148.9650 C   0  0  0  0  0  2  0  0  0  0  0  0
  162.1760  206.8770  148.3260 C   0  0  2  0  0  3  0  0  0  0  0  0
  162.2180  209.7100  150.0510 N   0  0  0  0  0  2  0  0  0  0  0  0
  161.4490  206.1170  147.2700 C   0  0  0  0  0  0  0  0  0  0  0  0
  160.1070  205.7970  149.1720 C   0  0  1  0  0  0  0  0  0  0  0  0
  161.0540  206.1520  144.8220 O   0  0  0  0  0  0  0  0  0  0  0  0
  161.9280  205.9670  145.8880 C   0  0  0  0  0  0  0  0  0  0  0  0
  163.1300  205.6720  145.6560 O   0  0  0  0  0  1  0  0  0  0  0  0
  160.1990  204.5390  149.9330 N   0  0  0  0  0  2  0  0  0  0  0  0
  161.7360  201.8940  152.0430 O   0  0  0  0  0  0  0  0  0  0  0  0
  161.5710  204.0230  150.0500 C   0  0  1  0  0  3  0  0  0  0  0  0
  160.2040  203.4970  152.7460 O   0  0  0  0  0  1  0  0  0  0  0  0
  161.5480  203.2300  152.4680 C   0  0  2  0  0  3  0  0  0  0  0  0
  162.1280  204.2380  151.4640 C   0  0  0  0  0  2  0  0  0  0  0  0
  161.0320  201.6850  150.8380 C   0  0  0  0  0  2  0  0  0  0  0  0
  161.6380  202.5270  149.7120 C   0  0  1  0  0  3  0  0  0  0  0  0
  161.1010  202.1520  148.3290 C   0  0  0  0  0  2  0  0  0  0  0  0
  161.1310  200.6500  148.0610 C   0  0  0  0  0  2  0  0  0  0  0  0
  161.3940  199.1670  146.1610 C   0  0  0  0  0  3  0  0  0  0  0  0
  161.3660  198.8070  144.8190 O   0  0  0  0  0  1  0  0  0  0  0  0
  161.0690  200.3870  146.5900 C   0  0  0  0  0  0  0  0  0  0  0  0
  160.6340  201.4720  145.6810 C   0  0  0  0  0  0  0  0  0  0  0  0
  159.4740  201.3570  144.9250 O   0  0  0  0  0  0  0  0  0  0  0  0
  161.3210  202.5230  145.5830 O   0  0  0  0  0  1  0  0  0  0  0  0
  160.4060  209.4140  151.7940 C   0  0  0  0  0  2  0  0  0  0  0  0
  160.1260  210.1350  154.1340 C   0  0  1  0  0  3  0  0  0  0  0  0
  161.1200  210.0460  152.9890 C   0  0  1  0  0  0  0  0  0  0  0  0
  161.2180  209.0820  154.1500 C   0  0  1  0  0  3  0  0  0  0  0  0
  160.6010  211.4080  153.4590 C   0  0  1  0  0  3  0  0  0  0  0  0
  157.5100  213.5790  151.3750 C   0  0  0  0  0  2  0  0  0  0  0  0
  157.5380  213.6430  152.9020 C   0  0  2  0  0  3  0  0  0  0  0  0
  158.3240  212.4620  153.4960 C   0  0  0  0  0  2  0  0  0  0  0  0
  159.4830  211.9930  152.6050 C   0  0  1  0  0  3  0  0  0  0  0  0
  160.0090  213.1370  151.7420 C   0  0  0  0  0  2  0  0  0  0  0  0
  158.9460  212.8200  149.6400 F   0  0  0  0  0  0  0  0  0  0  0  0
  158.9230  213.6110  150.7720 C   0  0  1  0  0  3  0  0  0  0  0  0
  156.1200  213.6590  153.4410 C   0  0  0  0  0  2  0  0  0  0  0  0
  155.5090  211.6170  156.4170 O   0  0  0  0  0  0  0  0  0  0  0  0
  155.7060  212.6470  155.7220 C   0  0  0  0  0  0  0  0  0  0  0  0
  155.9070  212.5140  154.3130 N   0  0  0  0  0  2  0  0  0  0  0  0
  155.7490  213.9850  156.3880 C   0  0  0  0  0  2  0  0  0  0  0  0
  157.8950  213.0210  157.0240 N   0  0  0  0  0  1  0  0  0  0  0  0
  157.1230  214.2500  156.9800 C   0  0  0  0  0  2  0  0  0  0  0  0
  162.2690  209.4850  155.0180 O   0  0  0  0  0  0  0  0  0  0  0  0
  162.0350  209.8210  156.3520 C   0  0  0  0  0  0  0  0  0  0  0  0
  162.3000  210.9750  156.7840 O   0  0  0  0  0  0  0  0  0  0  0  0
  161.4810  208.8520  157.2320 N   0  0  0  0  0  1  0  0  0  0  0  0
  1  4  2  0  0  0  0
  2  7  1  0  0  0  0
  4  5  2  0  0  0  0
  5 31  1  0  0  0  0
  6 11  1  0  0  0  0
  7  9  1  0  0  0  0
  8  2  1  6  0  0  0
  8  1  1  0  0  0  0
  9  5  1  0  0  0  0
 10  6  2  0  0  0  0
 10  8  1  0  0  0  0
 11  3  1  1  0  0  0
 11  1  1  0  0  0  0
 11 15  1  0  0  0  0
 12 13  2  0  0  0  0
 13 10  1  0  0  0  0
 14 13  1  0  0  0  0
 16 19  1  0  0  0  0
 17 15  1  1  0  0  0
 17 20  1  0  0  0  0
 19 18  1  6  0  0  0
 20 19  1  0  0  0  0
 21 16  1  0  0  0  0
 22 23  1  6  0  0  0
 22 17  1  0  0  0  0
 22 21  1  0  0  0  0
 24 23  1  0  0  0  0
 25 27  2  0  0  0  0
 26 25  1  0  0  0  0
 27 24  1  0  0  0  0
 28 27  1  0  0  0  0
 29 28  2  0  0  0  0
 30 28  1  0  0  0  0
 31 33  1  0  0  0  0
 32 34  1  0  0  0  0
 33 35  1  0  0  0  0
 33 32  1  0  0  0  0
 33 34  1  0  0  0  0
 34 50  1  0  0  0  0
 35 32  1  0  0  0  0
 36 37  1  0  0  0  0
 37 43  1  0  0  0  0
 37 38  1  0  0  0  0
 39 35  1  0  0  0  0
 39 38  1  0  0  0  0
 40 39  1  0  0  0  0
 41 42  1  0  0  0  0
 42 36  1  0  0  0  0
 42 40  1  0  0  0  0
 43 46  1  0  0  0  0
 45 47  1  0  0  0  0
 45 44  2  0  0  0  0
 46 45  1  0  0  0  0
 47 49  1  0  0  0  0
 49 48  1  0  0  0  0
 50 51  1  0  0  0  0
 51 52  2  0  0  0  0
 51 53  1  0  0  0  0
M  END
>  <MODEL>
4

>  <REMARK>
 VINA RESULT:      -3.5      3.153     10.220
  Name = 
  16 active torsions:
  status: ('A' for Active; 'I' for Inactive)
    1  A    between atoms: C_6  and  N_15
    2  A    between atoms: O_10  and  C_16
    3  A    between atoms: O_10  and  C_44
    4  A    between atoms: C_11  and  C_43
    5  A    between atoms: C_14  and  C_20
    6  A    between atoms: N_15  and  C_52
    7  A    between atoms: C_20  and  C_28
    8  A    between atoms: C_21  and  C_47
    9  A    between atoms: C_22  and  C_38
   10  A    between atoms: C_26  and  C_42
   11  A    between atoms: C_29  and  C_51
   12  A    between atoms: C_34  and  C_38
   13  A    between atoms: N_35  and  C_43
   14  A    between atoms: C_41  and  C_45
   15  A    between atoms: C_41  and  C_53
   16  A    between atoms: C_42  and  C_53
                            x       y       z     vdW  Elec       q    Type
                         _______ _______ _______ _____ _____    ______ ____

>  <TORSDO>
F 16

$$$$
=
 OpenBabel11072411403D

 53 58  0  0  1  0  0  0  0  0999 V2000
  161.6330  206.8380  149.3830 C   0  0  0  0  0  0  0  0  0  0  0  0
  161.7840  208.6890  147.6220 C   0  0  0  0  0  2  0  0  0  0  0  0
  159.2840  206.0520  149.8390 C   0  0  0  0  0  1  0  0  0  0  0  0
  161.5340  207.8090  150.2390 C   0  0  0  0  0  0  0  0  0  0  0  0
  161.4980  209.0210  150.6910 C   0  0  0  0  0  0  0  0  0  0  0  0
  160.6120  205.4400  147.8330 C   0  0  0  0  0  3  0  0  0  0  0  0
  162.5290  209.7470  148.4690 C   0  0  0  0  0  2  0  0  0  0  0  0
  162.1330  207.2230  148.0160 C   0  0  2  0  0  3  0  0  0  0  0  0
  161.8440  210.0410  149.7420 N   0  0  0  0  0  2  0  0  0  0  0  0
  161.3990  206.2590  147.1470 C   0  0  0  0  0  0  0  0  0  0  0  0
  160.6740  205.6840  149.3070 C   0  0  1  0  0  0  0  0  0  0  0  0
  162.8090  205.9080  145.1370 O   0  0  0  0  0  1  0  0  0  0  0  0
  161.5610  206.1790  145.6870 C   0  0  0  0  0  0  0  0  0  0  0  0
  160.5750  206.3540  144.9240 O   0  0  0  0  0  0  0  0  0  0  0  0
  161.2670  204.5240  149.9960 N   0  0  0  0  0  2  0  0  0  0  0  0
  161.2620  200.8100  149.8700 O   0  0  0  0  0  0  0  0  0  0  0  0
  160.2790  203.5100  150.3950 C   0  0  1  0  0  3  0  0  0  0  0  0
  161.9950  202.2420  148.1900 O   0  0  0  0  0  1  0  0  0  0  0  0
  160.8850  201.6350  148.7850 C   0  0  2  0  0  3  0  0  0  0  0  0
  159.8260  202.6710  149.1930 C   0  0  0  0  0  2  0  0  0  0  0  0
  161.8640  201.6030  150.8700 C   0  0  0  0  0  2  0  0  0  0  0  0
  160.8440  202.5720  151.4710 C   0  0  1  0  0  3  0  0  0  0  0  0
  161.3530  203.2700  152.7340 C   0  0  0  0  0  2  0  0  0  0  0  0
  160.4060  204.3520  153.2440 C   0  0  0  0  0  2  0  0  0  0  0  0
  162.2160  205.8930  152.7630 C   0  0  0  0  0  3  0  0  0  0  0  0
  162.9890  207.0350  152.9350 O   0  0  0  0  0  1  0  0  0  0  0  0
  161.1640  205.6080  153.5330 C   0  0  0  0  0  0  0  0  0  0  0  0
  160.7120  206.4850  154.6360 C   0  0  0  0  0  0  0  0  0  0  0  0
  161.4950  206.6830  155.7670 O   0  0  0  0  0  1  0  0  0  0  0  0
  159.5990  207.0700  154.5590 O   0  0  0  0  0  0  0  0  0  0  0  0
  160.6350  209.3620  151.8590 C   0  0  0  0  0  2  0  0  0  0  0  0
  160.4190  210.7450  153.8890 C   0  0  1  0  0  3  0  0  0  0  0  0
  161.3950  210.2730  152.8240 C   0  0  1  0  0  0  0  0  0  0  0  0
  161.4530  209.6820  154.2160 C   0  0  1  0  0  3  0  0  0  0  0  0
  160.9560  211.7380  152.8760 C   0  0  1  0  0  3  0  0  0  0  0  0
  157.8640  213.3500  150.3350 C   0  0  0  0  0  2  0  0  0  0  0  0
  157.7680  213.5960  151.8400 C   0  0  2  0  0  3  0  0  0  0  0  0
  158.6020  212.5720  152.6280 C   0  0  0  0  0  2  0  0  0  0  0  0
  159.8630  212.1120  151.8820 C   0  0  1  0  0  3  0  0  0  0  0  0
  160.3560  213.1910  150.9220 C   0  0  0  0  0  2  0  0  0  0  0  0
  159.4910  212.5310  148.8080 F   0  0  0  0  0  0  0  0  0  0  0  0
  159.3130  213.4440  149.8290 C   0  0  1  0  0  3  0  0  0  0  0  0
  156.3160  213.5420  152.2760 C   0  0  0  0  0  2  0  0  0  0  0  0
  155.7400  214.3150  155.8080 O   0  0  0  0  0  0  0  0  0  0  0  0
  155.8580  213.6250  154.7630 C   0  0  0  0  0  0  0  0  0  0  0  0
  156.1440  214.2740  153.5220 N   0  0  0  0  0  2  0  0  0  0  0  0
  155.6750  212.1420  154.8380 C   0  0  0  0  0  2  0  0  0  0  0  0
  157.7900  212.4980  155.9940 N   0  0  0  0  0  1  0  0  0  0  0  0
  156.8110  211.4960  155.6130 C   0  0  0  0  0  2  0  0  0  0  0  0
  162.5330  210.2610  154.9350 O   0  0  0  0  0  0  0  0  0  0  0  0
  162.5410  210.3210  156.3290 C   0  0  0  0  0  0  0  0  0  0  0  0
  163.4810  210.8910  156.9460 O   0  0  0  0  0  0  0  0  0  0  0  0
  161.4710  209.7400  157.0630 N   0  0  0  0  0  1  0  0  0  0  0  0
  1  4  2  0  0  0  0
  2  7  1  0  0  0  0
  4  5  2  0  0  0  0
  5 31  1  0  0  0  0
  6 11  1  0  0  0  0
  7  9  1  0  0  0  0
  8  2  1  6  0  0  0
  8  1  1  0  0  0  0
  9  5  1  0  0  0  0
 10  6  2  0  0  0  0
 10  8  1  0  0  0  0
 11  1  1  0  0  0  0
 11  3  1  1  0  0  0
 11 15  1  0  0  0  0
 12 13  1  0  0  0  0
 13 10  1  0  0  0  0
 14 13  2  0  0  0  0
 16 21  1  0  0  0  0
 17 15  1  6  0  0  0
 17 22  1  0  0  0  0
 19 18  1  1  0  0  0
 19 20  1  0  0  0  0
 19 16  1  0  0  0  0
 20 17  1  0  0  0  0
 21 22  1  0  0  0  0
 22 23  1  1  0  0  0
 23 24  1  0  0  0  0
 24 27  1  0  0  0  0
 25 26  1  0  0  0  0
 25 27  2  0  0  0  0
 27 28  1  0  0  0  0
 28 29  1  0  0  0  0
 30 28  2  0  0  0  0
 31 33  1  0  0  0  0
 32 34  1  0  0  0  0
 33 35  1  0  0  0  0
 33 32  1  0  0  0  0
 33 34  1  0  0  0  0
 34 50  1  0  0  0  0
 35 32  1  0  0  0  0
 36 37  1  0  0  0  0
 37 43  1  0  0  0  0
 37 38  1  0  0  0  0
 39 38  1  0  0  0  0
 39 35  1  0  0  0  0
 40 39  1  0  0  0  0
 41 42  1  0  0  0  0
 42 36  1  0  0  0  0
 42 40  1  0  0  0  0
 43 46  1  0  0  0  0
 45 47  1  0  0  0  0
 45 44  2  0  0  0  0
 46 45  1  0  0  0  0
 47 49  1  0  0  0  0
 49 48  1  0  0  0  0
 50 51  1  0  0  0  0
 51 52  2  0  0  0  0
 51 53  1  0  0  0  0
M  END
>  <MODEL>
5

>  <REMARK>
 VINA RESULT:      -3.3      2.994      8.826
  Name = 
  16 active torsions:
  status: ('A' for Active; 'I' for Inactive)
    1  A    between atoms: C_6  and  N_15
    2  A    between atoms: O_10  and  C_16
    3  A    between atoms: O_10  and  C_44
    4  A    between atoms: C_11  and  C_43
    5  A    between atoms: C_14  and  C_20
    6  A    between atoms: N_15  and  C_52
    7  A    between atoms: C_20  and  C_28
    8  A    between atoms: C_21  and  C_47
    9  A    between atoms: C_22  and  C_38
   10  A    between atoms: C_26  and  C_42
   11  A    between atoms: C_29  and  C_51
   12  A    between atoms: C_34  and  C_38
   13  A    between atoms: N_35  and  C_43
   14  A    between atoms: C_41  and  C_45
   15  A    between atoms: C_41  and  C_53
   16  A    between atoms: C_42  and  C_53
                            x       y       z     vdW  Elec       q    Type
                         _______ _______ _______ _____ _____    ______ ____

>  <TORSDO>
F 16

$$$$
=
 OpenBabel11072411403D

 53 58  0  0  1  0  0  0  0  0999 V2000
  161.3420  209.7140  150.5590 C   0  0  0  0  0  0  0  0  0  0  0  0
  162.0510  209.3150  148.1330 C   0  0  0  0  0  2  0  0  0  0  0  0
  163.2680  209.8390  152.1780 C   0  0  0  0  0  1  0  0  0  0  0  0
  161.2850  208.4190  150.6410 C   0  0  0  0  0  0  0  0  0  0  0  0
  161.3370  207.1830  150.2660 C   0  0  0  0  0  0  0  0  0  0  0  0
  162.6160  211.6570  150.6180 C   0  0  0  0  0  3  0  0  0  0  0  0
  161.2220  208.0380  147.8620 C   0  0  0  0  0  2  0  0  0  0  0  0
  161.3870  210.2760  149.1630 C   0  0  2  0  0  3  0  0  0  0  0  0
  161.4750  206.9760  148.8520 N   0  0  0  0  0  2  0  0  0  0  0  0
  162.2260  211.4930  149.3590 C   0  0  0  0  0  0  0  0  0  0  0  0
  162.0990  210.5840  151.5220 C   0  0  1  0  0  0  0  0  0  0  0  0
  163.7060  212.2790  147.5310 O   0  0  0  0  0  0  0  0  0  0  0  0
  162.5530  212.4480  148.2890 C   0  0  0  0  0  0  0  0  0  0  0  0
  161.7930  213.4230  148.0490 O   0  0  0  0  0  1  0  0  0  0  0  0
  161.1530  211.1490  152.5010 N   0  0  0  0  0  2  0  0  0  0  0  0
  158.0650  211.5640  154.5260 O   0  0  0  0  0  0  0  0  0  0  0  0
  159.7780  210.6540  152.3420 C   0  0  1  0  0  3  0  0  0  0  0  0
  160.1980  211.1240  155.3450 O   0  0  0  0  0  1  0  0  0  0  0  0
  159.0440  210.5740  154.7770 C   0  0  2  0  0  3  0  0  0  0  0  0
  159.3690  209.7560  153.5180 C   0  0  0  0  0  2  0  0  0  0  0  0
  158.5680  212.4880  153.5860 C   0  0  0  0  0  2  0  0  0  0  0  0
  158.7760  211.8120  152.2300 C   0  0  1  0  0  3  0  0  0  0  0  0
  159.0620  212.8060  151.1020 C   0  0  0  0  0  2  0  0  0  0  0  0
  158.2760  214.1070  151.2370 C   0  0  0  0  0  2  0  0  0  0  0  0
  155.9090  214.1570  150.7150 C   0  0  0  0  0  3  0  0  0  0  0  0
  154.7930  214.1950  149.8870 O   0  0  0  0  0  1  0  0  0  0  0  0
  157.1580  214.1410  150.2460 C   0  0  0  0  0  0  0  0  0  0  0  0
  157.4760  214.1730  148.8000 C   0  0  0  0  0  0  0  0  0  0  0  0
  156.5050  213.9070  147.8420 O   0  0  0  0  0  0  0  0  0  0  0  0
  158.6450  214.4460  148.4190 O   0  0  0  0  0  1  0  0  0  0  0  0
  161.7980  206.1280  151.2150 C   0  0  0  0  0  2  0  0  0  0  0  0
  161.2890  204.8720  153.2750 C   0  0  1  0  0  3  0  0  0  0  0  0
  160.8150  206.0050  152.3800 C   0  0  1  0  0  0  0  0  0  0  0  0
  161.4820  206.3160  153.7030 C   0  0  1  0  0  3  0  0  0  0  0  0
  160.0140  204.7040  152.4710 C   0  0  1  0  0  3  0  0  0  0  0  0
  161.2490  202.1700  149.2060 C   0  0  0  0  0  2  0  0  0  0  0  0
  161.6310  203.6480  149.1610 C   0  0  2  0  0  3  0  0  0  0  0  0
  160.7210  204.4880  150.0730 C   0  0  0  0  0  2  0  0  0  0  0  0
  160.2460  203.7310  151.3210 C   0  0  1  0  0  3  0  0  0  0  0  0
  161.2500  202.6540  151.7250 C   0  0  0  0  0  2  0  0  0  0  0  0
  160.3580  200.6520  150.8030 F   0  0  0  0  0  0  0  0  0  0  0  0
  161.3550  201.5910  150.6260 C   0  0  1  0  0  3  0  0  0  0  0  0
  161.5580  204.1530  147.7320 C   0  0  0  0  0  2  0  0  0  0  0  0
  160.4780  202.2530  144.7950 O   0  0  0  0  0  0  0  0  0  0  0  0
  160.6940  203.2490  145.5330 C   0  0  0  0  0  0  0  0  0  0  0  0
  161.2600  203.0510  146.8300 N   0  0  0  0  0  2  0  0  0  0  0  0
  160.3330  204.6160  145.0450 C   0  0  0  0  0  2  0  0  0  0  0  0
  162.4650  205.7940  145.0890 N   0  0  0  0  0  1  0  0  0  0  0  0
  161.4610  205.2100  144.2180 C   0  0  0  0  0  2  0  0  0  0  0  0
  160.4960  206.6740  154.6620 O   0  0  0  0  0  0  0  0  0  0  0  0
  160.8200  207.3700  155.8270 C   0  0  0  0  0  0  0  0  0  0  0  0
  161.8050  208.1540  155.8580 O   0  0  0  0  0  0  0  0  0  0  0  0
  160.0220  207.1990  156.9910 N   0  0  0  0  0  1  0  0  0  0  0  0
  1  4  2  0  0  0  0
  1 11  1  0  0  0  0
  5  4  2  0  0  0  0
  5 31  1  0  0  0  0
  6 11  1  0  0  0  0
  7  2  1  0  0  0  0
  7  9  1  0  0  0  0
  8  2  1  6  0  0  0
  8 10  1  0  0  0  0
  8  1  1  0  0  0  0
  9  5  1  0  0  0  0
 10  6  2  0  0  0  0
 11  3  1  1  0  0  0
 11 15  1  0  0  0  0
 12 13  2  0  0  0  0
 13 10  1  0  0  0  0
 14 13  1  0  0  0  0
 16 19  1  0  0  0  0
 17 15  1  1  0  0  0
 17 20  1  0  0  0  0
 19 18  1  6  0  0  0
 20 19  1  0  0  0  0
 21 16  1  0  0  0  0
 22 23  1  6  0  0  0
 22 17  1  0  0  0  0
 22 21  1  0  0  0  0
 23 24  1  0  0  0  0
 26 25  1  0  0  0  0
 27 25  2  0  0  0  0
 27 24  1  0  0  0  0
 28 27  1  0  0  0  0
 29 28  2  0  0  0  0
 30 28  1  0  0  0  0
 31 33  1  0  0  0  0
 32 34  1  0  0  0  0
 33 35  1  0  0  0  0
 33 32  1  0  0  0  0
 33 34  1  0  0  0  0
 34 50  1  0  0  0  0
 35 32  1  0  0  0  0
 36 42  1  0  0  0  0
 37 36  1  0  0  0  0
 37 38  1  0  0  0  0
 38 39  1  0  0  0  0
 39 40  1  0  0  0  0
 39 35  1  0  0  0  0
 42 41  1  0  0  0  0
 42 40  1  0  0  0  0
 43 37  1  0  0  0  0
 44 45  2  0  0  0  0
 45 46  1  0  0  0  0
 46 43  1  0  0  0  0
 47 45  1  0  0  0  0
 49 47  1  0  0  0  0
 49 48  1  0  0  0  0
 50 51  1  0  0  0  0
 51 52  2  0  0  0  0
 51 53  1  0  0  0  0
M  END
>  <MODEL>
6

>  <REMARK>
 VINA RESULT:      -3.3      1.609      3.094
  Name = 
  16 active torsions:
  status: ('A' for Active; 'I' for Inactive)
    1  A    between atoms: C_6  and  N_15
    2  A    between atoms: O_10  and  C_16
    3  A    between atoms: O_10  and  C_44
    4  A    between atoms: C_11  and  C_43
    5  A    between atoms: C_14  and  C_20
    6  A    between atoms: N_15  and  C_52
    7  A    between atoms: C_20  and  C_28
    8  A    between atoms: C_21  and  C_47
    9  A    between atoms: C_22  and  C_38
   10  A    between atoms: C_26  and  C_42
   11  A    between atoms: C_29  and  C_51
   12  A    between atoms: C_34  and  C_38
   13  A    between atoms: N_35  and  C_43
   14  A    between atoms: C_41  and  C_45
   15  A    between atoms: C_41  and  C_53
   16  A    between atoms: C_42  and  C_53
                            x       y       z     vdW  Elec       q    Type
                         _______ _______ _______ _____ _____    ______ ____

>  <TORSDO>
F 16

$$$$
=
 OpenBabel11072411403D

 53 58  0  0  1  0  0  0  0  0999 V2000
  161.1820  206.7170  149.6240 C   0  0  0  0  0  0  0  0  0  0  0  0
  162.0680  208.4800  147.9940 C   0  0  0  0  0  2  0  0  0  0  0  0
  158.6690  206.5460  149.6750 C   0  0  0  0  0  1  0  0  0  0  0  0
  161.1900  207.6780  150.4980 C   0  0  0  0  0  0  0  0  0  0  0  0
  161.3830  208.8570  150.9930 C   0  0  0  0  0  0  0  0  0  0  0  0
  160.1100  205.6290  147.8730 C   0  0  0  0  0  3  0  0  0  0  0  0
  162.9050  209.3120  148.9940 C   0  0  0  0  0  2  0  0  0  0  0  0
  161.9760  206.9720  148.3690 C   0  0  2  0  0  3  0  0  0  0  0  0
  162.1190  209.7620  150.1570 N   0  0  0  0  0  2  0  0  0  0  0  0
  161.1760  206.2280  147.3550 C   0  0  0  0  0  0  0  0  0  0  0  0
  159.9920  205.8420  149.3480 C   0  0  1  0  0  0  0  0  0  0  0  0
  160.5760  206.2500  144.9490 O   0  0  0  0  0  0  0  0  0  0  0  0
  161.5460  206.1180  145.9350 C   0  0  0  0  0  0  0  0  0  0  0  0
  162.7410  205.9050  145.6010 O   0  0  0  0  0  1  0  0  0  0  0  0
  160.1600  204.5670  150.0660 N   0  0  0  0  0  2  0  0  0  0  0  0
  161.8040  201.8070  151.9340 O   0  0  0  0  0  0  0  0  0  0  0  0
  161.5640  204.1590  150.2190 C   0  0  1  0  0  3  0  0  0  0  0  0
  160.0870  203.1670  152.7190 O   0  0  0  0  0  1  0  0  0  0  0  0
  161.4650  203.0540  152.5090 C   0  0  2  0  0  3  0  0  0  0  0  0
  162.0100  204.2320  151.6860 C   0  0  0  0  0  2  0  0  0  0  0  0
  161.2000  201.7000  150.6640 C   0  0  0  0  0  2  0  0  0  0  0  0
  161.7920  202.7320  149.7010 C   0  0  1  0  0  3  0  0  0  0  0  0
  161.3810  202.4990  148.2460 C   0  0  0  0  0  2  0  0  0  0  0  0
  160.6140  201.1960  148.0410 C   0  0  0  0  0  2  0  0  0  0  0  0
  161.2550  199.4590  146.4750 C   0  0  0  0  0  3  0  0  0  0  0  0
  161.4590  198.8930  145.2220 O   0  0  0  0  0  1  0  0  0  0  0  0
  160.7990  200.7020  146.6420 C   0  0  0  0  0  0  0  0  0  0  0  0
  160.4570  201.5930  145.5110 C   0  0  0  0  0  0  0  0  0  0  0  0
  161.1970  202.7390  145.2460 O   0  0  0  0  0  1  0  0  0  0  0  0
  159.4770  201.3180  144.7670 O   0  0  0  0  0  0  0  0  0  0  0  0
  160.4550  209.3980  152.0290 C   0  0  0  0  0  2  0  0  0  0  0  0
  160.0730  209.4360  154.4640 C   0  0  1  0  0  3  0  0  0  0  0  0
  161.1480  209.4270  153.3910 C   0  0  1  0  0  0  0  0  0  0  0  0
  160.8640  208.1710  154.1850 C   0  0  1  0  0  3  0  0  0  0  0  0
  160.9240  210.6730  154.2510 C   0  0  1  0  0  3  0  0  0  0  0  0
  158.5500  213.3870  151.8810 C   0  0  0  0  0  2  0  0  0  0  0  0
  159.7410  212.6960  151.2180 C   0  0  2  0  0  3  0  0  0  0  0  0
  160.7520  212.1980  152.2650 C   0  0  0  0  0  2  0  0  0  0  0  0
  160.0970  211.7670  153.5850 C   0  0  1  0  0  3  0  0  0  0  0  0
  158.6640  211.2930  153.3580 C   0  0  0  0  0  2  0  0  0  0  0  0
  157.3290  213.1810  153.9110 F   0  0  0  0  0  0  0  0  0  0  0  0
  157.8010  212.4470  152.8390 C   0  0  1  0  0  3  0  0  0  0  0  0
  160.4120  213.6500  150.2480 C   0  0  0  0  0  2  0  0  0  0  0  0
  161.1170  212.2890  146.9240 O   0  0  0  0  0  0  0  0  0  0  0  0
  160.5280  212.9440  147.8220 C   0  0  0  0  0  0  0  0  0  0  0  0
  161.0260  212.9030  149.1610 N   0  0  0  0  0  2  0  0  0  0  0  0
  159.3070  213.7350  147.4730 C   0  0  0  0  0  2  0  0  0  0  0  0
  156.8750  213.6150  147.3800 N   0  0  0  0  0  1  0  0  0  0  0  0
  158.0950  212.8280  147.3450 C   0  0  0  0  0  2  0  0  0  0  0  0
  161.8670  207.9970  155.1780 O   0  0  0  0  0  0  0  0  0  0  0  0
  161.5940  208.1600  156.5360 C   0  0  0  0  0  0  0  0  0  0  0  0
  160.7960  207.3880  157.1330 O   0  0  0  0  0  0  0  0  0  0  0  0
  162.2320  209.2040  157.2600 N   0  0  0  0  0  1  0  0  0  0  0  0
  1  4  2  0  0  0  0
  2  7  1  0  0  0  0
  4  5  2  0  0  0  0
  5 31  1  0  0  0  0
  6 11  1  0  0  0  0
  7  9  1  0  0  0  0
  8  2  1  6  0  0  0
  8  1  1  0  0  0  0
  9  5  1  0  0  0  0
 10  6  2  0  0  0  0
 10  8  1  0  0  0  0
 11  1  1  0  0  0  0
 11  3  1  1  0  0  0
 11 15  1  0  0  0  0
 12 13  2  0  0  0  0
 13 10  1  0  0  0  0
 14 13  1  0  0  0  0
 16 19  1  0  0  0  0
 17 15  1  1  0  0  0
 17 20  1  0  0  0  0
 19 18  1  6  0  0  0
 20 19  1  0  0  0  0
 21 16  1  0  0  0  0
 22 23  1  6  0  0  0
 22 17  1  0  0  0  0
 22 21  1  0  0  0  0
 24 23  1  0  0  0  0
 25 27  2  0  0  0  0
 26 25  1  0  0  0  0
 27 24  1  0  0  0  0
 28 27  1  0  0  0  0
 29 28  1  0  0  0  0
 30 28  2  0  0  0  0
 31 33  1  0  0  0  0
 33 34  1  0  0  0  0
 33 35  1  0  0  0  0
 33 32  1  0  0  0  0
 34 32  1  0  0  0  0
 34 50  1  0  0  0  0
 35 32  1  0  0  0  0
 36 42  1  0  0  0  0
 37 36  1  0  0  0  0
 37 38  1  0  0  0  0
 38 39  1  0  0  0  0
 39 35  1  0  0  0  0
 40 39  1  0  0  0  0
 42 40  1  0  0  0  0
 42 41  1  0  0  0  0
 43 37  1  0  0  0  0
 44 45  2  0  0  0  0
 45 46  1  0  0  0  0
 46 43  1  0  0  0  0
 47 45  1  0  0  0  0
 49 48  1  0  0  0  0
 49 47  1  0  0  0  0
 50 51  1  0  0  0  0
 51 52  2  0  0  0  0
 51 53  1  0  0  0  0
M  END
>  <MODEL>
7

>  <REMARK>
 VINA RESULT:      -2.8      3.360      9.188
  Name = 
  16 active torsions:
  status: ('A' for Active; 'I' for Inactive)
    1  A    between atoms: C_6  and  N_15
    2  A    between atoms: O_10  and  C_16
    3  A    between atoms: O_10  and  C_44
    4  A    between atoms: C_11  and  C_43
    5  A    between atoms: C_14  and  C_20
    6  A    between atoms: N_15  and  C_52
    7  A    between atoms: C_20  and  C_28
    8  A    between atoms: C_21  and  C_47
    9  A    between atoms: C_22  and  C_38
   10  A    between atoms: C_26  and  C_42
   11  A    between atoms: C_29  and  C_51
   12  A    between atoms: C_34  and  C_38
   13  A    between atoms: N_35  and  C_43
   14  A    between atoms: C_41  and  C_45
   15  A    between atoms: C_41  and  C_53
   16  A    between atoms: C_42  and  C_53
                            x       y       z     vdW  Elec       q    Type
                         _______ _______ _______ _____ _____    ______ ____

>  <TORSDO>
F 16

$$$$
=
 OpenBabel11072411403D

 53 58  0  0  1  0  0  0  0  0999 V2000
  161.4050  209.5900  150.3810 C   0  0  0  0  0  0  0  0  0  0  0  0
  162.2140  209.0200  148.0210 C   0  0  0  0  0  2  0  0  0  0  0  0
  163.2640  209.8660  152.0590 C   0  0  0  0  0  1  0  0  0  0  0  0
  161.3600  208.3040  150.5590 C   0  0  0  0  0  0  0  0  0  0  0  0
  161.4420  207.0440  150.2810 C   0  0  0  0  0  0  0  0  0  0  0  0
  162.6520  211.5500  150.3410 C   0  0  0  0  0  3  0  0  0  0  0  0
  161.4120  207.7140  147.8160 C   0  0  0  0  0  2  0  0  0  0  0  0
  161.4990  210.0460  148.9490 C   0  0  2  0  0  3  0  0  0  0  0  0
  161.6380  206.7330  148.8930 N   0  0  0  0  0  2  0  0  0  0  0  0
  162.3150  211.2860  149.0840 C   0  0  0  0  0  0  0  0  0  0  0  0
  162.1130  210.5410  151.3040 C   0  0  1  0  0  0  0  0  0  0  0  0
  161.7390  212.4390  146.9650 O   0  0  0  0  0  0  0  0  0  0  0  0
  162.6720  212.1630  147.9580 C   0  0  0  0  0  0  0  0  0  0  0  0
  163.8220  212.6710  147.8830 O   0  0  0  0  0  1  0  0  0  0  0  0
  161.1230  211.1640  152.2000 N   0  0  0  0  0  2  0  0  0  0  0  0
  159.8950  210.6690  155.6720 O   0  0  0  0  0  0  0  0  0  0  0  0
  160.1910  210.2010  152.8040 C   0  0  1  0  0  3  0  0  0  0  0  0
  162.0910  211.1010  155.0380 O   0  0  0  0  0  1  0  0  0  0  0  0
  161.1020  210.1220  155.1780 C   0  0  2  0  0  3  0  0  0  0  0  0
  160.8870  209.3450  153.8700 C   0  0  0  0  0  2  0  0  0  0  0  0
  159.3950  211.6080  154.7440 C   0  0  0  0  0  2  0  0  0  0  0  0
  158.9890  210.9110  153.4440 C   0  0  1  0  0  3  0  0  0  0  0  0
  158.1970  211.8180  152.5000 C   0  0  0  0  0  2  0  0  0  0  0  0
  157.9740  213.2190  153.0620 C   0  0  0  0  0  2  0  0  0  0  0  0
  155.7700  214.1320  152.6300 C   0  0  0  0  0  3  0  0  0  0  0  0
  154.4210  214.3630  152.8770 O   0  0  0  0  0  1  0  0  0  0  0  0
  156.5390  213.4030  153.4390 C   0  0  0  0  0  0  0  0  0  0  0  0
  156.0300  212.7590  154.6710 C   0  0  0  0  0  0  0  0  0  0  0  0
  155.8780  213.4790  155.8500 O   0  0  0  0  0  1  0  0  0  0  0  0
  155.7250  211.5370  154.6630 O   0  0  0  0  0  0  0  0  0  0  0  0
  161.8780  206.0700  151.3240 C   0  0  0  0  0  2  0  0  0  0  0  0
  161.2070  204.8270  153.3450 C   0  0  1  0  0  3  0  0  0  0  0  0
  160.8210  205.9730  152.4240 C   0  0  1  0  0  0  0  0  0  0  0  0
  161.4100  206.2650  153.7870 C   0  0  1  0  0  3  0  0  0  0  0  0
  159.9820  204.6930  152.4610 C   0  0  1  0  0  3  0  0  0  0  0  0
  161.3600  202.1120  149.2920 C   0  0  0  0  0  2  0  0  0  0  0  0
  161.8250  203.5670  149.2950 C   0  0  2  0  0  3  0  0  0  0  0  0
  160.8850  204.4510  150.1320 C   0  0  0  0  0  2  0  0  0  0  0  0
  160.2610  203.7150  151.3270 C   0  0  1  0  0  3  0  0  0  0  0  0
  161.1640  202.5820  151.8060 C   0  0  0  0  0  2  0  0  0  0  0  0
  160.2490  200.6370  150.7890 F   0  0  0  0  0  0  0  0  0  0  0  0
  161.3080  201.5210  150.7090 C   0  0  1  0  0  3  0  0  0  0  0  0
  161.9060  204.0830  147.8710 C   0  0  0  0  0  2  0  0  0  0  0  0
  160.4490  202.5680  144.8740 O   0  0  0  0  0  0  0  0  0  0  0  0
  161.1750  203.3210  145.5730 C   0  0  0  0  0  0  0  0  0  0  0  0
  161.0840  203.2600  146.9970 N   0  0  0  0  0  2  0  0  0  0  0  0
  162.1030  204.2790  144.8950 C   0  0  0  0  0  2  0  0  0  0  0  0
  160.1370  205.7000  145.1240 N   0  0  0  0  0  1  0  0  0  0  0  0
  161.3400  205.4710  144.3430 C   0  0  0  0  0  2  0  0  0  0  0  0
  160.3740  206.6480  154.6830 O   0  0  0  0  0  0  0  0  0  0  0  0
  160.6350  206.9710  156.0150 C   0  0  0  0  0  0  0  0  0  0  0  0
  159.6940  207.1040  156.8430 O   0  0  0  0  0  0  0  0  0  0  0  0
  161.9780  207.1420  156.4450 N   0  0  0  0  0  1  0  0  0  0  0  0
  1  4  2  0  0  0  0
  1 11  1  0  0  0  0
  5  4  2  0  0  0  0
  5 31  1  0  0  0  0
  6 11  1  0  0  0  0
  7  2  1  0  0  0  0
  7  9  1  0  0  0  0
  8  2  1  6  0  0  0
  8 10  1  0  0  0  0
  8  1  1  0  0  0  0
  9  5  1  0  0  0  0
 10  6  2  0  0  0  0
 11  3  1  1  0  0  0
 11 15  1  0  0  0  0
 12 13  2  0  0  0  0
 13 10  1  0  0  0  0
 14 13  1  0  0  0  0
 17 15  1  1  0  0  0
 17 22  1  0  0  0  0
 17 20  1  0  0  0  0
 19 18  1  6  0  0  0
 19 16  1  0  0  0  0
 20 19  1  0  0  0  0
 21 16  1  0  0  0  0
 22 23  1  6  0  0  0
 22 21  1  0  0  0  0
 23 24  1  0  0  0  0
 24 27  1  0  0  0  0
 25 26  1  0  0  0  0
 25 27  2  0  0  0  0
 27 28  1  0  0  0  0
 28 29  1  0  0  0  0
 30 28  2  0  0  0  0
 31 33  1  0  0  0  0
 32 34  1  0  0  0  0
 33 35  1  0  0  0  0
 33 32  1  0  0  0  0
 33 34  1  0  0  0  0
 34 50  1  0  0  0  0
 35 32  1  0  0  0  0
 36 37  1  0  0  0  0
 36 42  1  0  0  0  0
 37 38  1  0  0  0  0
 38 39  1  0  0  0  0
 39 40  1  0  0  0  0
 39 35  1  0  0  0  0
 42 41  1  0  0  0  0
 42 40  1  0  0  0  0
 43 37  1  0  0  0  0
 44 45  2  0  0  0  0
 45 46  1  0  0  0  0
 46 43  1  0  0  0  0
 47 45  1  0  0  0  0
 49 47  1  0  0  0  0
 49 48  1  0  0  0  0
 50 51  1  0  0  0  0
 51 53  1  0  0  0  0
 51 52  2  0  0  0  0
M  END
>  <MODEL>
8

>  <REMARK>
 VINA RESULT:      -2.7      1.460      2.223
  Name = 
  16 active torsions:
  status: ('A' for Active; 'I' for Inactive)
    1  A    between atoms: C_6  and  N_15
    2  A    between atoms: O_10  and  C_16
    3  A    between atoms: O_10  and  C_44
    4  A    between atoms: C_11  and  C_43
    5  A    between atoms: C_14  and  C_20
    6  A    between atoms: N_15  and  C_52
    7  A    between atoms: C_20  and  C_28
    8  A    between atoms: C_21  and  C_47
    9  A    between atoms: C_22  and  C_38
   10  A    between atoms: C_26  and  C_42
   11  A    between atoms: C_29  and  C_51
   12  A    between atoms: C_34  and  C_38
   13  A    between atoms: N_35  and  C_43
   14  A    between atoms: C_41  and  C_45
   15  A    between atoms: C_41  and  C_53
   16  A    between atoms: C_42  and  C_53
                            x       y       z     vdW  Elec       q    Type
                         _______ _______ _______ _____ _____    ______ ____

>  <TORSDO>
F 16

$$$$
=
 OpenBabel11072411403D

 53 58  0  0  1  0  0  0  0  0999 V2000
  161.5480  210.0720  150.3730 C   0  0  0  0  0  0  0  0  0  0  0  0
  162.3350  209.5910  147.9860 C   0  0  0  0  0  2  0  0  0  0  0  0
  163.4260  210.4590  152.0080 C   0  0  0  0  0  1  0  0  0  0  0  0
  161.5990  208.7840  150.5330 C   0  0  0  0  0  0  0  0  0  0  0  0
  161.7630  207.5370  150.2350 C   0  0  0  0  0  0  0  0  0  0  0  0
  162.6520  212.1170  150.3300 C   0  0  0  0  0  3  0  0  0  0  0  0
  161.6220  208.2330  147.7820 C   0  0  0  0  0  2  0  0  0  0  0  0
  161.5730  210.5520  148.9450 C   0  0  2  0  0  3  0  0  0  0  0  0
  161.9450  207.2580  148.8390 N   0  0  0  0  0  2  0  0  0  0  0  0
  162.3020  211.8450  149.0780 C   0  0  0  0  0  0  0  0  0  0  0  0
  162.2100  211.0600  151.2910 C   0  0  1  0  0  0  0  0  0  0  0  0
  162.6590  214.1280  148.1780 O   0  0  0  0  0  1  0  0  0  0  0  0
  162.5670  212.7590  147.9560 C   0  0  0  0  0  0  0  0  0  0  0  0
  162.7140  212.3110  146.7880 O   0  0  0  0  0  0  0  0  0  0  0  0
  161.2020  211.5990  152.2200 N   0  0  0  0  0  2  0  0  0  0  0  0
  157.9350  212.1410  153.9070 O   0  0  0  0  0  0  0  0  0  0  0  0
  159.8250  211.2020  151.8890 C   0  0  1  0  0  3  0  0  0  0  0  0
  159.9310  211.5330  154.9370 O   0  0  0  0  0  1  0  0  0  0  0  0
  158.8180  211.0810  154.2210 C   0  0  2  0  0  3  0  0  0  0  0  0
  159.2320  210.2900  152.9710 C   0  0  0  0  0  2  0  0  0  0  0  0
  158.5970  213.0650  153.0700 C   0  0  0  0  0  2  0  0  0  0  0  0
  158.9150  212.4260  151.7160 C   0  0  1  0  0  3  0  0  0  0  0  0
  159.3870  213.4400  150.6720 C   0  0  0  0  0  2  0  0  0  0  0  0
  158.2430  214.2360  150.0500 C   0  0  0  0  0  2  0  0  0  0  0  0
  159.4010  214.4490  147.9300 C   0  0  0  0  0  3  0  0  0  0  0  0
  159.5470  214.3650  146.5500 O   0  0  0  0  0  1  0  0  0  0  0  0
  158.2750  214.1090  148.5610 C   0  0  0  0  0  0  0  0  0  0  0  0
  157.0790  213.6000  147.8550 C   0  0  0  0  0  0  0  0  0  0  0  0
  155.8260  214.1680  148.0550 O   0  0  0  0  0  1  0  0  0  0  0  0
  157.1850  212.6330  147.0530 O   0  0  0  0  0  0  0  0  0  0  0  0
  162.2930  206.5840  151.2540 C   0  0  0  0  0  2  0  0  0  0  0  0
  161.6310  204.9100  152.9380 C   0  0  1  0  0  3  0  0  0  0  0  0
  161.1770  206.1640  152.2100 C   0  0  1  0  0  0  0  0  0  0  0  0
  161.6220  206.2480  153.6540 C   0  0  1  0  0  3  0  0  0  0  0  0
  160.5010  204.8190  151.9300 C   0  0  1  0  0  3  0  0  0  0  0  0
  161.2710  202.6880  148.2590 C   0  0  0  0  0  2  0  0  0  0  0  0
  160.3260  202.0560  149.2800 C   0  0  2  0  0  3  0  0  0  0  0  0
  160.5500  202.6410  150.6850 C   0  0  0  0  0  2  0  0  0  0  0  0
  160.9830  204.1140  150.6680 C   0  0  1  0  0  3  0  0  0  0  0  0
  160.4610  204.8260  149.4230 C   0  0  0  0  0  2  0  0  0  0  0  0
  162.3040  204.8020  147.9210 F   0  0  0  0  0  0  0  0  0  0  0  0
  161.0800  204.2100  148.1640 C   0  0  1  0  0  3  0  0  0  0  0  0
  160.5210  200.5520  149.2960 C   0  0  0  0  0  2  0  0  0  0  0  0
  162.1050  199.8660  146.0680 O   0  0  0  0  0  0  0  0  0  0  0  0
  161.2100  200.1930  146.8890 C   0  0  0  0  0  0  0  0  0  0  0  0
  161.4970  200.1670  148.2880 N   0  0  0  0  0  2  0  0  0  0  0  0
  159.8570  200.5800  146.3820 C   0  0  0  0  0  2  0  0  0  0  0  0
  160.0200  202.4570  144.8370 N   0  0  0  0  0  1  0  0  0  0  0  0
  159.9270  201.0110  144.9270 C   0  0  0  0  0  2  0  0  0  0  0  0
  160.4830  206.3380  154.5000 O   0  0  0  0  0  0  0  0  0  0  0  0
  160.4340  207.2230  155.5780 C   0  0  0  0  0  0  0  0  0  0  0  0
  159.7050  206.9840  156.5770 O   0  0  0  0  0  0  0  0  0  0  0  0
  161.2260  208.4040  155.5520 N   0  0  0  0  0  1  0  0  0  0  0  0
  1  4  2  0  0  0  0
  1 11  1  0  0  0  0
  5  4  2  0  0  0  0
  5 31  1  0  0  0  0
  6 11  1  0  0  0  0
  7  2  1  0  0  0  0
  7  9  1  0  0  0  0
  8  2  1  6  0  0  0
  8 10  1  0  0  0  0
  8  1  1  0  0  0  0
  9  5  1  0  0  0  0
 10  6  2  0  0  0  0
 11  3  1  1  0  0  0
 11 15  1  0  0  0  0
 13 12  1  0  0  0  0
 13 10  1  0  0  0  0
 14 13  2  0  0  0  0
 16 19  1  0  0  0  0
 17 15  1  1  0  0  0
 17 20  1  0  0  0  0
 19 18  1  6  0  0  0
 20 19  1  0  0  0  0
 21 16  1  0  0  0  0
 22 23  1  6  0  0  0
 22 17  1  0  0  0  0
 22 21  1  0  0  0  0
 24 23  1  0  0  0  0
 25 27  2  0  0  0  0
 26 25  1  0  0  0  0
 27 24  1  0  0  0  0
 28 29  1  0  0  0  0
 28 27  1  0  0  0  0
 30 28  2  0  0  0  0
 31 33  1  0  0  0  0
 32 34  1  0  0  0  0
 33 32  1  0  0  0  0
 33 34  1  0  0  0  0
 34 50  1  0  0  0  0
 35 33  1  0  0  0  0
 35 32  1  0  0  0  0
 36 37  1  0  0  0  0
 37 43  1  0  0  0  0
 37 38  1  0  0  0  0
 39 38  1  0  0  0  0
 39 35  1  0  0  0  0
 40 39  1  0  0  0  0
 41 42  1  0  0  0  0
 42 36  1  0  0  0  0
 42 40  1  0  0  0  0
 44 45  2  0  0  0  0
 45 46  1  0  0  0  0
 46 43  1  0  0  0  0
 47 45  1  0  0  0  0
 48 49  1  0  0  0  0
 49 47  1  0  0  0  0
 50 51  1  0  0  0  0
 51 52  2  0  0  0  0
 53 51  1  0  0  0  0
M  END
>  <MODEL>
9

>  <REMARK>
 VINA RESULT:      -2.3      2.208      3.996
  Name = 
  16 active torsions:
  status: ('A' for Active; 'I' for Inactive)
    1  A    between atoms: C_6  and  N_15
    2  A    between atoms: O_10  and  C_16
    3  A    between atoms: O_10  and  C_44
    4  A    between atoms: C_11  and  C_43
    5  A    between atoms: C_14  and  C_20
    6  A    between atoms: N_15  and  C_52
    7  A    between atoms: C_20  and  C_28
    8  A    between atoms: C_21  and  C_47
    9  A    between atoms: C_22  and  C_38
   10  A    between atoms: C_26  and  C_42
   11  A    between atoms: C_29  and  C_51
   12  A    between atoms: C_34  and  C_38
   13  A    between atoms: N_35  and  C_43
   14  A    between atoms: C_41  and  C_45
   15  A    between atoms: C_41  and  C_53
   16  A    between atoms: C_42  and  C_53
                            x       y       z     vdW  Elec       q    Type
                         _______ _______ _______ _____ _____    ______ ____

>  <TORSDO>
F 16

$$$$
