=
 OpenBabel11072413033D

 37 39  0  0  1  0  0  0  0  0999 V2000
  161.5320  206.9870  151.2880 N   0  0  0  0  0  0  0  0  0  0  0  0
  160.7850  207.0330  152.3540 C   0  0  0  0  0  3  0  0  0  0  0  0
  161.4520  207.7300  154.6170 C   0  0  0  0  0  2  0  0  0  0  0  0
  160.8710  208.0180  153.4550 C   0  0  0  0  0  0  0  0  0  0  0  0
  162.1730  210.6590  153.6280 O   0  0  0  0  0  0  0  0  0  0  0  0
  160.9260  210.5790  153.4630 C   0  0  0  0  0  0  0  0  0  0  0  0
  160.2960  209.3120  153.2270 N   0  0  0  0  0  2  0  0  0  0  0  0
  160.0740  211.8150  153.5080 C   0  0  2  0  0  3  0  0  0  0  0  0
  160.1160  211.5740  156.0310 C   0  0  0  0  0  2  0  0  0  0  0  0
  159.2790  211.9760  154.8070 C   0  0  0  0  0  3  0  0  0  0  0  0
  159.2650  211.2250  157.2600 C   0  0  0  0  0  2  0  0  0  0  0  0
  157.9410  211.9800  157.2580 C   0  0  0  0  0  2  0  0  0  0  0  0
  157.0910  211.6140  156.0320 C   0  0  0  0  0  2  0  0  0  0  0  0
  157.9170  211.2760  154.7840 C   0  0  0  0  0  2  0  0  0  0  0  0
  159.8510  212.8380  151.2540 C   0  0  0  0  0  0  0  0  0  0  0  0
  157.4120  213.2450  151.2950 C   0  0  0  0  0  1  0  0  0  0  0  0
  160.6890  213.0670  150.4000 O   0  0  0  0  0  0  0  0  0  0  0  0
  158.6730  213.2530  152.1330 C   0  0  1  0  0  3  0  0  0  0  0  0
  159.1800  211.9230  152.2790 C   0  0  2  0  0  3  0  0  0  0  0  0
  162.6510  207.8680  150.9870 C   0  0  0  0  0  2  0  0  0  0  0  0
  162.2440  208.5390  148.5650 N   0  0  0  0  0  2  0  0  0  0  0  0
  161.9050  210.0260  150.3210 O   0  0  0  0  0  0  0  0  0  0  0  0
  162.2390  208.8690  149.9580 C   0  0  0  0  0  0  0  0  0  0  0  0
  162.5080  207.1990  148.0600 C   0  0  0  0  0  2  0  0  0  0  0  0
  161.2560  206.6130  147.4320 C   0  0  0  0  0  2  0  0  0  0  0  0
  161.6140  205.0250  146.7080 S   0  0  0  0  0  0  0  0  0  0  0  0
  160.7580  204.8310  145.4860 O   0  0  0  0  0  0  0  0  0  0  0  0
  163.0660  204.9850  146.3200 O   0  0  0  0  0  0  0  0  0  0  0  0
  160.6570  201.7400  149.7250 C   0  0  0  0  0  3  0  0  0  0  0  0
  161.0940  202.4110  147.4290 C   0  0  0  0  0  0  0  0  0  0  0  0
  160.8330  203.0580  150.1480 C   0  0  0  0  0  0  0  0  0  0  0  0
  161.2680  203.7400  147.8610 C   0  0  0  0  0  0  0  0  0  0  0  0
  160.6980  203.3900  151.5250 N   0  0  0  0  0  1  0  0  0  0  0  0
  161.1380  204.0530  149.2190 C   0  0  0  0  0  3  0  0  0  0  0  0
  160.7880  201.4160  148.3730 C   0  0  0  0  0  3  0  0  0  0  0  0
  160.1620  201.5650  145.2940 C   0  0  0  0  0  1  0  0  0  0  0  0
  161.2270  202.0980  146.0710 O   0  0  0  0  0  0  0  0  0  0  0  0
  1  2  2  0  0  0  0
  2  4  1  0  0  0  0
  4  3  2  0  0  0  0
  6  5  2  0  0  0  0
  7  4  1  0  0  0  0
  7  6  1  0  0  0  0
  8  6  1  1  0  0  0
  8 10  1  0  0  0  0
  9 11  1  0  0  0  0
 10  9  1  0  0  0  0
 12 11  1  0  0  0  0
 13 12  1  0  0  0  0
 14 10  1  0  0  0  0
 14 13  1  0  0  0  0
 15 18  1  0  0  0  0
 15 19  1  0  0  0  0
 17 15  2  0  0  0  0
 18 16  1  6  0  0  0
 18 19  1  0  0  0  0
 19  8  1  1  0  0  0
 20  1  1  0  0  0  0
 21 23  1  0  0  0  0
 23 22  2  0  0  0  0
 23 20  1  0  0  0  0
 24 21  1  0  0  0  0
 25 24  1  0  0  0  0
 26 25  1  0  0  0  0
 26 32  1  0  0  0  0
 27 26  2  0  0  0  0
 28 26  2  0  0  0  0
 29 31  1  0  0  0  0
 30 32  2  0  0  0  0
 30 35  1  0  0  0  0
 31 33  1  0  0  0  0
 32 34  1  0  0  0  0
 34 31  2  0  0  0  0
 35 29  2  0  0  0  0
 36 37  1  0  0  0  0
 37 30  1  0  0  0  0
M  END
>  <MODEL>
1

>  <REMARK>
 VINA RESULT:      -7.5      0.000      0.000
  Name = 
  12 active torsions:
  status: ('A' for Active; 'I' for Inactive)
    1  A    between atoms: N_1  and  C_16
    2  A    between atoms: C_5  and  O_34
    3  A    between atoms: C_6  and  C_17
    4  A    between atoms: N_13  and  C_36
    5  A    between atoms: C_15  and  C_17
    6  A    between atoms: C_16  and  C_32
    7  A    between atoms: C_17  and  C_35
    8  A    between atoms: C_19  and  S_20
    9  A    between atoms: S_20  and  C_27
   10  A    between atoms: C_21  and  N_23
   11  A    between atoms: C_21  and  C_28
   12  A    between atoms: C_27  and  C_36
                            x       y       z     vdW  Elec       q    Type
                         _______ _______ _______ _____ _____    ______ ____

>  <TORSDO>
F 12

$$$$
=
 OpenBabel11072413033D

 37 39  0  0  1  0  0  0  0  0999 V2000
  161.1680  206.9800  150.8420 N   0  0  0  0  0  0  0  0  0  0  0  0
  160.8790  208.2500  150.8030 C   0  0  0  0  0  3  0  0  0  0  0  0
  162.5150  210.0700  151.0540 C   0  0  0  0  0  2  0  0  0  0  0  0
  161.5350  209.3320  151.5700 C   0  0  0  0  0  0  0  0  0  0  0  0
  159.3420  211.0830  152.4820 O   0  0  0  0  0  0  0  0  0  0  0  0
  160.1010  210.5310  153.3220 C   0  0  0  0  0  0  0  0  0  0  0  0
  161.0750  209.5620  152.9100 N   0  0  0  0  0  2  0  0  0  0  0  0
  159.9980  210.8780  154.7800 C   0  0  2  0  0  3  0  0  0  0  0  0
  161.6270  209.5250  156.1710 C   0  0  0  0  0  2  0  0  0  0  0  0
  160.1680  209.6810  155.7190 C   0  0  0  0  0  3  0  0  0  0  0  0
  161.9610  208.1120  156.6690 C   0  0  0  0  0  2  0  0  0  0  0  0
  160.7360  207.4220  157.2580 C   0  0  0  0  0  2  0  0  0  0  0  0
  159.6290  207.2540  156.2070 C   0  0  0  0  0  2  0  0  0  0  0  0
  159.5940  208.3750  155.1610 C   0  0  0  0  0  2  0  0  0  0  0  0
  159.0890  212.9540  155.8010 C   0  0  0  0  0  0  0  0  0  0  0  0
  157.0240  211.9950  156.7650 C   0  0  0  0  0  1  0  0  0  0  0  0
  159.5310  214.0900  155.8190 O   0  0  0  0  0  0  0  0  0  0  0  0
  158.4890  211.7300  156.4890 C   0  0  1  0  0  3  0  0  0  0  0  0
  158.7220  211.6580  155.0790 C   0  0  2  0  0  3  0  0  0  0  0  0
  162.1650  206.3550  151.6990 C   0  0  0  0  0  2  0  0  0  0  0  0
  160.7070  204.3380  152.2410 N   0  0  0  0  0  2  0  0  0  0  0  0
  161.5890  205.6950  153.9100 O   0  0  0  0  0  0  0  0  0  0  0  0
  161.4890  205.4550  152.6800 C   0  0  0  0  0  0  0  0  0  0  0  0
  160.6240  203.9170  150.8500 C   0  0  0  0  0  2  0  0  0  0  0  0
  161.2340  202.5380  150.6750 C   0  0  0  0  0  2  0  0  0  0  0  0
  160.7800  201.8580  149.0910 S   0  0  0  0  0  0  0  0  0  0  0  0
  161.5470  200.5850  148.8580 O   0  0  0  0  0  0  0  0  0  0  0  0
  159.3060  201.5670  149.0920 O   0  0  0  0  0  0  0  0  0  0  0  0
  161.8440  204.8360  145.8030 C   0  0  0  0  0  3  0  0  0  0  0  0
  161.0670  202.6250  146.4550 C   0  0  0  0  0  0  0  0  0  0  0  0
  161.9360  205.2040  147.1460 C   0  0  0  0  0  0  0  0  0  0  0  0
  161.1630  203.0010  147.8090 C   0  0  0  0  0  0  0  0  0  0  0  0
  162.3780  206.5090  147.5000 N   0  0  0  0  0  1  0  0  0  0  0  0
  161.5950  204.2900  148.1440 C   0  0  0  0  0  3  0  0  0  0  0  0
  161.4110  203.5540  145.4570 C   0  0  0  0  0  3  0  0  0  0  0  0
  159.9780  201.0390  144.8940 C   0  0  0  0  0  1  0  0  0  0  0  0
  160.6330  201.3370  146.1200 O   0  0  0  0  0  0  0  0  0  0  0  0
  1 20  1  0  0  0  0
  2  1  2  0  0  0  0
  2  4  1  0  0  0  0
  3  4  2  0  0  0  0
  4  7  1  0  0  0  0
  5  6  2  0  0  0  0
  7  6  1  0  0  0  0
  8  6  1  6  0  0  0
  8 10  1  0  0  0  0
  9 11  1  0  0  0  0
 10  9  1  0  0  0  0
 11 12  1  0  0  0  0
 13 12  1  0  0  0  0
 14 10  1  0  0  0  0
 14 13  1  0  0  0  0
 15 17  2  0  0  0  0
 15 18  1  0  0  0  0
 18 16  1  6  0  0  0
 19  8  1  1  0  0  0
 19 15  1  0  0  0  0
 19 18  1  0  0  0  0
 20 23  1  0  0  0  0
 21 23  1  0  0  0  0
 23 22  2  0  0  0  0
 24 21  1  0  0  0  0
 25 24  1  0  0  0  0
 26 28  2  0  0  0  0
 26 25  1  0  0  0  0
 27 26  2  0  0  0  0
 29 31  1  0  0  0  0
 30 32  2  0  0  0  0
 31 33  1  0  0  0  0
 31 34  2  0  0  0  0
 32 34  1  0  0  0  0
 32 26  1  0  0  0  0
 35 29  2  0  0  0  0
 35 30  1  0  0  0  0
 36 37  1  0  0  0  0
 37 30  1  0  0  0  0
M  END
>  <MODEL>
2

>  <REMARK>
 VINA RESULT:      -6.7      2.192      3.883
  Name = 
  12 active torsions:
  status: ('A' for Active; 'I' for Inactive)
    1  A    between atoms: N_1  and  C_16
    2  A    between atoms: C_5  and  O_34
    3  A    between atoms: C_6  and  C_17
    4  A    between atoms: N_13  and  C_36
    5  A    between atoms: C_15  and  C_17
    6  A    between atoms: C_16  and  C_32
    7  A    between atoms: C_17  and  C_35
    8  A    between atoms: C_19  and  S_20
    9  A    between atoms: S_20  and  C_27
   10  A    between atoms: C_21  and  N_23
   11  A    between atoms: C_21  and  C_28
   12  A    between atoms: C_27  and  C_36
                            x       y       z     vdW  Elec       q    Type
                         _______ _______ _______ _____ _____    ______ ____

>  <TORSDO>
F 12

$$$$
=
 OpenBabel11072413033D

 37 39  0  0  1  0  0  0  0  0999 V2000
  161.3820  208.5630  152.8080 N   0  0  0  0  0  0  0  0  0  0  0  0
  162.1400  207.9590  151.9370 C   0  0  0  0  0  3  0  0  0  0  0  0
  162.2770  209.4460  149.9830 C   0  0  0  0  0  2  0  0  0  0  0  0
  162.1950  208.2150  150.4810 C   0  0  0  0  0  0  0  0  0  0  0  0
  159.9430  206.3770  149.9730 O   0  0  0  0  0  0  0  0  0  0  0  0
  161.0850  206.1240  149.5020 C   0  0  0  0  0  0  0  0  0  0  0  0
  162.1530  207.0750  149.6100 N   0  0  0  0  0  2  0  0  0  0  0  0
  161.3470  204.8150  148.8140 C   0  0  2  0  0  3  0  0  0  0  0  0
  162.6100  204.5940  146.6280 C   0  0  0  0  0  2  0  0  0  0  0  0
  161.2530  204.8840  147.2870 C   0  0  0  0  0  3  0  0  0  0  0  0
  162.7140  205.1320  145.1940 C   0  0  0  0  0  2  0  0  0  0  0  0
  161.3510  205.1830  144.5130 C   0  0  0  0  0  2  0  0  0  0  0  0
  160.3920  206.1260  145.2530 C   0  0  0  0  0  2  0  0  0  0  0  0
  160.6250  206.1820  146.7690 C   0  0  0  0  0  2  0  0  0  0  0  0
  161.1850  203.0950  150.6010 C   0  0  0  0  0  0  0  0  0  0  0  0
  160.0900  201.3170  149.2770 C   0  0  0  0  0  1  0  0  0  0  0  0
  161.5380  203.1260  151.7670 O   0  0  0  0  0  0  0  0  0  0  0  0
  161.1170  202.4280  149.2290 C   0  0  1  0  0  3  0  0  0  0  0  0
  160.4800  203.7000  149.3860 C   0  0  2  0  0  3  0  0  0  0  0  0
  160.3840  209.5810  152.5150 C   0  0  0  0  0  2  0  0  0  0  0  0
  159.8540  211.9590  153.2560 N   0  0  0  0  0  2  0  0  0  0  0  0
  161.9470  211.0070  153.6010 O   0  0  0  0  0  0  0  0  0  0  0  0
  160.7780  210.8700  153.1580 C   0  0  0  0  0  0  0  0  0  0  0  0
  158.4520  211.8560  152.8740 C   0  0  0  0  0  2  0  0  0  0  0  0
  157.5860  212.6840  153.8070 C   0  0  0  0  0  2  0  0  0  0  0  0
  157.1220  211.7220  155.2340 S   0  0  0  0  0  0  0  0  0  0  0  0
  156.4730  212.6220  156.2510 O   0  0  0  0  0  0  0  0  0  0  0  0
  156.1500  210.6590  154.8070 O   0  0  0  0  0  0  0  0  0  0  0  0
  160.8310  209.7600  157.0240 C   0  0  0  0  0  3  0  0  0  0  0  0
  159.4430  211.7360  156.7270 C   0  0  0  0  0  0  0  0  0  0  0  0
  159.9370  209.0120  156.2560 C   0  0  0  0  0  0  0  0  0  0  0  0
  158.5450  210.9770  155.9530 C   0  0  0  0  0  0  0  0  0  0  0  0
  160.1860  207.6330  156.0130 N   0  0  0  0  0  1  0  0  0  0  0  0
  158.7980  209.6190  155.7240 C   0  0  0  0  0  3  0  0  0  0  0  0
  160.5860  211.1150  157.2610 C   0  0  0  0  0  3  0  0  0  0  0  0
  159.9210  214.1340  156.3250 C   0  0  0  0  0  1  0  0  0  0  0  0
  159.1880  213.0930  156.9580 O   0  0  0  0  0  0  0  0  0  0  0  0
  2  1  2  0  0  0  0
  3  4  2  0  0  0  0
  4  2  1  0  0  0  0
  6  7  1  0  0  0  0
  6  5  2  0  0  0  0
  7  4  1  0  0  0  0
  8  6  1  1  0  0  0
  9 10  1  0  0  0  0
 10  8  1  0  0  0  0
 11  9  1  0  0  0  0
 12 11  1  0  0  0  0
 12 13  1  0  0  0  0
 13 14  1  0  0  0  0
 14 10  1  0  0  0  0
 15 17  2  0  0  0  0
 18 16  1  1  0  0  0
 18 19  1  0  0  0  0
 18 15  1  0  0  0  0
 19  8  1  6  0  0  0
 19 15  1  0  0  0  0
 20  1  1  0  0  0  0
 20 23  1  0  0  0  0
 23 21  1  0  0  0  0
 23 22  2  0  0  0  0
 24 21  1  0  0  0  0
 24 25  1  0  0  0  0
 25 26  1  0  0  0  0
 26 32  1  0  0  0  0
 26 27  2  0  0  0  0
 28 26  2  0  0  0  0
 29 35  1  0  0  0  0
 30 37  1  0  0  0  0
 30 35  2  0  0  0  0
 31 29  2  0  0  0  0
 32 30  1  0  0  0  0
 33 31  1  0  0  0  0
 34 32  2  0  0  0  0
 34 31  1  0  0  0  0
 36 37  1  0  0  0  0
M  END
>  <MODEL>
3

>  <REMARK>
 VINA RESULT:      -6.6      3.260     10.021
  Name = 
  12 active torsions:
  status: ('A' for Active; 'I' for Inactive)
    1  A    between atoms: N_1  and  C_16
    2  A    between atoms: C_5  and  O_34
    3  A    between atoms: C_6  and  C_17
    4  A    between atoms: N_13  and  C_36
    5  A    between atoms: C_15  and  C_17
    6  A    between atoms: C_16  and  C_32
    7  A    between atoms: C_17  and  C_35
    8  A    between atoms: C_19  and  S_20
    9  A    between atoms: S_20  and  C_27
   10  A    between atoms: C_21  and  N_23
   11  A    between atoms: C_21  and  C_28
   12  A    between atoms: C_27  and  C_36
                            x       y       z     vdW  Elec       q    Type
                         _______ _______ _______ _____ _____    ______ ____

>  <TORSDO>
F 12

$$$$
=
 OpenBabel11072413033D

 37 39  0  0  1  0  0  0  0  0999 V2000
  161.7770  206.5670  153.8230 N   0  0  0  0  0  0  0  0  0  0  0  0
  162.4030  206.4940  152.6830 C   0  0  0  0  0  3  0  0  0  0  0  0
  161.8610  208.5520  151.4500 C   0  0  0  0  0  2  0  0  0  0  0  0
  162.0830  207.2410  151.4460 C   0  0  0  0  0  0  0  0  0  0  0  0
  159.7070  206.5790  149.8270 O   0  0  0  0  0  0  0  0  0  0  0  0
  160.8250  206.0700  149.5460 C   0  0  0  0  0  0  0  0  0  0  0  0
  162.0170  206.4920  150.2240 N   0  0  0  0  0  2  0  0  0  0  0  0
  160.9300  205.0080  148.4890 C   0  0  2  0  0  3  0  0  0  0  0  0
  160.2700  202.5670  148.3270 C   0  0  0  0  0  2  0  0  0  0  0  0
  161.1550  203.5980  149.0430 C   0  0  0  0  0  3  0  0  0  0  0  0
  160.0620  201.2800  149.1380 C   0  0  0  0  0  2  0  0  0  0  0  0
  161.2460  200.9990  150.0570 C   0  0  0  0  0  2  0  0  0  0  0  0
  161.4350  202.1240  151.0850 C   0  0  0  0  0  2  0  0  0  0  0  0
  161.0280  203.5100  150.5670 C   0  0  0  0  0  2  0  0  0  0  0  0
  161.2440  205.6820  146.1170 C   0  0  0  0  0  0  0  0  0  0  0  0
  163.3340  204.4360  145.6730 C   0  0  0  0  0  1  0  0  0  0  0  0
  160.5720  206.4030  145.4010 O   0  0  0  0  0  0  0  0  0  0  0  0
  162.0030  204.3870  146.3960 C   0  0  1  0  0  3  0  0  0  0  0  0
  161.9640  205.3740  147.4310 C   0  0  2  0  0  3  0  0  0  0  0  0
  160.5880  207.3620  154.0980 C   0  0  0  0  0  2  0  0  0  0  0  0
  160.5660  209.6620  155.1900 N   0  0  0  0  0  2  0  0  0  0  0  0
  161.3320  207.7790  156.3180 O   0  0  0  0  0  0  0  0  0  0  0  0
  160.8440  208.2590  155.2640 C   0  0  0  0  0  0  0  0  0  0  0  0
  159.9010  210.2880  154.0570 C   0  0  0  0  0  2  0  0  0  0  0  0
  160.3280  211.7390  153.9260 C   0  0  0  0  0  2  0  0  0  0  0  0
  158.9090  212.7760  153.6300 S   0  0  0  0  0  0  0  0  0  0  0  0
  157.6540  211.9900  153.8940 O   0  0  0  0  0  0  0  0  0  0  0  0
  158.9700  213.9590  154.5560 O   0  0  0  0  0  0  0  0  0  0  0  0
  158.8990  214.1280  149.2730 C   0  0  0  0  0  3  0  0  0  0  0  0
  157.8080  214.0550  151.4450 C   0  0  0  0  0  0  0  0  0  0  0  0
  159.9790  213.4080  149.7860 C   0  0  0  0  0  0  0  0  0  0  0  0
  158.8980  213.3270  151.9580 C   0  0  0  0  0  0  0  0  0  0  0  0
  161.0790  213.0750  148.9480 N   0  0  0  0  0  1  0  0  0  0  0  0
  159.9780  213.0110  151.1240 C   0  0  0  0  0  3  0  0  0  0  0  0
  157.8190  214.4520  150.0960 C   0  0  0  0  0  3  0  0  0  0  0  0
  155.3780  214.1000  151.9330 C   0  0  0  0  0  1  0  0  0  0  0  0
  156.7300  214.3730  152.2800 O   0  0  0  0  0  0  0  0  0  0  0  0
  1 20  1  0  0  0  0
  2  1  2  0  0  0  0
  4  3  2  0  0  0  0
  4  2  1  0  0  0  0
  6  5  2  0  0  0  0
  6  7  1  0  0  0  0
  7  4  1  0  0  0  0
  8 10  1  0  0  0  0
  8  6  1  1  0  0  0
  9 10  1  0  0  0  0
  9 11  1  0  0  0  0
 10 14  1  0  0  0  0
 11 12  1  0  0  0  0
 12 13  1  0  0  0  0
 14 13  1  0  0  0  0
 15 18  1  0  0  0  0
 15 19  1  0  0  0  0
 17 15  2  0  0  0  0
 18 16  1  6  0  0  0
 18 19  1  0  0  0  0
 19  8  1  1  0  0  0
 20 23  1  0  0  0  0
 21 23  1  0  0  0  0
 23 22  2  0  0  0  0
 24 21  1  0  0  0  0
 25 24  1  0  0  0  0
 26 27  2  0  0  0  0
 26 25  1  0  0  0  0
 26 28  2  0  0  0  0
 29 31  2  0  0  0  0
 29 35  1  0  0  0  0
 30 32  1  0  0  0  0
 30 37  1  0  0  0  0
 31 34  1  0  0  0  0
 32 26  1  0  0  0  0
 33 31  1  0  0  0  0
 34 32  2  0  0  0  0
 35 30  2  0  0  0  0
 36 37  1  0  0  0  0
M  END
>  <MODEL>
4

>  <REMARK>
 VINA RESULT:      -6.5      2.916      9.739
  Name = 
  12 active torsions:
  status: ('A' for Active; 'I' for Inactive)
    1  A    between atoms: N_1  and  C_16
    2  A    between atoms: C_5  and  O_34
    3  A    between atoms: C_6  and  C_17
    4  A    between atoms: N_13  and  C_36
    5  A    between atoms: C_15  and  C_17
    6  A    between atoms: C_16  and  C_32
    7  A    between atoms: C_17  and  C_35
    8  A    between atoms: C_19  and  S_20
    9  A    between atoms: S_20  and  C_27
   10  A    between atoms: C_21  and  N_23
   11  A    between atoms: C_21  and  C_28
   12  A    between atoms: C_27  and  C_36
                            x       y       z     vdW  Elec       q    Type
                         _______ _______ _______ _____ _____    ______ ____

>  <TORSDO>
F 12

$$$$
=
 OpenBabel11072413033D

 37 39  0  0  1  0  0  0  0  0999 V2000
  160.9480  208.8950  151.4390 N   0  0  0  0  0  0  0  0  0  0  0  0
  160.5420  207.7700  151.9550 C   0  0  0  0  0  3  0  0  0  0  0  0
  161.8080  206.3360  153.5010 C   0  0  0  0  0  2  0  0  0  0  0  0
  161.3730  206.5870  152.2690 C   0  0  0  0  0  0  0  0  0  0  0  0
  160.0750  206.3640  149.6290 O   0  0  0  0  0  0  0  0  0  0  0  0
  160.9550  205.5300  149.9730 C   0  0  0  0  0  0  0  0  0  0  0  0
  161.7020  205.7070  151.1840 N   0  0  0  0  0  2  0  0  0  0  0  0
  161.2400  204.3320  149.1140 C   0  0  2  0  0  3  0  0  0  0  0  0
  162.3880  204.1520  146.8620 C   0  0  0  0  0  2  0  0  0  0  0  0
  161.1240  204.6000  147.6110 C   0  0  0  0  0  3  0  0  0  0  0  0
  162.5570  204.8320  145.4960 C   0  0  0  0  0  2  0  0  0  0  0  0
  161.2110  205.2100  144.8880 C   0  0  0  0  0  2  0  0  0  0  0  0
  160.4590  206.2130  145.7740 C   0  0  0  0  0  2  0  0  0  0  0  0
  160.7340  206.0430  147.2730 C   0  0  0  0  0  2  0  0  0  0  0  0
  161.0210  202.5210  150.8030 C   0  0  0  0  0  0  0  0  0  0  0  0
  160.2220  200.7310  149.2950 C   0  0  0  0  0  1  0  0  0  0  0  0
  161.2420  202.5210  152.0010 O   0  0  0  0  0  0  0  0  0  0  0  0
  161.1570  201.9170  149.4070 C   0  0  1  0  0  3  0  0  0  0  0  0
  160.4070  203.1280  149.5410 C   0  0  2  0  0  3  0  0  0  0  0  0
  162.3050  209.1980  151.0080 C   0  0  0  0  0  2  0  0  0  0  0  0
  162.0630  209.7630  148.5360 N   0  0  0  0  0  2  0  0  0  0  0  0
  162.9330  207.7270  149.2470 O   0  0  0  0  0  0  0  0  0  0  0  0
  162.4630  208.8500  149.5640 C   0  0  0  0  0  0  0  0  0  0  0  0
  161.6130  211.1210  148.8030 C   0  0  0  0  0  2  0  0  0  0  0  0
  162.5530  212.1270  148.1630 C   0  0  0  0  0  2  0  0  0  0  0  0
  161.6940  213.6550  147.8390 S   0  0  0  0  0  0  0  0  0  0  0  0
  161.6020  214.4530  149.1110 O   0  0  0  0  0  0  0  0  0  0  0  0
  162.4610  214.4340  146.8070 O   0  0  0  0  0  0  0  0  0  0  0  0
  157.4590  212.8720  146.3350 C   0  0  0  0  0  3  0  0  0  0  0  0
  159.8600  212.8180  145.9530 C   0  0  0  0  0  0  0  0  0  0  0  0
  157.6710  213.3720  147.6210 C   0  0  0  0  0  0  0  0  0  0  0  0
  160.0680  213.3240  147.2500 C   0  0  0  0  0  0  0  0  0  0  0  0
  156.5630  213.6570  148.4680 N   0  0  0  0  0  1  0  0  0  0  0  0
  158.9710  213.5960  148.0760 C   0  0  0  0  0  3  0  0  0  0  0  0
  158.5460  212.5940  145.5050 C   0  0  0  0  0  3  0  0  0  0  0  0
  161.0970  213.0890  143.8230 C   0  0  0  0  0  1  0  0  0  0  0  0
  160.9580  212.5440  145.1290 O   0  0  0  0  0  0  0  0  0  0  0  0
  1  2  2  0  0  0  0
  2  4  1  0  0  0  0
  4  3  2  0  0  0  0
  5  6  2  0  0  0  0
  6  7  1  0  0  0  0
  7  4  1  0  0  0  0
  8  6  1  1  0  0  0
  9 10  1  0  0  0  0
 10  8  1  0  0  0  0
 11  9  1  0  0  0  0
 12 11  1  0  0  0  0
 12 13  1  0  0  0  0
 13 14  1  0  0  0  0
 14 10  1  0  0  0  0
 15 17  2  0  0  0  0
 18 16  1  1  0  0  0
 18 19  1  0  0  0  0
 18 15  1  0  0  0  0
 19  8  1  6  0  0  0
 19 15  1  0  0  0  0
 20  1  1  0  0  0  0
 21 24  1  0  0  0  0
 21 23  1  0  0  0  0
 22 23  2  0  0  0  0
 23 20  1  0  0  0  0
 25 24  1  0  0  0  0
 26 25  1  0  0  0  0
 26 27  2  0  0  0  0
 28 26  2  0  0  0  0
 29 31  1  0  0  0  0
 30 32  2  0  0  0  0
 31 34  2  0  0  0  0
 31 33  1  0  0  0  0
 32 26  1  0  0  0  0
 32 34  1  0  0  0  0
 35 30  1  0  0  0  0
 35 29  2  0  0  0  0
 36 37  1  0  0  0  0
 37 30  1  0  0  0  0
M  END
>  <MODEL>
5

>  <REMARK>
 VINA RESULT:      -6.4      3.836      9.174
  Name = 
  12 active torsions:
  status: ('A' for Active; 'I' for Inactive)
    1  A    between atoms: N_1  and  C_16
    2  A    between atoms: C_5  and  O_34
    3  A    between atoms: C_6  and  C_17
    4  A    between atoms: N_13  and  C_36
    5  A    between atoms: C_15  and  C_17
    6  A    between atoms: C_16  and  C_32
    7  A    between atoms: C_17  and  C_35
    8  A    between atoms: C_19  and  S_20
    9  A    between atoms: S_20  and  C_27
   10  A    between atoms: C_21  and  N_23
   11  A    between atoms: C_21  and  C_28
   12  A    between atoms: C_27  and  C_36
                            x       y       z     vdW  Elec       q    Type
                         _______ _______ _______ _____ _____    ______ ____

>  <TORSDO>
F 12

$$$$
=
 OpenBabel11072413033D

 37 39  0  0  1  0  0  0  0  0999 V2000
  162.3290  209.2020  151.4650 N   0  0  0  0  0  0  0  0  0  0  0  0
  162.0680  210.2140  152.2420 C   0  0  0  0  0  3  0  0  0  0  0  0
  160.6890  212.0300  151.3190 C   0  0  0  0  0  2  0  0  0  0  0  0
  160.8560  211.0620  152.2170 C   0  0  0  0  0  0  0  0  0  0  0  0
  159.9990  212.7910  154.4490 O   0  0  0  0  0  0  0  0  0  0  0  0
  159.5680  211.6100  154.3630 C   0  0  0  0  0  0  0  0  0  0  0  0
  159.8520  210.8060  153.2100 N   0  0  0  0  0  2  0  0  0  0  0  0
  158.7420  211.0220  155.4710 C   0  0  2  0  0  3  0  0  0  0  0  0
  160.8170  210.1520  156.6380 C   0  0  0  0  0  2  0  0  0  0  0  0
  159.3940  209.8220  156.1640 C   0  0  0  0  0  3  0  0  0  0  0  0
  161.6860  208.9070  156.8630 C   0  0  0  0  0  2  0  0  0  0  0  0
  160.8430  207.6970  157.2510 C   0  0  0  0  0  2  0  0  0  0  0  0
  159.8480  207.3290  156.1410 C   0  0  0  0  0  2  0  0  0  0  0  0
  159.3460  208.5340  155.3350 C   0  0  0  0  0  2  0  0  0  0  0  0
  156.5700  212.0200  154.7920 C   0  0  0  0  0  0  0  0  0  0  0  0
  155.0760  210.3300  155.8060 C   0  0  0  0  0  1  0  0  0  0  0  0
  156.3240  213.0310  154.1570 O   0  0  0  0  0  0  0  0  0  0  0  0
  156.3670  211.0990  155.9930 C   0  0  1  0  0  3  0  0  0  0  0  0
  157.3250  210.7080  155.0050 C   0  0  2  0  0  3  0  0  0  0  0  0
  161.4990  208.7310  150.3650 C   0  0  0  0  0  2  0  0  0  0  0  0
  162.5440  208.3900  148.0680 N   0  0  0  0  0  2  0  0  0  0  0  0
  162.0350  210.5090  148.8790 O   0  0  0  0  0  0  0  0  0  0  0  0
  162.0260  209.2670  149.0740 C   0  0  0  0  0  0  0  0  0  0  0  0
  162.4730  206.9390  148.1570 C   0  0  0  0  0  2  0  0  0  0  0  0
  161.2690  206.4180  147.3920 C   0  0  0  0  0  2  0  0  0  0  0  0
  161.6430  204.8400  146.6520 S   0  0  0  0  0  0  0  0  0  0  0  0
  160.8290  204.6730  145.3980 O   0  0  0  0  0  0  0  0  0  0  0  0
  163.1070  204.7970  146.3150 O   0  0  0  0  0  0  0  0  0  0  0  0
  160.5640  201.5130  149.5810 C   0  0  0  0  0  3  0  0  0  0  0  0
  160.9640  202.2430  147.2960 C   0  0  0  0  0  0  0  0  0  0  0  0
  160.8470  202.7980  150.0450 C   0  0  0  0  0  0  0  0  0  0  0  0
  161.2480  203.5380  147.7690 C   0  0  0  0  0  0  0  0  0  0  0  0
  160.7860  203.0840  151.4380 N   0  0  0  0  0  1  0  0  0  0  0  0
  161.1890  203.8050  149.1430 C   0  0  0  0  0  3  0  0  0  0  0  0
  160.6220  201.2340  148.2130 C   0  0  0  0  0  3  0  0  0  0  0  0
  160.0600  201.1790  145.2480 C   0  0  0  0  0  1  0  0  0  0  0  0
  161.0250  201.9750  145.9230 O   0  0  0  0  0  0  0  0  0  0  0  0
  1  2  2  0  0  0  0
  3  4  2  0  0  0  0
  4  2  1  0  0  0  0
  4  7  1  0  0  0  0
  6  5  2  0  0  0  0
  7  6  1  0  0  0  0
  8  6  1  6  0  0  0
  8 10  1  0  0  0  0
  9 11  1  0  0  0  0
 10  9  1  0  0  0  0
 11 12  1  0  0  0  0
 13 12  1  0  0  0  0
 14 13  1  0  0  0  0
 14 10  1  0  0  0  0
 15 19  1  0  0  0  0
 15 18  1  0  0  0  0
 17 15  2  0  0  0  0
 18 16  1  6  0  0  0
 19  8  1  1  0  0  0
 19 18  1  0  0  0  0
 20  1  1  0  0  0  0
 21 24  1  0  0  0  0
 21 23  1  0  0  0  0
 22 23  2  0  0  0  0
 23 20  1  0  0  0  0
 25 24  1  0  0  0  0
 26 25  1  0  0  0  0
 26 32  1  0  0  0  0
 27 26  2  0  0  0  0
 28 26  2  0  0  0  0
 29 31  1  0  0  0  0
 30 32  2  0  0  0  0
 30 35  1  0  0  0  0
 31 33  1  0  0  0  0
 32 34  1  0  0  0  0
 34 31  2  0  0  0  0
 35 29  2  0  0  0  0
 36 37  1  0  0  0  0
 37 30  1  0  0  0  0
M  END
>  <MODEL>
6

>  <REMARK>
 VINA RESULT:      -6.4      1.677      2.846
  Name = 
  12 active torsions:
  status: ('A' for Active; 'I' for Inactive)
    1  A    between atoms: N_1  and  C_16
    2  A    between atoms: C_5  and  O_34
    3  A    between atoms: C_6  and  C_17
    4  A    between atoms: N_13  and  C_36
    5  A    between atoms: C_15  and  C_17
    6  A    between atoms: C_16  and  C_32
    7  A    between atoms: C_17  and  C_35
    8  A    between atoms: C_19  and  S_20
    9  A    between atoms: S_20  and  C_27
   10  A    between atoms: C_21  and  N_23
   11  A    between atoms: C_21  and  C_28
   12  A    between atoms: C_27  and  C_36
                            x       y       z     vdW  Elec       q    Type
                         _______ _______ _______ _____ _____    ______ ____

>  <TORSDO>
F 12

$$$$
=
 OpenBabel11072413033D

 37 39  0  0  1  0  0  0  0  0999 V2000
  161.3890  207.3260  152.7190 N   0  0  0  0  0  0  0  0  0  0  0  0
  161.4290  207.4370  154.0170 C   0  0  0  0  0  3  0  0  0  0  0  0
  161.1630  208.7010  156.1100 C   0  0  0  0  0  2  0  0  0  0  0  0
  160.8370  208.5200  154.8330 C   0  0  0  0  0  0  0  0  0  0  0  0
  160.9470  211.4480  154.4910 O   0  0  0  0  0  0  0  0  0  0  0  0
  159.9050  210.8130  154.1760 C   0  0  0  0  0  0  0  0  0  0  0  0
  159.8830  209.3800  154.1920 N   0  0  0  0  0  2  0  0  0  0  0  0
  158.6610  211.5520  153.7730 C   0  0  2  0  0  3  0  0  0  0  0  0
  157.5850  213.0480  152.0320 C   0  0  0  0  0  2  0  0  0  0  0  0
  158.8960  212.6410  152.7220 C   0  0  0  0  0  3  0  0  0  0  0  0
  157.8000  213.7230  150.6700 C   0  0  0  0  0  2  0  0  0  0  0  0
  159.1370  214.4530  150.6110 C   0  0  0  0  0  2  0  0  0  0  0  0
  160.3130  213.4830  150.7970 C   0  0  0  0  0  2  0  0  0  0  0  0
  159.9960  212.2940  151.7130 C   0  0  0  0  0  2  0  0  0  0  0  0
  156.6080  211.3070  155.1510 C   0  0  0  0  0  0  0  0  0  0  0  0
  156.2400  213.6990  155.6600 C   0  0  0  0  0  1  0  0  0  0  0  0
  155.9810  210.3120  155.4720 O   0  0  0  0  0  0  0  0  0  0  0  0
  156.6930  212.7250  154.5920 C   0  0  1  0  0  3  0  0  0  0  0  0
  157.9120  212.0880  154.9870 C   0  0  2  0  0  3  0  0  0  0  0  0
  160.7980  208.2830  151.7960 C   0  0  0  0  0  2  0  0  0  0  0  0
  162.2670  208.8790  149.8020 N   0  0  0  0  0  2  0  0  0  0  0  0
  162.4660  209.9780  151.8410 O   0  0  0  0  0  0  0  0  0  0  0  0
  161.8770  209.0990  151.1620 C   0  0  0  0  0  0  0  0  0  0  0  0
  161.5710  207.9640  148.9080 C   0  0  0  0  0  2  0  0  0  0  0  0
  162.5600  207.0410  148.2180 C   0  0  0  0  0  2  0  0  0  0  0  0
  161.6930  205.8180  147.2540 S   0  0  0  0  0  0  0  0  0  0  0  0
  160.3960  206.3990  146.7630 O   0  0  0  0  0  0  0  0  0  0  0  0
  162.5490  205.4280  146.0820 O   0  0  0  0  0  0  0  0  0  0  0  0
  160.7420  202.1850  149.8450 C   0  0  0  0  0  3  0  0  0  0  0  0
  161.1880  203.1330  147.6500 C   0  0  0  0  0  0  0  0  0  0  0  0
  160.9040  203.4440  150.4260 C   0  0  0  0  0  0  0  0  0  0  0  0
  161.3500  204.4000  148.2410 C   0  0  0  0  0  0  0  0  0  0  0  0
  160.7570  203.6060  151.8320 N   0  0  0  0  0  1  0  0  0  0  0  0
  161.2080  204.5460  149.6260 C   0  0  0  0  0  3  0  0  0  0  0  0
  160.8840  202.0280  148.4650 C   0  0  0  0  0  3  0  0  0  0  0  0
  160.5830  202.0470  145.5060 C   0  0  0  0  0  1  0  0  0  0  0  0
  161.3330  202.9870  146.2650 O   0  0  0  0  0  0  0  0  0  0  0  0
  1  2  2  0  0  0  0
  2  4  1  0  0  0  0
  4  3  2  0  0  0  0
  6  7  1  0  0  0  0
  6  5  2  0  0  0  0
  7  4  1  0  0  0  0
  8  6  1  1  0  0  0
  9 10  1  0  0  0  0
 10  8  1  0  0  0  0
 11  9  1  0  0  0  0
 12 11  1  0  0  0  0
 12 13  1  0  0  0  0
 13 14  1  0  0  0  0
 14 10  1  0  0  0  0
 15 17  2  0  0  0  0
 18 19  1  0  0  0  0
 18 15  1  0  0  0  0
 18 16  1  1  0  0  0
 19  8  1  6  0  0  0
 19 15  1  0  0  0  0
 20  1  1  0  0  0  0
 21 23  1  0  0  0  0
 23 20  1  0  0  0  0
 23 22  2  0  0  0  0
 24 21  1  0  0  0  0
 25 24  1  0  0  0  0
 26 25  1  0  0  0  0
 26 32  1  0  0  0  0
 27 26  2  0  0  0  0
 28 26  2  0  0  0  0
 29 31  1  0  0  0  0
 30 32  2  0  0  0  0
 30 35  1  0  0  0  0
 31 33  1  0  0  0  0
 32 34  1  0  0  0  0
 34 31  2  0  0  0  0
 35 29  2  0  0  0  0
 36 37  1  0  0  0  0
 37 30  1  0  0  0  0
M  END
>  <MODEL>
7

>  <REMARK>
 VINA RESULT:      -6.3      1.584      3.100
  Name = 
  12 active torsions:
  status: ('A' for Active; 'I' for Inactive)
    1  A    between atoms: N_1  and  C_16
    2  A    between atoms: C_5  and  O_34
    3  A    between atoms: C_6  and  C_17
    4  A    between atoms: N_13  and  C_36
    5  A    between atoms: C_15  and  C_17
    6  A    between atoms: C_16  and  C_32
    7  A    between atoms: C_17  and  C_35
    8  A    between atoms: C_19  and  S_20
    9  A    between atoms: S_20  and  C_27
   10  A    between atoms: C_21  and  N_23
   11  A    between atoms: C_21  and  C_28
   12  A    between atoms: C_27  and  C_36
                            x       y       z     vdW  Elec       q    Type
                         _______ _______ _______ _____ _____    ______ ____

>  <TORSDO>
F 12

$$$$
=
 OpenBabel11072413033D

 37 39  0  0  1  0  0  0  0  0999 V2000
  160.9170  208.0240  153.7830 N   0  0  0  0  0  0  0  0  0  0  0  0
  161.6790  207.3750  152.9490 C   0  0  0  0  0  3  0  0  0  0  0  0
  162.0610  208.9900  151.1330 C   0  0  0  0  0  2  0  0  0  0  0  0
  161.9490  207.7270  151.5380 C   0  0  0  0  0  0  0  0  0  0  0  0
  159.9040  206.5740  149.7520 O   0  0  0  0  0  0  0  0  0  0  0  0
  161.0320  206.0220  149.8610 C   0  0  0  0  0  0  0  0  0  0  0  0
  162.0870  206.6460  150.6040 N   0  0  0  0  0  2  0  0  0  0  0  0
  161.2910  204.6940  149.2080 C   0  0  2  0  0  3  0  0  0  0  0  0
  162.5820  204.3040  147.0620 C   0  0  0  0  0  2  0  0  0  0  0  0
  161.2410  204.7310  147.6780 C   0  0  0  0  0  3  0  0  0  0  0  0
  162.7690  204.7930  145.6200 C   0  0  0  0  0  2  0  0  0  0  0  0
  161.4340  204.9480  144.9010 C   0  0  0  0  0  2  0  0  0  0  0  0
  160.5440  205.9910  145.5930 C   0  0  0  0  0  2  0  0  0  0  0  0
  160.7450  206.0660  147.1120 C   0  0  0  0  0  2  0  0  0  0  0  0
  161.1690  202.8160  150.8320 C   0  0  0  0  0  0  0  0  0  0  0  0
  159.7510  201.2910  149.4970 C   0  0  0  0  0  1  0  0  0  0  0  0
  161.6600  202.6910  151.9400 O   0  0  0  0  0  0  0  0  0  0  0  0
  160.8730  202.3070  149.4230 C   0  0  1  0  0  3  0  0  0  0  0  0
  160.3900  203.6050  149.7790 C   0  0  2  0  0  3  0  0  0  0  0  0
  160.1230  209.2050  153.4770 C   0  0  0  0  0  2  0  0  0  0  0  0
  160.4880  211.7230  153.5880 N   0  0  0  0  0  2  0  0  0  0  0  0
  161.5670  210.2640  155.0420 O   0  0  0  0  0  0  0  0  0  0  0  0
  160.7610  210.4090  154.0880 C   0  0  0  0  0  0  0  0  0  0  0  0
  159.4900  211.9980  152.5640 C   0  0  0  0  0  2  0  0  0  0  0  0
  160.1270  211.9930  151.1860 C   0  0  0  0  0  2  0  0  0  0  0  0
  159.8000  213.5310  150.3480 S   0  0  0  0  0  0  0  0  0  0  0  0
  158.5800  214.1750  150.9500 O   0  0  0  0  0  0  0  0  0  0  0  0
  160.9860  214.4390  150.5170 O   0  0  0  0  0  0  0  0  0  0  0  0
  159.0050  212.8460  145.9090 C   0  0  0  0  0  3  0  0  0  0  0  0
  160.5740  212.9410  147.7650 C   0  0  0  0  0  0  0  0  0  0  0  0
  157.9530  213.1410  146.7770 C   0  0  0  0  0  0  0  0  0  0  0  0
  159.5090  213.2400  148.6370 C   0  0  0  0  0  0  0  0  0  0  0  0
  156.6250  213.2460  146.2790 N   0  0  0  0  0  1  0  0  0  0  0  0
  158.2050  213.3360  148.1360 C   0  0  0  0  0  3  0  0  0  0  0  0
  160.3090  212.7440  146.3980 C   0  0  0  0  0  3  0  0  0  0  0  0
  162.5680  211.6050  148.3820 C   0  0  0  0  0  1  0  0  0  0  0  0
  161.8770  212.8430  148.2670 O   0  0  0  0  0  0  0  0  0  0  0  0
  2  1  2  0  0  0  0
  3  4  2  0  0  0  0
  4  2  1  0  0  0  0
  5  6  2  0  0  0  0
  6  7  1  0  0  0  0
  7  4  1  0  0  0  0
  8  6  1  1  0  0  0
  9 10  1  0  0  0  0
 10  8  1  0  0  0  0
 11  9  1  0  0  0  0
 12 13  1  0  0  0  0
 12 11  1  0  0  0  0
 13 14  1  0  0  0  0
 14 10  1  0  0  0  0
 15 17  2  0  0  0  0
 18 16  1  1  0  0  0
 18 19  1  0  0  0  0
 18 15  1  0  0  0  0
 19  8  1  6  0  0  0
 19 15  1  0  0  0  0
 20  1  1  0  0  0  0
 20 23  1  0  0  0  0
 21 23  1  0  0  0  0
 23 22  2  0  0  0  0
 24 21  1  0  0  0  0
 25 24  1  0  0  0  0
 26 28  2  0  0  0  0
 26 27  2  0  0  0  0
 26 25  1  0  0  0  0
 29 35  2  0  0  0  0
 29 31  1  0  0  0  0
 30 37  1  0  0  0  0
 30 32  2  0  0  0  0
 31 34  2  0  0  0  0
 32 26  1  0  0  0  0
 33 31  1  0  0  0  0
 34 32  1  0  0  0  0
 35 30  1  0  0  0  0
 37 36  1  0  0  0  0
M  END
>  <MODEL>
8

>  <REMARK>
 VINA RESULT:      -6.3      3.204      9.367
  Name = 
  12 active torsions:
  status: ('A' for Active; 'I' for Inactive)
    1  A    between atoms: N_1  and  C_16
    2  A    between atoms: C_5  and  O_34
    3  A    between atoms: C_6  and  C_17
    4  A    between atoms: N_13  and  C_36
    5  A    between atoms: C_15  and  C_17
    6  A    between atoms: C_16  and  C_32
    7  A    between atoms: C_17  and  C_35
    8  A    between atoms: C_19  and  S_20
    9  A    between atoms: S_20  and  C_27
   10  A    between atoms: C_21  and  N_23
   11  A    between atoms: C_21  and  C_28
   12  A    between atoms: C_27  and  C_36
                            x       y       z     vdW  Elec       q    Type
                         _______ _______ _______ _____ _____    ______ ____

>  <TORSDO>
F 12

$$$$
=
 OpenBabel11072413033D

 37 39  0  0  1  0  0  0  0  0999 V2000
  162.2080  208.4230  152.3240 N   0  0  0  0  0  0  0  0  0  0  0  0
  162.7380  208.6860  151.1630 C   0  0  0  0  0  3  0  0  0  0  0  0
  161.5130  209.7470  149.3130 C   0  0  0  0  0  2  0  0  0  0  0  0
  162.0560  208.6580  149.8510 C   0  0  0  0  0  0  0  0  0  0  0  0
  159.9460  206.5990  149.9840 O   0  0  0  0  0  0  0  0  0  0  0  0
  161.0220  206.3630  149.3720 C   0  0  0  0  0  0  0  0  0  0  0  0
  161.9950  207.3970  149.1680 N   0  0  0  0  0  2  0  0  0  0  0  0
  161.3060  204.9870  148.8400 C   0  0  2  0  0  3  0  0  0  0  0  0
  162.3780  204.1720  146.6940 C   0  0  0  0  0  2  0  0  0  0  0  0
  161.1590  204.8640  147.3210 C   0  0  0  0  0  3  0  0  0  0  0  0
  162.5380  204.4660  145.1960 C   0  0  0  0  0  2  0  0  0  0  0  0
  161.1940  204.7420  144.5320 C   0  0  0  0  0  2  0  0  0  0  0  0
  160.5150  205.9780  145.1390 C   0  0  0  0  0  2  0  0  0  0  0  0
  160.8250  206.1880  146.6270 C   0  0  0  0  0  2  0  0  0  0  0  0
  161.3830  203.2650  150.6310 C   0  0  0  0  0  0  0  0  0  0  0  0
  159.9320  201.5760  149.5560 C   0  0  0  0  0  1  0  0  0  0  0  0
  161.9610  203.2610  151.7040 O   0  0  0  0  0  0  0  0  0  0  0  0
  161.0030  202.6170  149.3020 C   0  0  1  0  0  3  0  0  0  0  0  0
  160.4950  203.9260  149.5770 C   0  0  2  0  0  3  0  0  0  0  0  0
  160.8400  207.9870  152.5620 C   0  0  0  0  0  2  0  0  0  0  0  0
  160.4490  207.2870  154.9790 N   0  0  0  0  0  2  0  0  0  0  0  0
  161.1650  205.7720  153.3670 O   0  0  0  0  0  0  0  0  0  0  0  0
  160.8230  206.9520  153.6380 C   0  0  0  0  0  0  0  0  0  0  0  0
  159.9350  208.5940  155.3640 C   0  0  0  0  0  2  0  0  0  0  0  0
  161.0780  209.5510  155.6500 C   0  0  0  0  0  2  0  0  0  0  0  0
  160.4510  211.0820  156.3110 S   0  0  0  0  0  0  0  0  0  0  0  0
  159.3150  210.7890  157.2540 O   0  0  0  0  0  0  0  0  0  0  0  0
  161.5560  211.7810  157.0520 O   0  0  0  0  0  0  0  0  0  0  0  0
  158.9000  213.6790  152.8960 C   0  0  0  0  0  3  0  0  0  0  0  0
  159.0460  213.2230  155.2800 C   0  0  0  0  0  0  0  0  0  0  0  0
  159.7110  212.5750  152.6310 C   0  0  0  0  0  0  0  0  0  0  0  0
  159.8630  212.1100  155.0080 C   0  0  0  0  0  0  0  0  0  0  0  0
  160.0480  212.2410  151.2900 N   0  0  0  0  0  1  0  0  0  0  0  0
  160.1920  211.7940  153.6840 C   0  0  0  0  0  3  0  0  0  0  0  0
  158.5690  214.0040  154.2130 C   0  0  0  0  0  3  0  0  0  0  0  0
  157.4990  214.1720  156.9690 C   0  0  0  0  0  1  0  0  0  0  0  0
  158.7190  213.5390  156.6050 O   0  0  0  0  0  0  0  0  0  0  0  0
  1 20  1  0  0  0  0
  2  1  2  0  0  0  0
  3  4  2  0  0  0  0
  4  2  1  0  0  0  0
  6  5  2  0  0  0  0
  7  6  1  0  0  0  0
  7  4  1  0  0  0  0
  8  6  1  1  0  0  0
  9 10  1  0  0  0  0
 10  8  1  0  0  0  0
 11  9  1  0  0  0  0
 12 13  1  0  0  0  0
 12 11  1  0  0  0  0
 13 14  1  0  0  0  0
 14 10  1  0  0  0  0
 15 17  2  0  0  0  0
 18 16  1  1  0  0  0
 18 19  1  0  0  0  0
 18 15  1  0  0  0  0
 19  8  1  6  0  0  0
 19 15  1  0  0  0  0
 20 23  1  0  0  0  0
 21 24  1  0  0  0  0
 22 23  2  0  0  0  0
 23 21  1  0  0  0  0
 24 25  1  0  0  0  0
 25 26  1  0  0  0  0
 26 28  2  0  0  0  0
 26 27  2  0  0  0  0
 29 35  1  0  0  0  0
 30 37  1  0  0  0  0
 31 29  2  0  0  0  0
 31 34  1  0  0  0  0
 32 30  1  0  0  0  0
 32 26  1  0  0  0  0
 33 31  1  0  0  0  0
 34 32  2  0  0  0  0
 35 30  2  0  0  0  0
 37 36  1  0  0  0  0
M  END
>  <MODEL>
9

>  <REMARK>
 VINA RESULT:      -6.3      3.227     10.241
  Name = 
  12 active torsions:
  status: ('A' for Active; 'I' for Inactive)
    1  A    between atoms: N_1  and  C_16
    2  A    between atoms: C_5  and  O_34
    3  A    between atoms: C_6  and  C_17
    4  A    between atoms: N_13  and  C_36
    5  A    between atoms: C_15  and  C_17
    6  A    between atoms: C_16  and  C_32
    7  A    between atoms: C_17  and  C_35
    8  A    between atoms: C_19  and  S_20
    9  A    between atoms: S_20  and  C_27
   10  A    between atoms: C_21  and  N_23
   11  A    between atoms: C_21  and  C_28
   12  A    between atoms: C_27  and  C_36
                            x       y       z     vdW  Elec       q    Type
                         _______ _______ _______ _____ _____    ______ ____

>  <TORSDO>
F 12

$$$$
