=
 OpenBabel11072413053D

 37 40  0  0  1  0  0  0  0  0999 V2000
  162.3940  213.8560  148.2720 N   0  0  0  0  0  0  0  0  0  0  0  0
  158.8520  213.3180  148.3210 C   0  0  2  0  0  3  0  0  0  0  0  0
  157.4890  213.3790  148.7240 N   0  0  0  0  0  1  0  0  0  0  0  0
  161.0670  213.5340  148.5860 C   0  0  0  0  0  0  0  0  0  0  0  0
  160.7010  212.9690  146.5600 C   0  0  0  0  0  0  0  0  0  0  0  0
  159.7880  213.6900  149.1530 N   0  0  0  0  0  2  0  0  0  0  0  0
  159.1940  212.8460  146.8880 C   0  0  0  0  0  2  0  0  0  0  0  0
  161.7420  212.8170  147.6570 C   0  0  1  0  0  0  0  0  0  0  0  0
  161.4440  212.8410  144.0620 C   0  0  0  0  0  3  0  0  0  0  0  0
  161.0760  212.9040  145.3120 C   0  0  0  0  0  0  0  0  0  0  0  0
  161.9950  211.4430  148.2020 C   0  0  0  0  0  3  0  0  0  0  0  0
  162.0520  211.2230  149.4660 N   0  0  0  0  0  0  0  0  0  0  0  0
  161.6900  209.7490  151.3470 C   0  0  0  0  0  2  0  0  0  0  0  0
  162.3000  209.8990  149.9720 C   0  0  1  0  0  3  0  0  0  0  0  0
  161.3630  208.2770  151.4800 C   0  0  0  0  0  2  0  0  0  0  0  0
  161.6160  208.8530  149.1110 C   0  0  0  0  0  2  0  0  0  0  0  0
  161.1430  207.7680  150.0640 C   0  0  1  0  0  3  0  0  0  0  0  0
  161.8470  206.4320  149.8130 C   0  0  0  0  0  2  0  0  0  0  0  0
  160.9910  204.4570  151.0640 C   0  0  0  0  0  1  0  0  0  0  0  0
  160.8940  205.2370  149.7650 C   0  0  2  0  0  3  0  0  0  0  0  0
  161.1920  204.3390  148.6020 C   0  0  0  0  0  0  0  0  0  0  0  0
  161.0760  203.1260  148.7060 O   0  0  0  0  0  0  0  0  0  0  0  0
  161.6230  204.9420  147.3060 C   0  0  0  0  0  3  0  0  0  0  0  0
  161.8430  203.9480  146.3700 F   0  0  0  0  0  0  0  0  0  0  0  0
  160.6500  205.8070  146.8440 F   0  0  0  0  0  0  0  0  0  0  0  0
  159.4380  213.3010  142.7120 C   0  0  0  0  0  1  0  0  0  0  0  0
  160.8490  213.7590  143.0480 C   0  0  2  0  0  3  0  0  0  0  0  0
  161.7420  213.8500  141.8010 C   0  0  2  0  0  3  0  0  0  0  0  0
  160.0170  210.8550  139.2560 C   0  0  0  0  0  3  0  0  0  0  0  0
  161.3420  212.8680  140.7370 C   0  0  0  0  0  0  0  0  0  0  0  0
  163.0290  211.2970  140.1590 O   0  0  0  0  0  1  0  0  0  0  0  0
  160.5400  213.2310  139.7180 C   0  0  0  0  0  3  0  0  0  0  0  0
  161.8240  211.4390  140.8480 C   0  0  2  0  0  3  0  0  0  0  0  0
  160.8020  210.4830  140.2800 C   0  0  0  0  0  3  0  0  0  0  0  0
  160.1590  212.2290  138.6560 C   0  0  0  0  0  2  0  0  0  0  0  0
  163.0990  213.7210  142.1170 O   0  0  0  0  0  0  0  0  0  0  0  0
  163.7340  214.2460  141.0820 F   0  0  0  0  0  0  0  0  0  0  0  0
  1  4  2  0  0  0  0
  2  3  1  6  0  0  0
  2  6  1  0  0  0  0
  4  6  1  0  0  0  0
  5  7  1  0  0  0  0
  5  8  1  0  0  0  0
  7  2  1  0  0  0  0
  8 11  1  1  0  0  0
  8  1  1  0  0  0  0
  8  4  1  0  0  0  0
  9 10  2  0  0  0  0
 10  5  2  0  0  0  0
 11 12  2  0  0  0  0
 13 15  1  0  0  0  0
 14 12  1  6  0  0  0
 14 13  1  0  0  0  0
 16 14  1  0  0  0  0
 16 17  1  0  0  0  0
 17 18  1  1  0  0  0
 17 15  1  0  0  0  0
 20 18  1  0  0  0  0
 20 19  1  1  0  0  0
 21 22  2  0  0  0  0
 21 20  1  0  0  0  0
 23 21  1  0  0  0  0
 24 23  1  0  0  0  0
 25 23  1  0  0  0  0
 27 26  1  6  0  0  0
 27  9  1  0  0  0  0
 28 36  1  1  0  0  0
 28 27  1  0  0  0  0
 29 34  2  0  0  0  0
 30 33  1  0  0  0  0
 30 28  1  0  0  0  0
 32 30  2  0  0  0  0
 33 31  1  6  0  0  0
 34 33  1  0  0  0  0
 35 29  1  0  0  0  0
 35 32  1  0  0  0  0
 37 36  1  0  0  0  0
M  END
>  <MODEL>
1

>  <REMARK>
 VINA RESULT:      -7.3      0.000      0.000
  Name = 
  10 active torsions:
  status: ('A' for Active; 'I' for Inactive)
    1  A    between atoms: C_1  and  C_27
    2  A    between atoms: C_7  and  C_11
    3  A    between atoms: C_7  and  C_32
    4  A    between atoms: C_9  and  C_29
    5  A    between atoms: C_14  and  N_28
    6  A    between atoms: C_17  and  C_32
    7  A    between atoms: C_17  and  C_37
    8  A    between atoms: C_19  and  C_29
    9  A    between atoms: C_19  and  C_31
   10  A    between atoms: O_20  and  C_29
                            x       y       z     vdW  Elec       q    Type
                         _______ _______ _______ _____ _____    ______ ____

>  <TORSDO>
F 10

$$$$
=
 OpenBabel11072413053D

 37 40  0  0  1  0  0  0  0  0999 V2000
  162.9790  205.9470  152.0690 N   0  0  0  0  0  0  0  0  0  0  0  0
  161.7820  207.9920  149.3820 C   0  0  2  0  0  3  0  0  0  0  0  0
  161.7380  208.9920  148.3710 N   0  0  0  0  0  1  0  0  0  0  0  0
  162.5770  206.9860  151.2200 C   0  0  0  0  0  0  0  0  0  0  0  0
  161.0110  205.7680  150.4320 C   0  0  0  0  0  0  0  0  0  0  0  0
  162.7140  208.0400  150.2970 N   0  0  0  0  0  2  0  0  0  0  0  0
  160.7440  206.8450  149.3540 C   0  0  0  0  0  2  0  0  0  0  0  0
  161.6590  206.1470  151.7540 C   0  0  1  0  0  0  0  0  0  0  0  0
  159.8150  203.4600  150.2060 C   0  0  0  0  0  3  0  0  0  0  0  0
  160.4140  204.6140  150.3240 C   0  0  0  0  0  0  0  0  0  0  0  0
  160.8350  206.9090  152.7500 C   0  0  0  0  0  3  0  0  0  0  0  0
  161.1400  206.9270  153.9980 N   0  0  0  0  0  0  0  0  0  0  0  0
  160.5690  207.1300  156.3370 C   0  0  0  0  0  2  0  0  0  0  0  0
  160.3350  207.6590  154.9400 C   0  0  1  0  0  3  0  0  0  0  0  0
  160.3080  208.3040  157.2560 C   0  0  0  0  0  2  0  0  0  0  0  0
  160.7480  209.1180  154.9870 C   0  0  0  0  0  2  0  0  0  0  0  0
  160.6000  209.5500  156.4360 C   0  0  1  0  0  3  0  0  0  0  0  0
  159.5240  210.6260  156.6110 C   0  0  0  0  0  2  0  0  0  0  0  0
  159.8640  213.0860  156.7860 C   0  0  0  0  0  1  0  0  0  0  0  0
  159.8070  211.9090  155.8290 C   0  0  2  0  0  3  0  0  0  0  0  0
  158.7700  212.1520  154.7740 C   0  0  0  0  0  0  0  0  0  0  0  0
  157.6090  212.3840  155.0830 O   0  0  0  0  0  0  0  0  0  0  0  0
  159.1700  212.1200  153.3360 C   0  0  0  0  0  3  0  0  0  0  0  0
  160.5440  212.0130  153.2270 F   0  0  0  0  0  0  0  0  0  0  0  0
  158.5690  211.0470  152.7050 F   0  0  0  0  0  0  0  0  0  0  0  0
  159.3730  201.2680  149.1800 C   0  0  0  0  0  1  0  0  0  0  0  0
  159.9480  202.6580  148.9560 C   0  0  2  0  0  3  0  0  0  0  0  0
  161.4100  202.6120  148.4870 C   0  0  2  0  0  3  0  0  0  0  0  0
  161.6360  205.6290  145.4430 C   0  0  0  0  0  3  0  0  0  0  0  0
  161.6570  203.4910  147.2940 C   0  0  0  0  0  0  0  0  0  0  0  0
  161.0630  202.5150  145.2090 O   0  0  0  0  0  1  0  0  0  0  0  0
  162.7180  204.3180  147.2440 C   0  0  0  0  0  3  0  0  0  0  0  0
  160.6650  203.4630  146.1530 C   0  0  2  0  0  3  0  0  0  0  0  0
  160.5670  204.8190  145.4940 C   0  0  0  0  0  3  0  0  0  0  0  0
  162.9500  205.1850  146.0310 C   0  0  0  0  0  2  0  0  0  0  0  0
  161.8410  201.3040  148.2430 O   0  0  0  0  0  0  0  0  0  0  0  0
  161.9580  200.7620  149.4440 F   0  0  0  0  0  0  0  0  0  0  0  0
  2  3  1  6  0  0  0
  2  6  1  0  0  0  0
  4  8  1  0  0  0  0
  4  1  2  0  0  0  0
  5  8  1  0  0  0  0
  6  4  1  0  0  0  0
  7  2  1  0  0  0  0
  7  5  1  0  0  0  0
  8  1  1  0  0  0  0
  8 11  1  1  0  0  0
  9 10  2  0  0  0  0
 10  5  2  0  0  0  0
 11 12  2  0  0  0  0
 13 15  1  0  0  0  0
 14 12  1  6  0  0  0
 14 16  1  0  0  0  0
 14 13  1  0  0  0  0
 16 17  1  0  0  0  0
 17 18  1  6  0  0  0
 17 15  1  0  0  0  0
 20 18  1  0  0  0  0
 20 19  1  1  0  0  0
 21 22  2  0  0  0  0
 21 20  1  0  0  0  0
 23 21  1  0  0  0  0
 24 23  1  0  0  0  0
 25 23  1  0  0  0  0
 27 26  1  1  0  0  0
 27  9  1  0  0  0  0
 28 36  1  6  0  0  0
 28 27  1  0  0  0  0
 29 34  2  0  0  0  0
 29 35  1  0  0  0  0
 30 28  1  0  0  0  0
 32 30  2  0  0  0  0
 33 31  1  6  0  0  0
 33 30  1  0  0  0  0
 34 33  1  0  0  0  0
 35 32  1  0  0  0  0
 36 37  1  0  0  0  0
M  END
>  <MODEL>
2

>  <REMARK>
 VINA RESULT:      -7.2      6.364      9.527
  Name = 
  10 active torsions:
  status: ('A' for Active; 'I' for Inactive)
    1  A    between atoms: C_1  and  C_27
    2  A    between atoms: C_7  and  C_11
    3  A    between atoms: C_7  and  C_32
    4  A    between atoms: C_9  and  C_29
    5  A    between atoms: C_14  and  N_28
    6  A    between atoms: C_17  and  C_32
    7  A    between atoms: C_17  and  C_37
    8  A    between atoms: C_19  and  C_29
    9  A    between atoms: C_19  and  C_31
   10  A    between atoms: O_20  and  C_29
                            x       y       z     vdW  Elec       q    Type
                         _______ _______ _______ _____ _____    ______ ____

>  <TORSDO>
F 10

$$$$
=
 OpenBabel11072413053D

 37 40  0  0  1  0  0  0  0  0999 V2000
  162.4430  210.5980  153.3700 N   0  0  0  0  0  0  0  0  0  0  0  0
  160.2690  208.6180  155.4180 C   0  0  2  0  0  3  0  0  0  0  0  0
  159.7980  207.8180  156.4950 N   0  0  0  0  0  1  0  0  0  0  0  0
  161.8220  209.6030  154.1380 C   0  0  0  0  0  0  0  0  0  0  0  0
  159.9040  210.2280  153.4380 C   0  0  0  0  0  0  0  0  0  0  0  0
  161.5530  208.8090  155.2680 N   0  0  0  0  0  2  0  0  0  0  0  0
  159.2440  209.2800  154.4670 C   0  0  0  0  0  2  0  0  0  0  0  0
  161.3130  209.9550  152.9340 C   0  0  1  0  0  0  0  0  0  0  0  0
  158.3890  211.9190  152.1530 C   0  0  0  0  0  3  0  0  0  0  0  0
  159.1500  211.0740  152.7930 C   0  0  0  0  0  0  0  0  0  0  0  0
  161.5090  208.8160  151.9780 C   0  0  0  0  0  3  0  0  0  0  0  0
  161.7080  207.6170  152.3960 N   0  0  0  0  0  0  0  0  0  0  0  0
  160.8530  205.4700  151.6900 C   0  0  0  0  0  2  0  0  0  0  0  0
  161.9000  206.5360  151.4640 C   0  0  1  0  0  3  0  0  0  0  0  0
  160.6630  204.8060  150.3430 C   0  0  0  0  0  2  0  0  0  0  0  0
  161.6940  207.0090  150.0370 C   0  0  0  0  0  2  0  0  0  0  0  0
  161.0300  205.8550  149.3050 C   0  0  1  0  0  3  0  0  0  0  0  0
  161.9190  205.2870  148.1950 C   0  0  0  0  0  2  0  0  0  0  0  0
  161.3310  202.9280  147.6560 C   0  0  0  0  0  1  0  0  0  0  0  0
  161.1740  204.3740  147.2200 C   0  0  2  0  0  3  0  0  0  0  0  0
  161.6690  204.5450  145.8160 C   0  0  0  0  0  0  0  0  0  0  0  0
  162.7960  204.1850  145.5040 O   0  0  0  0  0  0  0  0  0  0  0  0
  160.7670  205.1520  144.7920 C   0  0  0  0  0  3  0  0  0  0  0  0
  160.0000  206.1490  145.3660 F   0  0  0  0  0  0  0  0  0  0  0  0
  161.5170  205.6800  143.7590 F   0  0  0  0  0  0  0  0  0  0  0  0
  157.2890  214.1190  152.0640 C   0  0  0  0  0  1  0  0  0  0  0  0
  157.5110  212.8670  152.8990 C   0  0  2  0  0  3  0  0  0  0  0  0
  158.1010  213.1890  154.2800 C   0  0  2  0  0  3  0  0  0  0  0  0
  154.6900  212.9670  156.8760 C   0  0  0  0  0  3  0  0  0  0  0  0
  157.0910  213.0440  155.3820 C   0  0  0  0  0  0  0  0  0  0  0  0
  157.4710  214.4510  157.2610 O   0  0  0  0  0  1  0  0  0  0  0  0
  156.5470  211.8480  155.6780 C   0  0  0  0  0  3  0  0  0  0  0  0
  156.6590  214.2800  156.1390 C   0  0  2  0  0  3  0  0  0  0  0  0
  155.2160  214.1650  156.5740 C   0  0  0  0  0  3  0  0  0  0  0  0
  155.5410  211.7260  156.7960 C   0  0  0  0  0  2  0  0  0  0  0  0
  158.7000  214.4530  154.3130 O   0  0  0  0  0  0  0  0  0  0  0  0
  159.6670  214.3410  155.2080 F   0  0  0  0  0  0  0  0  0  0  0  0
  1  4  2  0  0  0  0
  2  3  1  1  0  0  0
  4  6  1  0  0  0  0
  5  7  1  0  0  0  0
  6  2  1  0  0  0  0
  7  2  1  0  0  0  0
  8 11  1  6  0  0  0
  8  1  1  0  0  0  0
  8  5  1  0  0  0  0
  8  4  1  0  0  0  0
  9 10  2  0  0  0  0
  9 27  1  0  0  0  0
 10  5  2  0  0  0  0
 11 12  2  0  0  0  0
 14 13  1  0  0  0  0
 14 12  1  1  0  0  0
 15 13  1  0  0  0  0
 16 14  1  0  0  0  0
 17 18  1  6  0  0  0
 17 16  1  0  0  0  0
 17 15  1  0  0  0  0
 20 19  1  1  0  0  0
 20 18  1  0  0  0  0
 21 20  1  0  0  0  0
 22 21  2  0  0  0  0
 23 24  1  0  0  0  0
 23 21  1  0  0  0  0
 25 23  1  0  0  0  0
 27 26  1  6  0  0  0
 27 28  1  0  0  0  0
 28 36  1  6  0  0  0
 28 30  1  0  0  0  0
 30 32  2  0  0  0  0
 30 33  1  0  0  0  0
 32 35  1  0  0  0  0
 33 34  1  0  0  0  0
 33 31  1  1  0  0  0
 34 29  2  0  0  0  0
 35 29  1  0  0  0  0
 36 37  1  0  0  0  0
M  END
>  <MODEL>
3

>  <REMARK>
 VINA RESULT:      -6.3      6.119      9.945
  Name = 
  10 active torsions:
  status: ('A' for Active; 'I' for Inactive)
    1  A    between atoms: C_1  and  C_27
    2  A    between atoms: C_7  and  C_11
    3  A    between atoms: C_7  and  C_32
    4  A    between atoms: C_9  and  C_29
    5  A    between atoms: C_14  and  N_28
    6  A    between atoms: C_17  and  C_32
    7  A    between atoms: C_17  and  C_37
    8  A    between atoms: C_19  and  C_29
    9  A    between atoms: C_19  and  C_31
   10  A    between atoms: O_20  and  C_29
                            x       y       z     vdW  Elec       q    Type
                         _______ _______ _______ _____ _____    ______ ____

>  <TORSDO>
F 10

$$$$
=
 OpenBabel11072413053D

 37 40  0  0  1  0  0  0  0  0999 V2000
  161.2550  211.5350  154.9850 N   0  0  0  0  0  0  0  0  0  0  0  0
  157.7180  211.0880  154.6330 C   0  0  2  0  0  3  0  0  0  0  0  0
  156.3390  210.9740  154.9620 N   0  0  0  0  0  1  0  0  0  0  0  0
  159.9180  211.1230  155.0570 C   0  0  0  0  0  0  0  0  0  0  0  0
  159.6430  211.5740  152.9890 C   0  0  0  0  0  0  0  0  0  0  0  0
  158.6160  211.0150  155.5790 N   0  0  0  0  0  2  0  0  0  0  0  0
  158.1240  211.3340  153.1610 C   0  0  0  0  0  2  0  0  0  0  0  0
  160.6370  210.9120  153.9300 C   0  0  1  0  0  0  0  0  0  0  0  0
  160.4920  212.6150  150.7530 C   0  0  0  0  0  3  0  0  0  0  0  0
  160.0720  212.0930  151.8720 C   0  0  0  0  0  0  0  0  0  0  0  0
  160.8750  209.4390  153.7800 C   0  0  0  0  0  3  0  0  0  0  0  0
  161.7070  208.9790  152.9170 N   0  0  0  0  0  0  0  0  0  0  0  0
  161.0810  206.8170  153.7970 C   0  0  0  0  0  2  0  0  0  0  0  0
  161.9200  207.5610  152.7840 C   0  0  1  0  0  3  0  0  0  0  0  0
  160.8000  205.4690  153.1700 C   0  0  0  0  0  2  0  0  0  0  0  0
  161.4470  207.0680  151.4280 C   0  0  0  0  0  2  0  0  0  0  0  0
  160.8600  205.6870  151.6660 C   0  0  1  0  0  3  0  0  0  0  0  0
  161.6550  204.5910  150.9520 C   0  0  0  0  0  2  0  0  0  0  0  0
  160.9740  202.1980  150.8440 C   0  0  0  0  0  1  0  0  0  0  0  0
  160.7770  203.5700  150.2260 C   0  0  2  0  0  3  0  0  0  0  0  0
  161.0830  203.5230  148.7590 C   0  0  0  0  0  0  0  0  0  0  0  0
  161.3160  204.5510  148.1380 O   0  0  0  0  0  0  0  0  0  0  0  0
  161.1120  202.2040  148.0610 C   0  0  0  0  0  3  0  0  0  0  0  0
  159.9600  201.4930  148.3410 F   0  0  0  0  0  0  0  0  0  0  0  0
  161.2170  202.3970  146.6970 F   0  0  0  0  0  0  0  0  0  0  0  0
  158.4170  213.8670  150.3250 C   0  0  0  0  0  1  0  0  0  0  0  0
  159.9370  213.9090  150.2610 C   0  0  2  0  0  3  0  0  0  0  0  0
  160.4490  214.2230  148.8470 C   0  0  2  0  0  3  0  0  0  0  0  0
  157.3260  212.9750  146.1810 C   0  0  0  0  0  3  0  0  0  0  0  0
  159.3900  214.0340  147.7990 C   0  0  0  0  0  0  0  0  0  0  0  0
  160.1650  214.2570  145.5630 O   0  0  0  0  0  1  0  0  0  0  0  0
  158.1260  214.4530  148.0000 C   0  0  0  0  0  3  0  0  0  0  0  0
  159.7570  213.3240  146.5160 C   0  0  2  0  0  3  0  0  0  0  0  0
  158.5800  212.5390  145.9820 C   0  0  0  0  0  3  0  0  0  0  0  0
  157.0820  214.2600  146.9280 C   0  0  0  0  0  2  0  0  0  0  0  0
  161.6010  213.4940  148.5330 O   0  0  0  0  0  0  0  0  0  0  0  0
  162.4140  214.3770  147.9770 F   0  0  0  0  0  0  0  0  0  0  0  0
  1  4  2  0  0  0  0
  2  3  1  1  0  0  0
  2  6  1  0  0  0  0
  4  6  1  0  0  0  0
  5  7  1  0  0  0  0
  5  8  1  0  0  0  0
  7  2  1  0  0  0  0
  8 11  1  6  0  0  0
  8  1  1  0  0  0  0
  8  4  1  0  0  0  0
  9 10  2  0  0  0  0
 10  5  2  0  0  0  0
 12 11  2  0  0  0  0
 14 12  1  6  0  0  0
 14 13  1  0  0  0  0
 15 13  1  0  0  0  0
 16 17  1  0  0  0  0
 16 14  1  0  0  0  0
 17 18  1  6  0  0  0
 17 15  1  0  0  0  0
 20 19  1  1  0  0  0
 20 18  1  0  0  0  0
 21 20  1  0  0  0  0
 22 21  2  0  0  0  0
 23 24  1  0  0  0  0
 23 21  1  0  0  0  0
 25 23  1  0  0  0  0
 27 26  1  6  0  0  0
 27  9  1  0  0  0  0
 28 36  1  6  0  0  0
 28 27  1  0  0  0  0
 29 35  1  0  0  0  0
 30 32  2  0  0  0  0
 30 28  1  0  0  0  0
 33 31  1  6  0  0  0
 33 30  1  0  0  0  0
 34 29  2  0  0  0  0
 34 33  1  0  0  0  0
 35 32  1  0  0  0  0
 37 36  1  0  0  0  0
M  END
>  <MODEL>
4

>  <REMARK>
 VINA RESULT:      -6.2      4.261      5.881
  Name = 
  10 active torsions:
  status: ('A' for Active; 'I' for Inactive)
    1  A    between atoms: C_1  and  C_27
    2  A    between atoms: C_7  and  C_11
    3  A    between atoms: C_7  and  C_32
    4  A    between atoms: C_9  and  C_29
    5  A    between atoms: C_14  and  N_28
    6  A    between atoms: C_17  and  C_32
    7  A    between atoms: C_17  and  C_37
    8  A    between atoms: C_19  and  C_29
    9  A    between atoms: C_19  and  C_31
   10  A    between atoms: O_20  and  C_29
                            x       y       z     vdW  Elec       q    Type
                         _______ _______ _______ _____ _____    ______ ____

>  <TORSDO>
F 10

$$$$
=
 OpenBabel11072413053D

 37 40  0  0  1  0  0  0  0  0999 V2000
  162.8510  210.6990  153.9120 N   0  0  0  0  0  0  0  0  0  0  0  0
  160.3490  209.4050  156.1270 C   0  0  2  0  0  3  0  0  0  0  0  0
  159.7430  208.7970  157.2610 N   0  0  0  0  0  1  0  0  0  0  0  0
  162.0420  209.9230  154.7530 C   0  0  0  0  0  0  0  0  0  0  0  0
  160.3010  210.9490  154.0630 C   0  0  0  0  0  0  0  0  0  0  0  0
  161.6350  209.2760  155.9350 N   0  0  0  0  0  2  0  0  0  0  0  0
  159.4740  210.2410  155.1630 C   0  0  0  0  0  2  0  0  0  0  0  0
  161.5850  210.3220  153.5430 C   0  0  1  0  0  0  0  0  0  0  0  0
  159.1820  212.8830  152.7170 C   0  0  0  0  0  3  0  0  0  0  0  0
  159.7450  211.9150  153.3870 C   0  0  0  0  0  0  0  0  0  0  0  0
  161.4700  209.1200  152.6520 C   0  0  0  0  0  3  0  0  0  0  0  0
  162.4140  208.7930  151.8440 N   0  0  0  0  0  0  0  0  0  0  0  0
  161.0050  206.9030  151.3140 C   0  0  0  0  0  2  0  0  0  0  0  0
  162.2850  207.6390  150.9930 C   0  0  1  0  0  3  0  0  0  0  0  0
  160.6030  206.2220  150.0230 C   0  0  0  0  0  2  0  0  0  0  0  0
  162.1600  208.0510  149.5370 C   0  0  0  0  0  2  0  0  0  0  0  0
  161.1930  207.0650  148.9040 C   0  0  1  0  0  3  0  0  0  0  0  0
  161.8650  206.2090  147.8260 C   0  0  0  0  0  2  0  0  0  0  0  0
  161.4350  203.8270  148.4060 C   0  0  0  0  0  1  0  0  0  0  0  0
  161.0720  204.9550  147.4570 C   0  0  2  0  0  3  0  0  0  0  0  0
  161.3260  204.5380  146.0400 C   0  0  0  0  0  0  0  0  0  0  0  0
  161.4020  203.3530  145.7430 O   0  0  0  0  0  0  0  0  0  0  0  0
  161.4760  205.5850  144.9860 C   0  0  0  0  0  3  0  0  0  0  0  0
  162.7610  206.0930  145.0010 F   0  0  0  0  0  0  0  0  0  0  0  0
  161.2070  205.0430  143.7440 F   0  0  0  0  0  0  0  0  0  0  0  0
  159.0130  214.0360  154.8840 C   0  0  0  0  0  1  0  0  0  0  0  0
  158.5810  214.0500  153.4260 C   0  0  2  0  0  3  0  0  0  0  0  0
  157.0530  214.0570  153.2730 C   0  0  2  0  0  3  0  0  0  0  0  0
  155.7640  212.5300  157.0700 C   0  0  0  0  0  3  0  0  0  0  0  0
  156.3540  213.5090  154.4830 C   0  0  0  0  0  0  0  0  0  0  0  0
  155.2680  211.4230  154.1360 O   0  0  0  0  0  1  0  0  0  0  0  0
  155.7380  214.3230  155.3620 C   0  0  0  0  0  3  0  0  0  0  0  0
  156.3840  212.0170  154.7270 C   0  0  2  0  0  3  0  0  0  0  0  0
  156.3910  211.7150  156.2070 C   0  0  0  0  0  3  0  0  0  0  0  0
  155.0340  213.7480  156.5660 C   0  0  0  0  0  2  0  0  0  0  0  0
  156.6390  213.3950  152.1120 O   0  0  0  0  0  0  0  0  0  0  0  0
  156.6600  214.3250  151.1720 F   0  0  0  0  0  0  0  0  0  0  0  0
  1  4  2  0  0  0  0
  2  3  1  1  0  0  0
  4  6  1  0  0  0  0
  5  7  1  0  0  0  0
  6  2  1  0  0  0  0
  7  2  1  0  0  0  0
  8 11  1  6  0  0  0
  8  1  1  0  0  0  0
  8  5  1  0  0  0  0
  8  4  1  0  0  0  0
  9 10  2  0  0  0  0
  9 27  1  0  0  0  0
 10  5  2  0  0  0  0
 12 11  2  0  0  0  0
 14 13  1  0  0  0  0
 14 12  1  1  0  0  0
 15 13  1  0  0  0  0
 16 14  1  0  0  0  0
 17 18  1  6  0  0  0
 17 16  1  0  0  0  0
 17 15  1  0  0  0  0
 20 18  1  0  0  0  0
 20 19  1  1  0  0  0
 21 20  1  0  0  0  0
 22 21  2  0  0  0  0
 23 24  1  0  0  0  0
 23 21  1  0  0  0  0
 25 23  1  0  0  0  0
 27 26  1  1  0  0  0
 28 36  1  6  0  0  0
 28 27  1  0  0  0  0
 28 30  1  0  0  0  0
 30 33  1  0  0  0  0
 30 32  2  0  0  0  0
 32 35  1  0  0  0  0
 33 31  1  1  0  0  0
 33 34  1  0  0  0  0
 34 29  2  0  0  0  0
 35 29  1  0  0  0  0
 37 36  1  0  0  0  0
M  END
>  <MODEL>
5

>  <REMARK>
 VINA RESULT:      -6.1      6.056      9.608
  Name = 
  10 active torsions:
  status: ('A' for Active; 'I' for Inactive)
    1  A    between atoms: C_1  and  C_27
    2  A    between atoms: C_7  and  C_11
    3  A    between atoms: C_7  and  C_32
    4  A    between atoms: C_9  and  C_29
    5  A    between atoms: C_14  and  N_28
    6  A    between atoms: C_17  and  C_32
    7  A    between atoms: C_17  and  C_37
    8  A    between atoms: C_19  and  C_29
    9  A    between atoms: C_19  and  C_31
   10  A    between atoms: O_20  and  C_29
                            x       y       z     vdW  Elec       q    Type
                         _______ _______ _______ _____ _____    ______ ____

>  <TORSDO>
F 10

$$$$
=
 OpenBabel11072413053D

 37 40  0  0  1  0  0  0  0  0999 V2000
  162.6430  210.7060  154.0410 N   0  0  0  0  0  0  0  0  0  0  0  0
  160.2240  208.4020  155.3350 C   0  0  2  0  0  3  0  0  0  0  0  0
  159.5980  207.4450  156.1810 N   0  0  0  0  0  1  0  0  0  0  0  0
  161.9400  209.5970  154.5300 C   0  0  0  0  0  0  0  0  0  0  0  0
  160.1620  210.2660  153.5560 C   0  0  0  0  0  0  0  0  0  0  0  0
  161.5010  208.6450  155.4680 N   0  0  0  0  0  2  0  0  0  0  0  0
  159.3670  209.1660  154.2980 C   0  0  0  0  0  2  0  0  0  0  0  0
  161.6530  210.1030  153.3080 C   0  0  1  0  0  0  0  0  0  0  0  0
  158.8340  212.0840  152.2370 C   0  0  0  0  0  3  0  0  0  0  0  0
  159.5020  211.1760  152.8940 C   0  0  0  0  0  0  0  0  0  0  0  0
  162.0880  209.1160  152.2660 C   0  0  0  0  0  3  0  0  0  0  0  0
  161.2540  208.3070  151.7180 N   0  0  0  0  0  0  0  0  0  0  0  0
  161.5750  205.9560  151.2620 C   0  0  0  0  0  2  0  0  0  0  0  0
  161.6900  207.3630  150.7230 C   0  0  1  0  0  3  0  0  0  0  0  0
  161.3480  205.0810  150.0480 C   0  0  0  0  0  2  0  0  0  0  0  0
  160.7870  207.4040  149.5040 C   0  0  0  0  0  2  0  0  0  0  0  0
  160.6850  205.9710  149.0090 C   0  0  1  0  0  3  0  0  0  0  0  0
  161.3000  205.7960  147.6180 C   0  0  0  0  0  2  0  0  0  0  0  0
  163.3350  204.6930  146.7020 C   0  0  0  0  0  1  0  0  0  0  0  0
  162.0240  204.4630  147.4310 C   0  0  2  0  0  3  0  0  0  0  0  0
  161.1830  203.4770  146.6780 C   0  0  0  0  0  0  0  0  0  0  0  0
  160.5980  203.8100  145.6560 O   0  0  0  0  0  0  0  0  0  0  0  0
  161.0710  202.0760  147.1810 C   0  0  0  0  0  3  0  0  0  0  0  0
  160.3050  202.0440  148.3310 F   0  0  0  0  0  0  0  0  0  0  0  0
  160.4920  201.2750  146.2160 F   0  0  0  0  0  0  0  0  0  0  0  0
  157.7270  214.2810  152.2920 C   0  0  0  0  0  1  0  0  0  0  0  0
  157.7810  212.8940  152.9150 C   0  0  2  0  0  3  0  0  0  0  0  0
  158.0230  212.9480  154.4310 C   0  0  2  0  0  3  0  0  0  0  0  0
  154.8540  213.5520  157.2610 C   0  0  0  0  0  3  0  0  0  0  0  0
  156.7480  213.1000  155.2100 C   0  0  0  0  0  0  0  0  0  0  0  0
  155.3700  211.1630  155.2340 O   0  0  0  0  0  1  0  0  0  0  0  0
  156.0760  214.2670  155.2290 C   0  0  0  0  0  3  0  0  0  0  0  0
  156.2430  211.9230  156.0140 C   0  0  2  0  0  3  0  0  0  0  0  0
  155.5280  212.3920  157.2590 C   0  0  0  0  0  3  0  0  0  0  0  0
  154.7930  214.3930  156.0120 C   0  0  0  0  0  2  0  0  0  0  0  0
  158.9440  213.9420  154.7790 O   0  0  0  0  0  0  0  0  0  0  0  0
  159.8800  213.3050  155.4640 F   0  0  0  0  0  0  0  0  0  0  0  0
  1  4  2  0  0  0  0
  2  6  1  0  0  0  0
  2  3  1  1  0  0  0
  4  6  1  0  0  0  0
  5  7  1  0  0  0  0
  7  2  1  0  0  0  0
  8 11  1  6  0  0  0
  8  5  1  0  0  0  0
  8  1  1  0  0  0  0
  8  4  1  0  0  0  0
  9 10  2  0  0  0  0
  9 27  1  0  0  0  0
 10  5  2  0  0  0  0
 12 11  2  0  0  0  0
 14 13  1  0  0  0  0
 14 12  1  1  0  0  0
 15 13  1  0  0  0  0
 16 14  1  0  0  0  0
 17 18  1  6  0  0  0
 17 16  1  0  0  0  0
 17 15  1  0  0  0  0
 20 19  1  6  0  0  0
 20 18  1  0  0  0  0
 21 23  1  0  0  0  0
 21 20  1  0  0  0  0
 22 21  2  0  0  0  0
 23 24  1  0  0  0  0
 25 23  1  0  0  0  0
 27 26  1  6  0  0  0
 27 28  1  0  0  0  0
 28 36  1  6  0  0  0
 28 30  1  0  0  0  0
 30 32  2  0  0  0  0
 30 33  1  0  0  0  0
 32 35  1  0  0  0  0
 33 31  1  6  0  0  0
 33 34  1  0  0  0  0
 34 29  2  0  0  0  0
 35 29  1  0  0  0  0
 36 37  1  0  0  0  0
M  END
>  <MODEL>
6

>  <REMARK>
 VINA RESULT:      -6.1      6.830      9.910
  Name = 
  10 active torsions:
  status: ('A' for Active; 'I' for Inactive)
    1  A    between atoms: C_1  and  C_27
    2  A    between atoms: C_7  and  C_11
    3  A    between atoms: C_7  and  C_32
    4  A    between atoms: C_9  and  C_29
    5  A    between atoms: C_14  and  N_28
    6  A    between atoms: C_17  and  C_32
    7  A    between atoms: C_17  and  C_37
    8  A    between atoms: C_19  and  C_29
    9  A    between atoms: C_19  and  C_31
   10  A    between atoms: O_20  and  C_29
                            x       y       z     vdW  Elec       q    Type
                         _______ _______ _______ _____ _____    ______ ____

>  <TORSDO>
F 10

$$$$
=
 OpenBabel11072413053D

 37 40  0  0  1  0  0  0  0  0999 V2000
  163.0800  208.3070  150.8700 N   0  0  0  0  0  0  0  0  0  0  0  0
  161.4370  206.2900  153.3340 C   0  0  2  0  0  3  0  0  0  0  0  0
  161.2120  205.2830  154.3130 N   0  0  0  0  0  1  0  0  0  0  0  0
  162.5210  207.2780  151.6390 C   0  0  0  0  0  0  0  0  0  0  0  0
  160.9150  208.5570  152.2250 C   0  0  0  0  0  0  0  0  0  0  0  0
  162.4830  206.2100  152.5540 N   0  0  0  0  0  2  0  0  0  0  0  0
  160.4570  207.4820  153.2390 C   0  0  0  0  0  2  0  0  0  0  0  0
  161.7220  208.1630  150.9980 C   0  0  1  0  0  0  0  0  0  0  0  0
  159.8010  210.9140  152.3230 C   0  0  0  0  0  3  0  0  0  0  0  0
  160.3590  209.7360  152.2690 C   0  0  0  0  0  0  0  0  0  0  0  0
  161.0100  207.4500  149.8870 C   0  0  0  0  0  3  0  0  0  0  0  0
  161.6230  206.6180  149.1240 N   0  0  0  0  0  0  0  0  0  0  0  0
  161.2850  206.5730  146.7310 C   0  0  0  0  0  2  0  0  0  0  0  0
  160.9250  205.9450  148.0590 C   0  0  1  0  0  3  0  0  0  0  0  0
  161.1340  205.4640  145.7120 C   0  0  0  0  0  2  0  0  0  0  0  0
  161.3660  204.4970  147.9530 C   0  0  0  0  0  2  0  0  0  0  0  0
  161.3660  204.1660  146.4700 C   0  0  1  0  0  3  0  0  0  0  0  0
  160.3300  203.0950  146.1160 C   0  0  0  0  0  2  0  0  0  0  0  0
  160.0660  200.9440  144.8910 C   0  0  0  0  0  1  0  0  0  0  0  0
  160.9370  201.7140  145.8670 C   0  0  2  0  0  3  0  0  0  0  0  0
  161.0900  200.9400  147.1410 C   0  0  0  0  0  0  0  0  0  0  0  0
  161.5870  199.8220  147.1360 O   0  0  0  0  0  0  0  0  0  0  0  0
  160.6390  201.5520  148.4270 C   0  0  0  0  0  3  0  0  0  0  0  0
  159.2760  201.3810  148.5810 F   0  0  0  0  0  0  0  0  0  0  0  0
  161.3030  200.9630  149.4860 F   0  0  0  0  0  0  0  0  0  0  0  0
  159.6310  210.7500  154.7720 C   0  0  0  0  0  1  0  0  0  0  0  0
  159.7950  211.6970  153.5930 C   0  0  2  0  0  3  0  0  0  0  0  0
  158.7080  212.7810  153.5640 C   0  0  2  0  0  3  0  0  0  0  0  0
  156.3650  211.8620  157.0400 C   0  0  0  0  0  3  0  0  0  0  0  0
  157.8090  212.7230  154.7650 C   0  0  0  0  0  0  0  0  0  0  0  0
  155.5450  213.3050  154.3330 O   0  0  0  0  0  1  0  0  0  0  0  0
  158.2540  213.0700  155.9880 C   0  0  0  0  0  3  0  0  0  0  0  0
  156.3910  212.2260  154.5900 C   0  0  2  0  0  3  0  0  0  0  0  0
  155.9210  211.4980  155.8270 C   0  0  0  0  0  3  0  0  0  0  0  0
  157.3290  213.0110  157.1790 C   0  0  0  0  0  2  0  0  0  0  0  0
  157.9640  212.7450  152.3790 O   0  0  0  0  0  0  0  0  0  0  0  0
  158.2790  213.8670  151.7540 F   0  0  0  0  0  0  0  0  0  0  0  0
  1  8  1  0  0  0  0
  1  4  2  0  0  0  0
  2  3  1  1  0  0  0
  4  6  1  0  0  0  0
  5 10  2  0  0  0  0
  5  7  1  0  0  0  0
  6  2  1  0  0  0  0
  7  2  1  0  0  0  0
  8 11  1  6  0  0  0
  8  4  1  0  0  0  0
  8  5  1  0  0  0  0
  9 27  1  0  0  0  0
 10  9  2  0  0  0  0
 12 11  2  0  0  0  0
 13 14  1  0  0  0  0
 14 12  1  1  0  0  0
 15 17  1  0  0  0  0
 15 13  1  0  0  0  0
 16 14  1  0  0  0  0
 17 18  1  1  0  0  0
 17 16  1  0  0  0  0
 20 19  1  6  0  0  0
 20 18  1  0  0  0  0
 20 21  1  0  0  0  0
 21 23  1  0  0  0  0
 22 21  2  0  0  0  0
 23 24  1  0  0  0  0
 23 25  1  0  0  0  0
 27 26  1  1  0  0  0
 28 36  1  6  0  0  0
 28 27  1  0  0  0  0
 28 30  1  0  0  0  0
 29 35  1  0  0  0  0
 30 32  2  0  0  0  0
 32 35  1  0  0  0  0
 33 31  1  1  0  0  0
 33 30  1  0  0  0  0
 33 34  1  0  0  0  0
 34 29  2  0  0  0  0
 37 36  1  0  0  0  0
M  END
>  <MODEL>
7

>  <REMARK>
 VINA RESULT:      -5.7      6.580      9.896
  Name = 
  10 active torsions:
  status: ('A' for Active; 'I' for Inactive)
    1  A    between atoms: C_1  and  C_27
    2  A    between atoms: C_7  and  C_11
    3  A    between atoms: C_7  and  C_32
    4  A    between atoms: C_9  and  C_29
    5  A    between atoms: C_14  and  N_28
    6  A    between atoms: C_17  and  C_32
    7  A    between atoms: C_17  and  C_37
    8  A    between atoms: C_19  and  C_29
    9  A    between atoms: C_19  and  C_31
   10  A    between atoms: O_20  and  C_29
                            x       y       z     vdW  Elec       q    Type
                         _______ _______ _______ _____ _____    ______ ____

>  <TORSDO>
F 10

$$$$
=
 OpenBabel11072413053D

 37 40  0  0  1  0  0  0  0  0999 V2000
  159.5190  212.9480  148.3370 N   0  0  0  0  0  0  0  0  0  0  0  0
  163.0100  213.7380  148.1840 C   0  0  2  0  0  3  0  0  0  0  0  0
  164.2330  214.4530  148.3150 N   0  0  0  0  0  1  0  0  0  0  0  0
  160.7830  213.5080  148.1070 C   0  0  0  0  0  0  0  0  0  0  0  0
  161.6470  211.5610  147.9750 C   0  0  0  0  0  0  0  0  0  0  0  0
  161.8750  214.3760  148.2900 N   0  0  0  0  0  2  0  0  0  0  0  0
  163.0520  212.2090  147.9560 C   0  0  0  0  0  2  0  0  0  0  0  0
  160.4320  212.3460  147.5090 C   0  0  1  0  0  0  0  0  0  0  0  0
  161.4760  208.9710  148.2390 C   0  0  0  0  0  3  0  0  0  0  0  0
  161.5570  210.2660  148.1050 C   0  0  0  0  0  0  0  0  0  0  0  0
  160.2740  212.5910  146.0370 C   0  0  0  0  0  3  0  0  0  0  0  0
  161.2930  212.6930  145.2620 N   0  0  0  0  0  0  0  0  0  0  0  0
  162.4500  212.7900  143.1430 C   0  0  0  0  0  2  0  0  0  0  0  0
  161.1240  212.9330  143.8530 C   0  0  1  0  0  3  0  0  0  0  0  0
  162.1050  212.3520  141.7360 C   0  0  0  0  0  2  0  0  0  0  0  0
  160.2180  211.8870  143.2300 C   0  0  0  0  0  2  0  0  0  0  0  0
  160.7730  211.6250  141.8400 C   0  0  1  0  0  3  0  0  0  0  0  0
  159.7950  212.0450  140.7390 C   0  0  0  0  0  2  0  0  0  0  0  0
  159.4600  212.4110  138.2990 C   0  0  0  0  0  1  0  0  0  0  0  0
  160.2300  211.6150  139.3370 C   0  0  2  0  0  3  0  0  0  0  0  0
  160.0200  210.1470  139.1200 C   0  0  0  0  0  0  0  0  0  0  0  0
  158.8900  209.6860  139.0280 O   0  0  0  0  0  0  0  0  0  0  0  0
  161.2070  209.2480  139.0050 C   0  0  0  0  0  3  0  0  0  0  0  0
  162.2820  209.9450  138.4860 F   0  0  0  0  0  0  0  0  0  0  0  0
  161.5370  208.7450  140.2490 F   0  0  0  0  0  0  0  0  0  0  0  0
  163.1130  207.2450  148.8690 C   0  0  0  0  0  1  0  0  0  0  0  0
  162.1290  208.2820  149.3890 C   0  0  2  0  0  3  0  0  0  0  0  0
  161.0800  207.6680  150.3280 C   0  0  2  0  0  3  0  0  0  0  0  0
  160.4190  209.4830  154.1600 C   0  0  0  0  0  3  0  0  0  0  0  0
  161.1200  208.2680  151.7040 C   0  0  0  0  0  0  0  0  0  0  0  0
  162.5810  210.1300  151.9260 O   0  0  0  0  0  1  0  0  0  0  0  0
  161.0190  207.4990  152.8050 C   0  0  0  0  0  3  0  0  0  0  0  0
  161.2360  209.7700  151.8380 C   0  0  2  0  0  3  0  0  0  0  0  0
  160.5030  210.2560  153.0660 C   0  0  0  0  0  3  0  0  0  0  0  0
  161.0700  208.1250  154.1760 C   0  0  0  0  0  2  0  0  0  0  0  0
  161.1820  206.2730  150.3860 O   0  0  0  0  0  0  0  0  0  0  0  0
  160.1180  205.8330  149.7350 F   0  0  0  0  0  0  0  0  0  0  0  0
  2  6  1  0  0  0  0
  2  3  1  1  0  0  0
  4  6  1  0  0  0  0
  4  1  2  0  0  0  0
  5 10  2  0  0  0  0
  7  5  1  0  0  0  0
  7  2  1  0  0  0  0
  8 11  1  6  0  0  0
  8  5  1  0  0  0  0
  8  4  1  0  0  0  0
  8  1  1  0  0  0  0
  9 27  1  0  0  0  0
 10  9  2  0  0  0  0
 12 11  2  0  0  0  0
 13 14  1  0  0  0  0
 14 12  1  1  0  0  0
 15 17  1  0  0  0  0
 15 13  1  0  0  0  0
 16 14  1  0  0  0  0
 17 18  1  6  0  0  0
 17 16  1  0  0  0  0
 20 19  1  6  0  0  0
 20 18  1  0  0  0  0
 21 20  1  0  0  0  0
 22 21  2  0  0  0  0
 23 21  1  0  0  0  0
 23 25  1  0  0  0  0
 24 23  1  0  0  0  0
 27 26  1  6  0  0  0
 27 28  1  0  0  0  0
 28 36  1  1  0  0  0
 28 30  1  0  0  0  0
 29 35  1  0  0  0  0
 30 33  1  0  0  0  0
 30 32  2  0  0  0  0
 32 35  1  0  0  0  0
 33 31  1  1  0  0  0
 33 34  1  0  0  0  0
 34 29  2  0  0  0  0
 37 36  1  0  0  0  0
M  END
>  <MODEL>
8

>  <REMARK>
 VINA RESULT:      -5.6      2.542      9.530
  Name = 
  10 active torsions:
  status: ('A' for Active; 'I' for Inactive)
    1  A    between atoms: C_1  and  C_27
    2  A    between atoms: C_7  and  C_11
    3  A    between atoms: C_7  and  C_32
    4  A    between atoms: C_9  and  C_29
    5  A    between atoms: C_14  and  N_28
    6  A    between atoms: C_17  and  C_32
    7  A    between atoms: C_17  and  C_37
    8  A    between atoms: C_19  and  C_29
    9  A    between atoms: C_19  and  C_31
   10  A    between atoms: O_20  and  C_29
                            x       y       z     vdW  Elec       q    Type
                         _______ _______ _______ _____ _____    ______ ____

>  <TORSDO>
F 10

$$$$
=
 OpenBabel11072413053D

 37 40  0  0  1  0  0  0  0  0999 V2000
  163.7620  207.4790  149.7050 N   0  0  0  0  0  0  0  0  0  0  0  0
  161.2770  207.8730  152.2560 C   0  0  2  0  0  3  0  0  0  0  0  0
  160.6110  207.7760  153.5080 N   0  0  0  0  0  1  0  0  0  0  0  0
  162.7980  207.3130  150.7070 C   0  0  0  0  0  0  0  0  0  0  0  0
  161.7230  209.0110  149.9870 C   0  0  0  0  0  0  0  0  0  0  0  0
  162.2890  207.0860  152.0000 N   0  0  0  0  0  2  0  0  0  0  0  0
  160.8130  208.9390  151.2350 C   0  0  0  0  0  2  0  0  0  0  0  0
  162.4390  207.7680  149.4840 C   0  0  1  0  0  0  0  0  0  0  0  0
  161.5430  211.1010  148.4360 C   0  0  0  0  0  3  0  0  0  0  0  0
  161.6350  210.0540  149.2080 C   0  0  0  0  0  0  0  0  0  0  0  0
  161.6220  206.7130  148.8000 C   0  0  0  0  0  3  0  0  0  0  0  0
  161.7030  206.5190  147.5320 N   0  0  0  0  0  0  0  0  0  0  0  0
  160.7660  205.8160  145.4190 C   0  0  0  0  0  2  0  0  0  0  0  0
  160.9080  205.5050  146.8910 C   0  0  1  0  0  3  0  0  0  0  0  0
  160.5900  204.4740  144.7420 C   0  0  0  0  0  2  0  0  0  0  0  0
  161.5980  204.1550  146.9540 C   0  0  0  0  0  2  0  0  0  0  0  0
  161.2790  203.4590  145.6410 C   0  0  1  0  0  3  0  0  0  0  0  0
  160.4350  202.1980  145.8470 C   0  0  0  0  0  2  0  0  0  0  0  0
  160.7820  199.7330  145.7940 C   0  0  0  0  0  1  0  0  0  0  0  0
  161.2160  201.0300  146.4510 C   0  0  2  0  0  3  0  0  0  0  0  0
  161.0210  200.9460  147.9350 C   0  0  0  0  0  0  0  0  0  0  0  0
  161.7330  200.2210  148.6170 O   0  0  0  0  0  0  0  0  0  0  0  0
  159.9520  201.7660  148.5800 C   0  0  0  0  0  3  0  0  0  0  0  0
  159.0900  200.9500  149.2880 F   0  0  0  0  0  0  0  0  0  0  0  0
  160.5210  202.6910  149.4340 F   0  0  0  0  0  0  0  0  0  0  0  0
  160.5500  212.7820  149.9340 C   0  0  0  0  0  1  0  0  0  0  0  0
  161.7060  212.4750  148.9940 C   0  0  2  0  0  3  0  0  0  0  0  0
  161.8300  213.5130  147.8690 C   0  0  2  0  0  3  0  0  0  0  0  0
  158.4920  212.5880  145.3360 C   0  0  0  0  0  3  0  0  0  0  0  0
  160.6820  213.4530  146.9040 C   0  0  0  0  0  0  0  0  0  0  0  0
  161.2400  214.0320  144.6670 O   0  0  0  0  0  1  0  0  0  0  0  0
  159.4350  213.7990  147.2790 C   0  0  0  0  0  3  0  0  0  0  0  0
  160.9370  212.9540  145.5000 C   0  0  2  0  0  3  0  0  0  0  0  0
  159.7290  212.2250  144.9610 C   0  0  0  0  0  3  0  0  0  0  0  0
  158.2990  213.7380  146.2890 C   0  0  0  0  0  2  0  0  0  0  0  0
  163.0540  213.4140  147.1980 O   0  0  0  0  0  0  0  0  0  0  0  0
  163.8990  212.9600  148.1100 F   0  0  0  0  0  0  0  0  0  0  0  0
  1  4  2  0  0  0  0
  2  3  1  1  0  0  0
  4  6  1  0  0  0  0
  5  7  1  0  0  0  0
  6  2  1  0  0  0  0
  7  2  1  0  0  0  0
  8 11  1  6  0  0  0
  8  1  1  0  0  0  0
  8  5  1  0  0  0  0
  8  4  1  0  0  0  0
  9 27  1  0  0  0  0
  9 10  2  0  0  0  0
 10  5  2  0  0  0  0
 12 11  2  0  0  0  0
 13 14  1  0  0  0  0
 14 16  1  0  0  0  0
 14 12  1  1  0  0  0
 15 13  1  0  0  0  0
 15 17  1  0  0  0  0
 17 18  1  1  0  0  0
 17 16  1  0  0  0  0
 18 20  1  0  0  0  0
 20 19  1  6  0  0  0
 20 21  1  0  0  0  0
 21 23  1  0  0  0  0
 21 22  2  0  0  0  0
 23 24  1  0  0  0  0
 23 25  1  0  0  0  0
 27 26  1  6  0  0  0
 28 36  1  6  0  0  0
 28 27  1  0  0  0  0
 29 35  1  0  0  0  0
 30 32  2  0  0  0  0
 30 28  1  0  0  0  0
 33 31  1  6  0  0  0
 33 30  1  0  0  0  0
 34 29  2  0  0  0  0
 34 33  1  0  0  0  0
 35 32  1  0  0  0  0
 36 37  1  0  0  0  0
M  END
>  <MODEL>
9

>  <REMARK>
 VINA RESULT:      -5.3      3.833      6.025
  Name = 
  10 active torsions:
  status: ('A' for Active; 'I' for Inactive)
    1  A    between atoms: C_1  and  C_27
    2  A    between atoms: C_7  and  C_11
    3  A    between atoms: C_7  and  C_32
    4  A    between atoms: C_9  and  C_29
    5  A    between atoms: C_14  and  N_28
    6  A    between atoms: C_17  and  C_32
    7  A    between atoms: C_17  and  C_37
    8  A    between atoms: C_19  and  C_29
    9  A    between atoms: C_19  and  C_31
   10  A    between atoms: O_20  and  C_29
                            x       y       z     vdW  Elec       q    Type
                         _______ _______ _______ _____ _____    ______ ____

>  <TORSDO>
F 10

$$$$
