=
 OpenBabel11072413343D

 36 39  0  0  1  0  0  0  0  0999 V2000
  161.5590  209.2910  152.9150 C   0  0  0  0  0  0  0  0  0  0  0  0
  161.4620  207.9850  152.3810 C   0  0  0  0  0  0  0  0  0  0  0  0
  161.9640  210.1720  150.6830 C   0  0  0  0  0  3  0  0  0  0  0  0
  161.6080  207.8070  150.9950 C   0  0  0  0  0  3  0  0  0  0  0  0
  161.8140  210.3720  152.0560 C   0  0  0  0  0  3  0  0  0  0  0  0
  161.8660  208.8890  150.1460 C   0  0  0  0  0  0  0  0  0  0  0  0
  161.2130  206.7920  153.2320 C   0  0  0  0  0  0  0  0  0  0  0  0
  160.4570  206.8650  154.2390 O   0  0  0  0  0  0  0  0  0  0  0  0
  161.8340  205.4670  152.9080 C   0  0  0  0  0  2  0  0  0  0  0  0
  160.8310  204.5510  152.2240 C   0  0  0  0  0  2  0  0  0  0  0  0
  161.5430  203.5580  151.3280 C   0  0  0  0  0  2  0  0  0  0  0  0
  161.0920  202.2690  151.6100 O   0  0  0  0  0  1  0  0  0  0  0  0
  161.3720  209.5060  154.2880 O   0  0  0  0  0  0  0  0  0  0  0  0
  161.5290  210.7760  154.9120 C   0  0  0  0  0  2  0  0  0  0  0  0
  160.3400  211.0840  155.8080 C   0  0  1  0  0  3  0  0  0  0  0  0
  158.3580  211.2420  154.2600 C   0  0  0  0  0  2  0  0  0  0  0  0
  158.7820  212.9310  156.0220 O   0  0  0  0  0  0  0  0  0  0  0  0
  160.1440  212.6020  155.8600 C   0  0  0  0  0  2  0  0  0  0  0  0
  158.0920  212.6580  154.8100 C   0  0  1  0  0  3  0  0  0  0  0  0
  159.0800  210.3780  155.2910 C   0  0  0  0  0  2  0  0  0  0  0  0
  159.1410  213.1940  152.6390 N   0  0  0  0  0  2  0  0  0  0  0  0
  158.2550  212.9670  151.5080 C   0  0  0  0  0  2  0  0  0  0  0  0
  156.7830  214.4400  153.1350 S   0  0  0  0  0  0  0  0  0  0  0  0
  157.2860  214.1160  151.4360 C   0  0  0  0  0  2  0  0  0  0  0  0
  158.3520  213.7320  153.7470 C   0  0  1  0  0  3  0  0  0  0  0  0
  161.9240  208.7250  148.6590 C   0  0  0  0  0  2  0  0  0  0  0  0
  162.3480  205.1410  147.3860 N   0  0  0  0  0  2  0  0  0  0  0  0
  162.5060  207.4440  148.2740 N   0  0  0  0  0  2  0  0  0  0  0  0
  161.7070  206.3450  147.8300 C   0  0  0  0  0  0  0  0  0  0  0  0
  160.4520  206.4560  147.8050 O   0  0  0  0  0  0  0  0  0  0  0  0
  161.3660  203.6840  145.6330 C   0  0  0  0  0  3  0  0  0  0  0  0
  161.6970  203.9300  146.9740 C   0  0  0  0  0  0  0  0  0  0  0  0
  160.7300  202.4910  145.2860 C   0  0  0  0  0  3  0  0  0  0  0  0
  161.3790  202.9700  147.9380 C   0  0  0  0  0  3  0  0  0  0  0  0
  160.4340  201.5730  146.2470 N   0  0  0  0  0  0  0  0  0  0  0  0
  160.7420  201.7880  147.5530 C   0  0  0  0  0  3  0  0  0  0  0  0
  1 13  1  0  0  0  0
  2  1  1  0  0  0  0
  2  7  1  0  0  0  0
  3  5  1  0  0  0  0
  4  2  2  0  0  0  0
  5  1  2  0  0  0  0
  6  3  2  0  0  0  0
  6  4  1  0  0  0  0
  7  8  2  0  0  0  0
  9  7  1  0  0  0  0
 10  9  1  0  0  0  0
 11 12  1  0  0  0  0
 11 10  1  0  0  0  0
 13 14  1  0  0  0  0
 15 14  1  6  0  0  0
 15 18  1  0  0  0  0
 16 20  1  0  0  0  0
 18 17  1  0  0  0  0
 19 16  1  6  0  0  0
 19 17  1  0  0  0  0
 20 15  1  0  0  0  0
 22 21  1  0  0  0  0
 23 25  1  0  0  0  0
 24 22  1  0  0  0  0
 24 23  1  0  0  0  0
 25 21  1  6  0  0  0
 25 19  1  0  0  0  0
 26  6  1  0  0  0  0
 27 29  1  0  0  0  0
 28 26  1  0  0  0  0
 29 28  1  0  0  0  0
 30 29  2  0  0  0  0
 31 32  1  0  0  0  0
 32 27  1  0  0  0  0
 32 34  2  0  0  0  0
 33 31  2  0  0  0  0
 33 35  1  0  0  0  0
 35 36  2  0  0  0  0
 36 34  1  0  0  0  0
M  END
>  <MODEL>
1

>  <REMARK>
 VINA RESULT:      -7.9      0.000      0.000
  Name = 
  11 active torsions:
  status: ('A' for Active; 'I' for Inactive)
    1  A    between atoms: N_1  and  C_18
    2  A    between atoms: C_2  and  C_23
    3  A    between atoms: C_4  and  C_13
    4  A    between atoms: C_4  and  C_35
    5  A    between atoms: C_7  and  O_12
    6  A    between atoms: C_8  and  C_9
    7  A    between atoms: C_9  and  O_12
    8  A    between atoms: N_11  and  C_27
    9  A    between atoms: C_23  and  C_35
   10  A    between atoms: C_27  and  C_34
   11  A    between atoms: C_28  and  C_33
                            x       y       z     vdW  Elec       q    Type
                         _______ _______ _______ _____ _____    ______ ____

>  <TORSDO>
F 11

$$$$
=
 OpenBabel11072413343D

 36 39  0  0  1  0  0  0  0  0999 V2000
  161.6800  209.2560  152.9720 C   0  0  0  0  0  0  0  0  0  0  0  0
  161.4700  207.9730  152.4160 C   0  0  0  0  0  0  0  0  0  0  0  0
  162.0470  210.1600  150.7430 C   0  0  0  0  0  3  0  0  0  0  0  0
  161.5410  207.8180  151.0220 C   0  0  0  0  0  3  0  0  0  0  0  0
  161.9710  210.3380  152.1250 C   0  0  0  0  0  3  0  0  0  0  0  0
  161.8360  208.9010  150.1850 C   0  0  0  0  0  0  0  0  0  0  0  0
  161.1770  206.7810  153.2540 C   0  0  0  0  0  0  0  0  0  0  0  0
  160.2470  206.8030  154.1060 O   0  0  0  0  0  0  0  0  0  0  0  0
  161.9600  205.5130  153.0950 C   0  0  0  0  0  2  0  0  0  0  0  0
  161.7970  204.9460  151.6920 C   0  0  0  0  0  2  0  0  0  0  0  0
  161.3440  203.5010  151.7520 C   0  0  0  0  0  2  0  0  0  0  0  0
  160.1350  203.3640  151.0710 O   0  0  0  0  0  1  0  0  0  0  0  0
  161.5700  209.4510  154.3560 O   0  0  0  0  0  0  0  0  0  0  0  0
  161.8710  210.6840  155.0030 C   0  0  0  0  0  2  0  0  0  0  0  0
  161.1340  210.7890  156.3280 C   0  0  1  0  0  3  0  0  0  0  0  0
  158.6960  210.4880  155.7650 C   0  0  0  0  0  2  0  0  0  0  0  0
  159.4810  212.3000  157.2610 O   0  0  0  0  0  0  0  0  0  0  0  0
  160.6850  212.2400  156.5270 C   0  0  0  0  0  2  0  0  0  0  0  0
  158.4140  211.8460  156.4400 C   0  0  1  0  0  3  0  0  0  0  0  0
  159.9390  209.8280  156.3570 C   0  0  0  0  0  2  0  0  0  0  0  0
  157.2470  212.2980  154.3110 N   0  0  0  0  0  2  0  0  0  0  0  0
  155.8320  212.5860  154.4880 C   0  0  0  0  0  2  0  0  0  0  0  0
  156.9950  214.2190  156.2100 S   0  0  0  0  0  0  0  0  0  0  0  0
  155.7020  214.0040  154.9750 C   0  0  0  0  0  2  0  0  0  0  0  0
  157.9870  212.9050  155.4170 C   0  0  1  0  0  3  0  0  0  0  0  0
  161.8160  208.7680  148.6940 C   0  0  0  0  0  2  0  0  0  0  0  0
  162.3410  205.2170  147.3680 N   0  0  0  0  0  2  0  0  0  0  0  0
  162.4380  207.5260  148.2480 N   0  0  0  0  0  2  0  0  0  0  0  0
  161.6710  206.3780  147.8770 C   0  0  0  0  0  0  0  0  0  0  0  0
  160.4150  206.4100  147.9740 O   0  0  0  0  0  0  0  0  0  0  0  0
  161.4310  202.9890  147.9750 C   0  0  0  0  0  3  0  0  0  0  0  0
  161.7300  203.9660  147.0150 C   0  0  0  0  0  0  0  0  0  0  0  0
  160.8380  201.7890  147.5780 C   0  0  0  0  0  3  0  0  0  0  0  0
  161.4290  203.7140  145.6730 C   0  0  0  0  0  3  0  0  0  0  0  0
  160.5550  201.5710  146.2650 N   0  0  0  0  0  0  0  0  0  0  0  0
  160.8370  202.5010  145.3140 C   0  0  0  0  0  3  0  0  0  0  0  0
  1 13  1  0  0  0  0
  2  1  1  0  0  0  0
  2  7  1  0  0  0  0
  3  5  1  0  0  0  0
  4  2  2  0  0  0  0
  5  1  2  0  0  0  0
  6  3  2  0  0  0  0
  6  4  1  0  0  0  0
  7  8  2  0  0  0  0
  9  7  1  0  0  0  0
 10 11  1  0  0  0  0
 10  9  1  0  0  0  0
 12 11  1  0  0  0  0
 13 14  1  0  0  0  0
 15 14  1  6  0  0  0
 15 20  1  0  0  0  0
 15 18  1  0  0  0  0
 16 20  1  0  0  0  0
 18 17  1  0  0  0  0
 19 16  1  6  0  0  0
 19 17  1  0  0  0  0
 21 22  1  0  0  0  0
 22 24  1  0  0  0  0
 24 23  1  0  0  0  0
 25 21  1  6  0  0  0
 25 23  1  0  0  0  0
 25 19  1  0  0  0  0
 26  6  1  0  0  0  0
 27 29  1  0  0  0  0
 28 26  1  0  0  0  0
 29 30  2  0  0  0  0
 29 28  1  0  0  0  0
 32 27  1  0  0  0  0
 32 31  2  0  0  0  0
 33 31  1  0  0  0  0
 34 32  1  0  0  0  0
 35 33  2  0  0  0  0
 36 34  2  0  0  0  0
 36 35  1  0  0  0  0
M  END
>  <MODEL>
2

>  <REMARK>
 VINA RESULT:      -7.5      1.308      1.586
  Name = 
  11 active torsions:
  status: ('A' for Active; 'I' for Inactive)
    1  A    between atoms: N_1  and  C_18
    2  A    between atoms: C_2  and  C_23
    3  A    between atoms: C_4  and  C_13
    4  A    between atoms: C_4  and  C_35
    5  A    between atoms: C_7  and  O_12
    6  A    between atoms: C_8  and  C_9
    7  A    between atoms: C_9  and  O_12
    8  A    between atoms: N_11  and  C_27
    9  A    between atoms: C_23  and  C_35
   10  A    between atoms: C_27  and  C_34
   11  A    between atoms: C_28  and  C_33
                            x       y       z     vdW  Elec       q    Type
                         _______ _______ _______ _____ _____    ______ ____

>  <TORSDO>
F 11

$$$$
=
 OpenBabel11072413343D

 36 39  0  0  1  0  0  0  0  0999 V2000
  161.2950  207.1570  151.9630 C   0  0  0  0  0  0  0  0  0  0  0  0
  161.2260  206.4730  150.7270 C   0  0  0  0  0  0  0  0  0  0  0  0
  161.0060  205.0490  153.1440 C   0  0  0  0  0  3  0  0  0  0  0  0
  161.0600  205.0780  150.7320 C   0  0  0  0  0  3  0  0  0  0  0  0
  161.1790  206.4340  153.1610 C   0  0  0  0  0  3  0  0  0  0  0  0
  160.9410  204.3650  151.9310 C   0  0  0  0  0  0  0  0  0  0  0  0
  161.3210  207.1770  149.4210 C   0  0  0  0  0  0  0  0  0  0  0  0
  161.9120  208.2870  149.3290 O   0  0  0  0  0  0  0  0  0  0  0  0
  160.7400  206.5780  148.1760 C   0  0  0  0  0  2  0  0  0  0  0  0
  161.8160  206.3620  147.1240 C   0  0  0  0  0  2  0  0  0  0  0  0
  161.2510  205.6200  145.9290 C   0  0  0  0  0  2  0  0  0  0  0  0
  162.2680  204.8960  145.3070 O   0  0  0  0  0  1  0  0  0  0  0  0
  161.5070  208.5430  151.9910 O   0  0  0  0  0  0  0  0  0  0  0  0
  160.5510  209.4730  152.4900 C   0  0  0  0  0  2  0  0  0  0  0  0
  161.0730  210.1600  153.7410 C   0  0  1  0  0  3  0  0  0  0  0  0
  159.2100  209.9820  155.4290 C   0  0  0  0  0  2  0  0  0  0  0  0
  160.4200  212.1070  155.0330 O   0  0  0  0  0  0  0  0  0  0  0  0
  160.6230  211.6240  153.7230 C   0  0  0  0  0  2  0  0  0  0  0  0
  159.2430  211.5180  155.5670 C   0  0  1  0  0  3  0  0  0  0  0  0
  160.5710  209.4400  154.9990 C   0  0  0  0  0  2  0  0  0  0  0  0
  156.8460  211.2280  155.0460 N   0  0  0  0  0  2  0  0  0  0  0  0
  155.9750  211.6070  156.1470 C   0  0  0  0  0  2  0  0  0  0  0  0
  157.5650  213.7030  155.8940 S   0  0  0  0  0  0  0  0  0  0  0  0
  155.8880  213.1090  156.1790 C   0  0  0  0  0  2  0  0  0  0  0  0
  157.9710  212.1620  155.0010 C   0  0  1  0  0  3  0  0  0  0  0  0
  160.8640  202.8700  151.9500 C   0  0  0  0  0  2  0  0  0  0  0  0
  161.7320  201.4330  148.5120 N   0  0  0  0  0  2  0  0  0  0  0  0
  161.5870  202.2710  150.8340 N   0  0  0  0  0  2  0  0  0  0  0  0
  160.9470  201.9410  149.5990 C   0  0  0  0  0  0  0  0  0  0  0  0
  159.7080  202.1300  149.4680 O   0  0  0  0  0  0  0  0  0  0  0  0
  161.4030  199.6740  146.7920 C   0  0  0  0  0  3  0  0  0  0  0  0
  161.2390  200.9940  147.2360 C   0  0  0  0  0  0  0  0  0  0  0  0
  160.9070  199.2990  145.5420 C   0  0  0  0  0  3  0  0  0  0  0  0
  160.5820  201.9110  146.4120 C   0  0  0  0  0  3  0  0  0  0  0  0
  160.2700  200.2130  144.7610 N   0  0  0  0  0  0  0  0  0  0  0  0
  160.1000  201.4990  145.1670 C   0  0  0  0  0  3  0  0  0  0  0  0
  1 13  1  0  0  0  0
  1  5  1  0  0  0  0
  2  4  1  0  0  0  0
  2  1  2  0  0  0  0
  3  5  2  0  0  0  0
  4  6  2  0  0  0  0
  6 26  1  0  0  0  0
  6  3  1  0  0  0  0
  7  2  1  0  0  0  0
  8  7  2  0  0  0  0
  9  7  1  0  0  0  0
 10  9  1  0  0  0  0
 11 10  1  0  0  0  0
 12 11  1  0  0  0  0
 13 14  1  0  0  0  0
 15 14  1  6  0  0  0
 15 20  1  0  0  0  0
 17 19  1  0  0  0  0
 18 15  1  0  0  0  0
 18 17  1  0  0  0  0
 19 16  1  6  0  0  0
 20 16  1  0  0  0  0
 21 22  1  0  0  0  0
 22 24  1  0  0  0  0
 23 24  1  0  0  0  0
 25 21  1  1  0  0  0
 25 19  1  0  0  0  0
 25 23  1  0  0  0  0
 27 29  1  0  0  0  0
 28 26  1  0  0  0  0
 29 28  1  0  0  0  0
 30 29  2  0  0  0  0
 31 32  1  0  0  0  0
 32 27  1  0  0  0  0
 33 31  2  0  0  0  0
 34 32  2  0  0  0  0
 35 36  2  0  0  0  0
 35 33  1  0  0  0  0
 36 34  1  0  0  0  0
M  END
>  <MODEL>
3

>  <REMARK>
 VINA RESULT:      -7.4      2.289      4.038
  Name = 
  11 active torsions:
  status: ('A' for Active; 'I' for Inactive)
    1  A    between atoms: N_1  and  C_18
    2  A    between atoms: C_2  and  C_23
    3  A    between atoms: C_4  and  C_13
    4  A    between atoms: C_4  and  C_35
    5  A    between atoms: C_7  and  O_12
    6  A    between atoms: C_8  and  C_9
    7  A    between atoms: C_9  and  O_12
    8  A    between atoms: N_11  and  C_27
    9  A    between atoms: C_23  and  C_35
   10  A    between atoms: C_27  and  C_34
   11  A    between atoms: C_28  and  C_33
                            x       y       z     vdW  Elec       q    Type
                         _______ _______ _______ _____ _____    ______ ____

>  <TORSDO>
F 11

$$$$
=
 OpenBabel11072413343D

 36 39  0  0  1  0  0  0  0  0999 V2000
  161.8450  209.4800  150.8610 C   0  0  0  0  0  0  0  0  0  0  0  0
  161.1780  209.2970  152.0940 C   0  0  0  0  0  0  0  0  0  0  0  0
  162.0470  207.0670  150.6140 C   0  0  0  0  0  3  0  0  0  0  0  0
  160.9480  207.9890  152.5530 C   0  0  0  0  0  3  0  0  0  0  0  0
  162.2770  208.3580  150.1350 C   0  0  0  0  0  3  0  0  0  0  0  0
  161.3860  206.8760  151.8260 C   0  0  0  0  0  0  0  0  0  0  0  0
  160.7100  210.4380  152.9240 C   0  0  0  0  0  0  0  0  0  0  0  0
  161.4270  210.8940  153.8550 O   0  0  0  0  0  0  0  0  0  0  0  0
  159.3870  211.0920  152.6640 C   0  0  0  0  0  2  0  0  0  0  0  0
  159.5750  212.4770  152.0640 C   0  0  0  0  0  2  0  0  0  0  0  0
  158.2350  213.1640  151.8830 C   0  0  0  0  0  2  0  0  0  0  0  0
  157.9060  213.8560  153.0480 O   0  0  0  0  0  1  0  0  0  0  0  0
  162.0470  210.7710  150.3540 O   0  0  0  0  0  0  0  0  0  0  0  0
  162.0210  211.0830  148.9650 C   0  0  0  0  0  2  0  0  0  0  0  0
  162.0290  212.5880  148.7520 C   0  0  1  0  0  3  0  0  0  0  0  0
  160.0340  213.0690  147.2910 C   0  0  0  0  0  2  0  0  0  0  0  0
  162.2610  214.0510  146.8310 O   0  0  0  0  0  0  0  0  0  0  0  0
  162.7800  212.8970  147.4530 C   0  0  0  0  0  2  0  0  0  0  0  0
  160.9850  213.7490  146.2840 C   0  0  1  0  0  3  0  0  0  0  0  0
  160.5960  213.1330  148.7080 C   0  0  0  0  0  2  0  0  0  0  0  0
  159.8320  212.2730  144.6730 N   0  0  0  0  0  2  0  0  0  0  0  0
  159.1670  213.0050  143.6070 C   0  0  0  0  0  2  0  0  0  0  0  0
  161.6090  214.0160  143.5950 S   0  0  0  0  0  0  0  0  0  0  0  0
  160.2130  213.4370  142.6140 C   0  0  0  0  0  2  0  0  0  0  0  0
  161.0940  212.9450  144.9820 C   0  0  1  0  0  3  0  0  0  0  0  0
  161.0600  205.4800  152.2560 C   0  0  0  0  0  2  0  0  0  0  0  0
  161.8150  203.3400  149.1740 N   0  0  0  0  0  2  0  0  0  0  0  0
  161.6370  204.4830  151.3600 N   0  0  0  0  0  2  0  0  0  0  0  0
  161.1490  204.2770  150.0320 C   0  0  0  0  0  0  0  0  0  0  0  0
  160.1610  204.9410  149.6210 O   0  0  0  0  0  0  0  0  0  0  0  0
  160.8280  201.7270  147.5670 C   0  0  0  0  0  3  0  0  0  0  0  0
  161.4170  202.9690  147.8460 C   0  0  0  0  0  0  0  0  0  0  0  0
  160.4620  201.4150  146.2570 C   0  0  0  0  0  3  0  0  0  0  0  0
  161.6270  203.8710  146.7990 C   0  0  0  0  0  3  0  0  0  0  0  0
  160.6770  202.3120  145.2570 N   0  0  0  0  0  0  0  0  0  0  0  0
  161.2480  203.5220  145.5000 C   0  0  0  0  0  3  0  0  0  0  0  0
  1  2  1  0  0  0  0
  2  4  2  0  0  0  0
  2  7  1  0  0  0  0
  3  6  2  0  0  0  0
  5  3  1  0  0  0  0
  5  1  2  0  0  0  0
  6 26  1  0  0  0  0
  6  4  1  0  0  0  0
  7  8  2  0  0  0  0
  9  7  1  0  0  0  0
 10  9  1  0  0  0  0
 11 10  1  0  0  0  0
 11 12  1  0  0  0  0
 13  1  1  0  0  0  0
 14 13  1  0  0  0  0
 15 14  1  6  0  0  0
 16 20  1  0  0  0  0
 17 18  1  0  0  0  0
 18 15  1  0  0  0  0
 19 17  1  0  0  0  0
 19 16  1  1  0  0  0
 20 15  1  0  0  0  0
 21 25  1  0  0  0  0
 22 21  1  0  0  0  0
 24 23  1  0  0  0  0
 24 22  1  0  0  0  0
 25 23  1  6  0  0  0
 25 19  1  0  0  0  0
 27 29  1  0  0  0  0
 28 26  1  0  0  0  0
 29 28  1  0  0  0  0
 30 29  2  0  0  0  0
 31 32  1  0  0  0  0
 32 27  1  0  0  0  0
 33 31  2  0  0  0  0
 34 32  2  0  0  0  0
 35 36  2  0  0  0  0
 35 33  1  0  0  0  0
 36 34  1  0  0  0  0
M  END
>  <MODEL>
4

>  <REMARK>
 VINA RESULT:      -7.1      3.879      6.221
  Name = 
  11 active torsions:
  status: ('A' for Active; 'I' for Inactive)
    1  A    between atoms: N_1  and  C_18
    2  A    between atoms: C_2  and  C_23
    3  A    between atoms: C_4  and  C_13
    4  A    between atoms: C_4  and  C_35
    5  A    between atoms: C_7  and  O_12
    6  A    between atoms: C_8  and  C_9
    7  A    between atoms: C_9  and  O_12
    8  A    between atoms: N_11  and  C_27
    9  A    between atoms: C_23  and  C_35
   10  A    between atoms: C_27  and  C_34
   11  A    between atoms: C_28  and  C_33
                            x       y       z     vdW  Elec       q    Type
                         _______ _______ _______ _____ _____    ______ ____

>  <TORSDO>
F 11

$$$$
=
 OpenBabel11072413343D

 36 39  0  0  1  0  0  0  0  0999 V2000
  160.9270  210.0670  152.1860 C   0  0  0  0  0  0  0  0  0  0  0  0
  161.5390  209.0870  151.3700 C   0  0  0  0  0  0  0  0  0  0  0  0
  160.7480  208.4470  153.9930 C   0  0  0  0  0  3  0  0  0  0  0  0
  161.7530  207.8030  151.8970 C   0  0  0  0  0  3  0  0  0  0  0  0
  160.5340  209.7320  153.4920 C   0  0  0  0  0  3  0  0  0  0  0  0
  161.3540  207.4760  153.1990 C   0  0  0  0  0  0  0  0  0  0  0  0
  161.9620  209.3660  149.9730 C   0  0  0  0  0  0  0  0  0  0  0  0
  162.0180  210.5480  149.5400 O   0  0  0  0  0  0  0  0  0  0  0  0
  162.3550  208.2540  149.0480 C   0  0  0  0  0  2  0  0  0  0  0  0
  161.1720  207.3430  148.7590 C   0  0  0  0  0  2  0  0  0  0  0  0
  161.2190  206.8460  147.3280 C   0  0  0  0  0  2  0  0  0  0  0  0
  162.3620  206.0680  147.1430 O   0  0  0  0  0  1  0  0  0  0  0  0
  160.7420  211.3700  151.7030 O   0  0  0  0  0  0  0  0  0  0  0  0
  159.6670  212.2120  152.1070 C   0  0  0  0  0  2  0  0  0  0  0  0
  159.7530  213.5630  151.4150 C   0  0  1  0  0  3  0  0  0  0  0  0
  157.7480  213.6620  149.8920 C   0  0  0  0  0  2  0  0  0  0  0  0
  160.0120  214.3020  149.1190 O   0  0  0  0  0  0  0  0  0  0  0  0
  160.4840  213.3840  150.0800 C   0  0  0  0  0  2  0  0  0  0  0  0
  158.7070  213.9170  148.7110 C   0  0  1  0  0  3  0  0  0  0  0  0
  158.3520  214.1500  151.2060 C   0  0  0  0  0  2  0  0  0  0  0  0
  157.3910  212.4120  147.2600 N   0  0  0  0  0  2  0  0  0  0  0  0
  157.2610  212.9070  145.8980 C   0  0  0  0  0  2  0  0  0  0  0  0
  159.8620  213.0540  146.3410 S   0  0  0  0  0  0  0  0  0  0  0  0
  158.5530  212.6350  145.1770 C   0  0  0  0  0  2  0  0  0  0  0  0
  158.7360  212.7290  147.7420 C   0  0  1  0  0  3  0  0  0  0  0  0
  161.6670  206.1430  153.8040 C   0  0  0  0  0  2  0  0  0  0  0  0
  160.5870  203.3760  151.3910 N   0  0  0  0  0  2  0  0  0  0  0  0
  160.9180  205.0650  153.1670 N   0  0  0  0  0  2  0  0  0  0  0  0
  161.3190  204.4890  151.9210 C   0  0  0  0  0  0  0  0  0  0  0  0
  162.3280  204.9460  151.3190 O   0  0  0  0  0  0  0  0  0  0  0  0
  160.9560  203.4530  148.9380 C   0  0  0  0  0  3  0  0  0  0  0  0
  160.8150  202.7280  150.1300 C   0  0  0  0  0  0  0  0  0  0  0  0
  161.1740  202.7740  147.7380 C   0  0  0  0  0  3  0  0  0  0  0  0
  160.8960  201.3340  150.0900 C   0  0  0  0  0  3  0  0  0  0  0  0
  161.2490  201.4150  147.7280 N   0  0  0  0  0  0  0  0  0  0  0  0
  161.1150  200.6890  148.8700 C   0  0  0  0  0  3  0  0  0  0  0  0
  1  5  1  0  0  0  0
  2  4  1  0  0  0  0
  2  1  2  0  0  0  0
  4  6  2  0  0  0  0
  5  3  2  0  0  0  0
  6 26  1  0  0  0  0
  6  3  1  0  0  0  0
  7  2  1  0  0  0  0
  8  7  2  0  0  0  0
  9  7  1  0  0  0  0
 10  9  1  0  0  0  0
 11 10  1  0  0  0  0
 12 11  1  0  0  0  0
 13 14  1  0  0  0  0
 13  1  1  0  0  0  0
 15 14  1  6  0  0  0
 16 20  1  0  0  0  0
 17 18  1  0  0  0  0
 18 15  1  0  0  0  0
 19 17  1  0  0  0  0
 19 16  1  1  0  0  0
 20 15  1  0  0  0  0
 21 25  1  0  0  0  0
 22 21  1  0  0  0  0
 24 22  1  0  0  0  0
 24 23  1  0  0  0  0
 25 23  1  6  0  0  0
 25 19  1  0  0  0  0
 27 29  1  0  0  0  0
 28 26  1  0  0  0  0
 29 28  1  0  0  0  0
 30 29  2  0  0  0  0
 31 32  1  0  0  0  0
 32 27  1  0  0  0  0
 33 31  2  0  0  0  0
 34 32  2  0  0  0  0
 35 33  1  0  0  0  0
 35 36  2  0  0  0  0
 36 34  1  0  0  0  0
M  END
>  <MODEL>
5

>  <REMARK>
 VINA RESULT:      -7.1      3.256      4.715
  Name = 
  11 active torsions:
  status: ('A' for Active; 'I' for Inactive)
    1  A    between atoms: N_1  and  C_18
    2  A    between atoms: C_2  and  C_23
    3  A    between atoms: C_4  and  C_13
    4  A    between atoms: C_4  and  C_35
    5  A    between atoms: C_7  and  O_12
    6  A    between atoms: C_8  and  C_9
    7  A    between atoms: C_9  and  O_12
    8  A    between atoms: N_11  and  C_27
    9  A    between atoms: C_23  and  C_35
   10  A    between atoms: C_27  and  C_34
   11  A    between atoms: C_28  and  C_33
                            x       y       z     vdW  Elec       q    Type
                         _______ _______ _______ _____ _____    ______ ____

>  <TORSDO>
F 11

$$$$
=
 OpenBabel11072413343D

 36 39  0  0  1  0  0  0  0  0999 V2000
  161.7600  209.6460  150.9040 C   0  0  0  0  0  0  0  0  0  0  0  0
  160.9640  209.4350  152.0540 C   0  0  0  0  0  0  0  0  0  0  0  0
  162.1160  207.2460  150.7110 C   0  0  0  0  0  3  0  0  0  0  0  0
  160.7530  208.1190  152.5000 C   0  0  0  0  0  3  0  0  0  0  0  0
  162.3320  208.5440  150.2460 C   0  0  0  0  0  3  0  0  0  0  0  0
  161.3300  207.0270  151.8410 C   0  0  0  0  0  0  0  0  0  0  0  0
  160.3440  210.5540  152.8100 C   0  0  0  0  0  0  0  0  0  0  0  0
  159.3540  211.1780  152.3410 O   0  0  0  0  0  0  0  0  0  0  0  0
  160.8620  210.9570  154.1570 C   0  0  0  0  0  2  0  0  0  0  0  0
  162.2100  210.3100  154.4360 C   0  0  0  0  0  2  0  0  0  0  0  0
  162.7070  210.6920  155.8170 C   0  0  0  0  0  2  0  0  0  0  0  0
  162.4740  209.6400  156.7020 O   0  0  0  0  0  1  0  0  0  0  0  0
  161.9510  210.9430  150.4080 O   0  0  0  0  0  0  0  0  0  0  0  0
  162.0980  211.2410  149.0230 C   0  0  0  0  0  2  0  0  0  0  0  0
  161.9570  212.7350  148.7770 C   0  0  1  0  0  3  0  0  0  0  0  0
  159.9550  212.9770  147.2650 C   0  0  0  0  0  2  0  0  0  0  0  0
  162.0790  214.1740  146.8290 O   0  0  0  0  0  0  0  0  0  0  0  0
  162.7010  213.0920  147.4870 C   0  0  0  0  0  2  0  0  0  0  0  0
  160.8540  213.7310  146.2630 C   0  0  1  0  0  3  0  0  0  0  0  0
  160.4760  213.1280  148.6920 C   0  0  0  0  0  2  0  0  0  0  0  0
  159.8270  212.2990  144.5320 N   0  0  0  0  0  2  0  0  0  0  0  0
  159.3190  213.0540  143.3980 C   0  0  0  0  0  2  0  0  0  0  0  0
  161.7880  213.9590  143.6610 S   0  0  0  0  0  0  0  0  0  0  0  0
  160.4870  213.4350  142.5300 C   0  0  0  0  0  2  0  0  0  0  0  0
  161.0740  212.9180  144.9820 C   0  0  1  0  0  3  0  0  0  0  0  0
  161.0300  205.6180  152.2480 C   0  0  0  0  0  2  0  0  0  0  0  0
  161.8270  203.5350  149.1380 N   0  0  0  0  0  2  0  0  0  0  0  0
  161.6290  204.6470  151.3380 N   0  0  0  0  0  2  0  0  0  0  0  0
  161.1410  204.4440  150.0100 C   0  0  0  0  0  0  0  0  0  0  0  0
  160.1340  205.0880  149.6100 O   0  0  0  0  0  0  0  0  0  0  0  0
  161.6220  204.0300  146.7150 C   0  0  0  0  0  3  0  0  0  0  0  0
  161.4330  203.1700  147.8070 C   0  0  0  0  0  0  0  0  0  0  0  0
  161.2190  203.6270  145.4400 C   0  0  0  0  0  3  0  0  0  0  0  0
  160.8400  201.9230  147.5930 C   0  0  0  0  0  3  0  0  0  0  0  0
  160.6450  202.4060  145.2620 N   0  0  0  0  0  0  0  0  0  0  0  0
  160.4490  201.5550  146.3040 C   0  0  0  0  0  3  0  0  0  0  0  0
  1  2  1  0  0  0  0
  2  4  2  0  0  0  0
  2  7  1  0  0  0  0
  3  6  2  0  0  0  0
  5  3  1  0  0  0  0
  5  1  2  0  0  0  0
  6 26  1  0  0  0  0
  6  4  1  0  0  0  0
  7  9  1  0  0  0  0
  8  7  2  0  0  0  0
  9 10  1  0  0  0  0
 10 11  1  0  0  0  0
 11 12  1  0  0  0  0
 13  1  1  0  0  0  0
 14 13  1  0  0  0  0
 15 14  1  6  0  0  0
 16 20  1  0  0  0  0
 17 18  1  0  0  0  0
 18 15  1  0  0  0  0
 19 17  1  0  0  0  0
 19 16  1  1  0  0  0
 20 15  1  0  0  0  0
 21 25  1  0  0  0  0
 22 21  1  0  0  0  0
 24 22  1  0  0  0  0
 24 23  1  0  0  0  0
 25 23  1  6  0  0  0
 25 19  1  0  0  0  0
 27 29  1  0  0  0  0
 28 26  1  0  0  0  0
 29 28  1  0  0  0  0
 30 29  2  0  0  0  0
 31 32  1  0  0  0  0
 32 27  1  0  0  0  0
 33 31  2  0  0  0  0
 34 32  2  0  0  0  0
 35 33  1  0  0  0  0
 35 36  2  0  0  0  0
 36 34  1  0  0  0  0
M  END
>  <MODEL>
6

>  <REMARK>
 VINA RESULT:      -6.9      3.910      5.922
  Name = 
  11 active torsions:
  status: ('A' for Active; 'I' for Inactive)
    1  A    between atoms: N_1  and  C_18
    2  A    between atoms: C_2  and  C_23
    3  A    between atoms: C_4  and  C_13
    4  A    between atoms: C_4  and  C_35
    5  A    between atoms: C_7  and  O_12
    6  A    between atoms: C_8  and  C_9
    7  A    between atoms: C_9  and  O_12
    8  A    between atoms: N_11  and  C_27
    9  A    between atoms: C_23  and  C_35
   10  A    between atoms: C_27  and  C_34
   11  A    between atoms: C_28  and  C_33
                            x       y       z     vdW  Elec       q    Type
                         _______ _______ _______ _____ _____    ______ ____

>  <TORSDO>
F 11

$$$$
=
 OpenBabel11072413343D

 36 39  0  0  1  0  0  0  0  0999 V2000
  161.2320  207.5270  153.1740 C   0  0  0  0  0  0  0  0  0  0  0  0
  161.5340  207.2800  151.8140 C   0  0  0  0  0  0  0  0  0  0  0  0
  160.7530  205.1630  153.4960 C   0  0  0  0  0  3  0  0  0  0  0  0
  161.4480  205.9640  151.3290 C   0  0  0  0  0  3  0  0  0  0  0  0
  160.8400  206.4620  154.0000 C   0  0  0  0  0  3  0  0  0  0  0  0
  161.0530  204.9080  152.1590 C   0  0  0  0  0  0  0  0  0  0  0  0
  161.9360  208.3620  150.8780 C   0  0  0  0  0  0  0  0  0  0  0  0
  162.6930  209.2950  151.2590 O   0  0  0  0  0  0  0  0  0  0  0  0
  161.4730  208.3620  149.4520 C   0  0  0  0  0  2  0  0  0  0  0  0
  162.5000  207.6980  148.5480 C   0  0  0  0  0  2  0  0  0  0  0  0
  161.9490  206.4080  147.9750 C   0  0  0  0  0  2  0  0  0  0  0  0
  161.5090  206.6290  146.6690 O   0  0  0  0  0  1  0  0  0  0  0  0
  161.3530  208.8220  153.6970 O   0  0  0  0  0  0  0  0  0  0  0  0
  161.2420  209.1210  155.0850 C   0  0  0  0  0  2  0  0  0  0  0  0
  161.3850  210.6150  155.3260 C   0  0  1  0  0  3  0  0  0  0  0  0
  159.3950  211.2600  156.7310 C   0  0  0  0  0  2  0  0  0  0  0  0
  160.0830  212.5800  154.7510 O   0  0  0  0  0  0  0  0  0  0  0  0
  160.5920  211.3640  154.2500 C   0  0  0  0  0  2  0  0  0  0  0  0
  159.0230  212.3020  155.6550 C   0  0  1  0  0  3  0  0  0  0  0  0
  160.8960  210.9830  156.7320 C   0  0  0  0  0  2  0  0  0  0  0  0
  156.6300  211.7270  155.8690 N   0  0  0  0  0  2  0  0  0  0  0  0
  155.7590  212.8900  155.8070 C   0  0  0  0  0  2  0  0  0  0  0  0
  157.2910  213.1760  153.6720 S   0  0  0  0  0  0  0  0  0  0  0  0
  155.6330  213.3030  154.3650 C   0  0  0  0  0  2  0  0  0  0  0  0
  157.7310  211.9200  154.9240 C   0  0  1  0  0  3  0  0  0  0  0  0
  161.0550  203.4900  151.6790 C   0  0  0  0  0  2  0  0  0  0  0  0
  161.5500  202.4140  148.0400 N   0  0  0  0  0  2  0  0  0  0  0  0
  161.5710  203.3740  150.3200 N   0  0  0  0  0  2  0  0  0  0  0  0
  161.0570  202.4200  149.3870 C   0  0  0  0  0  0  0  0  0  0  0  0
  160.1560  201.6160  149.7490 O   0  0  0  0  0  0  0  0  0  0  0  0
  161.5820  200.1410  147.0460 C   0  0  0  0  0  3  0  0  0  0  0  0
  161.1910  201.4870  147.0050 C   0  0  0  0  0  0  0  0  0  0  0  0
  161.2080  199.2810  146.0110 C   0  0  0  0  0  3  0  0  0  0  0  0
  160.4330  201.9410  145.9220 C   0  0  0  0  0  3  0  0  0  0  0  0
  160.4690  199.7500  144.9700 N   0  0  0  0  0  0  0  0  0  0  0  0
  160.0790  201.0510  144.9050 C   0  0  0  0  0  3  0  0  0  0  0  0
  1 13  1  0  0  0  0
  1  5  1  0  0  0  0
  2  1  2  0  0  0  0
  3  5  2  0  0  0  0
  4  2  1  0  0  0  0
  4  6  2  0  0  0  0
  6  3  1  0  0  0  0
  7  8  2  0  0  0  0
  7  2  1  0  0  0  0
  9  7  1  0  0  0  0
 10  9  1  0  0  0  0
 11 10  1  0  0  0  0
 12 11  1  0  0  0  0
 13 14  1  0  0  0  0
 15 14  1  6  0  0  0
 15 20  1  0  0  0  0
 16 20  1  0  0  0  0
 17 19  1  0  0  0  0
 18 17  1  0  0  0  0
 18 15  1  0  0  0  0
 19 16  1  1  0  0  0
 22 21  1  0  0  0  0
 23 24  1  0  0  0  0
 24 22  1  0  0  0  0
 25 23  1  6  0  0  0
 25 19  1  0  0  0  0
 25 21  1  0  0  0  0
 26  6  1  0  0  0  0
 27 29  1  0  0  0  0
 28 26  1  0  0  0  0
 29 30  2  0  0  0  0
 29 28  1  0  0  0  0
 32 31  1  0  0  0  0
 32 27  1  0  0  0  0
 33 31  2  0  0  0  0
 34 32  2  0  0  0  0
 35 33  1  0  0  0  0
 36 35  2  0  0  0  0
 36 34  1  0  0  0  0
M  END
>  <MODEL>
7

>  <REMARK>
 VINA RESULT:      -6.7      1.987      3.632
  Name = 
  11 active torsions:
  status: ('A' for Active; 'I' for Inactive)
    1  A    between atoms: N_1  and  C_18
    2  A    between atoms: C_2  and  C_23
    3  A    between atoms: C_4  and  C_13
    4  A    between atoms: C_4  and  C_35
    5  A    between atoms: C_7  and  O_12
    6  A    between atoms: C_8  and  C_9
    7  A    between atoms: C_9  and  O_12
    8  A    between atoms: N_11  and  C_27
    9  A    between atoms: C_23  and  C_35
   10  A    between atoms: C_27  and  C_34
   11  A    between atoms: C_28  and  C_33
                            x       y       z     vdW  Elec       q    Type
                         _______ _______ _______ _____ _____    ______ ____

>  <TORSDO>
F 11

$$$$
=
 OpenBabel11072413343D

 36 39  0  0  1  0  0  0  0  0999 V2000
  160.9680  208.5500  153.2000 C   0  0  0  0  0  0  0  0  0  0  0  0
  160.6500  207.6330  154.2290 C   0  0  0  0  0  0  0  0  0  0  0  0
  161.4840  206.6950  151.7110 C   0  0  0  0  0  3  0  0  0  0  0  0
  160.7460  206.2570  153.9660 C   0  0  0  0  0  3  0  0  0  0  0  0
  161.3870  208.0670  151.9500 C   0  0  0  0  0  3  0  0  0  0  0  0
  161.1680  205.7840  152.7180 C   0  0  0  0  0  0  0  0  0  0  0  0
  160.2190  208.0730  155.5820 C   0  0  0  0  0  0  0  0  0  0  0  0
  159.1350  208.6980  155.7420 O   0  0  0  0  0  0  0  0  0  0  0  0
  161.0450  207.7680  156.7940 C   0  0  0  0  0  2  0  0  0  0  0  0
  162.3270  208.5870  156.7970 C   0  0  0  0  0  2  0  0  0  0  0  0
  162.0520  210.0050  157.2570 C   0  0  0  0  0  2  0  0  0  0  0  0
  162.9810  210.8700  156.6800 O   0  0  0  0  0  1  0  0  0  0  0  0
  160.8370  209.9280  153.4190 O   0  0  0  0  0  0  0  0  0  0  0  0
  159.7490  210.7020  152.9240 C   0  0  0  0  0  2  0  0  0  0  0  0
  159.8850  212.1550  153.3520 C   0  0  1  0  0  3  0  0  0  0  0  0
  158.9300  212.2570  155.6820 C   0  0  0  0  0  2  0  0  0  0  0  0
  158.3340  213.9220  153.9490 O   0  0  0  0  0  0  0  0  0  0  0  0
  158.5810  212.8880  153.0220 C   0  0  0  0  0  2  0  0  0  0  0  0
  157.9580  213.3500  155.1930 C   0  0  1  0  0  3  0  0  0  0  0  0
  160.2090  212.2460  154.8490 C   0  0  0  0  0  2  0  0  0  0  0  0
  156.3580  211.6550  156.0130 N   0  0  0  0  0  2  0  0  0  0  0  0
  155.7110  212.0410  157.2570 C   0  0  0  0  0  2  0  0  0  0  0  0
  155.3570  214.1600  155.7180 S   0  0  0  0  0  0  0  0  0  0  0  0
  154.6360  213.0430  156.9340 C   0  0  0  0  0  2  0  0  0  0  0  0
  156.5090  212.8480  155.1790 C   0  0  1  0  0  3  0  0  0  0  0  0
  161.1780  204.3220  152.3950 C   0  0  0  0  0  2  0  0  0  0  0  0
  161.9640  203.5930  148.7210 N   0  0  0  0  0  2  0  0  0  0  0  0
  161.8890  204.0420  151.1520 N   0  0  0  0  0  2  0  0  0  0  0  0
  161.2060  203.7780  149.9250 C   0  0  0  0  0  0  0  0  0  0  0  0
  159.9460  203.7410  149.9070 O   0  0  0  0  0  0  0  0  0  0  0  0
  160.9330  201.9820  147.1400 C   0  0  0  0  0  3  0  0  0  0  0  0
  161.4410  203.2570  147.4270 C   0  0  0  0  0  0  0  0  0  0  0  0
  160.4380  201.7070  145.8640 C   0  0  0  0  0  3  0  0  0  0  0  0
  161.4420  204.2290  146.4230 C   0  0  0  0  0  3  0  0  0  0  0  0
  160.4510  202.6730  144.9060 N   0  0  0  0  0  0  0  0  0  0  0  0
  160.9390  203.9170  145.1580 C   0  0  0  0  0  3  0  0  0  0  0  0
  1 13  1  0  0  0  0
  1  2  1  0  0  0  0
  2  7  1  0  0  0  0
  3  5  1  0  0  0  0
  3  6  2  0  0  0  0
  4  2  2  0  0  0  0
  5  1  2  0  0  0  0
  6  4  1  0  0  0  0
  7  8  2  0  0  0  0
  7  9  1  0  0  0  0
  9 10  1  0  0  0  0
 10 11  1  0  0  0  0
 12 11  1  0  0  0  0
 14 13  1  0  0  0  0
 15 14  1  1  0  0  0
 15 20  1  0  0  0  0
 17 19  1  0  0  0  0
 18 15  1  0  0  0  0
 18 17  1  0  0  0  0
 19 16  1  6  0  0  0
 20 16  1  0  0  0  0
 21 22  1  0  0  0  0
 23 24  1  0  0  0  0
 24 22  1  0  0  0  0
 25 19  1  0  0  0  0
 25 23  1  1  0  0  0
 25 21  1  0  0  0  0
 26  6  1  0  0  0  0
 27 29  1  0  0  0  0
 28 26  1  0  0  0  0
 29 28  1  0  0  0  0
 30 29  2  0  0  0  0
 31 32  1  0  0  0  0
 32 27  1  0  0  0  0
 33 31  2  0  0  0  0
 34 32  2  0  0  0  0
 35 36  2  0  0  0  0
 35 33  1  0  0  0  0
 36 34  1  0  0  0  0
M  END
>  <MODEL>
8

>  <REMARK>
 VINA RESULT:      -6.7      2.196      3.983
  Name = 
  11 active torsions:
  status: ('A' for Active; 'I' for Inactive)
    1  A    between atoms: N_1  and  C_18
    2  A    between atoms: C_2  and  C_23
    3  A    between atoms: C_4  and  C_13
    4  A    between atoms: C_4  and  C_35
    5  A    between atoms: C_7  and  O_12
    6  A    between atoms: C_8  and  C_9
    7  A    between atoms: C_9  and  O_12
    8  A    between atoms: N_11  and  C_27
    9  A    between atoms: C_23  and  C_35
   10  A    between atoms: C_27  and  C_34
   11  A    between atoms: C_28  and  C_33
                            x       y       z     vdW  Elec       q    Type
                         _______ _______ _______ _____ _____    ______ ____

>  <TORSDO>
F 11

$$$$
=
 OpenBabel11072413343D

 36 39  0  0  1  0  0  0  0  0999 V2000
  161.9620  209.8440  150.9290 C   0  0  0  0  0  0  0  0  0  0  0  0
  161.8810  208.5580  150.3460 C   0  0  0  0  0  0  0  0  0  0  0  0
  161.5950  208.8680  153.1280 C   0  0  0  0  0  3  0  0  0  0  0  0
  161.6690  207.4470  151.1800 C   0  0  0  0  0  3  0  0  0  0  0  0
  161.8140  209.9840  152.3190 C   0  0  0  0  0  3  0  0  0  0  0  0
  161.5180  207.5960  152.5640 C   0  0  0  0  0  0  0  0  0  0  0  0
  162.0100  208.3380  148.8820 C   0  0  0  0  0  0  0  0  0  0  0  0
  162.7980  209.0390  148.1910 O   0  0  0  0  0  0  0  0  0  0  0  0
  161.2250  207.2650  148.1900 C   0  0  0  0  0  2  0  0  0  0  0  0
  162.1330  206.3960  147.3320 C   0  0  0  0  0  2  0  0  0  0  0  0
  161.3680  205.8290  146.1530 C   0  0  0  0  0  2  0  0  0  0  0  0
  162.2010  205.7880  145.0350 O   0  0  0  0  0  1  0  0  0  0  0  0
  162.2190  210.9660  150.1290 O   0  0  0  0  0  0  0  0  0  0  0  0
  161.1960  211.8000  149.5950 C   0  0  0  0  0  2  0  0  0  0  0  0
  161.7950  213.0470  148.9640 C   0  0  1  0  0  3  0  0  0  0  0  0
  160.1040  213.8120  147.2590 C   0  0  0  0  0  2  0  0  0  0  0  0
  162.5200  213.6650  146.7330 O   0  0  0  0  0  0  0  0  0  0  0  0
  162.5600  212.6400  147.7010 C   0  0  0  0  0  2  0  0  0  0  0  0
  161.2110  213.7370  146.1870 C   0  0  1  0  0  3  0  0  0  0  0  0
  160.6960  214.0680  148.6430 C   0  0  0  0  0  2  0  0  0  0  0  0
  159.5120  212.4420  144.9470 N   0  0  0  0  0  2  0  0  0  0  0  0
  159.1840  213.0240  143.6560 C   0  0  0  0  0  2  0  0  0  0  0  0
  161.8240  212.9150  143.6090 S   0  0  0  0  0  0  0  0  0  0  0  0
  160.2900  212.6820  142.6940 C   0  0  0  0  0  2  0  0  0  0  0  0
  160.9460  212.6090  145.1820 C   0  0  1  0  0  3  0  0  0  0  0  0
  161.3920  206.4120  153.4710 C   0  0  0  0  0  2  0  0  0  0  0  0
  160.3770  203.4770  151.2340 N   0  0  0  0  0  2  0  0  0  0  0  0
  160.6340  205.3290  152.8540 N   0  0  0  0  0  2  0  0  0  0  0  0
  161.1350  204.5840  151.7410 C   0  0  0  0  0  0  0  0  0  0  0  0
  162.2500  204.8880  151.2380 O   0  0  0  0  0  0  0  0  0  0  0  0
  160.8840  201.2850  150.1880 C   0  0  0  0  0  3  0  0  0  0  0  0
  160.7030  202.6730  150.0910 C   0  0  0  0  0  0  0  0  0  0  0  0
  161.2030  200.5490  149.0450 C   0  0  0  0  0  3  0  0  0  0  0  0
  160.8470  203.2910  148.8470 C   0  0  0  0  0  3  0  0  0  0  0  0
  161.3360  201.1780  147.8460 N   0  0  0  0  0  0  0  0  0  0  0  0
  161.1680  202.5210  147.7250 C   0  0  0  0  0  3  0  0  0  0  0  0
  1  5  1  0  0  0  0
  2  1  2  0  0  0  0
  2  4  1  0  0  0  0
  4  6  2  0  0  0  0
  5  3  2  0  0  0  0
  6  3  1  0  0  0  0
  6 26  1  0  0  0  0
  7  2  1  0  0  0  0
  8  7  2  0  0  0  0
  9  7  1  0  0  0  0
 10  9  1  0  0  0  0
 11 10  1  0  0  0  0
 12 11  1  0  0  0  0
 13  1  1  0  0  0  0
 14 13  1  0  0  0  0
 15 14  1  6  0  0  0
 16 20  1  0  0  0  0
 17 18  1  0  0  0  0
 18 15  1  0  0  0  0
 19 17  1  0  0  0  0
 19 16  1  1  0  0  0
 20 15  1  0  0  0  0
 21 25  1  0  0  0  0
 22 21  1  0  0  0  0
 24 23  1  0  0  0  0
 24 22  1  0  0  0  0
 25 23  1  6  0  0  0
 25 19  1  0  0  0  0
 27 29  1  0  0  0  0
 28 26  1  0  0  0  0
 29 28  1  0  0  0  0
 30 29  2  0  0  0  0
 32 31  1  0  0  0  0
 32 27  1  0  0  0  0
 33 31  2  0  0  0  0
 34 32  2  0  0  0  0
 35 33  1  0  0  0  0
 36 35  2  0  0  0  0
 36 34  1  0  0  0  0
M  END
>  <MODEL>
9

>  <REMARK>
 VINA RESULT:      -6.4      4.022      6.021
  Name = 
  11 active torsions:
  status: ('A' for Active; 'I' for Inactive)
    1  A    between atoms: N_1  and  C_18
    2  A    between atoms: C_2  and  C_23
    3  A    between atoms: C_4  and  C_13
    4  A    between atoms: C_4  and  C_35
    5  A    between atoms: C_7  and  O_12
    6  A    between atoms: C_8  and  C_9
    7  A    between atoms: C_9  and  O_12
    8  A    between atoms: N_11  and  C_27
    9  A    between atoms: C_23  and  C_35
   10  A    between atoms: C_27  and  C_34
   11  A    between atoms: C_28  and  C_33
                            x       y       z     vdW  Elec       q    Type
                         _______ _______ _______ _____ _____    ______ ____

>  <TORSDO>
F 11

$$$$
