=
 OpenBabel11072413093D

 35 39  0  0  1  0  0  0  0  0999 V2000
  162.0330  210.5000  153.9300 C   0  0  0  0  0  0  0  0  0  0  0  0
  160.4740  207.5520  154.5460 C   0  0  1  0  0  3  0  0  0  0  0  0
  160.7920  206.8030  153.2470 C   0  0  0  0  0  2  0  0  0  0  0  0
  161.1000  209.6660  153.3410 C   0  0  1  0  0  0  0  0  0  0  0  0
  160.8440  211.0130  153.1060 N   0  0  0  0  0  0  0  0  0  0  0  0
  161.9320  207.4810  152.4780 C   0  0  2  0  0  3  0  0  0  0  0  0
  163.0670  210.6990  154.6170 O   0  0  0  0  0  0  0  0  0  0  0  0
  161.5470  208.9070  152.1000 C   0  0  0  0  0  2  0  0  0  0  0  0
  161.5660  207.5000  155.4130 O   0  0  0  0  0  1  0  0  0  0  0  0
  160.0870  209.0070  154.2700 C   0  0  0  0  0  2  0  0  0  0  0  0
  156.7000  213.1560  153.0610 N   0  0  0  0  0  2  0  0  0  0  0  0
  160.0730  212.0650  152.5390 C   0  0  0  0  0  3  0  0  0  0  0  0
  155.8100  213.6260  154.0660 C   0  0  0  0  0  0  0  0  0  0  0  0
  158.8130  213.2860  156.0120 C   0  0  0  0  0  2  0  0  0  0  0  0
  158.9900  212.4710  153.1370 C   0  0  0  0  0  0  0  0  0  0  0  0
  157.9080  212.8750  153.7450 C   0  0  0  0  0  0  0  0  0  0  0  0
  157.7920  213.1740  155.1680 C   0  0  0  0  0  0  0  0  0  0  0  0
  154.6720  214.1580  153.7710 N   0  0  0  0  0  2  0  0  0  0  0  0
  156.4230  213.7160  155.4340 C   0  0  2  0  0  3  0  0  0  0  0  0
  155.6840  212.8580  156.4150 C   0  0  0  0  0  0  0  0  0  0  0  0
  155.8320  211.4410  156.4050 N   0  0  0  0  0  1  0  0  0  0  0  0
  154.9270  213.3990  157.2610 O   0  0  0  0  0  0  0  0  0  0  0  0
  162.2620  206.6990  151.2170 C   0  0  0  0  0  2  0  0  0  0  0  0
  160.9940  206.3430  150.4440 C   0  0  2  0  0  3  0  0  0  0  0  0
  161.4020  202.1290  149.6270 C   0  0  0  0  0  2  0  0  0  0  0  0
  160.8830  204.8710  150.1600 C   0  0  0  0  0  0  0  0  0  0  0  0
  161.5670  203.1600  151.8650 C   0  0  0  0  0  2  0  0  0  0  0  0
  160.4050  203.9080  151.2360 C   0  0  2  0  0  3  0  0  0  0  0  0
  160.6420  202.4130  150.9260 C   0  0  1  0  0  3  0  0  0  0  0  0
  160.9110  203.0320  148.5090 C   0  0  0  0  0  2  0  0  0  0  0  0
  161.1140  204.4600  148.9050 C   0  0  0  0  0  3  0  0  0  0  0  0
  160.7300  207.2330  149.2210 C   0  0  0  0  0  2  0  0  0  0  0  0
  161.9630  207.8420  148.6310 C   0  0  0  0  0  0  0  0  0  0  0  0
  162.7150  207.1630  147.8840 O   0  0  0  0  0  0  0  0  0  0  0  0
  162.3040  209.1520  148.9440 O   0  0  0  0  0  1  0  0  0  0  0  0
  1  7  2  0  0  0  0
  2  9  1  1  0  0  0
  3  2  1  0  0  0  0
  4  8  1  6  0  0  0
  4  1  1  0  0  0  0
  4 10  1  0  0  0  0
  5  4  1  0  0  0  0
  5  1  1  0  0  0  0
  6 23  1  6  0  0  0
  6  3  1  0  0  0  0
  8  6  1  0  0  0  0
 10  2  1  0  0  0  0
 11 16  1  0  0  0  0
 11 13  1  0  0  0  0
 12  5  1  0  0  0  0
 12 15  2  0  0  0  0
 13 19  1  0  0  0  0
 15 16  2  0  0  0  0
 16 17  1  0  0  0  0
 17 19  1  0  0  0  0
 17 14  2  0  0  0  0
 18 13  2  0  0  0  0
 19 20  1  1  0  0  0
 20 22  2  0  0  0  0
 21 20  1  0  0  0  0
 24 32  1  6  0  0  0
 24 23  1  0  0  0  0
 26 24  1  0  0  0  0
 26 28  1  0  0  0  0
 28 27  1  1  0  0  0
 29 25  1  6  0  0  0
 29 28  1  0  0  0  0
 29 27  1  0  0  0  0
 30 31  1  0  0  0  0
 30 25  1  0  0  0  0
 31 26  2  0  0  0  0
 33 35  1  0  0  0  0
 33 32  1  0  0  0  0
 34 33  2  0  0  0  0
M  END
>  <MODEL>
1

>  <REMARK>
 VINA RESULT:      -8.3      0.000      0.000
  Name = 
  7 active torsions:
  status: ('A' for Active; 'I' for Inactive)
    1  A    between atoms: C_4  and  C_27
    2  A    between atoms: C_6  and  C_12
    3  A    between atoms: C_8  and  C_33
    4  A    between atoms: C_10  and  N_20
    5  A    between atoms: C_12  and  C_17
    6  A    between atoms: C_12  and  C_27
    7  A    between atoms: C_17  and  C_21
                            x       y       z     vdW  Elec       q    Type
                         _______ _______ _______ _____ _____    ______ ____

>  <TORSDO>
F 7

$$$$
=
 OpenBabel11072413093D

 35 39  0  0  1  0  0  0  0  0999 V2000
  161.9960  210.4120  153.7450 C   0  0  0  0  0  0  0  0  0  0  0  0
  160.4180  208.2520  155.8300 C   0  0  1  0  0  3  0  0  0  0  0  0
  160.1110  207.1120  154.8530 C   0  0  0  0  0  2  0  0  0  0  0  0
  160.8070  209.7100  153.8200 C   0  0  1  0  0  0  0  0  0  0  0  0
  160.6600  210.9540  153.2170 N   0  0  0  0  0  0  0  0  0  0  0  0
  160.9470  207.2330  153.5730 C   0  0  2  0  0  3  0  0  0  0  0  0
  163.2310  210.5290  153.9490 O   0  0  0  0  0  0  0  0  0  0  0  0
  160.6380  208.5440  152.8570 C   0  0  0  0  0  2  0  0  0  0  0  0
  161.7420  208.1730  156.2630 O   0  0  0  0  0  1  0  0  0  0  0  0
  160.1500  209.6180  155.1940 C   0  0  0  0  0  2  0  0  0  0  0  0
  156.5460  213.1540  153.1610 N   0  0  0  0  0  2  0  0  0  0  0  0
  159.8770  211.9620  152.5890 C   0  0  0  0  0  3  0  0  0  0  0  0
  155.7100  213.7310  154.1580 C   0  0  0  0  0  0  0  0  0  0  0  0
  158.7980  213.5220  155.9870 C   0  0  0  0  0  2  0  0  0  0  0  0
  158.8280  212.4400  153.1960 C   0  0  0  0  0  0  0  0  0  0  0  0
  157.7810  212.9170  153.8120 C   0  0  0  0  0  0  0  0  0  0  0  0
  157.7370  213.3490  155.2050 C   0  0  0  0  0  0  0  0  0  0  0  0
  154.5670  214.2520  153.8670 N   0  0  0  0  0  2  0  0  0  0  0  0
  156.3890  213.9370  155.4810 C   0  0  2  0  0  3  0  0  0  0  0  0
  155.6860  213.1870  156.5710 C   0  0  0  0  0  0  0  0  0  0  0  0
  155.9980  211.8220  156.8390 N   0  0  0  0  0  1  0  0  0  0  0  0
  154.8130  213.7720  157.2610 O   0  0  0  0  0  0  0  0  0  0  0  0
  160.6610  206.0700  152.6390 C   0  0  0  0  0  2  0  0  0  0  0  0
  161.8450  205.8090  151.7090 C   0  0  2  0  0  3  0  0  0  0  0  0
  161.8550  207.0640  147.5830 C   0  0  0  0  0  2  0  0  0  0  0  0
  161.6200  206.3430  150.3210 C   0  0  0  0  0  0  0  0  0  0  0  0
  161.2620  204.8000  148.3730 C   0  0  0  0  0  2  0  0  0  0  0  0
  160.5960  205.6990  149.3990 C   0  0  2  0  0  3  0  0  0  0  0  0
  160.6900  206.1270  147.9180 C   0  0  1  0  0  3  0  0  0  0  0  0
  162.0160  208.1250  148.6570 C   0  0  0  0  0  2  0  0  0  0  0  0
  162.2710  207.4620  149.9720 C   0  0  0  0  0  3  0  0  0  0  0  0
  162.3680  204.3660  151.7420 C   0  0  0  0  0  2  0  0  0  0  0  0
  161.2920  203.3290  151.8340 C   0  0  0  0  0  0  0  0  0  0  0  0
  161.2470  202.3820  151.0070 O   0  0  0  0  0  0  0  0  0  0  0  0
  160.3130  203.4370  152.8140 O   0  0  0  0  0  1  0  0  0  0  0  0
  1  4  1  0  0  0  0
  1  7  2  0  0  0  0
  2  9  1  6  0  0  0
  3  2  1  0  0  0  0
  4  8  1  6  0  0  0
  4 10  1  0  0  0  0
  5  1  1  0  0  0  0
  5  4  1  0  0  0  0
  6 23  1  6  0  0  0
  6  3  1  0  0  0  0
  8  6  1  0  0  0  0
 10  2  1  0  0  0  0
 11 16  1  0  0  0  0
 11 13  1  0  0  0  0
 12 15  2  0  0  0  0
 12  5  1  0  0  0  0
 13 19  1  0  0  0  0
 15 16  2  0  0  0  0
 16 17  1  0  0  0  0
 17 19  1  0  0  0  0
 17 14  2  0  0  0  0
 18 13  2  0  0  0  0
 19 20  1  1  0  0  0
 20 21  1  0  0  0  0
 20 22  2  0  0  0  0
 24 32  1  6  0  0  0
 24 23  1  0  0  0  0
 25 30  1  0  0  0  0
 26 24  1  0  0  0  0
 28 27  1  6  0  0  0
 28 26  1  0  0  0  0
 29 25  1  1  0  0  0
 29 27  1  0  0  0  0
 29 28  1  0  0  0  0
 30 31  1  0  0  0  0
 31 26  2  0  0  0  0
 32 33  1  0  0  0  0
 33 35  1  0  0  0  0
 34 33  2  0  0  0  0
M  END
>  <MODEL>
2

>  <REMARK>
 VINA RESULT:      -7.0      1.608      2.779
  Name = 
  7 active torsions:
  status: ('A' for Active; 'I' for Inactive)
    1  A    between atoms: C_4  and  C_27
    2  A    between atoms: C_6  and  C_12
    3  A    between atoms: C_8  and  C_33
    4  A    between atoms: C_10  and  N_20
    5  A    between atoms: C_12  and  C_17
    6  A    between atoms: C_12  and  C_27
    7  A    between atoms: C_17  and  C_21
                            x       y       z     vdW  Elec       q    Type
                         _______ _______ _______ _____ _____    ______ ____

>  <TORSDO>
F 7

$$$$
=
 OpenBabel11072413093D

 35 39  0  0  1  0  0  0  0  0999 V2000
  159.7080  207.4000  155.1270 C   0  0  0  0  0  0  0  0  0  0  0  0
  161.8280  209.9510  155.8320 C   0  0  1  0  0  3  0  0  0  0  0  0
  161.7260  210.7530  154.5300 C   0  0  0  0  0  2  0  0  0  0  0  0
  160.8190  208.0190  154.5820 C   0  0  1  0  0  0  0  0  0  0  0  0
  160.7940  206.6500  154.3430 N   0  0  0  0  0  0  0  0  0  0  0  0
  160.5000  210.3330  153.7110 C   0  0  2  0  0  3  0  0  0  0  0  0
  158.6300  207.4210  155.7710 O   0  0  0  0  0  0  0  0  0  0  0  0
  160.5910  208.8580  153.3330 C   0  0  0  0  0  2  0  0  0  0  0  0
  160.7390  210.2300  156.6580 O   0  0  0  0  0  1  0  0  0  0  0  0
  161.9110  208.4480  155.5560 C   0  0  0  0  0  2  0  0  0  0  0  0
  160.9860  203.8620  150.6060 N   0  0  0  0  0  2  0  0  0  0  0  0
  161.3480  205.4600  153.7930 C   0  0  0  0  0  3  0  0  0  0  0  0
  161.1640  204.0760  149.2110 C   0  0  0  0  0  0  0  0  0  0  0  0
  162.3580  207.2230  150.4740 C   0  0  0  0  0  2  0  0  0  0  0  0
  161.3360  205.2740  152.5040 C   0  0  0  0  0  0  0  0  0  0  0  0
  161.3240  205.0970  151.2110 C   0  0  0  0  0  0  0  0  0  0  0  0
  161.7250  206.0840  150.2130 C   0  0  0  0  0  0  0  0  0  0  0  0
  161.1310  203.1030  148.3650 N   0  0  0  0  0  2  0  0  0  0  0  0
  161.6740  205.4450  148.8610 C   0  0  2  0  0  3  0  0  0  0  0  0
  160.7170  206.1640  147.9600 C   0  0  0  0  0  0  0  0  0  0  0  0
  161.0250  206.3740  146.5840 N   0  0  0  0  0  1  0  0  0  0  0  0
  159.6260  206.5820  148.4250 O   0  0  0  0  0  0  0  0  0  0  0  0
  160.3910  211.1700  152.4480 C   0  0  0  0  0  2  0  0  0  0  0  0
  159.0930  211.9760  152.4330 C   0  0  2  0  0  3  0  0  0  0  0  0
  158.9580  214.2150  148.7500 C   0  0  0  0  0  2  0  0  0  0  0  0
  159.0370  212.9610  151.2980 C   0  0  0  0  0  0  0  0  0  0  0  0
  157.0140  213.1330  149.8210 C   0  0  0  0  0  2  0  0  0  0  0  0
  157.7580  213.7290  151.0020 C   0  0  2  0  0  3  0  0  0  0  0  0
  157.7320  214.4530  149.6380 C   0  0  1  0  0  3  0  0  0  0  0  0
  160.2340  214.2620  149.5730 C   0  0  0  0  0  2  0  0  0  0  0  0
  160.1740  213.2120  150.6350 C   0  0  0  0  0  3  0  0  0  0  0  0
  158.7030  212.5710  153.7930 C   0  0  0  0  0  2  0  0  0  0  0  0
  157.4250  212.0300  154.3520 C   0  0  0  0  0  0  0  0  0  0  0  0
  156.3280  212.5900  154.0950 O   0  0  0  0  0  0  0  0  0  0  0  0
  157.4540  210.9270  155.1960 O   0  0  0  0  0  1  0  0  0  0  0  0
  1  7  2  0  0  0  0
  2  9  1  1  0  0  0
  3  2  1  0  0  0  0
  4  8  1  6  0  0  0
  4  1  1  0  0  0  0
  4 10  1  0  0  0  0
  5  4  1  0  0  0  0
  5  1  1  0  0  0  0
  6 23  1  6  0  0  0
  6  3  1  0  0  0  0
  8  6  1  0  0  0  0
 10  2  1  0  0  0  0
 11 16  1  0  0  0  0
 12  5  1  0  0  0  0
 13 11  1  0  0  0  0
 15 12  2  0  0  0  0
 16 15  2  0  0  0  0
 17 14  2  0  0  0  0
 17 16  1  0  0  0  0
 18 13  2  0  0  0  0
 19 20  1  6  0  0  0
 19 13  1  0  0  0  0
 19 17  1  0  0  0  0
 20 22  2  0  0  0  0
 21 20  1  0  0  0  0
 24 23  1  1  0  0  0
 24 32  1  0  0  0  0
 25 30  1  0  0  0  0
 26 24  1  0  0  0  0
 28 27  1  6  0  0  0
 28 26  1  0  0  0  0
 29 25  1  6  0  0  0
 29 27  1  0  0  0  0
 29 28  1  0  0  0  0
 30 31  1  0  0  0  0
 31 26  2  0  0  0  0
 32 33  1  0  0  0  0
 33 35  1  0  0  0  0
 34 33  2  0  0  0  0
M  END
>  <MODEL>
3

>  <REMARK>
 VINA RESULT:      -6.7      3.363      8.758
  Name = 
  7 active torsions:
  status: ('A' for Active; 'I' for Inactive)
    1  A    between atoms: C_4  and  C_27
    2  A    between atoms: C_6  and  C_12
    3  A    between atoms: C_8  and  C_33
    4  A    between atoms: C_10  and  N_20
    5  A    between atoms: C_12  and  C_17
    6  A    between atoms: C_12  and  C_27
    7  A    between atoms: C_17  and  C_21
                            x       y       z     vdW  Elec       q    Type
                         _______ _______ _______ _____ _____    ______ ____

>  <TORSDO>
F 7

$$$$
=
 OpenBabel11072413093D

 35 39  0  0  1  0  0  0  0  0999 V2000
  159.7350  207.3320  155.1980 C   0  0  0  0  0  0  0  0  0  0  0  0
  161.8130  209.8290  156.1680 C   0  0  1  0  0  3  0  0  0  0  0  0
  161.7920  210.7010  154.9080 C   0  0  0  0  0  2  0  0  0  0  0  0
  160.8770  207.9740  154.7560 C   0  0  1  0  0  0  0  0  0  0  0  0
  160.8640  206.6190  154.4410 N   0  0  0  0  0  0  0  0  0  0  0  0
  160.6160  210.3330  153.9950 C   0  0  2  0  0  3  0  0  0  0  0  0
  158.6190  207.3240  155.7770 O   0  0  0  0  0  0  0  0  0  0  0  0
  160.7270  208.8810  153.5430 C   0  0  0  0  0  2  0  0  0  0  0  0
  160.6770  210.0680  156.9410 O   0  0  0  0  0  1  0  0  0  0  0  0
  161.9100  208.3430  155.8160 C   0  0  0  0  0  2  0  0  0  0  0  0
  161.0740  203.8970  150.6580 N   0  0  0  0  0  2  0  0  0  0  0  0
  161.4470  205.4580  153.8620 C   0  0  0  0  0  3  0  0  0  0  0  0
  161.2150  204.1380  149.2620 C   0  0  0  0  0  0  0  0  0  0  0  0
  162.3240  207.3050  150.5510 C   0  0  0  0  0  2  0  0  0  0  0  0
  161.4150  205.2910  152.5700 C   0  0  0  0  0  0  0  0  0  0  0  0
  161.3820  205.1340  151.2750 C   0  0  0  0  0  0  0  0  0  0  0  0
  161.7260  206.1490  150.2850 C   0  0  0  0  0  0  0  0  0  0  0  0
  161.1970  203.1770  148.4020 N   0  0  0  0  0  2  0  0  0  0  0  0
  161.6690  205.5280  148.9240 C   0  0  2  0  0  3  0  0  0  0  0  0
  160.6680  206.2270  148.0540 C   0  0  0  0  0  0  0  0  0  0  0  0
  160.9470  206.4840  146.6800 N   0  0  0  0  0  1  0  0  0  0  0  0
  159.5680  206.5850  148.5440 O   0  0  0  0  0  0  0  0  0  0  0  0
  160.5850  211.2380  152.7750 C   0  0  0  0  0  2  0  0  0  0  0  0
  159.6040  212.3920  152.9720 C   0  0  2  0  0  3  0  0  0  0  0  0
  157.3480  212.9020  156.6120 C   0  0  0  0  0  2  0  0  0  0  0  0
  158.9500  212.3710  154.3260 C   0  0  0  0  0  0  0  0  0  0  0  0
  156.5420  211.7170  154.6010 C   0  0  0  0  0  2  0  0  0  0  0  0
  157.9850  211.2580  154.7040 C   0  0  2  0  0  3  0  0  0  0  0  0
  157.1480  211.5230  155.9750 C   0  0  1  0  0  3  0  0  0  0  0  0
  158.8180  213.2810  156.6190 C   0  0  0  0  0  2  0  0  0  0  0  0
  159.3300  213.3010  155.2140 C   0  0  0  0  0  3  0  0  0  0  0  0
  158.6200  212.5890  151.8100 C   0  0  0  0  0  2  0  0  0  0  0  0
  159.0290  213.6520  150.8380 C   0  0  0  0  0  0  0  0  0  0  0  0
  160.1230  214.2560  150.9770 O   0  0  0  0  0  1  0  0  0  0  0  0
  158.1750  214.0020  149.8000 O   0  0  0  0  0  0  0  0  0  0  0  0
  1  7  2  0  0  0  0
  2  9  1  6  0  0  0
  3  2  1  0  0  0  0
  4  8  1  6  0  0  0
  4  1  1  0  0  0  0
  4 10  1  0  0  0  0
  5  4  1  0  0  0  0
  5  1  1  0  0  0  0
  6 23  1  6  0  0  0
  6  3  1  0  0  0  0
  8  6  1  0  0  0  0
 10  2  1  0  0  0  0
 11 16  1  0  0  0  0
 12  5  1  0  0  0  0
 13 11  1  0  0  0  0
 15 12  2  0  0  0  0
 16 15  2  0  0  0  0
 17 14  2  0  0  0  0
 17 16  1  0  0  0  0
 18 13  2  0  0  0  0
 19 20  1  6  0  0  0
 19 13  1  0  0  0  0
 19 17  1  0  0  0  0
 20 22  2  0  0  0  0
 21 20  1  0  0  0  0
 23 24  1  0  0  0  0
 24 32  1  6  0  0  0
 24 26  1  0  0  0  0
 25 30  1  0  0  0  0
 26 28  1  0  0  0  0
 26 31  2  0  0  0  0
 28 27  1  6  0  0  0
 28 29  1  0  0  0  0
 29 27  1  6  0  0  0
 29 25  1  0  0  0  0
 31 30  1  0  0  0  0
 33 34  1  0  0  0  0
 33 32  1  0  0  0  0
 35 33  2  0  0  0  0
M  END
>  <MODEL>
4

>  <REMARK>
 VINA RESULT:      -6.2      3.301      8.641
  Name = 
  7 active torsions:
  status: ('A' for Active; 'I' for Inactive)
    1  A    between atoms: C_4  and  C_27
    2  A    between atoms: C_6  and  C_12
    3  A    between atoms: C_8  and  C_33
    4  A    between atoms: C_10  and  N_20
    5  A    between atoms: C_12  and  C_17
    6  A    between atoms: C_12  and  C_27
    7  A    between atoms: C_17  and  C_21
                            x       y       z     vdW  Elec       q    Type
                         _______ _______ _______ _____ _____    ______ ____

>  <TORSDO>
F 7

$$$$
=
 OpenBabel11072413093D

 35 39  0  0  1  0  0  0  0  0999 V2000
  161.2360  208.0390  152.5860 C   0  0  0  0  0  0  0  0  0  0  0  0
  161.9370  210.6520  154.6300 C   0  0  1  0  0  3  0  0  0  0  0  0
  160.6630  211.4850  154.4470 C   0  0  0  0  0  2  0  0  0  0  0  0
  161.2880  209.4200  152.5380 C   0  0  1  0  0  0  0  0  0  0  0  0
  161.6850  208.8250  151.3460 N   0  0  0  0  0  0  0  0  0  0  0  0
  159.5400  210.6540  153.8160 C   0  0  2  0  0  3  0  0  0  0  0  0
  161.0030  206.9570  153.1800 O   0  0  0  0  0  0  0  0  0  0  0  0
  159.9580  210.1530  152.4380 C   0  0  0  0  0  2  0  0  0  0  0  0
  161.7110  209.6160  155.5360 O   0  0  0  0  0  1  0  0  0  0  0  0
  162.4310  210.0900  153.2940 C   0  0  0  0  0  2  0  0  0  0  0  0
  163.1440  206.3700  147.6570 N   0  0  0  0  0  2  0  0  0  0  0  0
  162.1510  208.8890  150.0030 C   0  0  0  0  0  3  0  0  0  0  0  0
  162.6740  205.2070  146.9830 C   0  0  0  0  0  0  0  0  0  0  0  0
  159.7110  206.1020  148.8110 C   0  0  0  0  0  2  0  0  0  0  0  0
  162.1190  207.8240  149.2540 C   0  0  0  0  0  0  0  0  0  0  0  0
  162.0800  206.7540  148.5080 C   0  0  0  0  0  0  0  0  0  0  0  0
  160.9400  205.8530  148.3710 C   0  0  0  0  0  0  0  0  0  0  0  0
  163.3130  204.6960  145.9850 N   0  0  0  0  0  2  0  0  0  0  0  0
  161.2670  204.8230  147.3360 C   0  0  2  0  0  3  0  0  0  0  0  0
  161.2130  203.4420  147.9140 C   0  0  0  0  0  0  0  0  0  0  0  0
  161.2130  203.2380  149.3250 N   0  0  0  0  0  1  0  0  0  0  0  0
  161.1620  202.4500  147.1420 O   0  0  0  0  0  0  0  0  0  0  0  0
  158.2730  211.4840  153.6860 C   0  0  0  0  0  2  0  0  0  0  0  0
  158.3930  212.7950  154.4610 C   0  0  2  0  0  3  0  0  0  0  0  0
  155.0820  213.2090  157.1930 C   0  0  0  0  0  2  0  0  0  0  0  0
  157.4090  212.8890  155.5950 C   0  0  0  0  0  0  0  0  0  0  0  0
  155.6040  211.1710  155.9000 C   0  0  0  0  0  2  0  0  0  0  0  0
  156.9750  211.6420  156.3500 C   0  0  2  0  0  3  0  0  0  0  0  0
  155.7390  211.8260  157.2580 C   0  0  1  0  0  3  0  0  0  0  0  0
  156.1350  214.3030  157.1700 C   0  0  0  0  0  2  0  0  0  0  0  0
  157.0180  214.1130  155.9780 C   0  0  0  0  0  3  0  0  0  0  0  0
  158.4450  214.0490  153.5780 C   0  0  0  0  0  2  0  0  0  0  0  0
  158.5180  213.7590  152.1110 C   0  0  0  0  0  0  0  0  0  0  0  0
  159.6300  213.5740  151.5520 O   0  0  0  0  0  1  0  0  0  0  0  0
  157.3540  213.7370  151.3530 O   0  0  0  0  0  0  0  0  0  0  0  0
  1  7  2  0  0  0  0
  2  9  1  1  0  0  0
  3  2  1  0  0  0  0
  4  8  1  6  0  0  0
  4  1  1  0  0  0  0
  4 10  1  0  0  0  0
  5  4  1  0  0  0  0
  5  1  1  0  0  0  0
  6 23  1  6  0  0  0
  6  3  1  0  0  0  0
  8  6  1  0  0  0  0
 10  2  1  0  0  0  0
 11 16  1  0  0  0  0
 12  5  1  0  0  0  0
 13 19  1  0  0  0  0
 13 11  1  0  0  0  0
 15 12  2  0  0  0  0
 16 15  2  0  0  0  0
 17 16  1  0  0  0  0
 17 14  2  0  0  0  0
 18 13  2  0  0  0  0
 19 20  1  1  0  0  0
 19 17  1  0  0  0  0
 20 21  1  0  0  0  0
 22 20  2  0  0  0  0
 23 24  1  0  0  0  0
 24 32  1  6  0  0  0
 24 26  1  0  0  0  0
 25 29  1  0  0  0  0
 26 31  2  0  0  0  0
 26 28  1  0  0  0  0
 28 27  1  6  0  0  0
 28 29  1  0  0  0  0
 29 27  1  6  0  0  0
 30 25  1  0  0  0  0
 31 30  1  0  0  0  0
 33 32  1  0  0  0  0
 34 33  1  0  0  0  0
 35 33  2  0  0  0  0
M  END
>  <MODEL>
5

>  <REMARK>
 VINA RESULT:      -6.0      3.354      9.531
  Name = 
  7 active torsions:
  status: ('A' for Active; 'I' for Inactive)
    1  A    between atoms: C_4  and  C_27
    2  A    between atoms: C_6  and  C_12
    3  A    between atoms: C_8  and  C_33
    4  A    between atoms: C_10  and  N_20
    5  A    between atoms: C_12  and  C_17
    6  A    between atoms: C_12  and  C_27
    7  A    between atoms: C_17  and  C_21
                            x       y       z     vdW  Elec       q    Type
                         _______ _______ _______ _____ _____    ______ ____

>  <TORSDO>
F 7

$$$$
=
 OpenBabel11072413093D

 35 39  0  0  1  0  0  0  0  0999 V2000
  162.5080  210.3210  152.0140 C   0  0  0  0  0  0  0  0  0  0  0  0
  160.8460  207.4660  152.7760 C   0  0  1  0  0  3  0  0  0  0  0  0
  160.5700  206.9310  151.3660 C   0  0  0  0  0  2  0  0  0  0  0  0
  161.3140  209.6930  151.7100 C   0  0  1  0  0  0  0  0  0  0  0  0
  161.1950  211.0770  151.7650 N   0  0  0  0  0  0  0  0  0  0  0  0
  161.4530  207.6270  150.3230 C   0  0  2  0  0  3  0  0  0  0  0  0
  163.7350  210.3020  152.2870 O   0  0  0  0  0  0  0  0  0  0  0  0
  161.1760  209.1260  150.3050 C   0  0  0  0  0  2  0  0  0  0  0  0
  162.1520  207.1630  153.1610 O   0  0  0  0  0  1  0  0  0  0  0  0
  160.6070  208.9750  152.8560 C   0  0  0  0  0  2  0  0  0  0  0  0
  157.1750  213.1930  152.8260 N   0  0  0  0  0  2  0  0  0  0  0  0
  160.4400  212.2780  151.6670 C   0  0  0  0  0  3  0  0  0  0  0  0
  156.3860  213.3020  154.0060 C   0  0  0  0  0  0  0  0  0  0  0  0
  159.5030  212.2360  155.4440 C   0  0  0  0  0  2  0  0  0  0  0  0
  159.4250  212.4740  152.4600 C   0  0  0  0  0  0  0  0  0  0  0  0
  158.4140  212.6640  153.2630 C   0  0  0  0  0  0  0  0  0  0  0  0
  158.4190  212.4490  154.7060 C   0  0  0  0  0  0  0  0  0  0  0  0
  155.2590  213.9290  154.0130 N   0  0  0  0  0  2  0  0  0  0  0  0
  157.1020  212.8950  155.2600 C   0  0  2  0  0  3  0  0  0  0  0  0
  156.3950  211.7650  155.9440 C   0  0  0  0  0  0  0  0  0  0  0  0
  155.8710  211.9200  157.2610 N   0  0  0  0  0  1  0  0  0  0  0  0
  156.2590  210.6690  155.3450 O   0  0  0  0  0  0  0  0  0  0  0  0
  161.1980  207.0510  148.9410 C   0  0  0  0  0  2  0  0  0  0  0  0
  161.4210  205.5400  148.9250 C   0  0  2  0  0  3  0  0  0  0  0  0
  160.9400  203.8440  144.9890 C   0  0  0  0  0  2  0  0  0  0  0  0
  161.5030  204.9810  147.5310 C   0  0  0  0  0  0  0  0  0  0  0  0
  160.5080  206.2040  145.5760 C   0  0  0  0  0  2  0  0  0  0  0  0
  161.7790  205.8940  146.3450 C   0  0  2  0  0  3  0  0  0  0  0  0
  161.5200  205.2610  144.9610 C   0  0  1  0  0  3  0  0  0  0  0  0
  161.6240  203.0050  146.0540 C   0  0  0  0  0  2  0  0  0  0  0  0
  161.4330  203.6500  147.3890 C   0  0  0  0  0  3  0  0  0  0  0  0
  160.4860  204.7540  149.8550 C   0  0  0  0  0  2  0  0  0  0  0  0
  161.1780  203.7110  150.6760 C   0  0  0  0  0  0  0  0  0  0  0  0
  160.8890  202.4940  150.5370 O   0  0  0  0  0  0  0  0  0  0  0  0
  162.1160  204.0920  151.6270 O   0  0  0  0  0  1  0  0  0  0  0  0
  1  7  2  0  0  0  0
  2 10  1  0  0  0  0
  2  9  1  6  0  0  0
  3  2  1  0  0  0  0
  4  8  1  6  0  0  0
  4  5  1  0  0  0  0
  4  1  1  0  0  0  0
  4 10  1  0  0  0  0
  5  1  1  0  0  0  0
  6 23  1  6  0  0  0
  6  3  1  0  0  0  0
  8  6  1  0  0  0  0
 11 16  1  0  0  0  0
 11 13  1  0  0  0  0
 12  5  1  0  0  0  0
 12 15  2  0  0  0  0
 13 18  2  0  0  0  0
 13 19  1  0  0  0  0
 15 16  2  0  0  0  0
 16 17  1  0  0  0  0
 17 19  1  0  0  0  0
 17 14  2  0  0  0  0
 19 20  1  6  0  0  0
 20 21  1  0  0  0  0
 22 20  2  0  0  0  0
 24 23  1  6  0  0  0
 24 32  1  0  0  0  0
 25 30  1  0  0  0  0
 26 24  1  0  0  0  0
 28 27  1  1  0  0  0
 28 26  1  0  0  0  0
 29 25  1  1  0  0  0
 29 27  1  0  0  0  0
 29 28  1  0  0  0  0
 30 31  1  0  0  0  0
 31 26  2  0  0  0  0
 32 33  1  0  0  0  0
 33 35  1  0  0  0  0
 34 33  2  0  0  0  0
M  END
>  <MODEL>
6

>  <REMARK>
 VINA RESULT:      -5.8      2.205      3.069
  Name = 
  7 active torsions:
  status: ('A' for Active; 'I' for Inactive)
    1  A    between atoms: C_4  and  C_27
    2  A    between atoms: C_6  and  C_12
    3  A    between atoms: C_8  and  C_33
    4  A    between atoms: C_10  and  N_20
    5  A    between atoms: C_12  and  C_17
    6  A    between atoms: C_12  and  C_27
    7  A    between atoms: C_17  and  C_21
                            x       y       z     vdW  Elec       q    Type
                         _______ _______ _______ _____ _____    ______ ____

>  <TORSDO>
F 7

$$$$
=
 OpenBabel11072413093D

 35 39  0  0  1  0  0  0  0  0999 V2000
  162.6170  210.3040  151.9690 C   0  0  0  0  0  0  0  0  0  0  0  0
  160.8040  207.5270  152.6790 C   0  0  1  0  0  3  0  0  0  0  0  0
  160.8720  206.8100  151.3260 C   0  0  0  0  0  2  0  0  0  0  0  0
  161.5270  209.6110  151.4750 C   0  0  1  0  0  0  0  0  0  0  0  0
  161.4060  210.9880  151.3190 N   0  0  0  0  0  0  0  0  0  0  0  0
  161.9830  207.3890  150.4420 C   0  0  2  0  0  3  0  0  0  0  0  0
  163.7420  210.3510  152.5260 O   0  0  0  0  0  0  0  0  0  0  0  0
  161.7260  208.8660  150.1630 C   0  0  0  0  0  2  0  0  0  0  0  0
  161.9790  207.3100  153.4000 O   0  0  0  0  0  1  0  0  0  0  0  0
  160.5620  209.0280  152.5020 C   0  0  0  0  0  2  0  0  0  0  0  0
  157.4220  213.3990  151.6010 N   0  0  0  0  0  2  0  0  0  0  0  0
  160.7030  212.1460  150.8870 C   0  0  0  0  0  3  0  0  0  0  0  0
  156.5810  213.8140  152.6710 C   0  0  0  0  0  0  0  0  0  0  0  0
  159.5810  213.0560  154.5010 C   0  0  0  0  0  2  0  0  0  0  0  0
  159.6590  212.5560  151.5500 C   0  0  0  0  0  0  0  0  0  0  0  0
  158.6170  212.9630  152.2230 C   0  0  0  0  0  0  0  0  0  0  0  0
  158.5430  213.1090  153.6730 C   0  0  0  0  0  0  0  0  0  0  0  0
  155.4790  214.4520  152.4610 N   0  0  0  0  0  2  0  0  0  0  0  0
  157.2190  213.7100  154.0260 C   0  0  2  0  0  3  0  0  0  0  0  0
  156.4360  212.8000  154.9230 C   0  0  0  0  0  0  0  0  0  0  0  0
  156.2910  211.4160  154.6160 N   0  0  0  0  0  1  0  0  0  0  0  0
  155.9040  213.2660  155.9630 O   0  0  0  0  0  0  0  0  0  0  0  0
  162.0630  206.6350  149.1250 C   0  0  0  0  0  2  0  0  0  0  0  0
  160.8120  205.7870  148.9010 C   0  0  2  0  0  3  0  0  0  0  0  0
  160.7790  201.5290  149.5850 C   0  0  0  0  0  2  0  0  0  0  0  0
  161.0530  204.3230  149.1480 C   0  0  0  0  0  0  0  0  0  0  0  0
  160.5950  202.6090  147.3720 C   0  0  0  0  0  2  0  0  0  0  0  0
  161.6570  203.4430  148.0640 C   0  0  2  0  0  3  0  0  0  0  0  0
  161.5530  201.9240  148.3240 C   0  0  1  0  0  3  0  0  0  0  0  0
  161.1420  202.4400  150.7450 C   0  0  0  0  0  2  0  0  0  0  0  0
  160.8180  203.8540  150.3820 C   0  0  0  0  0  3  0  0  0  0  0  0
  160.0760  206.0820  147.5870 C   0  0  0  0  0  2  0  0  0  0  0  0
  160.9750  206.1900  146.3950 C   0  0  0  0  0  0  0  0  0  0  0  0
  162.2240  206.2350  146.5400 O   0  0  0  0  0  1  0  0  0  0  0  0
  160.4260  206.2840  145.1230 O   0  0  0  0  0  0  0  0  0  0  0  0
  1  7  2  0  0  0  0
  2  9  1  6  0  0  0
  3  2  1  0  0  0  0
  4  8  1  6  0  0  0
  4  1  1  0  0  0  0
  4 10  1  0  0  0  0
  5  4  1  0  0  0  0
  5  1  1  0  0  0  0
  6 23  1  6  0  0  0
  6  3  1  0  0  0  0
  8  6  1  0  0  0  0
 10  2  1  0  0  0  0
 11 16  1  0  0  0  0
 11 13  1  0  0  0  0
 12  5  1  0  0  0  0
 12 15  2  0  0  0  0
 13 19  1  0  0  0  0
 15 16  2  0  0  0  0
 16 17  1  0  0  0  0
 17 19  1  0  0  0  0
 17 14  2  0  0  0  0
 18 13  2  0  0  0  0
 19 20  1  1  0  0  0
 20 22  2  0  0  0  0
 21 20  1  0  0  0  0
 24 32  1  6  0  0  0
 24 23  1  0  0  0  0
 24 26  1  0  0  0  0
 25 30  1  0  0  0  0
 26 31  2  0  0  0  0
 28 27  1  6  0  0  0
 28 29  1  0  0  0  0
 28 26  1  0  0  0  0
 29 27  1  6  0  0  0
 29 25  1  0  0  0  0
 31 30  1  0  0  0  0
 33 34  1  0  0  0  0
 33 32  1  0  0  0  0
 35 33  2  0  0  0  0
M  END
>  <MODEL>
7

>  <REMARK>
 VINA RESULT:      -5.7      1.592      2.229
  Name = 
  7 active torsions:
  status: ('A' for Active; 'I' for Inactive)
    1  A    between atoms: C_4  and  C_27
    2  A    between atoms: C_6  and  C_12
    3  A    between atoms: C_8  and  C_33
    4  A    between atoms: C_10  and  N_20
    5  A    between atoms: C_12  and  C_17
    6  A    between atoms: C_12  and  C_27
    7  A    between atoms: C_17  and  C_21
                            x       y       z     vdW  Elec       q    Type
                         _______ _______ _______ _____ _____    ______ ____

>  <TORSDO>
F 7

$$$$
