=
 OpenBabel11072412323D

 51 56  0  0  1  0  0  0  0  0999 V2000
  163.0190  210.5220  150.3230 O   0  0  0  0  0  0  0  0  0  0  0  0
  161.9430  211.1310  150.5700 C   0  0  0  0  0  0  0  0  0  0  0  0
  161.0150  210.6040  151.5180 N   0  0  0  0  0  2  0  0  0  0  0  0
  160.6670  213.2440  147.9740 C   0  0  1  0  0  0  0  0  0  0  0  0
  159.8450  213.6330  149.1130 N   0  0  0  0  0  2  0  0  0  0  0  0
  159.6840  212.5300  146.6270 S   0  0  0  0  0  0  0  0  0  0  0  0
  161.1670  214.4370  147.1960 C   0  0  0  0  0  2  0  0  0  0  0  0
  161.6560  212.4500  149.9340 C   0  0  2  0  0  3  0  0  0  0  0  0
  160.2980  212.8990  150.2280 N   0  0  0  0  0  2  0  0  0  0  0  0
  160.4460  214.0350  145.9240 C   0  0  1  0  0  3  0  0  0  0  0  0
  161.7690  212.3420  148.4420 C   0  0  0  0  0  2  0  0  0  0  0  0
  161.4660  213.6440  144.8660 C   0  0  0  0  0  2  0  0  0  0  0  0
  160.9410  213.9260  143.4970 C   0  0  0  0  0  0  0  0  0  0  0  0
  159.8410  214.4430  143.3600 O   0  0  0  0  0  0  0  0  0  0  0  0
  162.8680  212.8260  142.7150 O   0  0  0  0  0  1  0  0  0  0  0  0
  161.7800  213.5940  142.2980 C   0  0  1  0  0  3  0  0  0  0  0  0
  162.5910  209.9820  137.0940 O   0  0  0  0  0  0  0  0  0  0  0  0
  160.7830  210.3300  140.8780 N   0  0  0  0  0  0  0  0  0  0  0  0
  161.4400  209.1430  138.9610 N   0  0  0  0  0  2  0  0  0  0  0  0
  161.8360  213.9890  139.2320 O   0  0  0  0  0  1  0  0  0  0  0  0
  161.3160  211.6950  138.9530 C   0  0  0  0  0  2  0  0  0  0  0  0
  159.8300  211.3920  142.7050 O   0  0  0  0  0  0  0  0  0  0  0  0
  162.0610  207.6700  137.0110 C   0  0  0  0  0  1  0  0  0  0  0  0
  161.2190  210.3750  139.6590 C   0  0  0  0  0  0  0  0  0  0  0  0
  161.8230  212.7670  139.9070 C   0  0  2  0  0  3  0  0  0  0  0  0
  160.5080  211.5060  141.6500 C   0  0  0  0  0  0  0  0  0  0  0  0
  160.9740  212.8740  141.1920 C   0  0  1  0  0  3  0  0  0  0  0  0
  162.0430  209.0050  137.6670 C   0  0  0  0  0  0  0  0  0  0  0  0
  161.2850  209.4110  152.3190 C   0  0  2  0  0  3  0  0  0  0  0  0
  161.4260  208.2410  150.1040 C   0  0  0  0  0  2  0  0  0  0  0  0
  161.9500  207.0500  151.8130 C   0  0  2  0  0  3  0  0  0  0  0  0
  160.9260  208.1470  151.5370 C   0  0  1  0  0  3  0  0  0  0  0  0
  162.4430  207.1520  150.3790 C   0  0  0  0  0  2  0  0  0  0  0  0
  161.4240  205.1570  153.2790 C   0  0  0  0  0  2  0  0  0  0  0  0
  161.3220  205.6990  152.0660 C   0  0  0  0  0  0  0  0  0  0  0  0
  160.5350  204.9740  150.9950 C   0  0  0  0  0  2  0  0  0  0  0  0
  160.6490  202.3790  148.6440 C   0  0  0  0  0  2  0  0  0  0  0  0
  161.0140  201.6430  150.9650 C   0  0  0  0  0  1  0  0  0  0  0  0
  161.3140  203.9560  150.2740 N   0  0  0  0  0  0  0  0  0  0  0  0
  160.4970  202.7620  150.0800 C   0  0  1  0  0  3  0  0  0  0  0  0
  161.6760  204.4580  149.0530 O   0  0  0  0  0  0  0  0  0  0  0  0
  161.6610  203.3770  148.1590 C   0  0  2  0  0  3  0  0  0  0  0  0
  161.3420  203.8570  146.7450 C   0  0  0  0  0  2  0  0  0  0  0  0
  162.3700  204.8590  146.2440 C   0  0  0  0  0  2  0  0  0  0  0  0
  161.8560  205.5440  144.9960 C   0  0  0  0  0  3  0  0  0  0  0  0
  160.4600  205.0330  144.6990 C   0  0  0  0  0  2  0  0  0  0  0  0
  160.6450  206.3840  145.3570 C   0  0  0  0  0  2  0  0  0  0  0  0
  160.5280  209.4630  153.6540 C   0  0  0  0  0  2  0  0  0  0  0  0
  161.0110  208.7850  156.0490 N   0  0  0  0  0  1  0  0  0  0  0  0
  161.4350  209.4110  154.8440 C   0  0  0  0  0  0  0  0  0  0  0  0
  162.5660  209.9600  154.7900 O   0  0  0  0  0  0  0  0  0  0  0  0
  1  2  2  0  0  0  0
  2  3  1  0  0  0  0
  3 29  1  0  0  0  0
  4  7  1  6  0  0  0
  4 11  1  0  0  0  0
  4  5  1  0  0  0  0
  5  9  1  0  0  0  0
  6  4  1  0  0  0  0
  8  9  1  0  0  0  0
  8  2  1  1  0  0  0
 10 12  1  6  0  0  0
 10  6  1  0  0  0  0
 10  7  1  0  0  0  0
 11  8  1  0  0  0  0
 13 12  1  0  0  0  0
 14 13  2  0  0  0  0
 16 15  1  1  0  0  0
 16 13  1  0  0  0  0
 17 28  2  0  0  0  0
 18 26  1  0  0  0  0
 19 24  1  0  0  0  0
 21 24  1  0  0  0  0
 21 25  1  0  0  0  0
 23 28  1  0  0  0  0
 24 18  2  0  0  0  0
 25 20  1  6  0  0  0
 25 27  1  0  0  0  0
 26 22  2  0  0  0  0
 27 26  1  0  0  0  0
 27 16  1  1  0  0  0
 28 19  1  0  0  0  0
 29 48  1  1  0  0  0
 30 33  1  0  0  0  0
 30 32  1  0  0  0  0
 31 35  1  6  0  0  0
 32 31  1  0  0  0  0
 32 29  1  1  0  0  0
 33 31  1  0  0  0  0
 35 34  2  0  0  0  0
 36 35  1  0  0  0  0
 37 40  1  0  0  0  0
 39 36  1  0  0  0  0
 40 39  1  0  0  0  0
 40 38  1  1  0  0  0
 41 39  1  0  0  0  0
 42 43  1  6  0  0  0
 42 37  1  0  0  0  0
 42 41  1  0  0  0  0
 44 43  1  0  0  0  0
 45 47  1  0  0  0  0
 45 44  1  0  0  0  0
 46 45  1  0  0  0  0
 46 47  1  0  0  0  0
 48 50  1  0  0  0  0
 50 49  1  0  0  0  0
 51 50  2  0  0  0  0
M  END
>  <MODEL>
1

>  <REMARK>
 VINA RESULT:      -6.9      0.000      0.000
  Name = 
  15 active torsions:
  status: ('A' for Active; 'I' for Inactive)
    1  A    between atoms: C_4  and  C_37
    2  A    between atoms: C_4  and  C_42
    3  A    between atoms: C_4  and  N_44
    4  A    between atoms: C_7  and  N_20
    5  A    between atoms: C_7  and  C_26
    6  A    between atoms: C_12  and  C_25
    7  A    between atoms: C_12  and  C_46
    8  A    between atoms: C_18  and  C_38
    9  A    between atoms: C_22  and  C_46
   10  A    between atoms: C_23  and  C_26
   11  A    between atoms: C_25  and  C_48
   12  A    between atoms: C_27  and  C_42
   13  A    between atoms: C_31  and  C_51
   14  A    between atoms: C_41  and  C_47
   15  A    between atoms: C_47  and  C_51
                            x       y       z     vdW  Elec       q    Type
                         _______ _______ _______ _____ _____    ______ ____

>  <TORSDO>
F 15

$$$$
=
 OpenBabel11072412323D

 51 56  0  0  1  0  0  0  0  0999 V2000
  163.3140  211.0170  149.6960 O   0  0  0  0  0  0  0  0  0  0  0  0
  162.1410  211.4590  149.8290 C   0  0  0  0  0  0  0  0  0  0  0  0
  161.2530  210.8790  150.7850 N   0  0  0  0  0  2  0  0  0  0  0  0
  160.5260  213.0630  147.0630 C   0  0  1  0  0  0  0  0  0  0  0  0
  159.7210  213.5200  148.1890 N   0  0  0  0  0  2  0  0  0  0  0  0
  159.5630  212.0790  145.8820 S   0  0  0  0  0  0  0  0  0  0  0  0
  160.8580  214.1840  146.1070 C   0  0  0  0  0  2  0  0  0  0  0  0
  161.6850  212.6450  149.0450 C   0  0  2  0  0  3  0  0  0  0  0  0
  160.3020  212.9920  149.3610 N   0  0  0  0  0  2  0  0  0  0  0  0
  160.1260  213.5430  144.9440 C   0  0  1  0  0  3  0  0  0  0  0  0
  161.7390  212.3470  147.5770 C   0  0  0  0  0  2  0  0  0  0  0  0
  161.1310  213.1160  143.8860 C   0  0  0  0  0  2  0  0  0  0  0  0
  160.5390  213.2280  142.5200 C   0  0  0  0  0  0  0  0  0  0  0  0
  159.3240  213.2260  142.3800 O   0  0  0  0  0  0  0  0  0  0  0  0
  162.7350  213.0010  141.7070 O   0  0  0  0  0  1  0  0  0  0  0  0
  161.4420  213.3660  141.3300 C   0  0  1  0  0  3  0  0  0  0  0  0
  156.7560  209.4050  139.5580 O   0  0  0  0  0  0  0  0  0  0  0  0
  158.8230  212.9810  138.7500 N   0  0  0  0  0  0  0  0  0  0  0  0
  157.0460  211.4680  138.4770 N   0  0  0  0  0  2  0  0  0  0  0  0
  161.0130  210.3170  141.0540 O   0  0  0  0  0  1  0  0  0  0  0  0
  159.2590  210.7280  139.5170 C   0  0  0  0  0  2  0  0  0  0  0  0
  160.6130  214.4520  138.6930 O   0  0  0  0  0  0  0  0  0  0  0  0
  155.0380  210.0100  138.0360 C   0  0  0  0  0  1  0  0  0  0  0  0
  158.3590  211.7880  138.9530 C   0  0  0  0  0  0  0  0  0  0  0  0
  160.1500  211.3160  140.6030 C   0  0  2  0  0  3  0  0  0  0  0  0
  160.1320  213.3880  139.1660 C   0  0  0  0  0  0  0  0  0  0  0  0
  160.9550  212.5400  140.1170 C   0  0  1  0  0  3  0  0  0  0  0  0
  156.3310  210.2520  138.7310 C   0  0  0  0  0  0  0  0  0  0  0  0
  161.6620  209.8310  151.7180 C   0  0  2  0  0  3  0  0  0  0  0  0
  162.1680  207.3760  151.8310 C   0  0  0  0  0  2  0  0  0  0  0  0
  161.1240  208.0240  150.0690 C   0  0  2  0  0  3  0  0  0  0  0  0
  162.2090  208.6210  150.9600 C   0  0  1  0  0  3  0  0  0  0  0  0
  161.0890  206.7830  150.9470 C   0  0  0  0  0  2  0  0  0  0  0  0
  161.4820  208.5830  147.7100 C   0  0  0  0  0  2  0  0  0  0  0  0
  161.6130  207.6810  148.6820 C   0  0  0  0  0  0  0  0  0  0  0  0
  162.2980  206.3640  148.3810 C   0  0  0  0  0  2  0  0  0  0  0  0
  162.2290  203.5330  146.3190 C   0  0  0  0  0  2  0  0  0  0  0  0
  162.3770  205.6620  145.0910 C   0  0  0  0  0  1  0  0  0  0  0  0
  161.5900  205.5410  147.3900 N   0  0  0  0  0  0  0  0  0  0  0  0
  162.5500  204.9880  146.4400 C   0  0  1  0  0  3  0  0  0  0  0  0
  160.9550  204.5170  148.0380 O   0  0  0  0  0  0  0  0  0  0  0  0
  161.0000  203.4120  147.1750 C   0  0  2  0  0  3  0  0  0  0  0  0
  161.0000  202.1090  147.9720 C   0  0  0  0  0  2  0  0  0  0  0  0
  160.4010  202.2970  149.3570 C   0  0  0  0  0  2  0  0  0  0  0  0
  161.4970  202.6090  150.3530 C   0  0  0  0  0  3  0  0  0  0  0  0
  160.8820  203.2940  151.5570 C   0  0  0  0  0  2  0  0  0  0  0  0
  161.2450  201.8250  151.6270 C   0  0  0  0  0  2  0  0  0  0  0  0
  160.4970  209.4240  152.6320 C   0  0  0  0  0  2  0  0  0  0  0  0
  160.7950  207.9520  154.6750 N   0  0  0  0  0  1  0  0  0  0  0  0
  160.9110  209.2280  154.0580 C   0  0  0  0  0  0  0  0  0  0  0  0
  161.3290  210.2090  154.7250 O   0  0  0  0  0  0  0  0  0  0  0  0
  1  2  2  0  0  0  0
  2  3  1  0  0  0  0
  3 29  1  0  0  0  0
  4  7  1  6  0  0  0
  4 11  1  0  0  0  0
  4  5  1  0  0  0  0
  5  9  1  0  0  0  0
  6  4  1  0  0  0  0
  8  9  1  0  0  0  0
  8  2  1  1  0  0  0
 10 12  1  6  0  0  0
 10  6  1  0  0  0  0
 10  7  1  0  0  0  0
 11  8  1  0  0  0  0
 13 12  1  0  0  0  0
 14 13  2  0  0  0  0
 16 15  1  1  0  0  0
 16 13  1  0  0  0  0
 18 24  2  0  0  0  0
 18 26  1  0  0  0  0
 19 28  1  0  0  0  0
 19 24  1  0  0  0  0
 21 25  1  0  0  0  0
 22 26  2  0  0  0  0
 23 28  1  0  0  0  0
 24 21  1  0  0  0  0
 25 20  1  6  0  0  0
 26 27  1  0  0  0  0
 27 25  1  0  0  0  0
 27 16  1  1  0  0  0
 28 17  2  0  0  0  0
 29 48  1  6  0  0  0
 31 35  1  6  0  0  0
 31 33  1  0  0  0  0
 31 32  1  0  0  0  0
 32 29  1  1  0  0  0
 32 30  1  0  0  0  0
 33 30  1  0  0  0  0
 34 35  2  0  0  0  0
 36 35  1  0  0  0  0
 37 40  1  0  0  0  0
 37 42  1  0  0  0  0
 39 41  1  0  0  0  0
 39 36  1  0  0  0  0
 40 38  1  6  0  0  0
 40 39  1  0  0  0  0
 42 43  1  1  0  0  0
 42 41  1  0  0  0  0
 43 44  1  0  0  0  0
 44 45  1  0  0  0  0
 45 46  1  0  0  0  0
 45 47  1  0  0  0  0
 46 47  1  0  0  0  0
 48 50  1  0  0  0  0
 50 49  1  0  0  0  0
 50 51  2  0  0  0  0
M  END
>  <MODEL>
2

>  <REMARK>
 VINA RESULT:      -5.9      2.021      3.506
  Name = 
  15 active torsions:
  status: ('A' for Active; 'I' for Inactive)
    1  A    between atoms: C_4  and  C_37
    2  A    between atoms: C_4  and  C_42
    3  A    between atoms: C_4  and  N_44
    4  A    between atoms: C_7  and  N_20
    5  A    between atoms: C_7  and  C_26
    6  A    between atoms: C_12  and  C_25
    7  A    between atoms: C_12  and  C_46
    8  A    between atoms: C_18  and  C_38
    9  A    between atoms: C_22  and  C_46
   10  A    between atoms: C_23  and  C_26
   11  A    between atoms: C_25  and  C_48
   12  A    between atoms: C_27  and  C_42
   13  A    between atoms: C_31  and  C_51
   14  A    between atoms: C_41  and  C_47
   15  A    between atoms: C_47  and  C_51
                            x       y       z     vdW  Elec       q    Type
                         _______ _______ _______ _____ _____    ______ ____

>  <TORSDO>
F 15

$$$$
=
 OpenBabel11072412323D

 51 56  0  0  1  0  0  0  0  0999 V2000
  161.0830  211.3550  153.6920 O   0  0  0  0  0  0  0  0  0  0  0  0
  160.0590  212.0070  153.3510 C   0  0  0  0  0  0  0  0  0  0  0  0
  158.8070  211.7770  153.9960 N   0  0  0  0  0  2  0  0  0  0  0  0
  159.3480  213.4890  150.1680 C   0  0  1  0  0  0  0  0  0  0  0  0
  158.7500  214.4480  151.0890 N   0  0  0  0  0  2  0  0  0  0  0  0
  158.1190  212.7310  149.0700 S   0  0  0  0  0  0  0  0  0  0  0  0
  160.1450  214.1640  149.0780 C   0  0  0  0  0  2  0  0  0  0  0  0
  160.1550  213.0820  152.3200 C   0  0  2  0  0  3  0  0  0  0  0  0
  159.0190  213.9960  152.3980 N   0  0  0  0  0  2  0  0  0  0  0  0
  159.2650  213.6280  147.9660 C   0  0  1  0  0  3  0  0  0  0  0  0
  160.1460  212.4850  150.9450 C   0  0  0  0  0  2  0  0  0  0  0  0
  160.0550  212.6330  147.1310 C   0  0  0  0  0  2  0  0  0  0  0  0
  160.4320  213.2300  145.8150 C   0  0  0  0  0  0  0  0  0  0  0  0
  161.0330  214.2940  145.7780 O   0  0  0  0  0  0  0  0  0  0  0  0
  158.7030  212.3570  144.4790 O   0  0  0  0  0  1  0  0  0  0  0  0
  160.0900  212.5050  144.5470 C   0  0  1  0  0  3  0  0  0  0  0  0
  163.4420  211.3450  139.2360 O   0  0  0  0  0  0  0  0  0  0  0  0
  159.8600  212.8290  140.8720 N   0  0  0  0  0  0  0  0  0  0  0  0
  161.2190  212.0890  139.1050 N   0  0  0  0  0  2  0  0  0  0  0  0
  163.0070  212.8250  143.5740 O   0  0  0  0  0  1  0  0  0  0  0  0
  162.2350  212.8120  141.3350 C   0  0  0  0  0  2  0  0  0  0  0  0
  158.4770  213.8330  142.4380 O   0  0  0  0  0  0  0  0  0  0  0  0
  162.4850  211.3200  137.0650 C   0  0  0  0  0  1  0  0  0  0  0  0
  161.0510  212.5290  140.4580 C   0  0  0  0  0  0  0  0  0  0  0  0
  161.9060  212.4870  142.7850 C   0  0  2  0  0  3  0  0  0  0  0  0
  159.5930  213.3010  142.1980 C   0  0  0  0  0  0  0  0  0  0  0  0
  160.6420  213.2160  143.2900 C   0  0  1  0  0  3  0  0  0  0  0  0
  162.4330  211.5920  138.5260 C   0  0  0  0  0  0  0  0  0  0  0  0
  158.6500  210.8710  155.1330 C   0  0  2  0  0  3  0  0  0  0  0  0
  160.2420  209.8770  156.7990 C   0  0  0  0  0  2  0  0  0  0  0  0
  159.5640  208.5420  155.2590 C   0  0  2  0  0  3  0  0  0  0  0  0
  159.9110  210.0260  155.3230 C   0  0  1  0  0  3  0  0  0  0  0  0
  159.8950  208.4030  156.7360 C   0  0  0  0  0  2  0  0  0  0  0  0
  160.5490  206.4130  154.5480 C   0  0  0  0  0  2  0  0  0  0  0  0
  160.5290  207.7400  154.4180 C   0  0  0  0  0  0  0  0  0  0  0  0
  161.4310  208.3970  153.3940 C   0  0  0  0  0  2  0  0  0  0  0  0
  162.3050  207.1450  150.2410 C   0  0  0  0  0  2  0  0  0  0  0  0
  161.9540  209.5810  150.2880 C   0  0  0  0  0  1  0  0  0  0  0  0
  161.0560  208.1070  152.0030 N   0  0  0  0  0  0  0  0  0  0  0  0
  162.2020  208.3420  151.1290 C   0  0  1  0  0  3  0  0  0  0  0  0
  160.6800  206.7940  151.9090 O   0  0  0  0  0  0  0  0  0  0  0  0
  161.0950  206.3510  150.6440 C   0  0  2  0  0  3  0  0  0  0  0  0
  161.3930  204.8530  150.6730 C   0  0  0  0  0  2  0  0  0  0  0  0
  160.8450  204.1460  149.4440 C   0  0  0  0  0  2  0  0  0  0  0  0
  161.2940  202.7010  149.4380 C   0  0  0  0  0  3  0  0  0  0  0  0
  160.0700  201.8100  149.3690 C   0  0  0  0  0  2  0  0  0  0  0  0
  160.8920  202.0630  148.1220 C   0  0  0  0  0  2  0  0  0  0  0  0
  157.4140  209.9780  154.9580 C   0  0  0  0  0  2  0  0  0  0  0  0
  156.2600  211.7030  156.4150 N   0  0  0  0  0  1  0  0  0  0  0  0
  156.1790  210.5600  155.5720 C   0  0  0  0  0  0  0  0  0  0  0  0
  155.0650  210.0100  155.3720 O   0  0  0  0  0  0  0  0  0  0  0  0
  2  1  2  0  0  0  0
  2  3  1  0  0  0  0
  3 29  1  0  0  0  0
  4  7  1  6  0  0  0
  4 11  1  0  0  0  0
  4  5  1  0  0  0  0
  5  9  1  0  0  0  0
  6  4  1  0  0  0  0
  8  9  1  0  0  0  0
  8  2  1  1  0  0  0
 10 12  1  6  0  0  0
 10  6  1  0  0  0  0
 10  7  1  0  0  0  0
 11  8  1  0  0  0  0
 13 12  1  0  0  0  0
 14 13  2  0  0  0  0
 16 15  1  6  0  0  0
 16 13  1  0  0  0  0
 18 26  1  0  0  0  0
 19 24  1  0  0  0  0
 21 25  1  0  0  0  0
 23 28  1  0  0  0  0
 24 18  2  0  0  0  0
 24 21  1  0  0  0  0
 25 27  1  0  0  0  0
 25 20  1  1  0  0  0
 26 22  2  0  0  0  0
 26 27  1  0  0  0  0
 27 16  1  1  0  0  0
 28 19  1  0  0  0  0
 28 17  2  0  0  0  0
 29 48  1  6  0  0  0
 31 35  1  6  0  0  0
 31 32  1  0  0  0  0
 31 33  1  0  0  0  0
 32 29  1  1  0  0  0
 32 30  1  0  0  0  0
 33 30  1  0  0  0  0
 35 34  2  0  0  0  0
 36 35  1  0  0  0  0
 37 42  1  0  0  0  0
 37 40  1  0  0  0  0
 39 36  1  0  0  0  0
 40 38  1  6  0  0  0
 40 39  1  0  0  0  0
 41 39  1  0  0  0  0
 42 43  1  1  0  0  0
 42 41  1  0  0  0  0
 44 43  1  0  0  0  0
 45 44  1  0  0  0  0
 46 45  1  0  0  0  0
 47 46  1  0  0  0  0
 47 45  1  0  0  0  0
 48 50  1  0  0  0  0
 50 49  1  0  0  0  0
 51 50  2  0  0  0  0
M  END
>  <MODEL>
3

>  <REMARK>
 VINA RESULT:      -5.8      2.500      4.107
  Name = 
  15 active torsions:
  status: ('A' for Active; 'I' for Inactive)
    1  A    between atoms: C_4  and  C_37
    2  A    between atoms: C_4  and  C_42
    3  A    between atoms: C_4  and  N_44
    4  A    between atoms: C_7  and  N_20
    5  A    between atoms: C_7  and  C_26
    6  A    between atoms: C_12  and  C_25
    7  A    between atoms: C_12  and  C_46
    8  A    between atoms: C_18  and  C_38
    9  A    between atoms: C_22  and  C_46
   10  A    between atoms: C_23  and  C_26
   11  A    between atoms: C_25  and  C_48
   12  A    between atoms: C_27  and  C_42
   13  A    between atoms: C_31  and  C_51
   14  A    between atoms: C_41  and  C_47
   15  A    between atoms: C_47  and  C_51
                            x       y       z     vdW  Elec       q    Type
                         _______ _______ _______ _____ _____    ______ ____

>  <TORSDO>
F 15

$$$$
=
 OpenBabel11072412323D

 51 56  0  0  1  0  0  0  0  0999 V2000
  163.2170  211.4690  149.5440 O   0  0  0  0  0  0  0  0  0  0  0  0
  161.9910  211.7230  149.6980 C   0  0  0  0  0  0  0  0  0  0  0  0
  161.2130  210.9850  150.6410 N   0  0  0  0  0  2  0  0  0  0  0  0
  160.1410  213.1460  146.9810 C   0  0  1  0  0  0  0  0  0  0  0  0
  159.2720  213.4250  148.1190 N   0  0  0  0  0  2  0  0  0  0  0  0
  159.3490  212.0640  145.7590 S   0  0  0  0  0  0  0  0  0  0  0  0
  160.2890  214.3400  146.0690 C   0  0  0  0  0  2  0  0  0  0  0  0
  161.3500  212.8470  148.9550 C   0  0  2  0  0  3  0  0  0  0  0  0
  159.9300  212.9550  149.2740 N   0  0  0  0  0  2  0  0  0  0  0  0
  159.6690  213.6320  144.8790 C   0  0  1  0  0  3  0  0  0  0  0  0
  161.4530  212.6170  147.4770 C   0  0  0  0  0  2  0  0  0  0  0  0
  160.7310  213.4120  143.8130 C   0  0  0  0  0  2  0  0  0  0  0  0
  160.2060  212.5440  142.7170 C   0  0  0  0  0  0  0  0  0  0  0  0
  159.9430  211.3710  142.9420 O   0  0  0  0  0  0  0  0  0  0  0  0
  160.4190  214.4530  141.3580 O   0  0  0  0  0  1  0  0  0  0  0  0
  159.9850  213.1260  141.3520 C   0  0  1  0  0  3  0  0  0  0  0  0
  163.2510  207.7130  140.4450 O   0  0  0  0  0  0  0  0  0  0  0  0
  159.9160  210.0290  139.3360 N   0  0  0  0  0  0  0  0  0  0  0  0
  161.1850  208.0530  139.3830 N   0  0  0  0  0  2  0  0  0  0  0  0
  162.9410  212.2620  141.0870 O   0  0  0  0  0  1  0  0  0  0  0  0
  162.2420  210.3100  139.9420 C   0  0  0  0  0  2  0  0  0  0  0  0
  158.6730  211.9490  138.9630 O   0  0  0  0  0  0  0  0  0  0  0  0
  162.3640  205.8260  139.3130 C   0  0  0  0  0  1  0  0  0  0  0  0
  161.0530  209.4630  139.5960 C   0  0  0  0  0  0  0  0  0  0  0  0
  161.8230  211.4640  140.8430 C   0  0  2  0  0  3  0  0  0  0  0  0
  159.6920  211.4350  139.4940 C   0  0  0  0  0  0  0  0  0  0  0  0
  160.6820  212.3100  140.2390 C   0  0  1  0  0  3  0  0  0  0  0  0
  162.3170  207.2490  139.7420 C   0  0  0  0  0  0  0  0  0  0  0  0
  161.7880  209.9840  151.5390 C   0  0  2  0  0  3  0  0  0  0  0  0
  162.0990  207.4940  151.5430 C   0  0  0  0  0  2  0  0  0  0  0  0
  161.2110  208.3110  149.7660 C   0  0  2  0  0  3  0  0  0  0  0  0
  162.2850  208.7750  150.7460 C   0  0  1  0  0  3  0  0  0  0  0  0
  161.0310  207.0340  150.5710 C   0  0  0  0  0  2  0  0  0  0  0  0
  161.7380  208.9570  147.4610 C   0  0  0  0  0  2  0  0  0  0  0  0
  161.7520  208.0010  148.3900 C   0  0  0  0  0  0  0  0  0  0  0  0
  162.3610  206.6550  148.0580 C   0  0  0  0  0  2  0  0  0  0  0  0
  161.8390  203.6480  146.3380 C   0  0  0  0  0  2  0  0  0  0  0  0
  161.6890  205.6530  144.9170 C   0  0  0  0  0  1  0  0  0  0  0  0
  161.4500  205.7550  147.3360 N   0  0  0  0  0  0  0  0  0  0  0  0
  162.1700  205.1030  146.2470 C   0  0  1  0  0  3  0  0  0  0  0  0
  160.9860  204.8040  148.2040 O   0  0  0  0  0  0  0  0  0  0  0  0
  160.8390  203.6240  147.4590 C   0  0  2  0  0  3  0  0  0  0  0  0
  161.0290  202.4010  148.3520 C   0  0  0  0  0  2  0  0  0  0  0  0
  161.6500  202.7710  149.6900 C   0  0  0  0  0  2  0  0  0  0  0  0
  160.6180  202.6390  150.7900 C   0  0  0  0  0  3  0  0  0  0  0  0
  161.2890  202.9080  152.1220 C   0  0  0  0  0  2  0  0  0  0  0  0
  160.4460  203.9840  151.4700 C   0  0  0  0  0  2  0  0  0  0  0  0
  160.7730  209.5580  152.6090 C   0  0  0  0  0  2  0  0  0  0  0  0
  162.2470  210.5060  154.4410 N   0  0  0  0  0  1  0  0  0  0  0  0
  160.9480  210.2860  153.9060 C   0  0  0  0  0  0  0  0  0  0  0  0
  159.9360  210.6700  154.5450 O   0  0  0  0  0  0  0  0  0  0  0  0
  1  2  2  0  0  0  0
  2  3  1  0  0  0  0
  3 29  1  0  0  0  0
  4  7  1  6  0  0  0
  4 11  1  0  0  0  0
  4  5  1  0  0  0  0
  5  9  1  0  0  0  0
  6  4  1  0  0  0  0
  8  9  1  0  0  0  0
  8  2  1  1  0  0  0
 10 12  1  6  0  0  0
 10  6  1  0  0  0  0
 10  7  1  0  0  0  0
 11  8  1  0  0  0  0
 13 14  2  0  0  0  0
 13 12  1  0  0  0  0
 16 15  1  1  0  0  0
 16 13  1  0  0  0  0
 18 26  1  0  0  0  0
 18 24  2  0  0  0  0
 19 24  1  0  0  0  0
 19 28  1  0  0  0  0
 21 25  1  0  0  0  0
 22 26  2  0  0  0  0
 23 28  1  0  0  0  0
 24 21  1  0  0  0  0
 25 20  1  6  0  0  0
 26 27  1  0  0  0  0
 27 25  1  0  0  0  0
 27 16  1  1  0  0  0
 28 17  2  0  0  0  0
 29 48  1  1  0  0  0
 31 35  1  6  0  0  0
 31 33  1  0  0  0  0
 31 32  1  0  0  0  0
 32 29  1  1  0  0  0
 32 30  1  0  0  0  0
 33 30  1  0  0  0  0
 34 35  2  0  0  0  0
 36 35  1  0  0  0  0
 37 42  1  0  0  0  0
 39 36  1  0  0  0  0
 39 41  1  0  0  0  0
 40 38  1  6  0  0  0
 40 37  1  0  0  0  0
 40 39  1  0  0  0  0
 42 41  1  0  0  0  0
 42 43  1  1  0  0  0
 43 44  1  0  0  0  0
 44 45  1  0  0  0  0
 45 47  1  0  0  0  0
 45 46  1  0  0  0  0
 47 46  1  0  0  0  0
 48 50  1  0  0  0  0
 50 49  1  0  0  0  0
 50 51  2  0  0  0  0
M  END
>  <MODEL>
4

>  <REMARK>
 VINA RESULT:      -5.6      1.664      3.135
  Name = 
  15 active torsions:
  status: ('A' for Active; 'I' for Inactive)
    1  A    between atoms: C_4  and  C_37
    2  A    between atoms: C_4  and  C_42
    3  A    between atoms: C_4  and  N_44
    4  A    between atoms: C_7  and  N_20
    5  A    between atoms: C_7  and  C_26
    6  A    between atoms: C_12  and  C_25
    7  A    between atoms: C_12  and  C_46
    8  A    between atoms: C_18  and  C_38
    9  A    between atoms: C_22  and  C_46
   10  A    between atoms: C_23  and  C_26
   11  A    between atoms: C_25  and  C_48
   12  A    between atoms: C_27  and  C_42
   13  A    between atoms: C_31  and  C_51
   14  A    between atoms: C_41  and  C_47
   15  A    between atoms: C_47  and  C_51
                            x       y       z     vdW  Elec       q    Type
                         _______ _______ _______ _____ _____    ______ ____

>  <TORSDO>
F 15

$$$$
=
 OpenBabel11072412323D

 51 56  0  0  1  0  0  0  0  0999 V2000
  162.7150  209.5480  151.3200 O   0  0  0  0  0  0  0  0  0  0  0  0
  161.7510  209.9180  152.0440 C   0  0  0  0  0  0  0  0  0  0  0  0
  161.0480  208.9720  152.8500 N   0  0  0  0  0  2  0  0  0  0  0  0
  159.8230  212.8030  151.1540 C   0  0  1  0  0  0  0  0  0  0  0  0
  159.5120  212.6560  152.5710 N   0  0  0  0  0  2  0  0  0  0  0  0
  158.3550  212.6220  150.1040 S   0  0  0  0  0  0  0  0  0  0  0  0
  160.1150  214.2360  150.7790 C   0  0  0  0  0  2  0  0  0  0  0  0
  161.3770  211.3600  152.1290 C   0  0  2  0  0  3  0  0  0  0  0  0
  160.2680  211.5690  153.0560 N   0  0  0  0  0  2  0  0  0  0  0  0
  158.9460  214.3270  149.8170 C   0  0  1  0  0  3  0  0  0  0  0  0
  160.9300  211.8600  150.7880 C   0  0  0  0  0  2  0  0  0  0  0  0
  159.4700  214.4530  148.3950 C   0  0  0  0  0  2  0  0  0  0  0  0
  160.8970  214.0190  148.3180 C   0  0  0  0  0  0  0  0  0  0  0  0
  161.7100  214.4510  149.1240 O   0  0  0  0  0  0  0  0  0  0  0  0
  160.8340  211.7760  147.6120 O   0  0  0  0  0  1  0  0  0  0  0  0
  161.3180  213.0380  147.2640 C   0  0  1  0  0  3  0  0  0  0  0  0
  162.5670  211.9660  141.0930 O   0  0  0  0  0  0  0  0  0  0  0  0
  159.6710  211.9260  144.1470 N   0  0  0  0  0  0  0  0  0  0  0  0
  160.4750  211.4090  142.0010 N   0  0  0  0  0  2  0  0  0  0  0  0
  162.8860  214.4120  144.9810 O   0  0  0  0  0  1  0  0  0  0  0  0
  161.5530  213.2530  143.4030 C   0  0  0  0  0  2  0  0  0  0  0  0
  158.6220  212.5740  146.1100 O   0  0  0  0  0  0  0  0  0  0  0  0
  161.1320  210.7280  139.6650 C   0  0  0  0  0  1  0  0  0  0  0  0
  160.5630  212.1380  143.2310 C   0  0  0  0  0  0  0  0  0  0  0  0
  162.0190  213.3260  144.8500 C   0  0  2  0  0  3  0  0  0  0  0  0
  159.6600  212.6230  145.3990 C   0  0  0  0  0  0  0  0  0  0  0  0
  160.8500  213.4500  145.8490 C   0  0  1  0  0  3  0  0  0  0  0  0
  161.4440  211.4180  140.9440 C   0  0  0  0  0  0  0  0  0  0  0  0
  161.4480  207.5710  152.9680 C   0  0  2  0  0  3  0  0  0  0  0  0
  161.2560  207.3150  150.4790 C   0  0  0  0  0  2  0  0  0  0  0  0
  161.7120  205.5160  151.5610 C   0  0  2  0  0  3  0  0  0  0  0  0
  160.8490  206.7450  151.8290 C   0  0  1  0  0  3  0  0  0  0  0  0
  162.1140  206.0940  150.2130 C   0  0  0  0  0  2  0  0  0  0  0  0
  160.6800  203.4730  152.4360 C   0  0  0  0  0  2  0  0  0  0  0  0
  160.9070  204.2510  151.3780 C   0  0  0  0  0  0  0  0  0  0  0  0
  160.3060  203.8750  150.0400 C   0  0  0  0  0  2  0  0  0  0  0  0
  160.2770  201.0790  147.9300 C   0  0  0  0  0  2  0  0  0  0  0  0
  160.8990  200.5690  150.2570 C   0  0  0  0  0  1  0  0  0  0  0  0
  161.0450  202.8170  149.3350 N   0  0  0  0  0  0  0  0  0  0  0  0
  160.2560  201.5890  149.3340 C   0  0  1  0  0  3  0  0  0  0  0  0
  161.2640  203.2130  148.0440 O   0  0  0  0  0  0  0  0  0  0  0  0
  161.1990  202.0540  147.2560 C   0  0  2  0  0  3  0  0  0  0  0  0
  160.7210  202.3930  145.8460 C   0  0  0  0  0  2  0  0  0  0  0  0
  161.6240  203.4170  145.1760 C   0  0  0  0  0  2  0  0  0  0  0  0
  160.9190  204.7540  145.1020 C   0  0  0  0  0  3  0  0  0  0  0  0
  161.9610  205.8550  145.0770 C   0  0  0  0  0  2  0  0  0  0  0  0
  161.2790  205.4310  143.7920 C   0  0  0  0  0  2  0  0  0  0  0  0
  161.0440  206.9970  154.3320 C   0  0  0  0  0  2  0  0  0  0  0  0
  159.3200  208.0630  155.8550 N   0  0  0  0  0  1  0  0  0  0  0  0
  160.6360  208.0500  155.3150 C   0  0  0  0  0  0  0  0  0  0  0  0
  161.4520  208.9530  155.6350 O   0  0  0  0  0  0  0  0  0  0  0  0
  1  2  2  0  0  0  0
  2  3  1  0  0  0  0
  3 29  1  0  0  0  0
  4  7  1  6  0  0  0
  4  5  1  0  0  0  0
  5  9  1  0  0  0  0
  6  4  1  0  0  0  0
  8  2  1  6  0  0  0
  8  9  1  0  0  0  0
 10 12  1  6  0  0  0
 10  6  1  0  0  0  0
 10  7  1  0  0  0  0
 11  4  1  0  0  0  0
 11  8  1  0  0  0  0
 13 12  1  0  0  0  0
 13 14  2  0  0  0  0
 16 15  1  1  0  0  0
 16 13  1  0  0  0  0
 18 26  1  0  0  0  0
 19 24  1  0  0  0  0
 21 25  1  0  0  0  0
 23 28  1  0  0  0  0
 24 21  1  0  0  0  0
 24 18  2  0  0  0  0
 25 20  1  6  0  0  0
 25 27  1  0  0  0  0
 26 27  1  0  0  0  0
 26 22  2  0  0  0  0
 27 16  1  1  0  0  0
 28 17  2  0  0  0  0
 28 19  1  0  0  0  0
 29 48  1  1  0  0  0
 30 32  1  0  0  0  0
 31 35  1  6  0  0  0
 31 32  1  0  0  0  0
 32 29  1  1  0  0  0
 33 30  1  0  0  0  0
 33 31  1  0  0  0  0
 35 34  2  0  0  0  0
 36 35  1  0  0  0  0
 37 40  1  0  0  0  0
 39 36  1  0  0  0  0
 40 39  1  0  0  0  0
 40 38  1  1  0  0  0
 41 39  1  0  0  0  0
 42 43  1  6  0  0  0
 42 37  1  0  0  0  0
 42 41  1  0  0  0  0
 44 43  1  0  0  0  0
 45 44  1  0  0  0  0
 46 45  1  0  0  0  0
 47 46  1  0  0  0  0
 47 45  1  0  0  0  0
 48 50  1  0  0  0  0
 50 51  2  0  0  0  0
 50 49  1  0  0  0  0
M  END
>  <MODEL>
5

>  <REMARK>
 VINA RESULT:      -5.4      1.973      3.230
  Name = 
  15 active torsions:
  status: ('A' for Active; 'I' for Inactive)
    1  A    between atoms: C_4  and  C_37
    2  A    between atoms: C_4  and  C_42
    3  A    between atoms: C_4  and  N_44
    4  A    between atoms: C_7  and  N_20
    5  A    between atoms: C_7  and  C_26
    6  A    between atoms: C_12  and  C_25
    7  A    between atoms: C_12  and  C_46
    8  A    between atoms: C_18  and  C_38
    9  A    between atoms: C_22  and  C_46
   10  A    between atoms: C_23  and  C_26
   11  A    between atoms: C_25  and  C_48
   12  A    between atoms: C_27  and  C_42
   13  A    between atoms: C_31  and  C_51
   14  A    between atoms: C_41  and  C_47
   15  A    between atoms: C_47  and  C_51
                            x       y       z     vdW  Elec       q    Type
                         _______ _______ _______ _____ _____    ______ ____

>  <TORSDO>
F 15

$$$$
=
 OpenBabel11072412323D

 51 56  0  0  1  0  0  0  0  0999 V2000
  161.2980  206.5980  155.3750 O   0  0  0  0  0  0  0  0  0  0  0  0
  161.4260  207.7530  154.8850 C   0  0  0  0  0  0  0  0  0  0  0  0
  161.7350  207.9210  153.5010 N   0  0  0  0  0  2  0  0  0  0  0  0
  159.4830  210.5340  156.0340 C   0  0  1  0  0  0  0  0  0  0  0  0
  159.6260  209.7420  157.2500 N   0  0  0  0  0  2  0  0  0  0  0  0
  157.7510  210.7020  155.5230 S   0  0  0  0  0  0  0  0  0  0  0  0
  159.7230  212.0040  156.2800 C   0  0  0  0  0  2  0  0  0  0  0  0
  161.1810  208.9630  155.7240 C   0  0  2  0  0  3  0  0  0  0  0  0
  160.4340  208.6300  156.9330 N   0  0  0  0  0  2  0  0  0  0  0  0
  158.3180  212.4030  155.8720 C   0  0  1  0  0  3  0  0  0  0  0  0
  160.3630  209.9640  154.9630 C   0  0  0  0  0  2  0  0  0  0  0  0
  158.3740  213.2000  154.5780 C   0  0  0  0  0  2  0  0  0  0  0  0
  157.0160  213.7000  154.2080 C   0  0  0  0  0  0  0  0  0  0  0  0
  156.4120  214.4430  154.9680 O   0  0  0  0  0  0  0  0  0  0  0  0
  155.0290  213.4610  152.9710 O   0  0  0  0  0  1  0  0  0  0  0  0
  156.4140  213.3040  152.8920 C   0  0  1  0  0  3  0  0  0  0  0  0
  160.4460  212.6740  147.9790 O   0  0  0  0  0  0  0  0  0  0  0  0
  156.5460  213.6610  149.2150 N   0  0  0  0  0  0  0  0  0  0  0  0
  158.1730  213.1310  147.6060 N   0  0  0  0  0  2  0  0  0  0  0  0
  159.3540  214.0100  152.2470 O   0  0  0  0  0  1  0  0  0  0  0  0
  158.8390  213.9390  149.9370 C   0  0  0  0  0  2  0  0  0  0  0  0
  154.8830  214.4530  150.6220 O   0  0  0  0  0  0  0  0  0  0  0  0
  159.7410  212.5650  145.7150 C   0  0  0  0  0  1  0  0  0  0  0  0
  157.8030  213.5230  148.9340 C   0  0  0  0  0  0  0  0  0  0  0  0
  158.3990  213.5490  151.3410 C   0  0  2  0  0  3  0  0  0  0  0  0
  156.0780  214.0720  150.5050 C   0  0  0  0  0  0  0  0  0  0  0  0
  157.0040  214.1020  151.7060 C   0  0  1  0  0  3  0  0  0  0  0  0
  159.4970  212.8030  147.1630 C   0  0  0  0  0  0  0  0  0  0  0  0
  161.8220  206.8040  152.5630 C   0  0  2  0  0  3  0  0  0  0  0  0
  160.5030  208.5270  151.3030 C   0  0  0  0  0  2  0  0  0  0  0  0
  162.2910  207.8390  150.3310 C   0  0  2  0  0  3  0  0  0  0  0  0
  161.2250  207.1920  151.2100 C   0  0  1  0  0  3  0  0  0  0  0  0
  161.5630  209.1700  150.4310 C   0  0  0  0  0  2  0  0  0  0  0  0
  163.2790  206.5560  148.4910 C   0  0  0  0  0  2  0  0  0  0  0  0
  162.2790  207.3310  148.9080 C   0  0  0  0  0  0  0  0  0  0  0  0
  161.1340  207.6330  147.9640 C   0  0  0  0  0  2  0  0  0  0  0  0
  161.4720  204.4350  146.5740 C   0  0  0  0  0  2  0  0  0  0  0  0
  160.6880  206.1400  144.9810 C   0  0  0  0  0  1  0  0  0  0  0  0
  160.5080  206.4330  147.3890 N   0  0  0  0  0  0  0  0  0  0  0  0
  161.3540  205.9040  146.3240 C   0  0  1  0  0  3  0  0  0  0  0  0
  160.3750  205.4890  148.3710 O   0  0  0  0  0  0  0  0  0  0  0  0
  160.5620  204.2430  147.7530 C   0  0  2  0  0  3  0  0  0  0  0  0
  161.1350  203.2340  148.7450 C   0  0  0  0  0  2  0  0  0  0  0  0
  160.7390  201.8090  148.3910 C   0  0  0  0  0  2  0  0  0  0  0  0
  161.5890  201.3090  147.2420 C   0  0  0  0  0  3  0  0  0  0  0  0
  161.7110  199.8020  147.3460 C   0  0  0  0  0  2  0  0  0  0  0  0
  160.7430  200.4150  146.3550 C   0  0  0  0  0  2  0  0  0  0  0  0
  161.1320  205.5550  153.1290 C   0  0  0  0  0  2  0  0  0  0  0  0
  160.1110  203.5280  152.0000 N   0  0  0  0  0  1  0  0  0  0  0  0
  161.2370  204.3660  152.2260 C   0  0  0  0  0  0  0  0  0  0  0  0
  162.3420  204.0850  151.6930 O   0  0  0  0  0  0  0  0  0  0  0  0
  2  1  2  0  0  0  0
  3  2  1  0  0  0  0
  4 11  1  6  0  0  0
  4  7  1  0  0  0  0
  4  5  1  0  0  0  0
  6 10  1  0  0  0  0
  6  4  1  0  0  0  0
  8  2  1  6  0  0  0
  8  9  1  0  0  0  0
  9  5  1  0  0  0  0
 10 12  1  6  0  0  0
 10  7  1  0  0  0  0
 11  8  1  0  0  0  0
 13 12  1  0  0  0  0
 13 14  2  0  0  0  0
 16 15  1  1  0  0  0
 16 13  1  0  0  0  0
 18 26  1  0  0  0  0
 19 24  1  0  0  0  0
 21 25  1  0  0  0  0
 23 28  1  0  0  0  0
 24 18  2  0  0  0  0
 24 21  1  0  0  0  0
 25 27  1  0  0  0  0
 25 20  1  1  0  0  0
 26 22  2  0  0  0  0
 26 27  1  0  0  0  0
 27 16  1  1  0  0  0
 28 19  1  0  0  0  0
 28 17  2  0  0  0  0
 29 48  1  1  0  0  0
 29  3  1  0  0  0  0
 31 35  1  6  0  0  0
 31 33  1  0  0  0  0
 31 32  1  0  0  0  0
 32 30  1  0  0  0  0
 32 29  1  1  0  0  0
 33 30  1  0  0  0  0
 34 35  2  0  0  0  0
 36 35  1  0  0  0  0
 37 42  1  0  0  0  0
 39 36  1  0  0  0  0
 39 41  1  0  0  0  0
 40 38  1  6  0  0  0
 40 37  1  0  0  0  0
 40 39  1  0  0  0  0
 42 41  1  0  0  0  0
 42 43  1  1  0  0  0
 44 43  1  0  0  0  0
 45 46  1  0  0  0  0
 45 44  1  0  0  0  0
 47 45  1  0  0  0  0
 47 46  1  0  0  0  0
 49 50  1  0  0  0  0
 50 48  1  0  0  0  0
 51 50  2  0  0  0  0
M  END
>  <MODEL>
6

>  <REMARK>
 VINA RESULT:      -4.6      4.383      7.979
  Name = 
  15 active torsions:
  status: ('A' for Active; 'I' for Inactive)
    1  A    between atoms: C_4  and  C_37
    2  A    between atoms: C_4  and  C_42
    3  A    between atoms: C_4  and  N_44
    4  A    between atoms: C_7  and  N_20
    5  A    between atoms: C_7  and  C_26
    6  A    between atoms: C_12  and  C_25
    7  A    between atoms: C_12  and  C_46
    8  A    between atoms: C_18  and  C_38
    9  A    between atoms: C_22  and  C_46
   10  A    between atoms: C_23  and  C_26
   11  A    between atoms: C_25  and  C_48
   12  A    between atoms: C_27  and  C_42
   13  A    between atoms: C_31  and  C_51
   14  A    between atoms: C_41  and  C_47
   15  A    between atoms: C_47  and  C_51
                            x       y       z     vdW  Elec       q    Type
                         _______ _______ _______ _____ _____    ______ ____

>  <TORSDO>
F 15

$$$$
=
 OpenBabel11072412323D

 51 56  0  0  1  0  0  0  0  0999 V2000
  162.9690  208.3410  148.1790 O   0  0  0  0  0  0  0  0  0  0  0  0
  162.1410  209.0040  148.8610 C   0  0  0  0  0  0  0  0  0  0  0  0
  161.0450  208.3500  149.5020 N   0  0  0  0  0  2  0  0  0  0  0  0
  161.1330  212.4380  148.7280 C   0  0  1  0  0  0  0  0  0  0  0  0
  161.2930  212.2250  150.1620 N   0  0  0  0  0  2  0  0  0  0  0  0
  159.4270  212.8650  148.2820 S   0  0  0  0  0  0  0  0  0  0  0  0
  161.7500  213.7380  148.2720 C   0  0  0  0  0  2  0  0  0  0  0  0
  162.3350  210.4680  149.0750 C   0  0  2  0  0  3  0  0  0  0  0  0
  161.7500  210.9030  150.3410 N   0  0  0  0  0  2  0  0  0  0  0  0
  160.4290  214.3140  147.7990 C   0  0  1  0  0  3  0  0  0  0  0  0
  161.6570  211.2450  147.9870 C   0  0  0  0  0  2  0  0  0  0  0  0
  160.4470  214.4410  146.2830 C   0  0  0  0  0  2  0  0  0  0  0  0
  159.6560  213.3430  145.6530 C   0  0  0  0  0  0  0  0  0  0  0  0
  158.5040  213.1380  146.0100 O   0  0  0  0  0  0  0  0  0  0  0  0
  159.2880  211.6950  144.0130 O   0  0  0  0  0  1  0  0  0  0  0  0
  160.2750  212.5120  144.5670 C   0  0  1  0  0  3  0  0  0  0  0  0
  163.6210  211.9640  139.1550 O   0  0  0  0  0  0  0  0  0  0  0  0
  160.2250  213.5930  141.0320 N   0  0  0  0  0  0  0  0  0  0  0  0
  161.5300  213.0320  139.1620 N   0  0  0  0  0  2  0  0  0  0  0  0
  163.2410  212.5960  143.7000 O   0  0  0  0  0  1  0  0  0  0  0  0
  162.5560  213.1420  141.4990 C   0  0  0  0  0  2  0  0  0  0  0  0
  158.9410  214.4530  142.7590 O   0  0  0  0  0  0  0  0  0  0  0  0
  162.7490  212.5110  137.0170 C   0  0  0  0  0  1  0  0  0  0  0  0
  161.3770  213.2130  140.5740 C   0  0  0  0  0  0  0  0  0  0  0  0
  162.1330  212.5850  142.8510 C   0  0  2  0  0  3  0  0  0  0  0  0
  159.9790  213.8240  142.4250 C   0  0  0  0  0  0  0  0  0  0  0  0
  160.9660  213.3720  143.4840 C   0  0  1  0  0  3  0  0  0  0  0  0
  162.6830  212.4910  138.5020 C   0  0  0  0  0  0  0  0  0  0  0  0
  160.8680  206.8990  149.4950 C   0  0  2  0  0  3  0  0  0  0  0  0
  161.7240  205.1380  151.0650 C   0  0  0  0  0  2  0  0  0  0  0  0
  161.7780  207.1510  151.8150 C   0  0  2  0  0  3  0  0  0  0  0  0
  160.8260  206.3580  150.9240 C   0  0  1  0  0  3  0  0  0  0  0  0
  162.6710  205.9260  151.9480 C   0  0  0  0  0  2  0  0  0  0  0  0
  160.6880  206.5530  153.9270 C   0  0  0  0  0  2  0  0  0  0  0  0
  161.1780  207.5190  153.1510 C   0  0  0  0  0  0  0  0  0  0  0  0
  161.1690  208.9480  153.6540 C   0  0  0  0  0  2  0  0  0  0  0  0
  160.3200  210.4680  156.6940 C   0  0  0  0  0  2  0  0  0  0  0  0
  160.4640  208.0120  156.8080 C   0  0  0  0  0  1  0  0  0  0  0  0
  160.1720  209.1990  154.7050 N   0  0  0  0  0  0  0  0  0  0  0  0
  160.8340  209.2450  156.0040 C   0  0  1  0  0  3  0  0  0  0  0  0
  159.5680  210.4030  154.4630 O   0  0  0  0  0  0  0  0  0  0  0  0
  159.2950  210.9690  155.7180 C   0  0  2  0  0  3  0  0  0  0  0  0
  159.3040  212.4940  155.6300 C   0  0  0  0  0  2  0  0  0  0  0  0
  158.5380  212.9930  154.4150 C   0  0  0  0  0  2  0  0  0  0  0  0
  157.2180  213.5930  154.8490 C   0  0  0  0  0  3  0  0  0  0  0  0
  156.1870  213.3390  153.7680 C   0  0  0  0  0  2  0  0  0  0  0  0
  156.2000  212.4800  155.0150 C   0  0  0  0  0  2  0  0  0  0  0  0
  161.9750  206.2150  148.6810 C   0  0  0  0  0  2  0  0  0  0  0  0
  161.7810  205.6410  146.2190 N   0  0  0  0  0  1  0  0  0  0  0  0
  161.4440  205.3600  147.5720 C   0  0  0  0  0  0  0  0  0  0  0  0
  160.6630  204.4100  147.8370 O   0  0  0  0  0  0  0  0  0  0  0  0
  1  2  2  0  0  0  0
  2  3  1  0  0  0  0
  4 11  1  6  0  0  0
  4  5  1  0  0  0  0
  5  9  1  0  0  0  0
  6  4  1  0  0  0  0
  7  4  1  0  0  0  0
  8  2  1  6  0  0  0
  8  9  1  0  0  0  0
 10 12  1  6  0  0  0
 10  7  1  0  0  0  0
 10  6  1  0  0  0  0
 11  8  1  0  0  0  0
 13 14  2  0  0  0  0
 13 12  1  0  0  0  0
 16 15  1  6  0  0  0
 16 13  1  0  0  0  0
 18 26  1  0  0  0  0
 19 24  1  0  0  0  0
 21 25  1  0  0  0  0
 23 28  1  0  0  0  0
 24 18  2  0  0  0  0
 24 21  1  0  0  0  0
 25 27  1  0  0  0  0
 25 20  1  1  0  0  0
 26 22  2  0  0  0  0
 26 27  1  0  0  0  0
 27 16  1  1  0  0  0
 28 17  2  0  0  0  0
 28 19  1  0  0  0  0
 29 48  1  6  0  0  0
 29  3  1  0  0  0  0
 30 33  1  0  0  0  0
 31 33  1  0  0  0  0
 31 35  1  1  0  0  0
 32 29  1  6  0  0  0
 32 30  1  0  0  0  0
 32 31  1  0  0  0  0
 35 36  1  0  0  0  0
 35 34  2  0  0  0  0
 36 39  1  0  0  0  0
 39 40  1  0  0  0  0
 40 37  1  0  0  0  0
 40 38  1  1  0  0  0
 41 39  1  0  0  0  0
 41 42  1  0  0  0  0
 42 43  1  6  0  0  0
 42 37  1  0  0  0  0
 44 45  1  0  0  0  0
 44 43  1  0  0  0  0
 45 47  1  0  0  0  0
 46 45  1  0  0  0  0
 46 47  1  0  0  0  0
 49 50  1  0  0  0  0
 50 51  2  0  0  0  0
 50 48  1  0  0  0  0
M  END
>  <MODEL>
7

>  <REMARK>
 VINA RESULT:      -4.5      2.423      6.158
  Name = 
  15 active torsions:
  status: ('A' for Active; 'I' for Inactive)
    1  A    between atoms: C_4  and  C_37
    2  A    between atoms: C_4  and  C_42
    3  A    between atoms: C_4  and  N_44
    4  A    between atoms: C_7  and  N_20
    5  A    between atoms: C_7  and  C_26
    6  A    between atoms: C_12  and  C_25
    7  A    between atoms: C_12  and  C_46
    8  A    between atoms: C_18  and  C_38
    9  A    between atoms: C_22  and  C_46
   10  A    between atoms: C_23  and  C_26
   11  A    between atoms: C_25  and  C_48
   12  A    between atoms: C_27  and  C_42
   13  A    between atoms: C_31  and  C_51
   14  A    between atoms: C_41  and  C_47
   15  A    between atoms: C_47  and  C_51
                            x       y       z     vdW  Elec       q    Type
                         _______ _______ _______ _____ _____    ______ ____

>  <TORSDO>
F 15

$$$$
=
 OpenBabel11072412323D

 51 56  0  0  1  0  0  0  0  0999 V2000
  156.9500  213.6400  150.8510 O   0  0  0  0  0  0  0  0  0  0  0  0
  157.9140  212.8770  151.1310 C   0  0  0  0  0  0  0  0  0  0  0  0
  159.1290  212.9430  150.3830 N   0  0  0  0  0  2  0  0  0  0  0  0
  159.2390  211.1680  153.9860 C   0  0  1  0  0  0  0  0  0  0  0  0
  158.1840  211.9800  154.5820 N   0  0  0  0  0  2  0  0  0  0  0  0
  160.8820  211.6020  154.6200 S   0  0  0  0  0  0  0  0  0  0  0  0
  159.2320  209.7510  154.5090 C   0  0  0  0  0  2  0  0  0  0  0  0
  157.8320  211.9470  152.2950 C   0  0  2  0  0  3  0  0  0  0  0  0
  157.5410  212.6670  153.5310 N   0  0  0  0  0  2  0  0  0  0  0  0
  160.6190  209.8620  155.1130 C   0  0  1  0  0  3  0  0  0  0  0  0
  159.1420  211.2460  152.4920 C   0  0  0  0  0  2  0  0  0  0  0  0
  161.5770  208.9640  154.3470 C   0  0  0  0  0  2  0  0  0  0  0  0
  161.0590  207.5640  154.2930 C   0  0  0  0  0  0  0  0  0  0  0  0
  160.1040  207.2410  154.9850 O   0  0  0  0  0  0  0  0  0  0  0  0
  161.9910  205.4130  154.0950 O   0  0  0  0  0  1  0  0  0  0  0  0
  161.7030  206.5710  153.3710 C   0  0  1  0  0  3  0  0  0  0  0  0
  161.9650  206.4430  146.9910 O   0  0  0  0  0  0  0  0  0  0  0  0
  161.1580  204.2880  150.5150 N   0  0  0  0  0  0  0  0  0  0  0  0
  161.5570  204.4770  148.2080 N   0  0  0  0  0  2  0  0  0  0  0  0
  160.8780  208.3960  151.0160 O   0  0  0  0  0  1  0  0  0  0  0  0
  160.8480  206.5040  149.5920 C   0  0  0  0  0  2  0  0  0  0  0  0
  160.4870  203.9450  152.7070 O   0  0  0  0  0  0  0  0  0  0  0  0
  161.9800  204.4370  145.7230 C   0  0  0  0  0  1  0  0  0  0  0  0
  161.2440  205.0610  149.4780 C   0  0  0  0  0  0  0  0  0  0  0  0
  161.3210  207.0770  150.9210 C   0  0  2  0  0  3  0  0  0  0  0  0
  160.8260  204.7740  151.8220 C   0  0  0  0  0  0  0  0  0  0  0  0
  160.8290  206.2580  152.1340 C   0  0  1  0  0  3  0  0  0  0  0  0
  161.8230  205.1920  146.9940 C   0  0  0  0  0  0  0  0  0  0  0  0
  159.3690  213.9370  149.3390 C   0  0  2  0  0  3  0  0  0  0  0  0
  157.6930  212.6670  147.9700 C   0  0  0  0  0  2  0  0  0  0  0  0
  158.4790  214.4430  147.0530 C   0  0  2  0  0  3  0  0  0  0  0  0
  159.0480  213.3570  147.9610 C   0  0  1  0  0  3  0  0  0  0  0  0
  157.1280  213.7470  147.0690 C   0  0  0  0  0  2  0  0  0  0  0  0
  158.2500  214.4510  144.6130 C   0  0  0  0  0  2  0  0  0  0  0  0
  159.0700  214.4270  145.6630 C   0  0  0  0  0  0  0  0  0  0  0  0
  160.5670  214.4420  145.4320 C   0  0  0  0  0  2  0  0  0  0  0  0
  160.4990  212.0640  142.8620 C   0  0  0  0  0  2  0  0  0  0  0  0
  159.6800  211.2220  145.0250 C   0  0  0  0  0  1  0  0  0  0  0  0
  161.0890  213.1980  144.8500 N   0  0  0  0  0  0  0  0  0  0  0  0
  160.0010  212.4630  144.2130 C   0  0  1  0  0  3  0  0  0  0  0  0
  162.0340  213.5100  143.9100 O   0  0  0  0  0  0  0  0  0  0  0  0
  161.9220  212.5440  142.8980 C   0  0  2  0  0  3  0  0  0  0  0  0
  162.3510  213.1270  141.5530 C   0  0  0  0  0  2  0  0  0  0  0  0
  161.3670  212.7770  140.4490 C   0  0  0  0  0  2  0  0  0  0  0  0
  161.9990  213.0310  139.0970 C   0  0  0  0  0  3  0  0  0  0  0  0
  163.4020  212.4570  139.0990 C   0  0  0  0  0  2  0  0  0  0  0  0
  162.2770  211.7000  138.4240 C   0  0  0  0  0  2  0  0  0  0  0  0
  160.8140  214.4530  149.3930 C   0  0  0  0  0  2  0  0  0  0  0  0
  161.9400  212.2230  148.9620 N   0  0  0  0  0  1  0  0  0  0  0  0
  161.7720  213.5950  148.6270 C   0  0  0  0  0  0  0  0  0  0  0  0
  162.4620  214.1020  147.7050 O   0  0  0  0  0  0  0  0  0  0  0  0
  1  2  2  0  0  0  0
  3  2  1  0  0  0  0
  4 11  1  6  0  0  0
  4  7  1  0  0  0  0
  4  5  1  0  0  0  0
  4  6  1  0  0  0  0
  6 10  1  0  0  0  0
  7 10  1  0  0  0  0
  8  2  1  6  0  0  0
  8 11  1  0  0  0  0
  8  9  1  0  0  0  0
  9  5  1  0  0  0  0
 10 12  1  6  0  0  0
 13 12  1  0  0  0  0
 13 14  2  0  0  0  0
 16 15  1  1  0  0  0
 16 13  1  0  0  0  0
 17 28  2  0  0  0  0
 18 26  1  0  0  0  0
 19 24  1  0  0  0  0
 21 25  1  0  0  0  0
 23 28  1  0  0  0  0
 24 21  1  0  0  0  0
 24 18  2  0  0  0  0
 25 20  1  1  0  0  0
 25 27  1  0  0  0  0
 26 27  1  0  0  0  0
 26 22  2  0  0  0  0
 27 16  1  1  0  0  0
 28 19  1  0  0  0  0
 29 48  1  6  0  0  0
 29  3  1  0  0  0  0
 31 35  1  6  0  0  0
 31 33  1  0  0  0  0
 31 32  1  0  0  0  0
 32 30  1  0  0  0  0
 32 29  1  1  0  0  0
 33 30  1  0  0  0  0
 34 35  2  0  0  0  0
 36 35  1  0  0  0  0
 37 42  1  0  0  0  0
 37 40  1  0  0  0  0
 39 36  1  0  0  0  0
 40 39  1  0  0  0  0
 40 38  1  1  0  0  0
 41 39  1  0  0  0  0
 42 43  1  6  0  0  0
 42 41  1  0  0  0  0
 44 43  1  0  0  0  0
 45 46  1  0  0  0  0
 45 44  1  0  0  0  0
 47 45  1  0  0  0  0
 47 46  1  0  0  0  0
 50 49  1  0  0  0  0
 50 48  1  0  0  0  0
 51 50  2  0  0  0  0
M  END
>  <MODEL>
8

>  <REMARK>
 VINA RESULT:      -4.2      2.899      9.901
  Name = 
  15 active torsions:
  status: ('A' for Active; 'I' for Inactive)
    1  A    between atoms: C_4  and  C_37
    2  A    between atoms: C_4  and  C_42
    3  A    between atoms: C_4  and  N_44
    4  A    between atoms: C_7  and  N_20
    5  A    between atoms: C_7  and  C_26
    6  A    between atoms: C_12  and  C_25
    7  A    between atoms: C_12  and  C_46
    8  A    between atoms: C_18  and  C_38
    9  A    between atoms: C_22  and  C_46
   10  A    between atoms: C_23  and  C_26
   11  A    between atoms: C_25  and  C_48
   12  A    between atoms: C_27  and  C_42
   13  A    between atoms: C_31  and  C_51
   14  A    between atoms: C_41  and  C_47
   15  A    between atoms: C_47  and  C_51
                            x       y       z     vdW  Elec       q    Type
                         _______ _______ _______ _____ _____    ______ ____

>  <TORSDO>
F 15

$$$$
