=
 OpenBabel11072410453D

 38 42  0  0  1  0  0  0  0  0999 V2000
  160.7200  202.5820  150.5490 C   0  0  0  0  0  2  0  0  0  0  0  0
  160.8580  204.1110  150.6810 C   0  0  2  0  0  3  0  0  0  0  0  0
  161.1050  204.5810  148.1180 C   0  0  1  0  0  3  0  0  0  0  0  0
  160.5400  202.3890  147.9980 C   0  0  2  0  0  3  0  0  0  0  0  0
  161.6280  203.2770  148.1040 O   0  0  0  0  0  0  0  0  0  0  0  0
  160.3630  204.9020  149.4460 C   0  0  2  0  0  3  0  0  0  0  0  0
  162.2330  205.5810  147.8680 C   0  0  0  0  0  2  0  0  0  0  0  0
  159.8750  202.1110  149.3600 C   0  0  0  0  0  2  0  0  0  0  0  0
  160.2050  206.4000  149.7380 C   0  0  0  0  0  2  0  0  0  0  0  0
  161.7500  207.0390  147.8440 C   0  0  1  0  0  3  0  0  0  0  0  0
  160.3600  207.2350  148.4710 C   0  0  0  0  0  2  0  0  0  0  0  0
  161.9130  199.1370  147.0550 O   0  0  0  0  0  0  0  0  0  0  0  0
  161.7230  200.1830  147.9530 C   0  0  0  0  0  3  0  0  0  0  0  0
  160.0710  201.5560  145.0230 C   0  0  0  0  0  1  0  0  0  0  0  0
  160.6260  200.6990  146.0570 N   0  0  0  0  0  0  0  0  0  0  0  0
  160.9840  201.1070  147.3660 C   0  0  0  0  0  0  0  0  0  0  0  0
  161.2650  199.4180  145.8190 C   0  0  0  0  0  2  0  0  0  0  0  0
  162.3050  204.4410  151.0420 C   0  0  0  0  0  2  0  0  0  0  0  0
  162.3940  205.6740  151.9270 C   0  0  0  0  0  2  0  0  0  0  0  0
  161.5500  205.5070  153.1810 C   0  0  0  0  0  2  0  0  0  0  0  0
  160.6090  206.6110  153.3080 N   0  0  0  0  0  2  0  0  0  0  0  0
  160.5630  208.6940  152.3440 O   0  0  0  0  0  0  0  0  0  0  0  0
  161.3440  207.8390  153.0540 C   0  0  1  0  0  3  0  0  0  0  0  0
  160.6780  208.9420  153.7020 N   0  0  0  0  0  0  0  0  0  0  0  0
  161.6640  209.9980  153.8500 C   0  0  0  0  0  2  0  0  0  0  0  0
  161.6810  211.1180  156.1710 C   0  0  2  0  0  3  0  0  0  0  0  0
  159.4140  210.7050  155.2650 S   0  0  0  0  0  0  0  0  0  0  0  0
  160.3500  210.8110  156.8200 C   0  0  0  0  0  2  0  0  0  0  0  0
  161.1120  211.1000  154.7510 C   0  0  2  0  0  3  0  0  0  0  0  0
  162.6080  210.0230  156.4260 N   0  0  0  0  0  1  0  0  0  0  0  0
  162.7810  207.9020  148.5510 C   0  0  0  0  0  2  0  0  0  0  0  0
  162.1290  209.1260  149.1690 C   0  0  0  0  0  2  0  0  0  0  0  0
  162.5960  210.2720  148.5260 O   0  0  0  0  0  0  0  0  0  0  0  0
  161.0740  211.5260  147.4820 O   0  0  0  0  0  0  0  0  0  0  0  0
  163.7920  212.7380  147.8980 O   0  0  0  0  0  0  0  0  0  0  0  0
  162.1070  212.8170  148.0370 P   0  0  0  0  0  0  0  0  0  0  0  0
  161.5790  211.2140  148.6870 C   0  0  0  0  0  2  0  0  0  0  0  0
  161.5380  213.8590  148.9710 O   0  0  0  0  0  0  0  0  0  0  0  0
  1  2  1  0  0  0  0
  2 18  1  6  0  0  0
  3  7  1  1  0  0  0
  3  6  1  0  0  0  0
  4 16  1  1  0  0  0
  4  5  1  0  0  0  0
  4  8  1  0  0  0  0
  5  3  1  0  0  0  0
  6  9  1  1  0  0  0
  6  2  1  0  0  0  0
  8  1  1  0  0  0  0
 10  7  1  0  0  0  0
 10 11  1  0  0  0  0
 10 31  1  1  0  0  0
 11  9  1  0  0  0  0
 12 13  1  0  0  0  0
 14 15  1  0  0  0  0
 15 16  1  0  0  0  0
 16 13  2  0  0  0  0
 17 15  1  0  0  0  0
 17 12  1  0  0  0  0
 18 19  1  0  0  0  0
 19 20  1  0  0  0  0
 20 21  1  0  0  0  0
 22 23  1  0  0  0  0
 22 24  1  0  0  0  0
 23 21  1  1  0  0  0
 23 24  1  0  0  0  0
 24 25  1  0  0  0  0
 26 30  1  6  0  0  0
 26 28  1  0  0  0  0
 27 28  1  0  0  0  0
 29 25  1  6  0  0  0
 29 27  1  0  0  0  0
 29 26  1  0  0  0  0
 31 32  1  0  0  0  0
 33 37  1  0  0  0  0
 33 32  1  0  0  0  0
 34 36  1  0  0  0  0
 34 37  1  0  0  0  0
 35 36  2  0  0  0  0
 36 38  2  0  0  0  0
M  END
>  <MODEL>
1

>  <REMARK>
 VINA RESULT:      -6.2      0.000      0.000
  Name = 
  12 active torsions:
  status: ('A' for Active; 'I' for Inactive)
    1  A    between atoms: O_1  and  C_16
    2  A    between atoms: O_1  and  C_34
    3  A    between atoms: C_3  and  C_8
    4  A    between atoms: C_8  and  C_12
    5  A    between atoms: C_10  and  C_30
    6  A    between atoms: C_12  and  C_17
    7  A    between atoms: C_16  and  C_27
    8  A    between atoms: C_17  and  N_24
    9  A    between atoms: C_20  and  N_24
   10  A    between atoms: N_23  and  C_37
   11  A    between atoms: C_27  and  C_29
   12  A    between atoms: C_35  and  C_37
                            x       y       z     vdW  Elec       q    Type
                         _______ _______ _______ _____ _____    ______ ____

>  <TORSDO>
F 12

$$$$
=
 OpenBabel11072410453D

 38 42  0  0  1  0  0  0  0  0999 V2000
  162.4380  206.5120  146.8540 C   0  0  0  0  0  2  0  0  0  0  0  0
  162.5010  207.1730  148.2450 C   0  0  2  0  0  3  0  0  0  0  0  0
  161.6720  205.0770  149.5760 C   0  0  1  0  0  3  0  0  0  0  0  0
  161.9520  204.0930  147.5540 C   0  0  2  0  0  3  0  0  0  0  0  0
  161.0260  204.7770  148.3650 O   0  0  0  0  0  0  0  0  0  0  0  0
  162.7520  206.1820  149.4070 C   0  0  2  0  0  3  0  0  0  0  0  0
  160.6300  205.4870  150.6170 C   0  0  0  0  0  2  0  0  0  0  0  0
  162.9040  205.0520  146.8120 C   0  0  0  0  0  2  0  0  0  0  0  0
  163.1360  206.8970  150.7090 C   0  0  0  0  0  2  0  0  0  0  0  0
  161.2440  205.8160  151.9860 C   0  0  1  0  0  3  0  0  0  0  0  0
  162.7590  206.0700  151.9340 C   0  0  0  0  0  2  0  0  0  0  0  0
  160.2320  202.4950  144.7540 O   0  0  0  0  0  0  0  0  0  0  0  0
  160.8590  203.5780  145.3610 C   0  0  0  0  0  3  0  0  0  0  0  0
  160.8780  201.2120  148.1180 C   0  0  0  0  0  1  0  0  0  0  0  0
  160.8900  201.8650  146.8200 N   0  0  0  0  0  0  0  0  0  0  0  0
  161.2310  203.2190  146.5760 C   0  0  0  0  0  0  0  0  0  0  0  0
  160.1920  201.3820  145.6420 C   0  0  0  0  0  2  0  0  0  0  0  0
  161.2330  208.0010  148.4490 C   0  0  0  0  0  2  0  0  0  0  0  0
  161.4370  209.4480  148.0300 C   0  0  0  0  0  2  0  0  0  0  0  0
  162.0840  210.2530  149.1470 C   0  0  0  0  0  2  0  0  0  0  0  0
  162.5000  211.5580  148.6540 N   0  0  0  0  0  2  0  0  0  0  0  0
  161.4410  213.4650  147.9370 O   0  0  0  0  0  0  0  0  0  0  0  0
  161.3890  212.1090  147.8940 C   0  0  1  0  0  3  0  0  0  0  0  0
  161.8970  212.8650  146.7750 N   0  0  0  0  0  0  0  0  0  0  0  0
  160.8190  212.9570  145.8070 C   0  0  0  0  0  2  0  0  0  0  0  0
  160.8870  212.9510  143.2310 C   0  0  2  0  0  3  0  0  0  0  0  0
  163.0950  213.2890  144.2990 S   0  0  0  0  0  0  0  0  0  0  0  0
  162.2970  212.5820  142.8260 C   0  0  0  0  0  2  0  0  0  0  0  0
  161.3240  213.6270  144.5320 C   0  0  2  0  0  3  0  0  0  0  0  0
  160.1150  211.7360  143.4540 N   0  0  0  0  0  1  0  0  0  0  0  0
  160.5200  207.0200  152.5650 C   0  0  0  0  0  2  0  0  0  0  0  0
  160.9640  207.2820  153.9930 C   0  0  0  0  0  2  0  0  0  0  0  0
  160.6490  208.5950  154.3410 O   0  0  0  0  0  0  0  0  0  0  0  0
  162.0350  210.2780  153.8700 O   0  0  0  0  0  0  0  0  0  0  0  0
  159.1570  210.9770  154.3770 O   0  0  0  0  0  0  0  0  0  0  0  0
  160.5450  211.0610  153.4130 P   0  0  0  0  0  0  0  0  0  0  0  0
  161.2010  209.3780  153.3270 C   0  0  0  0  0  2  0  0  0  0  0  0
  160.3680  211.5190  151.9840 O   0  0  0  0  0  0  0  0  0  0  0  0
  1  2  1  0  0  0  0
  2 18  1  1  0  0  0
  2  6  1  0  0  0  0
  3  7  1  1  0  0  0
  4 16  1  6  0  0  0
  4  5  1  0  0  0  0
  5  3  1  0  0  0  0
  6  3  1  0  0  0  0
  6  9  1  1  0  0  0
  7 10  1  0  0  0  0
  8  1  1  0  0  0  0
  8  4  1  0  0  0  0
  9 11  1  0  0  0  0
 10 31  1  6  0  0  0
 11 10  1  0  0  0  0
 12 13  1  0  0  0  0
 12 17  1  0  0  0  0
 13 16  2  0  0  0  0
 15 14  1  0  0  0  0
 16 15  1  0  0  0  0
 17 15  1  0  0  0  0
 19 18  1  0  0  0  0
 19 20  1  0  0  0  0
 21 20  1  0  0  0  0
 23 22  1  0  0  0  0
 23 21  1  1  0  0  0
 24 23  1  0  0  0  0
 24 22  1  0  0  0  0
 25 24  1  0  0  0  0
 26 30  1  1  0  0  0
 26 29  1  0  0  0  0
 27 29  1  0  0  0  0
 28 26  1  0  0  0  0
 28 27  1  0  0  0  0
 29 25  1  1  0  0  0
 31 32  1  0  0  0  0
 32 33  1  0  0  0  0
 36 34  1  0  0  0  0
 36 35  2  0  0  0  0
 37 34  1  0  0  0  0
 37 33  1  0  0  0  0
 38 36  2  0  0  0  0
M  END
>  <MODEL>
2

>  <REMARK>
 VINA RESULT:      -5.9      3.906      6.602
  Name = 
  12 active torsions:
  status: ('A' for Active; 'I' for Inactive)
    1  A    between atoms: O_1  and  C_16
    2  A    between atoms: O_1  and  C_34
    3  A    between atoms: C_3  and  C_8
    4  A    between atoms: C_8  and  C_12
    5  A    between atoms: C_10  and  C_30
    6  A    between atoms: C_12  and  C_17
    7  A    between atoms: C_16  and  C_27
    8  A    between atoms: C_17  and  N_24
    9  A    between atoms: C_20  and  N_24
   10  A    between atoms: N_23  and  C_37
   11  A    between atoms: C_27  and  C_29
   12  A    between atoms: C_35  and  C_37
                            x       y       z     vdW  Elec       q    Type
                         _______ _______ _______ _____ _____    ______ ____

>  <TORSDO>
F 12

$$$$
=
 OpenBabel11072410453D

 38 42  0  0  1  0  0  0  0  0999 V2000
  159.6720  210.1130  156.0670 C   0  0  0  0  0  2  0  0  0  0  0  0
  160.7260  209.4690  155.1460 C   0  0  2  0  0  3  0  0  0  0  0  0
  160.3150  211.0620  153.1110 C   0  0  1  0  0  3  0  0  0  0  0  0
  159.0560  212.1570  154.6450 C   0  0  2  0  0  3  0  0  0  0  0  0
  159.0250  211.1510  153.6610 O   0  0  0  0  0  0  0  0  0  0  0  0
  161.3350  210.4380  154.1040 C   0  0  2  0  0  3  0  0  0  0  0  0
  160.2570  210.2590  151.8120 C   0  0  0  0  0  2  0  0  0  0  0  0
  159.5990  211.6430  155.9930 C   0  0  0  0  0  2  0  0  0  0  0  0
  162.5940  209.8640  153.4410 C   0  0  0  0  0  2  0  0  0  0  0  0
  161.6230  210.1270  151.1240 C   0  0  1  0  0  3  0  0  0  0  0  0
  162.8090  210.4480  152.0480 C   0  0  0  0  0  2  0  0  0  0  0  0
  155.7230  213.2480  155.6720 O   0  0  0  0  0  0  0  0  0  0  0  0
  156.8960  212.5210  155.8570 C   0  0  0  0  0  3  0  0  0  0  0  0
  157.5250  213.9090  152.5590 C   0  0  0  0  0  1  0  0  0  0  0  0
  157.0890  213.6520  153.9210 N   0  0  0  0  0  0  0  0  0  0  0  0
  157.6910  212.7420  154.8250 C   0  0  0  0  0  0  0  0  0  0  0  0
  155.7720  213.9650  154.4430 C   0  0  0  0  0  2  0  0  0  0  0  0
  160.1150  208.2270  154.5000 C   0  0  0  0  0  2  0  0  0  0  0  0
  160.7800  206.9530  154.9990 C   0  0  0  0  0  2  0  0  0  0  0  0
  161.6690  206.3460  153.9240 C   0  0  0  0  0  2  0  0  0  0  0  0
  160.8970  206.0830  152.7190 N   0  0  0  0  0  2  0  0  0  0  0  0
  160.9330  203.8190  152.3400 O   0  0  0  0  0  0  0  0  0  0  0  0
  161.5450  204.9870  152.0180 C   0  0  1  0  0  3  0  0  0  0  0  0
  160.6070  204.3710  151.1120 N   0  0  0  0  0  0  0  0  0  0  0  0
  161.3900  203.6610  150.1160 C   0  0  0  0  0  2  0  0  0  0  0  0
  160.3590  201.3560  149.6020 C   0  0  2  0  0  3  0  0  0  0  0  0
  161.2520  202.5290  147.6130 S   0  0  0  0  0  0  0  0  0  0  0  0
  160.9780  200.8720  148.3100 C   0  0  0  0  0  2  0  0  0  0  0  0
  160.4670  202.8340  149.2240 C   0  0  2  0  0  3  0  0  0  0  0  0
  161.2210  200.9900  150.7180 N   0  0  0  0  0  1  0  0  0  0  0  0
  161.7500  208.7200  150.5640 C   0  0  0  0  0  2  0  0  0  0  0  0
  162.2720  208.7510  149.1380 C   0  0  0  0  0  2  0  0  0  0  0  0
  162.2440  207.4620  148.6080 O   0  0  0  0  0  0  0  0  0  0  0  0
  160.3790  206.2750  148.3100 O   0  0  0  0  0  0  0  0  0  0  0  0
  162.7100  205.6290  146.5280 O   0  0  0  0  0  0  0  0  0  0  0  0
  161.0770  206.0220  146.7320 P   0  0  0  0  0  0  0  0  0  0  0  0
  161.0310  207.3830  147.9230 C   0  0  0  0  0  2  0  0  0  0  0  0
  160.3240  206.5030  145.5140 O   0  0  0  0  0  0  0  0  0  0  0  0
  2 18  1  6  0  0  0
  2  1  1  0  0  0  0
  3  7  1  6  0  0  0
  3  5  1  0  0  0  0
  3  6  1  0  0  0  0
  4 16  1  1  0  0  0
  4  8  1  0  0  0  0
  5  4  1  0  0  0  0
  6  9  1  6  0  0  0
  6  2  1  0  0  0  0
  8  1  1  0  0  0  0
 10 31  1  1  0  0  0
 10  7  1  0  0  0  0
 10 11  1  0  0  0  0
 11  9  1  0  0  0  0
 12 13  1  0  0  0  0
 14 15  1  0  0  0  0
 15 17  1  0  0  0  0
 15 16  1  0  0  0  0
 16 13  2  0  0  0  0
 17 12  1  0  0  0  0
 18 19  1  0  0  0  0
 20 19  1  0  0  0  0
 21 20  1  0  0  0  0
 23 22  1  0  0  0  0
 23 21  1  1  0  0  0
 24 23  1  0  0  0  0
 24 22  1  0  0  0  0
 25 24  1  0  0  0  0
 26 30  1  1  0  0  0
 27 28  1  0  0  0  0
 27 29  1  0  0  0  0
 28 26  1  0  0  0  0
 29 26  1  0  0  0  0
 29 25  1  1  0  0  0
 32 31  1  0  0  0  0
 33 32  1  0  0  0  0
 35 36  2  0  0  0  0
 36 34  1  0  0  0  0
 37 34  1  0  0  0  0
 37 33  1  0  0  0  0
 38 36  2  0  0  0  0
M  END
>  <MODEL>
3

>  <REMARK>
 VINA RESULT:      -5.8      3.694      9.359
  Name = 
  12 active torsions:
  status: ('A' for Active; 'I' for Inactive)
    1  A    between atoms: O_1  and  C_16
    2  A    between atoms: O_1  and  C_34
    3  A    between atoms: C_3  and  C_8
    4  A    between atoms: C_8  and  C_12
    5  A    between atoms: C_10  and  C_30
    6  A    between atoms: C_12  and  C_17
    7  A    between atoms: C_16  and  C_27
    8  A    between atoms: C_17  and  N_24
    9  A    between atoms: C_20  and  N_24
   10  A    between atoms: N_23  and  C_37
   11  A    between atoms: C_27  and  C_29
   12  A    between atoms: C_35  and  C_37
                            x       y       z     vdW  Elec       q    Type
                         _______ _______ _______ _____ _____    ______ ____

>  <TORSDO>
F 12

$$$$
=
 OpenBabel11072410453D

 38 42  0  0  1  0  0  0  0  0999 V2000
  159.7140  209.3250  156.3500 C   0  0  0  0  0  2  0  0  0  0  0  0
  160.7350  208.9030  155.2760 C   0  0  2  0  0  3  0  0  0  0  0  0
  160.2130  210.8640  153.6230 C   0  0  1  0  0  3  0  0  0  0  0  0
  159.0080  211.5990  155.3960 C   0  0  2  0  0  3  0  0  0  0  0  0
  158.9470  210.8110  154.2310 O   0  0  0  0  0  0  0  0  0  0  0  0
  161.2840  210.0750  154.4270 C   0  0  2  0  0  3  0  0  0  0  0  0
  160.1080  210.3380  152.1920 C   0  0  0  0  0  2  0  0  0  0  0  0
  159.6170  210.8360  156.5890 C   0  0  0  0  0  2  0  0  0  0  0  0
  162.5210  209.6750  153.6120 C   0  0  0  0  0  2  0  0  0  0  0  0
  161.4450  210.3770  151.4370 C   0  0  1  0  0  3  0  0  0  0  0  0
  162.6660  210.5320  152.3580 C   0  0  0  0  0  2  0  0  0  0  0  0
  155.7340  212.4280  156.7890 O   0  0  0  0  0  0  0  0  0  0  0  0
  156.9380  211.7300  156.7970 C   0  0  0  0  0  3  0  0  0  0  0  0
  157.2720  213.5320  153.6600 C   0  0  0  0  0  1  0  0  0  0  0  0
  156.9490  213.0950  155.0070 N   0  0  0  0  0  0  0  0  0  0  0  0
  157.6440  212.1050  155.7460 C   0  0  0  0  0  0  0  0  0  0  0  0
  155.6670  213.2920  155.6590 C   0  0  0  0  0  2  0  0  0  0  0  0
  160.1140  207.8030  154.4170 C   0  0  0  0  0  2  0  0  0  0  0  0
  160.9880  206.5590  154.3830 C   0  0  0  0  0  2  0  0  0  0  0  0
  161.4960  206.2890  152.9750 C   0  0  0  0  0  2  0  0  0  0  0  0
  161.1870  204.9230  152.5790 N   0  0  0  0  0  2  0  0  0  0  0  0
  161.6520  205.5280  150.4140 O   0  0  0  0  0  0  0  0  0  0  0  0
  160.7040  204.9660  151.2090 C   0  0  1  0  0  3  0  0  0  0  0  0
  161.5480  204.1470  150.3740 N   0  0  0  0  0  0  0  0  0  0  0  0
  160.7750  203.8220  149.1880 C   0  0  0  0  0  2  0  0  0  0  0  0
  161.9200  204.2070  146.9120 C   0  0  2  0  0  3  0  0  0  0  0  0
  160.8450  201.9880  147.1390 S   0  0  0  0  0  0  0  0  0  0  0  0
  161.2620  203.2720  145.9210 C   0  0  0  0  0  2  0  0  0  0  0  0
  161.6970  203.2730  148.1020 C   0  0  2  0  0  3  0  0  0  0  0  0
  161.1460  205.4380  147.0020 N   0  0  0  0  0  1  0  0  0  0  0  0
  161.5660  209.1150  150.5990 C   0  0  0  0  0  2  0  0  0  0  0  0
  162.1760  209.4230  149.2430 C   0  0  0  0  0  2  0  0  0  0  0  0
  161.4390  210.4320  148.6230 O   0  0  0  0  0  0  0  0  0  0  0  0
  162.1950  212.5110  148.9070 O   0  0  0  0  0  0  0  0  0  0  0  0
  160.0740  212.1000  146.8190 O   0  0  0  0  0  0  0  0  0  0  0  0
  161.5880  212.6980  147.2830 P   0  0  0  0  0  0  0  0  0  0  0  0
  162.3860  211.3730  148.2210 C   0  0  0  0  0  2  0  0  0  0  0  0
  162.5510  213.0740  146.1810 O   0  0  0  0  0  0  0  0  0  0  0  0
  1  8  1  0  0  0  0
  2 18  1  6  0  0  0
  2  1  1  0  0  0  0
  3  7  1  6  0  0  0
  3  5  1  0  0  0  0
  3  6  1  0  0  0  0
  4 16  1  1  0  0  0
  4  8  1  0  0  0  0
  5  4  1  0  0  0  0
  6  9  1  6  0  0  0
  6  2  1  0  0  0  0
 10 31  1  1  0  0  0
 10  7  1  0  0  0  0
 10 11  1  0  0  0  0
 11  9  1  0  0  0  0
 12 13  1  0  0  0  0
 14 15  1  0  0  0  0
 15 17  1  0  0  0  0
 15 16  1  0  0  0  0
 16 13  2  0  0  0  0
 17 12  1  0  0  0  0
 19 18  1  0  0  0  0
 20 19  1  0  0  0  0
 21 20  1  0  0  0  0
 22 23  1  0  0  0  0
 23 21  1  1  0  0  0
 24 22  1  0  0  0  0
 24 23  1  0  0  0  0
 25 24  1  0  0  0  0
 26 30  1  1  0  0  0
 26 29  1  0  0  0  0
 27 29  1  0  0  0  0
 28 26  1  0  0  0  0
 28 27  1  0  0  0  0
 29 25  1  1  0  0  0
 32 31  1  0  0  0  0
 33 32  1  0  0  0  0
 35 36  2  0  0  0  0
 36 34  1  0  0  0  0
 37 33  1  0  0  0  0
 37 34  1  0  0  0  0
 38 36  2  0  0  0  0
M  END
>  <MODEL>
4

>  <REMARK>
 VINA RESULT:      -5.2      3.384      9.128
  Name = 
  12 active torsions:
  status: ('A' for Active; 'I' for Inactive)
    1  A    between atoms: O_1  and  C_16
    2  A    between atoms: O_1  and  C_34
    3  A    between atoms: C_3  and  C_8
    4  A    between atoms: C_8  and  C_12
    5  A    between atoms: C_10  and  C_30
    6  A    between atoms: C_12  and  C_17
    7  A    between atoms: C_16  and  C_27
    8  A    between atoms: C_17  and  N_24
    9  A    between atoms: C_20  and  N_24
   10  A    between atoms: N_23  and  C_37
   11  A    between atoms: C_27  and  C_29
   12  A    between atoms: C_35  and  C_37
                            x       y       z     vdW  Elec       q    Type
                         _______ _______ _______ _____ _____    ______ ____

>  <TORSDO>
F 12

$$$$
=
 OpenBabel11072410453D

 38 42  0  0  1  0  0  0  0  0999 V2000
  161.4230  209.3570  151.5480 C   0  0  0  0  0  2  0  0  0  0  0  0
  161.2820  208.1430  150.6090 C   0  0  2  0  0  3  0  0  0  0  0  0
  160.9570  206.3710  152.5070 C   0  0  1  0  0  3  0  0  0  0  0  0
  160.8180  208.2430  153.7770 C   0  0  2  0  0  3  0  0  0  0  0  0
  161.7130  207.2880  153.2570 O   0  0  0  0  0  0  0  0  0  0  0  0
  160.4230  206.9910  151.1850 C   0  0  2  0  0  3  0  0  0  0  0  0
  161.8020  205.1290  152.2250 C   0  0  0  0  0  2  0  0  0  0  0  0
  160.4820  209.3490  152.7580 C   0  0  0  0  0  2  0  0  0  0  0  0
  160.0330  205.9640  150.1150 C   0  0  0  0  0  2  0  0  0  0  0  0
  161.0480  204.0570  151.4240 C   0  0  1  0  0  3  0  0  0  0  0  0
  159.7860  204.5880  150.7250 C   0  0  0  0  0  2  0  0  0  0  0  0
  162.4730  210.1590  156.4120 O   0  0  0  0  0  0  0  0  0  0  0  0
  162.1770  209.8950  155.0780 C   0  0  0  0  0  3  0  0  0  0  0  0
  160.4900  207.0960  156.6660 C   0  0  0  0  0  1  0  0  0  0  0  0
  161.0870  208.3790  156.3350 N   0  0  0  0  0  0  0  0  0  0  0  0
  161.3800  208.8430  155.0280 C   0  0  0  0  0  0  0  0  0  0  0  0
  161.8340  209.2100  157.2600 C   0  0  0  0  0  2  0  0  0  0  0  0
  162.6780  207.6800  150.1980 C   0  0  0  0  0  2  0  0  0  0  0  0
  162.8900  207.8050  148.6970 C   0  0  0  0  0  2  0  0  0  0  0  0
  161.9770  208.8680  148.1050 C   0  0  0  0  0  2  0  0  0  0  0  0
  162.5260  210.1950  148.3420 N   0  0  0  0  0  2  0  0  0  0  0  0
  161.7580  212.2780  148.9240 O   0  0  0  0  0  0  0  0  0  0  0  0
  161.4260  211.1420  148.2590 C   0  0  1  0  0  3  0  0  0  0  0  0
  161.8550  212.3180  147.5430 N   0  0  0  0  0  0  0  0  0  0  0  0
  160.6530  212.9760  147.0600 C   0  0  0  0  0  2  0  0  0  0  0  0
  160.2810  213.3380  144.5360 C   0  0  2  0  0  3  0  0  0  0  0  0
  162.6560  213.4240  145.2300 S   0  0  0  0  0  0  0  0  0  0  0  0
  161.5730  212.9720  143.8410 C   0  0  0  0  0  2  0  0  0  0  0  0
  160.9770  213.8000  145.8170 C   0  0  2  0  0  3  0  0  0  0  0  0
  159.4780  212.1370  144.7270 N   0  0  0  0  0  1  0  0  0  0  0  0
  162.0030  203.4470  150.4120 C   0  0  0  0  0  2  0  0  0  0  0  0
  161.2840  203.1330  149.1120 C   0  0  0  0  0  2  0  0  0  0  0  0
  161.9240  203.7890  148.0600 O   0  0  0  0  0  0  0  0  0  0  0  0
  161.2350  202.6860  146.2470 O   0  0  0  0  0  0  0  0  0  0  0  0
  163.3310  204.8020  145.8480 O   0  0  0  0  0  0  0  0  0  0  0  0
  161.8400  204.1120  145.4450 P   0  0  0  0  0  0  0  0  0  0  0  0
  161.0040  203.7660  147.0110 C   0  0  0  0  0  2  0  0  0  0  0  0
  160.8830  204.9560  144.6350 O   0  0  0  0  0  0  0  0  0  0  0  0
  1  8  1  0  0  0  0
  2 18  1  1  0  0  0
  2  6  1  0  0  0  0
  2  1  1  0  0  0  0
  3  7  1  6  0  0  0
  3  5  1  0  0  0  0
  4 16  1  1  0  0  0
  5  4  1  0  0  0  0
  6  9  1  6  0  0  0
  6  3  1  0  0  0  0
  8  4  1  0  0  0  0
  9 11  1  0  0  0  0
 10 31  1  6  0  0  0
 10  7  1  0  0  0  0
 11 10  1  0  0  0  0
 12 17  1  0  0  0  0
 13 12  1  0  0  0  0
 15 14  1  0  0  0  0
 15 17  1  0  0  0  0
 16 13  2  0  0  0  0
 16 15  1  0  0  0  0
 19 18  1  0  0  0  0
 20 21  1  0  0  0  0
 20 19  1  0  0  0  0
 23 21  1  1  0  0  0
 23 22  1  0  0  0  0
 24 23  1  0  0  0  0
 24 22  1  0  0  0  0
 25 24  1  0  0  0  0
 26 30  1  1  0  0  0
 26 29  1  0  0  0  0
 27 29  1  0  0  0  0
 28 26  1  0  0  0  0
 28 27  1  0  0  0  0
 29 25  1  1  0  0  0
 32 31  1  0  0  0  0
 33 32  1  0  0  0  0
 34 37  1  0  0  0  0
 36 35  2  0  0  0  0
 36 34  1  0  0  0  0
 37 33  1  0  0  0  0
 38 36  2  0  0  0  0
M  END
>  <MODEL>
5

>  <REMARK>
 VINA RESULT:      -5.1      3.861      8.568
  Name = 
  12 active torsions:
  status: ('A' for Active; 'I' for Inactive)
    1  A    between atoms: O_1  and  C_16
    2  A    between atoms: O_1  and  C_34
    3  A    between atoms: C_3  and  C_8
    4  A    between atoms: C_8  and  C_12
    5  A    between atoms: C_10  and  C_30
    6  A    between atoms: C_12  and  C_17
    7  A    between atoms: C_16  and  C_27
    8  A    between atoms: C_17  and  N_24
    9  A    between atoms: C_20  and  N_24
   10  A    between atoms: N_23  and  C_37
   11  A    between atoms: C_27  and  C_29
   12  A    between atoms: C_35  and  C_37
                            x       y       z     vdW  Elec       q    Type
                         _______ _______ _______ _____ _____    ______ ____

>  <TORSDO>
F 12

$$$$
=
 OpenBabel11072410453D

 38 42  0  0  1  0  0  0  0  0999 V2000
  161.8600  209.6450  153.2550 C   0  0  0  0  0  2  0  0  0  0  0  0
  161.8570  208.1040  153.2170 C   0  0  2  0  0  3  0  0  0  0  0  0
  161.5870  207.8990  150.6220 C   0  0  1  0  0  3  0  0  0  0  0  0
  161.9580  210.1320  150.7390 C   0  0  2  0  0  3  0  0  0  0  0  0
  160.9540  209.1460  150.7620 O   0  0  0  0  0  0  0  0  0  0  0  0
  162.3870  207.5010  151.8940 C   0  0  2  0  0  3  0  0  0  0  0  0
  160.5430  206.8370  150.2790 C   0  0  0  0  0  2  0  0  0  0  0  0
  162.6320  210.3160  152.1130 C   0  0  0  0  0  2  0  0  0  0  0  0
  162.6800  206.0000  152.0150 C   0  0  0  0  0  2  0  0  0  0  0  0
  161.1480  205.4390  150.0850 C   0  0  1  0  0  3  0  0  0  0  0  0
  162.5650  205.2980  150.6650 C   0  0  0  0  0  2  0  0  0  0  0  0
  160.2100  213.2850  150.1430 O   0  0  0  0  0  0  0  0  0  0  0  0
  160.4660  212.1370  150.8870 C   0  0  0  0  0  3  0  0  0  0  0  0
  162.5890  211.5100  148.0060 C   0  0  0  0  0  1  0  0  0  0  0  0
  161.8120  212.0980  149.0830 N   0  0  0  0  0  0  0  0  0  0  0  0
  161.3910  211.4320  150.2610 C   0  0  0  0  0  0  0  0  0  0  0  0
  161.0130  213.3050  148.9670 C   0  0  0  0  0  2  0  0  0  0  0  0
  160.4530  207.6110  153.5620 C   0  0  0  0  0  2  0  0  0  0  0  0
  160.4720  206.6380  154.7300 C   0  0  0  0  0  2  0  0  0  0  0  0
  160.0720  207.3320  156.0240 C   0  0  0  0  0  2  0  0  0  0  0  0
  160.8760  208.5290  156.2240 N   0  0  0  0  0  2  0  0  0  0  0  0
  160.8080  210.5780  157.2560 O   0  0  0  0  0  0  0  0  0  0  0  0
  160.0780  209.4620  157.0020 C   0  0  1  0  0  3  0  0  0  0  0  0
  159.8690  210.6700  156.2420 N   0  0  0  0  0  0  0  0  0  0  0  0
  158.7060  211.3270  156.8100 C   0  0  0  0  0  2  0  0  0  0  0  0
  156.9890  212.3740  155.1990 C   0  0  2  0  0  3  0  0  0  0  0  0
  159.3390  212.5840  154.4470 S   0  0  0  0  0  0  0  0  0  0  0  0
  157.6350  212.4200  153.8320 C   0  0  0  0  0  2  0  0  0  0  0  0
  158.3140  212.5240  155.9470 C   0  0  2  0  0  3  0  0  0  0  0  0
  156.3690  211.0700  155.3960 N   0  0  0  0  0  1  0  0  0  0  0  0
  160.2120  204.4160  150.7080 C   0  0  0  0  0  2  0  0  0  0  0  0
  160.4570  203.0350  150.1240 C   0  0  0  0  0  2  0  0  0  0  0  0
  160.8920  203.1620  148.8050 O   0  0  0  0  0  0  0  0  0  0  0  0
  161.4970  201.1750  147.9920 O   0  0  0  0  0  0  0  0  0  0  0  0
  161.5920  203.5110  146.1050 O   0  0  0  0  0  0  0  0  0  0  0  0
  161.0900  201.9380  146.4780 P   0  0  0  0  0  0  0  0  0  0  0  0
  160.4530  202.0000  148.1690 C   0  0  0  0  0  2  0  0  0  0  0  0
  159.9870  201.3450  145.6330 O   0  0  0  0  0  0  0  0  0  0  0  0
  2  1  1  0  0  0  0
  2 18  1  6  0  0  0
  3  7  1  1  0  0  0
  3  5  1  0  0  0  0
  3  6  1  0  0  0  0
  4 16  1  1  0  0  0
  4  5  1  0  0  0  0
  4  8  1  0  0  0  0
  6  9  1  1  0  0  0
  6  2  1  0  0  0  0
  8  1  1  0  0  0  0
 10  7  1  0  0  0  0
 10 11  1  0  0  0  0
 10 31  1  1  0  0  0
 11  9  1  0  0  0  0
 12 13  1  0  0  0  0
 14 15  1  0  0  0  0
 15 16  1  0  0  0  0
 16 13  2  0  0  0  0
 17 15  1  0  0  0  0
 17 12  1  0  0  0  0
 18 19  1  0  0  0  0
 19 20  1  0  0  0  0
 20 21  1  0  0  0  0
 23 21  1  6  0  0  0
 23 22  1  0  0  0  0
 24 25  1  0  0  0  0
 24 23  1  0  0  0  0
 24 22  1  0  0  0  0
 26 30  1  1  0  0  0
 26 29  1  0  0  0  0
 27 29  1  0  0  0  0
 28 27  1  0  0  0  0
 28 26  1  0  0  0  0
 29 25  1  1  0  0  0
 32 31  1  0  0  0  0
 33 32  1  0  0  0  0
 34 37  1  0  0  0  0
 35 36  2  0  0  0  0
 36 34  1  0  0  0  0
 37 33  1  0  0  0  0
 38 36  2  0  0  0  0
M  END
>  <MODEL>
6

>  <REMARK>
 VINA RESULT:      -4.4      3.348      7.650
  Name = 
  12 active torsions:
  status: ('A' for Active; 'I' for Inactive)
    1  A    between atoms: O_1  and  C_16
    2  A    between atoms: O_1  and  C_34
    3  A    between atoms: C_3  and  C_8
    4  A    between atoms: C_8  and  C_12
    5  A    between atoms: C_10  and  C_30
    6  A    between atoms: C_12  and  C_17
    7  A    between atoms: C_16  and  C_27
    8  A    between atoms: C_17  and  N_24
    9  A    between atoms: C_20  and  N_24
   10  A    between atoms: N_23  and  C_37
   11  A    between atoms: C_27  and  C_29
   12  A    between atoms: C_35  and  C_37
                            x       y       z     vdW  Elec       q    Type
                         _______ _______ _______ _____ _____    ______ ____

>  <TORSDO>
F 12

$$$$
=
 OpenBabel11072410453D

 38 42  0  0  1  0  0  0  0  0999 V2000
  161.1660  207.3450  155.0580 C   0  0  0  0  0  2  0  0  0  0  0  0
  161.6240  206.5610  153.8130 C   0  0  2  0  0  3  0  0  0  0  0  0
  161.1580  208.4820  152.0980 C   0  0  1  0  0  3  0  0  0  0  0  0
  160.8490  209.6630  154.0070 C   0  0  2  0  0  3  0  0  0  0  0  0
  160.1970  208.8640  153.0480 O   0  0  0  0  0  0  0  0  0  0  0  0
  162.1700  207.4490  152.6690 C   0  0  2  0  0  3  0  0  0  0  0  0
  160.4540  207.9290  150.8590 C   0  0  0  0  0  2  0  0  0  0  0  0
  161.5750  208.8220  155.0750 C   0  0  0  0  0  2  0  0  0  0  0  0
  162.9130  206.6330  151.6020 C   0  0  0  0  0  2  0  0  0  0  0  0
  161.4290  207.5030  149.7520 C   0  0  1  0  0  3  0  0  0  0  0  0
  162.8750  207.3250  150.2430 C   0  0  0  0  0  2  0  0  0  0  0  0
  158.4800  211.4900  156.1050 O   0  0  0  0  0  0  0  0  0  0  0  0
  159.3240  210.4150  155.8460 C   0  0  0  0  0  3  0  0  0  0  0  0
  159.5820  212.1990  152.6910 C   0  0  0  0  0  1  0  0  0  0  0  0
  159.4290  211.8100  154.0820 N   0  0  0  0  0  0  0  0  0  0  0  0
  159.8690  210.5900  154.6550 C   0  0  0  0  0  0  0  0  0  0  0  0
  158.4800  212.3980  155.0090 C   0  0  0  0  0  2  0  0  0  0  0  0
  160.4790  205.6600  153.3550 C   0  0  0  0  0  2  0  0  0  0  0  0
  160.9830  204.2960  152.9090 C   0  0  0  0  0  2  0  0  0  0  0  0
  160.4300  203.9320  151.5390 C   0  0  0  0  0  2  0  0  0  0  0  0
  161.1570  202.7990  150.9860 N   0  0  0  0  0  2  0  0  0  0  0  0
  160.6240  203.0810  148.7710 O   0  0  0  0  0  0  0  0  0  0  0  0
  160.3900  202.3000  149.8570 C   0  0  1  0  0  3  0  0  0  0  0  0
  161.2890  201.8660  148.8160 N   0  0  0  0  0  0  0  0  0  0  0  0
  160.5420  200.9520  147.9710 C   0  0  0  0  0  2  0  0  0  0  0  0
  160.3640  201.3900  145.4380 C   0  0  2  0  0  3  0  0  0  0  0  0
  161.2030  199.1340  146.0160 S   0  0  0  0  0  0  0  0  0  0  0  0
  160.2500  200.0420  144.7620 C   0  0  0  0  0  2  0  0  0  0  0  0
  161.2040  200.8560  146.5990 C   0  0  2  0  0  3  0  0  0  0  0  0
  159.0410  201.8370  145.8520 N   0  0  0  0  0  1  0  0  0  0  0  0
  160.9160  206.2180  149.1230 C   0  0  0  0  0  2  0  0  0  0  0  0
  160.4550  206.4610  147.6970 C   0  0  0  0  0  2  0  0  0  0  0  0
  161.4900  206.1470  146.8170 O   0  0  0  0  0  0  0  0  0  0  0  0
  159.8820  205.7650  145.3190 O   0  0  0  0  0  0  0  0  0  0  0  0
  162.3450  204.0530  145.1490 O   0  0  0  0  0  0  0  0  0  0  0  0
  161.2110  205.0780  144.4230 P   0  0  0  0  0  0  0  0  0  0  0  0
  160.9980  206.4740  145.5530 C   0  0  0  0  0  2  0  0  0  0  0  0
  161.5740  205.6720  143.0830 O   0  0  0  0  0  0  0  0  0  0  0  0
  1  8  1  0  0  0  0
  2 18  1  6  0  0  0
  2  1  1  0  0  0  0
  3  7  1  6  0  0  0
  3  6  1  0  0  0  0
  3  5  1  0  0  0  0
  4 16  1  1  0  0  0
  4  8  1  0  0  0  0
  5  4  1  0  0  0  0
  6  9  1  6  0  0  0
  6  2  1  0  0  0  0
 10 31  1  1  0  0  0
 10 11  1  0  0  0  0
 10  7  1  0  0  0  0
 11  9  1  0  0  0  0
 13 12  1  0  0  0  0
 14 15  1  0  0  0  0
 15 16  1  0  0  0  0
 15 17  1  0  0  0  0
 16 13  2  0  0  0  0
 17 12  1  0  0  0  0
 19 18  1  0  0  0  0
 20 19  1  0  0  0  0
 21 20  1  0  0  0  0
 22 24  1  0  0  0  0
 22 23  1  0  0  0  0
 23 21  1  1  0  0  0
 24 23  1  0  0  0  0
 25 24  1  0  0  0  0
 26 30  1  1  0  0  0
 26 29  1  0  0  0  0
 27 29  1  0  0  0  0
 28 26  1  0  0  0  0
 28 27  1  0  0  0  0
 29 25  1  1  0  0  0
 32 31  1  0  0  0  0
 33 32  1  0  0  0  0
 34 37  1  0  0  0  0
 36 35  2  0  0  0  0
 36 34  1  0  0  0  0
 37 33  1  0  0  0  0
 38 36  2  0  0  0  0
M  END
>  <MODEL>
7

>  <REMARK>
 VINA RESULT:      -4.1      3.902      9.342
  Name = 
  12 active torsions:
  status: ('A' for Active; 'I' for Inactive)
    1  A    between atoms: O_1  and  C_16
    2  A    between atoms: O_1  and  C_34
    3  A    between atoms: C_3  and  C_8
    4  A    between atoms: C_8  and  C_12
    5  A    between atoms: C_10  and  C_30
    6  A    between atoms: C_12  and  C_17
    7  A    between atoms: C_16  and  C_27
    8  A    between atoms: C_17  and  N_24
    9  A    between atoms: C_20  and  N_24
   10  A    between atoms: N_23  and  C_37
   11  A    between atoms: C_27  and  C_29
   12  A    between atoms: C_35  and  C_37
                            x       y       z     vdW  Elec       q    Type
                         _______ _______ _______ _____ _____    ______ ____

>  <TORSDO>
F 12

$$$$
=
 OpenBabel11072410453D

 38 42  0  0  1  0  0  0  0  0999 V2000
  162.0770  209.6820  151.5170 C   0  0  0  0  0  2  0  0  0  0  0  0
  162.1930  208.2200  151.0430 C   0  0  2  0  0  3  0  0  0  0  0  0
  161.9450  208.7430  148.4910 C   0  0  1  0  0  3  0  0  0  0  0  0
  162.1430  210.8710  149.2450 C   0  0  2  0  0  3  0  0  0  0  0  0
  161.2170  209.8480  148.9630 O   0  0  0  0  0  0  0  0  0  0  0  0
  162.7710  208.0590  149.6160 C   0  0  2  0  0  3  0  0  0  0  0  0
  160.9880  207.7480  147.8360 C   0  0  0  0  0  2  0  0  0  0  0  0
  162.7970  210.7050  150.6310 C   0  0  0  0  0  2  0  0  0  0  0  0
  163.1790  206.6110  149.3130 C   0  0  0  0  0  2  0  0  0  0  0  0
  161.7000  206.5110  147.2680 C   0  0  1  0  0  3  0  0  0  0  0  0
  163.1220  206.3160  147.8180 C   0  0  0  0  0  2  0  0  0  0  0  0
  160.1830  213.9400  149.5480 O   0  0  0  0  0  0  0  0  0  0  0  0
  160.5410  212.6590  149.9570 C   0  0  0  0  0  3  0  0  0  0  0  0
  162.5650  212.9540  146.9540 C   0  0  0  0  0  1  0  0  0  0  0  0
  161.8030  213.1860  148.1690 N   0  0  0  0  0  0  0  0  0  0  0  0
  161.4770  212.2080  149.1420 C   0  0  0  0  0  0  0  0  0  0  0  0
  160.9300  214.3220  148.3970 C   0  0  0  0  0  2  0  0  0  0  0  0
  160.8310  207.5470  151.2000 C   0  0  0  0  0  2  0  0  0  0  0  0
  160.9050  206.3430  152.1260 C   0  0  0  0  0  2  0  0  0  0  0  0
  161.4810  206.7310  153.4790 C   0  0  0  0  0  2  0  0  0  0  0  0
  160.4090  206.9930  154.4280 N   0  0  0  0  0  2  0  0  0  0  0  0
  161.6160  208.9350  154.6220 O   0  0  0  0  0  0  0  0  0  0  0  0
  160.8660  208.0450  155.3210 C   0  0  1  0  0  3  0  0  0  0  0  0
  160.3120  209.3090  154.9010 N   0  0  0  0  0  0  0  0  0  0  0  0
  160.3690  210.1940  156.0500 C   0  0  0  0  0  2  0  0  0  0  0  0
  158.9330  212.3290  155.9080 C   0  0  2  0  0  3  0  0  0  0  0  0
  160.0580  211.7260  153.7870 S   0  0  0  0  0  0  0  0  0  0  0  0
  158.5640  212.5190  154.4540 C   0  0  0  0  0  2  0  0  0  0  0  0
  160.2640  211.6470  155.5910 C   0  0  2  0  0  3  0  0  0  0  0  0
  157.9710  211.4350  156.5390 N   0  0  0  0  0  1  0  0  0  0  0  0
  160.8450  205.2870  147.5520 C   0  0  0  0  0  2  0  0  0  0  0  0
  161.5240  204.0260  147.0500 C   0  0  0  0  0  2  0  0  0  0  0  0
  161.9300  203.2560  148.1380 O   0  0  0  0  0  0  0  0  0  0  0  0
  161.2070  202.8770  150.2150 O   0  0  0  0  0  0  0  0  0  0  0  0
  161.3560  200.5130  148.3650 O   0  0  0  0  0  0  0  0  0  0  0  0
  160.4930  201.4790  149.4540 P   0  0  0  0  0  0  0  0  0  0  0  0
  160.8120  203.1920  148.9710 C   0  0  0  0  0  2  0  0  0  0  0  0
  158.9910  201.3200  149.4780 O   0  0  0  0  0  0  0  0  0  0  0  0
  2 18  1  6  0  0  0
  2  1  1  0  0  0  0
  3  7  1  1  0  0  0
  3  5  1  0  0  0  0
  3  6  1  0  0  0  0
  4 16  1  1  0  0  0
  4  8  1  0  0  0  0
  5  4  1  0  0  0  0
  6  9  1  6  0  0  0
  6  2  1  0  0  0  0
  8  1  1  0  0  0  0
 10 31  1  1  0  0  0
 10 11  1  0  0  0  0
 10  7  1  0  0  0  0
 11  9  1  0  0  0  0
 12 13  1  0  0  0  0
 14 15  1  0  0  0  0
 15 17  1  0  0  0  0
 15 16  1  0  0  0  0
 16 13  2  0  0  0  0
 17 12  1  0  0  0  0
 18 19  1  0  0  0  0
 19 20  1  0  0  0  0
 20 21  1  0  0  0  0
 22 24  1  0  0  0  0
 22 23  1  0  0  0  0
 23 21  1  6  0  0  0
 24 23  1  0  0  0  0
 24 25  1  0  0  0  0
 26 30  1  6  0  0  0
 27 28  1  0  0  0  0
 27 29  1  0  0  0  0
 28 26  1  0  0  0  0
 29 26  1  0  0  0  0
 29 25  1  1  0  0  0
 32 31  1  0  0  0  0
 32 33  1  0  0  0  0
 33 37  1  0  0  0  0
 35 36  2  0  0  0  0
 36 38  2  0  0  0  0
 36 34  1  0  0  0  0
 37 34  1  0  0  0  0
M  END
>  <MODEL>
8

>  <REMARK>
 VINA RESULT:      -4.1      3.222      7.541
  Name = 
  12 active torsions:
  status: ('A' for Active; 'I' for Inactive)
    1  A    between atoms: O_1  and  C_16
    2  A    between atoms: O_1  and  C_34
    3  A    between atoms: C_3  and  C_8
    4  A    between atoms: C_8  and  C_12
    5  A    between atoms: C_10  and  C_30
    6  A    between atoms: C_12  and  C_17
    7  A    between atoms: C_16  and  C_27
    8  A    between atoms: C_17  and  N_24
    9  A    between atoms: C_20  and  N_24
   10  A    between atoms: N_23  and  C_37
   11  A    between atoms: C_27  and  C_29
   12  A    between atoms: C_35  and  C_37
                            x       y       z     vdW  Elec       q    Type
                         _______ _______ _______ _____ _____    ______ ____

>  <TORSDO>
F 12

$$$$
=
 OpenBabel11072410453D

 38 42  0  0  1  0  0  0  0  0999 V2000
  161.3580  209.4050  151.5960 C   0  0  0  0  0  2  0  0  0  0  0  0
  161.1920  208.1610  150.7020 C   0  0  2  0  0  3  0  0  0  0  0  0
  161.0890  206.4320  152.6640 C   0  0  1  0  0  3  0  0  0  0  0  0
  160.9760  208.3320  153.8940 C   0  0  2  0  0  3  0  0  0  0  0  0
  161.8640  207.3970  153.3280 O   0  0  0  0  0  0  0  0  0  0  0  0
  160.4290  206.9940  151.3740 C   0  0  2  0  0  3  0  0  0  0  0  0
  161.9580  205.2160  152.3470 C   0  0  0  0  0  2  0  0  0  0  0  0
  160.5160  209.3950  152.8770 C   0  0  0  0  0  2  0  0  0  0  0  0
  159.9970  205.9220  150.3640 C   0  0  0  0  0  2  0  0  0  0  0  0
  161.1880  204.0930  151.6360 C   0  0  1  0  0  3  0  0  0  0  0  0
  159.8540  204.5560  151.0260 C   0  0  0  0  0  2  0  0  0  0  0  0
  162.7570  210.3810  156.3400 O   0  0  0  0  0  0  0  0  0  0  0  0
  162.3700  210.0670  155.0400 C   0  0  0  0  0  3  0  0  0  0  0  0
  160.9080  207.2640  156.8310 C   0  0  0  0  0  1  0  0  0  0  0  0
  161.4330  208.5550  156.4180 N   0  0  0  0  0  0  0  0  0  0  0  0
  161.6090  208.9890  155.0810 C   0  0  0  0  0  0  0  0  0  0  0  0
  162.2180  209.4380  157.2600 C   0  0  0  0  0  2  0  0  0  0  0  0
  162.5690  207.7390  150.1930 C   0  0  0  0  0  2  0  0  0  0  0  0
  162.6980  207.9470  148.6920 C   0  0  0  0  0  2  0  0  0  0  0  0
  163.0240  209.3970  148.3680 C   0  0  0  0  0  2  0  0  0  0  0  0
  161.7990  210.1700  148.2270 N   0  0  0  0  0  2  0  0  0  0  0  0
  162.4510  212.2510  147.5090 O   0  0  0  0  0  0  0  0  0  0  0  0
  162.1030  211.5390  148.6120 C   0  0  1  0  0  3  0  0  0  0  0  0
  161.1630  212.4360  147.9860 N   0  0  0  0  0  0  0  0  0  0  0  0
  161.1780  213.6650  148.7590 C   0  0  0  0  0  2  0  0  0  0  0  0
  158.9760  214.1740  149.9960 C   0  0  2  0  0  3  0  0  0  0  0  0
  158.6670  213.3440  147.6830 S   0  0  0  0  0  0  0  0  0  0  0  0
  157.8940  213.3550  149.3290 C   0  0  0  0  0  2  0  0  0  0  0  0
  159.8010  214.3210  148.7160 C   0  0  2  0  0  3  0  0  0  0  0  0
  159.6390  213.3660  151.0100 N   0  0  0  0  0  1  0  0  0  0  0  0
  162.0840  203.4920  150.5660 C   0  0  0  0  0  2  0  0  0  0  0  0
  161.2580  202.8230  149.4830 C   0  0  0  0  0  2  0  0  0  0  0  0
  161.9420  202.8940  148.2700 O   0  0  0  0  0  0  0  0  0  0  0  0
  161.2240  202.7600  146.1620 O   0  0  0  0  0  0  0  0  0  0  0  0
  163.2740  204.8690  146.7770 O   0  0  0  0  0  0  0  0  0  0  0  0
  161.7830  204.4110  146.1190 P   0  0  0  0  0  0  0  0  0  0  0  0
  160.9960  203.3440  147.3490 C   0  0  0  0  0  2  0  0  0  0  0  0
  160.7920  205.5110  145.8190 O   0  0  0  0  0  0  0  0  0  0  0  0
  1  8  1  0  0  0  0
  2 18  1  1  0  0  0
  2  6  1  0  0  0  0
  2  1  1  0  0  0  0
  3  7  1  6  0  0  0
  3  5  1  0  0  0  0
  4 16  1  1  0  0  0
  5  4  1  0  0  0  0
  6  9  1  6  0  0  0
  6  3  1  0  0  0  0
  8  4  1  0  0  0  0
  9 11  1  0  0  0  0
 10 31  1  6  0  0  0
 10  7  1  0  0  0  0
 11 10  1  0  0  0  0
 12 17  1  0  0  0  0
 13 16  2  0  0  0  0
 13 12  1  0  0  0  0
 15 14  1  0  0  0  0
 15 17  1  0  0  0  0
 16 15  1  0  0  0  0
 19 18  1  0  0  0  0
 20 19  1  0  0  0  0
 21 20  1  0  0  0  0
 22 24  1  0  0  0  0
 22 23  1  0  0  0  0
 23 21  1  6  0  0  0
 24 23  1  0  0  0  0
 24 25  1  0  0  0  0
 26 30  1  1  0  0  0
 27 29  1  0  0  0  0
 27 28  1  0  0  0  0
 28 26  1  0  0  0  0
 29 25  1  1  0  0  0
 29 26  1  0  0  0  0
 32 31  1  0  0  0  0
 33 32  1  0  0  0  0
 34 37  1  0  0  0  0
 36 34  1  0  0  0  0
 36 35  2  0  0  0  0
 37 33  1  0  0  0  0
 38 36  2  0  0  0  0
M  END
>  <MODEL>
9

>  <REMARK>
 VINA RESULT:      -4.0      3.273      7.991
  Name = 
  12 active torsions:
  status: ('A' for Active; 'I' for Inactive)
    1  A    between atoms: O_1  and  C_16
    2  A    between atoms: O_1  and  C_34
    3  A    between atoms: C_3  and  C_8
    4  A    between atoms: C_8  and  C_12
    5  A    between atoms: C_10  and  C_30
    6  A    between atoms: C_12  and  C_17
    7  A    between atoms: C_16  and  C_27
    8  A    between atoms: C_17  and  N_24
    9  A    between atoms: C_20  and  N_24
   10  A    between atoms: N_23  and  C_37
   11  A    between atoms: C_27  and  C_29
   12  A    between atoms: C_35  and  C_37
                            x       y       z     vdW  Elec       q    Type
                         _______ _______ _______ _____ _____    ______ ____

>  <TORSDO>
F 12

$$$$
