=
 OpenBabel11072414393D

 26 30  0  0  1  0  0  0  0  0999 V2000
  161.0640  205.2850  151.3950 C   0  0  0  0  0  0  0  0  0  0  0  0
  161.0930  202.9660  152.1560 C   0  0  0  0  0  3  0  0  0  0  0  0
  160.7640  201.2870  150.3630 O   0  0  0  0  0  0  0  0  0  0  0  0
  160.8580  204.8570  150.0720 C   0  0  0  0  0  3  0  0  0  0  0  0
  160.7750  203.4860  149.8220 C   0  0  0  0  0  0  0  0  0  0  0  0
  160.5350  201.3010  148.9530 C   0  0  0  0  0  2  0  0  0  0  0  0
  160.6010  202.7830  148.5200 C   0  0  2  0  0  3  0  0  0  0  0  0
  161.1900  204.3390  152.4320 C   0  0  0  0  0  3  0  0  0  0  0  0
  160.8830  202.5760  150.8330 C   0  0  0  0  0  0  0  0  0  0  0  0
  161.1620  206.6770  151.6810 N   0  0  0  0  0  0  0  0  0  0  0  0
  161.5100  207.9860  151.3040 C   0  0  0  0  0  0  0  0  0  0  0  0
  160.7640  208.6750  153.5450 C   0  0  0  0  0  3  0  0  0  0  0  0
  160.9970  207.7610  152.5600 C   0  0  0  0  0  0  0  0  0  0  0  0
  161.9000  209.1770  150.7700 C   0  0  0  0  0  3  0  0  0  0  0  0
  161.1500  209.9900  153.0900 C   0  0  0  0  0  0  0  0  0  0  0  0
  161.6960  210.2180  151.7440 C   0  0  0  0  0  3  0  0  0  0  0  0
  161.6800  211.1410  155.1750 O   0  0  0  0  0  0  0  0  0  0  0  0
  160.2500  212.0580  153.6780 O   0  0  0  0  0  0  0  0  0  0  0  0
  160.9980  211.1050  153.9800 N   0  0  0  0  0  0  0  0  0  0  0  0
  161.7850  202.9720  147.6910 N   0  0  0  0  0  2  0  0  0  0  0  0
  161.6440  205.2070  144.5790 C   0  0  0  0  0  0  0  0  0  0  0  0
  162.5450  205.1220  146.6390 C   0  0  0  0  0  3  0  0  0  0  0  0
  161.0700  203.7320  145.1470 S   0  0  0  0  0  0  0  0  0  0  0  0
  161.8560  203.9140  146.6190 C   0  0  0  0  0  0  0  0  0  0  0  0
  161.3340  205.7710  143.2370 C   0  0  0  0  0  1  0  0  0  0  0  0
  162.4210  205.8360  145.4870 N   0  0  0  0  0  0  0  0  0  0  0  0
  1 10  1  0  0  0  0
  1  8  1  0  0  0  0
  2  8  2  0  0  0  0
  3  9  1  0  0  0  0
  4  1  2  0  0  0  0
  5  4  1  0  0  0  0
  5  9  2  0  0  0  0
  6  3  1  0  0  0  0
  7 20  1  6  0  0  0
  7  6  1  0  0  0  0
  7  5  1  0  0  0  0
  9  2  1  0  0  0  0
 10 13  1  0  0  0  0
 11 10  1  0  0  0  0
 11 13  1  0  0  0  0
 13 12  2  0  0  0  0
 14 11  2  0  0  0  0
 14 16  1  0  0  0  0
 15 12  1  0  0  0  0
 15 19  1  0  0  0  0
 16 15  2  0  0  0  0
 18 19  2  0  0  0  0
 19 17  2  0  0  0  0
 21 23  1  0  0  0  0
 21 26  2  0  0  0  0
 23 24  1  0  0  0  0
 24 22  2  0  0  0  0
 24 20  1  0  0  0  0
 25 21  1  0  0  0  0
 26 22  1  0  0  0  0
M  END
>  <MODEL>
1

>  <REMARK>
 VINA RESULT:      -9.0      0.000      0.000
  Name = 
  4 active torsions:
  status: ('A' for Active; 'I' for Inactive)
    1  A    between atoms: C_2  and  N_6
    2  A    between atoms: C_15  and  N_24
    3  A    between atoms: C_16  and  N_17
    4  A    between atoms: N_17  and  C_22
                            x       y       z     vdW  Elec       q    Type
                         _______ _______ _______ _____ _____    ______ ____

>  <TORSDO>
F 4

$$$$
=
 OpenBabel11072414393D

 26 30  0  0  1  0  0  0  0  0999 V2000
  161.1590  206.1590  151.7940 C   0  0  0  0  0  0  0  0  0  0  0  0
  161.1780  206.4240  154.2210 C   0  0  0  0  0  3  0  0  0  0  0  0
  161.1430  208.7750  155.0040 O   0  0  0  0  0  0  0  0  0  0  0  0
  161.1250  207.5550  151.6350 C   0  0  0  0  0  3  0  0  0  0  0  0
  161.1170  208.3560  152.7790 C   0  0  0  0  0  0  0  0  0  0  0  0
  161.1320  210.0710  154.4050 C   0  0  0  0  0  2  0  0  0  0  0  0
  161.0460  209.8410  152.8790 C   0  0  2  0  0  3  0  0  0  0  0  0
  161.1770  205.5970  153.0860 C   0  0  0  0  0  3  0  0  0  0  0  0
  161.1490  207.8050  154.0260 C   0  0  0  0  0  0  0  0  0  0  0  0
  161.1600  205.3150  150.6470 N   0  0  0  0  0  0  0  0  0  0  0  0
  160.9960  204.0510  150.0540 C   0  0  0  0  0  0  0  0  0  0  0  0
  161.5590  205.1400  147.9210 C   0  0  0  0  0  3  0  0  0  0  0  0
  161.3410  205.1240  149.2670 C   0  0  0  0  0  0  0  0  0  0  0  0
  160.7970  202.7630  149.6570 C   0  0  0  0  0  3  0  0  0  0  0  0
  161.3810  203.8110  147.3840 C   0  0  0  0  0  0  0  0  0  0  0  0
  161.0100  202.6710  148.2360 C   0  0  0  0  0  3  0  0  0  0  0  0
  160.8520  202.6360  145.3120 O   0  0  0  0  0  0  0  0  0  0  0  0
  162.3970  204.2900  145.3420 O   0  0  0  0  0  0  0  0  0  0  0  0
  161.5740  203.5990  145.9780 N   0  0  0  0  0  0  0  0  0  0  0  0
  159.7470  210.3090  152.4110 N   0  0  0  0  0  2  0  0  0  0  0  0
  158.0050  213.4930  153.6450 C   0  0  0  0  0  0  0  0  0  0  0  0
  159.6230  212.8110  152.2390 C   0  0  0  0  0  3  0  0  0  0  0  0
  157.9630  211.8240  153.8520 S   0  0  0  0  0  0  0  0  0  0  0  0
  159.2010  211.5860  152.7440 C   0  0  0  0  0  0  0  0  0  0  0  0
  157.1220  214.4530  154.3620 C   0  0  0  0  0  1  0  0  0  0  0  0
  158.9420  213.8730  152.7490 N   0  0  0  0  0  0  0  0  0  0  0  0
  1  8  1  0  0  0  0
  4  1  2  0  0  0  0
  4  5  1  0  0  0  0
  5  7  1  0  0  0  0
  5  9  2  0  0  0  0
  6  3  1  0  0  0  0
  7 20  1  1  0  0  0
  7  6  1  0  0  0  0
  8  2  2  0  0  0  0
  9  2  1  0  0  0  0
  9  3  1  0  0  0  0
 10  1  1  0  0  0  0
 11 10  1  0  0  0  0
 12 13  1  0  0  0  0
 13 11  2  0  0  0  0
 13 10  1  0  0  0  0
 14 11  1  0  0  0  0
 15 12  2  0  0  0  0
 15 16  1  0  0  0  0
 16 14  2  0  0  0  0
 17 19  2  0  0  0  0
 18 19  2  0  0  0  0
 19 15  1  0  0  0  0
 20 24  1  0  0  0  0
 21 23  1  0  0  0  0
 21 25  1  0  0  0  0
 22 24  2  0  0  0  0
 22 26  1  0  0  0  0
 24 23  1  0  0  0  0
 26 21  2  0  0  0  0
M  END
>  <MODEL>
2

>  <REMARK>
 VINA RESULT:      -8.7      3.617      8.747
  Name = 
  4 active torsions:
  status: ('A' for Active; 'I' for Inactive)
    1  A    between atoms: C_2  and  N_6
    2  A    between atoms: C_15  and  N_24
    3  A    between atoms: C_16  and  N_17
    4  A    between atoms: N_17  and  C_22
                            x       y       z     vdW  Elec       q    Type
                         _______ _______ _______ _____ _____    ______ ____

>  <TORSDO>
F 4

$$$$
=
 OpenBabel11072414393D

 26 30  0  0  1  0  0  0  0  0999 V2000
  161.0320  207.0440  152.3060 C   0  0  0  0  0  0  0  0  0  0  0  0
  161.1200  207.4810  154.7060 C   0  0  0  0  0  3  0  0  0  0  0  0
  160.9000  209.8690  155.3290 O   0  0  0  0  0  0  0  0  0  0  0  0
  160.8640  208.4170  152.0540 C   0  0  0  0  0  3  0  0  0  0  0  0
  160.8270  209.2920  153.1400 C   0  0  0  0  0  0  0  0  0  0  0  0
  160.7470  211.1140  154.6450 C   0  0  0  0  0  2  0  0  0  0  0  0
  160.6240  210.7690  153.1430 C   0  0  2  0  0  3  0  0  0  0  0  0
  161.1500  206.5780  153.6300 C   0  0  0  0  0  3  0  0  0  0  0  0
  160.9570  208.8370  154.4200 C   0  0  0  0  0  0  0  0  0  0  0  0
  161.0650  206.1240  151.2190 N   0  0  0  0  0  0  0  0  0  0  0  0
  161.2020  205.8500  149.8470 C   0  0  0  0  0  0  0  0  0  0  0  0
  160.8440  203.4870  150.4310 C   0  0  0  0  0  3  0  0  0  0  0  0
  160.9680  204.8140  150.7200 C   0  0  0  0  0  0  0  0  0  0  0  0
  161.3610  205.7750  148.4960 C   0  0  0  0  0  3  0  0  0  0  0  0
  160.9890  203.2840  149.0080 C   0  0  0  0  0  0  0  0  0  0  0  0
  161.2410  204.4000  148.0850 C   0  0  0  0  0  3  0  0  0  0  0  0
  160.8510  201.7400  147.1240 O   0  0  0  0  0  0  0  0  0  0  0  0
  160.8170  200.9720  149.2530 O   0  0  0  0  0  0  0  0  0  0  0  0
  160.8800  201.9530  148.4830 N   0  0  0  0  0  0  0  0  0  0  0  0
  159.2710  211.0850  152.7040 N   0  0  0  0  0  2  0  0  0  0  0  0
  156.8150  213.1660  154.7870 C   0  0  0  0  0  0  0  0  0  0  0  0
  158.4180  213.3890  153.2240 C   0  0  0  0  0  3  0  0  0  0  0  0
  157.2750  211.5680  154.5310 S   0  0  0  0  0  0  0  0  0  0  0  0
  158.4160  212.0080  153.3820 C   0  0  0  0  0  0  0  0  0  0  0  0
  155.7680  213.5960  155.7520 C   0  0  0  0  0  1  0  0  0  0  0  0
  157.5130  214.0270  154.0150 N   0  0  0  0  0  0  0  0  0  0  0  0
  1  8  1  0  0  0  0
  4  1  2  0  0  0  0
  4  5  1  0  0  0  0
  5  7  1  0  0  0  0
  5  9  2  0  0  0  0
  6  3  1  0  0  0  0
  7 20  1  1  0  0  0
  7  6  1  0  0  0  0
  8  2  2  0  0  0  0
  9  2  1  0  0  0  0
  9  3  1  0  0  0  0
 10  1  1  0  0  0  0
 11 13  1  0  0  0  0
 11 10  1  0  0  0  0
 12 13  2  0  0  0  0
 13 10  1  0  0  0  0
 14 11  2  0  0  0  0
 15 12  1  0  0  0  0
 16 14  1  0  0  0  0
 16 15  2  0  0  0  0
 17 19  2  0  0  0  0
 19 15  1  0  0  0  0
 19 18  2  0  0  0  0
 20 24  1  0  0  0  0
 21 25  1  0  0  0  0
 22 24  2  0  0  0  0
 22 26  1  0  0  0  0
 23 21  1  0  0  0  0
 24 23  1  0  0  0  0
 26 21  2  0  0  0  0
M  END
>  <MODEL>
3

>  <REMARK>
 VINA RESULT:      -8.5      3.615      9.141
  Name = 
  4 active torsions:
  status: ('A' for Active; 'I' for Inactive)
    1  A    between atoms: C_2  and  N_6
    2  A    between atoms: C_15  and  N_24
    3  A    between atoms: C_16  and  N_17
    4  A    between atoms: N_17  and  C_22
                            x       y       z     vdW  Elec       q    Type
                         _______ _______ _______ _____ _____    ______ ____

>  <TORSDO>
F 4

$$$$
=
 OpenBabel11072414393D

 26 30  0  0  1  0  0  0  0  0999 V2000
  161.2910  205.7570  150.7230 C   0  0  0  0  0  0  0  0  0  0  0  0
  161.4060  203.6860  152.0110 C   0  0  0  0  0  3  0  0  0  0  0  0
  160.8550  201.6400  150.7260 O   0  0  0  0  0  0  0  0  0  0  0  0
  160.9240  205.0320  149.5760 C   0  0  0  0  0  3  0  0  0  0  0  0
  160.8070  203.6450  149.6750 C   0  0  0  0  0  0  0  0  0  0  0  0
  160.4550  201.3240  149.3910 C   0  0  0  0  0  2  0  0  0  0  0  0
  160.4720  202.6570  148.6090 C   0  0  2  0  0  3  0  0  0  0  0  0
  161.5400  205.0820  151.9350 C   0  0  0  0  0  3  0  0  0  0  0  0
  161.0350  202.9990  150.8550 C   0  0  0  0  0  0  0  0  0  0  0  0
  161.4270  207.1730  150.6530 N   0  0  0  0  0  0  0  0  0  0  0  0
  161.3900  208.4400  151.2600 C   0  0  0  0  0  0  0  0  0  0  0  0
  161.9560  209.3560  149.0480 C   0  0  0  0  0  3  0  0  0  0  0  0
  161.6820  208.3440  149.9200 C   0  0  0  0  0  0  0  0  0  0  0  0
  161.3100  209.5750  152.0110 C   0  0  0  0  0  3  0  0  0  0  0  0
  161.8930  210.6230  149.7380 C   0  0  0  0  0  0  0  0  0  0  0  0
  161.5810  210.7130  151.1720 C   0  0  0  0  0  3  0  0  0  0  0  0
  161.2800  212.8970  149.1030 O   0  0  0  0  0  0  0  0  0  0  0  0
  163.1400  211.9220  148.2580 O   0  0  0  0  0  0  0  0  0  0  0  0
  162.1390  211.8280  148.9990 N   0  0  0  0  0  0  0  0  0  0  0  0
  161.5460  202.6050  147.6250 N   0  0  0  0  0  2  0  0  0  0  0  0
  161.6720  205.0800  144.7010 C   0  0  0  0  0  0  0  0  0  0  0  0
  162.6820  204.6260  146.6590 C   0  0  0  0  0  3  0  0  0  0  0  0
  160.8310  203.7180  145.2160 S   0  0  0  0  0  0  0  0  0  0  0  0
  161.7440  203.6000  146.6190 C   0  0  0  0  0  0  0  0  0  0  0  0
  161.3970  205.8110  143.4340 C   0  0  0  0  0  1  0  0  0  0  0  0
  162.6340  205.4470  145.5750 N   0  0  0  0  0  0  0  0  0  0  0  0
  1  8  1  0  0  0  0
  3  9  1  0  0  0  0
  4  5  1  0  0  0  0
  4  1  2  0  0  0  0
  5  9  2  0  0  0  0
  6  3  1  0  0  0  0
  7 20  1  6  0  0  0
  7  6  1  0  0  0  0
  7  5  1  0  0  0  0
  8  2  2  0  0  0  0
  9  2  1  0  0  0  0
 10  1  1  0  0  0  0
 10 11  1  0  0  0  0
 11 14  1  0  0  0  0
 12 15  2  0  0  0  0
 12 13  1  0  0  0  0
 13 10  1  0  0  0  0
 13 11  2  0  0  0  0
 15 16  1  0  0  0  0
 16 14  2  0  0  0  0
 18 19  2  0  0  0  0
 19 17  2  0  0  0  0
 19 15  1  0  0  0  0
 21 23  1  0  0  0  0
 21 26  2  0  0  0  0
 23 24  1  0  0  0  0
 24 22  2  0  0  0  0
 24 20  1  0  0  0  0
 25 21  1  0  0  0  0
 26 22  1  0  0  0  0
M  END
>  <MODEL>
4

>  <REMARK>
 VINA RESULT:      -8.3      1.996      2.442
  Name = 
  4 active torsions:
  status: ('A' for Active; 'I' for Inactive)
    1  A    between atoms: C_2  and  N_6
    2  A    between atoms: C_15  and  N_24
    3  A    between atoms: C_16  and  N_17
    4  A    between atoms: N_17  and  C_22
                            x       y       z     vdW  Elec       q    Type
                         _______ _______ _______ _____ _____    ______ ____

>  <TORSDO>
F 4

$$$$
=
 OpenBabel11072414393D

 26 30  0  0  1  0  0  0  0  0999 V2000
  161.2070  206.4660  151.6060 C   0  0  0  0  0  0  0  0  0  0  0  0
  160.8320  206.9170  153.9760 C   0  0  0  0  0  3  0  0  0  0  0  0
  161.2800  209.2550  154.6650 O   0  0  0  0  0  0  0  0  0  0  0  0
  161.5810  207.8050  151.4020 C   0  0  0  0  0  3  0  0  0  0  0  0
  161.5690  208.6730  152.4960 C   0  0  0  0  0  0  0  0  0  0  0  0
  161.7330  210.4560  154.0390 C   0  0  0  0  0  2  0  0  0  0  0  0
  161.8820  210.1300  152.5360 C   0  0  2  0  0  3  0  0  0  0  0  0
  160.8250  206.0270  152.8900 C   0  0  0  0  0  3  0  0  0  0  0  0
  161.2130  208.2380  153.7390 C   0  0  0  0  0  0  0  0  0  0  0  0
  161.2010  205.5570  150.5100 N   0  0  0  0  0  0  0  0  0  0  0  0
  161.0350  204.2610  149.9910 C   0  0  0  0  0  0  0  0  0  0  0  0
  161.5790  205.2270  147.7950 C   0  0  0  0  0  3  0  0  0  0  0  0
  161.3720  205.2880  149.1410 C   0  0  0  0  0  0  0  0  0  0  0  0
  160.8350  202.9520  149.6700 C   0  0  0  0  0  3  0  0  0  0  0  0
  161.3990  203.8690  147.3360 C   0  0  0  0  0  0  0  0  0  0  0  0
  161.0370  202.7800  148.2540 C   0  0  0  0  0  3  0  0  0  0  0  0
  160.8890  202.5490  145.3490 O   0  0  0  0  0  0  0  0  0  0  0  0
  162.3700  204.2580  145.2530 O   0  0  0  0  0  0  0  0  0  0  0  0
  161.5830  203.5780  145.9430 N   0  0  0  0  0  0  0  0  0  0  0  0
  160.8710  210.8750  151.7960 N   0  0  0  0  0  2  0  0  0  0  0  0
  161.2760  212.9910  148.6250 C   0  0  0  0  0  0  0  0  0  0  0  0
  161.9550  211.0500  149.5380 C   0  0  0  0  0  3  0  0  0  0  0  0
  160.4720  213.0030  150.1030 S   0  0  0  0  0  0  0  0  0  0  0  0
  161.1220  211.5210  150.5470 C   0  0  0  0  0  0  0  0  0  0  0  0
  161.1830  214.0730  147.6070 C   0  0  0  0  0  1  0  0  0  0  0  0
  162.0300  211.8820  148.4630 N   0  0  0  0  0  0  0  0  0  0  0  0
  1  8  1  0  0  0  0
  4  1  2  0  0  0  0
  4  5  1  0  0  0  0
  5  7  1  0  0  0  0
  5  9  2  0  0  0  0
  6  3  1  0  0  0  0
  7 20  1  6  0  0  0
  7  6  1  0  0  0  0
  8  2  2  0  0  0  0
  9  2  1  0  0  0  0
  9  3  1  0  0  0  0
 10  1  1  0  0  0  0
 11 10  1  0  0  0  0
 12 13  1  0  0  0  0
 13 11  2  0  0  0  0
 13 10  1  0  0  0  0
 14 11  1  0  0  0  0
 15 12  2  0  0  0  0
 15 16  1  0  0  0  0
 16 14  2  0  0  0  0
 17 19  2  0  0  0  0
 18 19  2  0  0  0  0
 19 15  1  0  0  0  0
 21 23  1  0  0  0  0
 22 24  2  0  0  0  0
 23 24  1  0  0  0  0
 24 20  1  0  0  0  0
 25 21  1  0  0  0  0
 26 21  2  0  0  0  0
 26 22  1  0  0  0  0
M  END
>  <MODEL>
5

>  <REMARK>
 VINA RESULT:      -8.1      3.377      7.808
  Name = 
  4 active torsions:
  status: ('A' for Active; 'I' for Inactive)
    1  A    between atoms: C_2  and  N_6
    2  A    between atoms: C_15  and  N_24
    3  A    between atoms: C_16  and  N_17
    4  A    between atoms: N_17  and  C_22
                            x       y       z     vdW  Elec       q    Type
                         _______ _______ _______ _____ _____    ______ ____

>  <TORSDO>
F 4

$$$$
=
 OpenBabel11072414393D

 26 30  0  0  1  0  0  0  0  0999 V2000
  161.1740  206.9490  152.4590 C   0  0  0  0  0  0  0  0  0  0  0  0
  161.1990  206.8410  154.8980 C   0  0  0  0  0  3  0  0  0  0  0  0
  161.1430  209.0440  156.0290 O   0  0  0  0  0  0  0  0  0  0  0  0
  161.1250  208.3530  152.5140 C   0  0  0  0  0  3  0  0  0  0  0  0
  161.1130  208.9690  153.7670 C   0  0  0  0  0  0  0  0  0  0  0  0
  161.1170  210.4170  155.6350 C   0  0  0  0  0  2  0  0  0  0  0  0
  161.0280  210.4210  154.0920 C   0  0  2  0  0  3  0  0  0  0  0  0
  161.2010  206.1960  153.6500 C   0  0  0  0  0  3  0  0  0  0  0  0
  161.1550  208.2350  154.9150 C   0  0  0  0  0  0  0  0  0  0  0  0
  161.1780  206.2900  151.1960 N   0  0  0  0  0  0  0  0  0  0  0  0
  161.1810  205.1130  150.4270 C   0  0  0  0  0  0  0  0  0  0  0  0
  161.2240  206.5790  148.4510 C   0  0  0  0  0  3  0  0  0  0  0  0
  161.2020  206.3330  149.7920 C   0  0  0  0  0  0  0  0  0  0  0  0
  161.1800  203.8790  149.8490 C   0  0  0  0  0  3  0  0  0  0  0  0
  161.2330  205.3290  147.7270 C   0  0  0  0  0  0  0  0  0  0  0  0
  161.2090  204.0310  148.4170 C   0  0  0  0  0  3  0  0  0  0  0  0
  160.4460  206.2100  145.5930 O   0  0  0  0  0  0  0  0  0  0  0  0
  162.0500  204.6140  145.6650 O   0  0  0  0  0  0  0  0  0  0  0  0
  161.2680  205.3580  146.2930 N   0  0  0  0  0  0  0  0  0  0  0  0
  159.7220  210.9410  153.7040 N   0  0  0  0  0  2  0  0  0  0  0  0
  158.7520  213.4480  150.9710 C   0  0  0  0  0  0  0  0  0  0  0  0
  160.4390  212.0970  151.5940 C   0  0  0  0  0  3  0  0  0  0  0  0
  158.1330  212.7410  152.3660 S   0  0  0  0  0  0  0  0  0  0  0  0
  159.5220  211.8290  152.6030 C   0  0  0  0  0  0  0  0  0  0  0  0
  158.0290  214.4520  150.1450 C   0  0  0  0  0  1  0  0  0  0  0  0
  159.9940  213.0040  150.6820 N   0  0  0  0  0  0  0  0  0  0  0  0
  1  4  2  0  0  0  0
  1  8  1  0  0  0  0
  2  9  1  0  0  0  0
  4  5  1  0  0  0  0
  5  7  1  0  0  0  0
  5  9  2  0  0  0  0
  6  3  1  0  0  0  0
  7 20  1  1  0  0  0
  7  6  1  0  0  0  0
  8  2  2  0  0  0  0
  9  3  1  0  0  0  0
 10  1  1  0  0  0  0
 11 10  1  0  0  0  0
 12 13  1  0  0  0  0
 13 11  2  0  0  0  0
 13 10  1  0  0  0  0
 14 11  1  0  0  0  0
 15 16  1  0  0  0  0
 15 12  2  0  0  0  0
 16 14  2  0  0  0  0
 17 19  2  0  0  0  0
 18 19  2  0  0  0  0
 19 15  1  0  0  0  0
 21 23  1  0  0  0  0
 22 24  2  0  0  0  0
 23 24  1  0  0  0  0
 24 20  1  0  0  0  0
 25 21  1  0  0  0  0
 26 21  2  0  0  0  0
 26 22  1  0  0  0  0
M  END
>  <MODEL>
6

>  <REMARK>
 VINA RESULT:      -7.9      3.659      8.155
  Name = 
  4 active torsions:
  status: ('A' for Active; 'I' for Inactive)
    1  A    between atoms: C_2  and  N_6
    2  A    between atoms: C_15  and  N_24
    3  A    between atoms: C_16  and  N_17
    4  A    between atoms: N_17  and  C_22
                            x       y       z     vdW  Elec       q    Type
                         _______ _______ _______ _____ _____    ______ ____

>  <TORSDO>
F 4

$$$$
=
 OpenBabel11072414393D

 26 30  0  0  1  0  0  0  0  0999 V2000
  160.9170  207.5290  152.7330 C   0  0  0  0  0  0  0  0  0  0  0  0
  160.8860  207.3670  155.1690 C   0  0  0  0  0  3  0  0  0  0  0  0
  160.5880  209.5280  156.3440 O   0  0  0  0  0  0  0  0  0  0  0  0
  160.7330  208.9200  152.8160 C   0  0  0  0  0  3  0  0  0  0  0  0
  160.6270  209.5030  154.0800 C   0  0  0  0  0  0  0  0  0  0  0  0
  160.4410  210.9010  155.9770 C   0  0  0  0  0  2  0  0  0  0  0  0
  160.3940  210.9320  154.4320 C   0  0  2  0  0  3  0  0  0  0  0  0
  160.9840  206.7540  153.9090 C   0  0  0  0  0  3  0  0  0  0  0  0
  160.7080  208.7500  155.2140 C   0  0  0  0  0  0  0  0  0  0  0  0
  161.0200  206.9020  151.4580 N   0  0  0  0  0  0  0  0  0  0  0  0
  161.1620  206.9790  150.0620 C   0  0  0  0  0  0  0  0  0  0  0  0
  161.0300  204.5220  150.0590 C   0  0  0  0  0  3  0  0  0  0  0  0
  161.0360  205.7470  150.6590 C   0  0  0  0  0  0  0  0  0  0  0  0
  161.3080  207.2440  148.7330 C   0  0  0  0  0  3  0  0  0  0  0  0
  161.1730  204.6800  148.6310 C   0  0  0  0  0  0  0  0  0  0  0  0
  161.3080  206.0020  148.0040 C   0  0  0  0  0  3  0  0  0  0  0  0
  160.8370  202.2830  148.3220 O   0  0  0  0  0  0  0  0  0  0  0  0
  161.4920  203.5910  146.5940 O   0  0  0  0  0  0  0  0  0  0  0  0
  161.1800  203.5090  147.8010 N   0  0  0  0  0  0  0  0  0  0  0  0
  159.0560  211.3340  154.0170 N   0  0  0  0  0  2  0  0  0  0  0  0
  158.7860  213.7200  151.0280 C   0  0  0  0  0  0  0  0  0  0  0  0
  157.6940  213.1260  152.9030 C   0  0  0  0  0  3  0  0  0  0  0  0
  159.8060  212.5440  151.6650 S   0  0  0  0  0  0  0  0  0  0  0  0
  158.8040  212.2920  152.9870 C   0  0  0  0  0  0  0  0  0  0  0  0
  159.0360  214.4530  149.7570 C   0  0  0  0  0  1  0  0  0  0  0  0
  157.6980  213.9250  151.8020 N   0  0  0  0  0  0  0  0  0  0  0  0
  1  4  2  0  0  0  0
  1  8  1  0  0  0  0
  2  9  1  0  0  0  0
  4  5  1  0  0  0  0
  5  7  1  0  0  0  0
  5  9  2  0  0  0  0
  6  3  1  0  0  0  0
  7 20  1  1  0  0  0
  7  6  1  0  0  0  0
  8  2  2  0  0  0  0
  9  3  1  0  0  0  0
 10  1  1  0  0  0  0
 11 13  1  0  0  0  0
 11 10  1  0  0  0  0
 12 13  2  0  0  0  0
 13 10  1  0  0  0  0
 14 11  2  0  0  0  0
 15 12  1  0  0  0  0
 16 15  2  0  0  0  0
 16 14  1  0  0  0  0
 18 19  2  0  0  0  0
 19 17  2  0  0  0  0
 19 15  1  0  0  0  0
 21 23  1  0  0  0  0
 21 26  2  0  0  0  0
 22 24  2  0  0  0  0
 23 24  1  0  0  0  0
 24 20  1  0  0  0  0
 25 21  1  0  0  0  0
 26 22  1  0  0  0  0
M  END
>  <MODEL>
7

>  <REMARK>
 VINA RESULT:      -7.9      3.424      8.454
  Name = 
  4 active torsions:
  status: ('A' for Active; 'I' for Inactive)
    1  A    between atoms: C_2  and  N_6
    2  A    between atoms: C_15  and  N_24
    3  A    between atoms: C_16  and  N_17
    4  A    between atoms: N_17  and  C_22
                            x       y       z     vdW  Elec       q    Type
                         _______ _______ _______ _____ _____    ______ ____

>  <TORSDO>
F 4

$$$$
=
 OpenBabel11072414393D

 26 30  0  0  1  0  0  0  0  0999 V2000
  161.5680  206.6760  149.1100 C   0  0  0  0  0  0  0  0  0  0  0  0
  162.3460  208.8490  148.3150 C   0  0  0  0  0  3  0  0  0  0  0  0
  162.0500  210.7050  149.9300 O   0  0  0  0  0  0  0  0  0  0  0  0
  161.1820  207.2530  150.3320 C   0  0  0  0  0  3  0  0  0  0  0  0
  161.3900  208.6210  150.5180 C   0  0  0  0  0  0  0  0  0  0  0  0
  161.5130  210.8670  151.2440 C   0  0  0  0  0  2  0  0  0  0  0  0
  161.1070  209.4540  151.7210 C   0  0  2  0  0  3  0  0  0  0  0  0
  162.1570  207.4730  148.1080 C   0  0  0  0  0  3  0  0  0  0  0  0
  161.9470  209.3890  149.5380 C   0  0  0  0  0  0  0  0  0  0  0  0
  161.3770  205.2820  148.8930 N   0  0  0  0  0  0  0  0  0  0  0  0
  161.0980  203.9910  149.3780 C   0  0  0  0  0  0  0  0  0  0  0  0
  161.3570  203.2210  147.0560 C   0  0  0  0  0  3  0  0  0  0  0  0
  161.3450  204.1680  148.0370 C   0  0  0  0  0  0  0  0  0  0  0  0
  160.8120  202.8250  150.0200 C   0  0  0  0  0  3  0  0  0  0  0  0
  161.0710  201.9260  147.6270 C   0  0  0  0  0  0  0  0  0  0  0  0
  160.8070  201.7500  149.0620 C   0  0  0  0  0  3  0  0  0  0  0  0
  160.4500  200.8480  145.5280 O   0  0  0  0  0  0  0  0  0  0  0  0
  161.5700  199.7040  147.1280 O   0  0  0  0  0  0  0  0  0  0  0  0
  161.0460  200.7780  146.7650 N   0  0  0  0  0  0  0  0  0  0  0  0
  161.9870  209.0620  152.8150 N   0  0  0  0  0  2  0  0  0  0  0  0
  160.6580  207.7890  156.1770 C   0  0  0  0  0  0  0  0  0  0  0  0
  161.5840  209.6080  155.2330 C   0  0  0  0  0  3  0  0  0  0  0  0
  160.8540  207.2890  154.5830 S   0  0  0  0  0  0  0  0  0  0  0  0
  161.5240  208.7600  154.1320 C   0  0  0  0  0  0  0  0  0  0  0  0
  160.0800  206.9450  157.2590 C   0  0  0  0  0  1  0  0  0  0  0  0
  161.0920  209.0530  156.3730 N   0  0  0  0  0  0  0  0  0  0  0  0
  1  4  1  0  0  0  0
  2  9  2  0  0  0  0
  3  6  1  0  0  0  0
  4  5  2  0  0  0  0
  5  7  1  0  0  0  0
  6  7  1  0  0  0  0
  7 20  1  1  0  0  0
  8  2  1  0  0  0  0
  8  1  2  0  0  0  0
  9  3  1  0  0  0  0
  9  5  1  0  0  0  0
 10  1  1  0  0  0  0
 10 11  1  0  0  0  0
 11 14  1  0  0  0  0
 12 15  2  0  0  0  0
 12 13  1  0  0  0  0
 13 10  1  0  0  0  0
 13 11  2  0  0  0  0
 15 16  1  0  0  0  0
 16 14  2  0  0  0  0
 17 19  2  0  0  0  0
 19 18  2  0  0  0  0
 19 15  1  0  0  0  0
 20 24  1  0  0  0  0
 21 26  2  0  0  0  0
 21 25  1  0  0  0  0
 22 26  1  0  0  0  0
 23 21  1  0  0  0  0
 24 23  1  0  0  0  0
 24 22  2  0  0  0  0
M  END
>  <MODEL>
8

>  <REMARK>
 VINA RESULT:      -7.8      3.182      9.060
  Name = 
  4 active torsions:
  status: ('A' for Active; 'I' for Inactive)
    1  A    between atoms: C_2  and  N_6
    2  A    between atoms: C_15  and  N_24
    3  A    between atoms: C_16  and  N_17
    4  A    between atoms: N_17  and  C_22
                            x       y       z     vdW  Elec       q    Type
                         _______ _______ _______ _____ _____    ______ ____

>  <TORSDO>
F 4

$$$$
=
 OpenBabel11072414393D

 26 30  0  0  1  0  0  0  0  0999 V2000
  160.8950  207.4310  152.6560 C   0  0  0  0  0  0  0  0  0  0  0  0
  161.5480  205.1190  153.0920 C   0  0  0  0  0  3  0  0  0  0  0  0
  161.4720  203.6340  151.1100 O   0  0  0  0  0  0  0  0  0  0  0  0
  160.6800  207.1220  151.3010 C   0  0  0  0  0  3  0  0  0  0  0  0
  160.9070  205.8130  150.8730 C   0  0  0  0  0  0  0  0  0  0  0  0
  161.1210  203.7550  149.7310 C   0  0  0  0  0  2  0  0  0  0  0  0
  160.7900  205.2460  149.4990 C   0  0  2  0  0  3  0  0  0  0  0  0
  161.3370  206.4310  153.5460 C   0  0  0  0  0  3  0  0  0  0  0  0
  161.3200  204.8470  151.7430 C   0  0  0  0  0  0  0  0  0  0  0  0
  160.6800  208.7590  153.1220 N   0  0  0  0  0  0  0  0  0  0  0  0
  160.9380  209.7940  154.0380 C   0  0  0  0  0  0  0  0  0  0  0  0
  159.3240  211.1350  152.7540 C   0  0  0  0  0  3  0  0  0  0  0  0
  160.0390  210.0050  153.0190 C   0  0  0  0  0  0  0  0  0  0  0  0
  161.3100  210.6740  155.0100 C   0  0  0  0  0  3  0  0  0  0  0  0
  159.6340  212.1490  153.7350 C   0  0  0  0  0  0  0  0  0  0  0  0
  160.5980  211.9120  154.8200 C   0  0  0  0  0  3  0  0  0  0  0  0
  159.0550  214.1690  152.4970 O   0  0  0  0  0  0  0  0  0  0  0  0
  158.3240  213.8630  154.6170 O   0  0  0  0  0  0  0  0  0  0  0  0
  158.9780  213.4220  153.6490 N   0  0  0  0  0  0  0  0  0  0  0  0
  161.8140  205.8210  148.6360 N   0  0  0  0  0  2  0  0  0  0  0  0
  161.6510  205.4420  144.8250 C   0  0  0  0  0  0  0  0  0  0  0  0
  162.8940  204.8310  146.5970 C   0  0  0  0  0  3  0  0  0  0  0  0
  160.8130  206.1530  146.0980 S   0  0  0  0  0  0  0  0  0  0  0  0
  161.9000  205.5650  147.2330 C   0  0  0  0  0  0  0  0  0  0  0  0
  161.2540  205.5430  143.3940 C   0  0  0  0  0  1  0  0  0  0  0  0
  162.7420  204.7660  145.2460 N   0  0  0  0  0  0  0  0  0  0  0  0
  1 10  1  0  0  0  0
  1  8  1  0  0  0  0
  2  8  2  0  0  0  0
  3  9  1  0  0  0  0
  4  1  2  0  0  0  0
  5  4  1  0  0  0  0
  5  9  2  0  0  0  0
  6  3  1  0  0  0  0
  7 20  1  6  0  0  0
  7  6  1  0  0  0  0
  7  5  1  0  0  0  0
  9  2  1  0  0  0  0
 10 11  1  0  0  0  0
 11 14  1  0  0  0  0
 12 13  1  0  0  0  0
 12 15  2  0  0  0  0
 13 10  1  0  0  0  0
 13 11  2  0  0  0  0
 15 16  1  0  0  0  0
 16 14  2  0  0  0  0
 17 19  2  0  0  0  0
 19 15  1  0  0  0  0
 19 18  2  0  0  0  0
 21 26  2  0  0  0  0
 21 23  1  0  0  0  0
 22 24  2  0  0  0  0
 23 24  1  0  0  0  0
 24 20  1  0  0  0  0
 25 21  1  0  0  0  0
 26 22  1  0  0  0  0
M  END
>  <MODEL>
9

>  <REMARK>
 VINA RESULT:      -7.4      1.938      2.724
  Name = 
  4 active torsions:
  status: ('A' for Active; 'I' for Inactive)
    1  A    between atoms: C_2  and  N_6
    2  A    between atoms: C_15  and  N_24
    3  A    between atoms: C_16  and  N_17
    4  A    between atoms: N_17  and  C_22
                            x       y       z     vdW  Elec       q    Type
                         _______ _______ _______ _____ _____    ______ ____

>  <TORSDO>
F 4

$$$$
