=
 OpenBabel11072411013D

 42 46  0  0  1  0  0  0  0  0999 V2000
  160.3050  212.0930  155.1980 N   0  0  0  0  0  0  0  0  0  0  0  0
  161.5330  209.7850  156.0080 C   0  0  0  0  0  0  0  0  0  0  0  0
  160.8610  212.0110  156.4310 C   0  0  0  0  0  3  0  0  0  0  0  0
  161.4710  210.8670  156.8260 N   0  0  0  0  0  0  0  0  0  0  0  0
  162.2020  208.6140  156.4680 N   0  0  0  0  0  1  0  0  0  0  0  0
  160.9690  209.8400  154.7180 C   0  0  0  0  0  0  0  0  0  0  0  0
  160.3540  211.0500  154.3250 C   0  0  0  0  0  0  0  0  0  0  0  0
  161.3250  207.5660  151.6570 C   0  0  0  0  0  0  0  0  0  0  0  0
  160.7090  206.1580  153.3740 C   0  0  0  0  0  3  0  0  0  0  0  0
  162.0300  209.6860  150.0410 C   0  0  0  0  0  1  0  0  0  0  0  0
  161.0500  206.2730  151.9830 C   0  0  0  0  0  0  0  0  0  0  0  0
  160.6840  207.3100  154.2710 C   0  0  0  0  0  3  0  0  0  0  0  0
  160.9900  208.6500  153.8330 C   0  0  0  0  0  0  0  0  0  0  0  0
  161.6390  208.8360  151.1480 N   0  0  0  0  0  0  0  0  0  0  0  0
  161.2990  208.6540  152.5000 C   0  0  0  0  0  0  0  0  0  0  0  0
  161.0770  205.2080  151.0260 N   0  0  0  0  0  2  0  0  0  0  0  0
  161.7890  204.4200  147.5210 C   0  0  1  0  0  3  0  0  0  0  0  0
  161.0390  206.4100  146.2100 C   0  0  0  0  0  3  0  0  0  0  0  0
  161.8470  206.8260  148.7970 S   0  0  0  0  0  0  0  0  0  0  0  0
  161.6040  205.8870  147.3070 C   0  0  0  0  0  0  0  0  0  0  0  0
  160.5600  205.5470  145.0670 C   0  0  0  0  0  2  0  0  0  0  0  0
  161.4640  205.2840  149.6480 C   0  0  0  0  0  0  0  0  0  0  0  0
  161.0270  204.0920  145.1790 C   0  0  0  0  0  2  0  0  0  0  0  0
  161.4660  204.2110  148.9230 N   0  0  0  0  0  0  0  0  0  0  0  0
  161.2710  202.1290  146.6770 C   0  0  0  0  0  1  0  0  0  0  0  0
  160.8760  203.5920  146.6130 C   0  0  1  0  0  3  0  0  0  0  0  0
  159.6820  211.1940  152.9890 C   0  0  0  0  0  2  0  0  0  0  0  0
  159.3490  212.6420  152.6030 C   0  0  1  0  0  3  0  0  0  0  0  0
  160.1150  213.1100  151.4480 N   0  0  0  0  0  2  0  0  0  0  0  0
  159.4960  213.5060  150.2210 C   0  0  0  0  0  0  0  0  0  0  0  0
  158.2420  213.5090  150.1110 O   0  0  0  0  0  0  0  0  0  0  0  0
  160.3350  213.8830  149.0420 C   0  0  1  0  0  3  0  0  0  0  0  0
  161.5140  213.0370  148.9500 N   0  0  0  0  0  1  0  0  0  0  0  0
  159.5380  213.8620  147.7380 C   0  0  0  0  0  2  0  0  0  0  0  0
  159.7050  212.5570  146.9740 C   0  0  0  0  0  2  0  0  0  0  0  0
  160.3290  212.8110  145.7550 O   0  0  0  0  0  1  0  0  0  0  0  0
  157.9600  212.9100  152.5060 O   0  0  0  0  0  0  0  0  0  0  0  0
  157.5650  213.7500  153.5570 C   0  0  0  0  0  2  0  0  0  0  0  0
  156.2880  213.2240  154.1820 C   0  0  0  0  0  2  0  0  0  0  0  0
  156.5840  212.5450  155.5070 C   0  0  0  0  0  2  0  0  0  0  0  0
  156.6920  211.0380  155.3420 C   0  0  0  0  0  2  0  0  0  0  0  0
  155.4520  210.5040  154.9880 O   0  0  0  0  0  1  0  0  0  0  0  0
  1  3  1  0  0  0  0
  2  5  1  0  0  0  0
  2  4  1  0  0  0  0
  3  4  2  0  0  0  0
  6  2  2  0  0  0  0
  7  6  1  0  0  0  0
  7  1  2  0  0  0  0
  8 11  2  0  0  0  0
  8 15  1  0  0  0  0
  9 12  2  0  0  0  0
 10 14  1  0  0  0  0
 11  9  1  0  0  0  0
 13 12  1  0  0  0  0
 13  6  1  0  0  0  0
 14  8  1  0  0  0  0
 14 15  1  0  0  0  0
 15 13  2  0  0  0  0
 16 11  1  0  0  0  0
 17 20  1  6  0  0  0
 17 24  1  0  0  0  0
 18 20  2  0  0  0  0
 19 22  1  0  0  0  0
 20 19  1  0  0  0  0
 21 23  1  0  0  0  0
 21 18  1  0  0  0  0
 22 16  1  0  0  0  0
 23 26  1  0  0  0  0
 24 22  2  0  0  0  0
 26 25  1  6  0  0  0
 26 17  1  0  0  0  0
 27  7  1  0  0  0  0
 28 27  1  6  0  0  0
 29 28  1  0  0  0  0
 30 29  1  0  0  0  0
 31 30  2  0  0  0  0
 32 33  1  6  0  0  0
 32 30  1  0  0  0  0
 34 32  1  0  0  0  0
 35 34  1  0  0  0  0
 36 35  1  0  0  0  0
 37 28  1  0  0  0  0
 37 38  1  0  0  0  0
 38 39  1  0  0  0  0
 39 40  1  0  0  0  0
 41 40  1  0  0  0  0
 42 41  1  0  0  0  0
M  END
>  <MODEL>
1

>  <REMARK>
 VINA RESULT:      -7.2      0.000      0.000
  Name = 
  13 active torsions:
  status: ('A' for Active; 'I' for Inactive)
    1  A    between atoms: N_1  and  C_8
    2  A    between atoms: C_3  and  C_41
    3  A    between atoms: C_9  and  N_24
    4  A    between atoms: C_9  and  C_27
    5  A    between atoms: C_9  and  O_32
    6  A    between atoms: C_14  and  C_28
    7  A    between atoms: C_14  and  C_41
    8  A    between atoms: C_15  and  C_33
    9  A    between atoms: C_20  and  C_22
   10  A    between atoms: C_20  and  O_32
   11  A    between atoms: C_22  and  C_33
   12  A    between atoms: C_23  and  C_34
   13  A    between atoms: C_27  and  C_40
                            x       y       z     vdW  Elec       q    Type
                         _______ _______ _______ _____ _____    ______ ____

>  <TORSDO>
F 13

$$$$
=
 OpenBabel11072411013D

 42 46  0  0  1  0  0  0  0  0999 V2000
  159.6430  213.6810  155.7610 N   0  0  0  0  0  0  0  0  0  0  0  0
  161.3150  211.6260  156.4460 C   0  0  0  0  0  0  0  0  0  0  0  0
  160.3690  213.7430  156.9040 C   0  0  0  0  0  3  0  0  0  0  0  0
  161.1980  212.7240  157.2360 N   0  0  0  0  0  0  0  0  0  0  0  0
  162.2160  210.5920  156.8350 N   0  0  0  0  0  1  0  0  0  0  0  0
  160.5770  211.5340  155.2490 C   0  0  0  0  0  0  0  0  0  0  0  0
  159.7340  212.6170  154.9180 C   0  0  0  0  0  0  0  0  0  0  0  0
  160.5550  207.8910  154.0680 C   0  0  0  0  0  0  0  0  0  0  0  0
  161.0290  209.1250  152.1800 C   0  0  0  0  0  3  0  0  0  0  0  0
  159.9720  206.9710  156.6000 C   0  0  0  0  0  1  0  0  0  0  0  0
  160.8210  207.8150  152.7350 C   0  0  0  0  0  0  0  0  0  0  0  0
  160.9480  210.3390  152.9870 C   0  0  0  0  0  3  0  0  0  0  0  0
  160.6620  210.3200  154.4010 C   0  0  0  0  0  0  0  0  0  0  0  0
  160.2700  207.7830  155.4390 N   0  0  0  0  0  0  0  0  0  0  0  0
  160.4820  209.0340  154.8320 C   0  0  0  0  0  0  0  0  0  0  0  0
  160.9040  206.5720  152.0290 N   0  0  0  0  0  2  0  0  0  0  0  0
  161.8920  205.0580  148.8440 C   0  0  1  0  0  3  0  0  0  0  0  0
  161.3020  206.7310  147.0840 C   0  0  0  0  0  3  0  0  0  0  0  0
  161.8970  207.6800  149.5860 S   0  0  0  0  0  0  0  0  0  0  0  0
  161.7590  206.4480  148.3110 C   0  0  0  0  0  0  0  0  0  0  0  0
  160.9030  205.6480  146.1090 C   0  0  0  0  0  2  0  0  0  0  0  0
  161.4080  206.3530  150.7050 C   0  0  0  0  0  0  0  0  0  0  0  0
  161.3240  204.2480  146.5650 C   0  0  0  0  0  2  0  0  0  0  0  0
  161.4470  205.1520  150.2240 N   0  0  0  0  0  0  0  0  0  0  0  0
  161.3950  202.6440  148.4570 C   0  0  0  0  0  1  0  0  0  0  0  0
  161.0410  204.0620  148.0530 C   0  0  1  0  0  3  0  0  0  0  0  0
  158.8700  212.5950  153.6880 C   0  0  0  0  0  2  0  0  0  0  0  0
  158.3690  213.9770  153.2430 C   0  0  1  0  0  3  0  0  0  0  0  0
  159.0190  214.4470  152.0200 N   0  0  0  0  0  2  0  0  0  0  0  0
  158.7690  213.8610  150.7400 C   0  0  0  0  0  0  0  0  0  0  0  0
  157.9280  212.9330  150.6170 O   0  0  0  0  0  0  0  0  0  0  0  0
  159.5340  214.3190  149.5400 C   0  0  1  0  0  3  0  0  0  0  0  0
  160.9530  214.4360  149.8400 N   0  0  0  0  0  1  0  0  0  0  0  0
  159.3000  213.4160  148.3290 C   0  0  0  0  0  2  0  0  0  0  0  0
  160.4610  213.4440  147.3470 C   0  0  0  0  0  2  0  0  0  0  0  0
  159.9680  213.5590  146.0490 O   0  0  0  0  0  1  0  0  0  0  0  0
  156.9570  214.0990  153.2160 O   0  0  0  0  0  0  0  0  0  0  0  0
  156.4580  214.1310  154.5270 C   0  0  0  0  0  2  0  0  0  0  0  0
  155.3210  213.1390  154.6670 C   0  0  0  0  0  2  0  0  0  0  0  0
  155.8560  211.7580  155.0000 C   0  0  0  0  0  2  0  0  0  0  0  0
  156.1320  211.6180  156.4880 C   0  0  0  0  0  2  0  0  0  0  0  0
  155.1430  212.2720  157.2240 O   0  0  0  0  0  1  0  0  0  0  0  0
  1  3  1  0  0  0  0
  2  5  1  0  0  0  0
  2  4  1  0  0  0  0
  3  4  2  0  0  0  0
  6  2  2  0  0  0  0
  7  6  1  0  0  0  0
  7  1  2  0  0  0  0
  8 15  1  0  0  0  0
  8 14  1  0  0  0  0
  9 11  1  0  0  0  0
  9 12  2  0  0  0  0
 11  8  2  0  0  0  0
 12 13  1  0  0  0  0
 13 15  2  0  0  0  0
 13  6  1  0  0  0  0
 14 10  1  0  0  0  0
 15 14  1  0  0  0  0
 16 11  1  0  0  0  0
 17 20  1  6  0  0  0
 17 24  1  0  0  0  0
 18 20  2  0  0  0  0
 19 22  1  0  0  0  0
 20 19  1  0  0  0  0
 21 23  1  0  0  0  0
 21 18  1  0  0  0  0
 22 16  1  0  0  0  0
 23 26  1  0  0  0  0
 24 22  2  0  0  0  0
 26 25  1  1  0  0  0
 26 17  1  0  0  0  0
 27  7  1  0  0  0  0
 28 27  1  6  0  0  0
 29 28  1  0  0  0  0
 30 29  1  0  0  0  0
 31 30  2  0  0  0  0
 32 33  1  1  0  0  0
 32 30  1  0  0  0  0
 34 32  1  0  0  0  0
 35 34  1  0  0  0  0
 36 35  1  0  0  0  0
 37 28  1  0  0  0  0
 37 38  1  0  0  0  0
 38 39  1  0  0  0  0
 39 40  1  0  0  0  0
 40 41  1  0  0  0  0
 41 42  1  0  0  0  0
M  END
>  <MODEL>
2

>  <REMARK>
 VINA RESULT:      -6.9      1.376      2.180
  Name = 
  13 active torsions:
  status: ('A' for Active; 'I' for Inactive)
    1  A    between atoms: N_1  and  C_8
    2  A    between atoms: C_3  and  C_41
    3  A    between atoms: C_9  and  N_24
    4  A    between atoms: C_9  and  C_27
    5  A    between atoms: C_9  and  O_32
    6  A    between atoms: C_14  and  C_28
    7  A    between atoms: C_14  and  C_41
    8  A    between atoms: C_15  and  C_33
    9  A    between atoms: C_20  and  C_22
   10  A    between atoms: C_20  and  O_32
   11  A    between atoms: C_22  and  C_33
   12  A    between atoms: C_23  and  C_34
   13  A    between atoms: C_27  and  C_40
                            x       y       z     vdW  Elec       q    Type
                         _______ _______ _______ _____ _____    ______ ____

>  <TORSDO>
F 13

$$$$
=
 OpenBabel11072411013D

 42 46  0  0  1  0  0  0  0  0999 V2000
  160.7600  210.8700  152.1460 N   0  0  0  0  0  0  0  0  0  0  0  0
  159.6080  213.1230  151.1040 C   0  0  0  0  0  0  0  0  0  0  0  0
  159.9590  211.6460  152.9160 C   0  0  0  0  0  3  0  0  0  0  0  0
  159.3880  212.7580  152.3940 N   0  0  0  0  0  0  0  0  0  0  0  0
  158.9670  214.2930  150.6020 N   0  0  0  0  0  1  0  0  0  0  0  0
  160.4320  212.3340  150.2770 C   0  0  0  0  0  0  0  0  0  0  0  0
  161.0010  211.1710  150.8410 C   0  0  0  0  0  0  0  0  0  0  0  0
  162.2240  213.0380  146.9660 C   0  0  0  0  0  0  0  0  0  0  0  0
  160.0450  213.7000  146.6150 C   0  0  0  0  0  3  0  0  0  0  0  0
  164.6220  212.1000  147.9510 C   0  0  0  0  0  1  0  0  0  0  0  0
  161.3610  213.5660  146.0550 C   0  0  0  0  0  0  0  0  0  0  0  0
  159.7320  213.2990  147.9840 C   0  0  0  0  0  3  0  0  0  0  0  0
  160.7170  212.7470  148.8810 C   0  0  0  0  0  0  0  0  0  0  0  0
  163.2430  212.5070  147.7730 N   0  0  0  0  0  0  0  0  0  0  0  0
  161.9320  212.6620  148.2580 C   0  0  0  0  0  0  0  0  0  0  0  0
  161.7650  213.9540  144.7370 N   0  0  0  0  0  2  0  0  0  0  0  0
  161.2010  213.3070  141.1770 C   0  0  1  0  0  3  0  0  0  0  0  0
  160.7620  210.8540  140.9920 C   0  0  0  0  0  3  0  0  0  0  0  0
  160.1010  212.0860  143.3510 S   0  0  0  0  0  0  0  0  0  0  0  0
  160.6290  212.0110  141.6540 C   0  0  0  0  0  0  0  0  0  0  0  0
  161.4900  210.7660  139.6720 C   0  0  0  0  0  2  0  0  0  0  0  0
  161.2640  213.4580  143.4890 C   0  0  0  0  0  0  0  0  0  0  0  0
  161.8020  212.1380  139.0680 C   0  0  0  0  0  2  0  0  0  0  0  0
  161.7150  213.9440  142.3770 N   0  0  0  0  0  0  0  0  0  0  0  0
  162.6840  214.4160  139.5050 C   0  0  0  0  0  1  0  0  0  0  0  0
  162.3110  213.0930  140.1450 C   0  0  1  0  0  3  0  0  0  0  0  0
  161.9320  210.2900  150.0570 C   0  0  0  0  0  2  0  0  0  0  0  0
  161.6110  208.7910  150.1500 C   0  0  1  0  0  3  0  0  0  0  0  0
  161.9650  208.0600  148.9320 N   0  0  0  0  0  2  0  0  0  0  0  0
  161.1600  207.0030  148.4060 C   0  0  0  0  0  0  0  0  0  0  0  0
  160.0720  206.6930  148.9590 O   0  0  0  0  0  0  0  0  0  0  0  0
  161.6210  206.2280  147.2130 C   0  0  1  0  0  3  0  0  0  0  0  0
  162.1500  204.9320  147.6080 N   0  0  0  0  0  1  0  0  0  0  0  0
  160.5200  206.0770  146.1640 C   0  0  0  0  0  2  0  0  0  0  0  0
  161.0740  205.8930  144.7590 C   0  0  0  0  0  2  0  0  0  0  0  0
  161.0750  204.5390  144.4350 O   0  0  0  0  0  1  0  0  0  0  0  0
  162.0780  208.1720  151.3360 O   0  0  0  0  0  0  0  0  0  0  0  0
  161.0230  207.4900  151.9620 C   0  0  0  0  0  2  0  0  0  0  0  0
  161.5380  206.7620  153.1870 C   0  0  0  0  0  2  0  0  0  0  0  0
  161.3820  205.2610  153.0200 C   0  0  0  0  0  2  0  0  0  0  0  0
  161.1280  204.8910  151.5680 C   0  0  0  0  0  2  0  0  0  0  0  0
  161.5050  203.5680  151.3360 O   0  0  0  0  0  1  0  0  0  0  0  0
  1  3  1  0  0  0  0
  2  4  1  0  0  0  0
  4  3  2  0  0  0  0
  5  2  1  0  0  0  0
  6  7  1  0  0  0  0
  6  2  2  0  0  0  0
  7  1  2  0  0  0  0
  8 14  1  0  0  0  0
  8 15  1  0  0  0  0
  9 12  2  0  0  0  0
 11  9  1  0  0  0  0
 11  8  2  0  0  0  0
 12 13  1  0  0  0  0
 13  6  1  0  0  0  0
 14 10  1  0  0  0  0
 14 15  1  0  0  0  0
 15 13  2  0  0  0  0
 16 11  1  0  0  0  0
 17 20  1  1  0  0  0
 17 24  1  0  0  0  0
 18 20  2  0  0  0  0
 19 22  1  0  0  0  0
 20 19  1  0  0  0  0
 21 18  1  0  0  0  0
 22 16  1  0  0  0  0
 23 21  1  0  0  0  0
 23 26  1  0  0  0  0
 24 22  2  0  0  0  0
 26 25  1  6  0  0  0
 26 17  1  0  0  0  0
 27  7  1  0  0  0  0
 28 27  1  6  0  0  0
 28 37  1  0  0  0  0
 29 28  1  0  0  0  0
 30 29  1  0  0  0  0
 30 31  2  0  0  0  0
 32 33  1  1  0  0  0
 32 30  1  0  0  0  0
 34 32  1  0  0  0  0
 35 34  1  0  0  0  0
 36 35  1  0  0  0  0
 37 38  1  0  0  0  0
 38 39  1  0  0  0  0
 40 39  1  0  0  0  0
 41 40  1  0  0  0  0
 42 41  1  0  0  0  0
M  END
>  <MODEL>
3

>  <REMARK>
 VINA RESULT:      -6.1      4.431      8.035
  Name = 
  13 active torsions:
  status: ('A' for Active; 'I' for Inactive)
    1  A    between atoms: N_1  and  C_8
    2  A    between atoms: C_3  and  C_41
    3  A    between atoms: C_9  and  N_24
    4  A    between atoms: C_9  and  C_27
    5  A    between atoms: C_9  and  O_32
    6  A    between atoms: C_14  and  C_28
    7  A    between atoms: C_14  and  C_41
    8  A    between atoms: C_15  and  C_33
    9  A    between atoms: C_20  and  C_22
   10  A    between atoms: C_20  and  O_32
   11  A    between atoms: C_22  and  C_33
   12  A    between atoms: C_23  and  C_34
   13  A    between atoms: C_27  and  C_40
                            x       y       z     vdW  Elec       q    Type
                         _______ _______ _______ _____ _____    ______ ____

>  <TORSDO>
F 13

$$$$
=
 OpenBabel11072411013D

 42 46  0  0  1  0  0  0  0  0999 V2000
  160.4500  211.9160  155.2010 N   0  0  0  0  0  0  0  0  0  0  0  0
  161.5740  209.5530  156.0040 C   0  0  0  0  0  0  0  0  0  0  0  0
  160.9830  211.7990  156.4420 C   0  0  0  0  0  3  0  0  0  0  0  0
  161.5410  210.6280  156.8330 N   0  0  0  0  0  0  0  0  0  0  0  0
  162.1890  208.3520  156.4610 N   0  0  0  0  0  1  0  0  0  0  0  0
  161.0320  209.6440  154.7070 C   0  0  0  0  0  0  0  0  0  0  0  0
  160.4710  210.8810  154.3190 C   0  0  0  0  0  0  0  0  0  0  0  0
  161.3060  207.3970  151.6170 C   0  0  0  0  0  0  0  0  0  0  0  0
  160.6880  205.9820  153.3280 C   0  0  0  0  0  3  0  0  0  0  0  0
  162.0270  209.5220  150.0140 C   0  0  0  0  0  1  0  0  0  0  0  0
  161.0130  206.1060  151.9330 C   0  0  0  0  0  0  0  0  0  0  0  0
  160.6960  207.1250  154.2370 C   0  0  0  0  0  3  0  0  0  0  0  0
  161.0190  208.4630  153.8090 C   0  0  0  0  0  0  0  0  0  0  0  0
  161.6350  208.6670  151.1170 N   0  0  0  0  0  0  0  0  0  0  0  0
  161.3110  208.4760  152.4720 C   0  0  0  0  0  0  0  0  0  0  0  0
  161.0080  205.0510  150.9650 N   0  0  0  0  0  2  0  0  0  0  0  0
  161.7590  204.2640  147.4680 C   0  0  1  0  0  3  0  0  0  0  0  0
  161.1410  206.3040  146.1630 C   0  0  0  0  0  3  0  0  0  0  0  0
  161.9090  206.6520  148.7720 S   0  0  0  0  0  0  0  0  0  0  0  0
  161.6530  205.7410  147.2670 C   0  0  0  0  0  0  0  0  0  0  0  0
  160.6460  205.4790  145.0000 C   0  0  0  0  0  2  0  0  0  0  0  0
  161.4290  205.1210  149.5960 C   0  0  0  0  0  0  0  0  0  0  0  0
  161.0350  204.0010  145.1050 C   0  0  0  0  0  2  0  0  0  0  0  0
  161.3940  204.0580  148.8590 N   0  0  0  0  0  0  0  0  0  0  0  0
  161.1450  202.0120  146.5850 C   0  0  0  0  0  1  0  0  0  0  0  0
  160.8260  203.4940  146.5300 C   0  0  1  0  0  3  0  0  0  0  0  0
  159.8260  211.0660  152.9740 C   0  0  0  0  0  2  0  0  0  0  0  0
  158.6810  212.0890  152.9580 C   0  0  1  0  0  3  0  0  0  0  0  0
  158.2630  212.4500  151.6030 N   0  0  0  0  0  2  0  0  0  0  0  0
  158.6880  213.6530  150.9600 C   0  0  0  0  0  0  0  0  0  0  0  0
  159.4910  214.4350  151.5350 O   0  0  0  0  0  0  0  0  0  0  0  0
  158.1520  214.0170  149.6120 C   0  0  1  0  0  3  0  0  0  0  0  0
  159.0950  213.6620  148.5640 N   0  0  0  0  0  1  0  0  0  0  0  0
  156.7790  213.3950  149.3530 C   0  0  0  0  0  2  0  0  0  0  0  0
  155.6370  214.3420  149.6900 C   0  0  0  0  0  2  0  0  0  0  0  0
  155.2670  214.1650  151.0200 O   0  0  0  0  0  1  0  0  0  0  0  0
  157.6000  211.7600  153.8140 O   0  0  0  0  0  0  0  0  0  0  0  0
  156.8110  212.8980  154.0410 C   0  0  0  0  0  2  0  0  0  0  0  0
  156.4630  212.9960  155.5120 C   0  0  0  0  0  2  0  0  0  0  0  0
  156.2780  211.6120  156.1100 C   0  0  0  0  0  2  0  0  0  0  0  0
  155.2870  211.6360  157.2610 C   0  0  0  0  0  2  0  0  0  0  0  0
  154.4160  210.5500  157.1680 O   0  0  0  0  0  1  0  0  0  0  0  0
  1  3  1  0  0  0  0
  2  5  1  0  0  0  0
  2  4  1  0  0  0  0
  3  4  2  0  0  0  0
  6  2  2  0  0  0  0
  7  6  1  0  0  0  0
  7  1  2  0  0  0  0
  8 11  2  0  0  0  0
  8 15  1  0  0  0  0
  9 12  2  0  0  0  0
 10 14  1  0  0  0  0
 11  9  1  0  0  0  0
 13 12  1  0  0  0  0
 13  6  1  0  0  0  0
 14  8  1  0  0  0  0
 14 15  1  0  0  0  0
 15 13  2  0  0  0  0
 16 11  1  0  0  0  0
 17 20  1  6  0  0  0
 17 24  1  0  0  0  0
 18 20  2  0  0  0  0
 19 22  1  0  0  0  0
 20 19  1  0  0  0  0
 21 23  1  0  0  0  0
 21 18  1  0  0  0  0
 22 16  1  0  0  0  0
 23 26  1  0  0  0  0
 24 22  2  0  0  0  0
 26 25  1  6  0  0  0
 26 17  1  0  0  0  0
 27  7  1  0  0  0  0
 28 27  1  6  0  0  0
 28 37  1  0  0  0  0
 29 28  1  0  0  0  0
 30 31  2  0  0  0  0
 30 29  1  0  0  0  0
 32 33  1  6  0  0  0
 32 30  1  0  0  0  0
 34 32  1  0  0  0  0
 34 35  1  0  0  0  0
 35 36  1  0  0  0  0
 37 38  1  0  0  0  0
 38 39  1  0  0  0  0
 39 40  1  0  0  0  0
 40 41  1  0  0  0  0
 42 41  1  0  0  0  0
M  END
>  <MODEL>
4

>  <REMARK>
 VINA RESULT:      -5.4      1.454      1.795
  Name = 
  13 active torsions:
  status: ('A' for Active; 'I' for Inactive)
    1  A    between atoms: N_1  and  C_8
    2  A    between atoms: C_3  and  C_41
    3  A    between atoms: C_9  and  N_24
    4  A    between atoms: C_9  and  C_27
    5  A    between atoms: C_9  and  O_32
    6  A    between atoms: C_14  and  C_28
    7  A    between atoms: C_14  and  C_41
    8  A    between atoms: C_15  and  C_33
    9  A    between atoms: C_20  and  C_22
   10  A    between atoms: C_20  and  O_32
   11  A    between atoms: C_22  and  C_33
   12  A    between atoms: C_23  and  C_34
   13  A    between atoms: C_27  and  C_40
                            x       y       z     vdW  Elec       q    Type
                         _______ _______ _______ _____ _____    ______ ____

>  <TORSDO>
F 13

$$$$
=
 OpenBabel11072411013D

 42 46  0  0  1  0  0  0  0  0999 V2000
  159.7790  213.3760  154.0880 N   0  0  0  0  0  0  0  0  0  0  0  0
  160.6530  211.0680  155.2720 C   0  0  0  0  0  0  0  0  0  0  0  0
  159.9590  213.3230  155.4310 C   0  0  0  0  0  3  0  0  0  0  0  0
  160.3960  212.1780  156.0110 N   0  0  0  0  0  0  0  0  0  0  0  0
  161.1270  209.8980  155.9320 N   0  0  0  0  0  1  0  0  0  0  0  0
  160.4800  211.0950  153.8730 C   0  0  0  0  0  0  0  0  0  0  0  0
  160.0400  212.3050  153.2920 C   0  0  0  0  0  0  0  0  0  0  0  0
  160.8500  207.4400  152.7870 C   0  0  0  0  0  0  0  0  0  0  0  0
  161.2810  208.6710  150.8880 C   0  0  0  0  0  3  0  0  0  0  0  0
  160.2530  206.5250  155.3190 C   0  0  0  0  0  1  0  0  0  0  0  0
  161.1750  207.3610  151.4680 C   0  0  0  0  0  0  0  0  0  0  0  0
  161.0540  209.8900  151.6600 C   0  0  0  0  0  3  0  0  0  0  0  0
  160.7130  209.8760  153.0610 C   0  0  0  0  0  0  0  0  0  0  0  0
  160.5200  207.3360  154.1490 N   0  0  0  0  0  0  0  0  0  0  0  0
  160.6380  208.5880  153.5180 C   0  0  0  0  0  0  0  0  0  0  0  0
  161.4040  206.1160  150.7980 N   0  0  0  0  0  2  0  0  0  0  0  0
  162.0350  204.6120  147.5200 C   0  0  1  0  0  3  0  0  0  0  0  0
  160.7040  205.9560  145.8870 C   0  0  0  0  0  3  0  0  0  0  0  0
  161.5660  207.2170  148.1640 S   0  0  0  0  0  0  0  0  0  0  0  0
  161.4640  205.8870  146.9890 C   0  0  0  0  0  0  0  0  0  0  0  0
  160.3810  204.7350  145.0590 C   0  0  0  0  0  2  0  0  0  0  0  0
  161.6560  205.9100  149.4030 C   0  0  0  0  0  0  0  0  0  0  0  0
  161.2120  203.5100  145.4500 C   0  0  0  0  0  2  0  0  0  0  0  0
  161.8800  204.7140  148.9610 N   0  0  0  0  0  0  0  0  0  0  0  0
  162.0620  202.1240  147.3250 C   0  0  0  0  0  1  0  0  0  0  0  0
  161.3010  203.3870  146.9690 C   0  0  1  0  0  3  0  0  0  0  0  0
  159.7790  212.4200  151.8170 C   0  0  0  0  0  2  0  0  0  0  0  0
  159.4030  213.8350  151.3510 C   0  0  1  0  0  3  0  0  0  0  0  0
  160.1590  214.2620  150.1740 N   0  0  0  0  0  2  0  0  0  0  0  0
  160.6680  213.3400  149.2080 C   0  0  0  0  0  0  0  0  0  0  0  0
  160.4360  212.1080  149.3180 O   0  0  0  0  0  0  0  0  0  0  0  0
  161.5170  213.8260  148.0770 C   0  0  1  0  0  3  0  0  0  0  0  0
  162.9300  213.7330  148.4080 N   0  0  0  0  0  1  0  0  0  0  0  0
  161.2070  213.0960  146.7700 C   0  0  0  0  0  2  0  0  0  0  0  0
  162.2650  213.3350  145.7030 C   0  0  0  0  0  2  0  0  0  0  0  0
  161.8300  214.3330  144.8350 O   0  0  0  0  0  1  0  0  0  0  0  0
  158.0070  214.0530  151.2360 O   0  0  0  0  0  0  0  0  0  0  0  0
  157.3810  212.8850  150.7750 C   0  0  0  0  0  2  0  0  0  0  0  0
  156.4520  213.2210  149.6260 C   0  0  0  0  0  2  0  0  0  0  0  0
  157.1780  214.0450  148.5760 C   0  0  0  0  0  2  0  0  0  0  0  0
  157.4330  213.2330  147.3180 C   0  0  0  0  0  2  0  0  0  0  0  0
  157.0940  213.9790  146.1880 O   0  0  0  0  0  1  0  0  0  0  0  0
  1  3  1  0  0  0  0
  2  5  1  0  0  0  0
  2  4  1  0  0  0  0
  3  4  2  0  0  0  0
  6  2  2  0  0  0  0
  7  6  1  0  0  0  0
  7  1  2  0  0  0  0
  8 15  1  0  0  0  0
  8 14  1  0  0  0  0
  9 11  1  0  0  0  0
  9 12  2  0  0  0  0
 11  8  2  0  0  0  0
 12 13  1  0  0  0  0
 13 15  2  0  0  0  0
 13  6  1  0  0  0  0
 14 10  1  0  0  0  0
 15 14  1  0  0  0  0
 16 11  1  0  0  0  0
 17 20  1  6  0  0  0
 17 24  1  0  0  0  0
 18 20  2  0  0  0  0
 19 22  1  0  0  0  0
 20 19  1  0  0  0  0
 21 23  1  0  0  0  0
 21 18  1  0  0  0  0
 22 16  1  0  0  0  0
 23 26  1  0  0  0  0
 24 22  2  0  0  0  0
 26 25  1  6  0  0  0
 26 17  1  0  0  0  0
 27  7  1  0  0  0  0
 28 27  1  6  0  0  0
 29 28  1  0  0  0  0
 30 31  2  0  0  0  0
 30 29  1  0  0  0  0
 32 33  1  1  0  0  0
 32 30  1  0  0  0  0
 34 32  1  0  0  0  0
 35 34  1  0  0  0  0
 36 35  1  0  0  0  0
 37 28  1  0  0  0  0
 38 37  1  0  0  0  0
 39 38  1  0  0  0  0
 40 39  1  0  0  0  0
 41 40  1  0  0  0  0
 42 41  1  0  0  0  0
M  END
>  <MODEL>
5

>  <REMARK>
 VINA RESULT:      -4.5      1.851      3.090
  Name = 
  13 active torsions:
  status: ('A' for Active; 'I' for Inactive)
    1  A    between atoms: N_1  and  C_8
    2  A    between atoms: C_3  and  C_41
    3  A    between atoms: C_9  and  N_24
    4  A    between atoms: C_9  and  C_27
    5  A    between atoms: C_9  and  O_32
    6  A    between atoms: C_14  and  C_28
    7  A    between atoms: C_14  and  C_41
    8  A    between atoms: C_15  and  C_33
    9  A    between atoms: C_20  and  C_22
   10  A    between atoms: C_20  and  O_32
   11  A    between atoms: C_22  and  C_33
   12  A    between atoms: C_23  and  C_34
   13  A    between atoms: C_27  and  C_40
                            x       y       z     vdW  Elec       q    Type
                         _______ _______ _______ _____ _____    ______ ____

>  <TORSDO>
F 13

$$$$
=
 OpenBabel11072411013D

 42 46  0  0  1  0  0  0  0  0999 V2000
  160.7860  212.2330  155.2910 N   0  0  0  0  0  0  0  0  0  0  0  0
  161.5290  209.6710  155.9050 C   0  0  0  0  0  0  0  0  0  0  0  0
  161.1390  211.9090  156.5590 C   0  0  0  0  0  3  0  0  0  0  0  0
  161.5100  210.6400  156.8560 N   0  0  0  0  0  0  0  0  0  0  0  0
  161.9440  208.3580  156.2690 N   0  0  0  0  0  1  0  0  0  0  0  0
  161.1710  209.9780  154.5760 C   0  0  0  0  0  0  0  0  0  0  0  0
  160.8060  211.3120  154.2900 C   0  0  0  0  0  0  0  0  0  0  0  0
  161.0050  206.5720  152.8320 C   0  0  0  0  0  0  0  0  0  0  0  0
  161.2040  208.1060  151.1240 C   0  0  0  0  0  3  0  0  0  0  0  0
  160.7860  205.2410  155.2360 C   0  0  0  0  0  1  0  0  0  0  0  0
  161.0830  206.7190  151.4810 C   0  0  0  0  0  0  0  0  0  0  0  0
  161.2300  209.1720  152.1210 C   0  0  0  0  0  3  0  0  0  0  0  0
  161.1440  208.9190  153.5390 C   0  0  0  0  0  0  0  0  0  0  0  0
  160.9150  206.2380  154.1930 N   0  0  0  0  0  0  0  0  0  0  0  0
  161.0330  207.5750  153.7750 C   0  0  0  0  0  0  0  0  0  0  0  0
  161.0740  205.6080  150.5770 N   0  0  0  0  0  2  0  0  0  0  0  0
  161.8250  204.6110  147.1350 C   0  0  1  0  0  3  0  0  0  0  0  0
  161.2180  206.5710  145.7100 C   0  0  0  0  0  3  0  0  0  0  0  0
  161.9850  207.0710  148.2950 S   0  0  0  0  0  0  0  0  0  0  0  0
  161.7270  206.0730  146.8460 C   0  0  0  0  0  0  0  0  0  0  0  0
  160.7210  205.6800  144.5970 C   0  0  0  0  0  2  0  0  0  0  0  0
  161.4970  205.5950  149.2080 C   0  0  0  0  0  0  0  0  0  0  0  0
  161.1030  204.2100  144.7910 C   0  0  0  0  0  2  0  0  0  0  0  0
  161.4580  204.4890  148.5350 N   0  0  0  0  0  0  0  0  0  0  0  0
  161.2030  202.3120  146.3880 C   0  0  0  0  0  1  0  0  0  0  0  0
  160.8900  203.7900  146.2430 C   0  0  1  0  0  3  0  0  0  0  0  0
  160.3620  211.7290  152.9160 C   0  0  0  0  0  2  0  0  0  0  0  0
  158.8450  211.9120  152.7710 C   0  0  1  0  0  3  0  0  0  0  0  0
  158.2790  212.7820  153.8030 N   0  0  0  0  0  2  0  0  0  0  0  0
  157.3420  212.3150  154.7750 C   0  0  0  0  0  0  0  0  0  0  0  0
  157.0020  211.1030  154.8040 O   0  0  0  0  0  0  0  0  0  0  0  0
  156.7240  213.2700  155.7450 C   0  0  1  0  0  3  0  0  0  0  0  0
  157.7140  214.2030  156.2600 N   0  0  0  0  0  1  0  0  0  0  0  0
  155.5300  214.0110  155.1420 C   0  0  0  0  0  2  0  0  0  0  0  0
  155.1270  213.4590  153.7830 C   0  0  0  0  0  2  0  0  0  0  0  0
  155.3280  214.4330  152.8090 O   0  0  0  0  0  1  0  0  0  0  0  0
  158.4260  212.2470  151.4590 O   0  0  0  0  0  0  0  0  0  0  0  0
  159.3770  213.0840  150.8560 C   0  0  0  0  0  2  0  0  0  0  0  0
  158.6820  214.0890  149.9600 C   0  0  0  0  0  2  0  0  0  0  0  0
  158.6200  213.5760  148.5320 C   0  0  0  0  0  2  0  0  0  0  0  0
  159.9690  213.0470  148.0770 C   0  0  0  0  0  2  0  0  0  0  0  0
  159.8400  212.3910  146.8520 O   0  0  0  0  0  1  0  0  0  0  0  0
  1  3  1  0  0  0  0
  2  5  1  0  0  0  0
  2  4  1  0  0  0  0
  3  4  2  0  0  0  0
  6  2  2  0  0  0  0
  7  6  1  0  0  0  0
  7  1  2  0  0  0  0
  8 15  1  0  0  0  0
  8 14  1  0  0  0  0
  9 11  1  0  0  0  0
  9 12  2  0  0  0  0
 11  8  2  0  0  0  0
 12 13  1  0  0  0  0
 13 15  2  0  0  0  0
 13  6  1  0  0  0  0
 14 10  1  0  0  0  0
 15 14  1  0  0  0  0
 16 11  1  0  0  0  0
 17 20  1  6  0  0  0
 17 24  1  0  0  0  0
 18 20  2  0  0  0  0
 19 22  1  0  0  0  0
 20 19  1  0  0  0  0
 21 23  1  0  0  0  0
 21 18  1  0  0  0  0
 22 16  1  0  0  0  0
 23 26  1  0  0  0  0
 24 22  2  0  0  0  0
 26 25  1  6  0  0  0
 26 17  1  0  0  0  0
 27  7  1  0  0  0  0
 28 27  1  6  0  0  0
 28 29  1  0  0  0  0
 29 30  1  0  0  0  0
 30 31  2  0  0  0  0
 30 32  1  0  0  0  0
 32 33  1  6  0  0  0
 34 32  1  0  0  0  0
 35 34  1  0  0  0  0
 36 35  1  0  0  0  0
 37 28  1  0  0  0  0
 38 37  1  0  0  0  0
 39 38  1  0  0  0  0
 40 39  1  0  0  0  0
 41 40  1  0  0  0  0
 42 41  1  0  0  0  0
M  END
>  <MODEL>
6

>  <REMARK>
 VINA RESULT:      -4.5      1.456      4.227
  Name = 
  13 active torsions:
  status: ('A' for Active; 'I' for Inactive)
    1  A    between atoms: N_1  and  C_8
    2  A    between atoms: C_3  and  C_41
    3  A    between atoms: C_9  and  N_24
    4  A    between atoms: C_9  and  C_27
    5  A    between atoms: C_9  and  O_32
    6  A    between atoms: C_14  and  C_28
    7  A    between atoms: C_14  and  C_41
    8  A    between atoms: C_15  and  C_33
    9  A    between atoms: C_20  and  C_22
   10  A    between atoms: C_20  and  O_32
   11  A    between atoms: C_22  and  C_33
   12  A    between atoms: C_23  and  C_34
   13  A    between atoms: C_27  and  C_40
                            x       y       z     vdW  Elec       q    Type
                         _______ _______ _______ _____ _____    ______ ____

>  <TORSDO>
F 13

$$$$
