=
 OpenBabel11072413483D

 29 31  0  0  1  0  0  0  0  0999 V2000
  161.0640  208.6430  153.6070 C   0  0  2  0  0  3  0  0  0  0  0  0
  161.5090  207.6000  151.3090 C   0  0  2  0  0  0  0  0  0  0  0  0
  162.1940  206.4380  151.9900 C   0  0  0  0  0  0  0  0  0  0  0  0
  161.2240  206.4350  154.3430 C   0  0  0  0  0  2  0  0  0  0  0  0
  162.2660  208.9050  151.4290 C   0  0  0  0  0  2  0  0  0  0  0  0
  161.6100  205.7640  153.1080 N   0  0  0  0  0  2  0  0  0  0  0  0
  160.9040  208.7620  152.0940 C   0  0  2  0  0  3  0  0  0  0  0  0
  163.2530  205.9770  151.4900 O   0  0  0  0  0  0  0  0  0  0  0  0
  160.2810  207.5060  154.0750 N   0  0  0  0  0  2  0  0  0  0  0  0
  157.8070  212.2340  153.5590 C   0  0  0  0  0  1  0  0  0  0  0  0
  159.0610  211.7940  154.2850 C   0  0  1  0  0  3  0  0  0  0  0  0
  160.4960  209.2510  156.8380 C   0  0  0  0  0  1  0  0  0  0  0  0
  161.9100  210.7330  154.7680 C   0  0  0  0  0  1  0  0  0  0  0  0
  158.6230  211.0050  155.8610 S   0  0  0  0  0  0  0  0  0  0  0  0
  159.8220  210.7950  153.4380 C   0  0  0  0  0  2  0  0  0  0  0  0
  159.7590  209.6160  155.5560 C   0  0  1  0  0  3  0  0  0  0  0  0
  160.6690  209.9330  154.3580 C   0  0  1  0  0  0  0  0  0  0  0  0
  160.8380  207.3700  149.9590 C   0  0  0  0  0  2  0  0  0  0  0  0
  161.6330  207.9520  148.7950 C   0  0  0  0  0  2  0  0  0  0  0  0
  162.5010  206.9410  148.2120 N   0  0  0  0  0  2  0  0  0  0  0  0
  161.5160  205.7460  147.4300 S   0  0  0  0  0  0  0  0  0  0  0  0
  161.3050  204.6040  148.3840 O   0  0  0  0  0  0  0  0  0  0  0  0
  160.1810  206.3380  147.0750 O   0  0  0  0  0  0  0  0  0  0  0  0
  163.6030  204.4210  146.3200 C   0  0  0  0  0  1  0  0  0  0  0  0
  162.6350  206.2120  145.1330 F   0  0  0  0  0  0  0  0  0  0  0  0
  162.3170  205.1400  145.9480 C   0  0  2  0  0  0  0  0  0  0  0  0
  161.2790  202.8860  145.6060 O   0  0  0  0  0  1  0  0  0  0  0  0
  161.3970  204.2120  145.2090 C   0  0  0  0  0  0  0  0  0  0  0  0
  160.7600  204.6130  144.1970 O   0  0  0  0  0  0  0  0  0  0  0  0
  1  9  1  1  0  0  0
  1 17  1  0  0  0  0
  2 18  1  6  0  0  0
  2  5  1  0  0  0  0
  2  3  1  0  0  0  0
  2  7  1  0  0  0  0
  3  6  1  0  0  0  0
  6  4  1  0  0  0  0
  7  5  1  6  0  0  0
  7  1  1  0  0  0  0
  8  3  2  0  0  0  0
  9  4  1  0  0  0  0
 11 10  1  6  0  0  0
 11 14  1  0  0  0  0
 15 11  1  0  0  0  0
 15 17  1  0  0  0  0
 16 14  1  0  0  0  0
 16 12  1  1  0  0  0
 17 13  1  1  0  0  0
 17 16  1  0  0  0  0
 19 18  1  0  0  0  0
 20 19  1  0  0  0  0
 21 20  1  0  0  0  0
 21 22  2  0  0  0  0
 23 21  2  0  0  0  0
 25 26  1  0  0  0  0
 26 24  1  1  0  0  0
 26 21  1  0  0  0  0
 28 27  1  0  0  0  0
 28 26  1  0  0  0  0
 29 28  2  0  0  0  0
M  END
>  <MODEL>
1

>  <REMARK>
 VINA RESULT:      -7.4      0.000      0.000
  Name = 
  7 active torsions:
  status: ('A' for Active; 'I' for Inactive)
    1  A    between atoms: C_2  and  C_24
    2  A    between atoms: C_3  and  C_20
    3  A    between atoms: C_6  and  C_20
    4  A    between atoms: C_6  and  N_28
    5  A    between atoms: S_15  and  C_26
    6  A    between atoms: S_15  and  N_28
    7  A    between atoms: C_21  and  C_26
                            x       y       z     vdW  Elec       q    Type
                         _______ _______ _______ _____ _____    ______ ____

>  <TORSDO>
F 7

$$$$
=
 OpenBabel11072413483D

 29 31  0  0  1  0  0  0  0  0999 V2000
  161.0860  208.6350  153.4670 C   0  0  2  0  0  3  0  0  0  0  0  0
  161.4620  207.4700  151.2170 C   0  0  2  0  0  0  0  0  0  0  0  0
  162.1610  206.3420  151.9380 C   0  0  0  0  0  0  0  0  0  0  0  0
  161.2560  206.4680  154.3140 C   0  0  0  0  0  2  0  0  0  0  0  0
  162.2280  208.7760  151.2460 C   0  0  0  0  0  2  0  0  0  0  0  0
  161.6050  205.7310  153.1060 N   0  0  0  0  0  2  0  0  0  0  0  0
  160.8840  208.6750  151.9550 C   0  0  2  0  0  3  0  0  0  0  0  0
  163.2030  205.8490  151.4350 O   0  0  0  0  0  0  0  0  0  0  0  0
  160.3110  207.5290  154.0160 N   0  0  0  0  0  2  0  0  0  0  0  0
  158.0090  212.3700  153.1540 C   0  0  0  0  0  1  0  0  0  0  0  0
  159.2050  211.8960  153.9530 C   0  0  1  0  0  3  0  0  0  0  0  0
  160.3930  209.3710  156.6480 C   0  0  0  0  0  1  0  0  0  0  0  0
  161.9740  210.7200  154.6070 C   0  0  0  0  0  1  0  0  0  0  0  0
  158.6550  211.1780  155.5280 S   0  0  0  0  0  0  0  0  0  0  0  0
  159.9570  210.8360  153.1740 C   0  0  0  0  0  2  0  0  0  0  0  0
  159.7360  209.7290  155.3200 C   0  0  1  0  0  3  0  0  0  0  0  0
  160.7170  209.9650  154.1600 C   0  0  1  0  0  0  0  0  0  0  0  0
  160.7530  207.1740  149.8990 C   0  0  0  0  0  2  0  0  0  0  0  0
  161.4850  207.7460  148.6900 C   0  0  0  0  0  2  0  0  0  0  0  0
  162.4510  206.7870  148.1750 N   0  0  0  0  0  2  0  0  0  0  0  0
  161.7240  205.9130  146.8650 S   0  0  0  0  0  0  0  0  0  0  0  0
  160.2640  206.2670  146.8080 O   0  0  0  0  0  0  0  0  0  0  0  0
  162.3720  206.3070  145.5670 O   0  0  0  0  0  0  0  0  0  0  0  0
  161.2510  203.7500  148.4270 C   0  0  0  0  0  1  0  0  0  0  0  0
  163.2430  203.8280  147.1690 F   0  0  0  0  0  0  0  0  0  0  0  0
  161.8980  204.1490  147.1110 C   0  0  2  0  0  0  0  0  0  0  0  0
  160.9340  204.0760  144.8000 O   0  0  0  0  0  0  0  0  0  0  0  0
  161.2610  203.4060  145.9730 C   0  0  0  0  0  0  0  0  0  0  0  0
  160.9740  202.1830  146.0860 O   0  0  0  0  0  1  0  0  0  0  0  0
  1  9  1  1  0  0  0
  1 17  1  0  0  0  0
  2 18  1  6  0  0  0
  2  5  1  0  0  0  0
  2  3  1  0  0  0  0
  2  7  1  0  0  0  0
  3  6  1  0  0  0  0
  6  4  1  0  0  0  0
  7  5  1  6  0  0  0
  7  1  1  0  0  0  0
  8  3  2  0  0  0  0
  9  4  1  0  0  0  0
 11 10  1  6  0  0  0
 11 14  1  0  0  0  0
 15 11  1  0  0  0  0
 15 17  1  0  0  0  0
 16 14  1  0  0  0  0
 16 12  1  1  0  0  0
 17 13  1  1  0  0  0
 17 16  1  0  0  0  0
 19 18  1  0  0  0  0
 20 19  1  0  0  0  0
 21 26  1  0  0  0  0
 21 20  1  0  0  0  0
 22 21  2  0  0  0  0
 23 21  2  0  0  0  0
 26 25  1  0  0  0  0
 26 24  1  1  0  0  0
 27 28  2  0  0  0  0
 28 29  1  0  0  0  0
 28 26  1  0  0  0  0
M  END
>  <MODEL>
2

>  <REMARK>
 VINA RESULT:      -7.1      1.072      1.326
  Name = 
  7 active torsions:
  status: ('A' for Active; 'I' for Inactive)
    1  A    between atoms: C_2  and  C_24
    2  A    between atoms: C_3  and  C_20
    3  A    between atoms: C_6  and  C_20
    4  A    between atoms: C_6  and  N_28
    5  A    between atoms: S_15  and  C_26
    6  A    between atoms: S_15  and  N_28
    7  A    between atoms: C_21  and  C_26
                            x       y       z     vdW  Elec       q    Type
                         _______ _______ _______ _____ _____    ______ ____

>  <TORSDO>
F 7

$$$$
=
 OpenBabel11072413483D

 29 31  0  0  1  0  0  0  0  0999 V2000
  161.4210  209.4250  152.6470 C   0  0  2  0  0  3  0  0  0  0  0  0
  161.6540  207.0860  151.6290 C   0  0  2  0  0  0  0  0  0  0  0  0
  161.4240  207.6790  150.2590 C   0  0  0  0  0  0  0  0  0  0  0  0
  162.0800  210.1240  150.5210 C   0  0  0  0  0  2  0  0  0  0  0  0
  160.4330  207.1310  152.5220 C   0  0  0  0  0  2  0  0  0  0  0  0
  162.1160  208.8490  149.8150 N   0  0  0  0  0  2  0  0  0  0  0  0
  161.6680  207.9400  152.8950 C   0  0  2  0  0  3  0  0  0  0  0  0
  160.6900  207.0620  149.4430 O   0  0  0  0  0  0  0  0  0  0  0  0
  162.5410  209.9680  151.8900 N   0  0  0  0  0  2  0  0  0  0  0  0
  158.8350  213.1060  154.4570 C   0  0  0  0  0  1  0  0  0  0  0  0
  159.9370  212.1410  154.8430 C   0  0  1  0  0  3  0  0  0  0  0  0
  160.7170  208.4540  155.7600 C   0  0  0  0  0  1  0  0  0  0  0  0
  162.5180  210.4720  154.6800 C   0  0  0  0  0  1  0  0  0  0  0  0
  159.2510  210.7750  155.8230 S   0  0  0  0  0  0  0  0  0  0  0  0
  160.5800  211.5690  153.5970 C   0  0  0  0  0  2  0  0  0  0  0  0
  160.1540  209.5340  154.8450 C   0  0  1  0  0  3  0  0  0  0  0  0
  161.1940  210.2240  153.9490 C   0  0  1  0  0  0  0  0  0  0  0  0
  162.4890  205.8150  151.7500 C   0  0  0  0  0  2  0  0  0  0  0  0
  161.6530  204.5850  152.0840 C   0  0  0  0  0  2  0  0  0  0  0  0
  162.0550  203.4540  151.2610 N   0  0  0  0  0  2  0  0  0  0  0  0
  160.9830  203.3460  149.9020 S   0  0  0  0  0  0  0  0  0  0  0  0
  159.7110  204.0730  150.2390 O   0  0  0  0  0  0  0  0  0  0  0  0
  161.6120  203.9960  148.7010 O   0  0  0  0  0  0  0  0  0  0  0  0
  159.1060  201.4120  149.6150 C   0  0  0  0  0  1  0  0  0  0  0  0
  161.2250  200.8210  150.4630 F   0  0  0  0  0  0  0  0  0  0  0  0
  160.6070  201.6350  149.5300 C   0  0  2  0  0  0  0  0  0  0  0  0
  160.6390  201.9760  147.0490 O   0  0  0  0  0  0  0  0  0  0  0  0
  161.1080  201.2850  148.1590 C   0  0  0  0  0  0  0  0  0  0  0  0
  161.9200  200.3340  147.9970 O   0  0  0  0  0  1  0  0  0  0  0  0
  1  9  1  1  0  0  0
  1  7  1  0  0  0  0
  1 17  1  0  0  0  0
  2 18  1  1  0  0  0
  2  5  1  0  0  0  0
  2  7  1  0  0  0  0
  3  2  1  0  0  0  0
  4  9  1  0  0  0  0
  6  3  1  0  0  0  0
  6  4  1  0  0  0  0
  7  5  1  1  0  0  0
  8  3  2  0  0  0  0
 11 10  1  6  0  0  0
 11 14  1  0  0  0  0
 15 17  1  0  0  0  0
 15 11  1  0  0  0  0
 16 12  1  1  0  0  0
 16 14  1  0  0  0  0
 17 13  1  1  0  0  0
 17 16  1  0  0  0  0
 18 19  1  0  0  0  0
 20 19  1  0  0  0  0
 21 22  2  0  0  0  0
 21 20  1  0  0  0  0
 23 21  2  0  0  0  0
 26 24  1  1  0  0  0
 26 21  1  0  0  0  0
 26 25  1  0  0  0  0
 27 28  2  0  0  0  0
 28 26  1  0  0  0  0
 29 28  1  0  0  0  0
M  END
>  <MODEL>
3

>  <REMARK>
 VINA RESULT:      -5.6      2.808      3.554
  Name = 
  7 active torsions:
  status: ('A' for Active; 'I' for Inactive)
    1  A    between atoms: C_2  and  C_24
    2  A    between atoms: C_3  and  C_20
    3  A    between atoms: C_6  and  C_20
    4  A    between atoms: C_6  and  N_28
    5  A    between atoms: S_15  and  C_26
    6  A    between atoms: S_15  and  N_28
    7  A    between atoms: C_21  and  C_26
                            x       y       z     vdW  Elec       q    Type
                         _______ _______ _______ _____ _____    ______ ____

>  <TORSDO>
F 7

$$$$
=
 OpenBabel11072413483D

 29 31  0  0  1  0  0  0  0  0999 V2000
  159.3110  211.7120  155.1220 C   0  0  2  0  0  3  0  0  0  0  0  0
  160.6200  209.5930  154.5230 C   0  0  2  0  0  0  0  0  0  0  0  0
  161.0670  209.4840  155.9610 C   0  0  0  0  0  0  0  0  0  0  0  0
  159.3040  210.7790  157.2610 C   0  0  0  0  0  2  0  0  0  0  0  0
  161.2120  210.7790  153.7910 C   0  0  0  0  0  2  0  0  0  0  0  0
  160.1500  209.6110  157.0510 N   0  0  0  0  0  2  0  0  0  0  0  0
  159.7100  210.7180  154.0350 C   0  0  2  0  0  3  0  0  0  0  0  0
  162.2580  209.1590  156.2070 O   0  0  0  0  0  0  0  0  0  0  0  0
  158.4710  211.0290  156.0980 N   0  0  0  0  0  2  0  0  0  0  0  0
  157.7360  213.6640  150.9730 C   0  0  0  0  0  1  0  0  0  0  0  0
  157.8720  213.9860  152.4460 C   0  0  1  0  0  3  0  0  0  0  0  0
  156.4650  213.2280  155.9810 C   0  0  0  0  0  1  0  0  0  0  0  0
  159.1010  214.2360  155.2580 C   0  0  0  0  0  1  0  0  0  0  0  0
  156.2830  213.7330  153.2880 S   0  0  0  0  0  0  0  0  0  0  0  0
  158.9060  213.0770  153.0780 C   0  0  0  0  0  2  0  0  0  0  0  0
  157.0740  212.8160  154.6460 C   0  0  1  0  0  3  0  0  0  0  0  0
  158.6020  212.9650  154.5630 C   0  0  1  0  0  0  0  0  0  0  0  0
  160.5040  208.3200  153.6890 C   0  0  0  0  0  2  0  0  0  0  0  0
  161.4960  208.2760  152.5320 C   0  0  0  0  0  2  0  0  0  0  0  0
  160.7940  208.2230  151.2580 N   0  0  0  0  0  2  0  0  0  0  0  0
  161.8400  207.5040  150.0770 S   0  0  0  0  0  0  0  0  0  0  0  0
  162.2120  208.5540  149.0670 O   0  0  0  0  0  0  0  0  0  0  0  0
  163.0920  207.0020  150.7400 O   0  0  0  0  0  0  0  0  0  0  0  0
  161.6820  205.8900  147.9050 C   0  0  0  0  0  1  0  0  0  0  0  0
  159.6940  206.4910  149.0200 F   0  0  0  0  0  0  0  0  0  0  0  0
  161.0160  206.1490  149.2460 C   0  0  2  0  0  0  0  0  0  0  0  0
  161.3290  203.6780  149.5210 O   0  0  0  0  0  0  0  0  0  0  0  0
  161.0690  204.9150  150.1000 C   0  0  0  0  0  0  0  0  0  0  0  0
  160.8320  204.9800  151.3360 O   0  0  0  0  0  1  0  0  0  0  0  0
  1  9  1  1  0  0  0
  2 18  1  6  0  0  0
  2  3  1  0  0  0  0
  3  8  2  0  0  0  0
  3  6  1  0  0  0  0
  5  2  1  0  0  0  0
  6  4  1  0  0  0  0
  7  5  1  6  0  0  0
  7  2  1  0  0  0  0
  7  1  1  0  0  0  0
  9  4  1  0  0  0  0
 11 10  1  6  0  0  0
 11 15  1  0  0  0  0
 11 14  1  0  0  0  0
 14 16  1  0  0  0  0
 15 17  1  0  0  0  0
 16 12  1  1  0  0  0
 17 16  1  0  0  0  0
 17  1  1  0  0  0  0
 17 13  1  1  0  0  0
 19 18  1  0  0  0  0
 20 19  1  0  0  0  0
 21 23  2  0  0  0  0
 21 20  1  0  0  0  0
 22 21  2  0  0  0  0
 25 26  1  0  0  0  0
 26 24  1  6  0  0  0
 26 21  1  0  0  0  0
 26 28  1  0  0  0  0
 27 28  2  0  0  0  0
 28 29  1  0  0  0  0
M  END
>  <MODEL>
4

>  <REMARK>
 VINA RESULT:      -5.5      2.683      4.358
  Name = 
  7 active torsions:
  status: ('A' for Active; 'I' for Inactive)
    1  A    between atoms: C_2  and  C_24
    2  A    between atoms: C_3  and  C_20
    3  A    between atoms: C_6  and  C_20
    4  A    between atoms: C_6  and  N_28
    5  A    between atoms: S_15  and  C_26
    6  A    between atoms: S_15  and  N_28
    7  A    between atoms: C_21  and  C_26
                            x       y       z     vdW  Elec       q    Type
                         _______ _______ _______ _____ _____    ______ ____

>  <TORSDO>
F 7

$$$$
=
 OpenBabel11072413483D

 29 31  0  0  1  0  0  0  0  0999 V2000
  161.2670  204.1370  148.5830 C   0  0  2  0  0  3  0  0  0  0  0  0
  161.2510  205.0340  150.9830 C   0  0  2  0  0  0  0  0  0  0  0  0
  160.4570  203.8230  151.4110 C   0  0  0  0  0  0  0  0  0  0  0  0
  160.9830  202.0750  149.6380 C   0  0  0  0  0  2  0  0  0  0  0  0
  160.4800  205.9770  150.0830 C   0  0  0  0  0  2  0  0  0  0  0  0
  160.8310  202.4980  151.0240 N   0  0  0  0  0  2  0  0  0  0  0  0
  161.6990  205.2460  149.5390 C   0  0  2  0  0  3  0  0  0  0  0  0
  159.5080  203.9720  152.2250 O   0  0  0  0  0  0  0  0  0  0  0  0
  161.9560  202.9060  148.9500 N   0  0  0  0  0  2  0  0  0  0  0  0
  159.5100  203.3390  144.1350 C   0  0  0  0  0  1  0  0  0  0  0  0
  160.6650  204.0200  144.8380 C   0  0  1  0  0  3  0  0  0  0  0  0
  161.6720  207.0600  147.0270 C   0  0  0  0  0  1  0  0  0  0  0  0
  163.0120  204.4860  146.7760 C   0  0  0  0  0  1  0  0  0  0  0  0
  160.3450  205.8020  144.9780 S   0  0  0  0  0  0  0  0  0  0  0  0
  160.8310  203.4460  146.2300 C   0  0  0  0  0  2  0  0  0  0  0  0
  160.8390  205.8190  146.7300 C   0  0  1  0  0  3  0  0  0  0  0  0
  161.5140  204.4880  147.1000 C   0  0  1  0  0  0  0  0  0  0  0  0
  162.1560  205.7190  152.0010 C   0  0  0  0  0  2  0  0  0  0  0  0
  162.0580  207.2400  151.9550 C   0  0  0  0  0  2  0  0  0  0  0  0
  161.3570  207.7440  153.1260 N   0  0  0  0  0  2  0  0  0  0  0  0
  161.2840  209.4740  153.0300 S   0  0  0  0  0  0  0  0  0  0  0  0
  162.4290  209.9530  152.1830 O   0  0  0  0  0  0  0  0  0  0  0  0
  159.9920  209.8950  152.3860 O   0  0  0  0  0  0  0  0  0  0  0  0
  160.5280  211.4400  154.7350 C   0  0  0  0  0  1  0  0  0  0  0  0
  162.7170  210.5810  154.8920 F   0  0  0  0  0  0  0  0  0  0  0  0
  161.4060  210.2020  154.6610 C   0  0  2  0  0  0  0  0  0  0  0  0
  161.9500  208.5090  156.4260 O   0  0  0  0  0  1  0  0  0  0  0  0
  160.9880  209.2050  155.7020 C   0  0  0  0  0  0  0  0  0  0  0  0
  159.7680  208.9540  155.8970 O   0  0  0  0  0  0  0  0  0  0  0  0
  1  9  1  1  0  0  0
  1  7  1  0  0  0  0
  2  3  1  0  0  0  0
  2 18  1  1  0  0  0
  3  8  2  0  0  0  0
  4  6  1  0  0  0  0
  5  2  1  0  0  0  0
  6  3  1  0  0  0  0
  7  5  1  6  0  0  0
  7  2  1  0  0  0  0
  9  4  1  0  0  0  0
 11 10  1  1  0  0  0
 11 14  1  0  0  0  0
 11 15  1  0  0  0  0
 14 16  1  0  0  0  0
 15 17  1  0  0  0  0
 16 12  1  6  0  0  0
 16 17  1  0  0  0  0
 17 13  1  6  0  0  0
 17  1  1  0  0  0  0
 19 18  1  0  0  0  0
 19 20  1  0  0  0  0
 21 20  1  0  0  0  0
 21 26  1  0  0  0  0
 22 21  2  0  0  0  0
 23 21  2  0  0  0  0
 26 24  1  1  0  0  0
 26 25  1  0  0  0  0
 26 28  1  0  0  0  0
 28 29  2  0  0  0  0
 28 27  1  0  0  0  0
M  END
>  <MODEL>
5

>  <REMARK>
 VINA RESULT:      -5.1      3.674      8.603
  Name = 
  7 active torsions:
  status: ('A' for Active; 'I' for Inactive)
    1  A    between atoms: C_2  and  C_24
    2  A    between atoms: C_3  and  C_20
    3  A    between atoms: C_6  and  C_20
    4  A    between atoms: C_6  and  N_28
    5  A    between atoms: S_15  and  C_26
    6  A    between atoms: S_15  and  N_28
    7  A    between atoms: C_21  and  C_26
                            x       y       z     vdW  Elec       q    Type
                         _______ _______ _______ _____ _____    ______ ____

>  <TORSDO>
F 7

$$$$
=
 OpenBabel11072413483D

 29 31  0  0  1  0  0  0  0  0999 V2000
  161.7040  207.8120  152.4520 C   0  0  2  0  0  3  0  0  0  0  0  0
  160.7630  208.7870  154.6260 C   0  0  2  0  0  0  0  0  0  0  0  0
  161.5930  210.0290  154.4070 C   0  0  0  0  0  0  0  0  0  0  0  0
  162.0240  210.0560  151.8990 C   0  0  0  0  0  2  0  0  0  0  0  0
  161.5860  207.5540  154.9370 C   0  0  0  0  0  2  0  0  0  0  0  0
  161.6310  210.7010  153.1450 N   0  0  0  0  0  2  0  0  0  0  0  0
  160.7770  207.6140  153.6480 C   0  0  2  0  0  3  0  0  0  0  0  0
  162.1770  210.5540  155.3910 O   0  0  0  0  0  0  0  0  0  0  0  0
  161.1870  208.8990  151.6310 N   0  0  0  0  0  2  0  0  0  0  0  0
  160.4820  203.1210  152.3480 C   0  0  0  0  0  1  0  0  0  0  0  0
  161.3310  204.1310  151.6050 C   0  0  1  0  0  3  0  0  0  0  0  0
  161.2280  207.1810  149.2100 C   0  0  0  0  0  1  0  0  0  0  0  0
  163.3240  206.4190  151.0840 C   0  0  0  0  0  1  0  0  0  0  0  0
  160.4570  204.7080  150.1220 S   0  0  0  0  0  0  0  0  0  0  0  0
  161.6110  205.3230  152.4970 C   0  0  0  0  0  2  0  0  0  0  0  0
  160.8450  206.4480  150.4890 C   0  0  1  0  0  3  0  0  0  0  0  0
  161.8910  206.5280  151.6140 C   0  0  1  0  0  0  0  0  0  0  0  0
  159.4600  208.9000  155.4110 C   0  0  0  0  0  2  0  0  0  0  0  0
  159.2660  210.2730  156.0450 C   0  0  0  0  0  2  0  0  0  0  0  0
  157.9400  210.7920  155.7470 N   0  0  0  0  0  2  0  0  0  0  0  0
  158.0550  212.5040  155.4960 S   0  0  0  0  0  0  0  0  0  0  0  0
  157.4350  213.2020  156.6740 O   0  0  0  0  0  0  0  0  0  0  0  0
  159.4990  212.9090  155.3950 O   0  0  0  0  0  0  0  0  0  0  0  0
  156.8150  214.4520  154.0780 C   0  0  0  0  0  1  0  0  0  0  0  0
  156.0310  212.2370  153.8900 F   0  0  0  0  0  0  0  0  0  0  0  0
  157.1920  212.9820  154.0020 C   0  0  2  0  0  0  0  0  0  0  0  0
  158.5250  211.4460  152.5390 O   0  0  0  0  0  1  0  0  0  0  0  0
  158.0600  212.7290  152.8040 C   0  0  0  0  0  0  0  0  0  0  0  0
  158.4130  213.6800  152.0560 O   0  0  0  0  0  0  0  0  0  0  0  0
  1  9  1  6  0  0  0
  1  7  1  0  0  0  0
  2  5  1  0  0  0  0
  2 18  1  1  0  0  0
  3  2  1  0  0  0  0
  3  8  2  0  0  0  0
  4  6  1  0  0  0  0
  6  3  1  0  0  0  0
  7  2  1  0  0  0  0
  7  5  1  1  0  0  0
  9  4  1  0  0  0  0
 11 10  1  1  0  0  0
 11 15  1  0  0  0  0
 14 16  1  0  0  0  0
 14 11  1  0  0  0  0
 16 12  1  6  0  0  0
 16 17  1  0  0  0  0
 17 13  1  6  0  0  0
 17  1  1  0  0  0  0
 17 15  1  0  0  0  0
 18 19  1  0  0  0  0
 20 19  1  0  0  0  0
 21 20  1  0  0  0  0
 21 22  2  0  0  0  0
 23 21  2  0  0  0  0
 25 26  1  0  0  0  0
 26 24  1  1  0  0  0
 26 21  1  0  0  0  0
 27 28  1  0  0  0  0
 28 26  1  0  0  0  0
 29 28  2  0  0  0  0
M  END
>  <MODEL>
6

>  <REMARK>
 VINA RESULT:      -5.1      4.954      8.488
  Name = 
  7 active torsions:
  status: ('A' for Active; 'I' for Inactive)
    1  A    between atoms: C_2  and  C_24
    2  A    between atoms: C_3  and  C_20
    3  A    between atoms: C_6  and  C_20
    4  A    between atoms: C_6  and  N_28
    5  A    between atoms: S_15  and  C_26
    6  A    between atoms: S_15  and  N_28
    7  A    between atoms: C_21  and  C_26
                            x       y       z     vdW  Elec       q    Type
                         _______ _______ _______ _____ _____    ______ ____

>  <TORSDO>
F 7

$$$$
=
 OpenBabel11072413483D

 29 31  0  0  1  0  0  0  0  0999 V2000
  161.8990  206.0090  148.3580 C   0  0  2  0  0  3  0  0  0  0  0  0
  161.5130  206.7240  150.7880 C   0  0  2  0  0  0  0  0  0  0  0  0
  161.9960  208.1120  150.4360 C   0  0  0  0  0  0  0  0  0  0  0  0
  161.6200  208.2840  147.9250 C   0  0  0  0  0  2  0  0  0  0  0  0
  162.6010  205.6720  150.7350 C   0  0  0  0  0  2  0  0  0  0  0  0
  161.5200  208.8080  149.2810 N   0  0  0  0  0  2  0  0  0  0  0  0
  161.4380  205.6020  149.7550 C   0  0  2  0  0  3  0  0  0  0  0  0
  162.7490  208.7180  151.2420 O   0  0  0  0  0  0  0  0  0  0  0  0
  160.9650  206.9910  147.8220 N   0  0  0  0  0  2  0  0  0  0  0  0
  160.4500  201.4220  147.7430 C   0  0  0  0  0  1  0  0  0  0  0  0
  161.3710  202.4560  147.1300 C   0  0  1  0  0  3  0  0  0  0  0  0
  161.4930  205.7330  145.0570 C   0  0  0  0  0  1  0  0  0  0  0  0
  163.4900  204.6780  146.8970 C   0  0  0  0  0  1  0  0  0  0  0  0
  160.5730  203.2240  145.6910 S   0  0  0  0  0  0  0  0  0  0  0  0
  161.6810  203.5360  148.1460 C   0  0  0  0  0  2  0  0  0  0  0  0
  161.0350  204.8960  146.2450 C   0  0  1  0  0  3  0  0  0  0  0  0
  162.0470  204.8070  147.3990 C   0  0  1  0  0  0  0  0  0  0  0  0
  160.5180  206.5590  151.9310 C   0  0  0  0  0  2  0  0  0  0  0  0
  161.1820  206.1500  153.2420 C   0  0  0  0  0  2  0  0  0  0  0  0
  161.9170  207.2680  153.8140 N   0  0  0  0  0  2  0  0  0  0  0  0
  160.9970  207.9220  155.1310 S   0  0  0  0  0  0  0  0  0  0  0  0
  159.8200  207.0220  155.3840 O   0  0  0  0  0  0  0  0  0  0  0  0
  161.8460  207.9740  156.3710 O   0  0  0  0  0  0  0  0  0  0  0  0
  159.1780  209.8830  155.5650 C   0  0  0  0  0  1  0  0  0  0  0  0
  160.0620  209.6150  153.3970 F   0  0  0  0  0  0  0  0  0  0  0  0
  160.4110  209.5670  154.7350 C   0  0  2  0  0  0  0  0  0  0  0  0
  162.6310  210.6010  154.2090 O   0  0  0  0  0  0  0  0  0  0  0  0
  161.4900  210.5750  155.0020 C   0  0  0  0  0  0  0  0  0  0  0  0
  161.3950  211.3740  155.9720 O   0  0  0  0  0  1  0  0  0  0  0  0
  1  9  1  6  0  0  0
  1  7  1  0  0  0  0
  2 18  1  1  0  0  0
  3  2  1  0  0  0  0
  3  8  2  0  0  0  0
  4  6  1  0  0  0  0
  5  2  1  0  0  0  0
  6  3  1  0  0  0  0
  7  5  1  1  0  0  0
  7  2  1  0  0  0  0
  9  4  1  0  0  0  0
 11 10  1  1  0  0  0
 11 15  1  0  0  0  0
 14 16  1  0  0  0  0
 14 11  1  0  0  0  0
 16 12  1  6  0  0  0
 16 17  1  0  0  0  0
 17 13  1  6  0  0  0
 17 15  1  0  0  0  0
 17  1  1  0  0  0  0
 18 19  1  0  0  0  0
 19 20  1  0  0  0  0
 20 21  1  0  0  0  0
 21 22  2  0  0  0  0
 21 23  2  0  0  0  0
 25 26  1  0  0  0  0
 26 28  1  0  0  0  0
 26 21  1  0  0  0  0
 26 24  1  1  0  0  0
 27 28  2  0  0  0  0
 28 29  1  0  0  0  0
M  END
>  <MODEL>
7

>  <REMARK>
 VINA RESULT:      -5.0      3.562      8.769
  Name = 
  7 active torsions:
  status: ('A' for Active; 'I' for Inactive)
    1  A    between atoms: C_2  and  C_24
    2  A    between atoms: C_3  and  C_20
    3  A    between atoms: C_6  and  C_20
    4  A    between atoms: C_6  and  N_28
    5  A    between atoms: S_15  and  C_26
    6  A    between atoms: S_15  and  N_28
    7  A    between atoms: C_21  and  C_26
                            x       y       z     vdW  Elec       q    Type
                         _______ _______ _______ _____ _____    ______ ____

>  <TORSDO>
F 7

$$$$
=
 OpenBabel11072413483D

 29 31  0  0  1  0  0  0  0  0999 V2000
  161.1810  208.9790  153.3260 C   0  0  2  0  0  3  0  0  0  0  0  0
  161.7040  206.8630  151.9800 C   0  0  2  0  0  0  0  0  0  0  0  0
  161.4710  207.6380  150.7050 C   0  0  0  0  0  0  0  0  0  0  0  0
  161.8530  210.0640  151.3740 C   0  0  0  0  0  2  0  0  0  0  0  0
  160.4480  206.6470  152.7980 C   0  0  0  0  0  2  0  0  0  0  0  0
  162.0530  208.9260  150.4850 N   0  0  0  0  0  2  0  0  0  0  0  0
  161.5740  207.5040  153.3600 C   0  0  2  0  0  3  0  0  0  0  0  0
  160.8410  207.0890  149.7640 O   0  0  0  0  0  0  0  0  0  0  0  0
  162.2690  209.7420  152.7270 N   0  0  0  0  0  2  0  0  0  0  0  0
  163.1580  211.0710  157.2290 C   0  0  0  0  0  1  0  0  0  0  0  0
  161.8350  210.5290  156.7280 C   0  0  1  0  0  3  0  0  0  0  0  0
  158.8760  211.1840  154.3060 C   0  0  0  0  0  1  0  0  0  0  0  0
  159.7820  208.6480  155.4160 C   0  0  0  0  0  1  0  0  0  0  0  0
  160.7840  211.8930  156.1500 S   0  0  0  0  0  0  0  0  0  0  0  0
  162.0720  209.5770  155.5740 C   0  0  0  0  0  2  0  0  0  0  0  0
  160.3560  211.0010  154.6220 C   0  0  1  0  0  3  0  0  0  0  0  0
  160.8170  209.5380  154.7190 C   0  0  1  0  0  0  0  0  0  0  0  0
  162.6630  205.6770  151.9560 C   0  0  0  0  0  2  0  0  0  0  0  0
  161.9460  204.3320  151.9870 C   0  0  0  0  0  2  0  0  0  0  0  0
  162.2890  203.5420  150.8140 N   0  0  0  0  0  2  0  0  0  0  0  0
  160.8810  203.3930  149.8120 S   0  0  0  0  0  0  0  0  0  0  0  0
  159.7120  204.0000  150.5380 O   0  0  0  0  0  0  0  0  0  0  0  0
  161.0910  204.1350  148.5210 O   0  0  0  0  0  0  0  0  0  0  0  0
  159.0310  201.4610  149.3730 C   0  0  0  0  0  1  0  0  0  0  0  0
  161.0220  200.8920  150.4990 F   0  0  0  0  0  0  0  0  0  0  0  0
  160.5330  201.6710  149.4650 C   0  0  2  0  0  0  0  0  0  0  0  0
  160.6130  201.5870  146.9630 O   0  0  0  0  0  0  0  0  0  0  0  0
  161.1960  201.2620  148.1820 C   0  0  0  0  0  0  0  0  0  0  0  0
  162.2570  200.5810  148.1970 O   0  0  0  0  0  1  0  0  0  0  0  0
  1  9  1  1  0  0  0
  1  7  1  0  0  0  0
  1 17  1  0  0  0  0
  2 18  1  6  0  0  0
  2  5  1  0  0  0  0
  2  7  1  0  0  0  0
  3  2  1  0  0  0  0
  4  9  1  0  0  0  0
  6  3  1  0  0  0  0
  6  4  1  0  0  0  0
  7  5  1  1  0  0  0
  8  3  2  0  0  0  0
 11 10  1  6  0  0  0
 14 11  1  0  0  0  0
 15 11  1  0  0  0  0
 16 12  1  1  0  0  0
 16 17  1  0  0  0  0
 16 14  1  0  0  0  0
 17 13  1  1  0  0  0
 17 15  1  0  0  0  0
 18 19  1  0  0  0  0
 20 19  1  0  0  0  0
 21 22  2  0  0  0  0
 21 20  1  0  0  0  0
 23 21  2  0  0  0  0
 26 24  1  6  0  0  0
 26 21  1  0  0  0  0
 26 25  1  0  0  0  0
 27 28  2  0  0  0  0
 28 29  1  0  0  0  0
 28 26  1  0  0  0  0
M  END
>  <MODEL>
8

>  <REMARK>
 VINA RESULT:      -5.0      2.893      3.900
  Name = 
  7 active torsions:
  status: ('A' for Active; 'I' for Inactive)
    1  A    between atoms: C_2  and  C_24
    2  A    between atoms: C_3  and  C_20
    3  A    between atoms: C_6  and  C_20
    4  A    between atoms: C_6  and  N_28
    5  A    between atoms: S_15  and  C_26
    6  A    between atoms: S_15  and  N_28
    7  A    between atoms: C_21  and  C_26
                            x       y       z     vdW  Elec       q    Type
                         _______ _______ _______ _____ _____    ______ ____

>  <TORSDO>
F 7

$$$$
=
 OpenBabel11072413483D

 29 31  0  0  1  0  0  0  0  0999 V2000
  161.1080  208.4800  153.3030 C   0  0  2  0  0  3  0  0  0  0  0  0
  161.3040  207.0410  151.1930 C   0  0  2  0  0  0  0  0  0  0  0  0
  161.8940  205.9290  152.0280 C   0  0  0  0  0  0  0  0  0  0  0  0
  161.0630  206.4140  154.3840 C   0  0  0  0  0  2  0  0  0  0  0  0
  162.2070  208.2500  151.0670 C   0  0  0  0  0  2  0  0  0  0  0  0
  161.3020  205.5150  153.2630 N   0  0  0  0  0  2  0  0  0  0  0  0
  160.8770  208.3760  151.7980 C   0  0  2  0  0  3  0  0  0  0  0  0
  162.8650  205.2720  151.5710 O   0  0  0  0  0  0  0  0  0  0  0  0
  160.2310  207.5340  153.9800 N   0  0  0  0  0  2  0  0  0  0  0  0
  158.4330  212.4660  152.6220 C   0  0  0  0  0  1  0  0  0  0  0  0
  159.5950  211.9580  153.4480 C   0  0  1  0  0  3  0  0  0  0  0  0
  160.5910  209.6340  156.3910 C   0  0  0  0  0  1  0  0  0  0  0  0
  162.2440  210.5710  154.1830 C   0  0  0  0  0  1  0  0  0  0  0  0
  159.0190  211.4830  155.1040 S   0  0  0  0  0  0  0  0  0  0  0  0
  160.2090  210.7440  152.7820 C   0  0  0  0  0  2  0  0  0  0  0  0
  159.9360  209.9110  155.0430 C   0  0  1  0  0  3  0  0  0  0  0  0
  160.9020  209.9110  153.8470 C   0  0  1  0  0  0  0  0  0  0  0  0
  160.5370  206.6810  149.9240 C   0  0  0  0  0  2  0  0  0  0  0  0
  161.4020  205.9720  148.8880 C   0  0  0  0  0  2  0  0  0  0  0  0
  160.5900  205.0960  148.0570 N   0  0  0  0  0  2  0  0  0  0  0  0
  161.1300  203.4620  148.2770 S   0  0  0  0  0  0  0  0  0  0  0  0
  160.8580  202.6960  147.0130 O   0  0  0  0  0  0  0  0  0  0  0  0
  162.6090  203.4450  148.5490 O   0  0  0  0  0  0  0  0  0  0  0  0
  159.1270  201.8330  149.1000 C   0  0  0  0  0  1  0  0  0  0  0  0
  159.7210  203.6710  150.4490 F   0  0  0  0  0  0  0  0  0  0  0  0
  160.2610  202.6890  149.6380 C   0  0  2  0  0  0  0  0  0  0  0  0
  161.7640  202.3520  151.6140 O   0  0  0  0  0  1  0  0  0  0  0  0
  161.2100  201.8490  150.4430 C   0  0  0  0  0  0  0  0  0  0  0  0
  161.5490  200.7030  150.0430 O   0  0  0  0  0  0  0  0  0  0  0  0
  1 17  1  0  0  0  0
  1  9  1  1  0  0  0
  2 18  1  6  0  0  0
  2  7  1  0  0  0  0
  2  3  1  0  0  0  0
  3  6  1  0  0  0  0
  5  2  1  0  0  0  0
  6  4  1  0  0  0  0
  7  5  1  6  0  0  0
  7  1  1  0  0  0  0
  8  3  2  0  0  0  0
  9  4  1  0  0  0  0
 11 10  1  6  0  0  0
 11 14  1  0  0  0  0
 15 11  1  0  0  0  0
 15 17  1  0  0  0  0
 16 14  1  0  0  0  0
 16 12  1  1  0  0  0
 17 13  1  1  0  0  0
 17 16  1  0  0  0  0
 19 18  1  0  0  0  0
 20 21  1  0  0  0  0
 20 19  1  0  0  0  0
 21 23  2  0  0  0  0
 21 26  1  0  0  0  0
 22 21  2  0  0  0  0
 26 24  1  6  0  0  0
 26 28  1  0  0  0  0
 26 25  1  0  0  0  0
 28 27  1  0  0  0  0
 29 28  2  0  0  0  0
M  END
>  <MODEL>
9

>  <REMARK>
 VINA RESULT:      -4.8      2.489      3.046
  Name = 
  7 active torsions:
  status: ('A' for Active; 'I' for Inactive)
    1  A    between atoms: C_2  and  C_24
    2  A    between atoms: C_3  and  C_20
    3  A    between atoms: C_6  and  C_20
    4  A    between atoms: C_6  and  N_28
    5  A    between atoms: S_15  and  C_26
    6  A    between atoms: S_15  and  N_28
    7  A    between atoms: C_21  and  C_26
                            x       y       z     vdW  Elec       q    Type
                         _______ _______ _______ _____ _____    ______ ____

>  <TORSDO>
F 7

$$$$
