=
 OpenBabel11072414073D

 57 63  0  0  1  0  0  0  0  0999 V2000
  157.5750  210.1770  155.9620 C   0  0  0  0  0  3  0  0  0  0  0  0
  158.6690  214.4400  154.5390 C   0  0  0  0  0  2  0  0  0  0  0  0
  159.1140  209.6330  152.5510 C   0  0  0  0  0  1  0  0  0  0  0  0
  159.5050  212.1120  154.6990 C   0  0  2  0  0  3  0  0  0  0  0  0
  156.8940  211.4640  156.3840 C   0  0  1  0  0  3  0  0  0  0  0  0
  159.8300  214.4510  153.5110 C   0  0  0  0  0  2  0  0  0  0  0  0
  156.4200  213.8080  155.9430 F   0  0  0  0  0  0  0  0  0  0  0  0
  159.3730  211.9490  153.2440 N   0  0  1  0  0  0  0  0  0  0  0  0
  157.3180  212.7880  155.7580 C   0  0  1  0  0  3  0  0  0  0  0  0
  159.9630  210.8530  155.3890 C   0  0  2  0  0  3  0  0  0  0  0  0
  160.8470  210.3380  154.2440 C   0  0  2  0  0  3  0  0  0  0  0  0
  159.8290  213.2010  152.5790 C   0  0  1  0  0  3  0  0  0  0  0  0
  158.8320  209.9050  155.5890 C   0  0  0  0  0  3  0  0  0  0  0  0
  160.1400  210.7090  152.9320 C   0  0  1  0  0  0  0  0  0  0  0  0
  158.5110  213.0960  155.2210 C   0  0  2  0  0  3  0  0  0  0  0  0
  157.9620  213.4420  148.1680 C   0  0  0  0  0  2  0  0  0  0  0  0
  159.3300  213.3150  148.8310 C   0  0  1  0  0  3  0  0  0  0  0  0
  159.4290  212.5720  150.1640 C   0  0  0  0  0  2  0  0  0  0  0  0
  157.5300  213.6970  151.4910 C   0  0  0  0  0  2  0  0  0  0  0  0
  157.1080  214.3370  149.0350 C   0  0  0  0  0  2  0  0  0  0  0  0
  156.6230  213.5580  150.2520 C   0  0  2  0  0  3  0  0  0  0  0  0
  159.0470  213.5540  151.2900 C   0  0  1  0  0  3  0  0  0  0  0  0
  155.2380  214.0490  150.5690 C   0  0  0  0  0  3  0  0  0  0  0  0
  154.4300  214.3340  149.7050 O   0  0  0  0  0  0  0  0  0  0  0  0
  160.3000  213.6070  146.5720 C   0  0  0  0  0  1  0  0  0  0  0  0
  160.6020  213.6110  148.0700 C   0  0  2  0  0  3  0  0  0  0  0  0
  161.7250  212.6390  148.4470 C   0  0  0  0  0  2  0  0  0  0  0  0
  162.9740  213.1870  148.1360 O   0  0  0  0  0  1  0  0  0  0  0  0
  161.6690  209.0390  154.3400 C   0  0  1  0  0  3  0  0  0  0  0  0
  163.0060  209.3750  154.6030 O   0  0  0  0  0  1  0  0  0  0  0  0
  161.1680  208.0020  155.3370 C   0  0  0  0  0  2  0  0  0  0  0  0
  161.9140  203.1470  151.9460 C   0  0  2  0  0  3  0  0  0  0  0  0
  160.7260  201.2420  146.3990 C   0  0  0  0  0  2  0  0  0  0  0  0
  161.2680  205.4390  152.7560 C   0  0  0  0  0  0  0  0  0  0  0  0
  159.3010  201.2750  146.9510 C   0  0  0  0  0  2  0  0  0  0  0  0
  161.4330  207.3270  151.0790 N   0  0  0  0  0  2  0  0  0  0  0  0
  159.3420  202.0060  148.2810 C   0  0  0  0  0  2  0  0  0  0  0  0
  161.1820  203.9520  153.0210 C   0  0  0  0  0  2  0  0  0  0  0  0
  161.6660  201.6140  147.5400 C   0  0  0  0  0  2  0  0  0  0  0  0
  160.7720  202.0860  148.6320 C   0  0  0  0  0  0  0  0  0  0  0  0
  161.5000  205.0760  150.3810 N   0  0  0  0  0  0  0  0  0  0  0  0
  161.5360  203.6540  150.5840 C   0  0  0  0  0  0  0  0  0  0  0  0
  161.1810  202.8560  149.6050 C   0  0  0  0  0  0  0  0  0  0  0  0
  161.3780  205.9210  151.3550 C   0  0  0  0  0  0  0  0  0  0  0  0
  160.8100  206.2320  153.6820 C   0  0  0  0  0  0  0  0  0  0  0  0
  160.3160  207.0140  154.6050 C   0  0  0  0  0  3  0  0  0  0  0  0
  161.6180  201.7870  152.0940 O   0  0  0  0  0  1  0  0  0  0  0  0
  160.0340  206.3140  148.8740 C   0  0  0  0  0  1  0  0  0  0  0  0
  163.1730  207.2150  149.3470 C   0  0  0  0  0  2  0  0  0  0  0  0
  160.8810  207.5720  148.6510 C   0  0  1  0  0  3  0  0  0  0  0  0
  161.8690  207.8620  149.7910 C   0  0  1  0  0  3  0  0  0  0  0  0
  161.7810  207.3300  147.4840 C   0  0  0  0  0  2  0  0  0  0  0  0
  163.0390  207.1360  147.8670 C   0  0  0  0  0  2  0  0  0  0  0  0
  155.4780  210.8980  154.7570 C   0  0  0  0  0  1  0  0  0  0  0  0
  155.5370  211.3090  156.0910 O   0  0  0  0  0  0  0  0  0  0  0  0
  161.1260  210.8190  151.7500 C   0  0  0  0  0  2  0  0  0  0  0  0
  162.2810  210.0450  151.9530 O   0  0  0  0  0  1  0  0  0  0  0  0
  1  5  1  0  0  0  0
  2 15  1  0  0  0  0
  3 14  1  0  0  0  0
  4 15  1  0  0  0  0
  4 10  1  0  0  0  0
  6  2  1  0  0  0  0
  8  4  1  0  0  0  0
  9  7  1  0  0  0  0
  9  5  1  0  0  0  0
 10 13  1  0  0  0  0
 11 29  1  0  0  0  0
 11 10  1  0  0  0  0
 12  8  1  0  0  0  0
 12  6  1  0  0  0  0
 13  1  2  0  0  0  0
 14  8  1  0  0  0  0
 14 11  1  0  0  0  0
 15  9  1  0  0  0  0
 16 17  1  0  0  0  0
 16 20  1  0  0  0  0
 17 18  1  0  0  0  0
 18 22  1  0  0  0  0
 20 21  1  0  0  0  0
 21 23  1  0  0  0  0
 21 19  1  0  0  0  0
 22 19  1  0  0  0  0
 22 12  1  0  0  0  0
 24 23  2  0  0  0  0
 25 26  1  0  0  0  0
 26 27  1  0  0  0  0
 26 17  1  0  0  0  0
 28 27  1  0  0  0  0
 29 30  1  0  0  0  0
 29 31  1  0  0  0  0
 32 47  1  0  0  0  0
 32 38  1  0  0  0  0
 33 35  1  0  0  0  0
 33 39  1  0  0  0  0
 34 38  1  0  0  0  0
 34 45  2  0  0  0  0
 35 37  1  0  0  0  0
 36 44  1  0  0  0  0
 37 40  1  0  0  0  0
 39 40  1  0  0  0  0
 40 43  2  0  0  0  0
 41 42  1  0  0  0  0
 41 44  2  0  0  0  0
 42 32  1  0  0  0  0
 43 42  2  0  0  0  0
 44 34  1  0  0  0  0
 45 46  2  0  0  0  0
 46 31  1  0  0  0  0
 49 51  1  0  0  0  0
 50 48  1  0  0  0  0
 50 51  1  0  0  0  0
 51 36  1  0  0  0  0
 52 53  1  0  0  0  0
 52 50  1  0  0  0  0
 53 49  1  0  0  0  0
 54 55  1  0  0  0  0
 55  5  1  0  0  0  0
 56 57  1  0  0  0  0
 56 14  1  0  0  0  0
M  END
>  <MODEL>
1

>  <REMARK>
 VINA RESULT:      -0.8      0.000      0.000
  Name = 
  10 active torsions:
  status: ('A' for Active; 'I' for Inactive)
    1  A    between atoms: C_5  and  C_51
    2  A    between atoms: N_9  and  C_43
    3  A    between atoms: C_10  and  C_26
    4  A    between atoms: C_10  and  C_39
    5  A    between atoms: C_13  and  C_20
    6  A    between atoms: C_17  and  O_45
    7  A    between atoms: C_20  and  C_22
    8  A    between atoms: C_26  and  C_53
    9  A    between atoms: C_46  and  C_55
   10  A    between atoms: C_47  and  C_54
                            x       y       z     vdW  Elec       q    Type
                         _______ _______ _______ _____ _____    ______ ____

>  <TORSDO>
F 10

$$$$
=
 OpenBabel11072414073D

 57 63  0  0  1  0  0  0  0  0999 V2000
  157.0580  213.0720  146.4140 C   0  0  0  0  0  3  0  0  0  0  0  0
  157.4600  214.4520  142.0180 C   0  0  0  0  0  2  0  0  0  0  0  0
  160.0880  211.1980  145.1440 C   0  0  0  0  0  1  0  0  0  0  0  0
  158.7320  214.0260  144.1030 C   0  0  2  0  0  3  0  0  0  0  0  0
  155.9330  213.5600  145.5230 C   0  0  1  0  0  3  0  0  0  0  0  0
  158.9110  214.3400  141.4830 C   0  0  0  0  0  2  0  0  0  0  0  0
  155.0900  213.9840  143.2810 F   0  0  0  0  0  0  0  0  0  0  0  0
  159.3430  212.8300  143.5030 N   0  0  1  0  0  0  0  0  0  0  0  0
  156.2140  213.9000  144.0640 C   0  0  1  0  0  3  0  0  0  0  0  0
  159.1470  214.2360  145.5370 C   0  0  2  0  0  3  0  0  0  0  0  0
  160.5640  213.6630  145.3950 C   0  0  2  0  0  3  0  0  0  0  0  0
  159.6890  213.1300  142.0850 C   0  0  1  0  0  3  0  0  0  0  0  0
  158.3640  213.3650  146.4560 C   0  0  0  0  0  3  0  0  0  0  0  0
  160.4760  212.4890  144.4100 C   0  0  1  0  0  0  0  0  0  0  0  0
  157.3820  214.2880  143.5230 C   0  0  2  0  0  3  0  0  0  0  0  0
  158.8290  210.1550  138.4230 C   0  0  0  0  0  2  0  0  0  0  0  0
  158.1260  211.2750  139.1830 C   0  0  1  0  0  3  0  0  0  0  0  0
  158.9730  212.4020  139.7730 C   0  0  0  0  0  2  0  0  0  0  0  0
  160.7920  211.0520  140.9990 C   0  0  0  0  0  2  0  0  0  0  0  0
  159.6580  209.3720  139.4150 C   0  0  0  0  0  2  0  0  0  0  0  0
  160.9230  210.1540  139.7530 C   0  0  2  0  0  3  0  0  0  0  0  0
  159.5320  211.9230  141.1270 C   0  0  1  0  0  3  0  0  0  0  0  0
  162.0220  209.1490  139.9540 C   0  0  0  0  0  3  0  0  0  0  0  0
  162.6370  208.6550  139.0270 O   0  0  0  0  0  0  0  0  0  0  0  0
  156.0320  210.3410  138.2460 C   0  0  0  0  0  1  0  0  0  0  0  0
  156.6290  211.4670  139.0910 C   0  0  2  0  0  3  0  0  0  0  0  0
  156.2690  212.8570  138.5580 C   0  0  0  0  0  2  0  0  0  0  0  0
  155.1940  213.3960  139.2740 O   0  0  0  0  0  1  0  0  0  0  0  0
  161.5700  213.6220  146.5610 C   0  0  1  0  0  3  0  0  0  0  0  0
  162.8350  213.9820  146.0720 O   0  0  0  0  0  1  0  0  0  0  0  0
  161.2100  214.4530  147.7850 C   0  0  0  0  0  2  0  0  0  0  0  0
  161.5670  209.3360  150.8370 C   0  0  2  0  0  3  0  0  0  0  0  0
  160.6410  207.2630  156.3740 C   0  0  0  0  0  2  0  0  0  0  0  0
  161.2100  211.7480  150.2190 C   0  0  0  0  0  0  0  0  0  0  0  0
  161.8820  208.1150  156.6420 C   0  0  0  0  0  2  0  0  0  0  0  0
  159.2710  212.9320  151.3330 N   0  0  0  0  0  2  0  0  0  0  0  0
  162.1280  208.9660  155.4080 C   0  0  0  0  0  2  0  0  0  0  0  0
  162.1820  210.5890  150.2120 C   0  0  0  0  0  2  0  0  0  0  0  0
  160.3610  207.3220  154.8770 C   0  0  0  0  0  2  0  0  0  0  0  0
  161.2730  208.3800  154.3610 C   0  0  0  0  0  0  0  0  0  0  0  0
  160.0630  210.8690  152.1520 N   0  0  0  0  0  0  0  0  0  0  0  0
  160.8870  209.6910  152.1280 C   0  0  0  0  0  0  0  0  0  0  0  0
  161.0670  209.0100  153.2350 C   0  0  0  0  0  0  0  0  0  0  0  0
  160.1850  211.8290  151.2920 C   0  0  0  0  0  0  0  0  0  0  0  0
  161.5680  212.8230  149.5790 C   0  0  0  0  0  0  0  0  0  0  0  0
  161.9550  213.9090  148.9620 C   0  0  0  0  0  3  0  0  0  0  0  0
  162.5600  208.3670  151.0240 O   0  0  0  0  0  1  0  0  0  0  0  0
  157.0080  213.9140  150.0080 C   0  0  0  0  0  1  0  0  0  0  0  0
  158.0430  214.0620  153.1380 C   0  0  0  0  0  2  0  0  0  0  0  0
  156.7770  213.1220  151.3000 C   0  0  1  0  0  3  0  0  0  0  0  0
  158.0490  212.9160  152.1350 C   0  0  1  0  0  3  0  0  0  0  0  0
  155.9140  213.9390  152.2030 C   0  0  0  0  0  2  0  0  0  0  0  0
  156.6090  214.4530  153.2130 C   0  0  0  0  0  2  0  0  0  0  0  0
  153.8790  213.0650  144.8070 C   0  0  0  0  0  1  0  0  0  0  0  0
  154.9700  212.5470  145.5100 O   0  0  0  0  0  0  0  0  0  0  0  0
  161.8240  212.2120  143.7120 C   0  0  0  0  0  2  0  0  0  0  0  0
  162.6210  213.3660  143.6280 O   0  0  0  0  0  1  0  0  0  0  0  0
  1 13  2  0  0  0  0
  2 15  1  0  0  0  0
  4 10  1  0  0  0  0
  5  1  1  0  0  0  0
  6  2  1  0  0  0  0
  6 12  1  0  0  0  0
  7  9  1  0  0  0  0
  8  4  1  0  0  0  0
  8 14  1  0  0  0  0
  9  5  1  0  0  0  0
 10 13  1  0  0  0  0
 11 10  1  0  0  0  0
 11 29  1  0  0  0  0
 12  8  1  0  0  0  0
 14  3  1  0  0  0  0
 14 11  1  0  0  0  0
 15  9  1  0  0  0  0
 15  4  1  0  0  0  0
 16 17  1  0  0  0  0
 16 20  1  0  0  0  0
 17 18  1  0  0  0  0
 18 22  1  0  0  0  0
 19 22  1  0  0  0  0
 20 21  1  0  0  0  0
 21 23  1  0  0  0  0
 21 19  1  0  0  0  0
 22 12  1  0  0  0  0
 24 23  2  0  0  0  0
 25 26  1  0  0  0  0
 26 17  1  0  0  0  0
 27 26  1  0  0  0  0
 27 28  1  0  0  0  0
 29 31  1  0  0  0  0
 30 29  1  0  0  0  0
 31 46  1  0  0  0  0
 32 47  1  0  0  0  0
 32 42  1  0  0  0  0
 33 35  1  0  0  0  0
 34 44  1  0  0  0  0
 36 51  1  0  0  0  0
 37 35  1  0  0  0  0
 38 34  1  0  0  0  0
 38 32  1  0  0  0  0
 39 33  1  0  0  0  0
 40 39  1  0  0  0  0
 40 37  1  0  0  0  0
 42 41  1  0  0  0  0
 42 43  2  0  0  0  0
 43 40  2  0  0  0  0
 44 36  1  0  0  0  0
 44 41  2  0  0  0  0
 45 34  2  0  0  0  0
 46 45  2  0  0  0  0
 48 50  1  0  0  0  0
 49 53  1  0  0  0  0
 50 51  1  0  0  0  0
 50 52  1  0  0  0  0
 51 49  1  0  0  0  0
 52 53  1  0  0  0  0
 54 55  1  0  0  0  0
 55  5  1  0  0  0  0
 56 14  1  0  0  0  0
 57 56  1  0  0  0  0
M  END
>  <MODEL>
2

>  <REMARK>
 VINA RESULT:      -0.1      5.088      9.906
  Name = 
  10 active torsions:
  status: ('A' for Active; 'I' for Inactive)
    1  A    between atoms: C_5  and  C_51
    2  A    between atoms: N_9  and  C_43
    3  A    between atoms: C_10  and  C_26
    4  A    between atoms: C_10  and  C_39
    5  A    between atoms: C_13  and  C_20
    6  A    between atoms: C_17  and  O_45
    7  A    between atoms: C_20  and  C_22
    8  A    between atoms: C_26  and  C_53
    9  A    between atoms: C_46  and  C_55
   10  A    between atoms: C_47  and  C_54
                            x       y       z     vdW  Elec       q    Type
                         _______ _______ _______ _____ _____    ______ ____

>  <TORSDO>
F 10

$$$$
