=
 OpenBabel11072415063D

 58 67  0  0  1  0  0  0  0  0999 V2000
  160.1240  211.9460  141.8020 C   0  0  1  0  0  3  0  0  0  0  0  0
  159.4520  212.5680  142.9550 N   0  0  0  0  0  0  0  0  0  0  0  0
  159.0850  213.9820  140.9910 C   0  0  0  0  0  2  0  0  0  0  0  0
  159.0960  211.5620  140.7500 C   0  0  0  0  0  2  0  0  0  0  0  0
  158.4630  212.8360  140.2130 C   0  0  1  0  0  0  0  0  0  0  0  0
  160.1200  213.4010  141.9420 C   0  0  2  0  0  3  0  0  0  0  0  0
  160.3680  212.4720  144.0770 C   0  0  0  0  0  2  0  0  0  0  0  0
  160.1760  214.4520  145.4920 N   0  0  0  0  0  2  0  0  0  0  0  0
  160.9340  213.8580  144.3800 C   0  0  1  0  0  3  0  0  0  0  0  0
  161.5730  214.0320  145.7070 C   0  0  2  0  0  3  0  0  0  0  0  0
  161.6430  212.8020  146.5760 C   0  0  0  0  0  0  0  0  0  0  0  0
  162.7750  212.5870  147.3720 C   0  0  0  0  0  3  0  0  0  0  0  0
  160.6290  210.8050  147.5110 C   0  0  0  0  0  3  0  0  0  0  0  0
  162.8380  211.4800  148.2230 C   0  0  0  0  0  3  0  0  0  0  0  0
  161.7710  210.5780  148.2920 C   0  0  0  0  0  0  0  0  0  0  0  0
  160.5610  211.9120  146.6620 C   0  0  0  0  0  3  0  0  0  0  0  0
  161.2160  207.7190  147.7040 N   0  0  0  0  0  0  0  0  0  0  0  0
  161.5430  208.0910  148.9050 C   0  0  0  0  0  0  0  0  0  0  0  0
  160.9000  206.3610  147.4030 C   0  0  0  0  0  0  0  0  0  0  0  0
  161.2750  202.4920  151.4480 O   0  0  0  0  0  0  0  0  0  0  0  0
  161.2290  203.2570  150.4480 C   0  0  0  0  0  0  0  0  0  0  0  0
  160.9840  205.3710  148.4240 N   0  0  0  0  0  0  0  0  0  0  0  0
  161.3110  205.6780  149.6450 C   0  0  0  0  0  0  0  0  0  0  0  0
  160.5620  206.0360  146.2360 O   0  0  0  0  0  0  0  0  0  0  0  0
  161.8710  209.4600  149.1860 N   0  0  0  0  0  2  0  0  0  0  0  0
  161.5880  207.1050  150.0470 C   0  0  0  0  0  2  0  0  0  0  0  0
  161.3820  204.6670  150.6570 N   0  0  0  0  0  2  0  0  0  0  0  0
  161.0230  202.7550  149.1480 O   0  0  0  0  0  0  0  0  0  0  0  0
  160.5630  201.1810  147.2690 C   0  0  0  0  0  2  0  0  0  0  0  0
  160.4160  201.5150  148.7450 C   0  0  0  0  0  3  0  0  0  0  0  0
  161.4770  200.5270  148.2900 C   0  0  0  0  0  2  0  0  0  0  0  0
  156.9590  212.8360  140.5160 C   0  0  0  0  0  2  0  0  0  0  0  0
  154.5820  214.1630  139.1600 O   0  0  0  0  0  0  0  0  0  0  0  0
  153.4580  214.4310  138.3090 C   0  0  0  0  0  2  0  0  0  0  0  0
  155.0360  212.8870  138.8850 C   0  0  0  0  0  0  0  0  0  0  0  0
  156.3780  210.8970  138.9880 C   0  0  0  0  0  3  0  0  0  0  0  0
  154.2600  212.3290  137.9230 C   0  0  0  0  0  0  0  0  0  0  0  0
  155.5690  210.3200  137.9860 C   0  0  0  0  0  3  0  0  0  0  0  0
  156.1140  212.2010  139.4520 C   0  0  0  0  0  0  0  0  0  0  0  0
  154.4890  211.0410  137.4390 C   0  0  0  0  0  3  0  0  0  0  0  0
  153.2820  213.2270  137.5460 O   0  0  0  0  0  0  0  0  0  0  0  0
  158.7130  213.0000  138.7020 C   0  0  0  0  0  2  0  0  0  0  0  0
  160.9830  213.7420  138.7380 O   0  0  0  0  0  0  0  0  0  0  0  0
  160.6000  211.8420  137.4280 N   0  0  0  0  0  0  0  0  0  0  0  0
  160.1560  212.9010  138.2910 C   0  0  0  0  0  0  0  0  0  0  0  0
  159.7170  210.7260  137.1260 C   0  0  0  0  0  1  0  0  0  0  0  0
  162.0130  211.7260  137.0700 C   0  0  0  0  0  2  0  0  0  0  0  0
  161.9160  210.1970  139.1010 C   0  0  2  0  0  3  0  0  0  0  0  0
  162.8150  210.8320  138.0470 C   0  0  2  0  0  3  0  0  0  0  0  0
  162.3470  210.8190  140.4220 C   0  0  0  0  0  2  0  0  0  0  0  0
  163.9180  211.4960  138.7640 N   0  0  0  0  0  0  0  0  0  0  0  0
  163.3730  211.8740  140.0560 C   0  0  0  0  0  2  0  0  0  0  0  0
  164.4290  212.6890  138.0950 C   0  0  0  0  0  1  0  0  0  0  0  0
  160.7970  208.0080  139.0370 O   0  0  0  0  0  0  0  0  0  0  0  0
  161.6220  207.8620  137.8960 C   0  0  1  0  0  3  0  0  0  0  0  0
  162.0400  208.6660  139.0740 C   0  0  1  0  0  0  0  0  0  0  0  0
  162.9080  208.0660  139.9920 O   0  0  0  0  0  1  0  0  0  0  0  0
  162.2190  206.5950  137.9110 O   0  0  0  0  0  1  0  0  0  0  0  0
  1  4  1  6  0  0  0
  1  6  1  0  0  0  0
  1  2  1  0  0  0  0
  2  7  1  0  0  0  0
  5 42  1  6  0  0  0
  5 32  1  0  0  0  0
  5  4  1  0  0  0  0
  5  3  1  0  0  0  0
  6  3  1  6  0  0  0
  6  2  1  0  0  0  0
  8 10  1  0  0  0  0
  9  7  1  1  0  0  0
  9  8  1  0  0  0  0
  9 10  1  0  0  0  0
 10 11  1  1  0  0  0
 11 16  2  0  0  0  0
 11 12  1  0  0  0  0
 12 14  2  0  0  0  0
 13 15  2  0  0  0  0
 14 15  1  0  0  0  0
 15 25  1  0  0  0  0
 16 13  1  0  0  0  0
 17 18  2  0  0  0  0
 18 25  1  0  0  0  0
 18 26  1  0  0  0  0
 19 17  1  0  0  0  0
 19 22  1  0  0  0  0
 21 27  1  0  0  0  0
 21 20  2  0  0  0  0
 22 23  2  0  0  0  0
 23 26  1  0  0  0  0
 23 27  1  0  0  0  0
 24 19  2  0  0  0  0
 28 21  1  0  0  0  0
 29 31  1  0  0  0  0
 29 30  1  0  0  0  0
 30 28  1  0  0  0  0
 31 30  1  0  0  0  0
 34 33  1  0  0  0  0
 35 33  1  0  0  0  0
 35 39  1  0  0  0  0
 36 39  2  0  0  0  0
 37 35  2  0  0  0  0
 38 36  1  0  0  0  0
 39 32  1  0  0  0  0
 40 37  1  0  0  0  0
 40 38  2  0  0  0  0
 41 37  1  0  0  0  0
 41 34  1  0  0  0  0
 44 45  1  0  0  0  0
 45 42  1  0  0  0  0
 45 43  2  0  0  0  0
 46 44  1  0  0  0  0
 47 44  1  0  0  0  0
 48 50  1  1  0  0  0
 49 47  1  1  0  0  0
 49 51  1  0  0  0  0
 49 48  1  0  0  0  0
 51 52  1  0  0  0  0
 52 50  1  0  0  0  0
 53 51  1  0  0  0  0
 54 56  1  0  0  0  0
 55 58  1  1  0  0  0
 55 54  1  0  0  0  0
 55 56  1  0  0  0  0
 56 48  1  0  0  0  0
 56 57  1  1  0  0  0
M  END
>  <MODEL>
1

>  <REMARK>
 VINA RESULT:      -6.0      0.000      0.000
  Name = 
  13 active torsions:
  status: ('A' for Active; 'I' for Inactive)
    1  A    between atoms: C_4  and  C_40
    2  A    between atoms: C_10  and  N_25
    3  A    between atoms: C_10  and  C_26
    4  A    between atoms: N_12  and  C_14
    5  A    between atoms: C_14  and  C_24
    6  A    between atoms: C_16  and  C_30
    7  A    between atoms: C_23  and  O_47
    8  A    between atoms: C_27  and  C_45
    9  A    between atoms: C_31  and  C_46
   10  A    between atoms: C_34  and  N_52
   11  A    between atoms: C_39  and  C_45
   12  A    between atoms: C_39  and  C_46
   13  A    between atoms: O_47  and  C_48
                            x       y       z     vdW  Elec       q    Type
                         _______ _______ _______ _____ _____    ______ ____

>  <TORSDO>
F 13

$$$$
=
 OpenBabel11072415063D

 58 67  0  0  1  0  0  0  0  0999 V2000
  160.4460  209.7670  152.0200 C   0  0  1  0  0  3  0  0  0  0  0  0
  161.5840  210.0720  151.1370 N   0  0  0  0  0  0  0  0  0  0  0  0
  162.4570  209.2570  153.2740 C   0  0  0  0  0  2  0  0  0  0  0  0
  160.4300  208.2840  152.3490 C   0  0  0  0  0  2  0  0  0  0  0  0
  161.6730  207.9620  153.1640 C   0  0  1  0  0  0  0  0  0  0  0  0
  161.6620  210.3520  152.5800 C   0  0  2  0  0  3  0  0  0  0  0  0
  161.2870  211.3370  150.4890 C   0  0  0  0  0  2  0  0  0  0  0  0
  160.2840  213.2990  151.5380 N   0  0  0  0  0  2  0  0  0  0  0  0
  160.0140  211.9220  151.0960 C   0  0  1  0  0  3  0  0  0  0  0  0
  159.4080  213.0670  150.3750 C   0  0  2  0  0  3  0  0  0  0  0  0
  160.0870  213.4790  149.0930 C   0  0  0  0  0  0  0  0  0  0  0  0
  161.4800  213.3910  148.9950 C   0  0  0  0  0  3  0  0  0  0  0  0
  159.9880  214.2020  146.7790 C   0  0  0  0  0  3  0  0  0  0  0  0
  162.1250  213.7180  147.7990 C   0  0  0  0  0  3  0  0  0  0  0  0
  161.3860  214.1340  146.6860 C   0  0  0  0  0  0  0  0  0  0  0  0
  159.3410  213.8730  147.9720 C   0  0  0  0  0  3  0  0  0  0  0  0
  161.1430  212.8030  144.0420 N   0  0  0  0  0  0  0  0  0  0  0  0
  162.0010  213.7620  144.2170 C   0  0  0  0  0  0  0  0  0  0  0  0
  161.0360  212.1160  142.7970 C   0  0  0  0  0  0  0  0  0  0  0  0
  164.2490  213.7250  138.4880 O   0  0  0  0  0  0  0  0  0  0  0  0
  163.4280  213.3280  139.3580 C   0  0  0  0  0  0  0  0  0  0  0  0
  161.8530  212.5110  141.6970 N   0  0  0  0  0  0  0  0  0  0  0  0
  162.7270  213.4680  141.8070 C   0  0  0  0  0  0  0  0  0  0  0  0
  160.2140  211.1740  142.6640 O   0  0  0  0  0  0  0  0  0  0  0  0
  162.0840  214.4520  145.4740 N   0  0  0  0  0  2  0  0  0  0  0  0
  162.9410  214.1870  143.1150 C   0  0  0  0  0  2  0  0  0  0  0  0
  163.5420  213.8420  140.6910 N   0  0  0  0  0  2  0  0  0  0  0  0
  162.4220  212.3930  139.0450 O   0  0  0  0  0  0  0  0  0  0  0  0
  161.4220  210.1100  138.9930 C   0  0  0  0  0  2  0  0  0  0  0  0
  162.5600  211.0360  138.5940 C   0  0  0  0  0  3  0  0  0  0  0  0
  161.4690  210.6940  137.5930 C   0  0  0  0  0  2  0  0  0  0  0  0
  162.5470  206.9560  152.4030 C   0  0  0  0  0  2  0  0  0  0  0  0
  161.8410  207.1040  149.4490 O   0  0  0  0  0  0  0  0  0  0  0  0
  161.3430  206.8010  148.1370 C   0  0  0  0  0  2  0  0  0  0  0  0
  161.4940  206.0650  150.2920 C   0  0  0  0  0  0  0  0  0  0  0  0
  161.3110  204.7440  152.2900 C   0  0  0  0  0  3  0  0  0  0  0  0
  160.7960  205.1330  149.5970 C   0  0  0  0  0  0  0  0  0  0  0  0
  160.5860  203.7760  151.5640 C   0  0  0  0  0  3  0  0  0  0  0  0
  161.7760  205.9120  151.6530 C   0  0  0  0  0  0  0  0  0  0  0  0
  160.3190  203.9660  150.1930 C   0  0  0  0  0  3  0  0  0  0  0  0
  160.6730  205.5390  148.2840 O   0  0  0  0  0  0  0  0  0  0  0  0
  161.3120  207.4200  154.5600 C   0  0  0  0  0  2  0  0  0  0  0  0
  159.0850  208.2250  154.8770 O   0  0  0  0  0  0  0  0  0  0  0  0
  160.6230  208.9570  156.4810 N   0  0  0  0  0  0  0  0  0  0  0  0
  160.2760  208.2250  155.2960 C   0  0  0  0  0  0  0  0  0  0  0  0
  161.9160  208.7510  157.1160 C   0  0  0  0  0  1  0  0  0  0  0  0
  159.5990  209.6980  157.2160 C   0  0  0  0  0  2  0  0  0  0  0  0
  158.6540  211.2920  155.4740 C   0  0  2  0  0  3  0  0  0  0  0  0
  159.4670  211.1700  156.7560 C   0  0  2  0  0  3  0  0  0  0  0  0
  159.6380  211.7850  154.4210 C   0  0  0  0  0  2  0  0  0  0  0  0
  160.7350  211.8880  156.5330 N   0  0  0  0  0  0  0  0  0  0  0  0
  160.9910  211.7960  155.1070 C   0  0  0  0  0  2  0  0  0  0  0  0
  161.8720  211.3260  157.2580 C   0  0  0  0  0  1  0  0  0  0  0  0
  156.3330  211.8680  154.9000 O   0  0  0  0  0  0  0  0  0  0  0  0
  156.1890  211.7600  156.3040 C   0  0  1  0  0  3  0  0  0  0  0  0
  157.4520  212.2270  155.6750 C   0  0  1  0  0  0  0  0  0  0  0  0
  157.6830  213.6040  155.6300 O   0  0  0  0  0  1  0  0  0  0  0  0
  155.4320  212.8400  156.7790 O   0  0  0  0  0  1  0  0  0  0  0  0
  1  4  1  1  0  0  0
  1  6  1  0  0  0  0
  2  1  1  0  0  0  0
  2  6  1  0  0  0  0
  4  5  1  0  0  0  0
  5 32  1  6  0  0  0
  5  3  1  0  0  0  0
  5 42  1  0  0  0  0
  6  3  1  1  0  0  0
  7  2  1  0  0  0  0
  9  7  1  6  0  0  0
  9  8  1  0  0  0  0
 10 11  1  6  0  0  0
 10  9  1  0  0  0  0
 10  8  1  0  0  0  0
 12 11  1  0  0  0  0
 13 16  1  0  0  0  0
 14 12  2  0  0  0  0
 15 13  2  0  0  0  0
 15 14  1  0  0  0  0
 16 11  2  0  0  0  0
 17 18  2  0  0  0  0
 18 25  1  0  0  0  0
 19 17  1  0  0  0  0
 20 21  2  0  0  0  0
 21 27  1  0  0  0  0
 22 23  2  0  0  0  0
 22 19  1  0  0  0  0
 23 26  1  0  0  0  0
 24 19  2  0  0  0  0
 25 15  1  0  0  0  0
 26 18  1  0  0  0  0
 27 23  1  0  0  0  0
 28 21  1  0  0  0  0
 30 29  1  0  0  0  0
 30 28  1  0  0  0  0
 31 30  1  0  0  0  0
 31 29  1  0  0  0  0
 33 35  1  0  0  0  0
 34 41  1  0  0  0  0
 34 33  1  0  0  0  0
 35 39  1  0  0  0  0
 37 40  1  0  0  0  0
 37 35  2  0  0  0  0
 38 36  1  0  0  0  0
 39 36  2  0  0  0  0
 39 32  1  0  0  0  0
 40 38  2  0  0  0  0
 41 37  1  0  0  0  0
 42 45  1  0  0  0  0
 43 45  2  0  0  0  0
 44 46  1  0  0  0  0
 44 47  1  0  0  0  0
 45 44  1  0  0  0  0
 48 50  1  6  0  0  0
 48 56  1  0  0  0  0
 48 49  1  0  0  0  0
 49 47  1  6  0  0  0
 50 52  1  0  0  0  0
 51 49  1  0  0  0  0
 51 53  1  0  0  0  0
 52 51  1  0  0  0  0
 54 56  1  0  0  0  0
 54 55  1  0  0  0  0
 55 58  1  1  0  0  0
 56 57  1  1  0  0  0
 56 55  1  0  0  0  0
M  END
>  <MODEL>
2

>  <REMARK>
 VINA RESULT:      -3.8      5.080     13.740
  Name = 
  13 active torsions:
  status: ('A' for Active; 'I' for Inactive)
    1  A    between atoms: C_4  and  C_40
    2  A    between atoms: C_10  and  N_25
    3  A    between atoms: C_10  and  C_26
    4  A    between atoms: N_12  and  C_14
    5  A    between atoms: C_14  and  C_24
    6  A    between atoms: C_16  and  C_30
    7  A    between atoms: C_23  and  O_47
    8  A    between atoms: C_27  and  C_45
    9  A    between atoms: C_31  and  C_46
   10  A    between atoms: C_34  and  N_52
   11  A    between atoms: C_39  and  C_45
   12  A    between atoms: C_39  and  C_46
   13  A    between atoms: O_47  and  C_48
                            x       y       z     vdW  Elec       q    Type
                         _______ _______ _______ _____ _____    ______ ____

>  <TORSDO>
F 13

$$$$
