=
 OpenBabel11072411113D

 30 34  0  0  1  0  0  0  0  0999 V2000
  161.5130  207.3840  152.9330 C   0  0  0  0  0  3  0  0  0  0  0  0
  161.3060  206.9070  151.7090 C   0  0  0  0  0  3  0  0  0  0  0  0
  161.9530  209.8950  152.4790 C   0  0  0  0  0  3  0  0  0  0  0  0
  161.8390  209.9480  151.1580 C   0  0  0  0  0  0  0  0  0  0  0  0
  161.8050  208.7340  153.2930 N   0  0  0  0  0  0  0  0  0  0  0  0
  161.5400  209.5250  148.8300 C   0  0  0  0  0  2  0  0  0  0  0  0
  161.5420  208.8880  150.1940 C   0  0  0  0  0  0  0  0  0  0  0  0
  161.3050  207.5820  150.3980 C   0  0  0  0  0  0  0  0  0  0  0  0
  161.8340  210.9260  149.1030 N   0  0  0  0  0  0  0  0  0  0  0  0
  162.0120  211.1710  150.4660 N   0  0  0  0  0  0  0  0  0  0  0  0
  160.6450  203.0430  148.9950 C   0  0  1  0  0  3  0  0  0  0  0  0
  161.2420  202.0720  147.9550 C   0  0  0  0  0  2  0  0  0  0  0  0
  160.3990  205.4540  149.6130 N   0  0  0  0  0  2  0  0  0  0  0  0
  161.0320  206.7100  149.2050 C   0  0  2  0  0  3  0  0  0  0  0  0
  161.1640  202.7030  146.2370 S   0  0  0  0  0  0  0  0  0  0  0  0
  161.7340  204.9090  147.7000 C   0  0  0  0  0  0  0  0  0  0  0  0
  162.5620  206.3690  148.2760 S   0  0  0  0  0  0  0  0  0  0  0  0
  161.4420  202.9110  150.2850 C   0  0  0  0  0  1  0  0  0  0  0  0
  160.5490  204.5100  148.5080 C   0  0  1  0  0  3  0  0  0  0  0  0
  163.6070  204.5080  145.7710 Cl  0  0  0  0  0  0  0  0  0  0  0  0
  162.1260  204.1670  146.6570 C   0  0  0  0  0  0  0  0  0  0  0  0
  161.9530  211.9420  148.0970 C   0  0  0  0  0  0  0  0  0  0  0  0
  162.4120  213.6380  145.8350 C   0  0  0  0  0  2  0  0  0  0  0  0
  163.0760  214.0060  147.1560 C   0  0  0  0  0  2  0  0  0  0  0  0
  160.9960  213.1210  146.0870 C   0  0  1  0  0  0  0  0  0  0  0  0
  160.9850  212.0740  147.1760 C   0  0  0  0  0  3  0  0  0  0  0  0
  160.1910  214.1950  146.4800 O   0  0  0  0  0  1  0  0  0  0  0  0
  163.2230  212.7560  148.0170 C   0  0  0  0  0  2  0  0  0  0  0  0
  160.4880  212.5600  144.8550 N   0  0  0  0  0  0  0  0  0  0  0  0
  159.2280  212.4530  144.6160 C   0  0  0  0  0  2  0  0  0  0  0  0
  1  5  1  0  0  0  0
  2  1  2  0  0  0  0
  3  5  2  0  0  0  0
  4  3  1  0  0  0  0
  6  9  1  0  0  0  0
  6  7  1  0  0  0  0
  7  8  2  0  0  0  0
  7  4  1  0  0  0  0
  8  2  1  0  0  0  0
  9 10  1  0  0  0  0
 10  4  2  0  0  0  0
 11 18  1  1  0  0  0
 12 11  1  0  0  0  0
 14 13  1  0  0  0  0
 14  8  1  1  0  0  0
 15 21  1  0  0  0  0
 15 12  1  0  0  0  0
 16 17  1  0  0  0  0
 17 14  1  0  0  0  0
 19 16  1  1  0  0  0
 19 11  1  0  0  0  0
 19 13  1  0  0  0  0
 20 21  1  0  0  0  0
 21 16  2  0  0  0  0
 22  9  1  0  0  0  0
 23 25  1  0  0  0  0
 23 24  1  0  0  0  0
 24 28  1  0  0  0  0
 25 27  1  1  0  0  0
 25 26  1  0  0  0  0
 26 22  2  0  0  0  0
 28 22  1  0  0  0  0
 29 25  1  0  0  0  0
 30 29  2  0  0  0  0
M  END
>  <MODEL>
1

>  <REMARK>
 VINA RESULT:      -7.1      0.000      0.000
  Name = 
  3 active torsions:
  status: ('A' for Active; 'I' for Inactive)
    1  A    between atoms: C_1  and  N_28
    2  A    between atoms: C_12  and  C_25
    3  A    between atoms: N_13  and  C_16
                            x       y       z     vdW  Elec       q    Type
                         _______ _______ _______ _____ _____    ______ ____

>  <TORSDO>
F 3

$$$$
=
 OpenBabel11072411113D

 30 34  0  0  1  0  0  0  0  0999 V2000
  161.8360  206.6580  151.7270 C   0  0  0  0  0  3  0  0  0  0  0  0
  161.7760  207.8060  152.3950 C   0  0  0  0  0  3  0  0  0  0  0  0
  161.9790  207.4580  149.2680 C   0  0  0  0  0  3  0  0  0  0  0  0
  161.9470  208.7750  149.4170 C   0  0  0  0  0  0  0  0  0  0  0  0
  161.9300  206.4890  150.3130 N   0  0  0  0  0  0  0  0  0  0  0  0
  161.8590  211.0270  150.2000 C   0  0  0  0  0  2  0  0  0  0  0  0
  161.8590  209.5850  150.6340 C   0  0  0  0  0  0  0  0  0  0  0  0
  161.7890  209.2020  151.9180 C   0  0  0  0  0  0  0  0  0  0  0  0
  161.9530  210.9510  148.7480 N   0  0  0  0  0  0  0  0  0  0  0  0
  162.0010  209.6320  148.2920 N   0  0  0  0  0  0  0  0  0  0  0  0
  160.5620  210.0170  156.4820 C   0  0  1  0  0  3  0  0  0  0  0  0
  159.6340  210.9730  157.2610 C   0  0  0  0  0  2  0  0  0  0  0  0
  161.7610  209.6710  154.3150 N   0  0  0  0  0  2  0  0  0  0  0  0
  161.6990  210.2630  152.9770 C   0  0  2  0  0  3  0  0  0  0  0  0
  159.9830  212.7450  156.9510 S   0  0  0  0  0  0  0  0  0  0  0  0
  160.3430  211.5900  154.5280 C   0  0  0  0  0  0  0  0  0  0  0  0
  160.1740  211.2450  152.7950 S   0  0  0  0  0  0  0  0  0  0  0  0
  159.7640  208.7760  156.1100 C   0  0  0  0  0  1  0  0  0  0  0  0
  161.2520  210.6650  155.2580 C   0  0  1  0  0  3  0  0  0  0  0  0
  158.4930  213.5780  154.3960 Cl  0  0  0  0  0  0  0  0  0  0  0  0
  159.6960  212.5630  155.1820 C   0  0  0  0  0  0  0  0  0  0  0  0
  161.9720  212.0890  147.8740 C   0  0  0  0  0  0  0  0  0  0  0  0
  162.2730  214.0860  145.8440 C   0  0  0  0  0  2  0  0  0  0  0  0
  162.8730  214.3610  147.2160 C   0  0  0  0  0  2  0  0  0  0  0  0
  160.9180  213.3930  145.9930 C   0  0  1  0  0  0  0  0  0  0  0  0
  161.0090  212.2260  146.9500 C   0  0  0  0  0  3  0  0  0  0  0  0
  159.9940  214.3180  146.4900 O   0  0  0  0  0  1  0  0  0  0  0  0
  163.1450  213.0380  147.9260 C   0  0  0  0  0  2  0  0  0  0  0  0
  160.4930  212.9330  144.6900 N   0  0  0  0  0  0  0  0  0  0  0  0
  159.4170  212.2490  144.5200 C   0  0  0  0  0  2  0  0  0  0  0  0
  1  2  2  0  0  0  0
  3  4  1  0  0  0  0
  3  5  2  0  0  0  0
  4  7  1  0  0  0  0
  5  1  1  0  0  0  0
  6  7  1  0  0  0  0
  7  8  2  0  0  0  0
  8  2  1  0  0  0  0
  9  6  1  0  0  0  0
 10  9  1  0  0  0  0
 10  4  2  0  0  0  0
 11 18  1  6  0  0  0
 11 12  1  0  0  0  0
 14  8  1  6  0  0  0
 14 13  1  0  0  0  0
 15 12  1  0  0  0  0
 16 21  2  0  0  0  0
 16 19  1  0  0  0  0
 17 14  1  0  0  0  0
 17 16  1  0  0  0  0
 19 13  1  6  0  0  0
 19 11  1  0  0  0  0
 20 21  1  0  0  0  0
 21 15  1  0  0  0  0
 22 28  1  0  0  0  0
 22  9  1  0  0  0  0
 23 25  1  0  0  0  0
 23 24  1  0  0  0  0
 24 28  1  0  0  0  0
 25 27  1  1  0  0  0
 25 26  1  0  0  0  0
 26 22  2  0  0  0  0
 29 25  1  0  0  0  0
 30 29  2  0  0  0  0
M  END
>  <MODEL>
2

>  <REMARK>
 VINA RESULT:      -6.6      3.972      6.444
  Name = 
  3 active torsions:
  status: ('A' for Active; 'I' for Inactive)
    1  A    between atoms: C_1  and  N_28
    2  A    between atoms: C_12  and  C_25
    3  A    between atoms: N_13  and  C_16
                            x       y       z     vdW  Elec       q    Type
                         _______ _______ _______ _____ _____    ______ ____

>  <TORSDO>
F 3

$$$$
=
 OpenBabel11072411113D

 30 34  0  0  1  0  0  0  0  0999 V2000
  161.3380  205.9330  153.2980 C   0  0  0  0  0  3  0  0  0  0  0  0
  161.1370  205.6640  152.0120 C   0  0  0  0  0  3  0  0  0  0  0  0
  161.8560  208.4700  153.2560 C   0  0  0  0  0  3  0  0  0  0  0  0
  161.7660  208.7360  151.9600 C   0  0  0  0  0  0  0  0  0  0  0  0
  161.6620  207.1990  153.8730 N   0  0  0  0  0  0  0  0  0  0  0  0
  161.4930  208.6980  149.5910 C   0  0  0  0  0  2  0  0  0  0  0  0
  161.4550  207.8520  150.8350 C   0  0  0  0  0  0  0  0  0  0  0  0
  161.1780  206.5390  150.8250 C   0  0  0  0  0  0  0  0  0  0  0  0
  161.8230  210.0280  150.0860 N   0  0  0  0  0  0  0  0  0  0  0  0
  161.9850  210.0470  151.4740 N   0  0  0  0  0  0  0  0  0  0  0  0
  160.6080  202.2900  148.6740 C   0  0  1  0  0  3  0  0  0  0  0  0
  161.2060  201.5310  147.4710 C   0  0  0  0  0  2  0  0  0  0  0  0
  160.3110  204.5500  149.7020 N   0  0  0  0  0  2  0  0  0  0  0  0
  160.8990  205.8760  149.5060 C   0  0  2  0  0  3  0  0  0  0  0  0
  161.0680  202.4450  145.8890 S   0  0  0  0  0  0  0  0  0  0  0  0
  161.6130  204.3830  147.6990 C   0  0  0  0  0  0  0  0  0  0  0  0
  162.4150  205.7480  148.5020 S   0  0  0  0  0  0  0  0  0  0  0  0
  161.4380  201.9630  149.9050 C   0  0  0  0  0  1  0  0  0  0  0  0
  160.4600  203.8150  148.4490 C   0  0  1  0  0  3  0  0  0  0  0  0
  163.4490  204.3780  145.6950 Cl  0  0  0  0  0  0  0  0  0  0  0  0
  162.0000  203.8440  146.5360 C   0  0  0  0  0  0  0  0  0  0  0  0
  161.9870  211.1870  149.2570 C   0  0  0  0  0  0  0  0  0  0  0  0
  162.0790  213.2520  147.2740 C   0  0  0  0  0  2  0  0  0  0  0  0
  163.3950  212.6410  147.7360 C   0  0  0  0  0  2  0  0  0  0  0  0
  161.1330  213.4200  148.4630 C   0  0  1  0  0  0  0  0  0  0  0  0
  161.0520  212.1490  149.2770 C   0  0  0  0  0  3  0  0  0  0  0  0
  161.6140  214.4510  149.2760 O   0  0  0  0  0  1  0  0  0  0  0  0
  163.1410  211.2400  148.2840 C   0  0  0  0  0  2  0  0  0  0  0  0
  159.8220  213.7700  147.9600 N   0  0  0  0  0  0  0  0  0  0  0  0
  158.9110  214.2780  148.7120 C   0  0  0  0  0  2  0  0  0  0  0  0
  1  5  1  0  0  0  0
  2  1  2  0  0  0  0
  3  5  2  0  0  0  0
  4  3  1  0  0  0  0
  6  9  1  0  0  0  0
  6  7  1  0  0  0  0
  7  4  1  0  0  0  0
  8  7  2  0  0  0  0
  8  2  1  0  0  0  0
  9 10  1  0  0  0  0
 10  4  2  0  0  0  0
 11 18  1  1  0  0  0
 12 11  1  0  0  0  0
 14 13  1  0  0  0  0
 14  8  1  1  0  0  0
 15 21  1  0  0  0  0
 15 12  1  0  0  0  0
 16 17  1  0  0  0  0
 17 14  1  0  0  0  0
 19 16  1  1  0  0  0
 19 11  1  0  0  0  0
 19 13  1  0  0  0  0
 20 21  1  0  0  0  0
 21 16  2  0  0  0  0
 22 26  2  0  0  0  0
 22  9  1  0  0  0  0
 23 24  1  0  0  0  0
 23 25  1  0  0  0  0
 24 28  1  0  0  0  0
 25 27  1  1  0  0  0
 25 26  1  0  0  0  0
 28 22  1  0  0  0  0
 29 25  1  0  0  0  0
 29 30  2  0  0  0  0
M  END
>  <MODEL>
3

>  <REMARK>
 VINA RESULT:      -6.0      1.505      1.691
  Name = 
  3 active torsions:
  status: ('A' for Active; 'I' for Inactive)
    1  A    between atoms: C_1  and  N_28
    2  A    between atoms: C_12  and  C_25
    3  A    between atoms: N_13  and  C_16
                            x       y       z     vdW  Elec       q    Type
                         _______ _______ _______ _____ _____    ______ ____

>  <TORSDO>
F 3

$$$$
=
 OpenBabel11072411113D

 30 34  0  0  1  0  0  0  0  0999 V2000
  162.0240  211.5670  149.5650 C   0  0  0  0  0  3  0  0  0  0  0  0
  161.8340  210.9090  150.7050 C   0  0  0  0  0  3  0  0  0  0  0  0
  161.9550  209.6640  147.8110 C   0  0  0  0  0  3  0  0  0  0  0  0
  161.7510  208.6030  148.5800 C   0  0  0  0  0  0  0  0  0  0  0  0
  162.0790  211.0150  148.2500 N   0  0  0  0  0  0  0  0  0  0  0  0
  161.3930  207.0520  150.3560 C   0  0  0  0  0  2  0  0  0  0  0  0
  161.5990  208.5070  150.0340 C   0  0  0  0  0  0  0  0  0  0  0  0
  161.6250  209.4720  150.9660 C   0  0  0  0  0  0  0  0  0  0  0  0
  161.4350  206.3990  149.0540 N   0  0  0  0  0  0  0  0  0  0  0  0
  161.6480  207.3090  148.0160 N   0  0  0  0  0  0  0  0  0  0  0  0
  158.9990  210.2790  154.8970 C   0  0  1  0  0  3  0  0  0  0  0  0
  159.2400  210.6710  156.3700 C   0  0  0  0  0  2  0  0  0  0  0  0
  160.0740  209.3320  152.8470 N   0  0  0  0  0  2  0  0  0  0  0  0
  161.4470  209.0810  152.4050 C   0  0  2  0  0  3  0  0  0  0  0  0
  160.3660  209.5290  157.2550 S   0  0  0  0  0  0  0  0  0  0  0  0
  161.4450  209.6960  154.7770 C   0  0  0  0  0  0  0  0  0  0  0  0
  162.6240  209.9670  153.4780 S   0  0  0  0  0  0  0  0  0  0  0  0
  158.8340  211.5550  154.0840 C   0  0  0  0  0  1  0  0  0  0  0  0
  160.0780  209.3390  154.3080 C   0  0  1  0  0  3  0  0  0  0  0  0
  163.2560  210.4020  156.6780 Cl  0  0  0  0  0  0  0  0  0  0  0  0
  161.7020  209.8290  156.0850 C   0  0  0  0  0  0  0  0  0  0  0  0
  161.2980  204.9860  148.8480 C   0  0  0  0  0  0  0  0  0  0  0  0
  161.4780  202.1410  148.5710 C   0  0  0  0  0  2  0  0  0  0  0  0
  161.2120  202.9690  147.3200 C   0  0  0  0  0  2  0  0  0  0  0  0
  160.6970  202.7130  149.7540 C   0  0  1  0  0  0  0  0  0  0  0  0
  160.8970  204.2080  149.8650 C   0  0  0  0  0  3  0  0  0  0  0  0
  159.3370  202.4490  149.5640 O   0  0  0  0  0  1  0  0  0  0  0  0
  161.7310  204.3880  147.5310 C   0  0  0  0  0  2  0  0  0  0  0  0
  161.1550  202.0620  150.9620 N   0  0  0  0  0  0  0  0  0  0  0  0
  161.5090  202.7230  152.0070 C   0  0  0  0  0  2  0  0  0  0  0  0
  1  2  2  0  0  0  0
  2  8  1  0  0  0  0
  3  5  2  0  0  0  0
  3  4  1  0  0  0  0
  4  7  1  0  0  0  0
  5  1  1  0  0  0  0
  7  6  1  0  0  0  0
  7  8  2  0  0  0  0
  9  6  1  0  0  0  0
 10  4  2  0  0  0  0
 10  9  1  0  0  0  0
 11 18  1  6  0  0  0
 11 12  1  0  0  0  0
 12 15  1  0  0  0  0
 14  8  1  6  0  0  0
 14 13  1  0  0  0  0
 14 17  1  0  0  0  0
 16 21  2  0  0  0  0
 17 16  1  0  0  0  0
 19 13  1  6  0  0  0
 19 16  1  0  0  0  0
 19 11  1  0  0  0  0
 21 20  1  0  0  0  0
 21 15  1  0  0  0  0
 22  9  1  0  0  0  0
 22 26  2  0  0  0  0
 23 25  1  0  0  0  0
 24 28  1  0  0  0  0
 24 23  1  0  0  0  0
 25 27  1  6  0  0  0
 25 26  1  0  0  0  0
 25 29  1  0  0  0  0
 28 22  1  0  0  0  0
 29 30  2  0  0  0  0
M  END
>  <MODEL>
4

>  <REMARK>
 VINA RESULT:      -5.9      4.388      8.527
  Name = 
  3 active torsions:
  status: ('A' for Active; 'I' for Inactive)
    1  A    between atoms: C_1  and  N_28
    2  A    between atoms: C_12  and  C_25
    3  A    between atoms: N_13  and  C_16
                            x       y       z     vdW  Elec       q    Type
                         _______ _______ _______ _____ _____    ______ ____

>  <TORSDO>
F 3

$$$$
=
 OpenBabel11072411113D

 30 34  0  0  1  0  0  0  0  0999 V2000
  161.0730  206.9300  153.4600 C   0  0  0  0  0  3  0  0  0  0  0  0
  161.4630  206.4050  152.3020 C   0  0  0  0  0  3  0  0  0  0  0  0
  160.9550  209.4570  152.9070 C   0  0  0  0  0  3  0  0  0  0  0  0
  161.3220  209.4660  151.6330 C   0  0  0  0  0  0  0  0  0  0  0  0
  160.8380  208.3090  153.7440 N   0  0  0  0  0  0  0  0  0  0  0  0
  162.0190  208.9580  149.4090 C   0  0  0  0  0  2  0  0  0  0  0  0
  161.6950  208.3580  150.7510 C   0  0  0  0  0  0  0  0  0  0  0  0
  161.7600  207.0420  151.0050 C   0  0  0  0  0  0  0  0  0  0  0  0
  161.8060  210.3850  149.6070 N   0  0  0  0  0  0  0  0  0  0  0  0
  161.4000  210.6810  150.9110 N   0  0  0  0  0  0  0  0  0  0  0  0
  161.2970  206.1560  146.3140 C   0  0  1  0  0  3  0  0  0  0  0  0
  160.8990  204.9700  145.4110 C   0  0  0  0  0  2  0  0  0  0  0  0
  162.0940  206.7880  148.5990 N   0  0  0  0  0  2  0  0  0  0  0  0
  162.1870  206.1200  149.8980 C   0  0  2  0  0  3  0  0  0  0  0  0
  161.9220  203.4730  145.6780 S   0  0  0  0  0  0  0  0  0  0  0  0
  161.6060  204.4830  148.1700 C   0  0  0  0  0  0  0  0  0  0  0  0
  161.1900  204.5940  149.8920 S   0  0  0  0  0  0  0  0  0  0  0  0
  160.0370  206.9350  146.6610 C   0  0  0  0  0  1  0  0  0  0  0  0
  162.1050  205.7500  147.5710 C   0  0  1  0  0  3  0  0  0  0  0  0
  160.7290  201.9130  148.0410 Cl  0  0  0  0  0  0  0  0  0  0  0  0
  161.4620  203.3850  147.4170 C   0  0  0  0  0  0  0  0  0  0  0  0
  162.0050  211.3850  148.5980 C   0  0  0  0  0  0  0  0  0  0  0  0
  162.5060  213.0160  146.2970 C   0  0  0  0  0  2  0  0  0  0  0  0
  163.4220  213.1750  147.5030 C   0  0  0  0  0  2  0  0  0  0  0  0
  161.0610  212.8240  146.7580 C   0  0  1  0  0  0  0  0  0  0  0  0
  160.9700  211.7660  147.8340 C   0  0  0  0  0  3  0  0  0  0  0  0
  160.5890  214.0370  147.2720 O   0  0  0  0  0  1  0  0  0  0  0  0
  163.4020  211.8930  148.3290 C   0  0  0  0  0  2  0  0  0  0  0  0
  160.2630  212.4380  145.6150 N   0  0  0  0  0  0  0  0  0  0  0  0
  158.9770  212.4240  145.6480 C   0  0  0  0  0  2  0  0  0  0  0  0
  1  5  1  0  0  0  0
  2  1  2  0  0  0  0
  3  5  2  0  0  0  0
  4  3  1  0  0  0  0
  6  9  1  0  0  0  0
  6  7  1  0  0  0  0
  7  8  2  0  0  0  0
  7  4  1  0  0  0  0
  8  2  1  0  0  0  0
  9 10  1  0  0  0  0
 10  4  2  0  0  0  0
 11 18  1  1  0  0  0
 11 19  1  0  0  0  0
 12 15  1  0  0  0  0
 12 11  1  0  0  0  0
 13 14  1  0  0  0  0
 14  8  1  1  0  0  0
 15 21  1  0  0  0  0
 16 17  1  0  0  0  0
 17 14  1  0  0  0  0
 19 16  1  1  0  0  0
 19 13  1  0  0  0  0
 21 20  1  0  0  0  0
 21 16  2  0  0  0  0
 22  9  1  0  0  0  0
 23 25  1  0  0  0  0
 23 24  1  0  0  0  0
 24 28  1  0  0  0  0
 25 27  1  1  0  0  0
 25 26  1  0  0  0  0
 26 22  2  0  0  0  0
 28 22  1  0  0  0  0
 29 30  2  0  0  0  0
 29 25  1  0  0  0  0
M  END
>  <MODEL>
5

>  <REMARK>
 VINA RESULT:      -5.8      1.521      2.022
  Name = 
  3 active torsions:
  status: ('A' for Active; 'I' for Inactive)
    1  A    between atoms: C_1  and  N_28
    2  A    between atoms: C_12  and  C_25
    3  A    between atoms: N_13  and  C_16
                            x       y       z     vdW  Elec       q    Type
                         _______ _______ _______ _____ _____    ______ ____

>  <TORSDO>
F 3

$$$$
=
 OpenBabel11072411113D

 30 34  0  0  1  0  0  0  0  0999 V2000
  160.4490  208.3330  157.2240 C   0  0  0  0  0  3  0  0  0  0  0  0
  160.1130  209.4000  156.5050 C   0  0  0  0  0  3  0  0  0  0  0  0
  161.2860  206.6880  155.4070 C   0  0  0  0  0  3  0  0  0  0  0  0
  161.1250  207.4080  154.3050 C   0  0  0  0  0  0  0  0  0  0  0  0
  160.9820  207.1010  156.7380 N   0  0  0  0  0  0  0  0  0  0  0  0
  160.6560  209.0690  152.6600 C   0  0  0  0  0  2  0  0  0  0  0  0
  160.6160  208.7700  154.1340 C   0  0  0  0  0  0  0  0  0  0  0  0
  160.1810  209.6460  155.0530 C   0  0  0  0  0  0  0  0  0  0  0  0
  161.1950  207.8490  152.0730 N   0  0  0  0  0  0  0  0  0  0  0  0
  161.4660  206.8760  153.0380 N   0  0  0  0  0  0  0  0  0  0  0  0
  156.3210  212.4720  154.7130 C   0  0  1  0  0  3  0  0  0  0  0  0
  155.5730  213.2540  153.6130 C   0  0  0  0  0  2  0  0  0  0  0  0
  158.4970  211.3960  155.3140 N   0  0  0  0  0  2  0  0  0  0  0  0
  159.7020  210.9920  154.5870 C   0  0  2  0  0  3  0  0  0  0  0  0
  156.6320  214.4530  152.7200 S   0  0  0  0  0  0  0  0  0  0  0  0
  158.2670  212.3320  153.1210 C   0  0  0  0  0  0  0  0  0  0  0  0
  159.3820  210.9910  152.7930 S   0  0  0  0  0  0  0  0  0  0  0  0
  155.7370  211.0690  154.7820 C   0  0  0  0  0  1  0  0  0  0  0  0
  157.8600  212.4640  154.5470 C   0  0  1  0  0  3  0  0  0  0  0  0
  158.0970  212.9450  150.4780 Cl  0  0  0  0  0  0  0  0  0  0  0  0
  157.7700  213.1600  152.1930 C   0  0  0  0  0  0  0  0  0  0  0  0
  161.4070  207.6470  150.6690 C   0  0  0  0  0  0  0  0  0  0  0  0
  162.2670  207.1050  147.9910 C   0  0  0  0  0  2  0  0  0  0  0  0
  161.9090  208.5400  148.3540 C   0  0  0  0  0  2  0  0  0  0  0  0
  161.2890  206.1360  148.6560 C   0  0  1  0  0  0  0  0  0  0  0  0
  161.1250  206.4530  150.1250 C   0  0  0  0  0  3  0  0  0  0  0  0
  160.0460  206.2500  148.0240 O   0  0  0  0  0  1  0  0  0  0  0  0
  162.0650  208.7380  149.8580 C   0  0  0  0  0  2  0  0  0  0  0  0
  161.7940  204.7910  148.4930 N   0  0  0  0  0  0  0  0  0  0  0  0
  161.6230  204.1190  147.4100 C   0  0  0  0  0  2  0  0  0  0  0  0
  2  1  2  0  0  0  0
  3  5  2  0  0  0  0
  4  3  1  0  0  0  0
  5  1  1  0  0  0  0
  6  7  1  0  0  0  0
  7  4  1  0  0  0  0
  7  8  2  0  0  0  0
  8  2  1  0  0  0  0
  9  6  1  0  0  0  0
  9 10  1  0  0  0  0
 10  4  2  0  0  0  0
 11 18  1  6  0  0  0
 12 11  1  0  0  0  0
 14  8  1  1  0  0  0
 14 13  1  0  0  0  0
 15 12  1  0  0  0  0
 17 16  1  0  0  0  0
 17 14  1  0  0  0  0
 19 16  1  6  0  0  0
 19 11  1  0  0  0  0
 19 13  1  0  0  0  0
 20 21  1  0  0  0  0
 21 15  1  0  0  0  0
 21 16  2  0  0  0  0
 22  9  1  0  0  0  0
 23 24  1  0  0  0  0
 23 25  1  0  0  0  0
 24 28  1  0  0  0  0
 25 27  1  6  0  0  0
 25 26  1  0  0  0  0
 26 22  2  0  0  0  0
 28 22  1  0  0  0  0
 29 25  1  0  0  0  0
 30 29  2  0  0  0  0
M  END
>  <MODEL>
6

>  <REMARK>
 VINA RESULT:      -5.7      4.859      8.023
  Name = 
  3 active torsions:
  status: ('A' for Active; 'I' for Inactive)
    1  A    between atoms: C_1  and  N_28
    2  A    between atoms: C_12  and  C_25
    3  A    between atoms: N_13  and  C_16
                            x       y       z     vdW  Elec       q    Type
                         _______ _______ _______ _____ _____    ______ ____

>  <TORSDO>
F 3

$$$$
=
 OpenBabel11072411113D

 30 34  0  0  1  0  0  0  0  0999 V2000
  161.4510  206.4990  154.6410 C   0  0  0  0  0  3  0  0  0  0  0  0
  161.1850  206.2330  153.3660 C   0  0  0  0  0  3  0  0  0  0  0  0
  161.4950  209.0880  154.6670 C   0  0  0  0  0  3  0  0  0  0  0  0
  161.2400  209.3690  153.3960 C   0  0  0  0  0  0  0  0  0  0  0  0
  161.5910  207.7870  155.2410 N   0  0  0  0  0  0  0  0  0  0  0  0
  160.7630  209.3470  151.0590 C   0  0  0  0  0  2  0  0  0  0  0  0
  160.9920  208.4740  152.2630 C   0  0  0  0  0  0  0  0  0  0  0  0
  160.9580  207.1330  152.2200 C   0  0  0  0  0  0  0  0  0  0  0  0
  160.8910  210.7010  151.5830 N   0  0  0  0  0  0  0  0  0  0  0  0
  161.1730  210.7110  152.9510 N   0  0  0  0  0  0  0  0  0  0  0  0
  160.6260  202.8800  150.0280 C   0  0  1  0  0  3  0  0  0  0  0  0
  161.2370  202.1810  148.7960 C   0  0  0  0  0  2  0  0  0  0  0  0
  160.2000  205.1000  151.0970 N   0  0  0  0  0  2  0  0  0  0  0  0
  160.6840  206.4680  150.9010 C   0  0  2  0  0  3  0  0  0  0  0  0
  160.9810  203.1000  147.2320 S   0  0  0  0  0  0  0  0  0  0  0  0
  161.4440  205.0520  149.0510 C   0  0  0  0  0  0  0  0  0  0  0  0
  162.1710  206.4620  149.8460 S   0  0  0  0  0  0  0  0  0  0  0  0
  161.5190  202.6000  151.2270 C   0  0  0  0  0  1  0  0  0  0  0  0
  160.3610  204.3920  149.8300 C   0  0  1  0  0  3  0  0  0  0  0  0
  163.2070  205.2040  146.9880 Cl  0  0  0  0  0  0  0  0  0  0  0  0
  161.8300  204.5560  147.8680 C   0  0  0  0  0  0  0  0  0  0  0  0
  160.7650  211.8930  150.7950 C   0  0  0  0  0  0  0  0  0  0  0  0
  160.9060  214.4180  149.4500 C   0  0  0  0  0  2  0  0  0  0  0  0
  159.6980  214.1420  150.3350 C   0  0  0  0  0  2  0  0  0  0  0  0
  161.2890  213.1550  148.6780 C   0  0  1  0  0  0  0  0  0  0  0  0
  161.3720  211.9590  149.5990 C   0  0  0  0  0  3  0  0  0  0  0  0
  160.3150  212.9120  147.7040 O   0  0  0  0  0  1  0  0  0  0  0  0
  160.0640  213.0950  151.3820 C   0  0  0  0  0  2  0  0  0  0  0  0
  162.5680  213.3780  148.0410 N   0  0  0  0  0  0  0  0  0  0  0  0
  163.4310  212.4370  147.8820 C   0  0  0  0  0  2  0  0  0  0  0  0
  1  5  1  0  0  0  0
  2  1  2  0  0  0  0
  3  5  2  0  0  0  0
  4  3  1  0  0  0  0
  6  9  1  0  0  0  0
  6  7  1  0  0  0  0
  7  4  1  0  0  0  0
  8  7  2  0  0  0  0
  8  2  1  0  0  0  0
  9 10  1  0  0  0  0
 10  4  2  0  0  0  0
 11 18  1  1  0  0  0
 12 11  1  0  0  0  0
 14 13  1  0  0  0  0
 14  8  1  1  0  0  0
 15 21  1  0  0  0  0
 15 12  1  0  0  0  0
 16 17  1  0  0  0  0
 17 14  1  0  0  0  0
 19 16  1  1  0  0  0
 19 11  1  0  0  0  0
 19 13  1  0  0  0  0
 20 21  1  0  0  0  0
 21 16  2  0  0  0  0
 22 28  1  0  0  0  0
 22  9  1  0  0  0  0
 23 24  1  0  0  0  0
 24 28  1  0  0  0  0
 25 27  1  6  0  0  0
 25 23  1  0  0  0  0
 25 26  1  0  0  0  0
 26 22  2  0  0  0  0
 29 25  1  0  0  0  0
 30 29  2  0  0  0  0
M  END
>  <MODEL>
7

>  <REMARK>
 VINA RESULT:      -5.3      1.887      2.568
  Name = 
  3 active torsions:
  status: ('A' for Active; 'I' for Inactive)
    1  A    between atoms: C_1  and  N_28
    2  A    between atoms: C_12  and  C_25
    3  A    between atoms: N_13  and  C_16
                            x       y       z     vdW  Elec       q    Type
                         _______ _______ _______ _____ _____    ______ ____

>  <TORSDO>
F 3

$$$$
=
 OpenBabel11072411113D

 30 35  0  0  1  0  0  0  0  0999 V2000
  160.7000  209.0660  155.9720 C   0  0  0  0  0  3  0  0  0  0  0  0
  160.9620  209.8560  154.9360 C   0  0  0  0  0  3  0  0  0  0  0  0
  160.5750  206.7280  154.8650 C   0  0  0  0  0  3  0  0  0  0  0  0
  160.8090  207.0260  153.5940 C   0  0  0  0  0  0  0  0  0  0  0  0
  160.5250  207.6490  155.9520 N   0  0  0  0  0  0  0  0  0  0  0  0
  161.2640  208.0560  151.4910 C   0  0  1  0  0  3  0  0  0  0  0  0
  161.0740  208.3190  152.9610 C   0  0  0  0  0  0  0  0  0  0  0  0
  161.1500  209.5430  153.5070 C   0  0  0  0  0  0  0  0  0  0  0  0
  161.1000  206.6130  151.3740 N   0  0  0  0  0  0  0  0  0  0  0  0
  160.8310  206.0120  152.6060 N   0  0  0  0  0  0  0  0  0  0  0  0
  159.1640  213.3620  151.3910 C   0  0  1  0  0  3  0  0  0  0  0  0
  159.0380  213.9400  149.9650 C   0  0  0  0  0  2  0  0  0  0  0  0
  160.4680  211.7910  152.8340 N   0  0  0  0  0  2  0  0  0  0  0  0
  161.4310  210.7120  152.6050 C   0  0  2  0  0  3  0  0  0  0  0  0
  160.6510  214.2180  149.1440 S   0  0  0  0  0  0  0  0  0  0  0  0
  161.0200  211.9080  150.5070 C   0  0  0  0  0  0  0  0  0  0  0  0
  161.4080  210.2110  150.8530 S   0  0  2  0  0  3  0  0  0  0  0  0
  157.9860  212.4320  151.6350 C   0  0  0  0  0  1  0  0  0  0  0  0
  160.5250  212.6820  151.6780 C   0  0  1  0  0  3  0  0  0  0  0  0
  161.5370  211.5710  147.8600 Cl  0  0  0  0  0  0  0  0  0  0  0  0
  161.1090  212.4840  149.3010 C   0  0  0  0  0  0  0  0  0  0  0  0
  161.1800  205.8830  150.1420 C   0  0  0  0  0  0  0  0  0  0  0  0
  160.8660  204.4350  147.6910 C   0  0  0  0  0  2  0  0  0  0  0  0
  161.5270  203.7250  148.8650 C   0  0  0  0  0  2  0  0  0  0  0  0
  161.3340  205.8890  147.6270 C   0  0  1  0  0  0  0  0  0  0  0  0
  161.2270  206.5540  148.9800 C   0  0  0  0  0  3  0  0  0  0  0  0
  162.6700  205.9130  147.2140 O   0  0  0  0  0  1  0  0  0  0  0  0
  161.0800  204.3770  150.1690 C   0  0  0  0  0  2  0  0  0  0  0  0
  160.5150  206.5920  146.6640 N   0  0  0  0  0  0  0  0  0  0  0  0
  160.4000  206.2010  145.4440 C   0  0  0  0  0  2  0  0  0  0  0  0
  2  1  2  0  0  0  0
  3  5  2  0  0  0  0
  4  3  1  0  0  0  0
  5  1  1  0  0  0  0
  6  7  1  1  0  0  0
  7  8  2  0  0  0  0
  7  4  1  0  0  0  0
  8  2  1  0  0  0  0
  9  6  1  0  0  0  0
  9 10  1  0  0  0  0
 10  4  2  0  0  0  0
 11 18  1  6  0  0  0
 11 19  1  0  0  0  0
 12 11  1  0  0  0  0
 14 13  1  6  0  0  0
 14  8  1  0  0  0  0
 15 21  1  0  0  0  0
 15 12  1  0  0  0  0
 17 16  1  6  0  0  0
 17  6  1  0  0  0  0
 17 14  1  0  0  0  0
 19 16  1  6  0  0  0
 19 13  1  0  0  0  0
 20 21  1  0  0  0  0
 21 16  2  0  0  0  0
 22 28  1  0  0  0  0
 22  9  1  0  0  0  0
 23 24  1  0  0  0  0
 24 28  1  0  0  0  0
 25 27  1  6  0  0  0
 25 23  1  0  0  0  0
 25 26  1  0  0  0  0
 26 22  2  0  0  0  0
 29 25  1  0  0  0  0
 30 29  2  0  0  0  0
M  END
>  <MODEL>
8

>  <REMARK>
 VINA RESULT:      -5.2      3.732      7.326
  Name = 
  3 active torsions:
  status: ('A' for Active; 'I' for Inactive)
    1  A    between atoms: C_1  and  N_28
    2  A    between atoms: C_12  and  C_25
    3  A    between atoms: N_13  and  C_16
                            x       y       z     vdW  Elec       q    Type
                         _______ _______ _______ _____ _____    ______ ____

>  <TORSDO>
F 3

$$$$
=
 OpenBabel11072411113D

 30 34  0  0  1  0  0  0  0  0999 V2000
  161.2900  209.2170  153.4720 C   0  0  0  0  0  3  0  0  0  0  0  0
  161.6050  209.7850  152.3120 C   0  0  0  0  0  3  0  0  0  0  0  0
  161.0020  206.7310  152.8070 C   0  0  0  0  0  3  0  0  0  0  0  0
  161.2540  206.7740  151.5060 C   0  0  0  0  0  0  0  0  0  0  0  0
  161.0170  207.8360  153.7080 N   0  0  0  0  0  0  0  0  0  0  0  0
  161.7780  207.3710  149.2570 C   0  0  0  0  0  2  0  0  0  0  0  0
  161.6080  207.9100  150.6520 C   0  0  0  0  0  0  0  0  0  0  0  0
  161.7700  209.2050  150.9670 C   0  0  0  0  0  0  0  0  0  0  0  0
  161.5130  205.9450  149.4020 N   0  0  0  0  0  0  0  0  0  0  0  0
  161.2040  205.5990  150.7190 N   0  0  0  0  0  0  0  0  0  0  0  0
  161.2310  213.7250  149.4560 C   0  0  1  0  0  3  0  0  0  0  0  0
  160.7540  214.4530  148.1820 C   0  0  0  0  0  2  0  0  0  0  0  0
  162.0770  211.5490  150.3520 N   0  0  0  0  0  2  0  0  0  0  0  0
  162.1310  210.1670  149.8710 C   0  0  2  0  0  3  0  0  0  0  0  0
  161.6770  213.9700  146.6750 S   0  0  0  0  0  0  0  0  0  0  0  0
  161.4380  211.6480  148.0470 C   0  0  0  0  0  0  0  0  0  0  0  0
  161.0370  209.9620  148.4280 S   0  0  0  0  0  0  0  0  0  0  0  0
  160.0260  213.4990  150.3570 C   0  0  0  0  0  1  0  0  0  0  0  0
  162.0160  212.4190  149.1810 C   0  0  1  0  0  3  0  0  0  0  0  0
  160.3950  211.4160  145.5470 Cl  0  0  0  0  0  0  0  0  0  0  0  0
  161.2190  212.2390  146.8640 C   0  0  0  0  0  0  0  0  0  0  0  0
  161.5410  204.9990  148.3240 C   0  0  0  0  0  0  0  0  0  0  0  0
  161.1320  203.1990  146.1340 C   0  0  0  0  0  2  0  0  0  0  0  0
  161.5800  202.6170  147.4690 C   0  0  0  0  0  2  0  0  0  0  0  0
  161.8540  204.5200  145.8700 C   0  0  1  0  0  0  0  0  0  0  0  0
  161.7800  205.4290  147.0750 C   0  0  0  0  0  3  0  0  0  0  0  0
  163.1960  204.2490  145.5870 O   0  0  0  0  0  1  0  0  0  0  0  0
  161.1730  203.5600  148.5960 C   0  0  0  0  0  2  0  0  0  0  0  0
  161.2370  205.1590  144.7290 N   0  0  0  0  0  0  0  0  0  0  0  0
  160.4930  206.2020  144.8450 C   0  0  0  0  0  2  0  0  0  0  0  0
  1  5  1  0  0  0  0
  2  1  2  0  0  0  0
  3  5  2  0  0  0  0
  4  3  1  0  0  0  0
  6  9  1  0  0  0  0
  6  7  1  0  0  0  0
  7  8  2  0  0  0  0
  7  4  1  0  0  0  0
  8  2  1  0  0  0  0
  9 10  1  0  0  0  0
 10  4  2  0  0  0  0
 11 18  1  1  0  0  0
 12 11  1  0  0  0  0
 14 13  1  0  0  0  0
 14  8  1  1  0  0  0
 15 21  1  0  0  0  0
 15 12  1  0  0  0  0
 16 17  1  0  0  0  0
 17 14  1  0  0  0  0
 19 16  1  6  0  0  0
 19 11  1  0  0  0  0
 19 13  1  0  0  0  0
 20 21  1  0  0  0  0
 21 16  2  0  0  0  0
 22 28  1  0  0  0  0
 22  9  1  0  0  0  0
 23 24  1  0  0  0  0
 24 28  1  0  0  0  0
 25 27  1  6  0  0  0
 25 23  1  0  0  0  0
 25 26  1  0  0  0  0
 26 22  2  0  0  0  0
 29 30  2  0  0  0  0
 29 25  1  0  0  0  0
M  END
>  <MODEL>
9

>  <REMARK>
 VINA RESULT:      -4.7      3.266      7.349
  Name = 
  3 active torsions:
  status: ('A' for Active; 'I' for Inactive)
    1  A    between atoms: C_1  and  N_28
    2  A    between atoms: C_12  and  C_25
    3  A    between atoms: N_13  and  C_16
                            x       y       z     vdW  Elec       q    Type
                         _______ _______ _______ _____ _____    ______ ____

>  <TORSDO>
F 3

$$$$
