=
 OpenBabel11072412163D

 38 42  0  0  1  0  0  0  0  0999 V2000
  162.3290  209.2840  153.2230 C   0  0  0  0  0  2  0  0  0  0  0  0
  160.5990  206.0510  154.0170 N   0  0  0  0  0  2  0  0  0  0  0  0
  160.5900  207.2500  154.8520 C   0  0  0  0  0  2  0  0  0  0  0  0
  161.1090  207.4100  152.0090 C   0  0  2  0  0  3  0  0  0  0  0  0
  160.9670  208.7040  152.8270 C   0  0  1  0  0  3  0  0  0  0  0  0
  161.9280  211.1320  154.9210 C   0  0  0  0  0  2  0  0  0  0  0  0
  159.7840  209.6570  154.9390 C   0  0  1  0  0  3  0  0  0  0  0  0
  162.1850  210.7770  153.4560 C   0  0  0  0  0  2  0  0  0  0  0  0
  161.5440  206.2260  152.9110 C   0  0  2  0  0  3  0  0  0  0  0  0
  160.0680  208.4380  154.0470 C   0  0  2  0  0  3  0  0  0  0  0  0
  161.0250  210.1600  155.6920 C   0  0  0  0  0  2  0  0  0  0  0  0
  159.0210  210.7630  154.1990 C   0  0  1  0  0  3  0  0  0  0  0  0
  157.1140  210.0560  156.0240 O   0  0  0  0  0  0  0  0  0  0  0  0
  159.7650  213.6920  156.2960 C   0  0  0  0  0  0  0  0  0  0  0  0
  159.3670  214.3220  155.0880 N   0  0  0  0  0  0  0  0  0  0  0  0
  158.8510  213.3250  154.1680 C   0  0  0  0  0  3  0  0  0  0  0  0
  157.3990  211.0890  154.9710 S   0  0  0  0  0  0  0  0  0  0  0  0
  159.5560  212.2270  156.3190 C   0  0  0  0  0  2  0  0  0  0  0  0
  158.9380  212.0200  154.9440 C   0  0  1  0  0  0  0  0  0  0  0  0
  156.3790  211.2120  153.8750 O   0  0  0  0  0  0  0  0  0  0  0  0
  160.2560  214.3350  157.2600 O   0  0  0  0  0  0  0  0  0  0  0  0
  161.8600  208.7350  148.6450 C   0  0  0  0  0  2  0  0  0  0  0  0
  161.6810  208.9830  150.1140 C   0  0  0  0  0  2  0  0  0  0  0  0
  161.7540  206.5940  149.7430 N   0  0  0  0  0  2  0  0  0  0  0  0
  161.9600  207.6370  150.7460 C   0  0  2  0  0  3  0  0  0  0  0  0
  161.5140  207.2730  148.4750 C   0  0  2  0  0  3  0  0  0  0  0  0
  162.5430  206.5310  147.1750 S   0  0  0  0  0  0  0  0  0  0  0  0
  160.1460  206.1570  146.1340 O   0  0  0  0  0  0  0  0  0  0  0  0
  161.1830  205.5610  146.5250 C   0  0  0  0  0  0  0  0  0  0  0  0
  160.9620  203.7980  148.8370 O   0  0  0  0  0  1  0  0  0  0  0  0
  161.1770  203.2560  147.6130 N   0  0  0  0  0  0  0  0  0  0  0  0
  161.2890  204.0900  146.4470 C   0  0  0  0  0  0  0  0  0  0  0  0
  161.4840  203.5550  145.3200 O   0  0  0  0  0  0  0  0  0  0  0  0
  161.2860  201.8060  147.4860 C   0  0  0  0  0  3  0  0  0  0  0  0
  160.4550  201.3170  146.3150 C   0  0  0  0  0  1  0  0  0  0  0  0
  160.8300  201.1280  148.7640 C   0  0  0  0  0  1  0  0  0  0  0  0
  161.6590  204.9120  152.1440 C   0  0  0  0  0  2  0  0  0  0  0  0
  160.8000  203.9500  152.6800 O   0  0  0  0  0  1  0  0  0  0  0  0
  1  8  1  0  0  0  0
  2  3  1  0  0  0  0
  4 25  1  6  0  0  0
  4  5  1  0  0  0  0
  4  9  1  0  0  0  0
  5  1  1  1  0  0  0
  5 10  1  0  0  0  0
  6 11  1  0  0  0  0
  7 11  1  6  0  0  0
  8  6  1  0  0  0  0
  9 37  1  6  0  0  0
  9  2  1  0  0  0  0
 10  3  1  1  0  0  0
 10  7  1  0  0  0  0
 12  7  1  1  0  0  0
 12 19  1  0  0  0  0
 12 17  1  0  0  0  0
 14 18  1  0  0  0  0
 14 21  2  0  0  0  0
 15 14  1  0  0  0  0
 16 15  2  0  0  0  0
 17 13  2  0  0  0  0
 19 16  1  6  0  0  0
 19 17  1  0  0  0  0
 19 18  1  0  0  0  0
 20 17  2  0  0  0  0
 22 23  1  0  0  0  0
 24 25  1  0  0  0  0
 25 23  1  6  0  0  0
 26 27  1  6  0  0  0
 26 22  1  0  0  0  0
 26 24  1  0  0  0  0
 28 29  2  0  0  0  0
 29 27  1  0  0  0  0
 31 30  1  0  0  0  0
 32 29  1  0  0  0  0
 32 31  1  0  0  0  0
 33 32  2  0  0  0  0
 34 31  1  0  0  0  0
 34 36  1  0  0  0  0
 35 34  1  0  0  0  0
 37 38  1  0  0  0  0
M  END
>  <MODEL>
1

>  <REMARK>
 VINA RESULT:      -5.5      0.000      0.000
  Name = 
  7 active torsions:
  status: ('A' for Active; 'I' for Inactive)
    1  A    between atoms: C_1  and  C_27
    2  A    between atoms: C_6  and  CA_32
    3  A    between atoms: S_8  and  C_18
    4  A    between atoms: S_8  and  C_35
    5  A    between atoms: N_11  and  C_13
    6  A    between atoms: C_12  and  C_18
    7  A    between atoms: C_21  and  C_23
                            x       y       z     vdW  Elec       q    Type
                         _______ _______ _______ _____ _____    ______ ____

>  <TORSDO>
F 7

$$$$
=
 OpenBabel11072412163D

 38 42  0  0  1  0  0  0  0  0999 V2000
  162.2920  209.5970  154.5270 C   0  0  0  0  0  2  0  0  0  0  0  0
  159.6830  206.9210  154.8620 N   0  0  0  0  0  2  0  0  0  0  0  0
  159.8750  208.0440  155.7770 C   0  0  0  0  0  2  0  0  0  0  0  0
  160.8020  208.1700  153.0380 C   0  0  2  0  0  3  0  0  0  0  0  0
  160.8940  209.4210  153.9260 C   0  0  1  0  0  3  0  0  0  0  0  0
  162.1620  211.4160  156.2960 C   0  0  0  0  0  2  0  0  0  0  0  0
  159.7240  210.5740  155.9440 C   0  0  1  0  0  3  0  0  0  0  0  0
  162.5140  211.0620  154.8510 C   0  0  0  0  0  2  0  0  0  0  0  0
  160.7830  206.8790  153.8950 C   0  0  2  0  0  3  0  0  0  0  0  0
  159.7980  209.3600  155.0050 C   0  0  2  0  0  3  0  0  0  0  0  0
  160.9390  210.6940  156.8780 C   0  0  0  0  0  2  0  0  0  0  0  0
  159.3870  211.8740  155.2010 C   0  0  1  0  0  3  0  0  0  0  0  0
  158.1810  210.0820  153.5270 O   0  0  0  0  0  0  0  0  0  0  0  0
  156.0600  212.6530  156.5620 C   0  0  0  0  0  0  0  0  0  0  0  0
  156.4460  213.9220  156.0550 N   0  0  0  0  0  0  0  0  0  0  0  0
  157.6800  213.7880  155.3030 C   0  0  0  0  0  3  0  0  0  0  0  0
  158.3130  211.5610  153.7590 S   0  0  0  0  0  0  0  0  0  0  0  0
  156.9760  211.5470  156.2040 C   0  0  0  0  0  2  0  0  0  0  0  0
  157.9980  212.3030  155.3670 C   0  0  1  0  0  0  0  0  0  0  0  0
  158.8400  212.3640  152.6040 O   0  0  0  0  0  0  0  0  0  0  0  0
  155.0250  212.4940  157.2590 O   0  0  0  0  0  0  0  0  0  0  0  0
  162.3240  209.3700  149.8950 C   0  0  0  0  0  2  0  0  0  0  0  0
  162.0160  209.6030  151.3450 C   0  0  0  0  0  2  0  0  0  0  0  0
  161.5170  207.2960  150.8150 N   0  0  0  0  0  2  0  0  0  0  0  0
  161.8470  208.2090  151.9080 C   0  0  2  0  0  3  0  0  0  0  0  0
  161.6380  208.0600  149.5790 C   0  0  2  0  0  3  0  0  0  0  0  0
  162.6070  207.1200  148.3650 S   0  0  0  0  0  0  0  0  0  0  0  0
  160.0900  206.4710  147.9020 O   0  0  0  0  0  0  0  0  0  0  0  0
  161.2520  205.9990  148.0150 C   0  0  0  0  0  0  0  0  0  0  0  0
  160.3670  203.9870  149.9310 O   0  0  0  0  0  1  0  0  0  0  0  0
  161.0520  203.5930  148.8300 N   0  0  0  0  0  0  0  0  0  0  0  0
  161.5030  204.5520  147.8590 C   0  0  0  0  0  0  0  0  0  0  0  0
  162.1340  204.1540  146.8410 O   0  0  0  0  0  0  0  0  0  0  0  0
  161.3220  202.1720  148.6310 C   0  0  0  0  0  3  0  0  0  0  0  0
  160.4970  201.6360  147.4770 C   0  0  0  0  0  1  0  0  0  0  0  0
  161.0120  201.3930  149.8950 C   0  0  0  0  0  1  0  0  0  0  0  0
  160.6530  205.6130  153.0520 C   0  0  0  0  0  2  0  0  0  0  0  0
  161.8880  204.9700  152.9340 O   0  0  0  0  0  1  0  0  0  0  0  0
  1  8  1  0  0  0  0
  2  3  1  0  0  0  0
  4 25  1  6  0  0  0
  4  9  1  0  0  0  0
  4  5  1  0  0  0  0
  5  1  1  1  0  0  0
  5 10  1  0  0  0  0
  6 11  1  0  0  0  0
  7 11  1  6  0  0  0
  8  6  1  0  0  0  0
  9 37  1  6  0  0  0
  9  2  1  0  0  0  0
 10  3  1  1  0  0  0
 10  7  1  0  0  0  0
 12 17  1  6  0  0  0
 12 19  1  0  0  0  0
 12  7  1  0  0  0  0
 13 17  2  0  0  0  0
 14 21  2  0  0  0  0
 15 14  1  0  0  0  0
 16 15  2  0  0  0  0
 17 19  1  0  0  0  0
 18 14  1  0  0  0  0
 19 16  1  6  0  0  0
 19 18  1  0  0  0  0
 20 17  2  0  0  0  0
 22 23  1  0  0  0  0
 24 25  1  0  0  0  0
 25 23  1  6  0  0  0
 26 27  1  6  0  0  0
 26 22  1  0  0  0  0
 26 24  1  0  0  0  0
 28 29  2  0  0  0  0
 29 27  1  0  0  0  0
 31 30  1  0  0  0  0
 32 29  1  0  0  0  0
 32 31  1  0  0  0  0
 33 32  2  0  0  0  0
 34 31  1  0  0  0  0
 34 36  1  0  0  0  0
 35 34  1  0  0  0  0
 38 37  1  0  0  0  0
M  END
>  <MODEL>
2

>  <REMARK>
 VINA RESULT:      -4.6      1.689      1.940
  Name = 
  7 active torsions:
  status: ('A' for Active; 'I' for Inactive)
    1  A    between atoms: C_1  and  C_27
    2  A    between atoms: C_6  and  CA_32
    3  A    between atoms: S_8  and  C_18
    4  A    between atoms: S_8  and  C_35
    5  A    between atoms: N_11  and  C_13
    6  A    between atoms: C_12  and  C_18
    7  A    between atoms: C_21  and  C_23
                            x       y       z     vdW  Elec       q    Type
                         _______ _______ _______ _____ _____    ______ ____

>  <TORSDO>
F 7

$$$$
=
 OpenBabel11072412163D

 38 42  0  0  1  0  0  0  0  0999 V2000
  161.8930  208.8380  151.4940 C   0  0  0  0  0  2  0  0  0  0  0  0
  161.7120  205.8960  153.8150 N   0  0  0  0  0  2  0  0  0  0  0  0
  161.9530  207.2810  154.2120 C   0  0  0  0  0  2  0  0  0  0  0  0
  160.6180  206.6480  151.7240 C   0  0  2  0  0  3  0  0  0  0  0  0
  160.7260  208.1140  152.1730 C   0  0  1  0  0  3  0  0  0  0  0  0
  162.2110  211.0750  152.6580 C   0  0  0  0  0  2  0  0  0  0  0  0
  160.8750  209.5790  154.3180 C   0  0  1  0  0  3  0  0  0  0  0  0
  161.6070  210.3280  151.4690 C   0  0  0  0  0  2  0  0  0  0  0  0
  161.7430  205.7880  152.3550 C   0  0  2  0  0  3  0  0  0  0  0  0
  160.8170  208.1700  153.7080 C   0  0  2  0  0  3  0  0  0  0  0  0
  162.1800  210.3260  153.9970 C   0  0  0  0  0  2  0  0  0  0  0  0
  159.6100  210.3970  154.0310 C   0  0  1  0  0  3  0  0  0  0  0  0
  158.7590  209.0260  156.2360 O   0  0  0  0  0  0  0  0  0  0  0  0
  160.1230  213.3220  156.2020 C   0  0  0  0  0  0  0  0  0  0  0  0
  159.1620  213.8310  155.2900 N   0  0  0  0  0  0  0  0  0  0  0  0
  158.6830  212.7560  154.4410 C   0  0  0  0  0  3  0  0  0  0  0  0
  158.3390  210.1350  155.3140 S   0  0  0  0  0  0  0  0  0  0  0  0
  160.3840  211.8710  156.0700 C   0  0  0  0  0  2  0  0  0  0  0  0
  159.4190  211.5250  154.9440 C   0  0  1  0  0  0  0  0  0  0  0  0
  157.0150  209.9550  154.6270 O   0  0  0  0  0  0  0  0  0  0  0  0
  160.7010  214.0530  157.0470 O   0  0  0  0  0  0  0  0  0  0  0  0
  160.7560  204.9800  148.4320 C   0  0  0  0  0  2  0  0  0  0  0  0
  160.0810  205.1460  149.7620 C   0  0  0  0  0  2  0  0  0  0  0  0
  161.6920  206.9300  149.4910 N   0  0  0  0  0  2  0  0  0  0  0  0
  160.4710  206.5410  150.1950 C   0  0  2  0  0  3  0  0  0  0  0  0
  161.9700  205.8770  148.5220 C   0  0  2  0  0  3  0  0  0  0  0  0
  162.3300  206.6110  146.9000 S   0  0  0  0  0  0  0  0  0  0  0  0
  163.7200  204.4150  146.4370 O   0  0  0  0  0  0  0  0  0  0  0  0
  162.6530  205.0160  146.1470 C   0  0  0  0  0  0  0  0  0  0  0  0
  161.3100  202.4690  146.6070 O   0  0  0  0  0  1  0  0  0  0  0  0
  161.0390  203.1620  145.4750 N   0  0  0  0  0  0  0  0  0  0  0  0
  161.6770  204.4230  145.2110 C   0  0  0  0  0  0  0  0  0  0  0  0
  161.4000  205.0480  144.1490 O   0  0  0  0  0  0  0  0  0  0  0  0
  160.0790  202.6160  144.5200 C   0  0  0  0  0  3  0  0  0  0  0  0
  158.8240  203.4680  144.4910 C   0  0  0  0  0  1  0  0  0  0  0  0
  159.7270  201.1870  144.8830 C   0  0  0  0  0  1  0  0  0  0  0  0
  161.6500  204.3150  151.9640 C   0  0  0  0  0  2  0  0  0  0  0  0
  160.6690  203.6660  152.7170 O   0  0  0  0  0  1  0  0  0  0  0  0
  2  3  1  0  0  0  0
  4 25  1  6  0  0  0
  4  5  1  0  0  0  0
  4  9  1  0  0  0  0
  5  1  1  6  0  0  0
  5 10  1  0  0  0  0
  6 11  1  0  0  0  0
  7 11  1  6  0  0  0
  8  1  1  0  0  0  0
  8  6  1  0  0  0  0
  9 37  1  1  0  0  0
  9  2  1  0  0  0  0
 10  3  1  6  0  0  0
 10  7  1  0  0  0  0
 12  7  1  1  0  0  0
 12 19  1  0  0  0  0
 12 17  1  0  0  0  0
 14 21  2  0  0  0  0
 15 14  1  0  0  0  0
 16 15  2  0  0  0  0
 17 13  2  0  0  0  0
 18 14  1  0  0  0  0
 19 16  1  6  0  0  0
 19 17  1  0  0  0  0
 19 18  1  0  0  0  0
 20 17  2  0  0  0  0
 22 26  1  0  0  0  0
 22 23  1  0  0  0  0
 24 25  1  0  0  0  0
 25 23  1  1  0  0  0
 26 27  1  6  0  0  0
 26 24  1  0  0  0  0
 29 28  2  0  0  0  0
 29 27  1  0  0  0  0
 31 30  1  0  0  0  0
 32 31  1  0  0  0  0
 32 29  1  0  0  0  0
 33 32  2  0  0  0  0
 34 36  1  0  0  0  0
 34 31  1  0  0  0  0
 35 34  1  0  0  0  0
 37 38  1  0  0  0  0
M  END
>  <MODEL>
3

>  <REMARK>
 VINA RESULT:      -3.9      1.548      1.984
  Name = 
  7 active torsions:
  status: ('A' for Active; 'I' for Inactive)
    1  A    between atoms: C_1  and  C_27
    2  A    between atoms: C_6  and  CA_32
    3  A    between atoms: S_8  and  C_18
    4  A    between atoms: S_8  and  C_35
    5  A    between atoms: N_11  and  C_13
    6  A    between atoms: C_12  and  C_18
    7  A    between atoms: C_21  and  C_23
                            x       y       z     vdW  Elec       q    Type
                         _______ _______ _______ _____ _____    ______ ____

>  <TORSDO>
F 7

$$$$
=
 OpenBabel11072412163D

 38 42  0  0  1  0  0  0  0  0999 V2000
  161.5560  212.2900  150.5350 C   0  0  0  0  0  2  0  0  0  0  0  0
  158.8000  214.1020  152.3240 N   0  0  0  0  0  2  0  0  0  0  0  0
  159.3400  214.4530  151.0130 C   0  0  0  0  0  2  0  0  0  0  0  0
  159.5900  211.7680  152.0640 C   0  0  2  0  0  3  0  0  0  0  0  0
  160.0430  212.0630  150.6250 C   0  0  1  0  0  3  0  0  0  0  0  0
  162.0760  213.1960  148.2190 C   0  0  0  0  0  2  0  0  0  0  0  0
  159.5410  213.6370  148.6160 C   0  0  1  0  0  3  0  0  0  0  0  0
  162.0250  211.9690  149.1290 C   0  0  0  0  0  2  0  0  0  0  0  0
  159.6210  213.0520  152.9320 C   0  0  2  0  0  3  0  0  0  0  0  0
  159.2390  213.2530  150.0720 C   0  0  2  0  0  3  0  0  0  0  0  0
  160.9500  214.2200  148.4210 C   0  0  0  0  0  2  0  0  0  0  0  0
  159.1950  212.5160  147.6280 C   0  0  1  0  0  3  0  0  0  0  0  0
  157.1670  214.2540  147.0510 O   0  0  0  0  0  0  0  0  0  0  0  0
  160.8920  213.6790  144.5790 C   0  0  0  0  0  0  0  0  0  0  0  0
  160.7270  212.3010  144.2830 N   0  0  0  0  0  0  0  0  0  0  0  0
  159.9010  211.6820  145.3040 C   0  0  0  0  0  3  0  0  0  0  0  0
  157.7820  212.9710  146.5660 S   0  0  0  0  0  0  0  0  0  0  0  0
  160.2000  214.1290  145.8070 C   0  0  0  0  0  2  0  0  0  0  0  0
  159.5450  212.8260  146.2410 C   0  0  1  0  0  0  0  0  0  0  0  0
  156.8600  211.7880  146.4870 O   0  0  0  0  0  0  0  0  0  0  0  0
  161.5740  214.4460  143.8510 O   0  0  0  0  0  0  0  0  0  0  0  0
  162.2990  209.2710  152.3070 C   0  0  0  0  0  2  0  0  0  0  0  0
  161.8300  210.6820  152.5070 C   0  0  0  0  0  2  0  0  0  0  0  0
  159.9080  209.2960  152.0200 N   0  0  0  0  0  2  0  0  0  0  0  0
  160.3290  210.5490  152.6450 C   0  0  2  0  0  3  0  0  0  0  0  0
  161.1250  208.5830  151.6480 C   0  0  2  0  0  3  0  0  0  0  0  0
  161.0200  206.8560  152.1980 S   0  0  0  0  0  0  0  0  0  0  0  0
  162.1100  207.0400  149.8010 O   0  0  0  0  0  0  0  0  0  0  0  0
  161.6430  206.2260  150.6400 C   0  0  0  0  0  0  0  0  0  0  0  0
  160.6290  205.0880  148.1530 O   0  0  0  0  0  1  0  0  0  0  0  0
  161.0980  204.2570  149.1160 N   0  0  0  0  0  0  0  0  0  0  0  0
  161.6090  204.7770  150.3550 C   0  0  0  0  0  0  0  0  0  0  0  0
  162.0440  203.9780  151.2300 O   0  0  0  0  0  0  0  0  0  0  0  0
  161.0870  202.8160  148.8790 C   0  0  0  0  0  3  0  0  0  0  0  0
  161.0220  202.5290  147.3910 C   0  0  0  0  0  1  0  0  0  0  0  0
  159.9070  202.1740  149.5830 C   0  0  0  0  0  1  0  0  0  0  0  0
  159.1410  212.8110  154.3610 C   0  0  0  0  0  2  0  0  0  0  0  0
  157.7470  212.8550  154.4260 O   0  0  0  0  0  1  0  0  0  0  0  0
  2  9  1  0  0  0  0
  3  2  1  0  0  0  0
  4 25  1  1  0  0  0
  4  9  1  0  0  0  0
  5  1  1  1  0  0  0
  5  4  1  0  0  0  0
  6 11  1  0  0  0  0
  6  8  1  0  0  0  0
  7 11  1  1  0  0  0
  7 10  1  0  0  0  0
  8  1  1  0  0  0  0
  9 37  1  1  0  0  0
 10  5  1  0  0  0  0
 10  3  1  1  0  0  0
 12 17  1  6  0  0  0
 12  7  1  0  0  0  0
 14 18  1  0  0  0  0
 15 14  1  0  0  0  0
 15 16  2  0  0  0  0
 17 13  2  0  0  0  0
 18 19  1  0  0  0  0
 19 16  1  6  0  0  0
 19 17  1  0  0  0  0
 19 12  1  0  0  0  0
 20 17  2  0  0  0  0
 21 14  2  0  0  0  0
 22 23  1  0  0  0  0
 24 25  1  0  0  0  0
 25 23  1  6  0  0  0
 26 24  1  0  0  0  0
 26 27  1  1  0  0  0
 26 22  1  0  0  0  0
 28 29  2  0  0  0  0
 29 27  1  0  0  0  0
 30 31  1  0  0  0  0
 31 32  1  0  0  0  0
 32 29  1  0  0  0  0
 32 33  2  0  0  0  0
 34 31  1  0  0  0  0
 34 36  1  0  0  0  0
 35 34  1  0  0  0  0
 37 38  1  0  0  0  0
M  END
>  <MODEL>
4

>  <REMARK>
 VINA RESULT:      -3.8      4.306      6.936
  Name = 
  7 active torsions:
  status: ('A' for Active; 'I' for Inactive)
    1  A    between atoms: C_1  and  C_27
    2  A    between atoms: C_6  and  CA_32
    3  A    between atoms: S_8  and  C_18
    4  A    between atoms: S_8  and  C_35
    5  A    between atoms: N_11  and  C_13
    6  A    between atoms: C_12  and  C_18
    7  A    between atoms: C_21  and  C_23
                            x       y       z     vdW  Elec       q    Type
                         _______ _______ _______ _____ _____    ______ ____

>  <TORSDO>
F 7

$$$$
=
 OpenBabel11072412163D

 38 42  0  0  1  0  0  0  0  0999 V2000
  161.6320  214.3720  143.9510 C   0  0  0  0  0  2  0  0  0  0  0  0
  157.9200  213.8410  144.0710 N   0  0  0  0  0  2  0  0  0  0  0  0
  158.7210  213.9900  142.8580 C   0  0  0  0  0  2  0  0  0  0  0  0
  159.9170  213.1090  145.3420 C   0  0  2  0  0  3  0  0  0  0  0  0
  160.7600  213.1170  144.0570 C   0  0  1  0  0  3  0  0  0  0  0  0
  162.6050  214.4530  141.6040 C   0  0  0  0  0  2  0  0  0  0  0  0
  160.5380  212.8760  141.4760 C   0  0  1  0  0  3  0  0  0  0  0  0
  162.8300  214.0720  143.0670 C   0  0  0  0  0  2  0  0  0  0  0  0
  158.7470  214.1220  145.2460 C   0  0  2  0  0  3  0  0  0  0  0  0
  159.8340  212.9440  142.8400 C   0  0  2  0  0  3  0  0  0  0  0  0
  161.1900  214.2050  141.0630 C   0  0  0  0  0  2  0  0  0  0  0  0
  161.4740  211.6660  141.3560 C   0  0  1  0  0  3  0  0  0  0  0  0
  159.3960  210.7720  139.8210 O   0  0  0  0  0  0  0  0  0  0  0  0
  163.2750  212.4420  138.2440 C   0  0  0  0  0  0  0  0  0  0  0  0
  164.1550  211.4980  138.8350 N   0  0  0  0  0  0  0  0  0  0  0  0
  163.5300  210.9220  140.0110 C   0  0  0  0  0  3  0  0  0  0  0  0
  160.8010  210.4110  140.2140 S   0  0  0  0  0  0  0  0  0  0  0  0
  161.9810  212.5940  138.9460 C   0  0  0  0  0  2  0  0  0  0  0  0
  162.1600  211.5800  140.0660 C   0  0  1  0  0  0  0  0  0  0  0  0
  160.9800  209.0610  140.8480 O   0  0  0  0  0  0  0  0  0  0  0  0
  163.5810  213.0920  137.2110 O   0  0  0  0  0  0  0  0  0  0  0  0
  162.2440  211.9140  147.9480 C   0  0  0  0  0  2  0  0  0  0  0  0
  162.0060  212.3110  146.5200 C   0  0  0  0  0  2  0  0  0  0  0  0
  160.0700  212.9420  147.8250 N   0  0  0  0  0  2  0  0  0  0  0  0
  160.8050  213.2270  146.5940 C   0  0  2  0  0  3  0  0  0  0  0  0
  160.8740  211.9920  148.5840 C   0  0  2  0  0  3  0  0  0  0  0  0
  161.0130  212.5410  150.3090 S   0  0  0  0  0  0  0  0  0  0  0  0
  161.6250  209.9850  150.0550 O   0  0  0  0  0  0  0  0  0  0  0  0
  161.4010  210.8920  150.8980 C   0  0  0  0  0  0  0  0  0  0  0  0
  159.3350  211.7100  152.7880 O   0  0  0  0  0  1  0  0  0  0  0  0
  160.4200  211.0390  153.2460 N   0  0  0  0  0  0  0  0  0  0  0  0
  161.4600  210.6140  152.3480 C   0  0  0  0  0  0  0  0  0  0  0  0
  162.4550  209.9860  152.8040 O   0  0  0  0  0  0  0  0  0  0  0  0
  160.5210  210.7390  154.6710 C   0  0  0  0  0  3  0  0  0  0  0  0
  159.3360  209.9030  155.1180 C   0  0  0  0  0  1  0  0  0  0  0  0
  160.5820  212.0220  155.4780 C   0  0  0  0  0  1  0  0  0  0  0  0
  157.8610  214.1190  146.4890 C   0  0  0  0  0  2  0  0  0  0  0  0
  156.8940  213.1150  146.4030 O   0  0  0  0  0  1  0  0  0  0  0  0
  2  9  1  0  0  0  0
  3  2  1  0  0  0  0
  4 25  1  1  0  0  0
  5  1  1  6  0  0  0
  5  4  1  0  0  0  0
  6  8  1  0  0  0  0
  7 11  1  1  0  0  0
  7 10  1  0  0  0  0
  8  1  1  0  0  0  0
  9  4  1  0  0  0  0
  9 37  1  1  0  0  0
 10  3  1  6  0  0  0
 10  5  1  0  0  0  0
 11  6  1  0  0  0  0
 12 17  1  6  0  0  0
 12  7  1  0  0  0  0
 13 17  2  0  0  0  0
 14 15  1  0  0  0  0
 14 18  1  0  0  0  0
 15 16  2  0  0  0  0
 16 19  1  0  0  0  0
 17 20  2  0  0  0  0
 19 18  1  6  0  0  0
 19 17  1  0  0  0  0
 19 12  1  0  0  0  0
 21 14  2  0  0  0  0
 22 26  1  0  0  0  0
 23 22  1  0  0  0  0
 24 26  1  0  0  0  0
 25 23  1  6  0  0  0
 25 24  1  0  0  0  0
 26 27  1  1  0  0  0
 27 29  1  0  0  0  0
 28 29  2  0  0  0  0
 29 32  1  0  0  0  0
 30 31  1  0  0  0  0
 31 34  1  0  0  0  0
 32 33  2  0  0  0  0
 32 31  1  0  0  0  0
 34 35  1  0  0  0  0
 34 36  1  0  0  0  0
 38 37  1  0  0  0  0
M  END
>  <MODEL>
5

>  <REMARK>
 VINA RESULT:      -2.9      7.200     12.231
  Name = 
  7 active torsions:
  status: ('A' for Active; 'I' for Inactive)
    1  A    between atoms: C_1  and  C_27
    2  A    between atoms: C_6  and  CA_32
    3  A    between atoms: S_8  and  C_18
    4  A    between atoms: S_8  and  C_35
    5  A    between atoms: N_11  and  C_13
    6  A    between atoms: C_12  and  C_18
    7  A    between atoms: C_21  and  C_23
                            x       y       z     vdW  Elec       q    Type
                         _______ _______ _______ _____ _____    ______ ____

>  <TORSDO>
F 7

$$$$
=
 OpenBabel11072412163D

 38 42  0  0  1  0  0  0  0  0999 V2000
  160.4320  210.7920  151.1190 C   0  0  0  0  0  2  0  0  0  0  0  0
  157.6490  213.2950  150.8610 N   0  0  0  0  0  2  0  0  0  0  0  0
  157.7780  212.2670  151.8920 C   0  0  0  0  0  2  0  0  0  0  0  0
  160.0860  213.2150  150.4250 C   0  0  2  0  0  3  0  0  0  0  0  0
  160.2820  212.2390  151.5970 C   0  0  1  0  0  3  0  0  0  0  0  0
  160.2950  209.2760  153.1540 C   0  0  0  0  0  2  0  0  0  0  0  0
  159.2080  211.5340  153.8590 C   0  0  1  0  0  3  0  0  0  0  0  0
  161.2020  210.0000  152.1600 C   0  0  0  0  0  2  0  0  0  0  0  0
  158.6630  213.0860  149.8250 C   0  0  2  0  0  3  0  0  0  0  0  0
  159.1260  212.4080  152.5980 C   0  0  2  0  0  3  0  0  0  0  0  0
  159.0280  210.0350  153.5720 C   0  0  0  0  0  2  0  0  0  0  0  0
  160.4380  211.8530  154.7170 C   0  0  1  0  0  3  0  0  0  0  0  0
  158.4810  212.7550  156.3980 O   0  0  0  0  0  0  0  0  0  0  0  0
  160.6730  208.8380  156.8100 C   0  0  0  0  0  0  0  0  0  0  0  0
  161.9890  209.3560  156.9390 N   0  0  0  0  0  0  0  0  0  0  0  0
  162.0560  210.6670  156.3200 C   0  0  0  0  0  3  0  0  0  0  0  0
  159.9610  212.5000  156.3570 S   0  0  0  0  0  0  0  0  0  0  0  0
  159.7280  209.7340  156.1070 C   0  0  0  0  0  2  0  0  0  0  0  0
  160.6400  210.9210  155.8270 C   0  0  1  0  0  0  0  0  0  0  0  0
  160.8410  213.6780  156.6660 O   0  0  0  0  0  0  0  0  0  0  0  0
  160.3490  207.7080  157.2580 O   0  0  0  0  0  0  0  0  0  0  0  0
  162.3850  214.4400  147.8080 C   0  0  0  0  0  2  0  0  0  0  0  0
  161.9480  214.4520  149.2440 C   0  0  0  0  0  2  0  0  0  0  0  0
  160.8130  212.6410  148.1110 N   0  0  0  0  0  2  0  0  0  0  0  0
  161.2490  213.1220  149.4200 C   0  0  2  0  0  3  0  0  0  0  0  0
  161.3670  213.5580  147.1210 C   0  0  2  0  0  3  0  0  0  0  0  0
  162.1530  212.6180  145.7820 S   0  0  0  0  0  0  0  0  0  0  0  0
  160.1350  214.0580  144.8730 O   0  0  0  0  0  0  0  0  0  0  0  0
  160.9120  213.1110  144.5840 C   0  0  0  0  0  0  0  0  0  0  0  0
  162.5620  213.7680  142.2720 O   0  0  0  0  0  1  0  0  0  0  0  0
  161.6460  212.7750  142.1670 N   0  0  0  0  0  0  0  0  0  0  0  0
  160.8150  212.4170  143.2840 C   0  0  0  0  0  0  0  0  0  0  0  0
  159.9740  211.4840  143.1570 O   0  0  0  0  0  0  0  0  0  0  0  0
  161.5150  212.0590  140.9020 C   0  0  0  0  0  3  0  0  0  0  0  0
  162.6900  211.1200  140.7050 C   0  0  0  0  0  1  0  0  0  0  0  0
  161.4350  213.0370  139.7470 C   0  0  0  0  0  1  0  0  0  0  0  0
  158.4140  214.0660  148.6820 C   0  0  0  0  0  2  0  0  0  0  0  0
  157.7680  213.4300  147.6190 O   0  0  0  0  0  1  0  0  0  0  0  0
  1  8  1  0  0  0  0
  2  3  1  0  0  0  0
  4 25  1  6  0  0  0
  4  5  1  0  0  0  0
  5  1  1  6  0  0  0
  5 10  1  0  0  0  0
  6 11  1  0  0  0  0
  7 11  1  6  0  0  0
  8  6  1  0  0  0  0
  9 37  1  6  0  0  0
  9  4  1  0  0  0  0
  9  2  1  0  0  0  0
 10  3  1  6  0  0  0
 10  7  1  0  0  0  0
 12  7  1  6  0  0  0
 12 19  1  0  0  0  0
 12 17  1  0  0  0  0
 14 15  1  0  0  0  0
 14 21  2  0  0  0  0
 16 15  2  0  0  0  0
 17 13  2  0  0  0  0
 17 20  2  0  0  0  0
 18 14  1  0  0  0  0
 19 18  1  1  0  0  0
 19 16  1  0  0  0  0
 19 17  1  0  0  0  0
 22 23  1  0  0  0  0
 24 25  1  0  0  0  0
 25 23  1  6  0  0  0
 26 27  1  6  0  0  0
 26 22  1  0  0  0  0
 26 24  1  0  0  0  0
 29 28  2  0  0  0  0
 29 27  1  0  0  0  0
 31 30  1  0  0  0  0
 31 32  1  0  0  0  0
 32 29  1  0  0  0  0
 33 32  2  0  0  0  0
 34 31  1  0  0  0  0
 35 34  1  0  0  0  0
 36 34  1  0  0  0  0
 38 37  1  0  0  0  0
M  END
>  <MODEL>
6

>  <REMARK>
 VINA RESULT:      -2.8      5.152      7.202
  Name = 
  7 active torsions:
  status: ('A' for Active; 'I' for Inactive)
    1  A    between atoms: C_1  and  C_27
    2  A    between atoms: C_6  and  CA_32
    3  A    between atoms: S_8  and  C_18
    4  A    between atoms: S_8  and  C_35
    5  A    between atoms: N_11  and  C_13
    6  A    between atoms: C_12  and  C_18
    7  A    between atoms: C_21  and  C_23
                            x       y       z     vdW  Elec       q    Type
                         _______ _______ _______ _____ _____    ______ ____

>  <TORSDO>
F 7

$$$$
=
 OpenBabel11072412163D

 38 42  0  0  1  0  0  0  0  0999 V2000
  162.6310  209.4400  154.6280 C   0  0  0  0  0  2  0  0  0  0  0  0
  159.7660  207.0210  154.7580 N   0  0  0  0  0  2  0  0  0  0  0  0
  160.0730  208.0330  155.7650 C   0  0  0  0  0  2  0  0  0  0  0  0
  161.0000  208.3070  153.0370 C   0  0  2  0  0  3  0  0  0  0  0  0
  161.2200  209.4600  154.0310 C   0  0  1  0  0  3  0  0  0  0  0  0
  162.6900  211.0990  156.5520 C   0  0  0  0  0  2  0  0  0  0  0  0
  160.1780  210.5410  156.1560 C   0  0  1  0  0  3  0  0  0  0  0  0
  163.0010  210.8410  155.0780 C   0  0  0  0  0  2  0  0  0  0  0  0
  160.8530  206.9540  153.7780 C   0  0  2  0  0  3  0  0  0  0  0  0
  160.1270  209.4140  155.1130 C   0  0  2  0  0  3  0  0  0  0  0  0
  161.4020  210.4550  157.0820 C   0  0  0  0  0  2  0  0  0  0  0  0
  159.9730  211.9280  155.5340 C   0  0  1  0  0  3  0  0  0  0  0  0
  158.8470  210.3930  153.5730 O   0  0  0  0  0  0  0  0  0  0  0  0
  156.5720  212.7440  156.6750 C   0  0  0  0  0  0  0  0  0  0  0  0
  157.0620  214.0360  156.3470 N   0  0  0  0  0  0  0  0  0  0  0  0
  158.3530  213.9130  155.6960 C   0  0  0  0  0  3  0  0  0  0  0  0
  159.0240  211.8290  153.9770 S   0  0  0  0  0  0  0  0  0  0  0  0
  157.4660  211.6320  156.2790 C   0  0  0  0  0  2  0  0  0  0  0  0
  158.5950  212.4140  155.6230 C   0  0  1  0  0  0  0  0  0  0  0  0
  159.6930  212.7190  152.9690 O   0  0  0  0  0  0  0  0  0  0  0  0
  155.4700  212.5700  157.2560 O   0  0  0  0  0  0  0  0  0  0  0  0
  162.4950  209.4750  149.8690 C   0  0  0  0  0  2  0  0  0  0  0  0
  162.1890  209.7280  151.3160 C   0  0  0  0  0  2  0  0  0  0  0  0
  161.7190  207.4060  150.8270 N   0  0  0  0  0  2  0  0  0  0  0  0
  162.0400  208.3410  151.9030 C   0  0  2  0  0  3  0  0  0  0  0  0
  161.8250  208.1510  149.5780 C   0  0  2  0  0  3  0  0  0  0  0  0
  162.8030  207.2030  148.3770 S   0  0  0  0  0  0  0  0  0  0  0  0
  160.8680  205.5420  149.0600 O   0  0  0  0  0  0  0  0  0  0  0  0
  161.4730  206.0390  148.0740 C   0  0  0  0  0  0  0  0  0  0  0  0
  162.8980  204.0640  146.4710 O   0  0  0  0  0  1  0  0  0  0  0  0
  161.8290  204.7020  145.9340 N   0  0  0  0  0  0  0  0  0  0  0  0
  161.0970  205.6810  146.6920 C   0  0  0  0  0  0  0  0  0  0  0  0
  160.1030  206.2540  146.1660 O   0  0  0  0  0  0  0  0  0  0  0  0
  161.4180  204.3790  144.5710 C   0  0  0  0  0  3  0  0  0  0  0  0
  161.2840  205.6470  143.7480 C   0  0  0  0  0  1  0  0  0  0  0  0
  160.1020  203.6260  144.5800 C   0  0  0  0  0  1  0  0  0  0  0  0
  160.5940  205.7870  152.8280 C   0  0  0  0  0  2  0  0  0  0  0  0
  161.5510  204.7850  153.0060 O   0  0  0  0  0  1  0  0  0  0  0  0
  1  8  1  0  0  0  0
  2  3  1  0  0  0  0
  4 25  1  6  0  0  0
  4  9  1  0  0  0  0
  4  5  1  0  0  0  0
  5  1  1  1  0  0  0
  5 10  1  0  0  0  0
  6 11  1  0  0  0  0
  7 11  1  6  0  0  0
  8  6  1  0  0  0  0
  9 37  1  6  0  0  0
  9  2  1  0  0  0  0
 10  3  1  1  0  0  0
 10  7  1  0  0  0  0
 12 17  1  6  0  0  0
 12 19  1  0  0  0  0
 12  7  1  0  0  0  0
 13 17  2  0  0  0  0
 14 21  2  0  0  0  0
 15 14  1  0  0  0  0
 16 15  2  0  0  0  0
 17 19  1  0  0  0  0
 18 14  1  0  0  0  0
 19 16  1  1  0  0  0
 19 18  1  0  0  0  0
 20 17  2  0  0  0  0
 22 23  1  0  0  0  0
 24 25  1  0  0  0  0
 25 23  1  6  0  0  0
 26 27  1  6  0  0  0
 26 22  1  0  0  0  0
 26 24  1  0  0  0  0
 29 27  1  0  0  0  0
 29 28  2  0  0  0  0
 31 30  1  0  0  0  0
 31 32  1  0  0  0  0
 32 29  1  0  0  0  0
 33 32  2  0  0  0  0
 34 36  1  0  0  0  0
 34 31  1  0  0  0  0
 35 34  1  0  0  0  0
 37 38  1  0  0  0  0
M  END
>  <MODEL>
7

>  <REMARK>
 VINA RESULT:      -2.6      1.979      2.460
  Name = 
  7 active torsions:
  status: ('A' for Active; 'I' for Inactive)
    1  A    between atoms: C_1  and  C_27
    2  A    between atoms: C_6  and  CA_32
    3  A    between atoms: S_8  and  C_18
    4  A    between atoms: S_8  and  C_35
    5  A    between atoms: N_11  and  C_13
    6  A    between atoms: C_12  and  C_18
    7  A    between atoms: C_21  and  C_23
                            x       y       z     vdW  Elec       q    Type
                         _______ _______ _______ _____ _____    ______ ____

>  <TORSDO>
F 7

$$$$
