=
 OpenBabel11072413173D

 27 30  0  0  1  0  0  0  0  0999 V2000
  160.6570  207.1060  156.0460 C   0  0  2  0  0  3  0  0  0  0  0  0
  160.1960  206.8650  154.6140 C   0  0  0  0  0  2  0  0  0  0  0  0
  159.5770  206.9880  156.9190 O   0  0  0  0  0  1  0  0  0  0  0  0
  163.0170  211.0270  156.2930 C   0  0  0  0  0  3  0  0  0  0  0  0
  163.1440  210.6860  154.8280 C   0  0  0  0  0  2  0  0  0  0  0  0
  161.0620  207.7290  153.7020 C   0  0  2  0  0  0  0  0  0  0  0  0
  161.7360  208.7060  154.6770 C   0  0  2  0  0  3  0  0  0  0  0  0
  162.6520  210.1630  157.2610 C   0  0  0  0  0  3  0  0  0  0  0  0
  162.3510  206.4450  151.8620 C   0  0  0  0  0  3  0  0  0  0  0  0
  161.4650  208.3560  150.5960 C   0  0  0  0  0  0  0  0  0  0  0  0
  160.8260  209.0640  151.5290 C   0  0  0  0  0  3  0  0  0  0  0  0
  161.5130  206.8600  150.6910 C   0  0  1  0  0  3  0  0  0  0  0  0
  160.1220  208.3870  152.6710 C   0  0  0  0  0  2  0  0  0  0  0  0
  161.1810  208.5210  156.0610 C   0  0  2  0  0  3  0  0  0  0  0  0
  161.8960  210.1190  154.3280 N   0  0  0  0  0  0  0  0  0  0  0  0
  162.3200  208.7050  157.0570 C   0  0  0  0  0  2  0  0  0  0  0  0
  162.0490  206.3170  149.5240 O   0  0  0  0  0  1  0  0  0  0  0  0
  162.0880  209.0060  149.5770 F   0  0  0  0  0  0  0  0  0  0  0  0
  162.1470  206.8290  153.1350 C   0  0  0  0  0  3  0  0  0  0  0  0
  158.4720  212.2230  152.4420 C   0  0  0  0  0  0  0  0  0  0  0  0
  157.8350  212.4020  151.2600 F   0  0  0  0  0  0  0  0  0  0  0  0
  160.7910  211.0070  154.0650 C   0  0  0  0  0  0  0  0  0  0  0  0
  157.8190  211.6400  153.4460 C   0  0  0  0  0  3  0  0  0  0  0  0
  159.6760  211.0900  155.0420 C   0  0  0  0  0  3  0  0  0  0  0  0
  159.8290  212.8170  152.6240 C   0  0  0  0  0  2  0  0  0  0  0  0
  160.8420  211.7750  152.9690 C   0  0  0  0  0  3  0  0  0  0  0  0
  158.3910  211.3590  154.7770 C   0  0  0  0  0  3  0  0  0  0  0  0
  1 14  1  0  0  0  0
  1  3  1  1  0  0  0
  2  1  1  0  0  0  0
  4  8  2  0  0  0  0
  5  4  1  0  0  0  0
  6 13  1  6  0  0  0
  6  2  1  0  0  0  0
  6  7  1  0  0  0  0
  7 15  1  6  0  0  0
  7 14  1  0  0  0  0
  9 19  2  0  0  0  0
 10 12  1  0  0  0  0
 10 11  2  0  0  0  0
 11 13  1  0  0  0  0
 12 17  1  6  0  0  0
 12  9  1  0  0  0  0
 14 16  1  1  0  0  0
 15  5  1  0  0  0  0
 16  8  1  0  0  0  0
 18 10  1  0  0  0  0
 19  6  1  0  0  0  0
 20 25  1  0  0  0  0
 20 23  2  0  0  0  0
 21 20  1  0  0  0  0
 22 15  1  0  0  0  0
 22 24  1  0  0  0  0
 23 27  1  0  0  0  0
 25 26  1  0  0  0  0
 26 22  2  0  0  0  0
 27 24  2  0  0  0  0
M  END
>  <MODEL>
1

>  <REMARK>
 VINA RESULT:      -4.7      0.000      0.000
  Name = 
  1 active torsions:
  status: ('A' for Active; 'I' for Inactive)
    1  A    between atoms: C_7  and  N_21
                            x       y       z     vdW  Elec       q    Type
                         _______ _______ _______ _____ _____    ______ ____

>  <TORSDO>
F 1

$$$$
=
 OpenBabel11072413173D

 27 30  0  0  1  0  0  0  0  0999 V2000
  160.9850  207.6400  154.0030 C   0  0  2  0  0  3  0  0  0  0  0  0
  160.4560  208.3180  152.7450 C   0  0  0  0  0  2  0  0  0  0  0  0
  160.1290  206.6080  154.3820 O   0  0  0  0  0  1  0  0  0  0  0  0
  161.8890  210.7810  157.2150 C   0  0  0  0  0  3  0  0  0  0  0  0
  161.9380  211.6100  155.9560 C   0  0  0  0  0  2  0  0  0  0  0  0
  160.8550  209.7900  152.8150 C   0  0  2  0  0  0  0  0  0  0  0  0
  161.2760  209.9710  154.2820 C   0  0  2  0  0  3  0  0  0  0  0  0
  161.9640  209.4360  157.2610 C   0  0  0  0  0  3  0  0  0  0  0  0
  162.2590  210.6490  150.8190 C   0  0  0  0  0  3  0  0  0  0  0  0
  160.6250  212.4660  151.0860 C   0  0  0  0  0  0  0  0  0  0  0  0
  159.9080  212.0710  152.1400 C   0  0  0  0  0  3  0  0  0  0  0  0
  161.1890  211.4480  150.1390 C   0  0  1  0  0  3  0  0  0  0  0  0
  159.6260  210.6160  152.3870 C   0  0  0  0  0  2  0  0  0  0  0  0
  160.9970  208.7160  155.0600 C   0  0  2  0  0  3  0  0  0  0  0  0
  160.9030  211.1780  155.0220 N   0  0  0  0  0  0  0  0  0  0  0  0
  162.1220  208.5240  156.0690 C   0  0  0  0  0  2  0  0  0  0  0  0
  161.7260  212.0760  149.0160 O   0  0  0  0  0  1  0  0  0  0  0  0
  160.8570  213.7920  150.8970 F   0  0  0  0  0  0  0  0  0  0  0  0
  162.1010  209.9540  151.9600 C   0  0  0  0  0  3  0  0  0  0  0  0
  156.8260  212.8980  154.6660 C   0  0  0  0  0  0  0  0  0  0  0  0
  156.0810  213.7660  153.9400 F   0  0  0  0  0  0  0  0  0  0  0  0
  159.5380  211.5710  155.2730 C   0  0  0  0  0  0  0  0  0  0  0  0
  156.4980  211.6070  154.6640 C   0  0  0  0  0  3  0  0  0  0  0  0
  158.5420  210.5360  155.6510 C   0  0  0  0  0  3  0  0  0  0  0  0
  157.8940  213.4390  155.5570 C   0  0  0  0  0  2  0  0  0  0  0  0
  159.2320  212.8730  155.2150 C   0  0  0  0  0  3  0  0  0  0  0  0
  157.2290  210.5480  155.3860 C   0  0  0  0  0  3  0  0  0  0  0  0
  1  3  1  1  0  0  0
  1 14  1  0  0  0  0
  2  6  1  0  0  0  0
  2  1  1  0  0  0  0
  4  8  2  0  0  0  0
  5  4  1  0  0  0  0
  6 19  1  6  0  0  0
  6  7  1  0  0  0  0
  7 15  1  1  0  0  0
  7 14  1  0  0  0  0
  9 19  2  0  0  0  0
 10 11  2  0  0  0  0
 11 13  1  0  0  0  0
 12 17  1  6  0  0  0
 12  9  1  0  0  0  0
 12 10  1  0  0  0  0
 13  6  1  0  0  0  0
 14 16  1  1  0  0  0
 15 22  1  0  0  0  0
 15  5  1  0  0  0  0
 16  8  1  0  0  0  0
 18 10  1  0  0  0  0
 20 25  1  0  0  0  0
 21 20  1  0  0  0  0
 22 24  1  0  0  0  0
 23 20  2  0  0  0  0
 23 27  1  0  0  0  0
 26 22  2  0  0  0  0
 26 25  1  0  0  0  0
 27 24  2  0  0  0  0
M  END
>  <MODEL>
2

>  <REMARK>
 VINA RESULT:      -3.7      2.145      2.937
  Name = 
  1 active torsions:
  status: ('A' for Active; 'I' for Inactive)
    1  A    between atoms: C_7  and  N_21
                            x       y       z     vdW  Elec       q    Type
                         _______ _______ _______ _____ _____    ______ ____

>  <TORSDO>
F 1

$$$$
=
 OpenBabel11072413173D

 27 30  0  0  1  0  0  0  0  0999 V2000
  160.8940  212.7130  142.7300 C   0  0  2  0  0  3  0  0  0  0  0  0
  162.3070  212.4130  142.2440 C   0  0  0  0  0  2  0  0  0  0  0  0
  160.5560  211.8480  143.7690 O   0  0  0  0  0  1  0  0  0  0  0  0
  158.0020  212.8120  139.1770 C   0  0  0  0  0  3  0  0  0  0  0  0
  159.3260  213.0710  138.5000 C   0  0  0  0  0  2  0  0  0  0  0  0
  162.3530  212.7210  140.7490 C   0  0  2  0  0  0  0  0  0  0  0  0
  160.8690  212.8330  140.3670 C   0  0  2  0  0  3  0  0  0  0  0  0
  157.7700  212.9400  140.4980 C   0  0  0  0  0  3  0  0  0  0  0  0
  164.1380  214.4510  140.0330 C   0  0  0  0  0  3  0  0  0  0  0  0
  164.4250  212.7130  138.3190 C   0  0  0  0  0  0  0  0  0  0  0  0
  163.4860  211.8200  138.6370 C   0  0  0  0  0  3  0  0  0  0  0  0
  165.1070  213.5010  139.3980 C   0  0  1  0  0  3  0  0  0  0  0  0
  163.1110  211.5630  140.0690 C   0  0  0  0  0  2  0  0  0  0  0  0
  160.0030  212.4640  141.5390 C   0  0  2  0  0  3  0  0  0  0  0  0
  160.3760  212.2640  139.1110 N   0  0  0  0  0  0  0  0  0  0  0  0
  158.7810  213.3740  141.5300 C   0  0  0  0  0  2  0  0  0  0  0  0
  166.1790  214.2200  138.8690 O   0  0  0  0  0  1  0  0  0  0  0  0
  164.7360  212.9150  137.0110 F   0  0  0  0  0  0  0  0  0  0  0  0
  162.9680  214.1020  140.5980 C   0  0  0  0  0  3  0  0  0  0  0  0
  161.7230  208.2630  137.7370 C   0  0  0  0  0  0  0  0  0  0  0  0
  162.6820  207.6390  137.0130 F   0  0  0  0  0  0  0  0  0  0  0  0
  160.4430  210.8590  138.7900 C   0  0  0  0  0  0  0  0  0  0  0  0
  161.6240  208.0030  139.0390 C   0  0  0  0  0  3  0  0  0  0  0  0
  160.1350  209.8570  139.8430 C   0  0  0  0  0  3  0  0  0  0  0  0
  160.7190  209.1060  137.0230 C   0  0  0  0  0  2  0  0  0  0  0  0
  160.7230  210.5100  137.5280 C   0  0  0  0  0  3  0  0  0  0  0  0
  160.6470  208.6250  139.9540 C   0  0  0  0  0  3  0  0  0  0  0  0
  1  3  1  1  0  0  0
  2  1  1  0  0  0  0
  4  8  2  0  0  0  0
  5 15  1  0  0  0  0
  5  4  1  0  0  0  0
  6 13  1  6  0  0  0
  6  2  1  0  0  0  0
  7 15  1  6  0  0  0
  7  6  1  0  0  0  0
  7 14  1  0  0  0  0
  8 16  1  0  0  0  0
  9 19  2  0  0  0  0
 10 11  2  0  0  0  0
 10 12  1  0  0  0  0
 11 13  1  0  0  0  0
 12 17  1  6  0  0  0
 12  9  1  0  0  0  0
 14 16  1  1  0  0  0
 14  1  1  0  0  0  0
 18 10  1  0  0  0  0
 19  6  1  0  0  0  0
 20 23  2  0  0  0  0
 21 20  1  0  0  0  0
 22 15  1  0  0  0  0
 22 24  1  0  0  0  0
 23 27  1  0  0  0  0
 24 27  2  0  0  0  0
 25 26  1  0  0  0  0
 25 20  1  0  0  0  0
 26 22  2  0  0  0  0
M  END
>  <MODEL>
3

>  <REMARK>
 VINA RESULT:      -3.1     12.346     15.043
  Name = 
  1 active torsions:
  status: ('A' for Active; 'I' for Inactive)
    1  A    between atoms: C_7  and  N_21
                            x       y       z     vdW  Elec       q    Type
                         _______ _______ _______ _____ _____    ______ ____

>  <TORSDO>
F 1

$$$$
=
 OpenBabel11072413173D

 27 30  0  0  1  0  0  0  0  0999 V2000
  161.7390  210.4050  150.1040 C   0  0  2  0  0  3  0  0  0  0  0  0
  162.3410  209.0140  150.2660 C   0  0  0  0  0  2  0  0  0  0  0  0
  162.7470  211.3320  149.8500 O   0  0  0  0  0  1  0  0  0  0  0  0
  158.9900  211.3440  153.6490 C   0  0  0  0  0  3  0  0  0  0  0  0
  159.0220  209.8360  153.6790 C   0  0  0  0  0  2  0  0  0  0  0  0
  161.4740  208.2530  151.2650 C   0  0  2  0  0  0  0  0  0  0  0  0
  160.6270  209.3590  151.9110 C   0  0  2  0  0  3  0  0  0  0  0  0
  159.3560  212.1060  152.5990 C   0  0  0  0  0  3  0  0  0  0  0  0
  160.4790  206.0300  150.3920 C   0  0  0  0  0  3  0  0  0  0  0  0
  161.2760  205.3680  152.6210 C   0  0  0  0  0  0  0  0  0  0  0  0
  161.7610  206.5080  153.1170 C   0  0  0  0  0  3  0  0  0  0  0  0
  161.3680  205.0910  151.1500 C   0  0  1  0  0  3  0  0  0  0  0  0
  162.4280  207.5200  152.2290 C   0  0  0  0  0  2  0  0  0  0  0  0
  161.0770  210.7070  151.4260 C   0  0  2  0  0  3  0  0  0  0  0  0
  160.3570  209.3480  153.3510 N   0  0  0  0  0  0  0  0  0  0  0  0
  159.8460  211.5910  151.2680 C   0  0  0  0  0  2  0  0  0  0  0  0
  160.9890  203.7760  150.8800 O   0  0  0  0  0  1  0  0  0  0  0  0
  160.6810  204.4770  153.4580 F   0  0  0  0  0  0  0  0  0  0  0  0
  160.5350  207.3720  150.4580 C   0  0  0  0  0  3  0  0  0  0  0  0
  163.0530  210.7380  156.5930 C   0  0  0  0  0  0  0  0  0  0  0  0
  163.4540  211.8460  157.2610 F   0  0  0  0  0  0  0  0  0  0  0  0
  161.3880  209.4290  154.3570 C   0  0  0  0  0  0  0  0  0  0  0  0
  162.4180  209.7760  157.2610 C   0  0  0  0  0  3  0  0  0  0  0  0
  161.4630  208.3800  155.4070 C   0  0  0  0  0  3  0  0  0  0  0  0
  163.4660  210.5690  155.1690 C   0  0  0  0  0  2  0  0  0  0  0  0
  162.2840  210.4200  154.2690 C   0  0  0  0  0  3  0  0  0  0  0  0
  161.9030  208.5290  156.6620 C   0  0  0  0  0  3  0  0  0  0  0  0
  1  3  1  1  0  0  0
  1  2  1  0  0  0  0
  1 14  1  0  0  0  0
  4  5  1  0  0  0  0
  6  2  1  6  0  0  0
  6  7  1  0  0  0  0
  6 13  1  0  0  0  0
  7 15  1  1  0  0  0
  8  4  2  0  0  0  0
  9 19  2  0  0  0  0
  9 12  1  0  0  0  0
 10 11  2  0  0  0  0
 10 18  1  0  0  0  0
 12 17  1  1  0  0  0
 12 10  1  0  0  0  0
 13 11  1  0  0  0  0
 14 16  1  6  0  0  0
 14  7  1  0  0  0  0
 15  5  1  0  0  0  0
 15 22  1  0  0  0  0
 16  8  1  0  0  0  0
 19  6  1  0  0  0  0
 20 21  1  0  0  0  0
 20 23  2  0  0  0  0
 22 24  1  0  0  0  0
 24 27  2  0  0  0  0
 25 20  1  0  0  0  0
 26 22  2  0  0  0  0
 26 25  1  0  0  0  0
 27 23  1  0  0  0  0
M  END
>  <MODEL>
4

>  <REMARK>
 VINA RESULT:      -2.5      2.700      4.860
  Name = 
  1 active torsions:
  status: ('A' for Active; 'I' for Inactive)
    1  A    between atoms: C_7  and  N_21
                            x       y       z     vdW  Elec       q    Type
                         _______ _______ _______ _____ _____    ______ ____

>  <TORSDO>
F 1

$$$$
=
 OpenBabel11072413173D

 27 30  0  0  1  0  0  0  0  0999 V2000
  162.1100  210.6930  156.9130 C   0  0  2  0  0  3  0  0  0  0  0  0
  161.6900  211.7800  155.9310 C   0  0  0  0  0  2  0  0  0  0  0  0
  163.4870  210.7440  157.1170 O   0  0  0  0  0  1  0  0  0  0  0  0
  160.4240  206.6440  155.5850 C   0  0  0  0  0  3  0  0  0  0  0  0
  159.4940  207.6050  154.8870 C   0  0  0  0  0  2  0  0  0  0  0  0
  160.4950  211.2490  155.1440 C   0  0  2  0  0  0  0  0  0  0  0  0
  160.5100  209.7440  155.4510 C   0  0  2  0  0  3  0  0  0  0  0  0
  161.2330  206.9590  156.6160 C   0  0  0  0  0  3  0  0  0  0  0  0
  158.3570  212.7010  155.2710 C   0  0  0  0  0  3  0  0  0  0  0  0
  158.4600  212.1900  152.8690 C   0  0  0  0  0  0  0  0  0  0  0  0
  159.5340  211.4040  152.7750 C   0  0  0  0  0  3  0  0  0  0  0  0
  158.4200  213.2860  153.8920 C   0  0  1  0  0  3  0  0  0  0  0  0
  160.7280  211.6110  153.6630 C   0  0  0  0  0  2  0  0  0  0  0  0
  161.7320  209.3910  156.2510 C   0  0  2  0  0  3  0  0  0  0  0  0
  160.2330  208.7640  154.3990 N   0  0  0  0  0  0  0  0  0  0  0  0
  161.3450  208.3190  157.2610 C   0  0  0  0  0  2  0  0  0  0  0  0
  157.3070  214.1010  153.6860 O   0  0  0  0  0  1  0  0  0  0  0  0
  157.4000  211.9710  152.0460 F   0  0  0  0  0  0  0  0  0  0  0  0
  159.2460  211.8320  155.7840 C   0  0  0  0  0  3  0  0  0  0  0  0
  161.5930  208.3750  150.1900 C   0  0  0  0  0  0  0  0  0  0  0  0
  161.1510  208.1360  148.9320 F   0  0  0  0  0  0  0  0  0  0  0  0
  161.0380  208.6190  153.2100 C   0  0  0  0  0  0  0  0  0  0  0  0
  162.1420  209.5560  150.4680 C   0  0  0  0  0  3  0  0  0  0  0  0
  162.1680  209.5560  152.9780 C   0  0  0  0  0  3  0  0  0  0  0  0
  161.5830  207.2580  151.1800 C   0  0  0  0  0  2  0  0  0  0  0  0
  160.7710  207.5990  152.3850 C   0  0  0  0  0  3  0  0  0  0  0  0
  162.6430  209.9640  151.7950 C   0  0  0  0  0  3  0  0  0  0  0  0
  1  3  1  6  0  0  0
  2  1  1  0  0  0  0
  4  8  2  0  0  0  0
  5  4  1  0  0  0  0
  6 13  1  6  0  0  0
  6  7  1  0  0  0  0
  6 19  1  0  0  0  0
  6  2  1  0  0  0  0
  7 15  1  6  0  0  0
  7 14  1  0  0  0  0
  8 16  1  0  0  0  0
  9 19  2  0  0  0  0
 10 12  1  0  0  0  0
 11 10  2  0  0  0  0
 11 13  1  0  0  0  0
 12 17  1  6  0  0  0
 12  9  1  0  0  0  0
 14  1  1  0  0  0  0
 14 16  1  1  0  0  0
 15  5  1  0  0  0  0
 18 10  1  0  0  0  0
 20 23  2  0  0  0  0
 20 25  1  0  0  0  0
 21 20  1  0  0  0  0
 22 15  1  0  0  0  0
 23 27  1  0  0  0  0
 24 22  1  0  0  0  0
 25 26  1  0  0  0  0
 26 22  2  0  0  0  0
 27 24  2  0  0  0  0
M  END
>  <MODEL>
5

>  <REMARK>
 VINA RESULT:      -2.2      2.332      5.139
  Name = 
  1 active torsions:
  status: ('A' for Active; 'I' for Inactive)
    1  A    between atoms: C_7  and  N_21
                            x       y       z     vdW  Elec       q    Type
                         _______ _______ _______ _____ _____    ______ ____

>  <TORSDO>
F 1

$$$$
=
 OpenBabel11072413173D

 27 30  0  0  1  0  0  0  0  0999 V2000
  160.2990  213.3200  142.9210 C   0  0  2  0  0  3  0  0  0  0  0  0
  161.5960  212.7530  142.3570 C   0  0  0  0  0  2  0  0  0  0  0  0
  159.8300  212.5030  143.9480 O   0  0  0  0  0  1  0  0  0  0  0  0
  157.3470  214.1600  139.5180 C   0  0  0  0  0  3  0  0  0  0  0  0
  158.6660  214.1650  138.7850 C   0  0  0  0  0  2  0  0  0  0  0  0
  161.6430  213.1040  140.8720 C   0  0  2  0  0  0  0  0  0  0  0  0
  160.2010  213.5370  140.5670 C   0  0  2  0  0  3  0  0  0  0  0  0
  157.2010  214.2800  140.8520 C   0  0  0  0  0  3  0  0  0  0  0  0
  163.7190  214.4530  140.1230 C   0  0  0  0  0  3  0  0  0  0  0  0
  163.5650  212.7640  138.3440 C   0  0  0  0  0  0  0  0  0  0  0  0
  162.4740  212.0730  138.6810 C   0  0  0  0  0  3  0  0  0  0  0  0
  164.4410  213.3480  139.4120 C   0  0  1  0  0  3  0  0  0  0  0  0
  162.1140  211.8420  140.1210 C   0  0  0  0  0  2  0  0  0  0  0  0
  159.3270  213.3100  141.7670 C   0  0  2  0  0  3  0  0  0  0  0  0
  159.5490  213.1340  139.3200 N   0  0  0  0  0  0  0  0  0  0  0  0
  158.3230  214.4530  141.8460 C   0  0  0  0  0  2  0  0  0  0  0  0
  165.6170  213.8500  138.8540 O   0  0  0  0  0  1  0  0  0  0  0  0
  163.8570  212.9490  137.0290 F   0  0  0  0  0  0  0  0  0  0  0  0
  162.5270  214.3320  140.7340 C   0  0  0  0  0  3  0  0  0  0  0  0
  157.6300  209.3180  138.1070 C   0  0  0  0  0  0  0  0  0  0  0  0
  156.4260  208.7110  137.9740 F   0  0  0  0  0  0  0  0  0  0  0  0
  159.3070  211.7600  138.9530 C   0  0  0  0  0  0  0  0  0  0  0  0
  158.3750  209.5200  137.0210 C   0  0  0  0  0  3  0  0  0  0  0  0
  160.0930  211.1530  137.8480 C   0  0  0  0  0  3  0  0  0  0  0  0
  158.1430  209.6050  139.4790 C   0  0  0  0  0  2  0  0  0  0  0  0
  158.4170  211.0600  139.6690 C   0  0  0  0  0  3  0  0  0  0  0  0
  159.6910  210.1880  137.0110 C   0  0  0  0  0  3  0  0  0  0  0  0
  1  3  1  1  0  0  0
  2  1  1  0  0  0  0
  4  8  2  0  0  0  0
  5 15  1  0  0  0  0
  5  4  1  0  0  0  0
  6 13  1  6  0  0  0
  6  2  1  0  0  0  0
  7 15  1  6  0  0  0
  7  6  1  0  0  0  0
  7 14  1  0  0  0  0
  8 16  1  0  0  0  0
  9 19  2  0  0  0  0
 10 11  2  0  0  0  0
 10 12  1  0  0  0  0
 11 13  1  0  0  0  0
 12 17  1  6  0  0  0
 12  9  1  0  0  0  0
 14 16  1  1  0  0  0
 14  1  1  0  0  0  0
 18 10  1  0  0  0  0
 19  6  1  0  0  0  0
 20 25  1  0  0  0  0
 21 20  1  0  0  0  0
 22 15  1  0  0  0  0
 22 26  2  0  0  0  0
 23 20  2  0  0  0  0
 24 22  1  0  0  0  0
 25 26  1  0  0  0  0
 27 23  1  0  0  0  0
 27 24  2  0  0  0  0
M  END
>  <MODEL>
6

>  <REMARK>
 VINA RESULT:      -1.9     12.302     14.990
  Name = 
  1 active torsions:
  status: ('A' for Active; 'I' for Inactive)
    1  A    between atoms: C_7  and  N_21
                            x       y       z     vdW  Elec       q    Type
                         _______ _______ _______ _____ _____    ______ ____

>  <TORSDO>
F 1

$$$$
