=
 OpenBabel11072414243D

 26 28  0  0  1  0  0  0  0  0999 V2000
  162.0060  206.8800  147.6340 C   0  0  0  0  0  3  0  0  0  0  0  0
  162.1170  208.1840  149.6330 N   0  0  0  0  0  0  0  0  0  0  0  0
  161.1680  205.9970  149.7200 C   0  0  0  0  0  3  0  0  0  0  0  0
  161.4100  205.8410  148.3510 C   0  0  0  0  0  0  0  0  0  0  0  0
  161.5320  207.1910  150.3600 C   0  0  0  0  0  0  0  0  0  0  0  0
  162.3580  208.0560  148.3000 C   0  0  0  0  0  3  0  0  0  0  0  0
  161.0580  206.4440  154.0390 C   0  0  0  0  0  3  0  0  0  0  0  0
  161.0460  208.6560  152.3350 C   0  0  0  0  0  3  0  0  0  0  0  0
  160.8130  208.8340  153.7030 C   0  0  0  0  0  0  0  0  0  0  0  0
  160.6020  207.8660  155.8880 F   0  0  0  0  0  0  0  0  0  0  0  0
  160.8210  207.7200  154.5560 C   0  0  0  0  0  0  0  0  0  0  0  0
  161.2840  207.3780  151.8050 C   0  0  0  0  0  0  0  0  0  0  0  0
  161.2880  206.2750  152.6710 C   0  0  0  0  0  3  0  0  0  0  0  0
  159.2860  210.4460  155.1870 O   0  0  0  0  0  0  0  0  0  0  0  0
  161.6960  210.8760  155.1720 O   0  0  0  0  0  0  0  0  0  0  0  0
  160.5240  210.4490  154.3330 S   0  0  0  0  0  0  0  0  0  0  0  0
  158.8340  211.6450  152.5900 C   0  0  0  0  0  1  0  0  0  0  0  0
  160.2980  211.5800  152.9770 C   0  0  0  0  0  2  0  0  0  0  0  0
  161.0150  204.5870  147.6340 C   0  0  1  0  0  3  0  0  0  0  0  0
  161.8320  204.3720  146.5220 O   0  0  0  0  0  1  0  0  0  0  0  0
  160.8800  203.5490  149.9340 C   0  0  0  0  0  3  0  0  0  0  0  0
  161.0280  203.3990  148.5470 C   0  0  0  0  0  0  0  0  0  0  0  0
  160.8740  202.4250  150.7660 C   0  0  0  0  0  3  0  0  0  0  0  0
  161.1580  202.1170  148.0000 C   0  0  0  0  0  3  0  0  0  0  0  0
  161.1520  200.9940  148.8320 C   0  0  0  0  0  3  0  0  0  0  0  0
  161.0100  201.1470  150.2140 C   0  0  0  0  0  3  0  0  0  0  0  0
  1  6  2  0  0  0  0
  1  4  1  0  0  0  0
  2  5  2  0  0  0  0
  3  5  1  0  0  0  0
  4  3  2  0  0  0  0
  5 12  1  0  0  0  0
  6  2  1  0  0  0  0
  7 11  1  0  0  0  0
  8  9  1  0  0  0  0
  9 16  1  0  0  0  0
  9 11  2  0  0  0  0
 11 10  1  0  0  0  0
 12  8  2  0  0  0  0
 12 13  1  0  0  0  0
 13  7  2  0  0  0  0
 16 15  2  0  0  0  0
 16 14  2  0  0  0  0
 17 18  1  0  0  0  0
 18 16  1  0  0  0  0
 19 20  1  6  0  0  0
 19  4  1  0  0  0  0
 19 22  1  0  0  0  0
 21 23  1  0  0  0  0
 22 21  2  0  0  0  0
 24 22  1  0  0  0  0
 24 25  2  0  0  0  0
 25 26  1  0  0  0  0
 26 23  2  0  0  0  0
M  END
>  <MODEL>
1

>  <REMARK>
 VINA RESULT:      -9.9      0.000      0.000
  Name = 
  5 active torsions:
  status: ('A' for Active; 'I' for Inactive)
    1  A    between atoms: C_5  and  C_8
    2  A    between atoms: C_8  and  C_16
    3  A    between atoms: C_12  and  S_25
    4  A    between atoms: C_18  and  C_20
    5  A    between atoms: C_24  and  S_25
                            x       y       z     vdW  Elec       q    Type
                         _______ _______ _______ _____ _____    ______ ____

>  <TORSDO>
F 5

$$$$
=
 OpenBabel11072414243D

 26 28  0  0  1  0  0  0  0  0999 V2000
  161.4820  206.9990  153.2980 C   0  0  0  0  0  3  0  0  0  0  0  0
  161.0940  204.7960  152.4590 N   0  0  0  0  0  0  0  0  0  0  0  0
  161.6410  206.5450  150.9310 C   0  0  0  0  0  3  0  0  0  0  0  0
  161.7250  207.4460  151.9980 C   0  0  0  0  0  0  0  0  0  0  0  0
  161.3200  205.2020  151.1770 C   0  0  0  0  0  0  0  0  0  0  0  0
  161.1660  205.6560  153.5110 C   0  0  0  0  0  3  0  0  0  0  0  0
  160.7400  201.9860  149.2700 C   0  0  0  0  0  3  0  0  0  0  0  0
  161.5160  204.6170  148.7470 C   0  0  0  0  0  3  0  0  0  0  0  0
  161.4230  203.7000  147.6950 C   0  0  0  0  0  0  0  0  0  0  0  0
  160.9310  201.4710  146.9580 F   0  0  0  0  0  0  0  0  0  0  0  0
  161.0320  202.3790  147.9610 C   0  0  0  0  0  0  0  0  0  0  0  0
  161.2250  204.2330  150.0650 C   0  0  0  0  0  0  0  0  0  0  0  0
  160.8360  202.9080  150.3160 C   0  0  0  0  0  3  0  0  0  0  0  0
  163.2340  203.9370  145.7470 O   0  0  0  0  0  0  0  0  0  0  0  0
  160.9250  203.4590  145.0880 O   0  0  0  0  0  0  0  0  0  0  0  0
  161.7900  204.2170  146.0560 S   0  0  0  0  0  0  0  0  0  0  0  0
  160.1480  206.2080  145.2400 C   0  0  0  0  0  1  0  0  0  0  0  0
  161.4870  205.9660  145.9070 C   0  0  0  0  0  2  0  0  0  0  0  0
  162.0450  208.8910  151.7660 C   0  0  1  0  0  3  0  0  0  0  0  0
  161.8020  209.2460  150.4370 O   0  0  0  0  0  1  0  0  0  0  0  0
  161.8830  210.2510  153.8890 C   0  0  0  0  0  3  0  0  0  0  0  0
  161.2930  209.7830  152.7050 C   0  0  0  0  0  0  0  0  0  0  0  0
  161.1690  211.1020  154.7400 C   0  0  0  0  0  3  0  0  0  0  0  0
  159.9920  210.1810  152.3760 C   0  0  0  0  0  3  0  0  0  0  0  0
  159.2790  211.0300  153.2280 C   0  0  0  0  0  3  0  0  0  0  0  0
  159.8680  211.4900  154.4100 C   0  0  0  0  0  3  0  0  0  0  0  0
  1  6  1  0  0  0  0
  2  6  2  0  0  0  0
  3  5  2  0  0  0  0
  3  4  1  0  0  0  0
  4  1  2  0  0  0  0
  5  2  1  0  0  0  0
  7 13  1  0  0  0  0
  8 12  1  0  0  0  0
  9 11  1  0  0  0  0
  9  8  2  0  0  0  0
 10 11  1  0  0  0  0
 11  7  2  0  0  0  0
 12 13  2  0  0  0  0
 12  5  1  0  0  0  0
 14 16  2  0  0  0  0
 15 16  2  0  0  0  0
 16  9  1  0  0  0  0
 17 18  1  0  0  0  0
 18 16  1  0  0  0  0
 19 20  1  6  0  0  0
 19  4  1  0  0  0  0
 19 22  1  0  0  0  0
 21 23  1  0  0  0  0
 22 21  2  0  0  0  0
 24 22  1  0  0  0  0
 24 25  2  0  0  0  0
 25 26  1  0  0  0  0
 26 23  2  0  0  0  0
M  END
>  <MODEL>
2

>  <REMARK>
 VINA RESULT:      -9.7      3.633      8.016
  Name = 
  5 active torsions:
  status: ('A' for Active; 'I' for Inactive)
    1  A    between atoms: C_5  and  C_8
    2  A    between atoms: C_8  and  C_16
    3  A    between atoms: C_12  and  S_25
    4  A    between atoms: C_18  and  C_20
    5  A    between atoms: C_24  and  S_25
                            x       y       z     vdW  Elec       q    Type
                         _______ _______ _______ _____ _____    ______ ____

>  <TORSDO>
F 5

$$$$
=
 OpenBabel11072414243D

 26 28  0  0  1  0  0  0  0  0999 V2000
  161.1650  207.8370  154.0750 C   0  0  0  0  0  3  0  0  0  0  0  0
  160.8940  205.6860  153.0700 N   0  0  0  0  0  0  0  0  0  0  0  0
  161.4260  207.5580  151.6900 C   0  0  0  0  0  3  0  0  0  0  0  0
  161.4370  208.3840  152.8190 C   0  0  0  0  0  0  0  0  0  0  0  0
  161.1490  206.1900  151.8290 C   0  0  0  0  0  0  0  0  0  0  0  0
  160.8950  206.4710  154.1810 C   0  0  0  0  0  3  0  0  0  0  0  0
  160.7010  203.1160  149.6700 C   0  0  0  0  0  3  0  0  0  0  0  0
  161.5140  205.7710  149.3840 C   0  0  0  0  0  3  0  0  0  0  0  0
  161.4940  204.9290  148.2680 C   0  0  0  0  0  0  0  0  0  0  0  0
  161.0530  202.7580  147.3480 F   0  0  0  0  0  0  0  0  0  0  0  0
  161.0840  203.5950  148.4150 C   0  0  0  0  0  0  0  0  0  0  0  0
  161.1310  205.3000  150.6500 C   0  0  0  0  0  0  0  0  0  0  0  0
  160.7240  203.9640  150.7810 C   0  0  0  0  0  3  0  0  0  0  0  0
  162.4840  206.9610  146.8470 O   0  0  0  0  0  0  0  0  0  0  0  0
  163.0710  204.6950  146.1310 O   0  0  0  0  0  0  0  0  0  0  0  0
  161.9750  205.5550  146.6980 S   0  0  0  0  0  0  0  0  0  0  0  0
  160.7480  204.5020  144.5280 C   0  0  0  0  0  1  0  0  0  0  0  0
  160.5690  205.5520  145.6060 C   0  0  0  0  0  2  0  0  0  0  0  0
  161.7090  209.8520  152.7010 C   0  0  1  0  0  3  0  0  0  0  0  0
  161.8700  210.2210  151.3630 O   0  0  0  0  0  1  0  0  0  0  0  0
  159.3770  210.8220  152.7620 C   0  0  0  0  0  3  0  0  0  0  0  0
  160.6380  210.6680  153.3570 C   0  0  0  0  0  0  0  0  0  0  0  0
  158.3840  211.5710  153.4030 C   0  0  0  0  0  3  0  0  0  0  0  0
  160.8920  211.2580  154.6000 C   0  0  0  0  0  3  0  0  0  0  0  0
  159.9000  212.0070  155.2400 C   0  0  0  0  0  3  0  0  0  0  0  0
  158.6460  212.1630  154.6410 C   0  0  0  0  0  3  0  0  0  0  0  0
  1  6  1  0  0  0  0
  2  6  2  0  0  0  0
  3  5  2  0  0  0  0
  3  4  1  0  0  0  0
  4  1  2  0  0  0  0
  5  2  1  0  0  0  0
  7 13  1  0  0  0  0
  8 12  1  0  0  0  0
  9 11  1  0  0  0  0
  9  8  2  0  0  0  0
 10 11  1  0  0  0  0
 11  7  2  0  0  0  0
 12 13  2  0  0  0  0
 12  5  1  0  0  0  0
 15 16  2  0  0  0  0
 16 14  2  0  0  0  0
 16  9  1  0  0  0  0
 17 18  1  0  0  0  0
 18 16  1  0  0  0  0
 19 20  1  6  0  0  0
 19  4  1  0  0  0  0
 19 22  1  0  0  0  0
 21 22  2  0  0  0  0
 21 23  1  0  0  0  0
 22 24  1  0  0  0  0
 23 26  2  0  0  0  0
 24 25  2  0  0  0  0
 26 25  1  0  0  0  0
M  END
>  <MODEL>
3

>  <REMARK>
 VINA RESULT:      -9.3      3.256      8.071
  Name = 
  5 active torsions:
  status: ('A' for Active; 'I' for Inactive)
    1  A    between atoms: C_5  and  C_8
    2  A    between atoms: C_8  and  C_16
    3  A    between atoms: C_12  and  S_25
    4  A    between atoms: C_18  and  C_20
    5  A    between atoms: C_24  and  S_25
                            x       y       z     vdW  Elec       q    Type
                         _______ _______ _______ _____ _____    ______ ____

>  <TORSDO>
F 5

$$$$
=
 OpenBabel11072414243D

 26 28  0  0  1  0  0  0  0  0999 V2000
  160.9620  202.3760  150.7600 C   0  0  0  0  0  3  0  0  0  0  0  0
  160.9660  204.2960  152.1810 N   0  0  0  0  0  0  0  0  0  0  0  0
  161.2440  204.5870  149.8290 C   0  0  0  0  0  3  0  0  0  0  0  0
  161.1450  203.2020  149.6500 C   0  0  0  0  0  0  0  0  0  0  0  0
  161.1510  205.1310  151.1180 C   0  0  0  0  0  0  0  0  0  0  0  0
  160.8720  202.9470  152.0300 C   0  0  0  0  0  3  0  0  0  0  0  0
  161.5850  208.8270  150.4390 C   0  0  0  0  0  3  0  0  0  0  0  0
  161.1170  207.1410  152.6150 C   0  0  0  0  0  3  0  0  0  0  0  0
  161.2120  208.5220  152.8160 C   0  0  0  0  0  0  0  0  0  0  0  0
  161.5400  210.7100  151.8880 F   0  0  0  0  0  0  0  0  0  0  0  0
  161.4460  209.3670  151.7210 C   0  0  0  0  0  0  0  0  0  0  0  0
  161.2540  206.5890  151.3320 C   0  0  0  0  0  0  0  0  0  0  0  0
  161.4890  207.4460  150.2460 C   0  0  0  0  0  3  0  0  0  0  0  0
  162.1090  210.1920  154.6970 O   0  0  0  0  0  0  0  0  0  0  0  0
  159.6900  209.8510  154.5550 O   0  0  0  0  0  0  0  0  0  0  0  0
  161.0290  209.1790  154.4360 S   0  0  0  0  0  0  0  0  0  0  0  0
  159.7810  207.4190  156.0690 C   0  0  0  0  0  1  0  0  0  0  0  0
  161.1610  207.8610  155.6260 C   0  0  0  0  0  2  0  0  0  0  0  0
  161.2610  202.5890  148.2880 C   0  0  1  0  0  3  0  0  0  0  0  0
  160.1460  201.7970  148.0040 O   0  0  0  0  0  1  0  0  0  0  0  0
  162.0740  204.8560  147.5240 C   0  0  0  0  0  3  0  0  0  0  0  0
  161.4640  203.6270  147.2280 C   0  0  0  0  0  0  0  0  0  0  0  0
  162.2740  205.8030  146.5140 C   0  0  0  0  0  3  0  0  0  0  0  0
  161.0680  203.3510  145.9150 C   0  0  0  0  0  3  0  0  0  0  0  0
  161.2680  204.2980  144.9050 C   0  0  0  0  0  3  0  0  0  0  0  0
  161.8700  205.5230  145.2050 C   0  0  0  0  0  3  0  0  0  0  0  0
  1  6  1  0  0  0  0
  3  5  2  0  0  0  0
  4  3  1  0  0  0  0
  4  1  2  0  0  0  0
  5 12  1  0  0  0  0
  5  2  1  0  0  0  0
  6  2  2  0  0  0  0
  7 11  1  0  0  0  0
  8  9  1  0  0  0  0
  9 16  1  0  0  0  0
 11 10  1  0  0  0  0
 11  9  2  0  0  0  0
 12  8  2  0  0  0  0
 13  7  2  0  0  0  0
 13 12  1  0  0  0  0
 16 15  2  0  0  0  0
 16 14  2  0  0  0  0
 16 18  1  0  0  0  0
 18 17  1  0  0  0  0
 19 20  1  6  0  0  0
 19  4  1  0  0  0  0
 22 21  1  0  0  0  0
 22 19  1  0  0  0  0
 23 21  2  0  0  0  0
 24 22  2  0  0  0  0
 25 26  2  0  0  0  0
 25 24  1  0  0  0  0
 26 23  1  0  0  0  0
M  END
>  <MODEL>
4

>  <REMARK>
 VINA RESULT:      -9.3      2.050      3.835
  Name = 
  5 active torsions:
  status: ('A' for Active; 'I' for Inactive)
    1  A    between atoms: C_5  and  C_8
    2  A    between atoms: C_8  and  C_16
    3  A    between atoms: C_12  and  S_25
    4  A    between atoms: C_18  and  C_20
    5  A    between atoms: C_24  and  S_25
                            x       y       z     vdW  Elec       q    Type
                         _______ _______ _______ _____ _____    ______ ____

>  <TORSDO>
F 5

$$$$
=
 OpenBabel11072414243D

 26 28  0  0  1  0  0  0  0  0999 V2000
  160.9060  202.4660  150.7340 C   0  0  0  0  0  3  0  0  0  0  0  0
  160.9920  204.5150  151.9590 N   0  0  0  0  0  0  0  0  0  0  0  0
  161.2940  204.5590  149.5930 C   0  0  0  0  0  3  0  0  0  0  0  0
  161.1320  203.1700  149.5500 C   0  0  0  0  0  0  0  0  0  0  0  0
  161.2210  205.2310  150.8220 C   0  0  0  0  0  0  0  0  0  0  0  0
  160.8360  203.1630  151.9410 C   0  0  0  0  0  3  0  0  0  0  0  0
  162.0070  208.7970  149.8300 C   0  0  0  0  0  3  0  0  0  0  0  0
  161.0970  207.4010  152.0700 C   0  0  0  0  0  3  0  0  0  0  0  0
  161.2550  208.7890  152.1360 C   0  0  0  0  0  0  0  0  0  0  0  0
  161.8720  210.8340  151.0440 F   0  0  0  0  0  0  0  0  0  0  0  0
  161.7120  209.4880  151.0080 C   0  0  0  0  0  0  0  0  0  0  0  0
  161.3900  206.6980  150.8920 C   0  0  0  0  0  0  0  0  0  0  0  0
  161.8470  207.4090  149.7730 C   0  0  0  0  0  3  0  0  0  0  0  0
  160.4850  208.6490  154.6890 O   0  0  0  0  0  0  0  0  0  0  0  0
  162.0790  210.4060  154.0890 O   0  0  0  0  0  0  0  0  0  0  0  0
  160.8720  209.6390  153.6260 S   0  0  0  0  0  0  0  0  0  0  0  0
  159.8710  212.1460  153.8130 C   0  0  0  0  0  1  0  0  0  0  0  0
  159.5130  210.7520  153.3380 C   0  0  0  0  0  2  0  0  0  0  0  0
  161.2260  202.4210  148.2560 C   0  0  1  0  0  3  0  0  0  0  0  0
  160.0940  201.6260  148.0600 O   0  0  0  0  0  1  0  0  0  0  0  0
  162.3810  204.3830  147.1610 C   0  0  0  0  0  3  0  0  0  0  0  0
  161.4410  203.3430  147.0960 C   0  0  0  0  0  0  0  0  0  0  0  0
  162.5810  205.2190  146.0580 C   0  0  0  0  0  3  0  0  0  0  0  0
  160.7140  203.1410  145.9170 C   0  0  0  0  0  3  0  0  0  0  0  0
  160.9150  203.9770  144.8150 C   0  0  0  0  0  3  0  0  0  0  0  0
  161.8480  205.0160  144.8850 C   0  0  0  0  0  3  0  0  0  0  0  0
  1  6  1  0  0  0  0
  3  5  2  0  0  0  0
  4  3  1  0  0  0  0
  4  1  2  0  0  0  0
  5 12  1  0  0  0  0
  5  2  1  0  0  0  0
  6  2  2  0  0  0  0
  7 11  1  0  0  0  0
  8  9  1  0  0  0  0
  9 16  1  0  0  0  0
 11 10  1  0  0  0  0
 11  9  2  0  0  0  0
 12  8  2  0  0  0  0
 13  7  2  0  0  0  0
 13 12  1  0  0  0  0
 16 15  2  0  0  0  0
 16 14  2  0  0  0  0
 18 16  1  0  0  0  0
 18 17  1  0  0  0  0
 19 20  1  6  0  0  0
 19  4  1  0  0  0  0
 22 21  1  0  0  0  0
 22 19  1  0  0  0  0
 23 21  2  0  0  0  0
 24 22  2  0  0  0  0
 25 26  2  0  0  0  0
 25 24  1  0  0  0  0
 26 23  1  0  0  0  0
M  END
>  <MODEL>
5

>  <REMARK>
 VINA RESULT:      -9.2      2.161      3.646
  Name = 
  5 active torsions:
  status: ('A' for Active; 'I' for Inactive)
    1  A    between atoms: C_5  and  C_8
    2  A    between atoms: C_8  and  C_16
    3  A    between atoms: C_12  and  S_25
    4  A    between atoms: C_18  and  C_20
    5  A    between atoms: C_24  and  S_25
                            x       y       z     vdW  Elec       q    Type
                         _______ _______ _______ _____ _____    ______ ____

>  <TORSDO>
F 5

$$$$
=
 OpenBabel11072414243D

 26 28  0  0  1  0  0  0  0  0999 V2000
  161.2300  205.0690  149.3620 C   0  0  0  0  0  3  0  0  0  0  0  0
  160.9110  205.0580  151.7300 N   0  0  0  0  0  0  0  0  0  0  0  0
  161.2050  207.1410  150.6030 C   0  0  0  0  0  3  0  0  0  0  0  0
  161.3180  206.4620  149.3840 C   0  0  0  0  0  0  0  0  0  0  0  0
  160.9980  206.4180  151.7870 C   0  0  0  0  0  0  0  0  0  0  0  0
  161.0230  204.3780  150.5570 C   0  0  0  0  0  3  0  0  0  0  0  0
  160.7400  207.0290  155.5120 C   0  0  0  0  0  3  0  0  0  0  0  0
  160.7910  208.5130  153.1480 C   0  0  0  0  0  3  0  0  0  0  0  0
  160.6780  209.1710  154.3760 C   0  0  0  0  0  0  0  0  0  0  0  0
  160.5490  209.0360  156.7680 F   0  0  0  0  0  0  0  0  0  0  0  0
  160.6540  208.4230  155.5630 C   0  0  0  0  0  0  0  0  0  0  0  0
  160.8770  207.1140  153.0850 C   0  0  0  0  0  0  0  0  0  0  0  0
  160.8510  206.3780  154.2790 C   0  0  0  0  0  3  0  0  0  0  0  0
  161.6210  211.4720  155.3520 O   0  0  0  0  0  0  0  0  0  0  0  0
  160.8210  211.4730  153.0390 O   0  0  0  0  0  0  0  0  0  0  0  0
  160.5780  210.9250  154.4170 S   0  0  0  0  0  0  0  0  0  0  0  0
  158.0210  211.5800  153.8170 C   0  0  0  0  0  1  0  0  0  0  0  0
  158.9640  211.4110  154.9920 C   0  0  0  0  0  2  0  0  0  0  0  0
  161.5590  207.2040  148.1060 C   0  0  1  0  0  3  0  0  0  0  0  0
  162.7570  207.9210  148.1670 O   0  0  0  0  0  1  0  0  0  0  0  0
  160.4770  206.3020  146.0090 C   0  0  0  0  0  3  0  0  0  0  0  0
  161.5430  206.2880  146.9220 C   0  0  0  0  0  0  0  0  0  0  0  0
  160.4930  205.4530  144.8970 C   0  0  0  0  0  3  0  0  0  0  0  0
  162.6250  205.4270  146.7070 C   0  0  0  0  0  3  0  0  0  0  0  0
  162.6400  204.5790  145.5960 C   0  0  0  0  0  3  0  0  0  0  0  0
  161.5740  204.5910  144.6920 C   0  0  0  0  0  3  0  0  0  0  0  0
  1  4  2  0  0  0  0
  1  6  1  0  0  0  0
  2  5  1  0  0  0  0
  3  5  2  0  0  0  0
  4  3  1  0  0  0  0
  5 12  1  0  0  0  0
  6  2  2  0  0  0  0
  7 11  1  0  0  0  0
  8  9  1  0  0  0  0
  9 16  1  0  0  0  0
  9 11  2  0  0  0  0
 11 10  1  0  0  0  0
 12  8  2  0  0  0  0
 12 13  1  0  0  0  0
 13  7  2  0  0  0  0
 15 16  2  0  0  0  0
 16 18  1  0  0  0  0
 16 14  2  0  0  0  0
 17 18  1  0  0  0  0
 19 20  1  1  0  0  0
 19  4  1  0  0  0  0
 21 22  1  0  0  0  0
 22 19  1  0  0  0  0
 23 21  2  0  0  0  0
 24 22  2  0  0  0  0
 25 24  1  0  0  0  0
 26 23  1  0  0  0  0
 26 25  2  0  0  0  0
M  END
>  <MODEL>
6

>  <REMARK>
 VINA RESULT:      -9.1      2.009      3.203
  Name = 
  5 active torsions:
  status: ('A' for Active; 'I' for Inactive)
    1  A    between atoms: C_5  and  C_8
    2  A    between atoms: C_8  and  C_16
    3  A    between atoms: C_12  and  S_25
    4  A    between atoms: C_18  and  C_20
    5  A    between atoms: C_24  and  S_25
                            x       y       z     vdW  Elec       q    Type
                         _______ _______ _______ _____ _____    ______ ____

>  <TORSDO>
F 5

$$$$
=
 OpenBabel11072414243D

 26 28  0  0  1  0  0  0  0  0999 V2000
  161.7790  209.9530  152.1660 C   0  0  0  0  0  3  0  0  0  0  0  0
  162.1490  208.4460  150.3490 N   0  0  0  0  0  0  0  0  0  0  0  0
  160.8670  207.7180  152.2250 C   0  0  0  0  0  3  0  0  0  0  0  0
  161.0370  208.9710  152.8240 C   0  0  0  0  0  0  0  0  0  0  0  0
  161.4350  207.4630  150.9690 C   0  0  0  0  0  0  0  0  0  0  0  0
  162.3310  209.6700  150.9150 C   0  0  0  0  0  3  0  0  0  0  0  0
  160.6710  203.7930  150.4540 C   0  0  0  0  0  3  0  0  0  0  0  0
  161.5400  205.9790  148.9510 C   0  0  0  0  0  3  0  0  0  0  0  0
  161.3820  204.7340  148.3350 C   0  0  0  0  0  0  0  0  0  0  0  0
  160.7780  202.4190  148.5190 F   0  0  0  0  0  0  0  0  0  0  0  0
  160.9430  203.6380  149.0930 C   0  0  0  0  0  0  0  0  0  0  0  0
  161.2690  206.1460  150.3180 C   0  0  0  0  0  0  0  0  0  0  0  0
  160.8320  205.0410  151.0630 C   0  0  0  0  0  3  0  0  0  0  0  0
  163.2030  204.7030  146.3810 O   0  0  0  0  0  0  0  0  0  0  0  0
  161.2820  203.2030  146.1550 O   0  0  0  0  0  0  0  0  0  0  0  0
  161.7250  204.5620  146.6200 S   0  0  0  0  0  0  0  0  0  0  0  0
  161.2060  205.7450  144.2420 C   0  0  0  0  0  1  0  0  0  0  0  0
  160.8610  205.8290  145.7150 C   0  0  0  0  0  2  0  0  0  0  0  0
  160.4610  209.2670  154.1740 C   0  0  1  0  0  3  0  0  0  0  0  0
  161.4220  209.0950  155.1740 O   0  0  0  0  0  1  0  0  0  0  0  0
  158.8910  211.0480  153.3110 C   0  0  0  0  0  3  0  0  0  0  0  0
  159.8660  210.6400  154.2340 C   0  0  0  0  0  0  0  0  0  0  0  0
  158.3320  212.3280  153.3990 C   0  0  0  0  0  3  0  0  0  0  0  0
  160.2670  211.5160  155.2480 C   0  0  0  0  0  3  0  0  0  0  0  0
  159.7090  212.7950  155.3350 C   0  0  0  0  0  3  0  0  0  0  0  0
  158.7420  213.2010  154.4100 C   0  0  0  0  0  3  0  0  0  0  0  0
  1  4  1  0  0  0  0
  2  6  1  0  0  0  0
  2  5  2  0  0  0  0
  3  4  2  0  0  0  0
  4 19  1  0  0  0  0
  5  3  1  0  0  0  0
  6  1  2  0  0  0  0
  7 13  1  0  0  0  0
  8 12  1  0  0  0  0
  9  8  2  0  0  0  0
  9 11  1  0  0  0  0
 10 11  1  0  0  0  0
 11  7  2  0  0  0  0
 12  5  1  0  0  0  0
 12 13  2  0  0  0  0
 14 16  2  0  0  0  0
 15 16  2  0  0  0  0
 16  9  1  0  0  0  0
 17 18  1  0  0  0  0
 18 16  1  0  0  0  0
 19 22  1  0  0  0  0
 19 20  1  1  0  0  0
 21 23  2  0  0  0  0
 21 22  1  0  0  0  0
 22 24  2  0  0  0  0
 23 26  1  0  0  0  0
 24 25  1  0  0  0  0
 26 25  2  0  0  0  0
M  END
>  <MODEL>
7

>  <REMARK>
 VINA RESULT:      -9.0      3.053      8.288
  Name = 
  5 active torsions:
  status: ('A' for Active; 'I' for Inactive)
    1  A    between atoms: C_5  and  C_8
    2  A    between atoms: C_8  and  C_16
    3  A    between atoms: C_12  and  S_25
    4  A    between atoms: C_18  and  C_20
    5  A    between atoms: C_24  and  S_25
                            x       y       z     vdW  Elec       q    Type
                         _______ _______ _______ _____ _____    ______ ____

>  <TORSDO>
F 5

$$$$
=
 OpenBabel11072414243D

 26 28  0  0  1  0  0  0  0  0999 V2000
  161.9970  210.4420  150.2300 C   0  0  0  0  0  3  0  0  0  0  0  0
  161.8980  208.6620  148.6410 N   0  0  0  0  0  0  0  0  0  0  0  0
  161.5460  208.1820  150.9510 C   0  0  0  0  0  3  0  0  0  0  0  0
  161.7240  209.5350  151.2560 C   0  0  0  0  0  0  0  0  0  0  0  0
  161.6370  207.7500  149.6200 C   0  0  0  0  0  0  0  0  0  0  0  0
  162.0790  209.9820  148.9150 C   0  0  0  0  0  3  0  0  0  0  0  0
  160.9590  204.0420  149.9530 C   0  0  0  0  0  3  0  0  0  0  0  0
  161.5910  205.8810  147.9490 C   0  0  0  0  0  3  0  0  0  0  0  0
  161.4160  204.5330  147.6220 C   0  0  0  0  0  0  0  0  0  0  0  0
  160.9200  202.2980  148.3400 F   0  0  0  0  0  0  0  0  0  0  0  0
  161.0980  203.6120  148.6310 C   0  0  0  0  0  0  0  0  0  0  0  0
  161.4540  206.3240  149.2740 C   0  0  0  0  0  0  0  0  0  0  0  0
  161.1360  205.3920  150.2720 C   0  0  0  0  0  3  0  0  0  0  0  0
  163.0250  204.1430  145.5270 O   0  0  0  0  0  0  0  0  0  0  0  0
  161.1690  202.5760  145.8290 O   0  0  0  0  0  0  0  0  0  0  0  0
  161.5890  204.0140  145.9520 S   0  0  0  0  0  0  0  0  0  0  0  0
  161.4140  205.6530  143.8050 C   0  0  0  0  0  1  0  0  0  0  0  0
  160.5740  205.0380  144.9070 C   0  0  0  0  0  2  0  0  0  0  0  0
  161.6540  210.0240  152.6700 C   0  0  1  0  0  3  0  0  0  0  0  0
  160.8780  211.1820  152.7570 O   0  0  0  0  0  1  0  0  0  0  0  0
  161.3340  207.6040  153.3190 C   0  0  0  0  0  3  0  0  0  0  0  0
  161.1440  208.9660  153.5980 C   0  0  0  0  0  0  0  0  0  0  0  0
  160.8680  206.6320  154.2110 C   0  0  0  0  0  3  0  0  0  0  0  0
  160.4960  209.3450  154.7790 C   0  0  0  0  0  3  0  0  0  0  0  0
  160.0310  208.3740  155.6700 C   0  0  0  0  0  3  0  0  0  0  0  0
  160.2160  207.0170  155.3860 C   0  0  0  0  0  3  0  0  0  0  0  0
  1  4  1  0  0  0  0
  2  6  1  0  0  0  0
  2  5  2  0  0  0  0
  3  4  2  0  0  0  0
  4 19  1  0  0  0  0
  5  3  1  0  0  0  0
  6  1  2  0  0  0  0
  7 13  1  0  0  0  0
  8 12  1  0  0  0  0
  9  8  2  0  0  0  0
  9 11  1  0  0  0  0
 10 11  1  0  0  0  0
 11  7  2  0  0  0  0
 12  5  1  0  0  0  0
 12 13  2  0  0  0  0
 14 16  2  0  0  0  0
 15 16  2  0  0  0  0
 16  9  1  0  0  0  0
 17 18  1  0  0  0  0
 18 16  1  0  0  0  0
 19 20  1  6  0  0  0
 19 22  1  0  0  0  0
 21 22  2  0  0  0  0
 21 23  1  0  0  0  0
 22 24  1  0  0  0  0
 23 26  2  0  0  0  0
 24 25  2  0  0  0  0
 26 25  1  0  0  0  0
M  END
>  <MODEL>
8

>  <REMARK>
 VINA RESULT:      -8.9      3.215      7.537
  Name = 
  5 active torsions:
  status: ('A' for Active; 'I' for Inactive)
    1  A    between atoms: C_5  and  C_8
    2  A    between atoms: C_8  and  C_16
    3  A    between atoms: C_12  and  S_25
    4  A    between atoms: C_18  and  C_20
    5  A    between atoms: C_24  and  S_25
                            x       y       z     vdW  Elec       q    Type
                         _______ _______ _______ _____ _____    ______ ____

>  <TORSDO>
F 5

$$$$
=
 OpenBabel11072414243D

 26 28  0  0  1  0  0  0  0  0999 V2000
  161.2100  207.9100  153.8190 C   0  0  0  0  0  3  0  0  0  0  0  0
  161.0120  205.8030  152.7100 N   0  0  0  0  0  0  0  0  0  0  0  0
  161.4150  207.7670  151.4160 C   0  0  0  0  0  3  0  0  0  0  0  0
  161.4200  208.5330  152.5870 C   0  0  0  0  0  0  0  0  0  0  0  0
  161.2070  206.3820  151.4910 C   0  0  0  0  0  0  0  0  0  0  0  0
  161.0080  206.5290  153.8610 C   0  0  0  0  0  3  0  0  0  0  0  0
  161.4350  205.3600  147.8550 C   0  0  0  0  0  3  0  0  0  0  0  0
  160.9470  204.1730  150.3350 C   0  0  0  0  0  3  0  0  0  0  0  0
  160.9390  203.3880  149.1770 C   0  0  0  0  0  0  0  0  0  0  0  0
  161.1860  203.2490  146.7950 F   0  0  0  0  0  0  0  0  0  0  0  0
  161.1850  203.9880  147.9330 C   0  0  0  0  0  0  0  0  0  0  0  0
  161.1970  205.5530  150.2680 C   0  0  0  0  0  0  0  0  0  0  0  0
  161.4410  206.1380  149.0170 C   0  0  0  0  0  3  0  0  0  0  0  0
  160.6630  201.2410  150.7410 O   0  0  0  0  0  0  0  0  0  0  0  0
  159.2710  201.3570  148.7320 O   0  0  0  0  0  0  0  0  0  0  0  0
  160.6290  201.6630  149.2990 S   0  0  0  0  0  0  0  0  0  0  0  0
  161.2920  200.1760  147.1360 C   0  0  0  0  0  1  0  0  0  0  0  0
  161.8810  200.7730  148.3980 C   0  0  0  0  0  2  0  0  0  0  0  0
  161.6180  210.0170  152.5390 C   0  0  1  0  0  3  0  0  0  0  0  0
  161.6750  210.4670  151.2170 O   0  0  0  0  0  1  0  0  0  0  0  0
  160.8210  211.2740  154.5800 C   0  0  0  0  0  3  0  0  0  0  0  0
  160.5580  210.7430  153.3070 C   0  0  0  0  0  0  0  0  0  0  0  0
  159.8220  211.9680  155.2710 C   0  0  0  0  0  3  0  0  0  0  0  0
  159.2960  210.9230  152.7300 C   0  0  0  0  0  3  0  0  0  0  0  0
  158.2990  211.6170  153.4220 C   0  0  0  0  0  3  0  0  0  0  0  0
  158.5620  212.1390  154.6920 C   0  0  0  0  0  3  0  0  0  0  0  0
  1  6  1  0  0  0  0
  2  6  2  0  0  0  0
  3  5  2  0  0  0  0
  3  4  1  0  0  0  0
  4  1  2  0  0  0  0
  5  2  1  0  0  0  0
  7 11  2  0  0  0  0
  7 13  1  0  0  0  0
  9 16  1  0  0  0  0
  9  8  2  0  0  0  0
 10 11  1  0  0  0  0
 11  9  1  0  0  0  0
 12  8  1  0  0  0  0
 12  5  1  0  0  0  0
 13 12  2  0  0  0  0
 15 16  2  0  0  0  0
 16 14  2  0  0  0  0
 17 18  1  0  0  0  0
 18 16  1  0  0  0  0
 19 20  1  6  0  0  0
 19  4  1  0  0  0  0
 19 22  1  0  0  0  0
 21 23  1  0  0  0  0
 22 21  2  0  0  0  0
 24 22  1  0  0  0  0
 24 25  2  0  0  0  0
 25 26  1  0  0  0  0
 26 23  2  0  0  0  0
M  END
>  <MODEL>
9

>  <REMARK>
 VINA RESULT:      -8.7      3.488      8.436
  Name = 
  5 active torsions:
  status: ('A' for Active; 'I' for Inactive)
    1  A    between atoms: C_5  and  C_8
    2  A    between atoms: C_8  and  C_16
    3  A    between atoms: C_12  and  S_25
    4  A    between atoms: C_18  and  C_20
    5  A    between atoms: C_24  and  S_25
                            x       y       z     vdW  Elec       q    Type
                         _______ _______ _______ _____ _____    ______ ____

>  <TORSDO>
F 5

$$$$
