=
 OpenBabel11072409563D

 48 51  0  0  1  0  0  0  0  0999 V2000
  161.4460  208.0420  152.3500 C   0  0  0  0  0  3  0  0  0  0  0  0
  161.1210  211.4070  150.5480 C   0  0  0  0  0  0  0  0  0  0  0  0
  161.6260  209.6250  148.3670 C   0  0  0  0  0  2  0  0  0  0  0  0
  161.2270  209.4120  152.1750 C   0  0  0  0  0  0  0  0  0  0  0  0
  160.5590  212.1890  151.3580 O   0  0  0  0  0  0  0  0  0  0  0  0
  161.6790  209.1080  149.7850 C   0  0  0  0  0  0  0  0  0  0  0  0
  161.9310  207.7360  150.0030 C   0  0  0  0  0  0  0  0  0  0  0  0
  161.8790  211.0960  148.2580 C   0  0  0  0  0  3  0  0  0  0  0  0
  161.5940  211.9400  149.2560 C   0  0  0  0  0  0  0  0  0  0  0  0
  161.7860  207.2010  151.2970 C   0  0  0  0  0  0  0  0  0  0  0  0
  161.3220  209.9600  150.8620 C   0  0  0  0  0  0  0  0  0  0  0  0
  160.8930  210.2340  153.4110 C   0  0  0  0  0  0  0  0  0  0  0  0
  160.5070  209.4120  154.4750 O   0  0  0  0  0  1  0  0  0  0  0  0
  159.8450  211.0950  153.1300 F   0  0  0  0  0  0  0  0  0  0  0  0
  162.0140  210.9650  153.8080 O   0  0  0  0  0  1  0  0  0  0  0  0
  161.3170  206.1070  148.1670 C   0  0  0  0  0  0  0  0  0  0  0  0
  160.0810  206.3060  148.3330 O   0  0  0  0  0  0  0  0  0  0  0  0
  162.2720  206.8790  148.9040 N   0  0  0  0  0  2  0  0  0  0  0  0
  161.8070  205.0810  147.1800 C   0  0  2  0  0  3  0  0  0  0  0  0
  160.6490  206.3620  145.4150 C   0  0  0  0  0  2  0  0  0  0  0  0
  161.5430  205.3640  144.7140 C   0  0  0  0  0  2  0  0  0  0  0  0
  160.8450  204.9800  146.0040 C   0  0  0  0  0  3  0  0  0  0  0  0
  162.0000  203.7090  147.8130 C   0  0  0  0  0  2  0  0  0  0  0  0
  160.9480  203.4360  148.6910 O   0  0  0  0  0  0  0  0  0  0  0  0
  159.1670  201.5230  148.9640 O   0  0  0  0  0  1  0  0  0  0  0  0
  160.5450  201.8130  148.4190 P   0  0  0  0  0  0  0  0  0  0  0  0
  161.6780  200.7970  149.1670 O   0  0  0  0  0  1  0  0  0  0  0  0
  160.5510  201.5120  146.7530 O   0  0  0  0  0  0  0  0  0  0  0  0
  161.7220  213.4270  149.0630 C   0  0  1  0  0  3  0  0  0  0  0  0
  162.9340  213.7910  148.2190 C   0  0  0  0  0  1  0  0  0  0  0  0
  160.4530  214.0220  148.4570 C   0  0  0  0  0  2  0  0  0  0  0  0
  156.9190  213.9280  149.9020 N   0  0  0  0  0  2  0  0  0  0  0  0
  159.3350  213.8650  149.3770 N   0  0  0  0  0  2  0  0  0  0  0  0
  157.9730  213.8440  148.9470 C   0  0  0  0  0  0  0  0  0  0  0  0
  157.6960  213.7750  147.7230 O   0  0  0  0  0  0  0  0  0  0  0  0
  157.1870  214.0840  151.2650 N   0  0  0  0  0  0  0  0  0  0  0  0
  157.9860  214.4530  152.2280 O   0  0  0  0  0  0  0  0  0  0  0  0
  156.8090  213.9700  152.5140 N   0  0  0  0  0  0  0  0  0  0  0  0
  155.8410  213.6040  153.4560 N   0  0  0  0  0  2  0  0  0  0  0  0
  157.8260  212.9490  155.1110 O   0  0  0  0  0  0  0  0  0  0  0  0
  155.5620  213.5970  156.2490 O   0  0  0  0  0  1  0  0  0  0  0  0
  156.3270  212.8330  154.9490 P   0  0  1  0  0  0  0  0  0  0  0  0
  155.8510  211.0850  154.9140 C   0  0  0  0  0  1  0  0  0  0  0  0
  161.1020  204.8730  151.5360 N   0  0  0  0  0  0  0  0  0  0  0  0
  162.0160  205.7860  151.6410 C   0  0  0  0  0  3  0  0  0  0  0  0
  162.5180  202.9720  151.6940 N   0  0  0  0  0  2  0  0  0  0  0  0
  160.2290  202.6500  152.3430 C   0  0  0  0  0  1  0  0  0  0  0  0
  161.3470  203.4990  151.8570 C   0  0  0  0  0  0  0  0  0  0  0  0
  2 11  1  0  0  0  0
  2  5  2  0  0  0  0
  3  6  1  0  0  0  0
  4  1  1  0  0  0  0
  4 12  1  0  0  0  0
  6  7  2  0  0  0  0
  6 11  1  0  0  0  0
  7 10  1  0  0  0  0
  8  3  1  0  0  0  0
  8  9  2  0  0  0  0
  9  2  1  0  0  0  0
 10 45  1  0  0  0  0
 10  1  2  0  0  0  0
 11  4  2  0  0  0  0
 12 15  1  0  0  0  0
 12 13  1  0  0  0  0
 14 12  1  0  0  0  0
 16 17  2  0  0  0  0
 16 18  1  0  0  0  0
 18  7  1  0  0  0  0
 19 23  1  1  0  0  0
 19 16  1  0  0  0  0
 20 22  1  0  0  0  0
 21 20  1  0  0  0  0
 21 22  1  0  0  0  0
 22 19  1  0  0  0  0
 23 24  1  0  0  0  0
 26 24  1  0  0  0  0
 26 25  1  0  0  0  0
 26 27  1  0  0  0  0
 28 26  2  0  0  0  0
 29 30  1  6  0  0  0
 29  9  1  0  0  0  0
 31 29  1  0  0  0  0
 31 33  1  0  0  0  0
 32 36  1  0  0  0  0
 34 33  1  0  0  0  0
 34 32  1  0  0  0  0
 35 34  2  0  0  0  0
 36 37  1  0  0  0  0
 36 38  1  0  0  0  0
 37 38  1  0  0  0  0
 38 39  1  0  0  0  0
 39 42  1  0  0  0  0
 42 43  1  6  0  0  0
 42 40  2  0  0  0  0
 42 41  1  0  0  0  0
 44 45  2  0  0  0  0
 44 48  1  0  0  0  0
 46 48  2  0  0  0  0
 48 47  1  0  0  0  0
M  END
>  <MODEL>
1

>  <REMARK>
 VINA RESULT:      -5.8      0.000      0.000
  Name = 
  15 active torsions:
  status: ('A' for Active; 'I' for Inactive)
    1  A    between atoms: N_5  and  N_15
    2  A    between atoms: N_7  and  C_44
    3  A    between atoms: C_8  and  C_11
    4  A    between atoms: C_8  and  O_18
    5  A    between atoms: C_10  and  C_13
    6  A    between atoms: C_11  and  C_12
    7  A    between atoms: C_11  and  C_34
    8  A    between atoms: C_16  and  C_38
    9  A    between atoms: C_16  and  C_44
   10  A    between atoms: O_18  and  P_41
   11  A    between atoms: N_20  and  C_32
   12  A    between atoms: N_24  and  C_36
   13  A    between atoms: P_30  and  N_48
   14  A    between atoms: N_39  and  N_48
   15  A    between atoms: C_42  and  C_47
                            x       y       z     vdW  Elec       q    Type
                         _______ _______ _______ _____ _____    ______ ____

>  <TORSDO>
F 15

$$$$
=
 OpenBabel11072409563D

 48 51  0  0  1  0  0  0  0  0999 V2000
  161.5770  207.5590  152.4670 C   0  0  0  0  0  3  0  0  0  0  0  0
  161.3590  210.9060  150.6160 C   0  0  0  0  0  0  0  0  0  0  0  0
  161.6290  209.0570  148.4480 C   0  0  0  0  0  2  0  0  0  0  0  0
  161.4340  208.9370  152.2770 C   0  0  0  0  0  0  0  0  0  0  0  0
  160.8930  211.7360  151.4390 O   0  0  0  0  0  0  0  0  0  0  0  0
  161.7300  208.5630  149.8710 C   0  0  0  0  0  0  0  0  0  0  0  0
  161.9090  207.1820  150.1040 C   0  0  0  0  0  0  0  0  0  0  0  0
  161.9650  210.5070  148.2940 C   0  0  0  0  0  3  0  0  0  0  0  0
  161.7910  211.3850  149.2880 C   0  0  0  0  0  0  0  0  0  0  0  0
  161.8040  206.6800  151.4150 C   0  0  0  0  0  0  0  0  0  0  0  0
  161.4870  209.4540  150.9490 C   0  0  0  0  0  0  0  0  0  0  0  0
  161.2210  209.8000  153.5110 C   0  0  0  0  0  0  0  0  0  0  0  0
  159.9940  210.4690  153.4550 O   0  0  0  0  0  1  0  0  0  0  0  0
  162.2250  210.7500  153.5960 F   0  0  0  0  0  0  0  0  0  0  0  0
  161.2310  208.9980  154.6540 O   0  0  0  0  0  1  0  0  0  0  0  0
  161.0910  205.5730  148.3310 C   0  0  0  0  0  0  0  0  0  0  0  0
  159.8820  205.8640  148.5520 O   0  0  0  0  0  0  0  0  0  0  0  0
  162.1330  206.2860  149.0070 N   0  0  0  0  0  2  0  0  0  0  0  0
  161.4570  204.5000  147.3410 C   0  0  2  0  0  3  0  0  0  0  0  0
  160.4510  202.5470  148.4690 C   0  0  0  0  0  2  0  0  0  0  0  0
  161.2220  202.0160  147.2810 C   0  0  0  0  0  2  0  0  0  0  0  0
  161.7600  203.1960  148.0670 C   0  0  0  0  0  3  0  0  0  0  0  0
  162.6400  204.8940  146.4650 C   0  0  0  0  0  2  0  0  0  0  0  0
  162.5280  204.2890  145.2110 O   0  0  0  0  0  0  0  0  0  0  0  0
  161.5600  205.4580  143.0650 O   0  0  0  0  0  0  0  0  0  0  0  0
  161.1990  205.0340  144.4690 P   0  0  0  0  0  0  0  0  0  0  0  0
  160.7140  206.3890  145.3660 O   0  0  0  0  0  1  0  0  0  0  0  0
  159.9160  203.9330  144.3970 O   0  0  0  0  0  1  0  0  0  0  0  0
  161.9990  212.8580  149.0580 C   0  0  1  0  0  3  0  0  0  0  0  0
  163.2690  213.1370  148.2680 C   0  0  0  0  0  1  0  0  0  0  0  0
  160.7930  213.4900  148.3670 C   0  0  0  0  0  2  0  0  0  0  0  0
  157.1950  213.5500  149.6470 N   0  0  0  0  0  2  0  0  0  0  0  0
  159.6350  213.4580  149.2490 N   0  0  0  0  0  2  0  0  0  0  0  0
  158.2960  213.3380  148.7670 C   0  0  0  0  0  0  0  0  0  0  0  0
  158.0780  213.0650  147.5590 O   0  0  0  0  0  0  0  0  0  0  0  0
  157.3950  213.9290  150.9780 N   0  0  0  0  0  0  0  0  0  0  0  0
  158.1470  214.4520  151.9060 O   0  0  0  0  0  0  0  0  0  0  0  0
  156.9520  214.0250  152.2060 N   0  0  0  0  0  0  0  0  0  0  0  0
  155.9350  213.8210  153.1440 N   0  0  0  0  0  2  0  0  0  0  0  0
  155.1830  213.6790  155.6980 O   0  0  0  0  0  1  0  0  0  0  0  0
  156.6430  211.6910  154.8300 O   0  0  0  0  0  0  0  0  0  0  0  0
  156.3400  213.3530  154.7810 P   0  0  1  0  0  0  0  0  0  0  0  0
  157.8180  214.2510  155.3220 C   0  0  0  0  0  1  0  0  0  0  0  0
  161.0670  204.3590  151.5310 N   0  0  0  0  0  0  0  0  0  0  0  0
  161.9650  205.2600  151.7760 C   0  0  0  0  0  3  0  0  0  0  0  0
  162.3940  202.3990  151.7250 N   0  0  0  0  0  2  0  0  0  0  0  0
  160.0880  202.1890  152.3580 C   0  0  0  0  0  1  0  0  0  0  0  0
  161.2470  202.9800  151.8710 C   0  0  0  0  0  0  0  0  0  0  0  0
  2 11  1  0  0  0  0
  2  5  2  0  0  0  0
  3  6  1  0  0  0  0
  4  1  1  0  0  0  0
  4 12  1  0  0  0  0
  6  7  2  0  0  0  0
  6 11  1  0  0  0  0
  7 10  1  0  0  0  0
  8  3  1  0  0  0  0
  8  9  2  0  0  0  0
  9  2  1  0  0  0  0
 10 45  1  0  0  0  0
 10  1  2  0  0  0  0
 11  4  2  0  0  0  0
 12 14  1  0  0  0  0
 12 15  1  0  0  0  0
 13 12  1  0  0  0  0
 16 17  2  0  0  0  0
 16 18  1  0  0  0  0
 18  7  1  0  0  0  0
 19 23  1  1  0  0  0
 19 22  1  0  0  0  0
 19 16  1  0  0  0  0
 21 22  1  0  0  0  0
 21 20  1  0  0  0  0
 22 20  1  0  0  0  0
 24 23  1  0  0  0  0
 25 26  2  0  0  0  0
 26 24  1  0  0  0  0
 26 27  1  0  0  0  0
 28 26  1  0  0  0  0
 29 30  1  6  0  0  0
 29  9  1  0  0  0  0
 31 29  1  0  0  0  0
 31 33  1  0  0  0  0
 32 36  1  0  0  0  0
 34 33  1  0  0  0  0
 34 32  1  0  0  0  0
 35 34  2  0  0  0  0
 36 37  1  0  0  0  0
 36 38  1  0  0  0  0
 37 38  1  0  0  0  0
 38 39  1  0  0  0  0
 39 42  1  0  0  0  0
 42 41  2  0  0  0  0
 42 43  1  1  0  0  0
 42 40  1  0  0  0  0
 44 45  2  0  0  0  0
 44 48  1  0  0  0  0
 46 48  2  0  0  0  0
 48 47  1  0  0  0  0
M  END
>  <MODEL>
2

>  <REMARK>
 VINA RESULT:      -5.7      1.750      2.340
  Name = 
  15 active torsions:
  status: ('A' for Active; 'I' for Inactive)
    1  A    between atoms: N_5  and  N_15
    2  A    between atoms: N_7  and  C_44
    3  A    between atoms: C_8  and  C_11
    4  A    between atoms: C_8  and  O_18
    5  A    between atoms: C_10  and  C_13
    6  A    between atoms: C_11  and  C_12
    7  A    between atoms: C_11  and  C_34
    8  A    between atoms: C_16  and  C_38
    9  A    between atoms: C_16  and  C_44
   10  A    between atoms: O_18  and  P_41
   11  A    between atoms: N_20  and  C_32
   12  A    between atoms: N_24  and  C_36
   13  A    between atoms: P_30  and  N_48
   14  A    between atoms: N_39  and  N_48
   15  A    between atoms: C_42  and  C_47
                            x       y       z     vdW  Elec       q    Type
                         _______ _______ _______ _____ _____    ______ ____

>  <TORSDO>
F 15

$$$$
=
 OpenBabel11072409563D

 48 51  0  0  1  0  0  0  0  0999 V2000
  159.5570  210.3260  155.0580 C   0  0  0  0  0  3  0  0  0  0  0  0
  161.4540  207.6580  153.0680 C   0  0  0  0  0  0  0  0  0  0  0  0
  160.8260  209.5670  151.0310 C   0  0  0  0  0  2  0  0  0  0  0  0
  160.2860  209.1600  154.8070 C   0  0  0  0  0  0  0  0  0  0  0  0
  162.0700  206.9580  153.9140 O   0  0  0  0  0  0  0  0  0  0  0  0
  160.2840  209.7570  152.4280 C   0  0  0  0  0  0  0  0  0  0  0  0
  159.5150  210.9050  152.7130 C   0  0  0  0  0  0  0  0  0  0  0  0
  161.1500  208.1440  150.7050 C   0  0  0  0  0  3  0  0  0  0  0  0
  161.4960  207.2610  151.6480 C   0  0  0  0  0  0  0  0  0  0  0  0
  159.1730  211.1990  154.0470 C   0  0  0  0  0  0  0  0  0  0  0  0
  160.6820  208.8750  153.4670 C   0  0  0  0  0  0  0  0  0  0  0  0
  160.6180  208.2680  155.9940 C   0  0  0  0  0  0  0  0  0  0  0  0
  161.9740  208.3510  156.3240 O   0  0  0  0  0  1  0  0  0  0  0  0
  160.3300  206.9500  155.6820 F   0  0  0  0  0  0  0  0  0  0  0  0
  159.8720  208.6660  157.1050 O   0  0  0  0  0  1  0  0  0  0  0  0
  159.3350  213.2190  151.7050 C   0  0  0  0  0  0  0  0  0  0  0  0
  160.0490  213.7270  152.6140 O   0  0  0  0  0  0  0  0  0  0  0  0
  159.1350  211.8020  151.6590 N   0  0  0  0  0  2  0  0  0  0  0  0
  158.7050  214.0840  150.6460 C   0  0  2  0  0  3  0  0  0  0  0  0
  156.6910  214.4530  149.2650 C   0  0  0  0  0  2  0  0  0  0  0  0
  157.0150  212.9780  149.1800 C   0  0  0  0  0  2  0  0  0  0  0  0
  157.2340  213.7270  150.4800 C   0  0  0  0  0  3  0  0  0  0  0  0
  159.4200  213.9770  149.3050 C   0  0  0  0  0  2  0  0  0  0  0  0
  160.8020  214.0470  149.4940 O   0  0  0  0  0  0  0  0  0  0  0  0
  162.4060  212.1220  148.7000 O   0  0  0  0  0  1  0  0  0  0  0  0
  161.4770  213.1990  148.1920 P   0  0  0  0  0  0  0  0  0  0  0  0
  162.3350  214.2610  147.1850 O   0  0  0  0  0  0  0  0  0  0  0  0
  160.2350  212.4760  147.2980 O   0  0  0  0  0  1  0  0  0  0  0  0
  161.9580  205.8780  151.2730 C   0  0  1  0  0  3  0  0  0  0  0  0
  163.3240  205.5550  151.8590 C   0  0  0  0  0  1  0  0  0  0  0  0
  160.9390  204.8190  151.6850 C   0  0  0  0  0  2  0  0  0  0  0  0
  160.9700  201.5350  149.7340 N   0  0  0  0  0  2  0  0  0  0  0  0
  160.7790  203.8360  150.6220 N   0  0  0  0  0  2  0  0  0  0  0  0
  160.9000  202.4290  150.8410 C   0  0  0  0  0  0  0  0  0  0  0  0
  160.9670  201.9730  152.0100 O   0  0  0  0  0  0  0  0  0  0  0  0
  160.9760  202.0100  148.4190 N   0  0  0  0  0  0  0  0  0  0  0  0
  160.5630  201.9320  147.1840 O   0  0  0  0  0  0  0  0  0  0  0  0
  161.4010  202.8690  147.5270 N   0  0  0  0  0  0  0  0  0  0  0  0
  162.1810  203.9830  147.1970 N   0  0  0  0  0  2  0  0  0  0  0  0
  162.6660  206.0060  145.5300 O   0  0  0  0  0  1  0  0  0  0  0  0
  160.6210  204.4940  144.9200 O   0  0  0  0  0  0  0  0  0  0  0  0
  161.5300  205.2210  146.1460 P   0  0  1  0  0  0  0  0  0  0  0  0
  160.4680  206.3350  147.1040 C   0  0  0  0  0  1  0  0  0  0  0  0
  157.1920  212.2780  154.9710 N   0  0  0  0  0  0  0  0  0  0  0  0
  158.3810  212.3700  154.4630 C   0  0  0  0  0  3  0  0  0  0  0  0
  156.4210  213.7960  156.6270 N   0  0  0  0  0  2  0  0  0  0  0  0
  155.6390  214.1760  154.3890 C   0  0  0  0  0  1  0  0  0  0  0  0
  156.4420  213.4250  155.3880 C   0  0  0  0  0  0  0  0  0  0  0  0
  2 11  1  0  0  0  0
  2  5  2  0  0  0  0
  3  6  1  0  0  0  0
  4  1  1  0  0  0  0
  4 12  1  0  0  0  0
  6  7  2  0  0  0  0
  6 11  1  0  0  0  0
  7 10  1  0  0  0  0
  8  3  1  0  0  0  0
  8  9  2  0  0  0  0
  9  2  1  0  0  0  0
 10 45  1  0  0  0  0
 10  1  2  0  0  0  0
 11  4  2  0  0  0  0
 12 13  1  0  0  0  0
 12 15  1  0  0  0  0
 14 12  1  0  0  0  0
 16 17  2  0  0  0  0
 18 16  1  0  0  0  0
 18  7  1  0  0  0  0
 19 23  1  6  0  0  0
 19 16  1  0  0  0  0
 20 22  1  0  0  0  0
 21 20  1  0  0  0  0
 21 22  1  0  0  0  0
 22 19  1  0  0  0  0
 23 24  1  0  0  0  0
 26 25  1  0  0  0  0
 26 24  1  0  0  0  0
 27 26  2  0  0  0  0
 28 26  1  0  0  0  0
 29  9  1  0  0  0  0
 29 31  1  0  0  0  0
 29 30  1  1  0  0  0
 32 34  1  0  0  0  0
 33 34  1  0  0  0  0
 33 31  1  0  0  0  0
 34 35  2  0  0  0  0
 36 32  1  0  0  0  0
 37 38  1  0  0  0  0
 37 36  1  0  0  0  0
 38 36  1  0  0  0  0
 39 38  1  0  0  0  0
 40 42  1  0  0  0  0
 41 42  2  0  0  0  0
 42 43  1  1  0  0  0
 42 39  1  0  0  0  0
 44 48  1  0  0  0  0
 45 44  2  0  0  0  0
 47 48  1  0  0  0  0
 48 46  2  0  0  0  0
M  END
>  <MODEL>
3

>  <REMARK>
 VINA RESULT:      -5.0      2.862      9.627
  Name = 
  15 active torsions:
  status: ('A' for Active; 'I' for Inactive)
    1  A    between atoms: N_5  and  N_15
    2  A    between atoms: N_7  and  C_44
    3  A    between atoms: C_8  and  C_11
    4  A    between atoms: C_8  and  O_18
    5  A    between atoms: C_10  and  C_13
    6  A    between atoms: C_11  and  C_12
    7  A    between atoms: C_11  and  C_34
    8  A    between atoms: C_16  and  C_38
    9  A    between atoms: C_16  and  C_44
   10  A    between atoms: O_18  and  P_41
   11  A    between atoms: N_20  and  C_32
   12  A    between atoms: N_24  and  C_36
   13  A    between atoms: P_30  and  N_48
   14  A    between atoms: N_39  and  N_48
   15  A    between atoms: C_42  and  C_47
                            x       y       z     vdW  Elec       q    Type
                         _______ _______ _______ _____ _____    ______ ____

>  <TORSDO>
F 15

$$$$
=
 OpenBabel11072409563D

 48 51  0  0  1  0  0  0  0  0999 V2000
  162.1790  208.9090  148.2500 C   0  0  0  0  0  3  0  0  0  0  0  0
  161.4640  210.1330  151.8090 C   0  0  0  0  0  0  0  0  0  0  0  0
  161.7350  207.3110  152.2060 C   0  0  0  0  0  2  0  0  0  0  0  0
  161.9320  209.8030  149.2970 C   0  0  0  0  0  0  0  0  0  0  0  0
  161.6730  211.3740  151.8050 O   0  0  0  0  0  0  0  0  0  0  0  0
  161.7670  207.8780  150.8060 C   0  0  0  0  0  0  0  0  0  0  0  0
  161.9810  207.0030  149.7200 C   0  0  0  0  0  0  0  0  0  0  0  0
  161.0080  208.1790  153.1840 C   0  0  0  0  0  3  0  0  0  0  0  0
  160.9240  209.5050  153.0310 C   0  0  0  0  0  0  0  0  0  0  0  0
  162.2130  207.5330  148.4360 C   0  0  0  0  0  0  0  0  0  0  0  0
  161.7440  209.2830  150.6110 C   0  0  0  0  0  0  0  0  0  0  0  0
  161.8860  211.2860  148.9600 C   0  0  0  0  0  0  0  0  0  0  0  0
  163.1660  211.8500  148.9900 O   0  0  0  0  0  1  0  0  0  0  0  0
  161.1000  211.9510  149.8860 F   0  0  0  0  0  0  0  0  0  0  0  0
  161.3610  211.4620  147.6780 O   0  0  0  0  0  1  0  0  0  0  0  0
  160.8980  204.7160  149.7510 C   0  0  0  0  0  0  0  0  0  0  0  0
  159.8490  205.1480  149.1970 O   0  0  0  0  0  0  0  0  0  0  0  0
  162.0230  205.5840  149.9300 N   0  0  0  0  0  2  0  0  0  0  0  0
  160.9960  203.2840  150.2060 C   0  0  2  0  0  3  0  0  0  0  0  0
  160.7550  204.1660  152.5000 C   0  0  0  0  0  2  0  0  0  0  0  0
  160.5010  202.6770  152.5760 C   0  0  0  0  0  2  0  0  0  0  0  0
  161.5490  203.2190  151.6230 C   0  0  0  0  0  3  0  0  0  0  0  0
  161.8500  202.4330  149.2760 C   0  0  0  0  0  2  0  0  0  0  0  0
  161.5570  202.7400  147.9450 O   0  0  0  0  0  0  0  0  0  0  0  0
  161.5230  200.1450  147.5260 O   0  0  0  0  0  1  0  0  0  0  0  0
  160.7030  201.4020  147.3530 P   0  0  0  0  0  0  0  0  0  0  0  0
  160.3390  201.6220  145.7110 O   0  0  0  0  0  0  0  0  0  0  0  0
  159.2580  201.2390  148.2200 O   0  0  0  0  0  1  0  0  0  0  0  0
  160.3140  210.3660  154.1050 C   0  0  1  0  0  3  0  0  0  0  0  0
  161.0320  210.2100  155.4370 C   0  0  0  0  0  1  0  0  0  0  0  0
  160.2760  211.8340  153.6890 C   0  0  0  0  0  2  0  0  0  0  0  0
  157.6590  214.4520  154.6290 N   0  0  0  0  0  2  0  0  0  0  0  0
  159.1730  212.5160  154.3520 N   0  0  0  0  0  2  0  0  0  0  0  0
  158.5650  213.6980  153.8290 C   0  0  0  0  0  0  0  0  0  0  0  0
  158.8420  214.0930  152.6680 O   0  0  0  0  0  0  0  0  0  0  0  0
  157.3850  214.0880  155.9510 N   0  0  0  0  0  0  0  0  0  0  0  0
  157.4550  214.3310  157.2310 O   0  0  0  0  0  0  0  0  0  0  0  0
  156.8580  213.2510  156.8090 N   0  0  0  0  0  0  0  0  0  0  0  0
  156.1600  212.0680  157.0710 N   0  0  0  0  0  2  0  0  0  0  0  0
  157.0630  210.1100  155.5030 O   0  0  0  0  0  0  0  0  0  0  0  0
  154.5530  209.9320  156.2140 O   0  0  0  0  0  1  0  0  0  0  0  0
  155.8310  210.9450  155.7700 P   0  0  1  0  0  0  0  0  0  0  0  0
  155.3800  211.8620  154.2740 C   0  0  0  0  0  1  0  0  0  0  0  0
  161.5000  206.2770  146.4720 N   0  0  0  0  0  0  0  0  0  0  0  0
  162.4530  206.7180  147.2320 C   0  0  0  0  0  3  0  0  0  0  0  0
  161.0240  205.6410  144.2340 N   0  0  0  0  0  2  0  0  0  0  0  0
  162.8370  204.4880  145.3040 C   0  0  0  0  0  1  0  0  0  0  0  0
  161.7520  205.5020  145.2940 C   0  0  0  0  0  0  0  0  0  0  0  0
  1 10  2  0  0  0  0
  1  4  1  0  0  0  0
  2  9  1  0  0  0  0
  3  8  1  0  0  0  0
  4 11  2  0  0  0  0
  5  2  2  0  0  0  0
  6  3  1  0  0  0  0
  7 18  1  0  0  0  0
  7  6  2  0  0  0  0
  9  8  2  0  0  0  0
  9 29  1  0  0  0  0
 10  7  1  0  0  0  0
 11  6  1  0  0  0  0
 11  2  1  0  0  0  0
 12 13  1  0  0  0  0
 12  4  1  0  0  0  0
 12 14  1  0  0  0  0
 15 12  1  0  0  0  0
 16 18  1  0  0  0  0
 16 19  1  0  0  0  0
 17 16  2  0  0  0  0
 19 23  1  6  0  0  0
 19 22  1  0  0  0  0
 20 21  1  0  0  0  0
 22 20  1  0  0  0  0
 22 21  1  0  0  0  0
 24 23  1  0  0  0  0
 26 25  1  0  0  0  0
 26 24  1  0  0  0  0
 26 28  1  0  0  0  0
 27 26  2  0  0  0  0
 29 30  1  1  0  0  0
 31 29  1  0  0  0  0
 31 33  1  0  0  0  0
 32 36  1  0  0  0  0
 34 33  1  0  0  0  0
 34 32  1  0  0  0  0
 35 34  2  0  0  0  0
 36 38  1  0  0  0  0
 36 37  1  0  0  0  0
 38 39  1  0  0  0  0
 38 37  1  0  0  0  0
 40 42  2  0  0  0  0
 42 43  1  6  0  0  0
 42 41  1  0  0  0  0
 42 39  1  0  0  0  0
 44 45  2  0  0  0  0
 45 10  1  0  0  0  0
 46 48  2  0  0  0  0
 48 47  1  0  0  0  0
 48 44  1  0  0  0  0
M  END
>  <MODEL>
4

>  <REMARK>
 VINA RESULT:      -4.5      2.228      4.612
  Name = 
  15 active torsions:
  status: ('A' for Active; 'I' for Inactive)
    1  A    between atoms: N_5  and  N_15
    2  A    between atoms: N_7  and  C_44
    3  A    between atoms: C_8  and  C_11
    4  A    between atoms: C_8  and  O_18
    5  A    between atoms: C_10  and  C_13
    6  A    between atoms: C_11  and  C_12
    7  A    between atoms: C_11  and  C_34
    8  A    between atoms: C_16  and  C_38
    9  A    between atoms: C_16  and  C_44
   10  A    between atoms: O_18  and  P_41
   11  A    between atoms: N_20  and  C_32
   12  A    between atoms: N_24  and  C_36
   13  A    between atoms: P_30  and  N_48
   14  A    between atoms: N_39  and  N_48
   15  A    between atoms: C_42  and  C_47
                            x       y       z     vdW  Elec       q    Type
                         _______ _______ _______ _____ _____    ______ ____

>  <TORSDO>
F 15

$$$$
=
 OpenBabel11072409563D

 48 51  0  0  1  0  0  0  0  0999 V2000
  160.1460  211.0000  152.9810 C   0  0  0  0  0  3  0  0  0  0  0  0
  160.5100  213.0070  149.7380 C   0  0  0  0  0  0  0  0  0  0  0  0
  161.5940  210.4690  148.9780 C   0  0  0  0  0  2  0  0  0  0  0  0
  160.0410  212.0770  152.0950 C   0  0  0  0  0  0  0  0  0  0  0  0
  159.7560  214.0080  149.8550 O   0  0  0  0  0  0  0  0  0  0  0  0
  161.1910  210.7120  150.4130 C   0  0  0  0  0  0  0  0  0  0  0  0
  161.3140  209.6600  151.3450 C   0  0  0  0  0  0  0  0  0  0  0  0
  161.9200  211.7220  148.2290 C   0  0  0  0  0  3  0  0  0  0  0  0
  161.3750  212.9020  148.5480 C   0  0  0  0  0  0  0  0  0  0  0  0
  160.7610  209.8030  152.6320 C   0  0  0  0  0  0  0  0  0  0  0  0
  160.5530  211.9280  150.7720 C   0  0  0  0  0  0  0  0  0  0  0  0
  159.3750  213.3460  152.6060 C   0  0  0  0  0  0  0  0  0  0  0  0
  158.0580  213.4460  152.1440 O   0  0  0  0  0  1  0  0  0  0  0  0
  160.0740  214.4530  152.1570 F   0  0  0  0  0  0  0  0  0  0  0  0
  159.3490  213.3350  154.0020 O   0  0  0  0  0  1  0  0  0  0  0  0
  161.2560  207.3390  150.3370 C   0  0  0  0  0  0  0  0  0  0  0  0
  160.0820  207.5020  149.9020 O   0  0  0  0  0  0  0  0  0  0  0  0
  161.9430  208.4270  150.9660 N   0  0  0  0  0  2  0  0  0  0  0  0
  161.9600  206.0180  150.1820 C   0  0  2  0  0  3  0  0  0  0  0  0
  161.3470  205.5490  152.5280 C   0  0  0  0  0  2  0  0  0  0  0  0
  161.8140  204.2410  151.9280 C   0  0  0  0  0  2  0  0  0  0  0  0
  162.4860  205.5400  151.5280 C   0  0  0  0  0  3  0  0  0  0  0  0
  163.0980  206.0790  149.1710 C   0  0  0  0  0  2  0  0  0  0  0  0
  162.7120  206.8360  148.0620 O   0  0  0  0  0  0  0  0  0  0  0  0
  160.4680  206.1230  146.8940 O   0  0  0  0  0  1  0  0  0  0  0  0
  161.9260  205.7500  147.0270 P   0  0  0  0  0  0  0  0  0  0  0  0
  162.0560  204.1700  147.6310 O   0  0  0  0  0  1  0  0  0  0  0  0
  162.6510  205.8170  145.4990 O   0  0  0  0  0  0  0  0  0  0  0  0
  161.6090  214.1140  147.6860 C   0  0  1  0  0  3  0  0  0  0  0  0
  162.8830  213.9900  146.8620 C   0  0  0  0  0  1  0  0  0  0  0  0
  160.4140  214.3930  146.7790 C   0  0  0  0  0  2  0  0  0  0  0  0
  160.2010  212.1010  143.7310 N   0  0  0  0  0  2  0  0  0  0  0  0
  160.6370  213.8140  145.4610 N   0  0  0  0  0  2  0  0  0  0  0  0
  159.8020  212.7950  144.9100 C   0  0  0  0  0  0  0  0  0  0  0  0
  158.7210  212.4880  145.4720 O   0  0  0  0  0  0  0  0  0  0  0  0
  161.4310  212.3600  143.1190 N   0  0  0  0  0  0  0  0  0  0  0  0
  162.7140  212.5770  143.2040 O   0  0  0  0  0  0  0  0  0  0  0  0
  162.1380  212.5540  142.0340 N   0  0  0  0  0  0  0  0  0  0  0  0
  162.2110  212.6540  140.6410 N   0  0  0  0  0  2  0  0  0  0  0  0
  161.7400  210.0400  140.4140 O   0  0  0  0  0  1  0  0  0  0  0  0
  160.0290  211.6130  139.2160 O   0  0  0  0  0  0  0  0  0  0  0  0
  161.6410  211.3360  139.6420 P   0  0  1  0  0  0  0  0  0  0  0  0
  162.6510  211.2300  138.1400 C   0  0  0  0  0  1  0  0  0  0  0  0
  160.4950  208.9950  154.9170 N   0  0  0  0  0  0  0  0  0  0  0  0
  160.8230  208.7720  153.6830 C   0  0  0  0  0  3  0  0  0  0  0  0
  159.8110  206.9130  155.8320 N   0  0  0  0  0  2  0  0  0  0  0  0
  161.4130  208.1620  157.1120 C   0  0  0  0  0  1  0  0  0  0  0  0
  160.5430  207.9760  155.9220 C   0  0  0  0  0  0  0  0  0  0  0  0
  2  5  2  0  0  0  0
  2 11  1  0  0  0  0
  3  6  1  0  0  0  0
  4 12  1  0  0  0  0
  4  1  2  0  0  0  0
  6 11  2  0  0  0  0
  6  7  1  0  0  0  0
  7 10  2  0  0  0  0
  8  9  2  0  0  0  0
  8  3  1  0  0  0  0
  9  2  1  0  0  0  0
 10  1  1  0  0  0  0
 10 45  1  0  0  0  0
 11  4  1  0  0  0  0
 12 15  1  0  0  0  0
 13 12  1  0  0  0  0
 14 12  1  0  0  0  0
 16 18  1  0  0  0  0
 17 16  2  0  0  0  0
 18  7  1  0  0  0  0
 19 23  1  6  0  0  0
 19 16  1  0  0  0  0
 19 22  1  0  0  0  0
 21 20  1  0  0  0  0
 22 21  1  0  0  0  0
 22 20  1  0  0  0  0
 24 23  1  0  0  0  0
 25 26  1  0  0  0  0
 26 27  1  0  0  0  0
 26 24  1  0  0  0  0
 28 26  2  0  0  0  0
 29 30  1  6  0  0  0
 29  9  1  0  0  0  0
 31 29  1  0  0  0  0
 32 34  1  0  0  0  0
 33 31  1  0  0  0  0
 34 33  1  0  0  0  0
 34 35  2  0  0  0  0
 36 37  1  0  0  0  0
 36 32  1  0  0  0  0
 38 36  1  0  0  0  0
 38 37  1  0  0  0  0
 39 38  1  0  0  0  0
 41 42  2  0  0  0  0
 42 43  1  6  0  0  0
 42 40  1  0  0  0  0
 42 39  1  0  0  0  0
 44 48  1  0  0  0  0
 45 44  2  0  0  0  0
 46 48  2  0  0  0  0
 48 47  1  0  0  0  0
M  END
>  <MODEL>
5

>  <REMARK>
 VINA RESULT:      -4.5      4.405      7.014
  Name = 
  15 active torsions:
  status: ('A' for Active; 'I' for Inactive)
    1  A    between atoms: N_5  and  N_15
    2  A    between atoms: N_7  and  C_44
    3  A    between atoms: C_8  and  C_11
    4  A    between atoms: C_8  and  O_18
    5  A    between atoms: C_10  and  C_13
    6  A    between atoms: C_11  and  C_12
    7  A    between atoms: C_11  and  C_34
    8  A    between atoms: C_16  and  C_38
    9  A    between atoms: C_16  and  C_44
   10  A    between atoms: O_18  and  P_41
   11  A    between atoms: N_20  and  C_32
   12  A    between atoms: N_24  and  C_36
   13  A    between atoms: P_30  and  N_48
   14  A    between atoms: N_39  and  N_48
   15  A    between atoms: C_42  and  C_47
                            x       y       z     vdW  Elec       q    Type
                         _______ _______ _______ _____ _____    ______ ____

>  <TORSDO>
F 15

$$$$
=
 OpenBabel11072409563D

 48 51  0  0  1  0  0  0  0  0999 V2000
  161.0940  205.4360  153.0460 C   0  0  0  0  0  3  0  0  0  0  0  0
  161.4930  205.3050  149.2380 C   0  0  0  0  0  0  0  0  0  0  0  0
  161.9630  208.0760  149.7790 C   0  0  0  0  0  2  0  0  0  0  0  0
  161.1600  204.8910  151.7600 C   0  0  0  0  0  0  0  0  0  0  0  0
  161.6520  204.0930  148.9410 O   0  0  0  0  0  0  0  0  0  0  0  0
  161.5370  207.1560  150.8980 C   0  0  0  0  0  0  0  0  0  0  0  0
  161.4260  207.6760  152.2050 C   0  0  0  0  0  0  0  0  0  0  0  0
  161.5520  207.5960  148.4230 C   0  0  0  0  0  3  0  0  0  0  0  0
  161.3830  206.2970  148.1510 C   0  0  0  0  0  0  0  0  0  0  0  0
  161.2270  206.7980  153.2880 C   0  0  0  0  0  0  0  0  0  0  0  0
  161.4100  205.7630  150.6590 C   0  0  0  0  0  0  0  0  0  0  0  0
  160.9650  203.3890  151.6210 C   0  0  0  0  0  0  0  0  0  0  0  0
  160.4340  202.8380  152.7920 O   0  0  0  0  0  1  0  0  0  0  0  0
  162.1840  202.7810  151.3730 F   0  0  0  0  0  0  0  0  0  0  0  0
  160.0820  203.1230  150.5730 O   0  0  0  0  0  1  0  0  0  0  0  0
  160.4860  210.0130  152.4490 C   0  0  0  0  0  0  0  0  0  0  0  0
  159.2960  209.5900  152.4450 O   0  0  0  0  0  0  0  0  0  0  0  0
  161.5760  209.0840  152.4400 N   0  0  0  0  0  2  0  0  0  0  0  0
  160.7800  211.4890  152.4890 C   0  0  2  0  0  3  0  0  0  0  0  0
  159.4340  211.1700  154.5350 C   0  0  0  0  0  2  0  0  0  0  0  0
  160.5010  212.1890  154.8690 C   0  0  0  0  0  2  0  0  0  0  0  0
  159.8660  212.1810  153.4910 C   0  0  0  0  0  3  0  0  0  0  0  0
  160.6450  212.1470  151.1220 C   0  0  0  0  0  2  0  0  0  0  0  0
  161.4740  211.5060  150.1990 O   0  0  0  0  0  0  0  0  0  0  0  0
  161.0100  213.8960  149.2090 O   0  0  0  0  0  1  0  0  0  0  0  0
  161.4990  212.5160  148.8390 P   0  0  0  0  0  0  0  0  0  0  0  0
  160.5160  211.8730  147.6160 O   0  0  0  0  0  0  0  0  0  0  0  0
  163.0880  212.6320  148.2650 O   0  0  0  0  0  1  0  0  0  0  0  0
  161.1140  205.8350  146.7440 C   0  0  1  0  0  3  0  0  0  0  0  0
  160.0210  206.6550  146.0740 C   0  0  0  0  0  1  0  0  0  0  0  0
  162.3850  205.8520  145.8990 C   0  0  0  0  0  2  0  0  0  0  0  0
  161.1830  205.2380  142.3250 N   0  0  0  0  0  2  0  0  0  0  0  0
  162.0520  206.0490  144.4940 N   0  0  0  0  0  2  0  0  0  0  0  0
  161.2760  205.1160  143.7420 C   0  0  0  0  0  0  0  0  0  0  0  0
  160.6870  204.1680  144.3210 O   0  0  0  0  0  0  0  0  0  0  0  0
  161.8840  206.2330  141.6370 N   0  0  0  0  0  0  0  0  0  0  0  0
  162.8110  207.1500  141.6050 O   0  0  0  0  0  0  0  0  0  0  0  0
  162.0930  206.9190  140.5410 N   0  0  0  0  0  0  0  0  0  0  0  0
  161.7750  207.1920  139.2070 N   0  0  0  0  0  2  0  0  0  0  0  0
  162.2590  209.7820  139.6170 O   0  0  0  0  0  1  0  0  0  0  0  0
  162.0870  209.0380  137.1150 O   0  0  0  0  0  0  0  0  0  0  0  0
  161.5140  208.8440  138.6940 P   0  0  1  0  0  0  0  0  0  0  0  0
  159.7420  209.2230  138.7410 C   0  0  0  0  0  1  0  0  0  0  0  0
  161.6440  208.3090  155.1550 N   0  0  0  0  0  0  0  0  0  0  0  0
  161.1030  207.2250  154.6930 C   0  0  0  0  0  3  0  0  0  0  0  0
  162.4410  209.3600  157.1300 N   0  0  0  0  0  2  0  0  0  0  0  0
  160.2590  208.3670  157.2610 C   0  0  0  0  0  1  0  0  0  0  0  0
  161.4970  208.7200  156.5190 C   0  0  0  0  0  0  0  0  0  0  0  0
  1 10  1  0  0  0  0
  2 11  1  0  0  0  0
  3  6  1  0  0  0  0
  4  1  2  0  0  0  0
  5  2  2  0  0  0  0
  6  7  1  0  0  0  0
  7 18  1  0  0  0  0
  7 10  2  0  0  0  0
  8  3  1  0  0  0  0
  9  8  2  0  0  0  0
  9  2  1  0  0  0  0
 10 45  1  0  0  0  0
 11  6  2  0  0  0  0
 11  4  1  0  0  0  0
 12  4  1  0  0  0  0
 12 13  1  0  0  0  0
 14 12  1  0  0  0  0
 15 12  1  0  0  0  0
 16 19  1  0  0  0  0
 17 16  2  0  0  0  0
 18 16  1  0  0  0  0
 19 23  1  6  0  0  0
 19 22  1  0  0  0  0
 20 21  1  0  0  0  0
 22 20  1  0  0  0  0
 22 21  1  0  0  0  0
 24 23  1  0  0  0  0
 26 25  1  0  0  0  0
 26 24  1  0  0  0  0
 27 26  2  0  0  0  0
 28 26  1  0  0  0  0
 29 30  1  6  0  0  0
 29  9  1  0  0  0  0
 31 29  1  0  0  0  0
 32 34  1  0  0  0  0
 33 31  1  0  0  0  0
 34 35  2  0  0  0  0
 34 33  1  0  0  0  0
 36 32  1  0  0  0  0
 37 36  1  0  0  0  0
 38 37  1  0  0  0  0
 38 36  1  0  0  0  0
 39 38  1  0  0  0  0
 41 42  2  0  0  0  0
 42 43  1  1  0  0  0
 42 39  1  0  0  0  0
 42 40  1  0  0  0  0
 44 48  1  0  0  0  0
 45 44  2  0  0  0  0
 48 46  2  0  0  0  0
 48 47  1  0  0  0  0
M  END
>  <MODEL>
6

>  <REMARK>
 VINA RESULT:      -4.0      4.917      9.909
  Name = 
  15 active torsions:
  status: ('A' for Active; 'I' for Inactive)
    1  A    between atoms: N_5  and  N_15
    2  A    between atoms: N_7  and  C_44
    3  A    between atoms: C_8  and  C_11
    4  A    between atoms: C_8  and  O_18
    5  A    between atoms: C_10  and  C_13
    6  A    between atoms: C_11  and  C_12
    7  A    between atoms: C_11  and  C_34
    8  A    between atoms: C_16  and  C_38
    9  A    between atoms: C_16  and  C_44
   10  A    between atoms: O_18  and  P_41
   11  A    between atoms: N_20  and  C_32
   12  A    between atoms: N_24  and  C_36
   13  A    between atoms: P_30  and  N_48
   14  A    between atoms: N_39  and  N_48
   15  A    between atoms: C_42  and  C_47
                            x       y       z     vdW  Elec       q    Type
                         _______ _______ _______ _____ _____    ______ ____

>  <TORSDO>
F 15

$$$$
=
 OpenBabel11072409563D

 48 51  0  0  1  0  0  0  0  0999 V2000
  160.5610  209.6500  153.9310 C   0  0  0  0  0  3  0  0  0  0  0  0
  161.5510  206.2930  152.3710 C   0  0  0  0  0  0  0  0  0  0  0  0
  161.5540  208.0210  150.0890 C   0  0  0  0  0  2  0  0  0  0  0  0
  160.8960  208.2940  153.8580 C   0  0  0  0  0  0  0  0  0  0  0  0
  161.9160  205.5550  153.3230 O   0  0  0  0  0  0  0  0  0  0  0  0
  161.0900  208.5470  151.4270 C   0  0  0  0  0  0  0  0  0  0  0  0
  160.7120  209.9030  151.5340 C   0  0  0  0  0  0  0  0  0  0  0  0
  161.4240  206.5370  149.9540 C   0  0  0  0  0  3  0  0  0  0  0  0
  161.4750  205.7210  151.0130 C   0  0  0  0  0  0  0  0  0  0  0  0
  160.4710  210.4580  152.8050 C   0  0  0  0  0  0  0  0  0  0  0  0
  161.1910  207.7290  152.5820 C   0  0  0  0  0  0  0  0  0  0  0  0
  160.9300  207.5060  155.1590 C   0  0  0  0  0  0  0  0  0  0  0  0
  161.1290  208.3510  156.2560 O   0  0  0  0  0  1  0  0  0  0  0  0
  161.9700  206.5920  155.1250 F   0  0  0  0  0  0  0  0  0  0  0  0
  159.7170  206.8380  155.3360 O   0  0  0  0  0  1  0  0  0  0  0  0
  161.7760  211.2310  149.6610 C   0  0  0  0  0  0  0  0  0  0  0  0
  162.9290  210.7960  149.9380 O   0  0  0  0  0  0  0  0  0  0  0  0
  160.6330  210.7270  150.3620 N   0  0  0  0  0  2  0  0  0  0  0  0
  161.5790  212.2580  148.5780 C   0  0  2  0  0  3  0  0  0  0  0  0
  163.7920  212.2000  147.4830 C   0  0  0  0  0  2  0  0  0  0  0  0
  163.0350  213.3600  146.8760 C   0  0  0  0  0  2  0  0  0  0  0  0
  162.8690  213.0340  148.3480 C   0  0  0  0  0  3  0  0  0  0  0  0
  160.4410  213.2220  148.8890 C   0  0  0  0  0  2  0  0  0  0  0  0
  160.3060  214.1510  147.8550 O   0  0  0  0  0  0  0  0  0  0  0  0
  158.8800  214.4480  145.6680 O   0  0  0  0  0  0  0  0  0  0  0  0
  159.1410  213.4990  146.8130 P   0  0  0  0  0  0  0  0  0  0  0  0
  157.6970  213.2140  147.6570 O   0  0  0  0  0  1  0  0  0  0  0  0
  159.7130  212.0320  146.1910 O   0  0  0  0  0  1  0  0  0  0  0  0
  161.4890  204.2260  150.8320 C   0  0  1  0  0  3  0  0  0  0  0  0
  161.9520  203.5040  152.0880 C   0  0  0  0  0  1  0  0  0  0  0  0
  160.1240  203.7050  150.3920 C   0  0  0  0  0  2  0  0  0  0  0  0
  161.1880  200.9550  147.9650 N   0  0  0  0  0  2  0  0  0  0  0  0
  160.2590  202.8910  149.1920 N   0  0  0  0  0  2  0  0  0  0  0  0
  160.8690  201.6000  149.1950 C   0  0  0  0  0  0  0  0  0  0  0  0
  161.1480  201.0320  150.2810 O   0  0  0  0  0  0  0  0  0  0  0  0
  160.9650  201.5850  146.7370 N   0  0  0  0  0  0  0  0  0  0  0  0
  160.8080  201.5230  145.4440 O   0  0  0  0  0  0  0  0  0  0  0  0
  160.7510  202.6770  146.0470 N   0  0  0  0  0  0  0  0  0  0  0  0
  160.5800  204.0650  146.0030 N   0  0  0  0  0  2  0  0  0  0  0  0
  163.2110  204.3340  145.6590 O   0  0  0  0  0  1  0  0  0  0  0  0
  161.7030  205.5440  143.8980 O   0  0  0  0  0  0  0  0  0  0  0  0
  161.9100  205.0910  145.5130 P   0  0  1  0  0  0  0  0  0  0  0  0
  161.9490  206.5750  146.5540 C   0  0  0  0  0  1  0  0  0  0  0  0
  158.8440  212.2580  153.0440 N   0  0  0  0  0  0  0  0  0  0  0  0
  160.0770  211.8590  153.0380 C   0  0  0  0  0  3  0  0  0  0  0  0
  158.0040  214.3670  152.3470 N   0  0  0  0  0  2  0  0  0  0  0  0
  158.6850  214.2000  154.6430 C   0  0  0  0  0  1  0  0  0  0  0  0
  158.4770  213.6200  153.2910 C   0  0  0  0  0  0  0  0  0  0  0  0
  2 11  1  0  0  0  0
  2  5  2  0  0  0  0
  3  6  1  0  0  0  0
  4  1  1  0  0  0  0
  4 12  1  0  0  0  0
  6  7  2  0  0  0  0
  6 11  1  0  0  0  0
  7 10  1  0  0  0  0
  8  3  1  0  0  0  0
  8  9  2  0  0  0  0
  9  2  1  0  0  0  0
 10 45  1  0  0  0  0
 10  1  2  0  0  0  0
 11  4  2  0  0  0  0
 12 15  1  0  0  0  0
 12 13  1  0  0  0  0
 14 12  1  0  0  0  0
 16 17  2  0  0  0  0
 16 18  1  0  0  0  0
 18  7  1  0  0  0  0
 19 23  1  1  0  0  0
 19 16  1  0  0  0  0
 20 22  1  0  0  0  0
 21 20  1  0  0  0  0
 21 22  1  0  0  0  0
 22 19  1  0  0  0  0
 24 23  1  0  0  0  0
 25 26  2  0  0  0  0
 26 27  1  0  0  0  0
 26 24  1  0  0  0  0
 28 26  1  0  0  0  0
 29  9  1  0  0  0  0
 29 30  1  1  0  0  0
 31 29  1  0  0  0  0
 32 34  1  0  0  0  0
 33 34  1  0  0  0  0
 33 31  1  0  0  0  0
 34 35  2  0  0  0  0
 36 32  1  0  0  0  0
 37 38  1  0  0  0  0
 37 36  1  0  0  0  0
 38 36  1  0  0  0  0
 39 38  1  0  0  0  0
 41 42  2  0  0  0  0
 42 40  1  0  0  0  0
 42 39  1  0  0  0  0
 42 43  1  1  0  0  0
 44 48  1  0  0  0  0
 45 44  2  0  0  0  0
 46 48  2  0  0  0  0
 48 47  1  0  0  0  0
M  END
>  <MODEL>
7

>  <REMARK>
 VINA RESULT:      -4.0      3.041      9.579
  Name = 
  15 active torsions:
  status: ('A' for Active; 'I' for Inactive)
    1  A    between atoms: N_5  and  N_15
    2  A    between atoms: N_7  and  C_44
    3  A    between atoms: C_8  and  C_11
    4  A    between atoms: C_8  and  O_18
    5  A    between atoms: C_10  and  C_13
    6  A    between atoms: C_11  and  C_12
    7  A    between atoms: C_11  and  C_34
    8  A    between atoms: C_16  and  C_38
    9  A    between atoms: C_16  and  C_44
   10  A    between atoms: O_18  and  P_41
   11  A    between atoms: N_20  and  C_32
   12  A    between atoms: N_24  and  C_36
   13  A    between atoms: P_30  and  N_48
   14  A    between atoms: N_39  and  N_48
   15  A    between atoms: C_42  and  C_47
                            x       y       z     vdW  Elec       q    Type
                         _______ _______ _______ _____ _____    ______ ____

>  <TORSDO>
F 15

$$$$
=
 OpenBabel11072409563D

 48 51  0  0  1  0  0  0  0  0999 V2000
  161.5920  209.1240  148.7730 C   0  0  0  0  0  3  0  0  0  0  0  0
  160.9500  205.5160  149.8930 C   0  0  0  0  0  0  0  0  0  0  0  0
  160.9650  206.9090  152.3930 C   0  0  0  0  0  2  0  0  0  0  0  0
  161.3620  207.7470  148.6720 C   0  0  0  0  0  0  0  0  0  0  0  0
  160.5800  204.8880  148.8670 O   0  0  0  0  0  0  0  0  0  0  0  0
  161.3030  207.6500  151.1210 C   0  0  0  0  0  0  0  0  0  0  0  0
  161.5740  209.0330  151.1870 C   0  0  0  0  0  0  0  0  0  0  0  0
  161.2100  205.4360  152.3100 C   0  0  0  0  0  3  0  0  0  0  0  0
  161.1520  204.7710  151.1500 C   0  0  0  0  0  0  0  0  0  0  0  0
  161.6940  209.7750  149.9970 C   0  0  0  0  0  0  0  0  0  0  0  0
  161.1900  206.9920  149.8690 C   0  0  0  0  0  0  0  0  0  0  0  0
  161.3040  207.1450  147.2760 C   0  0  0  0  0  0  0  0  0  0  0  0
  161.1740  208.1400  146.3010 O   0  0  0  0  0  1  0  0  0  0  0  0
  160.2120  206.3000  147.1770 F   0  0  0  0  0  0  0  0  0  0  0  0
  162.4790  206.4340  147.0210 O   0  0  0  0  0  1  0  0  0  0  0  0
  160.5700  210.3610  153.0930 C   0  0  0  0  0  0  0  0  0  0  0  0
  159.3990  210.2230  152.6400 O   0  0  0  0  0  0  0  0  0  0  0  0
  161.6670  209.6930  152.4580 N   0  0  0  0  0  2  0  0  0  0  0  0
  160.8300  211.2010  154.3150 C   0  0  2  0  0  3  0  0  0  0  0  0
  161.5750  209.1480  155.4670 C   0  0  0  0  0  2  0  0  0  0  0  0
  161.9790  210.3120  156.3450 C   0  0  0  0  0  2  0  0  0  0  0  0
  160.6730  210.3610  155.5750 C   0  0  0  0  0  3  0  0  0  0  0  0
  159.9220  212.4210  154.3870 C   0  0  0  0  0  2  0  0  0  0  0  0
  159.4020  212.5540  155.6770 O   0  0  0  0  0  0  0  0  0  0  0  0
  157.4010  213.3030  154.1470 O   0  0  0  0  0  0  0  0  0  0  0  0
  157.7240  212.6640  155.4770 P   0  0  0  0  0  0  0  0  0  0  0  0
  157.0460  213.5850  156.7290 O   0  0  0  0  0  1  0  0  0  0  0  0
  157.0580  211.1080  155.5150 O   0  0  0  0  0  1  0  0  0  0  0  0
  161.2590  203.2700  151.1190 C   0  0  1  0  0  3  0  0  0  0  0  0
  161.6560  202.6990  152.4720 C   0  0  0  0  0  1  0  0  0  0  0  0
  159.9630  202.6290  150.6310 C   0  0  0  0  0  2  0  0  0  0  0  0
  161.4140  200.5260  147.7910 N   0  0  0  0  0  2  0  0  0  0  0  0
  160.1680  202.0110  149.3280 N   0  0  0  0  0  2  0  0  0  0  0  0
  161.0770  200.9300  149.1150 C   0  0  0  0  0  0  0  0  0  0  0  0
  161.6020  200.3410  150.0940 O   0  0  0  0  0  0  0  0  0  0  0  0
  160.9100  201.2040  146.6770 N   0  0  0  0  0  0  0  0  0  0  0  0
  160.1740  201.2250  145.6010 O   0  0  0  0  0  0  0  0  0  0  0  0
  160.8320  202.2930  145.9540 N   0  0  0  0  0  0  0  0  0  0  0  0
  161.1920  203.6270  145.7360 N   0  0  0  0  0  2  0  0  0  0  0  0
  159.5550  203.6370  143.6310 O   0  0  0  0  0  0  0  0  0  0  0  0
  159.3290  205.6720  145.2580 O   0  0  0  0  0  1  0  0  0  0  0  0
  160.3640  204.5630  144.5110 P   0  0  1  0  0  0  0  0  0  0  0  0
  161.5780  205.4570  143.5040 C   0  0  0  0  0  1  0  0  0  0  0  0
  161.4920  212.0010  149.0240 N   0  0  0  0  0  0  0  0  0  0  0  0
  161.9690  211.2220  149.9430 C   0  0  0  0  0  3  0  0  0  0  0  0
  161.1100  214.2240  149.7700 N   0  0  0  0  0  2  0  0  0  0  0  0
  162.7490  213.9500  148.0360 C   0  0  0  0  0  1  0  0  0  0  0  0
  161.7540  213.4090  148.9980 C   0  0  0  0  0  0  0  0  0  0  0  0
  1 10  1  0  0  0  0
  2  9  1  0  0  0  0
  4  1  2  0  0  0  0
  4 11  1  0  0  0  0
  5  2  2  0  0  0  0
  6  7  1  0  0  0  0
  6  3  1  0  0  0  0
  7 18  1  0  0  0  0
  8  3  1  0  0  0  0
  9  8  2  0  0  0  0
 10  7  2  0  0  0  0
 11  2  1  0  0  0  0
 11  6  2  0  0  0  0
 12  4  1  0  0  0  0
 13 12  1  0  0  0  0
 14 12  1  0  0  0  0
 15 12  1  0  0  0  0
 16 19  1  0  0  0  0
 17 16  2  0  0  0  0
 18 16  1  0  0  0  0
 19 23  1  1  0  0  0
 19 22  1  0  0  0  0
 20 22  1  0  0  0  0
 20 21  1  0  0  0  0
 22 21  1  0  0  0  0
 23 24  1  0  0  0  0
 25 26  2  0  0  0  0
 26 28  1  0  0  0  0
 26 24  1  0  0  0  0
 26 27  1  0  0  0  0
 29  9  1  0  0  0  0
 29 30  1  1  0  0  0
 31 29  1  0  0  0  0
 32 34  1  0  0  0  0
 33 31  1  0  0  0  0
 34 33  1  0  0  0  0
 34 35  2  0  0  0  0
 36 32  1  0  0  0  0
 37 38  1  0  0  0  0
 37 36  1  0  0  0  0
 38 36  1  0  0  0  0
 39 38  1  0  0  0  0
 40 42  2  0  0  0  0
 42 43  1  6  0  0  0
 42 41  1  0  0  0  0
 42 39  1  0  0  0  0
 44 45  2  0  0  0  0
 45 10  1  0  0  0  0
 47 48  1  0  0  0  0
 48 44  1  0  0  0  0
 48 46  2  0  0  0  0
M  END
>  <MODEL>
8

>  <REMARK>
 VINA RESULT:      -4.0      2.892     10.534
  Name = 
  15 active torsions:
  status: ('A' for Active; 'I' for Inactive)
    1  A    between atoms: N_5  and  N_15
    2  A    between atoms: N_7  and  C_44
    3  A    between atoms: C_8  and  C_11
    4  A    between atoms: C_8  and  O_18
    5  A    between atoms: C_10  and  C_13
    6  A    between atoms: C_11  and  C_12
    7  A    between atoms: C_11  and  C_34
    8  A    between atoms: C_16  and  C_38
    9  A    between atoms: C_16  and  C_44
   10  A    between atoms: O_18  and  P_41
   11  A    between atoms: N_20  and  C_32
   12  A    between atoms: N_24  and  C_36
   13  A    between atoms: P_30  and  N_48
   14  A    between atoms: N_39  and  N_48
   15  A    between atoms: C_42  and  C_47
                            x       y       z     vdW  Elec       q    Type
                         _______ _______ _______ _____ _____    ______ ____

>  <TORSDO>
F 15

$$$$
=
 OpenBabel11072409563D

 48 51  0  0  1  0  0  0  0  0999 V2000
  161.5170  205.6070  149.7540 C   0  0  0  0  0  3  0  0  0  0  0  0
  160.9160  207.2690  153.1530 C   0  0  0  0  0  0  0  0  0  0  0  0
  160.8270  209.5150  151.3820 C   0  0  0  0  0  2  0  0  0  0  0  0
  161.3190  205.7190  151.1340 C   0  0  0  0  0  0  0  0  0  0  0  0
  160.5900  206.3470  153.9450 O   0  0  0  0  0  0  0  0  0  0  0  0
  161.1890  208.1510  150.8440 C   0  0  0  0  0  0  0  0  0  0  0  0
  161.4290  208.0030  149.4610 C   0  0  0  0  0  0  0  0  0  0  0  0
  161.1060  209.6740  152.8430 C   0  0  0  0  0  3  0  0  0  0  0  0
  161.0960  208.6340  153.6840 C   0  0  0  0  0  0  0  0  0  0  0  0
  161.5680  206.7130  148.9150 C   0  0  0  0  0  0  0  0  0  0  0  0
  161.1260  207.0170  151.6950 C   0  0  0  0  0  0  0  0  0  0  0  0
  161.3150  204.4360  151.9510 C   0  0  0  0  0  0  0  0  0  0  0  0
  161.6370  203.3310  151.1570 O   0  0  0  0  0  1  0  0  0  0  0  0
  160.0560  204.2280  152.4880 F   0  0  0  0  0  0  0  0  0  0  0  0
  162.2580  204.5280  152.9760 O   0  0  0  0  0  1  0  0  0  0  0  0
  162.1180  210.3840  148.9520 C   0  0  0  0  0  0  0  0  0  0  0  0
  162.8670  210.4390  149.9670 O   0  0  0  0  0  0  0  0  0  0  0  0
  161.4700  209.1550  148.6060 N   0  0  0  0  0  2  0  0  0  0  0  0
  161.9150  211.5930  148.0780 C   0  0  2  0  0  3  0  0  0  0  0  0
  163.6050  213.3080  147.5300 C   0  0  0  0  0  2  0  0  0  0  0  0
  162.3320  214.0460  147.8810 C   0  0  0  0  0  2  0  0  0  0  0  0
  162.7010  212.7760  148.6240 C   0  0  0  0  0  3  0  0  0  0  0  0
  160.4460  211.9670  147.9330 C   0  0  0  0  0  2  0  0  0  0  0  0
  160.0600  211.8830  146.5930 O   0  0  0  0  0  0  0  0  0  0  0  0
  159.2800  214.0200  145.2770 O   0  0  0  0  0  0  0  0  0  0  0  0
  158.8790  213.0800  146.3890 P   0  0  0  0  0  0  0  0  0  0  0  0
  158.6790  213.9550  147.8280 O   0  0  0  0  0  1  0  0  0  0  0  0
  157.4100  212.3440  145.9830 O   0  0  0  0  0  1  0  0  0  0  0  0
  161.2350  208.8450  155.1680 C   0  0  1  0  0  3  0  0  0  0  0  0
  161.9330  207.6760  155.8480 C   0  0  0  0  0  1  0  0  0  0  0  0
  161.9590  210.1510  155.4810 C   0  0  0  0  0  2  0  0  0  0  0  0
  158.7040  211.9880  156.2680 N   0  0  0  0  0  2  0  0  0  0  0  0
  160.9940  211.2070  155.7550 N   0  0  0  0  0  2  0  0  0  0  0  0
  159.6780  210.9480  156.2450 C   0  0  0  0  0  0  0  0  0  0  0  0
  159.3620  209.7970  156.6390 O   0  0  0  0  0  0  0  0  0  0  0  0
  158.9920  213.2620  155.7680 N   0  0  0  0  0  0  0  0  0  0  0  0
  159.4980  214.4530  155.9260 O   0  0  0  0  0  0  0  0  0  0  0  0
  158.9550  214.1280  154.7860 N   0  0  0  0  0  0  0  0  0  0  0  0
  158.5960  214.4530  153.4740 N   0  0  0  0  0  2  0  0  0  0  0  0
  159.9100  213.1020  151.5880 O   0  0  0  0  0  0  0  0  0  0  0  0
  158.1660  211.7260  152.9680 O   0  0  0  0  0  1  0  0  0  0  0  0
  158.5540  213.2050  152.2480 P   0  0  1  0  0  0  0  0  0  0  0  0
  157.3000  213.6170  151.0050 C   0  0  0  0  0  1  0  0  0  0  0  0
  161.5160  205.3120  146.9210 N   0  0  0  0  0  0  0  0  0  0  0  0
  161.8150  206.4380  147.4880 C   0  0  0  0  0  3  0  0  0  0  0  0
  162.7690  205.5710  144.9200 N   0  0  0  0  0  2  0  0  0  0  0  0
  160.7670  204.2570  144.7570 C   0  0  0  0  0  1  0  0  0  0  0  0
  161.7450  205.0670  145.5280 C   0  0  0  0  0  0  0  0  0  0  0  0
  1  4  1  0  0  0  0
  2  9  1  0  0  0  0
  2  5  2  0  0  0  0
  3  8  1  0  0  0  0
  4 11  2  0  0  0  0
  4 12  1  0  0  0  0
  6  3  1  0  0  0  0
  6 11  1  0  0  0  0
  7  6  2  0  0  0  0
  8  9  2  0  0  0  0
  9 29  1  0  0  0  0
 10  7  1  0  0  0  0
 10  1  2  0  0  0  0
 11  2  1  0  0  0  0
 12 14  1  0  0  0  0
 12 15  1  0  0  0  0
 13 12  1  0  0  0  0
 16 17  2  0  0  0  0
 18 16  1  0  0  0  0
 18  7  1  0  0  0  0
 19 23  1  1  0  0  0
 19 22  1  0  0  0  0
 19 16  1  0  0  0  0
 20 21  1  0  0  0  0
 20 22  1  0  0  0  0
 21 22  1  0  0  0  0
 24 23  1  0  0  0  0
 25 26  2  0  0  0  0
 26 24  1  0  0  0  0
 26 27  1  0  0  0  0
 28 26  1  0  0  0  0
 29 31  1  0  0  0  0
 29 30  1  6  0  0  0
 31 33  1  0  0  0  0
 33 34  1  0  0  0  0
 34 32  1  0  0  0  0
 34 35  2  0  0  0  0
 36 37  1  0  0  0  0
 36 32  1  0  0  0  0
 38 36  1  0  0  0  0
 38 37  1  0  0  0  0
 39 38  1  0  0  0  0
 40 42  2  0  0  0  0
 42 43  1  6  0  0  0
 42 41  1  0  0  0  0
 42 39  1  0  0  0  0
 44 45  2  0  0  0  0
 45 10  1  0  0  0  0
 46 48  2  0  0  0  0
 47 48  1  0  0  0  0
 48 44  1  0  0  0  0
M  END
>  <MODEL>
9

>  <REMARK>
 VINA RESULT:      -3.8      3.195      6.826
  Name = 
  15 active torsions:
  status: ('A' for Active; 'I' for Inactive)
    1  A    between atoms: N_5  and  N_15
    2  A    between atoms: N_7  and  C_44
    3  A    between atoms: C_8  and  C_11
    4  A    between atoms: C_8  and  O_18
    5  A    between atoms: C_10  and  C_13
    6  A    between atoms: C_11  and  C_12
    7  A    between atoms: C_11  and  C_34
    8  A    between atoms: C_16  and  C_38
    9  A    between atoms: C_16  and  C_44
   10  A    between atoms: O_18  and  P_41
   11  A    between atoms: N_20  and  C_32
   12  A    between atoms: N_24  and  C_36
   13  A    between atoms: P_30  and  N_48
   14  A    between atoms: N_39  and  N_48
   15  A    between atoms: C_42  and  C_47
                            x       y       z     vdW  Elec       q    Type
                         _______ _______ _______ _____ _____    ______ ____

>  <TORSDO>
F 15

$$$$
