=
 OpenBabel11072415023D

 39 42  0  0  1  0  0  0  0  0999 V2000
  160.8960  207.5150  153.9590 C   0  0  0  0  0  0  0  0  0  0  0  0
  161.2090  205.9220  151.6420 C   0  0  0  0  0  0  0  0  0  0  0  0
  161.1470  205.3300  152.9260 C   0  0  0  0  0  0  0  0  0  0  0  0
  161.2570  203.9570  153.1010 O   0  0  0  0  0  1  0  0  0  0  0  0
  160.9730  208.1040  152.6950 C   0  0  0  0  0  3  0  0  0  0  0  0
  161.1220  207.3320  151.5390 C   0  0  0  0  0  0  0  0  0  0  0  0
  160.9890  206.1260  154.0600 C   0  0  0  0  0  3  0  0  0  0  0  0
  160.1920  207.9930  156.3900 C   0  0  0  0  0  0  0  0  0  0  0  0
  159.6560  206.7170  156.7240 N   0  0  0  0  0  1  0  0  0  0  0  0
  160.7520  210.0630  156.6190 N   0  0  0  0  0  0  0  0  0  0  0  0
  161.0790  209.6870  155.3670 C   0  0  0  0  0  0  0  0  0  0  0  0
  160.7330  208.3560  155.1690 C   0  0  0  0  0  0  0  0  0  0  0  0
  160.2070  209.0310  157.2430 N   0  0  0  0  0  2  0  0  0  0  0  0
  161.9010  210.7860  154.2110 S   0  0  0  0  0  0  0  0  0  0  0  0
  158.0840  212.3730  154.3780 C   0  0  0  0  0  0  0  0  0  0  0  0
  159.4610  212.0840  154.9050 C   0  0  1  0  0  3  0  0  0  0  0  0
  160.1090  211.8940  152.5160 C   0  0  0  0  0  3  0  0  0  0  0  0
  156.8150  212.4200  155.4030 S   0  0  0  0  0  0  0  0  0  0  0  0
  157.9010  212.7270  153.0030 N   0  0  0  0  0  0  0  0  0  0  0  0
  160.3760  211.6270  153.7970 C   0  0  0  0  0  0  0  0  0  0  0  0
  158.8350  212.5370  152.1200 C   0  0  0  0  0  0  0  0  0  0  0  0
  159.9850  213.2430  155.4850 O   0  0  0  0  0  0  0  0  0  0  0  0
  159.6630  213.1530  156.8400 C   0  0  0  0  0  1  0  0  0  0  0  0
  158.6030  212.9180  150.7960 O   0  0  0  0  0  0  0  0  0  0  0  0
  157.4370  213.6210  150.3890 C   0  0  0  0  0  2  0  0  0  0  0  0
  156.9120  213.0330  149.1670 N   0  0  0  0  0  1  0  0  0  0  0  0
  160.7040  203.9440  150.1880 C   0  0  0  0  0  1  0  0  0  0  0  0
  161.3770  205.1630  150.4720 O   0  0  0  0  0  0  0  0  0  0  0  0
  161.1900  208.0340  150.2870 N   0  0  0  0  0  2  0  0  0  0  0  0
  162.3690  208.1570  149.4400 C   0  0  0  0  0  2  0  0  0  0  0  0
  161.9780  207.9510  147.9870 C   0  0  0  0  0  2  0  0  0  0  0  0
  161.4960  206.5260  147.7660 C   0  0  1  0  0  3  0  0  0  0  0  0
  160.0990  206.4900  147.7400 O   0  0  0  0  0  1  0  0  0  0  0  0
  161.6350  203.4670  146.5530 C   0  0  0  0  0  2  0  0  0  0  0  0
  160.6260  204.8670  144.7430 C   0  0  0  0  0  3  0  0  0  0  0  0
  162.6870  204.5590  146.7210 C   0  0  0  0  0  2  0  0  0  0  0  0
  162.0830  205.9510  146.4750 C   0  0  1  0  0  3  0  0  0  0  0  0
  161.1210  203.4960  145.1190 C   0  0  0  0  0  2  0  0  0  0  0  0
  161.0900  205.9810  145.3300 C   0  0  0  0  0  3  0  0  0  0  0  0
  1  7  1  0  0  0  0
  1 12  1  0  0  0  0
  2  3  1  0  0  0  0
  3  4  1  0  0  0  0
  3  7  2  0  0  0  0
  5  1  2  0  0  0  0
  6  2  2  0  0  0  0
  6  5  1  0  0  0  0
  8  9  1  0  0  0  0
  8 13  1  0  0  0  0
 10 13  1  0  0  0  0
 11 10  2  0  0  0  0
 12 11  1  0  0  0  0
 12  8  2  0  0  0  0
 14 11  1  0  0  0  0
 15 16  1  0  0  0  0
 15 18  2  0  0  0  0
 16 22  1  6  0  0  0
 17 20  2  0  0  0  0
 19 15  1  0  0  0  0
 20 14  1  0  0  0  0
 20 16  1  0  0  0  0
 21 17  1  0  0  0  0
 21 19  2  0  0  0  0
 22 23  1  0  0  0  0
 24 21  1  0  0  0  0
 25 24  1  0  0  0  0
 26 25  1  0  0  0  0
 27 28  1  0  0  0  0
 28  2  1  0  0  0  0
 29  6  1  0  0  0  0
 30 29  1  0  0  0  0
 31 30  1  0  0  0  0
 32 33  1  6  0  0  0
 32 31  1  0  0  0  0
 34 36  1  0  0  0  0
 35 38  1  0  0  0  0
 35 39  2  0  0  0  0
 37 36  1  0  0  0  0
 37 32  1  1  0  0  0
 38 34  1  0  0  0  0
 39 37  1  0  0  0  0
M  END
>  <MODEL>
1

>  <REMARK>
 VINA RESULT:      -7.4      0.000      0.000
  Name = 
  12 active torsions:
  status: ('A' for Active; 'I' for Inactive)
    1  A    between atoms: S_1  and  C_19
    2  A    between atoms: S_1  and  C_30
    3  A    between atoms: C_2  and  C_32
    4  A    between atoms: C_5  and  C_13
    5  A    between atoms: C_5  and  C_38
    6  A    between atoms: C_9  and  O_23
    7  A    between atoms: C_12  and  O_35
    8  A    between atoms: O_18  and  C_22
    9  A    between atoms: O_18  and  C_39
   10  A    between atoms: C_26  and  N_34
   11  A    between atoms: C_26  and  C_38
   12  A    between atoms: C_29  and  N_34
                            x       y       z     vdW  Elec       q    Type
                         _______ _______ _______ _____ _____    ______ ____

>  <TORSDO>
F 12

$$$$
=
 OpenBabel11072415023D

 39 42  0  0  1  0  0  0  0  0999 V2000
  161.0390  209.0740  154.1170 C   0  0  0  0  0  0  0  0  0  0  0  0
  161.5500  206.9830  152.2800 C   0  0  0  0  0  0  0  0  0  0  0  0
  161.0840  206.7030  153.5870 C   0  0  0  0  0  0  0  0  0  0  0  0
  160.8810  205.4010  154.0240 O   0  0  0  0  0  1  0  0  0  0  0  0
  161.5140  209.3530  152.8330 C   0  0  0  0  0  3  0  0  0  0  0  0
  161.7660  208.3340  151.9100 C   0  0  0  0  0  0  0  0  0  0  0  0
  160.8330  207.7430  154.4820 C   0  0  0  0  0  3  0  0  0  0  0  0
  161.6970  210.9740  155.7260 C   0  0  0  0  0  0  0  0  0  0  0  0
  163.1140  210.8800  155.6180 N   0  0  0  0  0  1  0  0  0  0  0  0
  159.7720  211.6740  156.4020 N   0  0  0  0  0  0  0  0  0  0  0  0
  159.5590  210.6630  155.5360 C   0  0  0  0  0  0  0  0  0  0  0  0
  160.7740  210.1750  155.0730 C   0  0  0  0  0  0  0  0  0  0  0  0
  161.0760  211.8620  156.5220 N   0  0  0  0  0  2  0  0  0  0  0  0
  157.9130  210.1350  155.0530 S   0  0  0  0  0  0  0  0  0  0  0  0
  156.1250  213.6280  153.7420 C   0  0  0  0  0  0  0  0  0  0  0  0
  156.5710  212.6340  154.7760 C   0  0  1  0  0  3  0  0  0  0  0  0
  158.2800  211.9700  153.1020 C   0  0  0  0  0  3  0  0  0  0  0  0
  154.7330  214.4520  153.9540 S   0  0  0  0  0  0  0  0  0  0  0  0
  156.9780  213.9440  152.6360 N   0  0  0  0  0  0  0  0  0  0  0  0
  157.5790  211.6720  154.1990 C   0  0  0  0  0  0  0  0  0  0  0  0
  158.0000  213.2030  152.3300 C   0  0  0  0  0  0  0  0  0  0  0  0
  157.1490  213.3140  155.8520 O   0  0  0  0  0  0  0  0  0  0  0  0
  156.3880  212.9520  156.9650 C   0  0  0  0  0  1  0  0  0  0  0  0
  158.8040  213.5730  151.2480 O   0  0  0  0  0  0  0  0  0  0  0  0
  160.2160  213.4120  151.2470 C   0  0  0  0  0  2  0  0  0  0  0  0
  160.6080  212.5370  150.1540 N   0  0  0  0  0  1  0  0  0  0  0  0
  161.8540  204.5790  151.6400 C   0  0  0  0  0  1  0  0  0  0  0  0
  161.8260  205.9690  151.3480 O   0  0  0  0  0  0  0  0  0  0  0  0
  162.2520  208.7250  150.6170 N   0  0  0  0  0  2  0  0  0  0  0  0
  161.5910  208.4750  149.3440 C   0  0  0  0  0  2  0  0  0  0  0  0
  162.5030  207.6560  148.4460 C   0  0  0  0  0  2  0  0  0  0  0  0
  161.7870  206.4010  147.9700 C   0  0  1  0  0  3  0  0  0  0  0  0
  160.4230  206.4870  148.2600 O   0  0  0  0  0  1  0  0  0  0  0  0
  161.8240  203.6950  146.0940 C   0  0  0  0  0  2  0  0  0  0  0  0
  160.2130  205.2590  144.9940 C   0  0  0  0  0  3  0  0  0  0  0  0
  162.7820  204.8750  146.2210 C   0  0  0  0  0  2  0  0  0  0  0  0
  162.0170  206.1840  146.4730 C   0  0  1  0  0  3  0  0  0  0  0  0
  160.9110  203.9290  144.8970 C   0  0  0  0  0  2  0  0  0  0  0  0
  160.7320  206.2910  145.6750 C   0  0  0  0  0  3  0  0  0  0  0  0
  1  7  1  0  0  0  0
  1 12  1  0  0  0  0
  2  3  1  0  0  0  0
  3  4  1  0  0  0  0
  3  7  2  0  0  0  0
  5  1  2  0  0  0  0
  6  2  2  0  0  0  0
  6  5  1  0  0  0  0
  8 13  1  0  0  0  0
  9  8  1  0  0  0  0
 10 13  1  0  0  0  0
 11 10  2  0  0  0  0
 12 11  1  0  0  0  0
 12  8  2  0  0  0  0
 14 11  1  0  0  0  0
 15 18  2  0  0  0  0
 15 16  1  0  0  0  0
 16 22  1  1  0  0  0
 17 20  2  0  0  0  0
 19 15  1  0  0  0  0
 20 16  1  0  0  0  0
 20 14  1  0  0  0  0
 21 19  2  0  0  0  0
 21 17  1  0  0  0  0
 22 23  1  0  0  0  0
 24 21  1  0  0  0  0
 25 24  1  0  0  0  0
 26 25  1  0  0  0  0
 28 27  1  0  0  0  0
 28  2  1  0  0  0  0
 29  6  1  0  0  0  0
 30 29  1  0  0  0  0
 31 30  1  0  0  0  0
 32 33  1  6  0  0  0
 32 31  1  0  0  0  0
 34 36  1  0  0  0  0
 35 39  2  0  0  0  0
 36 37  1  0  0  0  0
 37 32  1  1  0  0  0
 38 35  1  0  0  0  0
 38 34  1  0  0  0  0
 39 37  1  0  0  0  0
M  END
>  <MODEL>
2

>  <REMARK>
 VINA RESULT:      -7.4      1.854      2.199
  Name = 
  12 active torsions:
  status: ('A' for Active; 'I' for Inactive)
    1  A    between atoms: S_1  and  C_19
    2  A    between atoms: S_1  and  C_30
    3  A    between atoms: C_2  and  C_32
    4  A    between atoms: C_5  and  C_13
    5  A    between atoms: C_5  and  C_38
    6  A    between atoms: C_9  and  O_23
    7  A    between atoms: C_12  and  O_35
    8  A    between atoms: O_18  and  C_22
    9  A    between atoms: O_18  and  C_39
   10  A    between atoms: C_26  and  N_34
   11  A    between atoms: C_26  and  C_38
   12  A    between atoms: C_29  and  N_34
                            x       y       z     vdW  Elec       q    Type
                         _______ _______ _______ _____ _____    ______ ____

>  <TORSDO>
F 12

$$$$
=
 OpenBabel11072415023D

 39 42  0  0  1  0  0  0  0  0999 V2000
  161.3800  207.4920  151.5850 C   0  0  0  0  0  0  0  0  0  0  0  0
  161.6130  207.0400  148.8010 C   0  0  0  0  0  0  0  0  0  0  0  0
  161.2850  205.9820  149.6830 C   0  0  0  0  0  0  0  0  0  0  0  0
  161.0850  204.6870  149.2250 O   0  0  0  0  0  1  0  0  0  0  0  0
  161.7200  208.5350  150.7190 C   0  0  0  0  0  3  0  0  0  0  0  0
  161.8340  208.3310  149.3410 C   0  0  0  0  0  0  0  0  0  0  0  0
  161.1690  206.2190  151.0520 C   0  0  0  0  0  3  0  0  0  0  0  0
  160.8860  206.8390  154.0260 C   0  0  0  0  0  0  0  0  0  0  0  0
  160.5140  205.4790  153.8240 N   0  0  0  0  0  1  0  0  0  0  0  0
  161.2620  208.6890  155.0690 N   0  0  0  0  0  0  0  0  0  0  0  0
  161.4940  208.9040  153.7590 C   0  0  0  0  0  0  0  0  0  0  0  0
  161.2610  207.7370  153.0410 C   0  0  0  0  0  0  0  0  0  0  0  0
  160.8870  207.4310  155.2330 N   0  0  0  0  0  2  0  0  0  0  0  0
  162.0810  210.4760  153.1260 S   0  0  0  0  0  0  0  0  0  0  0  0
  158.3230  211.5730  154.4650 C   0  0  0  0  0  0  0  0  0  0  0  0
  159.7960  211.3110  154.6090 C   0  0  1  0  0  3  0  0  0  0  0  0
  159.9060  211.7670  152.1720 C   0  0  0  0  0  3  0  0  0  0  0  0
  157.3130  211.2420  155.7030 S   0  0  0  0  0  0  0  0  0  0  0  0
  157.8230  212.2270  153.2930 N   0  0  0  0  0  0  0  0  0  0  0  0
  160.4630  211.2290  153.2600 C   0  0  0  0  0  0  0  0  0  0  0  0
  158.5450  212.3510  152.2200 C   0  0  0  0  0  0  0  0  0  0  0  0
  160.3790  212.3440  155.3480 O   0  0  0  0  0  0  0  0  0  0  0  0
  160.8620  211.7380  156.5090 C   0  0  0  0  0  1  0  0  0  0  0  0
  158.0060  213.0130  151.1140 O   0  0  0  0  0  0  0  0  0  0  0  0
  158.8070  213.5310  150.0600 C   0  0  0  0  0  2  0  0  0  0  0  0
  158.0590  213.4950  148.8150 N   0  0  0  0  0  1  0  0  0  0  0  0
  160.7040  206.4450  146.5420 C   0  0  0  0  0  1  0  0  0  0  0  0
  161.7490  206.8480  147.4160 O   0  0  0  0  0  0  0  0  0  0  0  0
  162.1880  209.4670  148.5370 N   0  0  0  0  0  2  0  0  0  0  0  0
  162.0360  210.8650  148.9190 C   0  0  0  0  0  2  0  0  0  0  0  0
  161.4070  211.6420  147.7760 C   0  0  0  0  0  2  0  0  0  0  0  0
  161.7780  213.1140  147.8710 C   0  0  1  0  0  3  0  0  0  0  0  0
  163.1620  213.2530  148.0060 O   0  0  0  0  0  1  0  0  0  0  0  0
  162.8050  213.2550  144.7450 C   0  0  0  0  0  2  0  0  0  0  0  0
  160.3740  212.6790  144.6330 C   0  0  0  0  0  3  0  0  0  0  0  0
  162.4360  214.3330  145.7590 C   0  0  0  0  0  2  0  0  0  0  0  0
  161.2670  213.8790  146.6480 C   0  0  1  0  0  3  0  0  0  0  0  0
  161.6080  213.0050  143.8360 C   0  0  0  0  0  2  0  0  0  0  0  0
  160.2030  213.1080  145.8920 C   0  0  0  0  0  3  0  0  0  0  0  0
  1 12  1  0  0  0  0
  2  6  2  0  0  0  0
  2  3  1  0  0  0  0
  3  7  2  0  0  0  0
  4  3  1  0  0  0  0
  5  1  2  0  0  0  0
  6  5  1  0  0  0  0
  7  1  1  0  0  0  0
  8 13  1  0  0  0  0
  9  8  1  0  0  0  0
 10 13  1  0  0  0  0
 11 10  2  0  0  0  0
 12 11  1  0  0  0  0
 12  8  2  0  0  0  0
 14 20  1  0  0  0  0
 14 11  1  0  0  0  0
 15 16  1  0  0  0  0
 15 18  2  0  0  0  0
 16 22  1  1  0  0  0
 17 21  1  0  0  0  0
 17 20  2  0  0  0  0
 19 15  1  0  0  0  0
 20 16  1  0  0  0  0
 21 19  2  0  0  0  0
 22 23  1  0  0  0  0
 24 21  1  0  0  0  0
 25 24  1  0  0  0  0
 26 25  1  0  0  0  0
 27 28  1  0  0  0  0
 28  2  1  0  0  0  0
 29 30  1  0  0  0  0
 29  6  1  0  0  0  0
 31 32  1  0  0  0  0
 31 30  1  0  0  0  0
 32 33  1  6  0  0  0
 34 36  1  0  0  0  0
 35 39  2  0  0  0  0
 36 37  1  0  0  0  0
 37 32  1  1  0  0  0
 38 35  1  0  0  0  0
 38 34  1  0  0  0  0
 39 37  1  0  0  0  0
M  END
>  <MODEL>
3

>  <REMARK>
 VINA RESULT:      -7.2      3.015      4.352
  Name = 
  12 active torsions:
  status: ('A' for Active; 'I' for Inactive)
    1  A    between atoms: S_1  and  C_19
    2  A    between atoms: S_1  and  C_30
    3  A    between atoms: C_2  and  C_32
    4  A    between atoms: C_5  and  C_13
    5  A    between atoms: C_5  and  C_38
    6  A    between atoms: C_9  and  O_23
    7  A    between atoms: C_12  and  O_35
    8  A    between atoms: O_18  and  C_22
    9  A    between atoms: O_18  and  C_39
   10  A    between atoms: C_26  and  N_34
   11  A    between atoms: C_26  and  C_38
   12  A    between atoms: C_29  and  N_34
                            x       y       z     vdW  Elec       q    Type
                         _______ _______ _______ _____ _____    ______ ____

>  <TORSDO>
F 12

$$$$
=
 OpenBabel11072415023D

 39 42  0  0  1  0  0  0  0  0999 V2000
  161.1300  208.1100  153.3180 C   0  0  0  0  0  0  0  0  0  0  0  0
  161.8950  207.4510  150.6750 C   0  0  0  0  0  0  0  0  0  0  0  0
  161.7070  208.8000  151.0600 C   0  0  0  0  0  0  0  0  0  0  0  0
  161.8690  209.8440  150.1600 O   0  0  0  0  0  1  0  0  0  0  0  0
  161.2990  206.7770  152.9370 C   0  0  0  0  0  3  0  0  0  0  0  0
  161.6830  206.4330  151.6370 C   0  0  0  0  0  0  0  0  0  0  0  0
  161.3330  209.1120  152.3670 C   0  0  0  0  0  3  0  0  0  0  0  0
  160.1730  207.6100  155.6560 C   0  0  0  0  0  0  0  0  0  0  0  0
  159.8530  206.2340  155.4790 N   0  0  0  0  0  1  0  0  0  0  0  0
  160.3330  209.5310  156.6250 N   0  0  0  0  0  0  0  0  0  0  0  0
  160.8140  209.6630  155.3730 C   0  0  0  0  0  0  0  0  0  0  0  0
  160.7290  208.4480  154.7040 C   0  0  0  0  0  0  0  0  0  0  0  0
  159.9380  208.2800  156.7970 N   0  0  0  0  0  2  0  0  0  0  0  0
  161.5080  211.2000  154.7610 S   0  0  0  0  0  0  0  0  0  0  0  0
  157.4290  211.8050  154.4210 C   0  0  0  0  0  0  0  0  0  0  0  0
  158.7150  211.5960  155.1680 C   0  0  1  0  0  3  0  0  0  0  0  0
  159.8030  212.5430  153.1470 C   0  0  0  0  0  3  0  0  0  0  0  0
  156.0400  211.1780  155.0020 S   0  0  0  0  0  0  0  0  0  0  0  0
  157.3990  212.6560  153.2690 N   0  0  0  0  0  0  0  0  0  0  0  0
  159.9040  211.8250  154.2690 C   0  0  0  0  0  0  0  0  0  0  0  0
  158.4890  213.0330  152.6710 C   0  0  0  0  0  0  0  0  0  0  0  0
  158.7740  212.4870  156.2440 O   0  0  0  0  0  0  0  0  0  0  0  0
  158.0230  211.8890  157.2570 C   0  0  0  0  0  1  0  0  0  0  0  0
  158.3950  213.8760  151.5610 O   0  0  0  0  0  0  0  0  0  0  0  0
  158.4500  213.3990  150.2230 C   0  0  0  0  0  2  0  0  0  0  0  0
  159.7880  213.5930  149.6890 N   0  0  0  0  0  1  0  0  0  0  0  0
  161.4420  207.2440  148.2190 C   0  0  0  0  0  1  0  0  0  0  0  0
  162.2620  207.0870  149.3680 O   0  0  0  0  0  0  0  0  0  0  0  0
  161.8300  205.0340  151.3460 N   0  0  0  0  0  2  0  0  0  0  0  0
  160.7500  204.0600  151.2660 C   0  0  0  0  0  2  0  0  0  0  0  0
  160.3800  203.8250  149.8110 C   0  0  0  0  0  2  0  0  0  0  0  0
  160.6470  202.3780  149.4250 C   0  0  1  0  0  3  0  0  0  0  0  0
  159.4480  201.7390  149.0980 O   0  0  0  0  0  1  0  0  0  0  0  0
  160.2780  201.7540  146.2130 C   0  0  0  0  0  2  0  0  0  0  0  0
  161.5340  203.9130  146.3430 C   0  0  0  0  0  3  0  0  0  0  0  0
  161.2370  201.2080  147.2660 C   0  0  0  0  0  2  0  0  0  0  0  0
  161.6430  202.3030  148.2660 C   0  0  1  0  0  3  0  0  0  0  0  0
  160.9840  202.8530  145.4280 C   0  0  0  0  0  2  0  0  0  0  0  0
  161.8680  203.6550  147.6160 C   0  0  0  0  0  3  0  0  0  0  0  0
  1 12  1  0  0  0  0
  2  3  2  0  0  0  0
  2  6  1  0  0  0  0
  3  7  1  0  0  0  0
  4  3  1  0  0  0  0
  5  1  1  0  0  0  0
  6  5  2  0  0  0  0
  7  1  2  0  0  0  0
  8 13  1  0  0  0  0
  9  8  1  0  0  0  0
 10 13  1  0  0  0  0
 11 10  2  0  0  0  0
 12 11  1  0  0  0  0
 12  8  2  0  0  0  0
 14 11  1  0  0  0  0
 15 18  2  0  0  0  0
 15 16  1  0  0  0  0
 16 22  1  1  0  0  0
 17 20  2  0  0  0  0
 19 15  1  0  0  0  0
 20 14  1  0  0  0  0
 20 16  1  0  0  0  0
 21 17  1  0  0  0  0
 21 19  2  0  0  0  0
 22 23  1  0  0  0  0
 24 21  1  0  0  0  0
 25 24  1  0  0  0  0
 26 25  1  0  0  0  0
 27 28  1  0  0  0  0
 28  2  1  0  0  0  0
 29  6  1  0  0  0  0
 30 29  1  0  0  0  0
 31 30  1  0  0  0  0
 32 33  1  6  0  0  0
 32 31  1  0  0  0  0
 34 36  1  0  0  0  0
 35 39  2  0  0  0  0
 36 37  1  0  0  0  0
 37 32  1  1  0  0  0
 38 34  1  0  0  0  0
 38 35  1  0  0  0  0
 39 37  1  0  0  0  0
M  END
>  <MODEL>
4

>  <REMARK>
 VINA RESULT:      -7.0      1.706      2.692
  Name = 
  12 active torsions:
  status: ('A' for Active; 'I' for Inactive)
    1  A    between atoms: S_1  and  C_19
    2  A    between atoms: S_1  and  C_30
    3  A    between atoms: C_2  and  C_32
    4  A    between atoms: C_5  and  C_13
    5  A    between atoms: C_5  and  C_38
    6  A    between atoms: C_9  and  O_23
    7  A    between atoms: C_12  and  O_35
    8  A    between atoms: O_18  and  C_22
    9  A    between atoms: O_18  and  C_39
   10  A    between atoms: C_26  and  N_34
   11  A    between atoms: C_26  and  C_38
   12  A    between atoms: C_29  and  N_34
                            x       y       z     vdW  Elec       q    Type
                         _______ _______ _______ _____ _____    ______ ____

>  <TORSDO>
F 12

$$$$
=
 OpenBabel11072415023D

 39 42  0  0  1  0  0  0  0  0999 V2000
  161.0390  208.8370  152.0080 C   0  0  0  0  0  0  0  0  0  0  0  0
  161.4470  206.0370  152.0160 C   0  0  0  0  0  0  0  0  0  0  0  0
  161.3250  206.7550  153.2290 C   0  0  0  0  0  0  0  0  0  0  0  0
  161.4190  206.1240  154.4620 O   0  0  0  0  0  1  0  0  0  0  0  0
  161.1760  208.1330  150.8090 C   0  0  0  0  0  3  0  0  0  0  0  0
  161.3720  206.7490  150.7930 C   0  0  0  0  0  0  0  0  0  0  0  0
  161.1200  208.1350  153.2120 C   0  0  0  0  0  3  0  0  0  0  0  0
  161.2800  211.2210  151.0650 C   0  0  0  0  0  0  0  0  0  0  0  0
  162.0770  210.9310  149.9210 N   0  0  0  0  0  1  0  0  0  0  0  0
  160.1840  212.3870  152.5120 N   0  0  0  0  0  0  0  0  0  0  0  0
  160.1270  211.0970  152.8980 C   0  0  0  0  0  0  0  0  0  0  0  0
  160.8250  210.3030  151.9960 C   0  0  1  0  0  3  0  0  0  0  0  0
  160.8910  212.4640  151.3950 N   0  0  0  0  0  0  0  0  0  0  0  0
  159.2070  210.5610  154.3420 S   0  0  0  0  0  0  0  0  0  0  0  0
  156.6000  213.5850  155.4270 C   0  0  0  0  0  0  0  0  0  0  0  0
  157.7920  212.6880  155.6050 C   0  0  1  0  0  3  0  0  0  0  0  0
  157.7550  212.4930  153.1300 C   0  0  0  0  0  3  0  0  0  0  0  0
  155.7350  214.0560  156.7280 S   0  0  0  0  0  0  0  0  0  0  0  0
  156.2950  214.1260  154.1360 N   0  0  0  0  0  0  0  0  0  0  0  0
  158.1510  212.0050  154.3090 C   0  0  0  0  0  0  0  0  0  0  0  0
  156.8360  213.6520  153.0530 C   0  0  0  0  0  0  0  0  0  0  0  0
  158.8810  213.4480  156.0400 O   0  0  0  0  0  0  0  0  0  0  0  0
  159.2590  212.8810  157.2580 C   0  0  0  0  0  1  0  0  0  0  0  0
  156.5110  214.2330  151.8250 O   0  0  0  0  0  0  0  0  0  0  0  0
  157.0650  213.7910  150.5930 C   0  0  0  0  0  2  0  0  0  0  0  0
  156.0180  213.7020  149.5890 N   0  0  0  0  0  1  0  0  0  0  0  0
  160.6440  203.6680  151.8610 C   0  0  0  0  0  1  0  0  0  0  0  0
  161.6640  204.6490  151.9830 O   0  0  0  0  0  0  0  0  0  0  0  0
  161.5010  206.1210  149.5090 N   0  0  0  0  0  2  0  0  0  0  0  0
  160.7390  206.4540  148.3140 C   0  0  0  0  0  2  0  0  0  0  0  0
  161.6160  206.2880  147.0850 C   0  0  0  0  0  2  0  0  0  0  0  0
  160.9570  205.3470  146.0880 C   0  0  1  0  0  3  0  0  0  0  0  0
  160.8750  205.9570  144.8330 O   0  0  0  0  0  1  0  0  0  0  0  0
  161.1290  202.7470  148.1020 C   0  0  0  0  0  2  0  0  0  0  0  0
  160.5230  201.8250  145.8570 C   0  0  0  0  0  3  0  0  0  0  0  0
  162.1960  203.5800  147.3990 C   0  0  0  0  0  2  0  0  0  0  0  0
  161.7230  204.0250  146.0060 C   0  0  1  0  0  3  0  0  0  0  0  0
  160.8690  201.4890  147.2830 C   0  0  0  0  0  2  0  0  0  0  0  0
  160.9420  202.9550  145.2680 C   0  0  0  0  0  3  0  0  0  0  0  0
  1  7  1  0  0  0  0
  2  3  1  0  0  0  0
  3  4  1  0  0  0  0
  5  1  2  0  0  0  0
  6  5  1  0  0  0  0
  6  2  2  0  0  0  0
  7  3  2  0  0  0  0
  8 13  2  0  0  0  0
  8 12  1  0  0  0  0
  9  8  1  0  0  0  0
 10 11  2  0  0  0  0
 11 14  1  0  0  0  0
 12  1  1  6  0  0  0
 12 11  1  0  0  0  0
 13 10  1  0  0  0  0
 15 16  1  0  0  0  0
 15 18  2  0  0  0  0
 16 22  1  6  0  0  0
 17 20  2  0  0  0  0
 19 15  1  0  0  0  0
 20 14  1  0  0  0  0
 20 16  1  0  0  0  0
 21 17  1  0  0  0  0
 21 19  2  0  0  0  0
 22 23  1  0  0  0  0
 24 21  1  0  0  0  0
 25 24  1  0  0  0  0
 26 25  1  0  0  0  0
 27 28  1  0  0  0  0
 28  2  1  0  0  0  0
 29  6  1  0  0  0  0
 30 29  1  0  0  0  0
 31 30  1  0  0  0  0
 32 33  1  6  0  0  0
 32 31  1  0  0  0  0
 35 38  1  0  0  0  0
 36 34  1  0  0  0  0
 37 32  1  1  0  0  0
 37 36  1  0  0  0  0
 38 34  1  0  0  0  0
 39 35  2  0  0  0  0
 39 37  1  0  0  0  0
M  END
>  <MODEL>
5

>  <REMARK>
 VINA RESULT:      -6.6      2.289      3.008
  Name = 
  12 active torsions:
  status: ('A' for Active; 'I' for Inactive)
    1  A    between atoms: S_1  and  C_19
    2  A    between atoms: S_1  and  C_30
    3  A    between atoms: C_2  and  C_32
    4  A    between atoms: C_5  and  C_13
    5  A    between atoms: C_5  and  C_38
    6  A    between atoms: C_9  and  O_23
    7  A    between atoms: C_12  and  O_35
    8  A    between atoms: O_18  and  C_22
    9  A    between atoms: O_18  and  C_39
   10  A    between atoms: C_26  and  N_34
   11  A    between atoms: C_26  and  C_38
   12  A    between atoms: C_29  and  N_34
                            x       y       z     vdW  Elec       q    Type
                         _______ _______ _______ _____ _____    ______ ____

>  <TORSDO>
F 12

$$$$
=
 OpenBabel11072415023D

 39 42  0  0  1  0  0  0  0  0999 V2000
  161.5600  207.1080  150.8830 C   0  0  0  0  0  0  0  0  0  0  0  0
  161.1950  204.5070  151.9360 C   0  0  0  0  0  0  0  0  0  0  0  0
  161.1680  205.6420  152.7810 C   0  0  0  0  0  0  0  0  0  0  0  0
  160.9840  205.5250  154.1520 O   0  0  0  0  0  1  0  0  0  0  0  0
  161.6030  205.9880  150.0480 C   0  0  0  0  0  3  0  0  0  0  0  0
  161.4190  204.6960  150.5500 C   0  0  0  0  0  0  0  0  0  0  0  0
  161.3460  206.9180  152.2490 C   0  0  0  0  0  3  0  0  0  0  0  0
  161.7350  208.8490  148.9940 C   0  0  0  0  0  0  0  0  0  0  0  0
  161.5450  207.9880  147.8760 N   0  0  0  0  0  1  0  0  0  0  0  0
  162.1050  210.6670  150.0950 N   0  0  0  0  0  0  0  0  0  0  0  0
  161.9890  209.6640  150.9880 C   0  0  0  0  0  0  0  0  0  0  0  0
  161.7520  208.4670  150.3240 C   0  0  1  0  0  3  0  0  0  0  0  0
  161.9550  210.1700  148.8770 N   0  0  0  0  0  0  0  0  0  0  0  0
  162.0720  209.9340  152.7600 S   0  0  0  0  0  0  0  0  0  0  0  0
  158.4270  211.7020  153.6010 C   0  0  0  0  0  0  0  0  0  0  0  0
  159.7490  211.0780  153.9490 C   0  0  1  0  0  3  0  0  0  0  0  0
  160.4610  211.8250  151.6910 C   0  0  0  0  0  3  0  0  0  0  0  0
  157.1330  211.4550  154.5640 S   0  0  0  0  0  0  0  0  0  0  0  0
  158.3300  212.6100  152.4980 N   0  0  0  0  0  0  0  0  0  0  0  0
  160.6530  211.0260  152.7440 C   0  0  0  0  0  0  0  0  0  0  0  0
  159.2720  212.7050  151.6080 C   0  0  0  0  0  0  0  0  0  0  0  0
  160.3640  211.8310  154.9530 O   0  0  0  0  0  0  0  0  0  0  0  0
  160.5580  210.9420  156.0120 C   0  0  0  0  0  1  0  0  0  0  0  0
  159.1270  213.6210  150.5630 O   0  0  0  0  0  0  0  0  0  0  0  0
  160.1840  213.9450  149.6700 C   0  0  0  0  0  2  0  0  0  0  0  0
  159.9690  213.2810  148.3960 N   0  0  0  0  0  1  0  0  0  0  0  0
  161.7870  202.0730  152.0090 C   0  0  0  0  0  1  0  0  0  0  0  0
  161.0310  203.2010  152.4270 O   0  0  0  0  0  0  0  0  0  0  0  0
  161.4820  203.6130  149.6090 N   0  0  0  0  0  2  0  0  0  0  0  0
  160.3680  203.0940  148.8280 C   0  0  0  0  0  2  0  0  0  0  0  0
  160.8360  201.9190  147.9870 C   0  0  0  0  0  2  0  0  0  0  0  0
  161.2410  202.3910  146.5990 C   0  0  1  0  0  3  0  0  0  0  0  0
  160.4540  201.7630  145.6300 O   0  0  0  0  0  1  0  0  0  0  0  0
  163.3310  204.7030  145.5360 C   0  0  0  0  0  2  0  0  0  0  0  0
  161.2070  205.0780  144.2700 C   0  0  0  0  0  3  0  0  0  0  0  0
  162.4820  204.5820  146.7970 C   0  0  0  0  0  2  0  0  0  0  0  0
  161.1310  203.9130  146.4920 C   0  0  1  0  0  3  0  0  0  0  0  0
  162.5990  205.5860  144.5330 C   0  0  0  0  0  2  0  0  0  0  0  0
  160.5280  204.3530  145.1730 C   0  0  0  0  0  3  0  0  0  0  0  0
  1  7  1  0  0  0  0
  2 28  1  0  0  0  0
  2  3  1  0  0  0  0
  3  4  1  0  0  0  0
  5  6  1  0  0  0  0
  5  1  2  0  0  0  0
  6  2  2  0  0  0  0
  7  3  2  0  0  0  0
  8 12  1  0  0  0  0
  9  8  1  0  0  0  0
 10 11  2  0  0  0  0
 11 14  1  0  0  0  0
 12  1  1  1  0  0  0
 12 11  1  0  0  0  0
 13  8  2  0  0  0  0
 13 10  1  0  0  0  0
 15 16  1  0  0  0  0
 15 18  2  0  0  0  0
 16 22  1  1  0  0  0
 17 20  2  0  0  0  0
 19 15  1  0  0  0  0
 20 14  1  0  0  0  0
 20 16  1  0  0  0  0
 21 17  1  0  0  0  0
 21 19  2  0  0  0  0
 22 23  1  0  0  0  0
 24 21  1  0  0  0  0
 25 24  1  0  0  0  0
 26 25  1  0  0  0  0
 27 28  1  0  0  0  0
 29  6  1  0  0  0  0
 30 29  1  0  0  0  0
 31 30  1  0  0  0  0
 32 33  1  6  0  0  0
 32 31  1  0  0  0  0
 34 36  1  0  0  0  0
 35 38  1  0  0  0  0
 35 39  2  0  0  0  0
 37 32  1  6  0  0  0
 37 36  1  0  0  0  0
 38 34  1  0  0  0  0
 39 37  1  0  0  0  0
M  END
>  <MODEL>
6

>  <REMARK>
 VINA RESULT:      -6.2      2.499      3.768
  Name = 
  12 active torsions:
  status: ('A' for Active; 'I' for Inactive)
    1  A    between atoms: S_1  and  C_19
    2  A    between atoms: S_1  and  C_30
    3  A    between atoms: C_2  and  C_32
    4  A    between atoms: C_5  and  C_13
    5  A    between atoms: C_5  and  C_38
    6  A    between atoms: C_9  and  O_23
    7  A    between atoms: C_12  and  O_35
    8  A    between atoms: O_18  and  C_22
    9  A    between atoms: O_18  and  C_39
   10  A    between atoms: C_26  and  N_34
   11  A    between atoms: C_26  and  C_38
   12  A    between atoms: C_29  and  N_34
                            x       y       z     vdW  Elec       q    Type
                         _______ _______ _______ _____ _____    ______ ____

>  <TORSDO>
F 12

$$$$
=
 OpenBabel11072415023D

 39 42  0  0  1  0  0  0  0  0999 V2000
  161.3210  207.6770  151.3480 C   0  0  0  0  0  0  0  0  0  0  0  0
  160.8270  208.4440  154.0260 C   0  0  0  0  0  0  0  0  0  0  0  0
  161.0400  207.0870  153.6880 C   0  0  0  0  0  0  0  0  0  0  0  0
  160.9960  206.0820  154.6460 O   0  0  0  0  0  1  0  0  0  0  0  0
  161.0940  209.0160  151.6750 C   0  0  0  0  0  3  0  0  0  0  0  0
  160.8550  209.4150  152.9940 C   0  0  0  0  0  0  0  0  0  0  0  0
  161.2860  206.7220  152.3650 C   0  0  0  0  0  3  0  0  0  0  0  0
  161.9340  208.0990  148.8820 C   0  0  0  0  0  0  0  0  0  0  0  0
  162.1050  209.5110  148.9310 N   0  0  0  0  0  1  0  0  0  0  0  0
  161.8320  206.1110  148.0500 N   0  0  0  0  0  0  0  0  0  0  0  0
  161.5300  206.0220  149.3610 C   0  0  0  0  0  0  0  0  0  0  0  0
  161.5780  207.2830  149.9430 C   0  0  1  0  0  3  0  0  0  0  0  0
  162.0750  207.3780  147.7560 N   0  0  0  0  0  0  0  0  0  0  0  0
  161.1940  204.4560  150.1710 S   0  0  0  0  0  0  0  0  0  0  0  0
  161.2150  201.5110  147.2650 C   0  0  0  0  0  0  0  0  0  0  0  0
  160.9010  202.0860  148.6170 C   0  0  1  0  0  3  0  0  0  0  0  0
  161.0120  204.2890  147.4780 C   0  0  0  0  0  3  0  0  0  0  0  0
  161.5850  199.9290  147.1200 S   0  0  0  0  0  0  0  0  0  0  0  0
  161.0700  202.3190  146.0910 N   0  0  0  0  0  0  0  0  0  0  0  0
  161.0510  203.5860  148.6130 C   0  0  0  0  0  0  0  0  0  0  0  0
  160.9500  203.6110  146.1630 C   0  0  0  0  0  0  0  0  0  0  0  0
  159.5870  201.7560  148.9640 O   0  0  0  0  0  0  0  0  0  0  0  0
  159.6800  201.1590  150.2220 C   0  0  0  0  0  1  0  0  0  0  0  0
  160.7960  204.3430  144.9830 O   0  0  0  0  0  0  0  0  0  0  0  0
  161.6780  205.3910  144.6050 C   0  0  0  0  0  2  0  0  0  0  0  0
  161.5680  205.6320  143.1760 N   0  0  0  0  0  1  0  0  0  0  0  0
  161.5570  209.2260  156.2930 C   0  0  0  0  0  1  0  0  0  0  0  0
  160.5660  208.8590  155.3430 O   0  0  0  0  0  0  0  0  0  0  0  0
  160.6340  210.8140  153.2250 N   0  0  0  0  0  2  0  0  0  0  0  0
  159.3400  211.4820  153.2540 C   0  0  0  0  0  2  0  0  0  0  0  0
  159.3480  212.5670  154.3170 C   0  0  0  0  0  2  0  0  0  0  0  0
  158.3440  213.6560  153.9700 C   0  0  1  0  0  3  0  0  0  0  0  0
  157.8850  213.4850  152.6610 O   0  0  0  0  0  1  0  0  0  0  0  0
  155.9810  211.4580  154.6270 C   0  0  0  0  0  2  0  0  0  0  0  0
  157.0530  211.9770  156.8260 C   0  0  0  0  0  3  0  0  0  0  0  0
  155.9480  212.9600  154.3620 C   0  0  0  0  0  2  0  0  0  0  0  0
  157.1810  213.6550  154.9640 C   0  0  1  0  0  3  0  0  0  0  0  0
  155.9510  211.2230  156.1320 C   0  0  0  0  0  2  0  0  0  0  0  0
  157.5830  213.0990  156.3160 C   0  0  0  0  0  3  0  0  0  0  0  0
  1  5  2  0  0  0  0
  1  7  1  0  0  0  0
  2 28  1  0  0  0  0
  3  2  1  0  0  0  0
  3  4  1  0  0  0  0
  5  6  1  0  0  0  0
  6 29  1  0  0  0  0
  6  2  2  0  0  0  0
  7  3  2  0  0  0  0
  8  9  1  0  0  0  0
  8 12  1  0  0  0  0
 10 11  2  0  0  0  0
 11 12  1  0  0  0  0
 11 14  1  0  0  0  0
 12  1  1  1  0  0  0
 13 10  1  0  0  0  0
 13  8  2  0  0  0  0
 15 16  1  0  0  0  0
 16 22  1  6  0  0  0
 17 20  2  0  0  0  0
 18 15  2  0  0  0  0
 19 21  2  0  0  0  0
 19 15  1  0  0  0  0
 20 16  1  0  0  0  0
 20 14  1  0  0  0  0
 21 17  1  0  0  0  0
 22 23  1  0  0  0  0
 24 21  1  0  0  0  0
 25 24  1  0  0  0  0
 26 25  1  0  0  0  0
 28 27  1  0  0  0  0
 29 30  1  0  0  0  0
 30 31  1  0  0  0  0
 32 33  1  6  0  0  0
 32 31  1  0  0  0  0
 34 38  1  0  0  0  0
 36 34  1  0  0  0  0
 36 37  1  0  0  0  0
 37 32  1  6  0  0  0
 37 39  1  0  0  0  0
 38 35  1  0  0  0  0
 39 35  2  0  0  0  0
M  END
>  <MODEL>
7

>  <REMARK>
 VINA RESULT:      -6.0      3.584      9.773
  Name = 
  12 active torsions:
  status: ('A' for Active; 'I' for Inactive)
    1  A    between atoms: S_1  and  C_19
    2  A    between atoms: S_1  and  C_30
    3  A    between atoms: C_2  and  C_32
    4  A    between atoms: C_5  and  C_13
    5  A    between atoms: C_5  and  C_38
    6  A    between atoms: C_9  and  O_23
    7  A    between atoms: C_12  and  O_35
    8  A    between atoms: O_18  and  C_22
    9  A    between atoms: O_18  and  C_39
   10  A    between atoms: C_26  and  N_34
   11  A    between atoms: C_26  and  C_38
   12  A    between atoms: C_29  and  N_34
                            x       y       z     vdW  Elec       q    Type
                         _______ _______ _______ _____ _____    ______ ____

>  <TORSDO>
F 12

$$$$
=
 OpenBabel11072415023D

 39 42  0  0  1  0  0  0  0  0999 V2000
  160.5480  209.5460  153.7190 C   0  0  0  0  0  0  0  0  0  0  0  0
  159.6990  212.2000  154.2130 C   0  0  0  0  0  0  0  0  0  0  0  0
  160.4710  211.4960  155.1680 C   0  0  0  0  0  0  0  0  0  0  0  0
  160.8220  212.0660  156.3840 O   0  0  0  0  0  1  0  0  0  0  0  0
  159.7720  210.2330  152.7810 C   0  0  0  0  0  3  0  0  0  0  0  0
  159.3490  211.5460  153.0060 C   0  0  0  0  0  0  0  0  0  0  0  0
  160.8860  210.1900  154.9110 C   0  0  0  0  0  3  0  0  0  0  0  0
  160.8980  207.0610  154.2940 C   0  0  0  0  0  0  0  0  0  0  0  0
  160.3690  207.0590  155.6160 N   0  0  0  0  0  1  0  0  0  0  0  0
  161.8280  206.3130  152.4970 N   0  0  0  0  0  0  0  0  0  0  0  0
  161.5860  207.6260  152.3170 C   0  0  0  0  0  0  0  0  0  0  0  0
  160.9890  208.1570  153.4530 C   0  0  0  0  0  0  0  0  0  0  0  0
  161.4120  205.9670  153.7050 N   0  0  0  0  0  2  0  0  0  0  0  0
  161.9520  208.4730  150.7780 S   0  0  0  0  0  0  0  0  0  0  0  0
  160.7630  206.0420  147.6480 C   0  0  0  0  0  0  0  0  0  0  0  0
  161.5550  207.1480  148.2870 C   0  0  1  0  0  3  0  0  0  0  0  0
  161.1910  205.9060  150.4050 C   0  0  0  0  0  3  0  0  0  0  0  0
  160.2730  206.1830  146.0980 S   0  0  0  0  0  0  0  0  0  0  0  0
  160.5440  204.8160  148.3550 N   0  0  0  0  0  0  0  0  0  0  0  0
  161.5010  207.0500  149.7900 C   0  0  0  0  0  0  0  0  0  0  0  0
  160.7570  204.7180  149.6330 C   0  0  0  0  0  0  0  0  0  0  0  0
  162.8860  207.0630  147.8680 O   0  0  0  0  0  0  0  0  0  0  0  0
  162.9080  206.0400  146.9190 C   0  0  0  0  0  1  0  0  0  0  0  0
  160.5400  203.4900  150.2630 O   0  0  0  0  0  0  0  0  0  0  0  0
  160.2640  202.2940  149.5470 C   0  0  0  0  0  2  0  0  0  0  0  0
  161.2890  201.3040  149.8340 N   0  0  0  0  0  1  0  0  0  0  0  0
  158.0690  213.8620  155.1410 C   0  0  0  0  0  1  0  0  0  0  0  0
  159.2490  213.5130  154.4310 O   0  0  0  0  0  0  0  0  0  0  0  0
  158.5560  212.1630  151.9800 N   0  0  0  0  0  2  0  0  0  0  0  0
  158.7890  213.4750  151.3920 C   0  0  0  0  0  2  0  0  0  0  0  0
  159.9670  213.4050  150.4360 C   0  0  0  0  0  2  0  0  0  0  0  0
  159.4780  213.3640  148.9960 C   0  0  1  0  0  3  0  0  0  0  0  0
  158.1520  213.7990  148.9270 O   0  0  0  0  0  1  0  0  0  0  0  0
  162.5560  212.9410  147.9040 C   0  0  0  0  0  2  0  0  0  0  0  0
  161.1670  213.3620  145.8670 C   0  0  0  0  0  3  0  0  0  0  0  0
  161.8450  214.1240  148.5530 C   0  0  0  0  0  2  0  0  0  0  0  0
  160.3800  214.2090  148.0950 C   0  0  1  0  0  3  0  0  0  0  0  0
  162.5590  213.1380  146.3930 C   0  0  0  0  0  2  0  0  0  0  0  0
  160.1910  213.8830  146.6260 C   0  0  0  0  0  3  0  0  0  0  0  0
  1  7  1  0  0  0  0
  2 28  1  0  0  0  0
  2  3  1  0  0  0  0
  3  4  1  0  0  0  0
  5  6  1  0  0  0  0
  5  1  2  0  0  0  0
  6  2  2  0  0  0  0
  7  3  2  0  0  0  0
  8  9  1  0  0  0  0
 10 13  1  0  0  0  0
 11 10  2  0  0  0  0
 11 12  1  0  0  0  0
 12  1  1  0  0  0  0
 12  8  2  0  0  0  0
 13  8  1  0  0  0  0
 14 11  1  0  0  0  0
 15 16  1  0  0  0  0
 15 19  1  0  0  0  0
 16 22  1  6  0  0  0
 16 20  1  0  0  0  0
 18 15  2  0  0  0  0
 19 21  2  0  0  0  0
 20 17  2  0  0  0  0
 20 14  1  0  0  0  0
 21 24  1  0  0  0  0
 21 17  1  0  0  0  0
 23 22  1  0  0  0  0
 25 26  1  0  0  0  0
 25 24  1  0  0  0  0
 28 27  1  0  0  0  0
 29  6  1  0  0  0  0
 30 29  1  0  0  0  0
 31 30  1  0  0  0  0
 32 33  1  1  0  0  0
 32 31  1  0  0  0  0
 34 36  1  0  0  0  0
 35 38  1  0  0  0  0
 35 39  2  0  0  0  0
 37 36  1  0  0  0  0
 37 32  1  1  0  0  0
 38 34  1  0  0  0  0
 39 37  1  0  0  0  0
M  END
>  <MODEL>
8

>  <REMARK>
 VINA RESULT:      -5.9      3.192      7.928
  Name = 
  12 active torsions:
  status: ('A' for Active; 'I' for Inactive)
    1  A    between atoms: S_1  and  C_19
    2  A    between atoms: S_1  and  C_30
    3  A    between atoms: C_2  and  C_32
    4  A    between atoms: C_5  and  C_13
    5  A    between atoms: C_5  and  C_38
    6  A    between atoms: C_9  and  O_23
    7  A    between atoms: C_12  and  O_35
    8  A    between atoms: O_18  and  C_22
    9  A    between atoms: O_18  and  C_39
   10  A    between atoms: C_26  and  N_34
   11  A    between atoms: C_26  and  C_38
   12  A    between atoms: C_29  and  N_34
                            x       y       z     vdW  Elec       q    Type
                         _______ _______ _______ _____ _____    ______ ____

>  <TORSDO>
F 12

$$$$
=
 OpenBabel11072415023D

 39 42  0  0  1  0  0  0  0  0999 V2000
  161.3590  207.6390  151.2160 C   0  0  0  0  0  0  0  0  0  0  0  0
  160.8120  208.4420  153.8730 C   0  0  0  0  0  0  0  0  0  0  0  0
  160.9620  207.0730  153.5460 C   0  0  0  0  0  0  0  0  0  0  0  0
  160.8280  206.0760  154.5020 O   0  0  0  0  0  1  0  0  0  0  0  0
  161.1950  208.9900  151.5330 C   0  0  0  0  0  3  0  0  0  0  0  0
  160.9310  209.4050  152.8410 C   0  0  0  0  0  0  0  0  0  0  0  0
  161.2350  206.6910  152.2330 C   0  0  0  0  0  3  0  0  0  0  0  0
  162.0250  208.0280  148.7590 C   0  0  0  0  0  0  0  0  0  0  0  0
  162.2000  209.4410  148.7940 N   0  0  0  0  0  1  0  0  0  0  0  0
  161.9360  206.0300  147.9500 N   0  0  0  0  0  0  0  0  0  0  0  0
  161.6060  205.9590  149.2550 C   0  0  0  0  0  0  0  0  0  0  0  0
  161.6450  207.2270  149.8220 C   0  0  1  0  0  3  0  0  0  0  0  0
  162.1880  207.2930  147.6450 N   0  0  0  0  0  0  0  0  0  0  0  0
  161.2470  204.4050  150.0770 S   0  0  0  0  0  0  0  0  0  0  0  0
  161.1980  201.4560  147.1750 C   0  0  0  0  0  0  0  0  0  0  0  0
  160.9230  202.0290  148.5360 C   0  0  1  0  0  3  0  0  0  0  0  0
  160.9770  204.2320  147.3920 C   0  0  0  0  0  3  0  0  0  0  0  0
  161.5760  199.8770  147.0180 S   0  0  0  0  0  0  0  0  0  0  0  0
  161.0070  202.2610  146.0060 N   0  0  0  0  0  0  0  0  0  0  0  0
  161.0600  203.5310  148.5260 C   0  0  0  0  0  0  0  0  0  0  0  0
  160.8780  203.5520  146.0800 C   0  0  0  0  0  0  0  0  0  0  0  0
  159.6250  201.6890  148.9270 O   0  0  0  0  0  0  0  0  0  0  0  0
  159.7580  201.1470  150.2060 C   0  0  0  0  0  1  0  0  0  0  0  0
  160.6790  204.2810  144.9050 O   0  0  0  0  0  0  0  0  0  0  0  0
  161.4670  205.4110  144.5560 C   0  0  0  0  0  2  0  0  0  0  0  0
  161.2400  205.7540  143.1610 N   0  0  0  0  0  1  0  0  0  0  0  0
  161.3040  209.8090  155.9160 C   0  0  0  0  0  1  0  0  0  0  0  0
  160.5270  208.8750  155.1790 O   0  0  0  0  0  0  0  0  0  0  0  0
  160.7790  210.8160  153.0630 N   0  0  0  0  0  2  0  0  0  0  0  0
  159.6240  211.6210  152.6890 C   0  0  0  0  0  2  0  0  0  0  0  0
  159.9310  212.3980  151.4210 C   0  0  0  0  0  2  0  0  0  0  0  0
  158.7690  213.3150  151.0690 C   0  0  1  0  0  3  0  0  0  0  0  0
  158.3980  214.0690  152.1850 O   0  0  0  0  0  1  0  0  0  0  0  0
  160.7410  212.8930  148.4650 C   0  0  0  0  0  2  0  0  0  0  0  0
  158.5320  213.6060  147.5330 C   0  0  0  0  0  3  0  0  0  0  0  0
  160.6020  214.0210  149.4820 C   0  0  0  0  0  2  0  0  0  0  0  0
  159.1340  214.2200  149.8910 C   0  0  1  0  0  3  0  0  0  0  0  0
  159.9620  213.2640  147.2090 C   0  0  0  0  0  2  0  0  0  0  0  0
  158.1640  214.0750  148.7340 C   0  0  0  0  0  3  0  0  0  0  0  0
  1  5  2  0  0  0  0
  1  7  1  0  0  0  0
  2 28  1  0  0  0  0
  3  2  1  0  0  0  0
  3  4  1  0  0  0  0
  5  6  1  0  0  0  0
  6 29  1  0  0  0  0
  6  2  2  0  0  0  0
  7  3  2  0  0  0  0
  8  9  1  0  0  0  0
  8 12  1  0  0  0  0
 10 11  2  0  0  0  0
 11 12  1  0  0  0  0
 11 14  1  0  0  0  0
 12  1  1  1  0  0  0
 13 10  1  0  0  0  0
 13  8  2  0  0  0  0
 15 16  1  0  0  0  0
 16 22  1  6  0  0  0
 17 20  2  0  0  0  0
 18 15  2  0  0  0  0
 19 21  2  0  0  0  0
 19 15  1  0  0  0  0
 20 16  1  0  0  0  0
 20 14  1  0  0  0  0
 21 17  1  0  0  0  0
 22 23  1  0  0  0  0
 24 21  1  0  0  0  0
 25 24  1  0  0  0  0
 26 25  1  0  0  0  0
 28 27  1  0  0  0  0
 30 29  1  0  0  0  0
 31 30  1  0  0  0  0
 32 31  1  0  0  0  0
 32 33  1  1  0  0  0
 34 36  1  0  0  0  0
 35 39  2  0  0  0  0
 36 37  1  0  0  0  0
 37 32  1  1  0  0  0
 38 35  1  0  0  0  0
 38 34  1  0  0  0  0
 39 37  1  0  0  0  0
M  END
>  <MODEL>
9

>  <REMARK>
 VINA RESULT:      -5.6      3.697      8.986
  Name = 
  12 active torsions:
  status: ('A' for Active; 'I' for Inactive)
    1  A    between atoms: S_1  and  C_19
    2  A    between atoms: S_1  and  C_30
    3  A    between atoms: C_2  and  C_32
    4  A    between atoms: C_5  and  C_13
    5  A    between atoms: C_5  and  C_38
    6  A    between atoms: C_9  and  O_23
    7  A    between atoms: C_12  and  O_35
    8  A    between atoms: O_18  and  C_22
    9  A    between atoms: O_18  and  C_39
   10  A    between atoms: C_26  and  N_34
   11  A    between atoms: C_26  and  C_38
   12  A    between atoms: C_29  and  N_34
                            x       y       z     vdW  Elec       q    Type
                         _______ _______ _______ _____ _____    ______ ____

>  <TORSDO>
F 12

$$$$
