=
 OpenBabel11072414533D

 47 52  0  0  1  0  0  0  0  0999 V2000
  162.9670  208.4250  151.7290 O   0  0  0  0  0  1  0  0  0  0  0  0
  161.8300  208.9820  151.1320 C   0  0  2  0  0  0  0  0  0  0  0  0
  162.2780  210.5380  152.9430 O   0  0  0  0  0  1  0  0  0  0  0  0
  161.3100  210.1370  152.0180 C   0  0  2  0  0  3  0  0  0  0  0  0
  160.0030  209.8000  152.7330 C   0  0  0  0  0  2  0  0  0  0  0  0
  157.9100  213.0540  150.7010 C   0  0  0  0  0  3  0  0  0  0  0  0
  158.1810  211.7540  154.0980 C   0  0  0  0  0  0  0  0  0  0  0  0
  158.4580  212.3980  152.9950 C   0  0  0  0  0  0  0  0  0  0  0  0
  158.5660  212.1710  157.0080 C   0  0  0  0  0  2  0  0  0  0  0  0
  161.0220  209.4180  154.9230 N   0  0  0  0  0  0  0  0  0  0  0  0
  159.2380  211.0180  154.8380 C   0  0  0  0  0  0  0  0  0  0  0  0
  160.1040  210.1030  154.1950 C   0  0  0  0  0  0  0  0  0  0  0  0
  159.8140  214.2900  150.4170 C   0  0  0  0  0  3  0  0  0  0  0  0
  160.3350  210.4810  156.9000 N   0  0  0  0  0  0  0  0  0  0  0  0
  161.1440  209.6020  156.2580 C   0  0  0  0  0  3  0  0  0  0  0  0
  158.5580  213.8050  149.8210 C   0  0  0  0  0  3  0  0  0  0  0  0
  156.7480  211.6080  154.4980 C   0  0  0  0  0  2  0  0  0  0  0  0
  157.0920  211.8140  156.9840 C   0  0  0  0  0  2  0  0  0  0  0  0
  159.3840  211.1840  156.2320 C   0  0  0  0  0  0  0  0  0  0  0  0
  158.7360  213.0330  151.8930 C   0  0  0  0  0  0  0  0  0  0  0  0
  159.9250  213.8290  151.6550 C   0  0  0  0  0  3  0  0  0  0  0  0
  156.4250  212.4120  155.7520 C   0  0  0  0  0  2  0  0  0  0  0  0
  160.7590  207.8850  150.9490 C   0  0  0  0  0  2  0  0  0  0  0  0
  160.8520  206.7330  151.9430 C   0  0  0  0  0  2  0  0  0  0  0  0
  161.6100  205.5630  151.3510 C   0  0  0  0  0  2  0  0  0  0  0  0
  160.7740  204.9370  150.2540 C   0  0  0  0  0  2  0  0  0  0  0  0
  160.9260  201.6220  150.7410 C   0  0  2  0  0  3  0  0  0  0  0  0
  160.6450  202.5790  151.8790 C   0  0  0  0  0  2  0  0  0  0  0  0
  161.7840  202.8550  150.8970 C   0  0  2  0  0  3  0  0  0  0  0  0
  160.0030  201.8430  149.7050 O   0  0  0  0  0  0  0  0  0  0  0  0
  161.4170  203.7170  149.7790 N   0  0  0  0  0  0  0  0  0  0  0  0
  160.4510  202.9670  148.9840 C   0  0  1  0  0  3  0  0  0  0  0  0
  161.6200  201.1500  147.6820 C   0  0  0  0  0  2  0  0  0  0  0  0
  160.4240  201.4380  146.7890 C   0  0  0  0  0  2  0  0  0  0  0  0
  161.0390  202.5460  147.6260 C   0  0  0  0  0  0  0  0  0  0  0  0
  161.9190  203.4160  146.9730 O   0  0  0  0  0  0  0  0  0  0  0  0
  161.5450  203.4080  145.7070 O   0  0  0  0  0  0  0  0  0  0  0  0
  162.7220  205.7980  145.6400 O   0  0  0  0  0  1  0  0  0  0  0  0
  161.2320  205.0410  145.3480 S   0  0  1  0  0  0  0  0  0  0  0  0
  161.1210  205.0550  143.8320 O   0  0  0  0  0  0  0  0  0  0  0  0
  162.2200  209.5240  149.7370 C   0  0  1  0  0  3  0  0  0  0  0  0
  161.6370  208.6840  148.6040 C   0  0  0  0  0  2  0  0  0  0  0  0
  162.5610  207.7170  148.2070 O   0  0  0  0  0  1  0  0  0  0  0  0
  161.7790  210.9750  149.5530 C   0  0  0  0  0  2  0  0  0  0  0  0
  161.3610  212.7430  146.3800 C   0  0  0  0  0  1  0  0  0  0  0  0
  161.2890  212.3740  147.7660 N   0  0  0  0  0  0  0  0  0  0  0  0
  161.8590  211.3440  148.1660 N   0  0  0  0  0  0  0  0  0  0  0  0
  2  1  1  1  0  0  0
  2  4  1  0  0  0  0
  4  5  1  0  0  0  0
  4  3  1  1  0  0  0
  5 12  1  0  0  0  0
  6 20  1  0  0  0  0
  7 17  1  0  0  0  0
  7 11  1  0  0  0  0
  8  7  2  0  0  0  0
 10 15  1  0  0  0  0
 11 19  2  0  0  0  0
 12 11  1  0  0  0  0
 12 10  2  0  0  0  0
 13 21  2  0  0  0  0
 15 14  2  0  0  0  0
 16 13  1  0  0  0  0
 16  6  2  0  0  0  0
 17 22  1  0  0  0  0
 18  9  1  0  0  0  0
 19 14  1  0  0  0  0
 19  9  1  0  0  0  0
 20  8  2  0  0  0  0
 21 20  1  0  0  0  0
 22 18  1  0  0  0  0
 23  2  1  0  0  0  0
 23 24  1  0  0  0  0
 25 24  1  0  0  0  0
 26 25  1  0  0  0  0
 27 29  1  0  0  0  0
 27 28  1  1  0  0  0
 29 28  1  1  0  0  0
 30 27  1  0  0  0  0
 31 26  1  0  0  0  0
 31 29  1  0  0  0  0
 32 35  1  6  0  0  0
 32 30  1  0  0  0  0
 32 31  1  0  0  0  0
 34 35  1  0  0  0  0
 34 33  1  0  0  0  0
 35 33  1  0  0  0  0
 36 35  1  0  0  0  0
 37 36  1  0  0  0  0
 39 40  2  6  0  0  0
 39 38  1  0  0  0  0
 39 37  1  0  0  0  0
 41 42  1  6  0  0  0
 41  2  1  0  0  0  0
 43 42  1  0  0  0  0
 44 41  1  0  0  0  0
 45 46  1  0  0  0  0
 46 47  2  0  0  0  0
 47 44  1  0  0  0  0
M  END
>  <MODEL>
1

>  <REMARK>
 VINA RESULT:      -6.2      0.000      0.000
  Name = 
  16 active torsions:
  status: ('A' for Active; 'I' for Inactive)
    1  A    between atoms: O_7  and  O_32
    2  A    between atoms: O_7  and  C_47
    3  A    between atoms: C_11  and  C_27
    4  A    between atoms: C_11  and  C_29
    5  A    between atoms: C_12  and  C_24
    6  A    between atoms: C_12  and  C_43
    7  A    between atoms: C_17  and  C_20
    8  A    between atoms: C_17  and  C_26
    9  A    between atoms: C_17  and  C_43
   10  A    between atoms: C_20  and  C_29
   11  A    between atoms: N_21  and  C_27
   12  A    between atoms: C_22  and  C_26
   13  A    between atoms: C_22  and  N_45
   14  A    between atoms: C_23  and  C_47
   15  A    between atoms: C_25  and  C_26
   16  A    between atoms: O_32  and  S_42
                            x       y       z     vdW  Elec       q    Type
                         _______ _______ _______ _____ _____    ______ ____

>  <TORSDO>
F 16

$$$$
=
 OpenBabel11072414533D

 47 52  0  0  1  0  0  0  0  0999 V2000
  163.1570  208.1460  151.3120 O   0  0  0  0  0  1  0  0  0  0  0  0
  162.0870  208.9850  150.9740 C   0  0  2  0  0  0  0  0  0  0  0  0
  163.5210  210.5980  152.0900 O   0  0  0  0  0  1  0  0  0  0  0  0
  162.1910  210.2890  151.7980 C   0  0  2  0  0  3  0  0  0  0  0  0
  161.3630  210.2530  153.0810 C   0  0  0  0  0  2  0  0  0  0  0  0
  161.4210  208.2640  156.9710 C   0  0  0  0  0  3  0  0  0  0  0  0
  160.4010  211.5010  155.6340 C   0  0  0  0  0  0  0  0  0  0  0  0
  160.3830  210.2340  155.9520 C   0  0  0  0  0  0  0  0  0  0  0  0
  158.4370  213.7110  155.4140 C   0  0  0  0  0  2  0  0  0  0  0  0
  159.9360  211.8580  151.9100 N   0  0  0  0  0  0  0  0  0  0  0  0
  159.9220  211.9620  154.3060 C   0  0  0  0  0  0  0  0  0  0  0  0
  160.3660  211.3690  153.1010 C   0  0  0  0  0  0  0  0  0  0  0  0
  159.6900  206.8660  156.4400 C   0  0  0  0  0  3  0  0  0  0  0  0
  158.6170  213.4770  152.9830 N   0  0  0  0  0  0  0  0  0  0  0  0
  159.0700  212.8960  151.8450 C   0  0  0  0  0  3  0  0  0  0  0  0
  161.0110  207.0070  157.0740 C   0  0  0  0  0  3  0  0  0  0  0  0
  161.0930  212.4570  156.5520 C   0  0  0  0  0  2  0  0  0  0  0  0
  159.5060  214.3880  156.2520 C   0  0  0  0  0  2  0  0  0  0  0  0
  159.0240  213.0470  154.2060 C   0  0  0  0  0  0  0  0  0  0  0  0
  160.3700  208.9700  156.2630 C   0  0  0  0  0  0  0  0  0  0  0  0
  159.3040  208.0360  155.9520 C   0  0  0  0  0  3  0  0  0  0  0  0
  160.1090  213.3970  157.2380 C   0  0  0  0  0  2  0  0  0  0  0  0
  160.7560  208.2500  151.2450 C   0  0  0  0  0  2  0  0  0  0  0  0
  160.8610  207.0830  152.2200 C   0  0  0  0  0  2  0  0  0  0  0  0
  161.6550  205.9420  151.6190 C   0  0  0  0  0  2  0  0  0  0  0  0
  160.8110  205.2530  150.5660 C   0  0  0  0  0  2  0  0  0  0  0  0
  161.0570  201.9940  151.3200 C   0  0  2  0  0  3  0  0  0  0  0  0
  160.8210  203.0390  152.3880 C   0  0  0  0  0  2  0  0  0  0  0  0
  161.8970  203.2480  151.3220 C   0  0  2  0  0  3  0  0  0  0  0  0
  160.0730  202.1120  150.3240 O   0  0  0  0  0  0  0  0  0  0  0  0
  161.4510  204.0070  150.1590 N   0  0  0  0  0  0  0  0  0  0  0  0
  160.4570  203.1770  149.4870 C   0  0  1  0  0  3  0  0  0  0  0  0
  161.5740  201.2680  148.2740 C   0  0  0  0  0  2  0  0  0  0  0  0
  160.3290  201.4770  147.4260 C   0  0  0  0  0  2  0  0  0  0  0  0
  160.9760  202.6520  148.1380 C   0  0  0  0  0  0  0  0  0  0  0  0
  161.8120  203.4710  147.3700 O   0  0  0  0  0  0  0  0  0  0  0  0
  161.4010  203.3230  146.1250 O   0  0  0  0  0  0  0  0  0  0  0  0
  161.1360  205.9270  145.6210 O   0  0  0  0  0  0  0  0  0  0  0  0
  162.1410  204.6030  145.2810 S   0  0  1  0  0  0  0  0  0  0  0  0
  163.3900  204.8900  146.0990 O   0  0  0  0  0  1  0  0  0  0  0  0
  162.1710  209.3080  149.4650 C   0  0  1  0  0  3  0  0  0  0  0  0
  161.5590  208.2080  148.6010 C   0  0  0  0  0  2  0  0  0  0  0  0
  162.5380  207.2790  148.2510 O   0  0  0  0  0  1  0  0  0  0  0  0
  161.4880  210.6330  149.1330 C   0  0  0  0  0  2  0  0  0  0  0  0
  162.6700  213.1190  146.7270 C   0  0  0  0  0  1  0  0  0  0  0  0
  161.8330  212.3290  147.5850 N   0  0  0  0  0  0  0  0  0  0  0  0
  162.3300  211.4250  148.2800 N   0  0  0  0  0  0  0  0  0  0  0  0
  2 23  1  0  0  0  0
  2  1  1  1  0  0  0
  2  4  1  0  0  0  0
  4  3  1  1  0  0  0
  4  5  1  0  0  0  0
  5 12  1  0  0  0  0
  6 16  2  0  0  0  0
  7  8  2  0  0  0  0
  7 17  1  0  0  0  0
  8 20  2  0  0  0  0
  9 18  1  0  0  0  0
 10 12  1  0  0  0  0
 11  7  1  0  0  0  0
 12 11  2  0  0  0  0
 13 16  1  0  0  0  0
 14 19  2  0  0  0  0
 15 10  2  0  0  0  0
 15 14  1  0  0  0  0
 17 22  1  0  0  0  0
 18 22  1  0  0  0  0
 19 11  1  0  0  0  0
 19  9  1  0  0  0  0
 20  6  1  0  0  0  0
 21 20  1  0  0  0  0
 21 13  2  0  0  0  0
 23 24  1  0  0  0  0
 25 24  1  0  0  0  0
 26 25  1  0  0  0  0
 27 29  1  0  0  0  0
 27 28  1  1  0  0  0
 29 28  1  1  0  0  0
 30 27  1  0  0  0  0
 31 26  1  0  0  0  0
 31 29  1  0  0  0  0
 32 35  1  6  0  0  0
 32 31  1  0  0  0  0
 32 30  1  0  0  0  0
 34 35  1  0  0  0  0
 34 33  1  0  0  0  0
 35 33  1  0  0  0  0
 36 35  1  0  0  0  0
 37 36  1  0  0  0  0
 39 38  2  1  0  0  0
 39 40  1  0  0  0  0
 39 37  1  0  0  0  0
 41 42  1  6  0  0  0
 41  2  1  0  0  0  0
 43 42  1  0  0  0  0
 44 41  1  0  0  0  0
 45 46  1  0  0  0  0
 46 47  2  0  0  0  0
 47 44  1  0  0  0  0
M  END
>  <MODEL>
2

>  <REMARK>
 VINA RESULT:      -6.1      1.568      3.459
  Name = 
  16 active torsions:
  status: ('A' for Active; 'I' for Inactive)
    1  A    between atoms: O_7  and  O_32
    2  A    between atoms: O_7  and  C_47
    3  A    between atoms: C_11  and  C_27
    4  A    between atoms: C_11  and  C_29
    5  A    between atoms: C_12  and  C_24
    6  A    between atoms: C_12  and  C_43
    7  A    between atoms: C_17  and  C_20
    8  A    between atoms: C_17  and  C_26
    9  A    between atoms: C_17  and  C_43
   10  A    between atoms: C_20  and  C_29
   11  A    between atoms: N_21  and  C_27
   12  A    between atoms: C_22  and  C_26
   13  A    between atoms: C_22  and  N_45
   14  A    between atoms: C_23  and  C_47
   15  A    between atoms: C_25  and  C_26
   16  A    between atoms: O_32  and  S_42
                            x       y       z     vdW  Elec       q    Type
                         _______ _______ _______ _____ _____    ______ ____

>  <TORSDO>
F 16

$$$$
=
 OpenBabel11072414533D

 47 52  0  0  1  0  0  0  0  0999 V2000
  162.9320  207.7830  151.1620 O   0  0  0  0  0  1  0  0  0  0  0  0
  161.6920  208.4330  151.1770 C   0  0  2  0  0  0  0  0  0  0  0  0
  160.3890  207.0180  152.6600 O   0  0  0  0  0  1  0  0  0  0  0  0
  161.0440  208.2480  152.5680 C   0  0  2  0  0  3  0  0  0  0  0  0
  160.0920  209.3830  152.9400 C   0  0  0  0  0  2  0  0  0  0  0  0
  158.0500  212.6190  150.8300 C   0  0  0  0  0  3  0  0  0  0  0  0
  158.3380  211.4250  154.2640 C   0  0  0  0  0  0  0  0  0  0  0  0
  158.6150  212.0250  153.1370 C   0  0  0  0  0  0  0  0  0  0  0  0
  158.7740  211.9270  157.1530 C   0  0  0  0  0  2  0  0  0  0  0  0
  161.1320  209.0480  155.1280 N   0  0  0  0  0  0  0  0  0  0  0  0
  159.3860  210.6870  155.0140 C   0  0  0  0  0  0  0  0  0  0  0  0
  160.2210  209.7310  154.3900 C   0  0  0  0  0  0  0  0  0  0  0  0
  159.9790  213.7990  150.4810 C   0  0  0  0  0  3  0  0  0  0  0  0
  160.4990  210.1920  157.0780 N   0  0  0  0  0  0  0  0  0  0  0  0
  161.2780  209.2720  156.4550 C   0  0  0  0  0  3  0  0  0  0  0  0
  158.7030  213.3250  149.9170 C   0  0  0  0  0  3  0  0  0  0  0  0
  156.9070  211.3280  154.6880 C   0  0  0  0  0  2  0  0  0  0  0  0
  157.2910  211.6060  157.1610 C   0  0  0  0  0  2  0  0  0  0  0  0
  159.5560  210.8950  156.4000 C   0  0  0  0  0  0  0  0  0  0  0  0
  158.8910  212.6170  152.0110 C   0  0  0  0  0  0  0  0  0  0  0  0
  160.0960  213.3750  151.7310 C   0  0  0  0  0  3  0  0  0  0  0  0
  156.6220  212.1790  155.9190 C   0  0  0  0  0  2  0  0  0  0  0  0
  160.7980  207.8570  150.0570 C   0  0  0  0  0  2  0  0  0  0  0  0
  161.4460  206.7490  149.2340 C   0  0  0  0  0  2  0  0  0  0  0  0
  161.8820  207.2630  147.8780 C   0  0  0  0  0  2  0  0  0  0  0  0
  162.3270  206.0920  147.0250 C   0  0  0  0  0  2  0  0  0  0  0  0
  160.8230  203.9070  144.9730 C   0  0  2  0  0  3  0  0  0  0  0  0
  161.4250  205.1950  144.4560 C   0  0  0  0  0  2  0  0  0  0  0  0
  160.5340  205.1990  145.6990 C   0  0  2  0  0  3  0  0  0  0  0  0
  161.7940  203.1920  145.6940 O   0  0  0  0  0  0  0  0  0  0  0  0
  161.2610  205.0980  146.9600 N   0  0  0  0  0  0  0  0  0  0  0  0
  161.8690  203.7710  146.9750 C   0  0  1  0  0  3  0  0  0  0  0  0
  160.2310  201.8990  147.3920 C   0  0  0  0  0  2  0  0  0  0  0  0
  161.4790  201.3660  148.0770 C   0  0  0  0  0  2  0  0  0  0  0  0
  161.2130  202.8600  148.0260 C   0  0  0  0  0  0  0  0  0  0  0  0
  160.6560  203.4410  149.1710 O   0  0  0  0  0  0  0  0  0  0  0  0
  160.4080  202.4360  149.9900 O   0  0  0  0  0  0  0  0  0  0  0  0
  162.2330  201.8790  151.8510 O   0  0  0  0  0  1  0  0  0  0  0  0
  160.9810  202.9700  151.5010 S   0  0  1  0  0  0  0  0  0  0  0  0
  161.7190  204.2560  151.1650 O   0  0  0  0  0  0  0  0  0  0  0  0
  161.9190  209.9370  150.8980 C   0  0  1  0  0  3  0  0  0  0  0  0
  163.2230  210.4500  151.5030 C   0  0  0  0  0  2  0  0  0  0  0  0
  163.0960  210.5490  152.8890 O   0  0  0  0  0  1  0  0  0  0  0  0
  161.9180  210.2380  149.4000 C   0  0  0  0  0  2  0  0  0  0  0  0
  162.5740  213.4670  147.8160 C   0  0  0  0  0  1  0  0  0  0  0  0
  162.1520  212.1160  148.0550 N   0  0  0  0  0  0  0  0  0  0  0  0
  162.3370  211.5930  149.1680 N   0  0  0  0  0  0  0  0  0  0  0  0
  2  1  1  6  0  0  0
  2  4  1  0  0  0  0
  4  3  1  6  0  0  0
  4  5  1  0  0  0  0
  5 12  1  0  0  0  0
  6 20  1  0  0  0  0
  7 17  1  0  0  0  0
  7 11  1  0  0  0  0
  8  7  2  0  0  0  0
  9 18  1  0  0  0  0
 10 15  1  0  0  0  0
 11 19  2  0  0  0  0
 12 11  1  0  0  0  0
 12 10  2  0  0  0  0
 13 21  2  0  0  0  0
 15 14  2  0  0  0  0
 16 13  1  0  0  0  0
 16  6  2  0  0  0  0
 17 22  1  0  0  0  0
 19 14  1  0  0  0  0
 19  9  1  0  0  0  0
 20  8  2  0  0  0  0
 21 20  1  0  0  0  0
 22 18  1  0  0  0  0
 23  2  1  0  0  0  0
 24 23  1  0  0  0  0
 25 24  1  0  0  0  0
 26 25  1  0  0  0  0
 27 28  1  6  0  0  0
 27 30  1  0  0  0  0
 27 29  1  0  0  0  0
 29 28  1  6  0  0  0
 29 31  1  0  0  0  0
 30 32  1  0  0  0  0
 31 32  1  0  0  0  0
 31 26  1  0  0  0  0
 32 35  1  1  0  0  0
 33 35  1  0  0  0  0
 33 34  1  0  0  0  0
 35 34  1  0  0  0  0
 35 36  1  0  0  0  0
 36 37  1  0  0  0  0
 37 39  1  0  0  0  0
 39 40  2  6  0  0  0
 39 38  1  0  0  0  0
 41 44  1  6  0  0  0
 41  2  1  0  0  0  0
 41 42  1  0  0  0  0
 42 43  1  0  0  0  0
 45 46  1  0  0  0  0
 46 47  2  0  0  0  0
 47 44  1  0  0  0  0
M  END
>  <MODEL>
3

>  <REMARK>
 VINA RESULT:      -5.9      1.865      3.167
  Name = 
  16 active torsions:
  status: ('A' for Active; 'I' for Inactive)
    1  A    between atoms: O_7  and  O_32
    2  A    between atoms: O_7  and  C_47
    3  A    between atoms: C_11  and  C_27
    4  A    between atoms: C_11  and  C_29
    5  A    between atoms: C_12  and  C_24
    6  A    between atoms: C_12  and  C_43
    7  A    between atoms: C_17  and  C_20
    8  A    between atoms: C_17  and  C_26
    9  A    between atoms: C_17  and  C_43
   10  A    between atoms: C_20  and  C_29
   11  A    between atoms: N_21  and  C_27
   12  A    between atoms: C_22  and  C_26
   13  A    between atoms: C_22  and  N_45
   14  A    between atoms: C_23  and  C_47
   15  A    between atoms: C_25  and  C_26
   16  A    between atoms: O_32  and  S_42
                            x       y       z     vdW  Elec       q    Type
                         _______ _______ _______ _____ _____    ______ ____

>  <TORSDO>
F 16

$$$$
=
 OpenBabel11072414533D

 47 52  0  0  1  0  0  0  0  0999 V2000
  162.7930  212.8750  148.5820 O   0  0  0  0  0  1  0  0  0  0  0  0
  161.4880  212.3720  148.6550 C   0  0  2  0  0  0  0  0  0  0  0  0
  161.3450  214.4530  149.8990 O   0  0  0  0  0  1  0  0  0  0  0  0
  160.6450  213.2910  149.5680 C   0  0  2  0  0  3  0  0  0  0  0  0
  160.1550  212.5890  150.8330 C   0  0  0  0  0  2  0  0  0  0  0  0
  161.7620  210.1480  154.0810 C   0  0  0  0  0  3  0  0  0  0  0  0
  159.0930  212.5940  153.6390 C   0  0  0  0  0  0  0  0  0  0  0  0
  159.7490  211.4650  153.6210 C   0  0  0  0  0  0  0  0  0  0  0  0
  156.2860  213.4660  154.0320 C   0  0  0  0  0  2  0  0  0  0  0  0
  157.9670  213.4350  150.1410 N   0  0  0  0  0  0  0  0  0  0  0  0
  158.2580  213.0100  152.4830 C   0  0  0  0  0  0  0  0  0  0  0  0
  158.7530  213.0000  151.1580 C   0  0  0  0  0  0  0  0  0  0  0  0
  160.8900  208.2060  153.2410 C   0  0  0  0  0  3  0  0  0  0  0  0
  156.1960  213.8760  151.6190 N   0  0  0  0  0  0  0  0  0  0  0  0
  156.7020  213.8660  150.3610 C   0  0  0  0  0  3  0  0  0  0  0  0
  162.0460  208.8710  153.8650 C   0  0  0  0  0  3  0  0  0  0  0  0
  159.3510  213.5510  154.7580 C   0  0  0  0  0  2  0  0  0  0  0  0
  156.9930  214.4020  154.9950 C   0  0  0  0  0  2  0  0  0  0  0  0
  156.9380  213.4710  152.6820 C   0  0  0  0  0  0  0  0  0  0  0  0
  160.4080  210.3420  153.5980 C   0  0  0  0  0  0  0  0  0  0  0  0
  159.9090  209.0830  153.0770 C   0  0  0  0  0  3  0  0  0  0  0  0
  158.1450  213.6810  155.6810 C   0  0  0  0  0  2  0  0  0  0  0  0
  161.5280  210.9250  149.1920 C   0  0  0  0  0  2  0  0  0  0  0  0
  162.0550  209.8930  148.2020 C   0  0  0  0  0  2  0  0  0  0  0  0
  161.7970  208.4840  148.6950 C   0  0  0  0  0  2  0  0  0  0  0  0
  162.0240  207.5120  147.5540 C   0  0  0  0  0  2  0  0  0  0  0  0
  161.4270  204.4400  146.3500 C   0  0  2  0  0  3  0  0  0  0  0  0
  161.8760  205.5710  145.4500 C   0  0  0  0  0  2  0  0  0  0  0  0
  160.7550  205.7870  146.4680 C   0  0  2  0  0  3  0  0  0  0  0  0
  162.3370  204.2960  147.4100 O   0  0  0  0  0  0  0  0  0  0  0  0
  161.2010  206.3230  147.7490 N   0  0  0  0  0  0  0  0  0  0  0  0
  162.0280  205.2880  148.3600 C   0  0  1  0  0  3  0  0  0  0  0  0
  161.4410  205.5800  150.7950 C   0  0  0  0  0  2  0  0  0  0  0  0
  160.0810  205.2630  150.1950 C   0  0  0  0  0  2  0  0  0  0  0  0
  161.3430  204.6700  149.5910 C   0  0  0  0  0  0  0  0  0  0  0  0
  161.6540  203.3530  149.9480 O   0  0  0  0  0  0  0  0  0  0  0  0
  160.5260  202.8340  150.3930 O   0  0  0  0  0  0  0  0  0  0  0  0
  158.7850  201.2500  149.1400 O   0  0  0  0  0  1  0  0  0  0  0  0
  160.4150  201.3280  149.6080 S   0  0  1  0  0  0  0  0  0  0  0  0
  161.1460  201.5590  148.2950 O   0  0  0  0  0  0  0  0  0  0  0  0
  160.8870  212.3500  147.2310 C   0  0  1  0  0  3  0  0  0  0  0  0
  159.4470  212.8540  147.2000 C   0  0  0  0  0  2  0  0  0  0  0  0
  158.7340  212.1920  146.2010 O   0  0  0  0  0  1  0  0  0  0  0  0
  161.7210  213.1780  146.2540 C   0  0  0  0  0  2  0  0  0  0  0  0
  161.4410  212.3150  142.7120 C   0  0  0  0  0  1  0  0  0  0  0  0
  161.9330  212.4740  144.0520 N   0  0  0  0  0  0  0  0  0  0  0  0
  161.2220  213.0150  144.9160 N   0  0  0  0  0  0  0  0  0  0  0  0
  2  1  1  6  0  0  0
  2 23  1  0  0  0  0
  2  4  1  0  0  0  0
  4  3  1  1  0  0  0
  4  5  1  0  0  0  0
  5 12  1  0  0  0  0
  7 17  1  0  0  0  0
  8  7  2  0  0  0  0
  9 18  1  0  0  0  0
 10 15  2  0  0  0  0
 10 12  1  0  0  0  0
 11 19  1  0  0  0  0
 11  7  1  0  0  0  0
 12 11  2  0  0  0  0
 13 16  1  0  0  0  0
 14 19  2  0  0  0  0
 15 14  1  0  0  0  0
 16  6  2  0  0  0  0
 17 22  1  0  0  0  0
 18 22  1  0  0  0  0
 19  9  1  0  0  0  0
 20  8  2  0  0  0  0
 20  6  1  0  0  0  0
 21 13  2  0  0  0  0
 21 20  1  0  0  0  0
 24 25  1  0  0  0  0
 24 23  1  0  0  0  0
 26 31  1  0  0  0  0
 26 25  1  0  0  0  0
 27 28  1  6  0  0  0
 27 29  1  0  0  0  0
 27 30  1  0  0  0  0
 29 28  1  6  0  0  0
 29 31  1  0  0  0  0
 30 32  1  0  0  0  0
 31 32  1  0  0  0  0
 32 35  1  1  0  0  0
 34 33  1  0  0  0  0
 35 36  1  0  0  0  0
 35 34  1  0  0  0  0
 35 33  1  0  0  0  0
 36 37  1  0  0  0  0
 38 39  1  0  0  0  0
 39 40  2  6  0  0  0
 39 37  1  0  0  0  0
 41 44  1  6  0  0  0
 41  2  1  0  0  0  0
 42 41  1  0  0  0  0
 43 42  1  0  0  0  0
 45 46  1  0  0  0  0
 46 47  2  0  0  0  0
 47 44  1  0  0  0  0
M  END
>  <MODEL>
4

>  <REMARK>
 VINA RESULT:      -5.6      2.881      4.858
  Name = 
  16 active torsions:
  status: ('A' for Active; 'I' for Inactive)
    1  A    between atoms: O_7  and  O_32
    2  A    between atoms: O_7  and  C_47
    3  A    between atoms: C_11  and  C_27
    4  A    between atoms: C_11  and  C_29
    5  A    between atoms: C_12  and  C_24
    6  A    between atoms: C_12  and  C_43
    7  A    between atoms: C_17  and  C_20
    8  A    between atoms: C_17  and  C_26
    9  A    between atoms: C_17  and  C_43
   10  A    between atoms: C_20  and  C_29
   11  A    between atoms: N_21  and  C_27
   12  A    between atoms: C_22  and  C_26
   13  A    between atoms: C_22  and  N_45
   14  A    between atoms: C_23  and  C_47
   15  A    between atoms: C_25  and  C_26
   16  A    between atoms: O_32  and  S_42
                            x       y       z     vdW  Elec       q    Type
                         _______ _______ _______ _____ _____    ______ ____

>  <TORSDO>
F 16

$$$$
=
 OpenBabel11072414533D

 47 52  0  0  1  0  0  0  0  0999 V2000
  160.2540  207.9960  151.0620 O   0  0  0  0  0  1  0  0  0  0  0  0
  161.5820  208.2950  151.3880 C   0  0  2  0  0  0  0  0  0  0  0  0
  162.7740  210.0460  152.5780 O   0  0  0  0  0  1  0  0  0  0  0  0
  161.6890  209.7980  151.7330 C   0  0  2  0  0  3  0  0  0  0  0  0
  160.4070  210.3660  152.3380 C   0  0  0  0  0  2  0  0  0  0  0  0
  158.0000  213.1970  150.0390 C   0  0  0  0  0  3  0  0  0  0  0  0
  158.6930  212.5070  153.5530 C   0  0  0  0  0  0  0  0  0  0  0  0
  158.8240  212.9540  152.3320 C   0  0  0  0  0  0  0  0  0  0  0  0
  159.3930  213.4250  156.2840 C   0  0  0  0  0  2  0  0  0  0  0  0
  161.6780  210.3780  154.4270 N   0  0  0  0  0  0  0  0  0  0  0  0
  159.8480  211.9200  154.2800 C   0  0  0  0  0  0  0  0  0  0  0  0
  160.6640  210.9170  153.7050 C   0  0  0  0  0  0  0  0  0  0  0  0
  159.8210  214.3860  149.3290 C   0  0  0  0  0  3  0  0  0  0  0  0
  161.1880  211.7600  156.2600 N   0  0  0  0  0  0  0  0  0  0  0  0
  161.9450  210.7910  155.6880 C   0  0  0  0  0  3  0  0  0  0  0  0
  158.5210  213.7920  148.9750 C   0  0  0  0  0  3  0  0  0  0  0  0
  157.3190  212.4180  154.1370 C   0  0  0  0  0  2  0  0  0  0  0  0
  157.9360  213.0540  156.4940 C   0  0  0  0  0  2  0  0  0  0  0  0
  160.1470  212.3270  155.5980 C   0  0  0  0  0  0  0  0  0  0  0  0
  158.9560  213.3910  151.1130 C   0  0  0  0  0  0  0  0  0  0  0  0
  160.0860  214.1460  150.6060 C   0  0  0  0  0  3  0  0  0  0  0  0
  157.1170  213.4230  155.2640 C   0  0  0  0  0  2  0  0  0  0  0  0
  162.4970  207.9220  150.2000 C   0  0  0  0  0  2  0  0  0  0  0  0
  161.7690  207.7280  148.8750 C   0  0  0  0  0  2  0  0  0  0  0  0
  161.5170  206.2590  148.6030 C   0  0  0  0  0  2  0  0  0  0  0  0
  160.4580  206.1310  147.5270 C   0  0  0  0  0  2  0  0  0  0  0  0
  162.6840  204.4950  145.6260 C   0  0  2  0  0  3  0  0  0  0  0  0
  162.6130  206.0070  145.6410 C   0  0  0  0  0  2  0  0  0  0  0  0
  161.3390  205.1710  145.5100 C   0  0  2  0  0  3  0  0  0  0  0  0
  162.8380  204.0210  146.9400 O   0  0  0  0  0  0  0  0  0  0  0  0
  160.6660  204.8990  146.7750 N   0  0  0  0  0  0  0  0  0  0  0  0
  161.5650  204.0400  147.5390 C   0  0  1  0  0  3  0  0  0  0  0  0
  161.7000  201.8490  148.7810 C   0  0  0  0  0  2  0  0  0  0  0  0
  160.2190  202.1710  148.8980 C   0  0  0  0  0  2  0  0  0  0  0  0
  161.0040  202.6140  147.6770 C   0  0  0  0  0  0  0  0  0  0  0  0
  160.8890  201.8200  146.5300 O   0  0  0  0  0  0  0  0  0  0  0  0
  161.3420  200.6310  146.8810 O   0  0  0  0  0  0  0  0  0  0  0  0
  160.0900  200.5300  144.5300 O   0  0  0  0  0  0  0  0  0  0  0  0
  160.5400  199.5500  145.8400 S   0  0  1  0  0  0  0  0  0  0  0  0
  161.6680  198.7020  145.2730 O   0  0  0  0  0  1  0  0  0  0  0  0
  161.9950  207.4440  152.6100 C   0  0  1  0  0  3  0  0  0  0  0  0
  160.8170  207.1430  153.5330 C   0  0  0  0  0  2  0  0  0  0  0  0
  161.2050  207.2980  154.8640 O   0  0  0  0  0  1  0  0  0  0  0  0
  162.6400  206.1250  152.1870 C   0  0  0  0  0  2  0  0  0  0  0  0
  160.7340  203.0050  152.1590 C   0  0  0  0  0  1  0  0  0  0  0  0
  161.5660  204.1090  151.7710 N   0  0  0  0  0  0  0  0  0  0  0  0
  161.8100  205.0200  152.5820 N   0  0  0  0  0  0  0  0  0  0  0  0
  2  1  1  6  0  0  0
  2  4  1  0  0  0  0
  2 41  1  0  0  0  0
  4  5  1  0  0  0  0
  4  3  1  1  0  0  0
  5 12  1  0  0  0  0
  6 20  1  0  0  0  0
  7 17  1  0  0  0  0
  7 11  1  0  0  0  0
  8  7  2  0  0  0  0
  9 18  1  0  0  0  0
 10 15  1  0  0  0  0
 11 19  2  0  0  0  0
 12 11  1  0  0  0  0
 12 10  2  0  0  0  0
 13 21  2  0  0  0  0
 15 14  2  0  0  0  0
 16 13  1  0  0  0  0
 16  6  2  0  0  0  0
 17 22  1  0  0  0  0
 19 14  1  0  0  0  0
 19  9  1  0  0  0  0
 20  8  2  0  0  0  0
 21 20  1  0  0  0  0
 22 18  1  0  0  0  0
 23  2  1  0  0  0  0
 24 23  1  0  0  0  0
 25 24  1  0  0  0  0
 26 25  1  0  0  0  0
 27 28  1  1  0  0  0
 27 30  1  0  0  0  0
 29 27  1  0  0  0  0
 29 28  1  1  0  0  0
 29 31  1  0  0  0  0
 30 32  1  0  0  0  0
 31 26  1  0  0  0  0
 31 32  1  0  0  0  0
 32 35  1  6  0  0  0
 33 34  1  0  0  0  0
 35 33  1  0  0  0  0
 35 34  1  0  0  0  0
 36 37  1  0  0  0  0
 36 35  1  0  0  0  0
 39 38  2  6  0  0  0
 39 37  1  0  0  0  0
 40 39  1  0  0  0  0
 41 44  1  6  0  0  0
 41 42  1  0  0  0  0
 42 43  1  0  0  0  0
 44 47  1  0  0  0  0
 46 45  1  0  0  0  0
 46 47  2  0  0  0  0
M  END
>  <MODEL>
5

>  <REMARK>
 VINA RESULT:      -5.5      2.287      3.995
  Name = 
  16 active torsions:
  status: ('A' for Active; 'I' for Inactive)
    1  A    between atoms: O_7  and  O_32
    2  A    between atoms: O_7  and  C_47
    3  A    between atoms: C_11  and  C_27
    4  A    between atoms: C_11  and  C_29
    5  A    between atoms: C_12  and  C_24
    6  A    between atoms: C_12  and  C_43
    7  A    between atoms: C_17  and  C_20
    8  A    between atoms: C_17  and  C_26
    9  A    between atoms: C_17  and  C_43
   10  A    between atoms: C_20  and  C_29
   11  A    between atoms: N_21  and  C_27
   12  A    between atoms: C_22  and  C_26
   13  A    between atoms: C_22  and  N_45
   14  A    between atoms: C_23  and  C_47
   15  A    between atoms: C_25  and  C_26
   16  A    between atoms: O_32  and  S_42
                            x       y       z     vdW  Elec       q    Type
                         _______ _______ _______ _____ _____    ______ ____

>  <TORSDO>
F 16

$$$$
=
 OpenBabel11072414533D

 47 52  0  0  1  0  0  0  0  0999 V2000
  163.3180  211.1110  149.5180 O   0  0  0  0  0  1  0  0  0  0  0  0
  161.9620  210.8410  149.7360 C   0  0  2  0  0  0  0  0  0  0  0  0
  162.8690  210.4140  151.9490 O   0  0  0  0  0  1  0  0  0  0  0  0
  161.7040  210.7560  151.2580 C   0  0  2  0  0  3  0  0  0  0  0  0
  160.5730  209.7960  151.6200 C   0  0  0  0  0  2  0  0  0  0  0  0
  162.6490  206.1120  152.7210 C   0  0  0  0  0  3  0  0  0  0  0  0
  161.2100  208.9900  154.4390 C   0  0  0  0  0  0  0  0  0  0  0  0
  161.3110  207.8430  153.8210 C   0  0  0  0  0  0  0  0  0  0  0  0
  159.5420  210.1510  156.5980 C   0  0  0  0  0  2  0  0  0  0  0  0
  158.8120  211.2090  152.5600 N   0  0  0  0  0  0  0  0  0  0  0  0
  160.1070  209.9330  154.1230 C   0  0  0  0  0  0  0  0  0  0  0  0
  159.7980  210.3070  152.7940 C   0  0  0  0  0  0  0  0  0  0  0  0
  160.8470  204.7870  152.2380 C   0  0  0  0  0  3  0  0  0  0  0  0
  158.3610  211.4030  154.8560 N   0  0  0  0  0  0  0  0  0  0  0  0
  158.0960  211.7520  153.5720 C   0  0  0  0  0  3  0  0  0  0  0  0
  162.3060  204.9670  152.1470 C   0  0  0  0  0  3  0  0  0  0  0  0
  162.3320  209.4220  155.3280 C   0  0  0  0  0  2  0  0  0  0  0  0
  160.9230  210.5400  157.0910 C   0  0  0  0  0  2  0  0  0  0  0  0
  159.3480  210.5200  155.1590 C   0  0  0  0  0  0  0  0  0  0  0  0
  161.4140  206.7040  153.1990 C   0  0  0  0  0  0  0  0  0  0  0  0
  160.3100  205.8240  152.8640 C   0  0  0  0  0  3  0  0  0  0  0  0
  161.9200  209.4280  156.7960 C   0  0  0  0  0  2  0  0  0  0  0  0
  161.5820  209.5240  149.0250 C   0  0  0  0  0  2  0  0  0  0  0  0
  162.0220  208.2590  149.7530 C   0  0  0  0  0  2  0  0  0  0  0  0
  161.1550  207.0790  149.3650 C   0  0  0  0  0  2  0  0  0  0  0  0
  161.9740  206.1200  148.5230 C   0  0  0  0  0  2  0  0  0  0  0  0
  161.4610  204.6120  145.5720 C   0  0  2  0  0  3  0  0  0  0  0  0
  162.0890  205.9850  145.6620 C   0  0  0  0  0  2  0  0  0  0  0  0
  160.8300  205.6540  146.4640 C   0  0  2  0  0  3  0  0  0  0  0  0
  162.1860  203.7130  146.3730 O   0  0  0  0  0  0  0  0  0  0  0  0
  161.0870  205.1960  147.8250 N   0  0  0  0  0  0  0  0  0  0  0  0
  161.7660  203.9110  147.7020 C   0  0  1  0  0  3  0  0  0  0  0  0
  161.5720  201.8930  149.2030 C   0  0  0  0  0  2  0  0  0  0  0  0
  160.3260  202.6750  149.5870 C   0  0  0  0  0  2  0  0  0  0  0  0
  160.8720  202.7510  148.1720 C   0  0  0  0  0  0  0  0  0  0  0  0
  160.2480  201.9470  147.2110 O   0  0  0  0  0  0  0  0  0  0  0  0
  160.8280  200.7660  147.3110 O   0  0  0  0  0  0  0  0  0  0  0  0
  160.9380  198.6730  145.6650 O   0  0  0  0  0  1  0  0  0  0  0  0
  161.2150  200.3470  145.7080 S   0  0  1  0  0  0  0  0  0  0  0  0
  160.0560  200.9150  144.9050 O   0  0  0  0  0  0  0  0  0  0  0  0
  161.1250  211.9880  149.1240 C   0  0  1  0  0  3  0  0  0  0  0  0
  160.5860  212.9440  150.1850 C   0  0  0  0  0  2  0  0  0  0  0  0
  159.2860  213.3310  149.8580 O   0  0  0  0  0  1  0  0  0  0  0  0
  161.9290  212.7880  148.1010 C   0  0  0  0  0  2  0  0  0  0  0  0
  159.6850  212.2260  145.2700 C   0  0  0  0  0  1  0  0  0  0  0  0
  160.1960  212.4690  146.5900 N   0  0  0  0  0  0  0  0  0  0  0  0
  161.4220  212.5510  146.7770 N   0  0  0  0  0  0  0  0  0  0  0  0
  2  1  1  6  0  0  0
  2  4  1  0  0  0  0
  4  5  1  0  0  0  0
  4  3  1  1  0  0  0
  5 12  1  0  0  0  0
  6 20  1  0  0  0  0
  7 17  1  0  0  0  0
  8  7  2  0  0  0  0
  9 18  1  0  0  0  0
 10 12  2  0  0  0  0
 10 15  1  0  0  0  0
 11  7  1  0  0  0  0
 11 19  2  0  0  0  0
 12 11  1  0  0  0  0
 13 21  2  0  0  0  0
 14 19  1  0  0  0  0
 15 14  2  0  0  0  0
 16 13  1  0  0  0  0
 16  6  2  0  0  0  0
 17 22  1  0  0  0  0
 19  9  1  0  0  0  0
 20  8  2  0  0  0  0
 21 20  1  0  0  0  0
 22 18  1  0  0  0  0
 23  2  1  0  0  0  0
 23 24  1  0  0  0  0
 25 24  1  0  0  0  0
 26 25  1  0  0  0  0
 27 28  1  6  0  0  0
 27 30  1  0  0  0  0
 27 29  1  0  0  0  0
 29 28  1  1  0  0  0
 29 31  1  0  0  0  0
 30 32  1  0  0  0  0
 31 26  1  0  0  0  0
 32 31  1  0  0  0  0
 32 35  1  6  0  0  0
 33 34  1  0  0  0  0
 35 33  1  0  0  0  0
 35 34  1  0  0  0  0
 36 37  1  0  0  0  0
 36 35  1  0  0  0  0
 38 39  1  0  0  0  0
 39 40  2  6  0  0  0
 39 37  1  0  0  0  0
 41 44  1  6  0  0  0
 41  2  1  0  0  0  0
 41 42  1  0  0  0  0
 43 42  1  0  0  0  0
 45 46  1  0  0  0  0
 46 47  2  0  0  0  0
 47 44  1  0  0  0  0
M  END
>  <MODEL>
6

>  <REMARK>
 VINA RESULT:      -5.4      2.219      4.580
  Name = 
  16 active torsions:
  status: ('A' for Active; 'I' for Inactive)
    1  A    between atoms: O_7  and  O_32
    2  A    between atoms: O_7  and  C_47
    3  A    between atoms: C_11  and  C_27
    4  A    between atoms: C_11  and  C_29
    5  A    between atoms: C_12  and  C_24
    6  A    between atoms: C_12  and  C_43
    7  A    between atoms: C_17  and  C_20
    8  A    between atoms: C_17  and  C_26
    9  A    between atoms: C_17  and  C_43
   10  A    between atoms: C_20  and  C_29
   11  A    between atoms: N_21  and  C_27
   12  A    between atoms: C_22  and  C_26
   13  A    between atoms: C_22  and  N_45
   14  A    between atoms: C_23  and  C_47
   15  A    between atoms: C_25  and  C_26
   16  A    between atoms: O_32  and  S_42
                            x       y       z     vdW  Elec       q    Type
                         _______ _______ _______ _____ _____    ______ ____

>  <TORSDO>
F 16

$$$$
=
 OpenBabel11072414533D

 47 52  0  0  1  0  0  0  0  0999 V2000
  163.1470  210.4330  151.0660 O   0  0  0  0  0  1  0  0  0  0  0  0
  161.7470  210.4220  151.0790 C   0  0  2  0  0  0  0  0  0  0  0  0
  162.1910  210.6760  153.4540 O   0  0  0  0  0  1  0  0  0  0  0  0
  161.2520  210.9330  152.4520 C   0  0  2  0  0  3  0  0  0  0  0  0
  159.8900  210.3660  152.8450 C   0  0  0  0  0  2  0  0  0  0  0  0
  161.2780  208.3020  156.4370 C   0  0  0  0  0  3  0  0  0  0  0  0
  159.8350  211.5460  155.6030 C   0  0  0  0  0  0  0  0  0  0  0  0
  159.9370  210.2730  155.8770 C   0  0  0  0  0  0  0  0  0  0  0  0
  157.8910  213.7250  156.1140 C   0  0  0  0  0  2  0  0  0  0  0  0
  158.1370  211.9690  152.2650 N   0  0  0  0  0  0  0  0  0  0  0  0
  158.9310  212.0250  154.5270 C   0  0  0  0  0  0  0  0  0  0  0  0
  158.9480  211.4640  153.2280 C   0  0  0  0  0  0  0  0  0  0  0  0
  159.4830  206.8840  156.4870 C   0  0  0  0  0  3  0  0  0  0  0  0
  157.2420  213.5430  153.7600 N   0  0  0  0  0  0  0  0  0  0  0  0
  157.2890  212.9930  152.5210 C   0  0  0  0  0  3  0  0  0  0  0  0
  160.9390  207.0360  156.6410 C   0  0  0  0  0  3  0  0  0  0  0  0
  160.7880  212.4950  156.2570 C   0  0  0  0  0  2  0  0  0  0  0  0
  159.1730  214.4040  156.5590 C   0  0  0  0  0  2  0  0  0  0  0  0
  158.0420  213.0960  154.7620 C   0  0  0  0  0  0  0  0  0  0  0  0
  160.0430  209.0020  156.1430 C   0  0  0  0  0  0  0  0  0  0  0  0
  158.9430  208.0570  156.1860 C   0  0  0  0  0  3  0  0  0  0  0  0
  160.0840  213.4030  157.2580 C   0  0  0  0  0  2  0  0  0  0  0  0
  161.2440  208.9890  150.7960 C   0  0  0  0  0  2  0  0  0  0  0  0
  162.3390  207.9300  150.7440 C   0  0  0  0  0  2  0  0  0  0  0  0
  162.6650  207.5540  149.3130 C   0  0  0  0  0  2  0  0  0  0  0  0
  161.4110  207.6820  148.4710 C   0  0  0  0  0  2  0  0  0  0  0  0
  161.2960  204.8020  146.7570 C   0  0  2  0  0  3  0  0  0  0  0  0
  161.6660  206.1080  146.0890 C   0  0  0  0  0  2  0  0  0  0  0  0
  160.4530  206.0280  147.0170 C   0  0  2  0  0  3  0  0  0  0  0  0
  162.1340  204.5880  147.8630 O   0  0  0  0  0  0  0  0  0  0  0  0
  160.7310  206.3930  148.4020 N   0  0  0  0  0  0  0  0  0  0  0  0
  161.6320  205.3690  148.9210 C   0  0  1  0  0  3  0  0  0  0  0  0
  161.7940  204.3200  151.2090 C   0  0  0  0  0  2  0  0  0  0  0  0
  160.4580  205.0400  151.3020 C   0  0  0  0  0  2  0  0  0  0  0  0
  160.9390  204.4860  149.9720 C   0  0  0  0  0  0  0  0  0  0  0  0
  160.4110  203.2520  149.5750 O   0  0  0  0  0  0  0  0  0  0  0  0
  161.3720  202.3730  149.7900 O   0  0  0  0  0  0  0  0  0  0  0  0
  159.1590  200.9570  149.3360 O   0  0  0  0  0  1  0  0  0  0  0  0
  160.8270  200.9550  149.0230 S   0  0  1  0  0  0  0  0  0  0  0  0
  160.9070  201.3000  147.5440 O   0  0  0  0  0  0  0  0  0  0  0  0
  161.2350  211.3520  149.9560 C   0  0  1  0  0  3  0  0  0  0  0  0
  161.0400  212.7890  150.4340 C   0  0  0  0  0  2  0  0  0  0  0  0
  160.1190  213.4400  149.6140 O   0  0  0  0  0  1  0  0  0  0  0  0
  162.1780  211.3560  148.7540 C   0  0  0  0  0  2  0  0  0  0  0  0
  161.4240  213.4390  145.8450 C   0  0  0  0  0  1  0  0  0  0  0  0
  162.0760  212.8530  146.9820 N   0  0  0  0  0  0  0  0  0  0  0  0
  161.5230  211.9350  147.6130 N   0  0  0  0  0  0  0  0  0  0  0  0
  2  1  1  6  0  0  0
  2  4  1  0  0  0  0
  4  5  1  0  0  0  0
  4  3  1  1  0  0  0
  5 12  1  0  0  0  0
  6 16  2  0  0  0  0
  7  8  2  0  0  0  0
  7 17  1  0  0  0  0
  8 20  2  0  0  0  0
  9 18  1  0  0  0  0
 10 15  2  0  0  0  0
 10 12  1  0  0  0  0
 11 19  1  0  0  0  0
 11  7  1  0  0  0  0
 12 11  2  0  0  0  0
 13 16  1  0  0  0  0
 14 19  2  0  0  0  0
 15 14  1  0  0  0  0
 17 22  1  0  0  0  0
 18 22  1  0  0  0  0
 19  9  1  0  0  0  0
 20 21  1  0  0  0  0
 20  6  1  0  0  0  0
 21 13  2  0  0  0  0
 23  2  1  0  0  0  0
 24 23  1  0  0  0  0
 25 24  1  0  0  0  0
 26 25  1  0  0  0  0
 27 28  1  6  0  0  0
 27 29  1  0  0  0  0
 27 30  1  0  0  0  0
 29 28  1  6  0  0  0
 29 31  1  0  0  0  0
 30 32  1  0  0  0  0
 31 26  1  0  0  0  0
 31 32  1  0  0  0  0
 32 35  1  1  0  0  0
 33 34  1  0  0  0  0
 35 33  1  0  0  0  0
 35 34  1  0  0  0  0
 36 37  1  0  0  0  0
 36 35  1  0  0  0  0
 39 40  2  6  0  0  0
 39 38  1  0  0  0  0
 39 37  1  0  0  0  0
 41 44  1  6  0  0  0
 41 42  1  0  0  0  0
 41  2  1  0  0  0  0
 43 42  1  0  0  0  0
 45 46  1  0  0  0  0
 46 47  2  0  0  0  0
 47 44  1  0  0  0  0
M  END
>  <MODEL>
7

>  <REMARK>
 VINA RESULT:      -5.2      2.309      4.519
  Name = 
  16 active torsions:
  status: ('A' for Active; 'I' for Inactive)
    1  A    between atoms: O_7  and  O_32
    2  A    between atoms: O_7  and  C_47
    3  A    between atoms: C_11  and  C_27
    4  A    between atoms: C_11  and  C_29
    5  A    between atoms: C_12  and  C_24
    6  A    between atoms: C_12  and  C_43
    7  A    between atoms: C_17  and  C_20
    8  A    between atoms: C_17  and  C_26
    9  A    between atoms: C_17  and  C_43
   10  A    between atoms: C_20  and  C_29
   11  A    between atoms: N_21  and  C_27
   12  A    between atoms: C_22  and  C_26
   13  A    between atoms: C_22  and  N_45
   14  A    between atoms: C_23  and  C_47
   15  A    between atoms: C_25  and  C_26
   16  A    between atoms: O_32  and  S_42
                            x       y       z     vdW  Elec       q    Type
                         _______ _______ _______ _____ _____    ______ ____

>  <TORSDO>
F 16

$$$$
=
 OpenBabel11072414533D

 47 52  0  0  1  0  0  0  0  0999 V2000
  163.0900  212.3120  149.2750 O   0  0  0  0  0  1  0  0  0  0  0  0
  161.7480  212.1680  148.9030 C   0  0  2  0  0  0  0  0  0  0  0  0
  161.6620  214.4530  149.7220 O   0  0  0  0  0  1  0  0  0  0  0  0
  160.9160  213.2820  149.5790 C   0  0  2  0  0  3  0  0  0  0  0  0
  160.3320  212.8580  150.9250 C   0  0  0  0  0  2  0  0  0  0  0  0
  161.5530  210.6980  154.5220 C   0  0  0  0  0  3  0  0  0  0  0  0
  158.7750  212.8230  153.4890 C   0  0  0  0  0  0  0  0  0  0  0  0
  159.5360  211.7730  153.6430 C   0  0  0  0  0  0  0  0  0  0  0  0
  155.8690  213.3910  153.3260 C   0  0  0  0  0  2  0  0  0  0  0  0
  158.2350  213.4390  149.8100 N   0  0  0  0  0  0  0  0  0  0  0  0
  158.1290  213.1130  152.1830 C   0  0  0  0  0  0  0  0  0  0  0  0
  158.8600  213.1210  150.9720 C   0  0  0  0  0  0  0  0  0  0  0  0
  161.0570  208.6500  153.6300 C   0  0  0  0  0  3  0  0  0  0  0  0
  156.1860  213.7230  150.9210 N   0  0  0  0  0  0  0  0  0  0  0  0
  156.9140  213.7340  149.7770 C   0  0  0  0  0  3  0  0  0  0  0  0
  162.0030  209.4540  154.4210 C   0  0  0  0  0  3  0  0  0  0  0  0
  158.7210  213.8330  154.5910 C   0  0  0  0  0  2  0  0  0  0  0  0
  156.2850  214.4250  154.3560 C   0  0  0  0  0  2  0  0  0  0  0  0
  156.7550  213.4310  152.1180 C   0  0  0  0  0  0  0  0  0  0  0  0
  160.3000  210.7290  153.7930 C   0  0  0  0  0  0  0  0  0  0  0  0
  160.0380  209.4090  153.2500 C   0  0  0  0  0  3  0  0  0  0  0  0
  157.3580  213.8550  155.2720 C   0  0  0  0  0  2  0  0  0  0  0  0
  161.2510  210.7640  149.3140 C   0  0  0  0  0  2  0  0  0  0  0  0
  162.3110  209.6710  149.2500 C   0  0  0  0  0  2  0  0  0  0  0  0
  162.2390  208.7710  150.4650 C   0  0  0  0  0  2  0  0  0  0  0  0
  161.2150  207.6820  150.2140 C   0  0  0  0  0  2  0  0  0  0  0  0
  161.4300  204.4590  151.1140 C   0  0  2  0  0  3  0  0  0  0  0  0
  161.1060  205.5430  152.1190 C   0  0  0  0  0  2  0  0  0  0  0  0
  162.2580  205.7210  151.1280 C   0  0  2  0  0  3  0  0  0  0  0  0
  160.5230  204.5270  150.0440 O   0  0  0  0  0  0  0  0  0  0  0  0
  161.8940  206.4280  149.9060 N   0  0  0  0  0  0  0  0  0  0  0  0
  160.9590  205.5620  149.1950 C   0  0  1  0  0  3  0  0  0  0  0  0
  160.6750  205.1910  146.7170 C   0  0  0  0  0  2  0  0  0  0  0  0
  162.0300  205.8800  146.7650 C   0  0  0  0  0  2  0  0  0  0  0  0
  161.5820  204.9900  147.9110 C   0  0  0  0  0  0  0  0  0  0  0  0
  162.0840  203.6830  147.9270 O   0  0  0  0  0  0  0  0  0  0  0  0
  161.0450  202.9050  147.6900 O   0  0  0  0  0  0  0  0  0  0  0  0
  159.6810  201.4380  149.4490 O   0  0  0  0  0  1  0  0  0  0  0  0
  161.2300  201.6090  148.7770 S   0  0  1  0  0  0  0  0  0  0  0  0
  161.3520  200.3980  147.8660 O   0  0  0  0  0  0  0  0  0  0  0  0
  161.6450  212.2930  147.3660 C   0  0  1  0  0  3  0  0  0  0  0  0
  160.3360  212.9410  146.9220 C   0  0  0  0  0  2  0  0  0  0  0  0
  159.4620  211.9640  146.4430 O   0  0  0  0  0  1  0  0  0  0  0  0
  162.8110  213.0920  146.7860 C   0  0  0  0  0  2  0  0  0  0  0  0
  162.2410  213.8340  143.2520 C   0  0  0  0  0  1  0  0  0  0  0  0
  162.2580  213.9120  144.6860 N   0  0  0  0  0  0  0  0  0  0  0  0
  162.8010  213.0130  145.3510 N   0  0  0  0  0  0  0  0  0  0  0  0
  2  1  1  1  0  0  0
  2 23  1  0  0  0  0
  2  4  1  0  0  0  0
  4  3  1  1  0  0  0
  4  5  1  0  0  0  0
  5 12  1  0  0  0  0
  7  8  2  0  0  0  0
  7 17  1  0  0  0  0
  8 20  2  0  0  0  0
  9 18  1  0  0  0  0
 10 12  1  0  0  0  0
 11  7  1  0  0  0  0
 12 11  2  0  0  0  0
 13 16  1  0  0  0  0
 14 19  2  0  0  0  0
 15 10  2  0  0  0  0
 15 14  1  0  0  0  0
 16  6  2  0  0  0  0
 17 22  1  0  0  0  0
 18 22  1  0  0  0  0
 19 11  1  0  0  0  0
 19  9  1  0  0  0  0
 20  6  1  0  0  0  0
 21 13  2  0  0  0  0
 21 20  1  0  0  0  0
 24 23  1  0  0  0  0
 24 25  1  0  0  0  0
 26 25  1  0  0  0  0
 27 29  1  0  0  0  0
 27 28  1  1  0  0  0
 29 28  1  1  0  0  0
 30 27  1  0  0  0  0
 31 26  1  0  0  0  0
 31 29  1  0  0  0  0
 32 35  1  6  0  0  0
 32 31  1  0  0  0  0
 32 30  1  0  0  0  0
 33 34  1  0  0  0  0
 33 35  1  0  0  0  0
 34 35  1  0  0  0  0
 35 36  1  0  0  0  0
 37 36  1  0  0  0  0
 37 39  1  0  0  0  0
 39 40  2  6  0  0  0
 39 38  1  0  0  0  0
 41 44  1  1  0  0  0
 41  2  1  0  0  0  0
 42 41  1  0  0  0  0
 43 42  1  0  0  0  0
 45 46  1  0  0  0  0
 46 47  2  0  0  0  0
 47 44  1  0  0  0  0
M  END
>  <MODEL>
8

>  <REMARK>
 VINA RESULT:      -5.2      2.756      4.446
  Name = 
  16 active torsions:
  status: ('A' for Active; 'I' for Inactive)
    1  A    between atoms: O_7  and  O_32
    2  A    between atoms: O_7  and  C_47
    3  A    between atoms: C_11  and  C_27
    4  A    between atoms: C_11  and  C_29
    5  A    between atoms: C_12  and  C_24
    6  A    between atoms: C_12  and  C_43
    7  A    between atoms: C_17  and  C_20
    8  A    between atoms: C_17  and  C_26
    9  A    between atoms: C_17  and  C_43
   10  A    between atoms: C_20  and  C_29
   11  A    between atoms: N_21  and  C_27
   12  A    between atoms: C_22  and  C_26
   13  A    between atoms: C_22  and  N_45
   14  A    between atoms: C_23  and  C_47
   15  A    between atoms: C_25  and  C_26
   16  A    between atoms: O_32  and  S_42
                            x       y       z     vdW  Elec       q    Type
                         _______ _______ _______ _____ _____    ______ ____

>  <TORSDO>
F 16

$$$$
=
 OpenBabel11072414533D

 47 52  0  0  1  0  0  0  0  0999 V2000
  162.9920  211.0710  149.7360 O   0  0  0  0  0  1  0  0  0  0  0  0
  161.7440  211.3180  149.1520 C   0  0  2  0  0  0  0  0  0  0  0  0
  160.5130  212.9630  150.4480 O   0  0  0  0  0  1  0  0  0  0  0  0
  160.7100  211.5920  150.2680 C   0  0  2  0  0  3  0  0  0  0  0  0
  161.0760  210.9310  151.5950 C   0  0  0  0  0  2  0  0  0  0  0  0
  162.7410  206.9500  152.2830 C   0  0  0  0  0  3  0  0  0  0  0  0
  160.9850  209.4890  154.2250 C   0  0  0  0  0  0  0  0  0  0  0  0
  161.2110  208.4990  153.4040 C   0  0  0  0  0  0  0  0  0  0  0  0
  158.8630  210.2790  156.1390 C   0  0  0  0  0  2  0  0  0  0  0  0
  159.1680  212.2370  152.3930 N   0  0  0  0  0  0  0  0  0  0  0  0
  160.0130  210.5580  153.8830 C   0  0  0  0  0  0  0  0  0  0  0  0
  160.0470  211.2330  152.6400 C   0  0  0  0  0  0  0  0  0  0  0  0
  161.0860  205.9000  151.1030 C   0  0  0  0  0  3  0  0  0  0  0  0
  158.1720  211.9630  154.5010 N   0  0  0  0  0  0  0  0  0  0  0  0
  158.2370  212.6000  153.3060 C   0  0  0  0  0  3  0  0  0  0  0  0
  162.5250  205.9850  151.3990 C   0  0  0  0  0  3  0  0  0  0  0  0
  161.8630  209.6340  155.4270 C   0  0  0  0  0  2  0  0  0  0  0  0
  160.0890  210.4470  157.0170 C   0  0  0  0  0  2  0  0  0  0  0  0
  159.0350  210.9640  154.8170 C   0  0  0  0  0  0  0  0  0  0  0  0
  161.4390  207.5160  152.5800 C   0  0  0  0  0  0  0  0  0  0  0  0
  160.4330  206.8150  151.8050 C   0  0  0  0  0  3  0  0  0  0  0  0
  161.1050  209.3540  156.7180 C   0  0  0  0  0  2  0  0  0  0  0  0
  161.3340  210.1050  148.2880 C   0  0  0  0  0  2  0  0  0  0  0  0
  162.0550  208.8070  148.6320 C   0  0  0  0  0  2  0  0  0  0  0  0
  161.1920  207.6040  148.3130 C   0  0  0  0  0  2  0  0  0  0  0  0
  162.0600  206.5210  147.7060 C   0  0  0  0  0  2  0  0  0  0  0  0
  161.4510  204.4080  145.1730 C   0  0  2  0  0  3  0  0  0  0  0  0
  161.9120  205.8280  144.9280 C   0  0  0  0  0  2  0  0  0  0  0  0
  160.7870  205.5380  145.9220 C   0  0  2  0  0  3  0  0  0  0  0  0
  162.3550  203.7650  146.0360 O   0  0  0  0  0  0  0  0  0  0  0  0
  161.2290  205.3910  147.3040 N   0  0  0  0  0  0  0  0  0  0  0  0
  162.0450  204.1820  147.3450 C   0  0  1  0  0  3  0  0  0  0  0  0
  160.3480  202.3180  147.2660 C   0  0  0  0  0  2  0  0  0  0  0  0
  161.5710  201.5890  147.7990 C   0  0  0  0  0  2  0  0  0  0  0  0
  161.3490  203.0550  148.1270 C   0  0  0  0  0  0  0  0  0  0  0  0
  160.7960  203.3440  149.3800 O   0  0  0  0  0  0  0  0  0  0  0  0
  160.2370  202.2190  149.7850 O   0  0  0  0  0  0  0  0  0  0  0  0
  162.4250  202.5190  151.2780 O   0  0  0  0  0  0  0  0  0  0  0  0
  160.8080  202.0120  151.3750 S   0  0  1  0  0  0  0  0  0  0  0  0
  160.1330  203.1360  152.1430 O   0  0  0  0  0  1  0  0  0  0  0  0
  161.8650  212.5560  148.2330 C   0  0  1  0  0  3  0  0  0  0  0  0
  163.3140  212.8630  147.8600 C   0  0  0  0  0  2  0  0  0  0  0  0
  163.4590  214.2260  147.6050 O   0  0  0  0  0  1  0  0  0  0  0  0
  161.0510  212.3880  146.9510 C   0  0  0  0  0  2  0  0  0  0  0  0
  157.4940  213.2320  146.9760 C   0  0  0  0  0  1  0  0  0  0  0  0
  158.7340  212.5140  146.8800 N   0  0  0  0  0  0  0  0  0  0  0  0
  159.8120  213.1090  147.0540 N   0  0  0  0  0  0  0  0  0  0  0  0
  2  1  1  1  0  0  0
  2  4  1  0  0  0  0
  4  3  1  1  0  0  0
  4  5  1  0  0  0  0
  5 12  1  0  0  0  0
  6 20  1  0  0  0  0
  7 17  1  0  0  0  0
  8  7  2  0  0  0  0
  9 18  1  0  0  0  0
 10 12  2  0  0  0  0
 10 15  1  0  0  0  0
 11  7  1  0  0  0  0
 11 19  2  0  0  0  0
 12 11  1  0  0  0  0
 13 16  1  0  0  0  0
 13 21  2  0  0  0  0
 14 19  1  0  0  0  0
 15 14  2  0  0  0  0
 16  6  2  0  0  0  0
 17 22  1  0  0  0  0
 19  9  1  0  0  0  0
 20  8  2  0  0  0  0
 21 20  1  0  0  0  0
 22 18  1  0  0  0  0
 23 24  1  0  0  0  0
 23  2  1  0  0  0  0
 25 24  1  0  0  0  0
 26 25  1  0  0  0  0
 27 28  1  6  0  0  0
 27 29  1  0  0  0  0
 27 30  1  0  0  0  0
 29 28  1  6  0  0  0
 29 31  1  0  0  0  0
 30 32  1  0  0  0  0
 31 32  1  0  0  0  0
 31 26  1  0  0  0  0
 32 35  1  6  0  0  0
 33 34  1  0  0  0  0
 33 35  1  0  0  0  0
 34 35  1  0  0  0  0
 35 36  1  0  0  0  0
 36 37  1  0  0  0  0
 37 39  1  0  0  0  0
 39 38  2  6  0  0  0
 39 40  1  0  0  0  0
 41 44  1  6  0  0  0
 41  2  1  0  0  0  0
 42 41  1  0  0  0  0
 43 42  1  0  0  0  0
 44 47  1  0  0  0  0
 46 45  1  0  0  0  0
 46 47  2  0  0  0  0
M  END
>  <MODEL>
9

>  <REMARK>
 VINA RESULT:      -4.4      2.451      4.753
  Name = 
  16 active torsions:
  status: ('A' for Active; 'I' for Inactive)
    1  A    between atoms: O_7  and  O_32
    2  A    between atoms: O_7  and  C_47
    3  A    between atoms: C_11  and  C_27
    4  A    between atoms: C_11  and  C_29
    5  A    between atoms: C_12  and  C_24
    6  A    between atoms: C_12  and  C_43
    7  A    between atoms: C_17  and  C_20
    8  A    between atoms: C_17  and  C_26
    9  A    between atoms: C_17  and  C_43
   10  A    between atoms: C_20  and  C_29
   11  A    between atoms: N_21  and  C_27
   12  A    between atoms: C_22  and  C_26
   13  A    between atoms: C_22  and  N_45
   14  A    between atoms: C_23  and  C_47
   15  A    between atoms: C_25  and  C_26
   16  A    between atoms: O_32  and  S_42
                            x       y       z     vdW  Elec       q    Type
                         _______ _______ _______ _____ _____    ______ ____

>  <TORSDO>
F 16

$$$$
