=
 OpenBabel11072413483D

 29 31  0  0  1  0  0  0  0  0999 V2000
  161.9710  205.8640  148.2990 C   0  0  1  0  0  3  0  0  0  0  0  0
  162.2660  205.9870  146.7950 C   0  0  2  0  0  3  0  0  0  0  0  0
  160.0420  206.5730  145.9560 O   0  0  0  0  0  0  0  0  0  0  0  0
  160.0830  204.1280  144.2680 C   0  0  0  0  0  1  0  0  0  0  0  0
  161.0200  205.7800  145.9840 C   0  0  0  0  0  0  0  0  0  0  0  0
  161.0910  204.6010  145.1990 N   0  0  0  0  0  0  0  0  0  0  0  0
  164.2440  204.5520  146.6210 O   0  0  0  0  0  0  0  0  0  0  0  0
  162.3310  203.9940  145.3710 N   0  0  0  0  0  2  0  0  0  0  0  0
  163.0520  204.8000  146.2970 C   0  0  0  0  0  0  0  0  0  0  0  0
  162.0610  209.6240  148.8910 C   0  0  0  0  0  3  0  0  0  0  0  0
  162.0240  209.6850  150.2850 C   0  0  0  0  0  3  0  0  0  0  0  0
  162.0510  208.3870  148.2470 C   0  0  0  0  0  3  0  0  0  0  0  0
  162.0030  207.2000  148.9940 C   0  0  0  0  0  0  0  0  0  0  0  0
  161.9630  207.2650  150.3980 C   0  0  0  0  0  0  0  0  0  0  0  0
  161.9110  206.0930  151.1480 O   0  0  0  0  0  1  0  0  0  0  0  0
  161.9730  208.5090  151.0490 C   0  0  0  0  0  0  0  0  0  0  0  0
  160.0100  209.8380  152.8020 O   0  0  0  0  0  0  0  0  0  0  0  0
  161.9470  208.5490  152.4840 N   0  0  0  0  0  2  0  0  0  0  0  0
  161.0020  209.2500  153.3070 C   0  0  0  0  0  0  0  0  0  0  0  0
  160.7490  207.9570  155.3950 C   0  0  0  0  0  1  0  0  0  0  0  0
  161.1810  209.2760  154.7890 C   0  0  0  0  0  3  0  0  0  0  0  0
  160.3860  210.4120  155.4030 C   0  0  0  0  0  1  0  0  0  0  0  0
  160.6300  205.1700  148.5520 C   0  0  0  0  0  2  0  0  0  0  0  0
  160.9950  202.2370  150.9240 C   0  0  0  0  0  3  0  0  0  0  0  0
  160.8330  203.7840  149.0660 C   0  0  0  0  0  0  0  0  0  0  0  0
  160.8300  203.5400  150.4450 C   0  0  0  0  0  3  0  0  0  0  0  0
  161.1590  201.1770  150.0270 C   0  0  0  0  0  3  0  0  0  0  0  0
  160.9910  202.7210  148.1700 C   0  0  0  0  0  3  0  0  0  0  0  0
  161.1550  201.4190  148.6490 C   0  0  0  0  0  3  0  0  0  0  0  0
  1 23  1  6  0  0  0
  1 13  1  0  0  0  0
  2  1  1  1  0  0  0
  3  5  2  0  0  0  0
  4  6  1  0  0  0  0
  5  2  1  0  0  0  0
  6  8  1  0  0  0  0
  6  5  1  0  0  0  0
  8  9  1  0  0  0  0
  9  7  2  0  0  0  0
  9  2  1  0  0  0  0
 10 11  1  0  0  0  0
 11 16  2  0  0  0  0
 12 10  2  0  0  0  0
 12 13  1  0  0  0  0
 13 14  2  0  0  0  0
 14 16  1  0  0  0  0
 14 15  1  0  0  0  0
 16 18  1  0  0  0  0
 17 19  2  0  0  0  0
 18 19  1  0  0  0  0
 19 21  1  0  0  0  0
 21 20  1  0  0  0  0
 21 22  1  0  0  0  0
 23 25  1  0  0  0  0
 25 26  2  0  0  0  0
 26 24  1  0  0  0  0
 27 24  2  0  0  0  0
 28 29  2  0  0  0  0
 28 25  1  0  0  0  0
 29 27  1  0  0  0  0
M  END
>  <MODEL>
1

>  <REMARK>
 VINA RESULT:      -8.9      0.000      0.000
  Name = 
  6 active torsions:
  status: ('A' for Active; 'I' for Inactive)
    1  A    between atoms: C_2  and  C_5
    2  A    between atoms: C_3  and  C_25
    3  A    between atoms: C_5  and  C_25
    4  A    between atoms: C_8  and  C_27
    5  A    between atoms: C_15  and  C_25
    6  A    between atoms: N_26  and  C_29
                            x       y       z     vdW  Elec       q    Type
                         _______ _______ _______ _____ _____    ______ ____

>  <TORSDO>
F 6

$$$$
=
 OpenBabel11072413483D

 29 31  0  0  1  0  0  0  0  0999 V2000
  161.7990  205.7870  148.6490 C   0  0  1  0  0  3  0  0  0  0  0  0
  162.1730  206.1290  147.1960 C   0  0  2  0  0  3  0  0  0  0  0  0
  159.9700  206.7100  146.2990 O   0  0  0  0  0  0  0  0  0  0  0  0
  160.2540  204.5230  144.3080 C   0  0  0  0  0  1  0  0  0  0  0  0
  160.9900  205.9720  146.2860 C   0  0  0  0  0  0  0  0  0  0  0  0
  161.1770  204.9160  145.3570 N   0  0  0  0  0  0  0  0  0  0  0  0
  164.2390  204.8350  146.9630 O   0  0  0  0  0  0  0  0  0  0  0  0
  162.4390  204.3560  145.5280 N   0  0  0  0  0  2  0  0  0  0  0  0
  163.0560  205.0630  146.5980 C   0  0  0  0  0  0  0  0  0  0  0  0
  160.9640  208.0820  151.5700 C   0  0  0  0  0  3  0  0  0  0  0  0
  161.4620  209.3040  151.1120 C   0  0  0  0  0  3  0  0  0  0  0  0
  161.0670  206.9450  150.7700 C   0  0  0  0  0  3  0  0  0  0  0  0
  161.6690  207.0200  149.5050 C   0  0  0  0  0  0  0  0  0  0  0  0
  162.1710  208.2500  149.0480 C   0  0  0  0  0  0  0  0  0  0  0  0
  162.7740  208.3350  147.7960 O   0  0  0  0  0  1  0  0  0  0  0  0
  162.0700  209.3980  149.8510 C   0  0  0  0  0  0  0  0  0  0  0  0
  160.8530  211.1990  147.8590 O   0  0  0  0  0  0  0  0  0  0  0  0
  162.5770  210.6470  149.3560 N   0  0  0  0  0  2  0  0  0  0  0  0
  161.9810  211.4760  148.3460 C   0  0  0  0  0  0  0  0  0  0  0  0
  162.1210  213.9350  148.5240 C   0  0  0  0  0  1  0  0  0  0  0  0
  162.6960  212.6960  147.8680 C   0  0  0  0  0  3  0  0  0  0  0  0
  162.5960  212.8170  146.3600 C   0  0  0  0  0  1  0  0  0  0  0  0
  160.5130  204.9600  148.7150 C   0  0  0  0  0  2  0  0  0  0  0  0
  161.1200  202.0500  151.0660 C   0  0  0  0  0  3  0  0  0  0  0  0
  160.7880  203.5820  149.2190 C   0  0  0  0  0  0  0  0  0  0  0  0
  160.8860  203.3450  150.5960 C   0  0  0  0  0  3  0  0  0  0  0  0
  161.2500  200.9900  150.1640 C   0  0  0  0  0  3  0  0  0  0  0  0
  160.9130  202.5200  148.3180 C   0  0  0  0  0  3  0  0  0  0  0  0
  161.1460  201.2250  148.7890 C   0  0  0  0  0  3  0  0  0  0  0  0
  1 23  1  6  0  0  0
  1 13  1  0  0  0  0
  2  1  1  1  0  0  0
  4  6  1  0  0  0  0
  5  3  2  0  0  0  0
  5  2  1  0  0  0  0
  6  8  1  0  0  0  0
  6  5  1  0  0  0  0
  8  9  1  0  0  0  0
  9  7  2  0  0  0  0
  9  2  1  0  0  0  0
 11 10  1  0  0  0  0
 12 10  2  0  0  0  0
 13 12  1  0  0  0  0
 14 13  2  0  0  0  0
 14 16  1  0  0  0  0
 15 14  1  0  0  0  0
 16 11  2  0  0  0  0
 17 19  2  0  0  0  0
 18 16  1  0  0  0  0
 19 18  1  0  0  0  0
 21 19  1  0  0  0  0
 21 20  1  0  0  0  0
 22 21  1  0  0  0  0
 23 25  1  0  0  0  0
 25 26  2  0  0  0  0
 26 24  1  0  0  0  0
 27 24  2  0  0  0  0
 28 29  2  0  0  0  0
 28 25  1  0  0  0  0
 29 27  1  0  0  0  0
M  END
>  <MODEL>
2

>  <REMARK>
 VINA RESULT:      -7.3      2.000      3.509
  Name = 
  6 active torsions:
  status: ('A' for Active; 'I' for Inactive)
    1  A    between atoms: C_2  and  C_5
    2  A    between atoms: C_3  and  C_25
    3  A    between atoms: C_5  and  C_25
    4  A    between atoms: C_8  and  C_27
    5  A    between atoms: C_15  and  C_25
    6  A    between atoms: N_26  and  C_29
                            x       y       z     vdW  Elec       q    Type
                         _______ _______ _______ _____ _____    ______ ____

>  <TORSDO>
F 6

$$$$
=
 OpenBabel11072413483D

 29 31  0  0  1  0  0  0  0  0999 V2000
  160.8940  209.2770  153.4040 C   0  0  1  0  0  3  0  0  0  0  0  0
  161.2180  209.3120  154.9080 C   0  0  2  0  0  3  0  0  0  0  0  0
  159.0060  208.8420  155.8450 O   0  0  0  0  0  0  0  0  0  0  0  0
  159.0990  211.4520  157.2610 C   0  0  0  0  0  1  0  0  0  0  0  0
  159.9900  209.6170  155.7150 C   0  0  0  0  0  0  0  0  0  0  0  0
  160.0860  210.8730  156.3670 N   0  0  0  0  0  0  0  0  0  0  0  0
  163.2100  210.7370  154.8900 O   0  0  0  0  0  0  0  0  0  0  0  0
  161.3270  211.4450  156.1080 N   0  0  0  0  0  2  0  0  0  0  0  0
  162.0230  210.5380  155.2600 C   0  0  0  0  0  0  0  0  0  0  0  0
  161.3660  205.5200  152.9960 C   0  0  0  0  0  3  0  0  0  0  0  0
  161.7080  205.4310  151.6450 C   0  0  0  0  0  3  0  0  0  0  0  0
  161.1090  206.7660  153.5680 C   0  0  0  0  0  3  0  0  0  0  0  0
  161.1920  207.9320  152.7930 C   0  0  0  0  0  0  0  0  0  0  0  0
  161.5340  207.8380  151.4330 C   0  0  0  0  0  0  0  0  0  0  0  0
  161.6150  208.9890  150.6530 O   0  0  0  0  0  1  0  0  0  0  0  0
  161.7930  206.5850  150.8540 C   0  0  0  0  0  0  0  0  0  0  0  0
  160.0240  206.2350  148.5210 O   0  0  0  0  0  0  0  0  0  0  0  0
  162.1560  206.5160  149.4660 N   0  0  0  0  0  2  0  0  0  0  0  0
  161.2710  206.2930  148.3560 C   0  0  0  0  0  0  0  0  0  0  0  0
  160.7220  206.2510  145.9490 C   0  0  0  0  0  1  0  0  0  0  0  0
  161.8280  206.1430  146.9800 C   0  0  0  0  0  3  0  0  0  0  0  0
  162.5410  204.8130  146.8350 C   0  0  0  0  0  1  0  0  0  0  0  0
  159.4390  209.6680  153.1360 C   0  0  0  0  0  2  0  0  0  0  0  0
  160.1030  213.0560  151.5710 C   0  0  0  0  0  3  0  0  0  0  0  0
  159.3280  211.1180  152.8030 C   0  0  0  0  0  0  0  0  0  0  0  0
  160.2250  211.7020  151.9000 C   0  0  0  0  0  3  0  0  0  0  0  0
  159.0830  213.8260  152.1390 C   0  0  0  0  0  3  0  0  0  0  0  0
  158.3040  211.8890  153.3660 C   0  0  0  0  0  3  0  0  0  0  0  0
  158.1830  213.2410  153.0360 C   0  0  0  0  0  3  0  0  0  0  0  0
  1 23  1  1  0  0  0
  2  1  1  6  0  0  0
  2  9  1  0  0  0  0
  2  5  1  0  0  0  0
  5  3  2  0  0  0  0
  5  6  1  0  0  0  0
  6  4  1  0  0  0  0
  7  9  2  0  0  0  0
  8  6  1  0  0  0  0
  9  8  1  0  0  0  0
 10 12  1  0  0  0  0
 11 10  2  0  0  0  0
 13  1  1  0  0  0  0
 13 12  2  0  0  0  0
 14 13  1  0  0  0  0
 15 14  1  0  0  0  0
 16 14  2  0  0  0  0
 16 11  1  0  0  0  0
 18 16  1  0  0  0  0
 19 17  2  0  0  0  0
 19 18  1  0  0  0  0
 20 21  1  0  0  0  0
 21 19  1  0  0  0  0
 22 21  1  0  0  0  0
 24 26  2  0  0  0  0
 24 27  1  0  0  0  0
 25 23  1  0  0  0  0
 25 28  2  0  0  0  0
 26 25  1  0  0  0  0
 27 29  2  0  0  0  0
 29 28  1  0  0  0  0
M  END
>  <MODEL>
3

>  <REMARK>
 VINA RESULT:      -7.3      2.773      8.973
  Name = 
  6 active torsions:
  status: ('A' for Active; 'I' for Inactive)
    1  A    between atoms: C_2  and  C_5
    2  A    between atoms: C_3  and  C_25
    3  A    between atoms: C_5  and  C_25
    4  A    between atoms: C_8  and  C_27
    5  A    between atoms: C_15  and  C_25
    6  A    between atoms: N_26  and  C_29
                            x       y       z     vdW  Elec       q    Type
                         _______ _______ _______ _____ _____    ______ ____

>  <TORSDO>
F 6

$$$$
=
 OpenBabel11072413483D

 29 31  0  0  1  0  0  0  0  0999 V2000
  161.7010  204.4230  148.9380 C   0  0  1  0  0  3  0  0  0  0  0  0
  161.9830  205.5810  147.9650 C   0  0  2  0  0  3  0  0  0  0  0  0
  159.7530  206.5800  147.8110 O   0  0  0  0  0  0  0  0  0  0  0  0
  159.7710  206.0620  144.8860 C   0  0  0  0  0  1  0  0  0  0  0  0
  160.7290  206.0070  147.2590 C   0  0  0  0  0  0  0  0  0  0  0  0
  160.7890  205.7360  145.8680 N   0  0  0  0  0  0  0  0  0  0  0  0
  163.9540  204.7040  146.8050 O   0  0  0  0  0  0  0  0  0  0  0  0
  162.0290  205.1920  145.5470 N   0  0  0  0  0  2  0  0  0  0  0  0
  162.7610  205.1030  146.7640 C   0  0  0  0  0  0  0  0  0  0  0  0
  161.1100  204.4390  152.6990 C   0  0  0  0  0  3  0  0  0  0  0  0
  161.3560  205.7780  153.0110 C   0  0  0  0  0  3  0  0  0  0  0  0
  161.2150  204.0020  151.3790 C   0  0  0  0  0  3  0  0  0  0  0  0
  161.5670  204.8990  150.3610 C   0  0  0  0  0  0  0  0  0  0  0  0
  161.8160  206.2460  150.6780 C   0  0  0  0  0  0  0  0  0  0  0  0
  162.1700  207.1440  149.6750 O   0  0  0  0  0  1  0  0  0  0  0  0
  161.7120  206.6900  152.0070 C   0  0  0  0  0  0  0  0  0  0  0  0
  160.4500  208.3600  154.0820 O   0  0  0  0  0  0  0  0  0  0  0  0
  161.9570  208.0740  152.3040 N   0  0  0  0  0  2  0  0  0  0  0  0
  161.2850  208.8720  153.2910 C   0  0  0  0  0  0  0  0  0  0  0  0
  161.9500  210.6880  154.8270 C   0  0  0  0  0  1  0  0  0  0  0  0
  161.5870  210.3290  153.4000 C   0  0  0  0  0  3  0  0  0  0  0  0
  160.4000  211.1560  152.9460 C   0  0  0  0  0  1  0  0  0  0  0  0
  160.4550  203.6360  148.5250 C   0  0  0  0  0  2  0  0  0  0  0  0
  161.5810  200.0300  148.2190 C   0  0  0  0  0  3  0  0  0  0  0  0
  160.8250  202.3160  147.9380 C   0  0  0  0  0  0  0  0  0  0  0  0
  161.2580  201.2750  148.7680 C   0  0  0  0  0  3  0  0  0  0  0  0
  161.4680  199.8230  146.8400 C   0  0  0  0  0  3  0  0  0  0  0  0
  160.7080  202.1050  146.5590 C   0  0  0  0  0  3  0  0  0  0  0  0
  161.0300  200.8610  146.0110 C   0  0  0  0  0  3  0  0  0  0  0  0
  1 23  1  6  0  0  0
  1 13  1  0  0  0  0
  2  1  1  1  0  0  0
  4  6  1  0  0  0  0
  5  3  2  0  0  0  0
  5  2  1  0  0  0  0
  6  5  1  0  0  0  0
  8  6  1  0  0  0  0
  8  9  1  0  0  0  0
  9  7  2  0  0  0  0
  9  2  1  0  0  0  0
 10 11  1  0  0  0  0
 12 10  2  0  0  0  0
 13 14  2  0  0  0  0
 13 12  1  0  0  0  0
 14 16  1  0  0  0  0
 15 14  1  0  0  0  0
 16 18  1  0  0  0  0
 16 11  2  0  0  0  0
 18 19  1  0  0  0  0
 19 21  1  0  0  0  0
 19 17  2  0  0  0  0
 21 20  1  0  0  0  0
 22 21  1  0  0  0  0
 24 26  1  0  0  0  0
 25 23  1  0  0  0  0
 25 26  2  0  0  0  0
 27 24  2  0  0  0  0
 28 25  1  0  0  0  0
 29 28  2  0  0  0  0
 29 27  1  0  0  0  0
M  END
>  <MODEL>
4

>  <REMARK>
 VINA RESULT:      -6.4      1.698      2.635
  Name = 
  6 active torsions:
  status: ('A' for Active; 'I' for Inactive)
    1  A    between atoms: C_2  and  C_5
    2  A    between atoms: C_3  and  C_25
    3  A    between atoms: C_5  and  C_25
    4  A    between atoms: C_8  and  C_27
    5  A    between atoms: C_15  and  C_25
    6  A    between atoms: N_26  and  C_29
                            x       y       z     vdW  Elec       q    Type
                         _______ _______ _______ _____ _____    ______ ____

>  <TORSDO>
F 6

$$$$
=
 OpenBabel11072413483D

 29 31  0  0  1  0  0  0  0  0999 V2000
  160.5590  210.2990  153.3710 C   0  0  1  0  0  3  0  0  0  0  0  0
  160.1390  211.7790  153.4050 C   0  0  2  0  0  3  0  0  0  0  0  0
  160.6700  212.3340  155.7300 O   0  0  0  0  0  0  0  0  0  0  0  0
  157.8160  213.0360  156.1660 C   0  0  0  0  0  1  0  0  0  0  0  0
  159.8230  212.2160  154.8060 C   0  0  0  0  0  0  0  0  0  0  0  0
  158.4500  212.5370  154.9600 N   0  0  0  0  0  0  0  0  0  0  0  0
  158.5080  211.8100  151.5790 O   0  0  0  0  0  0  0  0  0  0  0  0
  157.7940  212.4010  153.7400 N   0  0  0  0  0  2  0  0  0  0  0  0
  158.7710  211.9680  152.8000 C   0  0  0  0  0  0  0  0  0  0  0  0
  162.1160  210.4580  149.9000 C   0  0  0  0  0  3  0  0  0  0  0  0
  162.0720  209.1160  149.5170 C   0  0  0  0  0  3  0  0  0  0  0  0
  161.6210  210.8420  151.1460 C   0  0  0  0  0  3  0  0  0  0  0  0
  161.0760  209.8880  152.0170 C   0  0  0  0  0  0  0  0  0  0  0  0
  161.0340  208.5370  151.6290 C   0  0  0  0  0  0  0  0  0  0  0  0
  160.5000  207.5810  152.4880 O   0  0  0  0  0  1  0  0  0  0  0  0
  161.5340  208.1460  150.3760 C   0  0  0  0  0  0  0  0  0  0  0  0
  160.8040  207.0080  147.7560 O   0  0  0  0  0  0  0  0  0  0  0  0
  161.4660  206.7630  149.9950 N   0  0  0  0  0  2  0  0  0  0  0  0
  161.0570  206.2410  148.7220 C   0  0  0  0  0  0  0  0  0  0  0  0
  161.1270  204.0420  149.8420 C   0  0  0  0  0  1  0  0  0  0  0  0
  160.9400  204.7670  148.5240 C   0  0  0  0  0  3  0  0  0  0  0  0
  161.9650  204.2800  147.5180 C   0  0  0  0  0  1  0  0  0  0  0  0
  161.5990  209.9880  154.4500 C   0  0  0  0  0  2  0  0  0  0  0  0
  161.4840  207.4430  157.2570 C   0  0  0  0  0  3  0  0  0  0  0  0
  161.1130  208.9180  155.3700 C   0  0  0  0  0  0  0  0  0  0  0  0
  161.9490  208.4290  156.3810 C   0  0  0  0  0  3  0  0  0  0  0  0
  160.1820  206.9500  157.1270 C   0  0  0  0  0  3  0  0  0  0  0  0
  159.8090  208.4270  155.2450 C   0  0  0  0  0  3  0  0  0  0  0  0
  159.3440  207.4430  156.1210 C   0  0  0  0  0  3  0  0  0  0  0  0
  1 23  1  1  0  0  0
  2  1  1  1  0  0  0
  2  5  1  0  0  0  0
  5  6  1  0  0  0  0
  5  3  2  0  0  0  0
  6  4  1  0  0  0  0
  7  9  2  0  0  0  0
  8  6  1  0  0  0  0
  9  2  1  0  0  0  0
  9  8  1  0  0  0  0
 10 12  1  0  0  0  0
 11 10  2  0  0  0  0
 11 16  1  0  0  0  0
 12 13  2  0  0  0  0
 13  1  1  0  0  0  0
 14 13  1  0  0  0  0
 14 15  1  0  0  0  0
 16 14  2  0  0  0  0
 17 19  2  0  0  0  0
 18 16  1  0  0  0  0
 19 18  1  0  0  0  0
 21 19  1  0  0  0  0
 21 20  1  0  0  0  0
 22 21  1  0  0  0  0
 23 25  1  0  0  0  0
 25 26  1  0  0  0  0
 26 24  2  0  0  0  0
 27 24  1  0  0  0  0
 28 25  2  0  0  0  0
 28 29  1  0  0  0  0
 29 27  2  0  0  0  0
M  END
>  <MODEL>
5

>  <REMARK>
 VINA RESULT:      -6.2      2.464      8.300
  Name = 
  6 active torsions:
  status: ('A' for Active; 'I' for Inactive)
    1  A    between atoms: C_2  and  C_5
    2  A    between atoms: C_3  and  C_25
    3  A    between atoms: C_5  and  C_25
    4  A    between atoms: C_8  and  C_27
    5  A    between atoms: C_15  and  C_25
    6  A    between atoms: N_26  and  C_29
                            x       y       z     vdW  Elec       q    Type
                         _______ _______ _______ _____ _____    ______ ____

>  <TORSDO>
F 6

$$$$
