=
 OpenBabel11072412233D

 27 29  0  0  1  0  0  0  0  0999 V2000
  161.1430  209.3150  155.8510 C   0  0  0  0  0  0  0  0  0  0  0  0
  159.2760  213.4150  155.0240 C   0  0  0  0  0  2  0  0  0  0  0  0
  159.4080  211.1880  157.2610 O   0  0  0  0  0  1  0  0  0  0  0  0
  159.9350  212.0160  155.0470 C   0  0  2  0  0  3  0  0  0  0  0  0
  161.1600  205.7720  153.1340 N   0  0  0  0  0  1  0  0  0  0  0  0
  161.5930  210.6020  156.4520 C   0  0  2  0  0  3  0  0  0  0  0  0
  160.0460  206.5870  155.1480 N   0  0  0  0  0  0  0  0  0  0  0  0
  160.8530  206.8680  153.9950 C   0  0  0  0  0  0  0  0  0  0  0  0
  160.8680  209.3380  154.3900 C   0  0  2  0  0  3  0  0  0  0  0  0
  159.0410  210.9310  154.4210 C   0  0  0  0  0  0  0  0  0  0  0  0
  159.9510  207.2130  156.2850 C   0  0  0  0  0  3  0  0  0  0  0  0
  159.4970  209.7470  154.1300 N   0  0  0  0  0  0  0  0  0  0  0  0
  157.1370  212.5030  154.2610 C   0  0  0  0  0  2  0  0  0  0  0  0
  160.6590  208.4060  156.6390 N   0  0  0  0  0  0  0  0  0  0  0  0
  160.4660  211.6600  156.4780 C   0  0  2  0  0  0  0  0  0  0  0  0
  162.7210  211.0790  155.7750 O   0  0  0  0  0  1  0  0  0  0  0  0
  158.1790  213.5680  153.9840 C   0  0  0  0  0  2  0  0  0  0  0  0
  157.7150  211.2170  154.0750 O   0  0  0  0  0  0  0  0  0  0  0  0
  161.2590  208.1030  153.6530 C   0  0  0  0  0  0  0  0  0  0  0  0
  161.0400  212.8880  157.1780 C   0  0  0  0  0  1  0  0  0  0  0  0
  162.0600  208.3210  152.4050 C   0  0  0  0  0  2  0  0  0  0  0  0
  161.1790  208.2220  151.1680 C   0  0  0  0  0  2  0  0  0  0  0  0
  161.8620  207.4640  150.1310 N   0  0  0  0  0  2  0  0  0  0  0  0
  160.8360  206.9560  149.2350 C   0  0  0  0  0  2  0  0  0  0  0  0
  160.8770  204.4780  149.9380 C   0  0  0  0  0  1  0  0  0  0  0  0
  161.1060  205.5270  148.9060 C   0  0  0  0  0  0  0  0  0  0  0  0
  161.3860  205.1690  147.6550 C   0  0  0  0  0  2  0  0  0  0  0  0
  1  6  1  0  0  0  0
  1 14  2  0  0  0  0
  4  2  1  1  0  0  0
  4 15  1  0  0  0  0
  5  8  1  0  0  0  0
  6 16  1  6  0  0  0
  6 15  1  0  0  0  0
  7 11  2  0  0  0  0
  8  7  1  0  0  0  0
  9 19  1  1  0  0  0
  9  1  1  0  0  0  0
 10  4  1  0  0  0  0
 11 14  1  0  0  0  0
 12  9  1  0  0  0  0
 12 10  2  0  0  0  0
 15 20  1  1  0  0  0
 15  3  1  0  0  0  0
 17 13  1  0  0  0  0
 17  2  1  0  0  0  0
 18 13  1  0  0  0  0
 18 10  1  0  0  0  0
 19  8  2  0  0  0  0
 21 19  1  0  0  0  0
 22 21  1  0  0  0  0
 23 22  1  0  0  0  0
 24 23  1  0  0  0  0
 26 24  1  0  0  0  0
 26 25  1  0  0  0  0
 27 26  2  0  0  0  0
M  END
>  <MODEL>
1

>  <REMARK>
 VINA RESULT:      -5.8      0.000      0.000
  Name = 
  5 active torsions:
  status: ('A' for Active; 'I' for Inactive)
    1  A    between atoms: C_11  and  C_15
    2  A    between atoms: C_11  and  N_23
    3  A    between atoms: C_14  and  C_16
    4  A    between atoms: C_15  and  C_26
    5  A    between atoms: C_16  and  N_23
                            x       y       z     vdW  Elec       q    Type
                         _______ _______ _______ _____ _____    ______ ____

>  <TORSDO>
F 5

$$$$
=
 OpenBabel11072412233D

 27 29  0  0  1  0  0  0  0  0999 V2000
  161.6070  209.1730  154.4120 C   0  0  0  0  0  0  0  0  0  0  0  0
  159.2910  212.9750  155.4870 C   0  0  0  0  0  2  0  0  0  0  0  0
  159.6390  209.9730  156.4090 O   0  0  0  0  0  1  0  0  0  0  0  0
  160.1080  211.8030  154.8940 C   0  0  2  0  0  3  0  0  0  0  0  0
  162.0880  207.3770  150.3530 N   0  0  0  0  0  1  0  0  0  0  0  0
  161.8920  210.0520  155.5800 C   0  0  2  0  0  3  0  0  0  0  0  0
  160.8500  207.0220  152.4260 N   0  0  0  0  0  0  0  0  0  0  0  0
  161.6390  207.8940  151.6050 C   0  0  0  0  0  0  0  0  0  0  0  0
  161.3590  209.8650  153.1200 C   0  0  2  0  0  3  0  0  0  0  0  0
  159.3590  211.0710  153.7680 C   0  0  0  0  0  0  0  0  0  0  0  0
  160.6600  207.0170  153.7140 C   0  0  0  0  0  3  0  0  0  0  0  0
  159.9550  210.2180  152.9860 N   0  0  0  0  0  0  0  0  0  0  0  0
  157.2880  212.3430  154.2320 C   0  0  0  0  0  2  0  0  0  0  0  0
  161.2170  207.9570  154.6400 N   0  0  0  0  0  0  0  0  0  0  0  0
  160.6490  210.8590  156.0210 C   0  0  2  0  0  0  0  0  0  0  0  0
  162.9690  210.8970  155.2930 O   0  0  0  0  0  1  0  0  0  0  0  0
  158.2030  213.5020  154.5660 C   0  0  0  0  0  2  0  0  0  0  0  0
  158.0150  211.3620  153.5030 O   0  0  0  0  0  0  0  0  0  0  0  0
  161.9060  209.1740  151.9170 C   0  0  0  0  0  0  0  0  0  0  0  0
  161.0630  211.6510  157.2580 C   0  0  0  0  0  1  0  0  0  0  0  0
  162.6990  210.0360  150.9820 C   0  0  0  0  0  2  0  0  0  0  0  0
  161.7840  210.9110  150.1380 C   0  0  0  0  0  2  0  0  0  0  0  0
  162.1100  210.7580  148.7290 N   0  0  0  0  0  2  0  0  0  0  0  0
  162.6610  212.0280  148.2840 C   0  0  0  0  0  2  0  0  0  0  0  0
  160.4020  212.3740  147.0940 C   0  0  0  0  0  1  0  0  0  0  0  0
  161.8810  212.5450  147.1220 C   0  0  0  0  0  0  0  0  0  0  0  0
  162.4730  213.2990  146.2000 C   0  0  0  0  0  2  0  0  0  0  0  0
  1 14  2  0  0  0  0
  1  6  1  0  0  0  0
  4  2  1  1  0  0  0
  4 15  1  0  0  0  0
  5  8  1  0  0  0  0
  6 16  1  6  0  0  0
  6 15  1  0  0  0  0
  7 11  2  0  0  0  0
  8 19  2  0  0  0  0
  8  7  1  0  0  0  0
  9 19  1  6  0  0  0
  9  1  1  0  0  0  0
 10  4  1  0  0  0  0
 11 14  1  0  0  0  0
 12  9  1  0  0  0  0
 12 10  2  0  0  0  0
 13 17  1  0  0  0  0
 15  3  1  0  0  0  0
 15 20  1  1  0  0  0
 17  2  1  0  0  0  0
 18 10  1  0  0  0  0
 18 13  1  0  0  0  0
 21 19  1  0  0  0  0
 22 21  1  0  0  0  0
 23 22  1  0  0  0  0
 24 23  1  0  0  0  0
 25 26  1  0  0  0  0
 26 24  1  0  0  0  0
 27 26  2  0  0  0  0
M  END
>  <MODEL>
2

>  <REMARK>
 VINA RESULT:      -5.5      2.674      3.373
  Name = 
  5 active torsions:
  status: ('A' for Active; 'I' for Inactive)
    1  A    between atoms: C_11  and  C_15
    2  A    between atoms: C_11  and  N_23
    3  A    between atoms: C_14  and  C_16
    4  A    between atoms: C_15  and  C_26
    5  A    between atoms: C_16  and  N_23
                            x       y       z     vdW  Elec       q    Type
                         _______ _______ _______ _____ _____    ______ ____

>  <TORSDO>
F 5

$$$$
=
 OpenBabel11072412233D

 27 29  0  0  1  0  0  0  0  0999 V2000
  160.9660  208.4340  155.3750 C   0  0  0  0  0  0  0  0  0  0  0  0
  160.9860  206.6720  151.1480 C   0  0  0  0  0  2  0  0  0  0  0  0
  162.7000  206.6950  153.8030 O   0  0  0  0  0  1  0  0  0  0  0  0
  160.8130  207.4380  152.4800 C   0  0  2  0  0  3  0  0  0  0  0  0
  160.2090  212.6850  156.5120 N   0  0  0  0  0  1  0  0  0  0  0  0
  160.6620  207.0160  155.0330 C   0  0  2  0  0  3  0  0  0  0  0  0
  162.0540  211.1020  156.2930 N   0  0  0  0  0  0  0  0  0  0  0  0
  160.6910  211.4420  156.0020 C   0  0  0  0  0  0  0  0  0  0  0  0
  160.3300  209.4640  154.5130 C   0  0  2  0  0  3  0  0  0  0  0  0
  161.4020  208.8580  152.4260 C   0  0  0  0  0  0  0  0  0  0  0  0
  162.6410  209.9420  156.3520 C   0  0  0  0  0  3  0  0  0  0  0  0
  161.1540  209.7420  153.3490 N   0  0  0  0  0  0  0  0  0  0  0  0
  162.4290  208.4160  150.2180 C   0  0  0  0  0  2  0  0  0  0  0  0
  162.0130  208.6780  156.1010 N   0  0  0  0  0  0  0  0  0  0  0  0
  161.3100  206.5860  153.6970 C   0  0  2  0  0  0  0  0  0  0  0  0
  159.2780  206.8140  155.0140 O   0  0  0  0  0  1  0  0  0  0  0  0
  161.2050  207.5670  149.9400 C   0  0  0  0  0  2  0  0  0  0  0  0
  162.1700  209.2660  151.3290 O   0  0  0  0  0  0  0  0  0  0  0  0
  159.8860  210.6970  155.2230 C   0  0  0  0  0  0  0  0  0  0  0  0
  160.9790  205.1080  153.5110 C   0  0  0  0  0  1  0  0  0  0  0  0
  158.4870  211.1460  154.9280 C   0  0  0  0  0  2  0  0  0  0  0  0
  158.3150  211.4560  153.4480 C   0  0  0  0  0  2  0  0  0  0  0  0
  158.8200  212.7880  153.1570 N   0  0  0  0  0  2  0  0  0  0  0  0
  159.7070  212.6630  152.0120 C   0  0  0  0  0  2  0  0  0  0  0  0
  160.2540  214.1560  149.9850 C   0  0  0  0  0  1  0  0  0  0  0  0
  159.2520  213.5610  150.9120 C   0  0  0  0  0  0  0  0  0  0  0  0
  157.9540  213.6970  150.6510 C   0  0  0  0  0  2  0  0  0  0  0  0
  1 14  2  0  0  0  0
  4  2  1  6  0  0  0
  4 15  1  0  0  0  0
  6 16  1  6  0  0  0
  6  1  1  0  0  0  0
  7 11  2  0  0  0  0
  8  7  1  0  0  0  0
  8  5  1  0  0  0  0
  9 12  1  6  0  0  0
  9 19  1  0  0  0  0
  9  1  1  0  0  0  0
 10  4  1  0  0  0  0
 10 12  2  0  0  0  0
 13 18  1  0  0  0  0
 14 11  1  0  0  0  0
 15 20  1  6  0  0  0
 15  3  1  0  0  0  0
 15  6  1  0  0  0  0
 17 13  1  0  0  0  0
 17  2  1  0  0  0  0
 18 10  1  0  0  0  0
 19  8  2  0  0  0  0
 21 19  1  0  0  0  0
 22 21  1  0  0  0  0
 23 22  1  0  0  0  0
 24 23  1  0  0  0  0
 25 26  1  0  0  0  0
 26 24  1  0  0  0  0
 27 26  2  0  0  0  0
M  END
>  <MODEL>
3

>  <REMARK>
 VINA RESULT:      -5.0      2.579      6.083
  Name = 
  5 active torsions:
  status: ('A' for Active; 'I' for Inactive)
    1  A    between atoms: C_11  and  C_15
    2  A    between atoms: C_11  and  N_23
    3  A    between atoms: C_14  and  C_16
    4  A    between atoms: C_15  and  C_26
    5  A    between atoms: C_16  and  N_23
                            x       y       z     vdW  Elec       q    Type
                         _______ _______ _______ _____ _____    ______ ____

>  <TORSDO>
F 5

$$$$
=
 OpenBabel11072412233D

 27 29  0  0  1  0  0  0  0  0999 V2000
  160.9530  208.4730  155.4180 C   0  0  0  0  0  0  0  0  0  0  0  0
  160.9350  206.7650  151.1680 C   0  0  0  0  0  2  0  0  0  0  0  0
  162.6220  206.6770  153.8380 O   0  0  0  0  0  1  0  0  0  0  0  0
  160.7830  207.5220  152.5090 C   0  0  2  0  0  3  0  0  0  0  0  0
  160.3770  212.7390  156.6020 N   0  0  0  0  0  1  0  0  0  0  0  0
  160.5880  207.0750  155.0540 C   0  0  2  0  0  3  0  0  0  0  0  0
  162.1510  211.0780  156.3790 N   0  0  0  0  0  0  0  0  0  0  0  0
  160.8070  211.4830  156.0810 C   0  0  0  0  0  0  0  0  0  0  0  0
  160.3720  209.5420  154.5630 C   0  0  2  0  0  3  0  0  0  0  0  0
  161.4360  208.9150  152.4780 C   0  0  0  0  0  0  0  0  0  0  0  0
  162.6840  209.8910  156.4290 C   0  0  0  0  0  3  0  0  0  0  0  0
  161.2190  209.7970  153.4100 N   0  0  0  0  0  0  0  0  0  0  0  0
  162.4630  208.4540  150.2740 C   0  0  0  0  0  2  0  0  0  0  0  0
  162.0030  208.6610  156.1550 N   0  0  0  0  0  0  0  0  0  0  0  0
  161.2300  206.6330  153.7190 C   0  0  2  0  0  0  0  0  0  0  0  0
  159.1970  206.9360  155.0200 O   0  0  0  0  0  1  0  0  0  0  0  0
  161.2060  207.6640  149.9740 C   0  0  0  0  0  2  0  0  0  0  0  0
  162.2330  209.3010  151.3930 O   0  0  0  0  0  0  0  0  0  0  0  0
  159.9780  210.7850  155.2850 C   0  0  0  0  0  0  0  0  0  0  0  0
  160.8340  205.1730  153.5110 C   0  0  0  0  0  1  0  0  0  0  0  0
  158.6030  211.3000  154.9830 C   0  0  0  0  0  2  0  0  0  0  0  0
  158.4650  211.6510  153.5080 C   0  0  0  0  0  2  0  0  0  0  0  0
  157.7020  212.8800  153.3590 N   0  0  0  0  0  2  0  0  0  0  0  0
  157.3630  213.3310  154.6980 C   0  0  0  0  0  2  0  0  0  0  0  0
  155.1380  213.8490  153.5060 C   0  0  0  0  0  1  0  0  0  0  0  0
  155.9170  213.6920  154.7660 C   0  0  0  0  0  0  0  0  0  0  0  0
  155.2850  213.7090  155.9360 C   0  0  0  0  0  2  0  0  0  0  0  0
  1 14  2  0  0  0  0
  4  2  1  6  0  0  0
  4 15  1  0  0  0  0
  6 16  1  6  0  0  0
  6  1  1  0  0  0  0
  7 11  2  0  0  0  0
  8  7  1  0  0  0  0
  8  5  1  0  0  0  0
  9 12  1  6  0  0  0
  9 19  1  0  0  0  0
  9  1  1  0  0  0  0
 10  4  1  0  0  0  0
 10 12  2  0  0  0  0
 13 18  1  0  0  0  0
 14 11  1  0  0  0  0
 15 20  1  6  0  0  0
 15  3  1  0  0  0  0
 15  6  1  0  0  0  0
 17 13  1  0  0  0  0
 17  2  1  0  0  0  0
 18 10  1  0  0  0  0
 19  8  2  0  0  0  0
 21 19  1  0  0  0  0
 22 21  1  0  0  0  0
 23 22  1  0  0  0  0
 23 24  1  0  0  0  0
 24 26  1  0  0  0  0
 25 26  1  0  0  0  0
 26 27  2  0  0  0  0
M  END
>  <MODEL>
4

>  <REMARK>
 VINA RESULT:      -4.7      2.443      6.741
  Name = 
  5 active torsions:
  status: ('A' for Active; 'I' for Inactive)
    1  A    between atoms: C_11  and  C_15
    2  A    between atoms: C_11  and  N_23
    3  A    between atoms: C_14  and  C_16
    4  A    between atoms: C_15  and  C_26
    5  A    between atoms: C_16  and  N_23
                            x       y       z     vdW  Elec       q    Type
                         _______ _______ _______ _____ _____    ______ ____

>  <TORSDO>
F 5

$$$$
=
 OpenBabel11072412233D

 27 29  0  0  1  0  0  0  0  0999 V2000
  160.1010  210.7740  152.0500 C   0  0  0  0  0  0  0  0  0  0  0  0
  160.5760  210.8820  156.6040 C   0  0  0  0  0  2  0  0  0  0  0  0
  160.4610  212.8120  154.1050 O   0  0  0  0  0  1  0  0  0  0  0  0
  160.4850  210.5980  155.0860 C   0  0  2  0  0  3  0  0  0  0  0  0
  162.2740  208.1310  149.1820 N   0  0  0  0  0  1  0  0  0  0  0  0
  159.0490  211.2030  153.0150 C   0  0  2  0  0  3  0  0  0  0  0  0
  162.2540  210.4470  149.9530 N   0  0  0  0  0  0  0  0  0  0  0  0
  161.8570  209.0840  150.1590 C   0  0  0  0  0  0  0  0  0  0  0  0
  160.8410  209.5340  152.4010 C   0  0  2  0  0  3  0  0  0  0  0  0
  161.8600  210.3250  154.4530 C   0  0  0  0  0  0  0  0  0  0  0  0
  161.7220  211.5560  150.3790 C   0  0  0  0  0  3  0  0  0  0  0  0
  161.9800  209.8370  153.2520 N   0  0  0  0  0  0  0  0  0  0  0  0
  163.0210  210.9680  156.5410 C   0  0  0  0  0  2  0  0  0  0  0  0
  160.5640  211.6540  151.2180 N   0  0  0  0  0  0  0  0  0  0  0  0
  159.6490  211.7000  154.3500 C   0  0  2  0  0  0  0  0  0  0  0  0
  158.1370  210.1630  153.2240 O   0  0  0  0  0  1  0  0  0  0  0  0
  161.8390  210.3510  157.2610 C   0  0  0  0  0  2  0  0  0  0  0  0
  163.0330  210.5270  155.1890 O   0  0  0  0  0  0  0  0  0  0  0  0
  161.1900  208.6580  151.2460 C   0  0  0  0  0  0  0  0  0  0  0  0
  158.4750  212.1700  155.2040 C   0  0  0  0  0  1  0  0  0  0  0  0
  160.8530  207.2070  151.4100 C   0  0  0  0  0  2  0  0  0  0  0  0
  161.9520  206.4740  152.1660 C   0  0  0  0  0  2  0  0  0  0  0  0
  162.1210  205.1360  151.6240 N   0  0  0  0  0  2  0  0  0  0  0  0
  160.8320  204.7310  151.0880 C   0  0  0  0  0  2  0  0  0  0  0  0
  160.8090  202.5120  149.7800 C   0  0  0  0  0  1  0  0  0  0  0  0
  161.0190  203.9860  149.8100 C   0  0  0  0  0  0  0  0  0  0  0  0
  161.2070  204.6460  148.6700 C   0  0  0  0  0  2  0  0  0  0  0  0
  1  9  1  0  0  0  0
  1  6  1  0  0  0  0
  2 17  1  0  0  0  0
  3 15  1  0  0  0  0
  4  2  1  1  0  0  0
  5  8  1  0  0  0  0
  6 16  1  1  0  0  0
  6 15  1  0  0  0  0
  7  8  1  0  0  0  0
  7 11  2  0  0  0  0
  8 19  2  0  0  0  0
  9 19  1  6  0  0  0
  9 12  1  0  0  0  0
 10  4  1  0  0  0  0
 10 18  1  0  0  0  0
 11 14  1  0  0  0  0
 12 10  2  0  0  0  0
 13 17  1  0  0  0  0
 14  1  2  0  0  0  0
 15  4  1  0  0  0  0
 15 20  1  1  0  0  0
 18 13  1  0  0  0  0
 19 21  1  0  0  0  0
 21 22  1  0  0  0  0
 23 22  1  0  0  0  0
 24 23  1  0  0  0  0
 25 26  1  0  0  0  0
 26 24  1  0  0  0  0
 27 26  2  0  0  0  0
M  END
>  <MODEL>
5

>  <REMARK>
 VINA RESULT:      -4.6      2.053      4.123
  Name = 
  5 active torsions:
  status: ('A' for Active; 'I' for Inactive)
    1  A    between atoms: C_11  and  C_15
    2  A    between atoms: C_11  and  N_23
    3  A    between atoms: C_14  and  C_16
    4  A    between atoms: C_15  and  C_26
    5  A    between atoms: C_16  and  N_23
                            x       y       z     vdW  Elec       q    Type
                         _______ _______ _______ _____ _____    ______ ____

>  <TORSDO>
F 5

$$$$
=
 OpenBabel11072412233D

 27 29  0  0  1  0  0  0  0  0999 V2000
  161.5790  209.0920  155.2460 C   0  0  0  0  0  0  0  0  0  0  0  0
  159.4900  213.1560  155.5490 C   0  0  0  0  0  2  0  0  0  0  0  0
  160.0440  210.5520  157.2500 O   0  0  0  0  0  1  0  0  0  0  0  0
  160.1830  211.8200  155.1920 C   0  0  2  0  0  3  0  0  0  0  0  0
  161.2530  206.1440  151.9080 N   0  0  0  0  0  1  0  0  0  0  0  0
  162.0850  210.2640  156.0150 C   0  0  2  0  0  3  0  0  0  0  0  0
  160.4590  206.4890  154.1910 N   0  0  0  0  0  0  0  0  0  0  0  0
  161.0590  207.0340  153.0070 C   0  0  0  0  0  0  0  0  0  0  0  0
  161.0700  209.3790  153.8790 C   0  0  2  0  0  3  0  0  0  0  0  0
  159.2300  210.8250  154.5070 C   0  0  0  0  0  0  0  0  0  0  0  0
  160.5320  206.8780  155.4310 C   0  0  0  0  0  3  0  0  0  0  0  0
  159.6650  209.7480  153.9190 N   0  0  0  0  0  0  0  0  0  0  0  0
  157.2820  212.2830  154.9580 C   0  0  0  0  0  2  0  0  0  0  0  0
  161.2550  208.0210  155.9030 N   0  0  0  0  0  0  0  0  0  0  0  0
  160.9480  211.2280  156.4240 C   0  0  2  0  0  0  0  0  0  0  0  0
  163.0740  210.9270  155.2820 O   0  0  0  0  0  1  0  0  0  0  0  0
  158.2350  213.4410  154.7410 C   0  0  0  0  0  2  0  0  0  0  0  0
  157.8570  211.0930  154.4330 O   0  0  0  0  0  0  0  0  0  0  0  0
  161.3710  208.3340  152.8600 C   0  0  0  0  0  0  0  0  0  0  0  0
  161.5940  212.3310  157.2580 C   0  0  0  0  0  1  0  0  0  0  0  0
  161.9520  208.8350  151.5720 C   0  0  0  0  0  2  0  0  0  0  0  0
  162.2550  210.3240  151.6540 C   0  0  0  0  0  2  0  0  0  0  0  0
  161.4080  211.0550  150.7250 N   0  0  0  0  0  2  0  0  0  0  0  0
  160.7300  212.0860  151.4940 C   0  0  0  0  0  2  0  0  0  0  0  0
  158.5330  213.3210  150.9600 C   0  0  0  0  0  1  0  0  0  0  0  0
  159.9290  212.9570  150.5880 C   0  0  0  0  0  0  0  0  0  0  0  0
  160.5040  213.5450  149.5410 C   0  0  0  0  0  2  0  0  0  0  0  0
  1 14  2  0  0  0  0
  1  6  1  0  0  0  0
  4  2  1  1  0  0  0
  4 15  1  0  0  0  0
  5  8  1  0  0  0  0
  6 16  1  6  0  0  0
  6 15  1  0  0  0  0
  7 11  2  0  0  0  0
  8  7  1  0  0  0  0
  9 19  1  6  0  0  0
  9 12  1  0  0  0  0
  9  1  1  0  0  0  0
 10  4  1  0  0  0  0
 11 14  1  0  0  0  0
 12 10  2  0  0  0  0
 15  3  1  0  0  0  0
 15 20  1  1  0  0  0
 17 13  1  0  0  0  0
 17  2  1  0  0  0  0
 18 10  1  0  0  0  0
 18 13  1  0  0  0  0
 19  8  2  0  0  0  0
 21 22  1  0  0  0  0
 21 19  1  0  0  0  0
 23 24  1  0  0  0  0
 23 22  1  0  0  0  0
 26 25  1  0  0  0  0
 26 24  1  0  0  0  0
 27 26  2  0  0  0  0
M  END
>  <MODEL>
6

>  <REMARK>
 VINA RESULT:      -4.5      1.862      3.236
  Name = 
  5 active torsions:
  status: ('A' for Active; 'I' for Inactive)
    1  A    between atoms: C_11  and  C_15
    2  A    between atoms: C_11  and  N_23
    3  A    between atoms: C_14  and  C_16
    4  A    between atoms: C_15  and  C_26
    5  A    between atoms: C_16  and  N_23
                            x       y       z     vdW  Elec       q    Type
                         _______ _______ _______ _____ _____    ______ ____

>  <TORSDO>
F 5

$$$$
=
 OpenBabel11072412233D

 27 29  0  0  1  0  0  0  0  0999 V2000
  161.5830  211.6080  138.6000 C   0  0  0  0  0  0  0  0  0  0  0  0
  157.1370  211.9380  139.6480 C   0  0  0  0  0  2  0  0  0  0  0  0
  159.0410  211.3840  137.1880 O   0  0  0  0  0  1  0  0  0  0  0  0
  158.6780  211.9570  139.5130 C   0  0  2  0  0  3  0  0  0  0  0  0
  164.8300  214.4530  139.7340 N   0  0  0  0  0  1  0  0  0  0  0  0
  160.6410  210.4600  138.7240 C   0  0  2  0  0  3  0  0  0  0  0  0
  163.4840  213.8190  137.8000 N   0  0  0  0  0  0  0  0  0  0  0  0
  163.6800  213.7830  139.2210 C   0  0  0  0  0  0  0  0  0  0  0  0
  161.5030  212.6350  139.6710 C   0  0  2  0  0  3  0  0  0  0  0  0
  159.2310  213.3700  139.2580 C   0  0  0  0  0  0  0  0  0  0  0  0
  162.8330  213.0080  137.0170 C   0  0  0  0  0  3  0  0  0  0  0  0
  160.5010  213.6380  139.3490 N   0  0  0  0  0  0  0  0  0  0  0  0
  156.9490  214.2780  138.9580 C   0  0  0  0  0  2  0  0  0  0  0  0
  162.1080  211.8460  137.4380 N   0  0  0  0  0  0  0  0  0  0  0  0
  159.1720  210.8810  138.4870 C   0  0  2  0  0  0  0  0  0  0  0  0
  160.7970  209.8440  139.9700 O   0  0  0  0  0  1  0  0  0  0  0  0
  156.5290  213.2810  140.0180 C   0  0  0  0  0  2  0  0  0  0  0  0
  158.3620  214.4340  138.9900 O   0  0  0  0  0  0  0  0  0  0  0  0
  162.8100  213.2250  140.0800 C   0  0  0  0  0  0  0  0  0  0  0  0
  158.3360  209.6070  138.5720 C   0  0  0  0  0  1  0  0  0  0  0  0
  163.0640  213.2700  141.5570 C   0  0  0  0  0  2  0  0  0  0  0  0
  162.0510  212.4210  142.3110 C   0  0  0  0  0  2  0  0  0  0  0  0
  161.2190  213.2680  143.1490 N   0  0  0  0  0  2  0  0  0  0  0  0
  161.9090  213.4120  144.4200 C   0  0  0  0  0  2  0  0  0  0  0  0
  160.8730  214.2030  146.6430 C   0  0  0  0  0  1  0  0  0  0  0  0
  160.9570  213.1970  145.5480 C   0  0  0  0  0  0  0  0  0  0  0  0
  160.0690  212.2070  145.4960 C   0  0  0  0  0  2  0  0  0  0  0  0
  1  6  1  0  0  0  0
  2 17  1  0  0  0  0
  3 15  1  0  0  0  0
  4  2  1  6  0  0  0
  6 16  1  1  0  0  0
  7  8  1  0  0  0  0
  8  5  1  0  0  0  0
  8 19  2  0  0  0  0
  9  1  1  6  0  0  0
  9 19  1  0  0  0  0
 10 12  2  0  0  0  0
 10  4  1  0  0  0  0
 11 14  1  0  0  0  0
 11  7  2  0  0  0  0
 12  9  1  0  0  0  0
 13 18  1  0  0  0  0
 13 17  1  0  0  0  0
 14  1  2  0  0  0  0
 15 20  1  1  0  0  0
 15  6  1  0  0  0  0
 15  4  1  0  0  0  0
 18 10  1  0  0  0  0
 19 21  1  0  0  0  0
 21 22  1  0  0  0  0
 22 23  1  0  0  0  0
 23 24  1  0  0  0  0
 24 26  1  0  0  0  0
 26 25  1  0  0  0  0
 27 26  2  0  0  0  0
M  END
>  <MODEL>
7

>  <REMARK>
 VINA RESULT:      -3.8     11.643     15.349
  Name = 
  5 active torsions:
  status: ('A' for Active; 'I' for Inactive)
    1  A    between atoms: C_11  and  C_15
    2  A    between atoms: C_11  and  N_23
    3  A    between atoms: C_14  and  C_16
    4  A    between atoms: C_15  and  C_26
    5  A    between atoms: C_16  and  N_23
                            x       y       z     vdW  Elec       q    Type
                         _______ _______ _______ _____ _____    ______ ____

>  <TORSDO>
F 5

$$$$
=
 OpenBabel11072412233D

 27 29  0  0  1  0  0  0  0  0999 V2000
  158.0820  211.4610  138.3650 C   0  0  0  0  0  0  0  0  0  0  0  0
  153.7050  210.8770  139.5810 C   0  0  0  0  0  2  0  0  0  0  0  0
  155.5090  211.2260  137.0110 O   0  0  0  0  0  1  0  0  0  0  0  0
  155.2180  211.1510  139.4140 C   0  0  2  0  0  3  0  0  0  0  0  0
  160.9850  214.3790  140.0930 N   0  0  0  0  0  1  0  0  0  0  0  0
  157.3100  210.1940  138.2210 C   0  0  2  0  0  3  0  0  0  0  0  0
  159.6170  214.0510  138.0980 N   0  0  0  0  0  0  0  0  0  0  0  0
  159.9050  213.6960  139.4580 C   0  0  0  0  0  0  0  0  0  0  0  0
  157.9320  212.1710  139.6620 C   0  0  2  0  0  3  0  0  0  0  0  0
  155.5610  212.6480  139.5080 C   0  0  0  0  0  0  0  0  0  0  0  0
  159.0330  213.3730  137.1530 C   0  0  0  0  0  3  0  0  0  0  0  0
  156.7870  213.0660  139.6310 N   0  0  0  0  0  0  0  0  0  0  0  0
  153.1640  213.2630  139.5080 C   0  0  0  0  0  2  0  0  0  0  0  0
  158.4980  212.0510  137.2880 N   0  0  0  0  0  0  0  0  0  0  0  0
  155.7870  210.4440  138.1370 C   0  0  2  0  0  0  0  0  0  0  0  0
  157.6240  209.3200  139.2670 O   0  0  0  0  0  1  0  0  0  0  0  0
  152.9470  211.9850  140.2930 C   0  0  0  0  0  2  0  0  0  0  0  0
  154.5430  213.6090  139.5410 O   0  0  0  0  0  0  0  0  0  0  0  0
  159.1710  212.8240  140.1720 C   0  0  0  0  0  0  0  0  0  0  0  0
  155.1350  209.0810  137.9200 C   0  0  0  0  0  1  0  0  0  0  0  0
  159.5080  212.5420  141.6050 C   0  0  0  0  0  2  0  0  0  0  0  0
  160.7020  211.6030  141.7090 C   0  0  0  0  0  2  0  0  0  0  0  0
  160.9400  210.9580  140.4280 N   0  0  0  0  0  2  0  0  0  0  0  0
  162.3800  210.8160  140.2880 C   0  0  0  0  0  2  0  0  0  0  0  0
  161.9230  210.9520  137.7560 C   0  0  0  0  0  1  0  0  0  0  0  0
  162.8050  211.2370  138.9220 C   0  0  0  0  0  0  0  0  0  0  0  0
  163.8780  212.0070  138.7620 C   0  0  0  0  0  2  0  0  0  0  0  0
  2 17  1  0  0  0  0
  3 15  1  0  0  0  0
  4 10  1  0  0  0  0
  4  2  1  6  0  0  0
  6  1  1  0  0  0  0
  6 16  1  1  0  0  0
  7  8  1  0  0  0  0
  8  5  1  0  0  0  0
  8 19  2  0  0  0  0
  9  1  1  6  0  0  0
  9 19  1  0  0  0  0
 10 18  1  0  0  0  0
 10 12  2  0  0  0  0
 11 14  1  0  0  0  0
 11  7  2  0  0  0  0
 12  9  1  0  0  0  0
 13 18  1  0  0  0  0
 13 17  1  0  0  0  0
 14  1  2  0  0  0  0
 15 20  1  6  0  0  0
 15  6  1  0  0  0  0
 15  4  1  0  0  0  0
 19 21  1  0  0  0  0
 21 22  1  0  0  0  0
 23 22  1  0  0  0  0
 24 23  1  0  0  0  0
 25 26  1  0  0  0  0
 26 24  1  0  0  0  0
 27 26  2  0  0  0  0
M  END
>  <MODEL>
8

>  <REMARK>
 VINA RESULT:      -3.5     13.466     15.939
  Name = 
  5 active torsions:
  status: ('A' for Active; 'I' for Inactive)
    1  A    between atoms: C_11  and  C_15
    2  A    between atoms: C_11  and  N_23
    3  A    between atoms: C_14  and  C_16
    4  A    between atoms: C_15  and  C_26
    5  A    between atoms: C_16  and  N_23
                            x       y       z     vdW  Elec       q    Type
                         _______ _______ _______ _____ _____    ______ ____

>  <TORSDO>
F 5

$$$$
=
 OpenBabel11072412233D

 27 29  0  0  1  0  0  0  0  0999 V2000
  160.5910  210.1180  152.2070 C   0  0  0  0  0  0  0  0  0  0  0  0
  159.7010  209.0810  156.5780 C   0  0  0  0  0  2  0  0  0  0  0  0
  161.0610  211.3260  154.8190 O   0  0  0  0  0  1  0  0  0  0  0  0
  159.9640  209.1800  155.0570 C   0  0  2  0  0  3  0  0  0  0  0  0
  162.3620  207.4300  149.1140 N   0  0  0  0  0  1  0  0  0  0  0  0
  159.5410  210.7610  153.0470 C   0  0  2  0  0  3  0  0  0  0  0  0
  162.9820  209.3090  150.5430 N   0  0  0  0  0  0  0  0  0  0  0  0
  162.0620  208.2490  150.2430 C   0  0  0  0  0  0  0  0  0  0  0  0
  160.6740  208.6360  152.2880 C   0  0  2  0  0  3  0  0  0  0  0  0
  161.2580  208.4650  154.6340 C   0  0  0  0  0  0  0  0  0  0  0  0
  162.8020  210.4270  151.1850 C   0  0  0  0  0  3  0  0  0  0  0  0
  161.5370  208.2280  153.3840 N   0  0  0  0  0  0  0  0  0  0  0  0
  161.9010  208.0940  156.9940 C   0  0  0  0  0  2  0  0  0  0  0  0
  161.5730  210.8530  151.7860 N   0  0  0  0  0  0  0  0  0  0  0  0
  159.8590  210.6610  154.5570 C   0  0  2  0  0  0  0  0  0  0  0  0
  158.2890  210.2090  152.7550 O   0  0  0  0  0  1  0  0  0  0  0  0
  160.4190  207.9280  157.2590 C   0  0  0  0  0  2  0  0  0  0  0  0
  162.1480  207.9760  155.5980 O   0  0  0  0  0  0  0  0  0  0  0  0
  160.9950  207.9500  151.0040 C   0  0  0  0  0  0  0  0  0  0  0  0
  158.7500  211.4160  155.2840 C   0  0  0  0  0  1  0  0  0  0  0  0
  160.1080  206.7960  150.6480 C   0  0  0  0  0  2  0  0  0  0  0  0
  160.4980  205.5480  151.4280 C   0  0  0  0  0  2  0  0  0  0  0  0
  161.4140  204.7370  150.6430 N   0  0  0  0  0  2  0  0  0  0  0  0
  160.7740  203.4460  150.4480 C   0  0  0  0  0  2  0  0  0  0  0  0
  161.5810  203.9100  148.0460 C   0  0  0  0  0  1  0  0  0  0  0  0
  160.8260  203.0610  149.0080 C   0  0  0  0  0  0  0  0  0  0  0  0
  160.3480  201.8840  148.6120 C   0  0  0  0  0  2  0  0  0  0  0  0
  1  9  1  0  0  0  0
  1  6  1  0  0  0  0
  2 17  1  0  0  0  0
  4  2  1  1  0  0  0
  5  8  1  0  0  0  0
  6 16  1  1  0  0  0
  6 15  1  0  0  0  0
  7 11  2  0  0  0  0
  8  7  1  0  0  0  0
  8 19  2  0  0  0  0
  9 19  1  6  0  0  0
  9 12  1  0  0  0  0
 10  4  1  0  0  0  0
 10 18  1  0  0  0  0
 11 14  1  0  0  0  0
 12 10  2  0  0  0  0
 13 17  1  0  0  0  0
 14  1  2  0  0  0  0
 15  3  1  0  0  0  0
 15  4  1  0  0  0  0
 15 20  1  1  0  0  0
 18 13  1  0  0  0  0
 21 19  1  0  0  0  0
 21 22  1  0  0  0  0
 23 22  1  0  0  0  0
 24 23  1  0  0  0  0
 25 26  1  0  0  0  0
 26 24  1  0  0  0  0
 27 26  2  0  0  0  0
M  END
>  <MODEL>
9

>  <REMARK>
 VINA RESULT:      -3.3      2.014      4.240
  Name = 
  5 active torsions:
  status: ('A' for Active; 'I' for Inactive)
    1  A    between atoms: C_11  and  C_15
    2  A    between atoms: C_11  and  N_23
    3  A    between atoms: C_14  and  C_16
    4  A    between atoms: C_15  and  C_26
    5  A    between atoms: C_16  and  N_23
                            x       y       z     vdW  Elec       q    Type
                         _______ _______ _______ _____ _____    ______ ____

>  <TORSDO>
F 5

$$$$
