=
 OpenBabel11072414253D

 26 29  0  0  1  0  0  0  0  0999 V2000
  161.8300  204.7910  151.5060 C   0  0  0  0  0  2  0  0  0  0  0  0
  160.6190  201.4710  150.6430 C   0  0  0  0  0  3  0  0  0  0  0  0
  161.4280  203.8550  150.6330 C   0  0  0  0  0  0  0  0  0  0  0  0
  160.9860  208.0950  147.6480 O   0  0  0  0  0  1  0  0  0  0  0  0
  162.1020  207.3020  151.8970 N   0  0  0  0  0  0  0  0  0  0  0  0
  162.0180  206.4680  149.6750 C   0  0  0  0  0  0  0  0  0  0  0  0
  162.8660  208.5520  148.7910 N   0  0  0  0  0  2  0  0  0  0  0  0
  161.1710  203.3310  148.1750 C   0  0  0  0  0  3  0  0  0  0  0  0
  161.5510  205.5990  148.7820 C   0  0  0  0  0  3  0  0  0  0  0  0
  161.3910  204.1840  149.1740 C   0  0  0  0  0  0  0  0  0  0  0  0
  160.9370  202.6150  151.2350 C   0  0  0  0  0  2  0  0  0  0  0  0
  160.6770  201.1230  149.2240 C   0  0  0  0  0  3  0  0  0  0  0  0
  162.1070  208.4430  151.0490 N   0  0  0  0  0  2  0  0  0  0  0  0
  161.9690  207.9290  149.6950 C   0  0  2  0  0  0  0  0  0  0  0  0
  162.3960  206.1170  151.0510 C   0  0  2  0  0  3  0  0  0  0  0  0
  161.4440  208.8110  148.7030 N   0  0  0  0  0  0  0  0  0  0  0  0
  160.9190  201.8830  148.1520 C   0  0  0  0  0  0  0  0  0  0  0  0
  160.7600  207.2260  152.4770 C   0  0  0  0  0  2  0  0  0  0  0  0
  160.8510  207.1040  153.9890 C   0  0  0  0  0  2  0  0  0  0  0  0
  161.6470  208.5930  155.8230 O   0  0  0  0  0  1  0  0  0  0  0  0
  160.4980  209.4610  154.0400 O   0  0  0  0  0  0  0  0  0  0  0  0
  160.9820  208.4500  154.6130 C   0  0  0  0  0  0  0  0  0  0  0  0
  160.9170  201.3110  146.8660 O   0  0  0  0  0  0  0  0  0  0  0  0
  161.2730  203.0890  145.2830 O   0  0  0  0  0  1  0  0  0  0  0  0
  159.6670  201.5060  144.9100 O   0  0  0  0  0  0  0  0  0  0  0  0
  160.5830  201.9430  145.6560 C   0  0  0  0  0  0  0  0  0  0  0  0
  2 11  1  0  0  0  0
  3 11  1  0  0  0  0
  3  1  1  0  0  0  0
  4 16  1  0  0  0  0
  5 18  1  0  0  0  0
  6 14  1  0  0  0  0
  6 15  1  0  0  0  0
  8 10  1  0  0  0  0
  9 10  1  0  0  0  0
  9  6  2  0  0  0  0
 10  3  2  0  0  0  0
 12  2  2  0  0  0  0
 13  5  1  0  0  0  0
 14  7  1  6  0  0  0
 14 13  1  0  0  0  0
 15  1  1  1  0  0  0
 15  5  1  0  0  0  0
 16  7  1  0  0  0  0
 16 14  1  0  0  0  0
 17  8  2  0  0  0  0
 17 12  1  0  0  0  0
 18 19  1  0  0  0  0
 19 22  1  0  0  0  0
 21 22  2  0  0  0  0
 22 20  1  0  0  0  0
 23 17  1  0  0  0  0
 24 26  1  0  0  0  0
 25 26  2  0  0  0  0
 26 23  1  0  0  0  0
M  END
>  <MODEL>
1

>  <REMARK>
 VINA RESULT:      -8.2      0.000      0.000
  Name = 
  5 active torsions:
  status: ('A' for Active; 'I' for Inactive)
    1  A    between atoms: N_7  and  C_15
    2  A    between atoms: C_10  and  C_15
    3  A    between atoms: C_10  and  C_17
    4  A    between atoms: C_13  and  O_22
    5  A    between atoms: O_22  and  C_26
                            x       y       z     vdW  Elec       q    Type
                         _______ _______ _______ _____ _____    ______ ____

>  <TORSDO>
F 5

$$$$
=
 OpenBabel11072414253D

 26 29  0  0  1  0  0  0  0  0999 V2000
  161.8380  207.0310  151.1160 C   0  0  0  0  0  2  0  0  0  0  0  0
  161.0170  203.8320  149.5910 C   0  0  0  0  0  3  0  0  0  0  0  0
  161.6300  206.2280  150.0620 C   0  0  0  0  0  0  0  0  0  0  0  0
  161.2520  210.8650  147.7300 O   0  0  0  0  0  1  0  0  0  0  0  0
  161.8580  209.4550  151.9230 N   0  0  0  0  0  0  0  0  0  0  0  0
  162.1330  208.9920  149.6100 C   0  0  0  0  0  0  0  0  0  0  0  0
  162.9240  211.2360  149.1870 N   0  0  0  0  0  2  0  0  0  0  0  0
  161.7410  206.0980  147.5410 C   0  0  0  0  0  3  0  0  0  0  0  0
  161.8580  208.2540  148.5370 C   0  0  0  0  0  3  0  0  0  0  0  0
  161.7600  206.7880  148.6810 C   0  0  0  0  0  0  0  0  0  0  0  0
  161.1640  204.8800  150.3910 C   0  0  0  0  0  2  0  0  0  0  0  0
  161.2890  203.7230  148.1580 C   0  0  0  0  0  3  0  0  0  0  0  0
  161.8840  210.7180  151.2690 N   0  0  0  0  0  2  0  0  0  0  0  0
  161.9670  210.4250  149.8470 C   0  0  2  0  0  0  0  0  0  0  0  0
  162.3530  208.4430  150.9560 C   0  0  2  0  0  3  0  0  0  0  0  0
  161.5100  211.4250  148.9370 N   0  0  0  0  0  0  0  0  0  0  0  0
  161.6100  204.6600  147.2610 C   0  0  0  0  0  0  0  0  0  0  0  0
  160.4610  209.2100  152.2870 C   0  0  0  0  0  2  0  0  0  0  0  0
  160.2340  209.5550  153.7490 C   0  0  0  0  0  2  0  0  0  0  0  0
  160.5870  207.1780  154.4110 O   0  0  0  0  0  0  0  0  0  0  0  0
  161.6140  208.8700  155.5680 O   0  0  0  0  0  1  0  0  0  0  0  0
  160.8490  208.5240  154.6300 C   0  0  0  0  0  0  0  0  0  0  0  0
  161.8230  204.3060  145.9150 O   0  0  0  0  0  0  0  0  0  0  0  0
  161.1490  205.7930  144.1460 O   0  0  0  0  0  0  0  0  0  0  0  0
  160.0910  203.7890  144.4450 O   0  0  0  0  0  1  0  0  0  0  0  0
  160.9890  204.5900  144.8210 C   0  0  0  0  0  0  0  0  0  0  0  0
  2 11  1  0  0  0  0
  3 11  1  0  0  0  0
  3  1  1  0  0  0  0
  4 16  1  0  0  0  0
  5 18  1  0  0  0  0
  6 14  1  0  0  0  0
  6 15  1  0  0  0  0
  8 10  1  0  0  0  0
  9 10  1  0  0  0  0
  9  6  2  0  0  0  0
 10  3  2  0  0  0  0
 12  2  2  0  0  0  0
 13  5  1  0  0  0  0
 14  7  1  6  0  0  0
 14 13  1  0  0  0  0
 15  1  1  6  0  0  0
 15  5  1  0  0  0  0
 16  7  1  0  0  0  0
 16 14  1  0  0  0  0
 17  8  2  0  0  0  0
 17 12  1  0  0  0  0
 18 19  1  0  0  0  0
 19 22  1  0  0  0  0
 20 22  2  0  0  0  0
 22 21  1  0  0  0  0
 23 17  1  0  0  0  0
 24 26  2  0  0  0  0
 25 26  1  0  0  0  0
 26 23  1  0  0  0  0
M  END
>  <MODEL>
2

>  <REMARK>
 VINA RESULT:      -8.0      1.904      2.529
  Name = 
  5 active torsions:
  status: ('A' for Active; 'I' for Inactive)
    1  A    between atoms: N_7  and  C_15
    2  A    between atoms: C_10  and  C_15
    3  A    between atoms: C_10  and  C_17
    4  A    between atoms: C_13  and  O_22
    5  A    between atoms: O_22  and  C_26
                            x       y       z     vdW  Elec       q    Type
                         _______ _______ _______ _____ _____    ______ ____

>  <TORSDO>
F 5

$$$$
=
 OpenBabel11072414253D

 26 29  0  0  1  0  0  0  0  0999 V2000
  161.7910  206.3320  148.9490 C   0  0  0  0  0  2  0  0  0  0  0  0
  161.1850  208.6460  151.6890 C   0  0  0  0  0  3  0  0  0  0  0  0
  161.4670  206.6240  150.2180 C   0  0  0  0  0  0  0  0  0  0  0  0
  159.7010  201.7350  149.9530 O   0  0  0  0  0  1  0  0  0  0  0  0
  161.5880  204.5920  147.0880 N   0  0  0  0  0  0  0  0  0  0  0  0
  161.3450  203.9160  149.3520 C   0  0  0  0  0  0  0  0  0  0  0  0
  161.5940  201.5880  148.7520 N   0  0  0  0  0  2  0  0  0  0  0  0
  160.9550  205.6160  152.4780 C   0  0  0  0  0  3  0  0  0  0  0  0
  160.9400  204.1610  150.5960 C   0  0  0  0  0  3  0  0  0  0  0  0
  161.1410  205.5100  151.1630 C   0  0  0  0  0  0  0  0  0  0  0  0
  161.3430  208.0510  150.5150 C   0  0  0  0  0  3  0  0  0  0  0  0
  161.0990  208.0460  153.0210 C   0  0  0  0  0  2  0  0  0  0  0  0
  161.2250  203.2170  147.0510 N   0  0  0  0  0  2  0  0  0  0  0  0
  160.9950  202.8320  148.4350 C   0  0  2  0  0  0  0  0  0  0  0  0
  161.9920  204.9080  148.4820 C   0  0  2  0  0  3  0  0  0  0  0  0
  160.1530  201.7050  148.6770 N   0  0  0  0  0  0  0  0  0  0  0  0
  161.0110  206.7650  153.3920 C   0  0  0  0  0  0  0  0  0  0  0  0
  160.3940  205.3430  146.6930 C   0  0  0  0  0  2  0  0  0  0  0  0
  160.6810  206.1590  145.4440 C   0  0  0  0  0  2  0  0  0  0  0  0
  160.1530  204.0680  144.1940 O   0  0  0  0  0  1  0  0  0  0  0  0
  161.6280  205.5970  143.3300 O   0  0  0  0  0  0  0  0  0  0  0  0
  160.8540  205.2650  144.2660 C   0  0  0  0  0  0  0  0  0  0  0  0
  160.9350  206.4300  154.7570 O   0  0  0  0  0  0  0  0  0  0  0  0
  161.4550  208.0250  156.4830 O   0  0  0  0  0  1  0  0  0  0  0  0
  159.3070  207.3080  156.1730 O   0  0  0  0  0  0  0  0  0  0  0  0
  160.5130  207.2570  155.8120 C   0  0  0  0  0  0  0  0  0  0  0  0
  1  3  1  0  0  0  0
  2 12  1  0  0  0  0
  3 11  1  0  0  0  0
  3 10  2  0  0  0  0
  5 15  1  0  0  0  0
  6  9  2  0  0  0  0
  8 17  2  0  0  0  0
  9 10  1  0  0  0  0
 10  8  1  0  0  0  0
 11  2  2  0  0  0  0
 12 17  1  0  0  0  0
 13  5  1  0  0  0  0
 14 13  1  6  0  0  0
 14 16  1  0  0  0  0
 14  7  1  0  0  0  0
 14  6  1  0  0  0  0
 15  1  1  1  0  0  0
 15  6  1  0  0  0  0
 16  7  1  0  0  0  0
 16  4  1  0  0  0  0
 17 23  1  0  0  0  0
 18  5  1  0  0  0  0
 19 18  1  0  0  0  0
 20 22  1  0  0  0  0
 21 22  2  0  0  0  0
 22 19  1  0  0  0  0
 23 26  1  0  0  0  0
 26 25  2  0  0  0  0
 26 24  1  0  0  0  0
M  END
>  <MODEL>
3

>  <REMARK>
 VINA RESULT:      -7.9      2.959      7.758
  Name = 
  5 active torsions:
  status: ('A' for Active; 'I' for Inactive)
    1  A    between atoms: N_7  and  C_15
    2  A    between atoms: C_10  and  C_15
    3  A    between atoms: C_10  and  C_17
    4  A    between atoms: C_13  and  O_22
    5  A    between atoms: O_22  and  C_26
                            x       y       z     vdW  Elec       q    Type
                         _______ _______ _______ _____ _____    ______ ____

>  <TORSDO>
F 5

$$$$
=
 OpenBabel11072414253D

 26 29  0  0  1  0  0  0  0  0999 V2000
  161.7120  207.1720  151.5170 C   0  0  0  0  0  2  0  0  0  0  0  0
  160.7150  203.8610  150.3890 C   0  0  0  0  0  3  0  0  0  0  0  0
  161.4430  206.2640  150.5680 C   0  0  0  0  0  0  0  0  0  0  0  0
  161.2060  210.6160  147.7230 O   0  0  0  0  0  1  0  0  0  0  0  0
  161.8560  209.6700  152.0380 N   0  0  0  0  0  0  0  0  0  0  0  0
  162.0530  208.9320  149.7890 C   0  0  0  0  0  0  0  0  0  0  0  0
  162.9280  211.0750  149.0930 N   0  0  0  0  0  2  0  0  0  0  0  0
  161.4840  205.8410  148.0770 C   0  0  0  0  0  3  0  0  0  0  0  0
  161.7190  208.0900  148.8140 C   0  0  0  0  0  3  0  0  0  0  0  0
  161.5610  206.6550  149.1280 C   0  0  0  0  0  0  0  0  0  0  0  0
  160.9270  204.9860  151.0590 C   0  0  0  0  0  2  0  0  0  0  0  0
  160.9450  203.5760  148.9730 C   0  0  0  0  0  3  0  0  0  0  0  0
  161.9200  210.8470  151.2420 N   0  0  0  0  0  2  0  0  0  0  0  0
  161.9550  210.3890  149.8620 C   0  0  2  0  0  0  0  0  0  0  0  0
  162.2830  208.5310  151.1840 C   0  0  2  0  0  3  0  0  0  0  0  0
  161.5180  211.2980  148.8520 N   0  0  0  0  0  0  0  0  0  0  0  0
  161.2830  204.3880  147.9670 C   0  0  0  0  0  0  0  0  0  0  0  0
  160.4600  209.5320  152.4560 C   0  0  0  0  0  2  0  0  0  0  0  0
  160.2130  210.3310  153.7230 C   0  0  0  0  0  2  0  0  0  0  0  0
  158.2000  211.4080  154.7250 O   0  0  0  0  0  1  0  0  0  0  0  0
  158.6060  211.5710  152.4750 O   0  0  0  0  0  0  0  0  0  0  0  0
  158.9650  211.1340  153.5990 C   0  0  0  0  0  0  0  0  0  0  0  0
  161.4460  203.8730  146.6680 O   0  0  0  0  0  0  0  0  0  0  0  0
  163.4560  204.7030  145.6360 O   0  0  0  0  0  1  0  0  0  0  0  0
  161.4440  204.8820  144.5680 O   0  0  0  0  0  0  0  0  0  0  0  0
  162.0840  204.4950  145.5820 C   0  0  0  0  0  0  0  0  0  0  0  0
  2 11  1  0  0  0  0
  3 11  1  0  0  0  0
  3  1  1  0  0  0  0
  4 16  1  0  0  0  0
  5 18  1  0  0  0  0
  6 14  1  0  0  0  0
  6 15  1  0  0  0  0
  8 10  1  0  0  0  0
  9 10  1  0  0  0  0
  9  6  2  0  0  0  0
 10  3  2  0  0  0  0
 12  2  2  0  0  0  0
 13  5  1  0  0  0  0
 14  7  1  6  0  0  0
 14 13  1  0  0  0  0
 15  1  1  1  0  0  0
 15  5  1  0  0  0  0
 16  7  1  0  0  0  0
 16 14  1  0  0  0  0
 17  8  2  0  0  0  0
 17 12  1  0  0  0  0
 18 19  1  0  0  0  0
 21 22  2  0  0  0  0
 22 19  1  0  0  0  0
 22 20  1  0  0  0  0
 23 17  1  0  0  0  0
 25 26  2  0  0  0  0
 26 24  1  0  0  0  0
 26 23  1  0  0  0  0
M  END
>  <MODEL>
4

>  <REMARK>
 VINA RESULT:      -7.6      2.197      2.779
  Name = 
  5 active torsions:
  status: ('A' for Active; 'I' for Inactive)
    1  A    between atoms: N_7  and  C_15
    2  A    between atoms: C_10  and  C_15
    3  A    between atoms: C_10  and  C_17
    4  A    between atoms: C_13  and  O_22
    5  A    between atoms: O_22  and  C_26
                            x       y       z     vdW  Elec       q    Type
                         _______ _______ _______ _____ _____    ______ ____

>  <TORSDO>
F 5

$$$$
=
 OpenBabel11072414253D

 26 29  0  0  1  0  0  0  0  0999 V2000
  161.4700  205.5310  152.6920 C   0  0  0  0  0  2  0  0  0  0  0  0
  160.5030  202.7350  150.5760 C   0  0  0  0  0  3  0  0  0  0  0  0
  161.2450  204.9550  151.5020 C   0  0  0  0  0  0  0  0  0  0  0  0
  161.2160  209.9620  150.0810 O   0  0  0  0  0  1  0  0  0  0  0  0
  161.6110  207.7560  153.9420 N   0  0  0  0  0  0  0  0  0  0  0  0
  161.9270  207.7170  151.5890 C   0  0  0  0  0  0  0  0  0  0  0  0
  162.8630  209.9450  151.6110 N   0  0  0  0  0  2  0  0  0  0  0  0
  161.4220  205.2930  149.0040 C   0  0  0  0  0  3  0  0  0  0  0  0
  161.6400  207.2130  150.3910 C   0  0  0  0  0  3  0  0  0  0  0  0
  161.4490  205.7540  150.2530 C   0  0  0  0  0  0  0  0  0  0  0  0
  160.6890  203.6030  151.5610 C   0  0  0  0  0  2  0  0  0  0  0  0
  160.8100  202.8790  149.1530 C   0  0  0  0  0  3  0  0  0  0  0  0
  161.7330  209.1140  153.5390 N   0  0  0  0  0  2  0  0  0  0  0  0
  161.8400  209.0880  152.0890 C   0  0  2  0  0  0  0  0  0  0  0  0
  162.0740  206.9120  152.8100 C   0  0  2  0  0  3  0  0  0  0  0  0
  161.4710  210.2680  151.3760 N   0  0  0  0  0  0  0  0  0  0  0  0
  161.2130  203.9450  148.4550 C   0  0  0  0  0  0  0  0  0  0  0  0
  160.1920  207.5370  154.2290 C   0  0  0  0  0  2  0  0  0  0  0  0
  159.9920  207.2890  155.7130 C   0  0  0  0  0  2  0  0  0  0  0  0
  159.2400  209.5800  156.3470 O   0  0  0  0  0  0  0  0  0  0  0  0
  161.1450  208.6890  157.2600 O   0  0  0  0  0  1  0  0  0  0  0  0
  160.1650  208.5530  156.4820 C   0  0  0  0  0  0  0  0  0  0  0  0
  161.4440  203.8360  147.0710 O   0  0  0  0  0  0  0  0  0  0  0  0
  160.8760  205.7290  145.6970 O   0  0  0  0  0  0  0  0  0  0  0  0
  163.0380  205.0010  145.8330 O   0  0  0  0  0  1  0  0  0  0  0  0
  161.8380  204.8600  146.1930 C   0  0  0  0  0  0  0  0  0  0  0  0
  2 11  1  0  0  0  0
  3 11  1  0  0  0  0
  3  1  1  0  0  0  0
  4 16  1  0  0  0  0
  5 18  1  0  0  0  0
  6 15  1  0  0  0  0
  7 14  1  0  0  0  0
  8 10  1  0  0  0  0
  9  6  2  0  0  0  0
 10  9  1  0  0  0  0
 10  3  2  0  0  0  0
 12  2  2  0  0  0  0
 13  5  1  0  0  0  0
 14  6  1  6  0  0  0
 14 13  1  0  0  0  0
 15  1  1  6  0  0  0
 15  5  1  0  0  0  0
 16  7  1  0  0  0  0
 16 14  1  0  0  0  0
 17  8  2  0  0  0  0
 17 12  1  0  0  0  0
 18 19  1  0  0  0  0
 19 22  1  0  0  0  0
 20 22  2  0  0  0  0
 22 21  1  0  0  0  0
 23 17  1  0  0  0  0
 24 26  2  0  0  0  0
 25 26  1  0  0  0  0
 26 23  1  0  0  0  0
M  END
>  <MODEL>
5

>  <REMARK>
 VINA RESULT:      -7.6      1.944      2.501
  Name = 
  5 active torsions:
  status: ('A' for Active; 'I' for Inactive)
    1  A    between atoms: N_7  and  C_15
    2  A    between atoms: C_10  and  C_15
    3  A    between atoms: C_10  and  C_17
    4  A    between atoms: C_13  and  O_22
    5  A    between atoms: O_22  and  C_26
                            x       y       z     vdW  Elec       q    Type
                         _______ _______ _______ _____ _____    ______ ____

>  <TORSDO>
F 5

$$$$
=
 OpenBabel11072414253D

 26 29  0  0  1  0  0  0  0  0999 V2000
  160.4700  205.3430  151.8350 C   0  0  0  0  0  2  0  0  0  0  0  0
  161.0380  207.1740  154.9260 C   0  0  0  0  0  3  0  0  0  0  0  0
  160.8160  206.4370  152.5300 C   0  0  0  0  0  0  0  0  0  0  0  0
  162.8180  207.6680  147.8860 O   0  0  0  0  0  1  0  0  0  0  0  0
  160.7070  204.1270  149.6000 N   0  0  0  0  0  0  0  0  0  0  0  0
  161.0490  206.4750  149.6940 C   0  0  0  0  0  0  0  0  0  0  0  0
  160.9000  206.6590  147.2880 N   0  0  0  0  0  2  0  0  0  0  0  0
  161.4420  208.8760  152.3190 C   0  0  0  0  0  3  0  0  0  0  0  0
  161.4760  207.5570  150.3400 C   0  0  0  0  0  3  0  0  0  0  0  0
  161.2240  207.6730  151.7910 C   0  0  0  0  0  0  0  0  0  0  0  0
  160.8760  206.2580  153.9800 C   0  0  0  0  0  3  0  0  0  0  0  0
  161.1920  208.6220  154.7880 C   0  0  0  0  0  2  0  0  0  0  0  0
  161.1380  204.5140  148.3010 N   0  0  0  0  0  2  0  0  0  0  0  0
  161.4270  205.9360  148.3880 C   0  0  2  0  0  0  0  0  0  0  0  0
  160.3280  205.3640  150.3300 C   0  0  2  0  0  3  0  0  0  0  0  0
  162.3310  206.4880  147.4310 N   0  0  0  0  0  0  0  0  0  0  0  0
  161.3550  209.3780  153.6980 C   0  0  0  0  0  0  0  0  0  0  0  0
  161.8490  203.4610  150.2300 C   0  0  0  0  0  2  0  0  0  0  0  0
  161.4680  202.0500  150.6420 C   0  0  0  0  0  2  0  0  0  0  0  0
  159.4470  201.3060  149.3860 O   0  0  0  0  0  1  0  0  0  0  0  0
  161.5440  200.7480  148.6470 O   0  0  0  0  0  0  0  0  0  0  0  0
  160.8300  201.3290  149.5050 C   0  0  0  0  0  0  0  0  0  0  0  0
  161.4870  210.7740  153.8200 O   0  0  0  0  0  0  0  0  0  0  0  0
  159.9600  212.1830  152.6050 O   0  0  0  0  0  0  0  0  0  0  0  0
  159.9790  212.1910  154.8910 O   0  0  0  0  0  1  0  0  0  0  0  0
  160.4560  211.7280  153.8200 C   0  0  0  0  0  0  0  0  0  0  0  0
  1  3  1  0  0  0  0
  3 11  1  0  0  0  0
  5 18  1  0  0  0  0
  5 15  1  0  0  0  0
  6 15  1  0  0  0  0
  6  9  2  0  0  0  0
  7 16  1  0  0  0  0
  8 17  2  0  0  0  0
  9 10  1  0  0  0  0
 10  8  1  0  0  0  0
 10  3  2  0  0  0  0
 11  2  2  0  0  0  0
 12  2  1  0  0  0  0
 13 14  1  0  0  0  0
 13  5  1  0  0  0  0
 14  7  1  6  0  0  0
 14  6  1  0  0  0  0
 15  1  1  1  0  0  0
 16  4  1  0  0  0  0
 16 14  1  0  0  0  0
 17 23  1  0  0  0  0
 17 12  1  0  0  0  0
 18 19  1  0  0  0  0
 20 22  1  0  0  0  0
 21 22  2  0  0  0  0
 22 19  1  0  0  0  0
 23 26  1  0  0  0  0
 24 26  2  0  0  0  0
 26 25  1  0  0  0  0
M  END
>  <MODEL>
6

>  <REMARK>
 VINA RESULT:      -7.5      2.298      7.337
  Name = 
  5 active torsions:
  status: ('A' for Active; 'I' for Inactive)
    1  A    between atoms: N_7  and  C_15
    2  A    between atoms: C_10  and  C_15
    3  A    between atoms: C_10  and  C_17
    4  A    between atoms: C_13  and  O_22
    5  A    between atoms: O_22  and  C_26
                            x       y       z     vdW  Elec       q    Type
                         _______ _______ _______ _____ _____    ______ ____

>  <TORSDO>
F 5

$$$$
=
 OpenBabel11072414253D

 26 29  0  0  1  0  0  0  0  0999 V2000
  160.5980  206.1510  150.1640 C   0  0  0  0  0  2  0  0  0  0  0  0
  161.5070  209.2670  151.8070 C   0  0  0  0  0  3  0  0  0  0  0  0
  161.1280  207.3840  150.1810 C   0  0  0  0  0  0  0  0  0  0  0  0
  163.2230  205.5770  145.7720 O   0  0  0  0  0  1  0  0  0  0  0  0
  160.5960  203.8940  148.9660 N   0  0  0  0  0  0  0  0  0  0  0  0
  161.3150  205.8350  147.8010 C   0  0  0  0  0  0  0  0  0  0  0  0
  161.1570  204.6970  145.6740 N   0  0  0  0  0  2  0  0  0  0  0  0
  162.1370  209.1920  148.7330 C   0  0  0  0  0  3  0  0  0  0  0  0
  161.9230  207.0190  147.7890 C   0  0  0  0  0  3  0  0  0  0  0  0
  161.7180  207.9410  148.9240 C   0  0  0  0  0  0  0  0  0  0  0  0
  161.1830  208.0180  151.4980 C   0  0  0  0  0  2  0  0  0  0  0  0
  161.8910  210.3640  150.9200 C   0  0  0  0  0  3  0  0  0  0  0  0
  161.0610  203.4430  147.7000 N   0  0  0  0  0  2  0  0  0  0  0  0
  161.5780  204.6240  147.0260 C   0  0  2  0  0  0  0  0  0  0  0  0
  160.4350  205.3690  148.8810 C   0  0  2  0  0  3  0  0  0  0  0  0
  162.5430  204.4260  145.9920 N   0  0  0  0  0  0  0  0  0  0  0  0
  162.1560  210.3710  149.6100 C   0  0  0  0  0  0  0  0  0  0  0  0
  161.6260  203.5230  149.9380 C   0  0  0  0  0  2  0  0  0  0  0  0
  161.1600  202.3360  150.7640 C   0  0  0  0  0  2  0  0  0  0  0  0
  161.5000  200.5060  149.1050 O   0  0  0  0  0  0  0  0  0  0  0  0
  159.3930  201.0320  149.8380 O   0  0  0  0  0  1  0  0  0  0  0  0
  160.6290  201.2620  149.8790 C   0  0  0  0  0  0  0  0  0  0  0  0
  162.5150  211.5710  148.9690 O   0  0  0  0  0  0  0  0  0  0  0  0
  160.6110  213.0410  148.8880 O   0  0  0  0  0  1  0  0  0  0  0  0
  161.8500  212.6430  147.0100 O   0  0  0  0  0  0  0  0  0  0  0  0
  161.6740  212.4280  148.2390 C   0  0  0  0  0  0  0  0  0  0  0  0
  1  3  1  0  0  0  0
  3 11  1  0  0  0  0
  4 16  1  0  0  0  0
  5 18  1  0  0  0  0
  6 15  1  0  0  0  0
  7 16  1  0  0  0  0
  8 10  1  0  0  0  0
  8 17  2  0  0  0  0
  9  6  2  0  0  0  0
  9 10  1  0  0  0  0
 10  3  2  0  0  0  0
 11  2  1  0  0  0  0
 12  2  2  0  0  0  0
 13  5  1  0  0  0  0
 14  7  1  6  0  0  0
 14 13  1  0  0  0  0
 14  6  1  0  0  0  0
 15  5  1  0  0  0  0
 15  1  1  1  0  0  0
 16 14  1  0  0  0  0
 17 12  1  0  0  0  0
 18 19  1  0  0  0  0
 20 22  2  0  0  0  0
 21 22  1  0  0  0  0
 22 19  1  0  0  0  0
 23 17  1  0  0  0  0
 25 26  2  0  0  0  0
 26 24  1  0  0  0  0
 26 23  1  0  0  0  0
M  END
>  <MODEL>
7

>  <REMARK>
 VINA RESULT:      -7.5      3.356      7.057
  Name = 
  5 active torsions:
  status: ('A' for Active; 'I' for Inactive)
    1  A    between atoms: N_7  and  C_15
    2  A    between atoms: C_10  and  C_15
    3  A    between atoms: C_10  and  C_17
    4  A    between atoms: C_13  and  O_22
    5  A    between atoms: O_22  and  C_26
                            x       y       z     vdW  Elec       q    Type
                         _______ _______ _______ _____ _____    ______ ____

>  <TORSDO>
F 5

$$$$
=
 OpenBabel11072414253D

 26 29  0  0  1  0  0  0  0  0999 V2000
  160.7550  206.4140  148.0360 C   0  0  0  0  0  2  0  0  0  0  0  0
  161.1690  204.7020  144.8540 C   0  0  0  0  0  3  0  0  0  0  0  0
  160.8950  205.3150  147.2790 C   0  0  0  0  0  0  0  0  0  0  0  0
  162.0770  203.3350  151.9450 O   0  0  0  0  0  1  0  0  0  0  0  0
  161.0550  207.3890  150.3790 N   0  0  0  0  0  0  0  0  0  0  0  0
  160.8320  205.0400  150.1110 C   0  0  0  0  0  0  0  0  0  0  0  0
  160.4070  204.7440  152.4720 N   0  0  0  0  0  2  0  0  0  0  0  0
  160.8960  202.7890  147.3290 C   0  0  0  0  0  3  0  0  0  0  0  0
  161.0500  203.9290  149.4100 C   0  0  0  0  0  3  0  0  0  0  0  0
  160.9220  203.9730  147.9390 C   0  0  0  0  0  0  0  0  0  0  0  0
  161.1390  205.5670  145.8590 C   0  0  0  0  0  2  0  0  0  0  0  0
  160.9580  203.2540  144.8790 C   0  0  0  0  0  3  0  0  0  0  0  0
  161.2500  206.8250  151.6700 N   0  0  0  0  0  2  0  0  0  0  0  0
  161.1970  205.3840  151.4840 C   0  0  2  0  0  0  0  0  0  0  0  0
  160.4640  206.3330  149.5170 C   0  0  2  0  0  3  0  0  0  0  0  0
  161.8450  204.5670  152.4590 N   0  0  0  0  0  0  0  0  0  0  0  0
  160.8270  202.4130  145.9090 C   0  0  0  0  0  0  0  0  0  0  0  0
  162.3790  207.7920  149.9020 C   0  0  0  0  0  2  0  0  0  0  0  0
  162.2700  209.0540  149.0640 C   0  0  0  0  0  2  0  0  0  0  0  0
  161.9560  211.5070  149.3870 O   0  0  0  0  0  0  0  0  0  0  0  0
  162.3570  210.1410  151.1840 O   0  0  0  0  0  1  0  0  0  0  0  0
  162.2010  210.2570  149.9410 C   0  0  0  0  0  0  0  0  0  0  0  0
  160.6330  201.0390  145.6770 O   0  0  0  0  0  0  0  0  0  0  0  0
  161.3510  198.7420  145.7530 O   0  0  0  0  0  0  0  0  0  0  0  0
  161.5810  200.0910  147.5830 O   0  0  0  0  0  1  0  0  0  0  0  0
  161.2070  199.9700  146.3860 C   0  0  0  0  0  0  0  0  0  0  0  0
  2 12  2  0  0  0  0
  2 11  1  0  0  0  0
  3 10  2  0  0  0  0
  3  1  1  0  0  0  0
  4 16  1  0  0  0  0
  5 13  1  0  0  0  0
  8 10  1  0  0  0  0
  9  6  2  0  0  0  0
 10  9  1  0  0  0  0
 11  3  1  0  0  0  0
 12 17  1  0  0  0  0
 14  6  1  6  0  0  0
 14 13  1  0  0  0  0
 14 16  1  0  0  0  0
 14  7  1  0  0  0  0
 15  1  1  6  0  0  0
 15  6  1  0  0  0  0
 15  5  1  0  0  0  0
 16  7  1  0  0  0  0
 17  8  2  0  0  0  0
 18  5  1  0  0  0  0
 19 18  1  0  0  0  0
 19 22  1  0  0  0  0
 20 22  2  0  0  0  0
 22 21  1  0  0  0  0
 23 17  1  0  0  0  0
 23 26  1  0  0  0  0
 24 26  2  0  0  0  0
 26 25  1  0  0  0  0
M  END
>  <MODEL>
8

>  <REMARK>
 VINA RESULT:      -7.4      2.317      4.156
  Name = 
  5 active torsions:
  status: ('A' for Active; 'I' for Inactive)
    1  A    between atoms: N_7  and  C_15
    2  A    between atoms: C_10  and  C_15
    3  A    between atoms: C_10  and  C_17
    4  A    between atoms: C_13  and  O_22
    5  A    between atoms: O_22  and  C_26
                            x       y       z     vdW  Elec       q    Type
                         _______ _______ _______ _____ _____    ______ ____

>  <TORSDO>
F 5

$$$$
=
 OpenBabel11072414253D

 26 29  0  0  1  0  0  0  0  0999 V2000
  160.6230  206.5020  150.3710 C   0  0  0  0  0  2  0  0  0  0  0  0
  161.5940  209.8400  151.4420 C   0  0  0  0  0  3  0  0  0  0  0  0
  161.1860  207.7040  150.1750 C   0  0  0  0  0  0  0  0  0  0  0  0
  163.2930  205.0790  146.2050 O   0  0  0  0  0  1  0  0  0  0  0  0
  160.5760  204.0660  149.6000 N   0  0  0  0  0  0  0  0  0  0  0  0
  161.3650  205.7450  148.1180 C   0  0  0  0  0  0  0  0  0  0  0  0
  161.2050  204.2460  146.2290 N   0  0  0  0  0  2  0  0  0  0  0  0
  162.2650  209.1940  148.4440 C   0  0  0  0  0  3  0  0  0  0  0  0
  162.0050  206.8920  147.9040 C   0  0  0  0  0  3  0  0  0  0  0  0
  161.8090  208.0100  148.8500 C   0  0  0  0  0  0  0  0  0  0  0  0
  161.2400  208.5640  151.3570 C   0  0  0  0  0  2  0  0  0  0  0  0
  162.0210  210.7490  150.3780 C   0  0  0  0  0  3  0  0  0  0  0  0
  161.0470  203.3820  148.4450 N   0  0  0  0  0  2  0  0  0  0  0  0
  161.6050  204.4080  147.5790 C   0  0  2  0  0  0  0  0  0  0  0  0
  160.4570  205.5040  149.2480 C   0  0  2  0  0  3  0  0  0  0  0  0
  162.5790  204.0030  146.6170 N   0  0  0  0  0  0  0  0  0  0  0  0
  162.3040  210.5120  149.0940 C   0  0  0  0  0  0  0  0  0  0  0  0
  161.5810  203.8520  150.6430 C   0  0  0  0  0  2  0  0  0  0  0  0
  160.9390  203.9540  152.0160 C   0  0  0  0  0  2  0  0  0  0  0  0
  160.8500  205.6440  153.8460 O   0  0  0  0  0  1  0  0  0  0  0  0
  162.7060  205.4750  152.5110 O   0  0  0  0  0  0  0  0  0  0  0  0
  161.5510  205.0650  152.7960 C   0  0  0  0  0  0  0  0  0  0  0  0
  162.7050  211.5670  148.2530 O   0  0  0  0  0  0  0  0  0  0  0  0
  162.3150  213.9180  147.9130 O   0  0  0  0  0  1  0  0  0  0  0  0
  160.8080  212.3710  147.1650 O   0  0  0  0  0  0  0  0  0  0  0  0
  161.9000  212.6030  147.7490 C   0  0  0  0  0  0  0  0  0  0  0  0
  3  1  1  0  0  0  0
  3 11  1  0  0  0  0
  4 16  1  0  0  0  0
  5 18  1  0  0  0  0
  6 15  1  0  0  0  0
  7 16  1  0  0  0  0
  8 10  1  0  0  0  0
  8 17  2  0  0  0  0
  9  6  2  0  0  0  0
  9 10  1  0  0  0  0
 10  3  2  0  0  0  0
 11  2  1  0  0  0  0
 12  2  2  0  0  0  0
 13  5  1  0  0  0  0
 14  7  1  6  0  0  0
 14  6  1  0  0  0  0
 14 13  1  0  0  0  0
 15  5  1  0  0  0  0
 15  1  1  1  0  0  0
 16 14  1  0  0  0  0
 17 12  1  0  0  0  0
 18 19  1  0  0  0  0
 19 22  1  0  0  0  0
 21 22  2  0  0  0  0
 22 20  1  0  0  0  0
 23 17  1  0  0  0  0
 25 26  2  0  0  0  0
 26 24  1  0  0  0  0
 26 23  1  0  0  0  0
M  END
>  <MODEL>
9

>  <REMARK>
 VINA RESULT:      -7.1      3.288      6.406
  Name = 
  5 active torsions:
  status: ('A' for Active; 'I' for Inactive)
    1  A    between atoms: N_7  and  C_15
    2  A    between atoms: C_10  and  C_15
    3  A    between atoms: C_10  and  C_17
    4  A    between atoms: C_13  and  O_22
    5  A    between atoms: O_22  and  C_26
                            x       y       z     vdW  Elec       q    Type
                         _______ _______ _______ _____ _____    ______ ____

>  <TORSDO>
F 5

$$$$
