=
 OpenBabel11072412143D

 31 36  0  0  1  0  0  0  0  0999 V2000
  161.0510  209.5410  153.4590 C   0  0  0  0  0  0  0  0  0  0  0  0
  161.1050  208.1700  153.1620 C   0  0  0  0  0  0  0  0  0  0  0  0
  161.4300  207.6880  155.4870 N   0  0  0  0  0  0  0  0  0  0  0  0
  161.3010  207.2540  154.2060 C   0  0  0  0  0  3  0  0  0  0  0  0
  161.3780  209.0100  155.7980 C   0  0  0  0  0  0  0  0  0  0  0  0
  161.1880  209.9590  154.7920 C   0  0  0  0  0  3  0  0  0  0  0  0
  161.5180  209.4290  157.1500 N   0  0  0  0  0  1  0  0  0  0  0  0
  161.4430  203.5030  149.1680 C   0  0  0  0  0  2  0  0  0  0  0  0
  160.8470  206.1780  151.6740 C   0  0  0  0  0  2  0  0  0  0  0  0
  160.9230  205.6590  150.2640 C   0  0  0  0  0  0  0  0  0  0  0  0
  161.8920  207.8050  149.4410 C   0  0  0  0  0  2  0  0  0  0  0  0
  161.4860  206.5450  146.7530 C   0  0  0  0  0  2  0  0  0  0  0  0
  161.8440  204.2510  147.8870 C   0  0  2  0  0  3  0  0  0  0  0  0
  161.0840  205.6750  145.5310 C   0  0  0  0  0  2  0  0  0  0  0  0
  161.5060  206.3540  149.2680 C   0  0  0  0  0  0  0  0  0  0  0  0
  162.1510  208.1680  150.8990 C   0  0  0  0  0  2  0  0  0  0  0  0
  161.8400  204.4420  145.6440 N   0  0  2  0  0  0  0  0  0  0  0  0
  161.2420  203.1320  145.4370 C   0  0  0  0  0  2  0  0  0  0  0  0
  160.4170  204.2790  149.9840 C   0  0  0  0  0  2  0  0  0  0  0  0
  161.6580  205.7260  147.9830 N   0  0  0  0  0  0  0  0  0  0  0  0
  161.0150  203.8140  146.7060 C   0  0  1  0  0  3  0  0  0  0  0  0
  160.9740  207.7010  151.7450 C   0  0  2  0  0  3  0  0  0  0  0  0
  160.8590  210.4660  152.4250 O   0  0  0  0  0  0  0  0  0  0  0  0
  160.1850  211.7080  152.5980 C   0  0  0  0  0  2  0  0  0  0  0  0
  158.6860  211.4860  152.7490 C   0  0  0  0  0  2  0  0  0  0  0  0
  157.2570  211.9400  156.2840 C   0  0  0  0  0  2  0  0  0  0  0  0
  158.3390  212.7520  156.7440 O   0  0  0  0  0  0  0  0  0  0  0  0
  159.2510  213.3510  155.8630 C   0  0  0  0  0  3  0  0  0  0  0  0
  158.1490  212.1940  153.9830 C   0  0  2  0  0  3  0  0  0  0  0  0
  159.2090  213.0910  154.5540 C   0  0  0  0  0  3  0  0  0  0  0  0
  157.6670  211.1820  155.0250 C   0  0  0  0  0  2  0  0  0  0  0  0
  1  6  1  0  0  0  0
  2  1  2  0  0  0  0
  2  4  1  0  0  0  0
  3  5  1  0  0  0  0
  4  3  2  0  0  0  0
  5  7  1  0  0  0  0
  6  5  2  0  0  0  0
  8 19  1  0  0  0  0
  9 22  1  0  0  0  0
 10  9  1  0  0  0  0
 11 16  1  0  0  0  0
 12 20  1  0  0  0  0
 13 20  1  0  0  0  0
 13  8  1  1  0  0  0
 14 17  1  0  0  0  0
 14 12  1  0  0  0  0
 15 11  1  0  0  0  0
 15 10  2  0  0  0  0
 16 22  1  0  0  0  0
 17 18  1  6  0  0  0
 17 21  1  0  0  0  0
 19 10  1  0  0  0  0
 20 15  1  0  0  0  0
 21 18  1  6  0  0  0
 21 13  1  0  0  0  0
 22  2  1  1  0  0  0
 23 24  1  0  0  0  0
 23  1  1  0  0  0  0
 24 25  1  0  0  0  0
 26 27  1  0  0  0  0
 28 27  1  0  0  0  0
 29 25  1  6  0  0  0
 29 30  1  0  0  0  0
 29 31  1  0  0  0  0
 30 28  2  0  0  0  0
 31 26  1  0  0  0  0
M  END
>  <MODEL>
1

>  <REMARK>
 VINA RESULT:      -8.6      0.000      0.000
  Name = 
  5 active torsions:
  status: ('A' for Active; 'I' for Inactive)
    1  A    between atoms: C_1  and  O_28
    2  A    between atoms: C_7  and  C_30
    3  A    between atoms: C_20  and  C_24
    4  A    between atoms: C_20  and  O_28
    5  A    between atoms: C_24  and  C_25
                            x       y       z     vdW  Elec       q    Type
                         _______ _______ _______ _____ _____    ______ ____

>  <TORSDO>
F 5

$$$$
=
 OpenBabel11072412143D

 31 36  0  0  1  0  0  0  0  0999 V2000
  161.3700  204.6020  148.6220 C   0  0  0  0  0  0  0  0  0  0  0  0
  161.4190  205.9290  149.0770 C   0  0  0  0  0  0  0  0  0  0  0  0
  162.2170  206.6260  146.9280 N   0  0  0  0  0  0  0  0  0  0  0  0
  161.8550  206.9340  148.2010 C   0  0  0  0  0  3  0  0  0  0  0  0
  162.1740  205.3490  146.4660 C   0  0  0  0  0  0  0  0  0  0  0  0
  161.7500  204.3160  147.3020 C   0  0  0  0  0  3  0  0  0  0  0  0
  162.5620  205.0640  145.1270 N   0  0  0  0  0  1  0  0  0  0  0  0
  161.3420  210.0630  153.6330 C   0  0  0  0  0  2  0  0  0  0  0  0
  161.0430  207.7660  150.7290 C   0  0  0  0  0  2  0  0  0  0  0  0
  160.8600  208.1190  152.1800 C   0  0  0  0  0  0  0  0  0  0  0  0
  161.4070  205.7930  152.8960 C   0  0  0  0  0  2  0  0  0  0  0  0
  160.5520  206.7990  155.5850 C   0  0  0  0  0  2  0  0  0  0  0  0
  161.3750  209.1380  154.8600 C   0  0  2  0  0  3  0  0  0  0  0  0
  159.9810  207.5770  156.8020 C   0  0  0  0  0  2  0  0  0  0  0  0
  161.1390  207.2530  153.1750 C   0  0  0  0  0  0  0  0  0  0  0  0
  161.9400  205.5580  151.4870 C   0  0  0  0  0  2  0  0  0  0  0  0
  160.8630  208.7100  157.0090 N   0  0  2  0  0  0  0  0  0  0  0  0
  160.3690  210.0560  157.2590 C   0  0  0  0  0  2  0  0  0  0  0  0
  160.4460  209.5130  152.5290 C   0  0  0  0  0  2  0  0  0  0  0  0
  161.0690  207.7170  154.5350 N   0  0  0  0  0  0  0  0  0  0  0  0
  160.3570  209.5470  155.8930 C   0  0  1  0  0  3  0  0  0  0  0  0
  161.0290  206.2560  150.4870 C   0  0  2  0  0  3  0  0  0  0  0  0
  160.9400  203.5890  149.4890 O   0  0  0  0  0  0  0  0  0  0  0  0
  160.2620  202.4150  149.0500 C   0  0  0  0  0  2  0  0  0  0  0  0
  161.2400  201.2560  148.9060 C   0  0  0  0  0  2  0  0  0  0  0  0
  161.4900  199.1550  145.7020 C   0  0  0  0  0  2  0  0  0  0  0  0
  160.5220  199.9220  144.9830 O   0  0  0  0  0  0  0  0  0  0  0  0
  160.1040  201.1900  145.4130 C   0  0  0  0  0  3  0  0  0  0  0  0
  161.4810  200.9220  147.4430 C   0  0  2  0  0  3  0  0  0  0  0  0
  160.5160  201.6860  146.5820 C   0  0  0  0  0  3  0  0  0  0  0  0
  161.3620  199.4170  147.2000 C   0  0  0  0  0  2  0  0  0  0  0  0
  1  2  1  0  0  0  0
  1 23  1  0  0  0  0
  3  4  1  0  0  0  0
  4  2  2  0  0  0  0
  5  3  2  0  0  0  0
  5  6  1  0  0  0  0
  6  1  2  0  0  0  0
  7  5  1  0  0  0  0
  9 10  1  0  0  0  0
 10 19  1  0  0  0  0
 10 15  2  0  0  0  0
 11 15  1  0  0  0  0
 12 14  1  0  0  0  0
 13  8  1  6  0  0  0
 13 21  1  0  0  0  0
 15 20  1  0  0  0  0
 16 11  1  0  0  0  0
 17 14  1  1  0  0  0
 17 18  1  0  0  0  0
 19  8  1  0  0  0  0
 20 13  1  0  0  0  0
 20 12  1  0  0  0  0
 21 17  1  0  0  0  0
 21 18  1  1  0  0  0
 22  2  1  6  0  0  0
 22  9  1  0  0  0  0
 22 16  1  0  0  0  0
 24 23  1  0  0  0  0
 25 24  1  0  0  0  0
 26 31  1  0  0  0  0
 27 28  1  0  0  0  0
 27 26  1  0  0  0  0
 28 30  2  0  0  0  0
 29 25  1  1  0  0  0
 30 29  1  0  0  0  0
 31 29  1  0  0  0  0
M  END
>  <MODEL>
2

>  <REMARK>
 VINA RESULT:      -8.3      3.180     10.165
  Name = 
  5 active torsions:
  status: ('A' for Active; 'I' for Inactive)
    1  A    between atoms: C_1  and  O_28
    2  A    between atoms: C_7  and  C_30
    3  A    between atoms: C_20  and  C_24
    4  A    between atoms: C_20  and  O_28
    5  A    between atoms: C_24  and  C_25
                            x       y       z     vdW  Elec       q    Type
                         _______ _______ _______ _____ _____    ______ ____

>  <TORSDO>
F 5

$$$$
=
 OpenBabel11072412143D

 31 36  0  0  1  0  0  0  0  0999 V2000
  160.7510  209.3580  153.4160 C   0  0  0  0  0  0  0  0  0  0  0  0
  160.9870  208.0100  153.1040 C   0  0  0  0  0  0  0  0  0  0  0  0
  161.5360  207.5850  155.3970 N   0  0  0  0  0  0  0  0  0  0  0  0
  161.3870  207.1350  154.1240 C   0  0  0  0  0  3  0  0  0  0  0  0
  161.3090  208.8850  155.7220 C   0  0  0  0  0  0  0  0  0  0  0  0
  160.9130  209.7930  154.7400 C   0  0  0  0  0  3  0  0  0  0  0  0
  161.4770  209.3220  157.0660 N   0  0  0  0  0  1  0  0  0  0  0  0
  161.4300  203.3390  149.1240 C   0  0  0  0  0  2  0  0  0  0  0  0
  160.7820  205.9980  151.6360 C   0  0  0  0  0  2  0  0  0  0  0  0
  160.8360  205.4740  150.2270 C   0  0  0  0  0  0  0  0  0  0  0  0
  161.6640  207.6600  149.3590 C   0  0  0  0  0  2  0  0  0  0  0  0
  161.2320  206.3630  146.6930 C   0  0  0  0  0  2  0  0  0  0  0  0
  161.7470  204.0980  147.8260 C   0  0  2  0  0  3  0  0  0  0  0  0
  160.8330  205.4650  145.4910 C   0  0  0  0  0  2  0  0  0  0  0  0
  161.3480  206.1910  149.2070 C   0  0  0  0  0  0  0  0  0  0  0  0
  161.9530  208.0470  150.8050 C   0  0  0  0  0  2  0  0  0  0  0  0
  161.6560  204.2740  145.5840 N   0  0  2  0  0  0  0  0  0  0  0  0
  161.1210  202.9330  145.4040 C   0  0  0  0  0  2  0  0  0  0  0  0
  160.3930  204.0680  149.9710 C   0  0  0  0  0  2  0  0  0  0  0  0
  161.4890  205.5620  147.9210 N   0  0  0  0  0  0  0  0  0  0  0  0
  160.9020  203.6110  146.6770 C   0  0  1  0  0  3  0  0  0  0  0  0
  160.8320  207.5260  151.6940 C   0  0  2  0  0  3  0  0  0  0  0  0
  160.3550  210.2430  152.4050 O   0  0  0  0  0  0  0  0  0  0  0  0
  160.2000  211.6450  152.6050 C   0  0  0  0  0  2  0  0  0  0  0  0
  158.8150  212.0990  152.1630 C   0  0  0  0  0  2  0  0  0  0  0  0
  160.1100  214.3030  149.2980 C   0  0  0  0  0  2  0  0  0  0  0  0
  158.8800  214.2860  148.5720 O   0  0  0  0  0  0  0  0  0  0  0  0
  157.6730  213.8720  149.1550 C   0  0  0  0  0  3  0  0  0  0  0  0
  158.9050  213.2800  151.2090 C   0  0  2  0  0  3  0  0  0  0  0  0
  157.6490  213.3680  150.3910 C   0  0  0  0  0  3  0  0  0  0  0  0
  160.1380  213.1620  150.3120 C   0  0  0  0  0  2  0  0  0  0  0  0
  1  6  1  0  0  0  0
  2  1  2  0  0  0  0
  2  4  1  0  0  0  0
  3  5  1  0  0  0  0
  4  3  2  0  0  0  0
  5  7  1  0  0  0  0
  6  5  2  0  0  0  0
  8 19  1  0  0  0  0
  9 22  1  0  0  0  0
 10  9  1  0  0  0  0
 11 16  1  0  0  0  0
 12 20  1  0  0  0  0
 13 20  1  0  0  0  0
 13  8  1  1  0  0  0
 14 17  1  0  0  0  0
 14 12  1  0  0  0  0
 15 11  1  0  0  0  0
 15 10  2  0  0  0  0
 16 22  1  0  0  0  0
 17 18  1  6  0  0  0
 17 21  1  0  0  0  0
 19 10  1  0  0  0  0
 20 15  1  0  0  0  0
 21 18  1  6  0  0  0
 21 13  1  0  0  0  0
 22  2  1  1  0  0  0
 23 24  1  0  0  0  0
 23  1  1  0  0  0  0
 25 24  1  0  0  0  0
 26 31  1  0  0  0  0
 27 28  1  0  0  0  0
 27 26  1  0  0  0  0
 28 30  2  0  0  0  0
 29 25  1  1  0  0  0
 30 29  1  0  0  0  0
 31 29  1  0  0  0  0
M  END
>  <MODEL>
3

>  <REMARK>
 VINA RESULT:      -8.2      1.761      2.803
  Name = 
  5 active torsions:
  status: ('A' for Active; 'I' for Inactive)
    1  A    between atoms: C_1  and  O_28
    2  A    between atoms: C_7  and  C_30
    3  A    between atoms: C_20  and  C_24
    4  A    between atoms: C_20  and  O_28
    5  A    between atoms: C_24  and  C_25
                            x       y       z     vdW  Elec       q    Type
                         _______ _______ _______ _____ _____    ______ ____

>  <TORSDO>
F 5

$$$$
=
 OpenBabel11072412143D

 31 36  0  0  1  0  0  0  0  0999 V2000
  160.7040  209.5650  153.2110 C   0  0  0  0  0  0  0  0  0  0  0  0
  160.9750  208.2210  152.9100 C   0  0  0  0  0  0  0  0  0  0  0  0
  161.5410  207.8310  155.2060 N   0  0  0  0  0  0  0  0  0  0  0  0
  161.4000  207.3650  153.9370 C   0  0  0  0  0  3  0  0  0  0  0  0
  161.2810  209.1270  155.5200 C   0  0  0  0  0  0  0  0  0  0  0  0
  160.8580  210.0160  154.5310 C   0  0  0  0  0  3  0  0  0  0  0  0
  161.4400  209.5790  156.8600 N   0  0  0  0  0  1  0  0  0  0  0  0
  161.5080  203.5230  148.9740 C   0  0  0  0  0  2  0  0  0  0  0  0
  160.8090  206.1910  151.4610 C   0  0  0  0  0  2  0  0  0  0  0  0
  160.8730  205.6550  150.0570 C   0  0  0  0  0  0  0  0  0  0  0  0
  161.6570  207.8490  149.1690 C   0  0  0  0  0  2  0  0  0  0  0  0
  161.2500  206.5190  146.5150 C   0  0  0  0  0  2  0  0  0  0  0  0
  161.8090  204.2750  147.6690 C   0  0  2  0  0  3  0  0  0  0  0  0
  160.8680  205.6010  145.3220 C   0  0  0  0  0  2  0  0  0  0  0  0
  161.3700  206.3730  149.0300 C   0  0  0  0  0  0  0  0  0  0  0  0
  161.9390  208.2550  150.6110 C   0  0  0  0  0  2  0  0  0  0  0  0
  161.7150  204.4280  145.4260 N   0  0  2  0  0  0  0  0  0  0  0  0
  161.2050  203.0750  145.2590 C   0  0  0  0  0  2  0  0  0  0  0  0
  160.4570  204.2380  149.8150 C   0  0  0  0  0  2  0  0  0  0  0  0
  161.5220  205.7340  147.7510 N   0  0  0  0  0  0  0  0  0  0  0  0
  160.9740  203.7600  146.5250 C   0  0  1  0  0  3  0  0  0  0  0  0
  160.8290  207.7200  151.5050 C   0  0  2  0  0  3  0  0  0  0  0  0
  160.2820  210.4310  152.1940 O   0  0  0  0  0  0  0  0  0  0  0  0
  160.9570  211.6400  151.8630 C   0  0  0  0  0  2  0  0  0  0  0  0
  160.0720  212.5250  150.9940 C   0  0  0  0  0  2  0  0  0  0  0  0
  162.3250  212.2570  147.8950 C   0  0  0  0  0  2  0  0  0  0  0  0
  161.2880  212.5880  146.9680 O   0  0  0  0  0  0  0  0  0  0  0  0
  160.0770  213.1660  147.3760 C   0  0  0  0  0  3  0  0  0  0  0  0
  160.7980  212.9460  149.7260 C   0  0  2  0  0  3  0  0  0  0  0  0
  159.7990  213.3280  148.6720 C   0  0  0  0  0  3  0  0  0  0  0  0
  161.7200  211.8300  149.2290 C   0  0  0  0  0  2  0  0  0  0  0  0
  1  6  1  0  0  0  0
  2  1  2  0  0  0  0
  2  4  1  0  0  0  0
  3  5  1  0  0  0  0
  4  3  2  0  0  0  0
  5  7  1  0  0  0  0
  6  5  2  0  0  0  0
  8 19  1  0  0  0  0
  9 22  1  0  0  0  0
 10  9  1  0  0  0  0
 11 16  1  0  0  0  0
 12 20  1  0  0  0  0
 13 20  1  0  0  0  0
 13  8  1  1  0  0  0
 14 17  1  0  0  0  0
 14 12  1  0  0  0  0
 15 11  1  0  0  0  0
 15 10  2  0  0  0  0
 16 22  1  0  0  0  0
 17 18  1  6  0  0  0
 17 21  1  0  0  0  0
 19 10  1  0  0  0  0
 20 15  1  0  0  0  0
 21 18  1  6  0  0  0
 21 13  1  0  0  0  0
 22  2  1  1  0  0  0
 23  1  1  0  0  0  0
 24 23  1  0  0  0  0
 25 24  1  0  0  0  0
 26 31  1  0  0  0  0
 27 28  1  0  0  0  0
 27 26  1  0  0  0  0
 28 30  2  0  0  0  0
 29 25  1  1  0  0  0
 30 29  1  0  0  0  0
 31 29  1  0  0  0  0
M  END
>  <MODEL>
4

>  <REMARK>
 VINA RESULT:      -8.0      2.087      3.564
  Name = 
  5 active torsions:
  status: ('A' for Active; 'I' for Inactive)
    1  A    between atoms: C_1  and  O_28
    2  A    between atoms: C_7  and  C_30
    3  A    between atoms: C_20  and  C_24
    4  A    between atoms: C_20  and  O_28
    5  A    between atoms: C_24  and  C_25
                            x       y       z     vdW  Elec       q    Type
                         _______ _______ _______ _____ _____    ______ ____

>  <TORSDO>
F 5

$$$$
=
 OpenBabel11072412143D

 31 36  0  0  1  0  0  0  0  0999 V2000
  160.7610  204.8750  150.0130 C   0  0  0  0  0  0  0  0  0  0  0  0
  160.7420  204.5770  151.3850 C   0  0  0  0  0  0  0  0  0  0  0  0
  161.2020  202.2800  150.8840 N   0  0  0  0  0  0  0  0  0  0  0  0
  160.9650  203.2560  151.7990 C   0  0  0  0  0  3  0  0  0  0  0  0
  161.2280  202.5450  149.5510 C   0  0  0  0  0  0  0  0  0  0  0  0
  161.0090  203.8450  149.0930 C   0  0  0  0  0  3  0  0  0  0  0  0
  161.4790  201.4980  148.6220 N   0  0  0  0  0  1  0  0  0  0  0  0
  161.7150  210.3810  153.1800 C   0  0  0  0  0  2  0  0  0  0  0  0
  160.8340  207.0350  151.8280 C   0  0  0  0  0  2  0  0  0  0  0  0
  160.7680  208.1150  152.8730 C   0  0  0  0  0  0  0  0  0  0  0  0
  160.7770  206.4400  154.7210 C   0  0  0  0  0  2  0  0  0  0  0  0
  160.2330  208.8440  156.4250 C   0  0  0  0  0  2  0  0  0  0  0  0
  161.5600  210.2400  154.7020 C   0  0  2  0  0  3  0  0  0  0  0  0
  159.8830  210.2380  157.0140 C   0  0  0  0  0  2  0  0  0  0  0  0
  160.8600  207.8530  154.1920 C   0  0  0  0  0  0  0  0  0  0  0  0
  161.2130  205.4060  153.6890 C   0  0  0  0  0  2  0  0  0  0  0  0
  161.0070  211.1020  156.7060 N   0  0  2  0  0  0  0  0  0  0  0  0
  160.8420  212.4510  156.1880 C   0  0  0  0  0  2  0  0  0  0  0  0
  160.6940  209.5400  152.4230 C   0  0  0  0  0  2  0  0  0  0  0  0
  160.9270  208.9550  155.1130 N   0  0  0  0  0  0  0  0  0  0  0  0
  160.6850  211.3250  155.2750 C   0  0  1  0  0  3  0  0  0  0  0  0
  160.4680  205.6590  152.3860 C   0  0  2  0  0  3  0  0  0  0  0  0
  160.5360  206.1900  149.5870 O   0  0  0  0  0  0  0  0  0  0  0  0
  160.4480  206.5660  148.2160 C   0  0  0  0  0  2  0  0  0  0  0  0
  161.8220  206.9430  147.6760 C   0  0  0  0  0  2  0  0  0  0  0  0
  163.0720  204.2080  145.2890 C   0  0  0  0  0  2  0  0  0  0  0  0
  161.7890  203.9610  144.7110 O   0  0  0  0  0  0  0  0  0  0  0  0
  160.7150  204.8500  144.8670 C   0  0  0  0  0  3  0  0  0  0  0  0
  162.1110  206.2240  146.3680 C   0  0  2  0  0  3  0  0  0  0  0  0
  160.8220  205.9170  145.6610 C   0  0  0  0  0  3  0  0  0  0  0  0
  162.9190  204.9480  146.6140 C   0  0  0  0  0  2  0  0  0  0  0  0
  1  2  1  0  0  0  0
  2  4  2  0  0  0  0
  3  4  1  0  0  0  0
  5  3  2  0  0  0  0
  6  5  1  0  0  0  0
  6  1  2  0  0  0  0
  7  5  1  0  0  0  0
  9 22  1  0  0  0  0
  9 10  1  0  0  0  0
 10 15  2  0  0  0  0
 12 14  1  0  0  0  0
 13  8  1  6  0  0  0
 13 20  1  0  0  0  0
 13 21  1  0  0  0  0
 15 11  1  0  0  0  0
 15 20  1  0  0  0  0
 16 11  1  0  0  0  0
 17 18  1  1  0  0  0
 17 14  1  0  0  0  0
 19 10  1  0  0  0  0
 19  8  1  0  0  0  0
 20 12  1  0  0  0  0
 21 18  1  6  0  0  0
 21 17  1  0  0  0  0
 22  2  1  6  0  0  0
 22 16  1  0  0  0  0
 23  1  1  0  0  0  0
 24 23  1  0  0  0  0
 25 24  1  0  0  0  0
 26 31  1  0  0  0  0
 27 28  1  0  0  0  0
 27 26  1  0  0  0  0
 28 30  2  0  0  0  0
 29 31  1  0  0  0  0
 29 25  1  1  0  0  0
 30 29  1  0  0  0  0
M  END
>  <MODEL>
5

>  <REMARK>
 VINA RESULT:      -7.7      2.809      9.244
  Name = 
  5 active torsions:
  status: ('A' for Active; 'I' for Inactive)
    1  A    between atoms: C_1  and  O_28
    2  A    between atoms: C_7  and  C_30
    3  A    between atoms: C_20  and  C_24
    4  A    between atoms: C_20  and  O_28
    5  A    between atoms: C_24  and  C_25
                            x       y       z     vdW  Elec       q    Type
                         _______ _______ _______ _____ _____    ______ ____

>  <TORSDO>
F 5

$$$$
=
 OpenBabel11072412143D

 31 36  0  0  1  0  0  0  0  0999 V2000
  161.9950  209.6720  150.3450 C   0  0  0  0  0  0  0  0  0  0  0  0
  161.9260  208.9440  149.1460 C   0  0  0  0  0  0  0  0  0  0  0  0
  161.8460  210.9970  147.9130 N   0  0  0  0  0  0  0  0  0  0  0  0
  161.8480  209.6380  147.9300 C   0  0  0  0  0  3  0  0  0  0  0  0
  161.9160  211.7220  149.0600 C   0  0  0  0  0  0  0  0  0  0  0  0
  161.9920  211.0750  150.2940 C   0  0  0  0  0  3  0  0  0  0  0  0
  161.9120  213.1440  149.0050 N   0  0  0  0  0  1  0  0  0  0  0  0
  161.5710  203.6740  145.9910 C   0  0  0  0  0  2  0  0  0  0  0  0
  162.2000  206.8620  147.7910 C   0  0  0  0  0  2  0  0  0  0  0  0
  161.9930  205.3730  147.7410 C   0  0  0  0  0  0  0  0  0  0  0  0
  160.6890  205.4010  149.8660 C   0  0  0  0  0  2  0  0  0  0  0  0
  160.8650  202.4220  149.5990 C   0  0  0  0  0  2  0  0  0  0  0  0
  160.9210  202.7570  147.0380 C   0  0  2  0  0  3  0  0  0  0  0  0
  161.1930  200.9490  149.2310 C   0  0  0  0  0  2  0  0  0  0  0  0
  161.2060  204.7210  148.6210 C   0  0  0  0  0  0  0  0  0  0  0  0
  160.5910  206.9140  149.7060 C   0  0  0  0  0  2  0  0  0  0  0  0
  160.6000  200.7150  147.9280 N   0  0  2  0  0  0  0  0  0  0  0  0
  161.3060  200.0310  146.8560 C   0  0  0  0  0  2  0  0  0  0  0  0
  162.6060  204.6050  146.6130 C   0  0  0  0  0  2  0  0  0  0  0  0
  160.9530  203.3210  148.4160 N   0  0  0  0  0  0  0  0  0  0  0  0
  161.6250  201.4280  147.1260 C   0  0  1  0  0  3  0  0  0  0  0  0
  161.9150  207.4450  149.1760 C   0  0  2  0  0  3  0  0  0  0  0  0
  162.0690  208.9910  151.5660 O   0  0  0  0  0  0  0  0  0  0  0  0
  161.0070  208.9610  152.5140 C   0  0  0  0  0  2  0  0  0  0  0  0
  160.9140  207.5890  153.1700 C   0  0  0  0  0  2  0  0  0  0  0  0
  161.5290  209.1560  156.6210 C   0  0  0  0  0  2  0  0  0  0  0  0
  160.4610  208.4540  157.2610 O   0  0  0  0  0  0  0  0  0  0  0  0
  159.8440  207.3390  156.6760 C   0  0  0  0  0  3  0  0  0  0  0  0
  161.2230  207.6730  154.6570 C   0  0  2  0  0  3  0  0  0  0  0  0
  160.1600  206.9540  155.4370 C   0  0  0  0  0  3  0  0  0  0  0  0
  161.3440  209.1300  155.1070 C   0  0  0  0  0  2  0  0  0  0  0  0
  1 23  1  0  0  0  0
  2  1  2  0  0  0  0
  3  4  2  0  0  0  0
  3  5  1  0  0  0  0
  4  2  1  0  0  0  0
  5  6  2  0  0  0  0
  6  1  1  0  0  0  0
  7  5  1  0  0  0  0
  8 19  1  0  0  0  0
  9 22  1  0  0  0  0
 10  9  1  0  0  0  0
 10 15  2  0  0  0  0
 13  8  1  6  0  0  0
 13 21  1  0  0  0  0
 13 20  1  0  0  0  0
 14 12  1  0  0  0  0
 15 11  1  0  0  0  0
 16 11  1  0  0  0  0
 17 18  1  6  0  0  0
 17 14  1  0  0  0  0
 19 10  1  0  0  0  0
 20 15  1  0  0  0  0
 20 12  1  0  0  0  0
 21 18  1  6  0  0  0
 21 17  1  0  0  0  0
 22  2  1  6  0  0  0
 22 16  1  0  0  0  0
 23 24  1  0  0  0  0
 24 25  1  0  0  0  0
 26 27  1  0  0  0  0
 28 27  1  0  0  0  0
 29 25  1  6  0  0  0
 29 31  1  0  0  0  0
 29 30  1  0  0  0  0
 30 28  2  0  0  0  0
 31 26  1  0  0  0  0
M  END
>  <MODEL>
6

>  <REMARK>
 VINA RESULT:      -7.7      3.341      4.716
  Name = 
  5 active torsions:
  status: ('A' for Active; 'I' for Inactive)
    1  A    between atoms: C_1  and  O_28
    2  A    between atoms: C_7  and  C_30
    3  A    between atoms: C_20  and  C_24
    4  A    between atoms: C_20  and  O_28
    5  A    between atoms: C_24  and  C_25
                            x       y       z     vdW  Elec       q    Type
                         _______ _______ _______ _____ _____    ______ ____

>  <TORSDO>
F 5

$$$$
=
 OpenBabel11072412143D

 31 36  0  0  1  0  0  0  0  0999 V2000
  161.3670  205.2950  149.3470 C   0  0  0  0  0  0  0  0  0  0  0  0
  161.4540  206.6600  149.6630 C   0  0  0  0  0  0  0  0  0  0  0  0
  162.2600  207.1120  147.4520 N   0  0  0  0  0  0  0  0  0  0  0  0
  161.9120  207.5580  148.6880 C   0  0  0  0  0  3  0  0  0  0  0  0
  162.1800  205.7960  147.1230 C   0  0  0  0  0  0  0  0  0  0  0  0
  161.7330  204.8660  148.0630 C   0  0  0  0  0  3  0  0  0  0  0  0
  162.5530  205.3650  145.8200 N   0  0  0  0  0  1  0  0  0  0  0  0
  161.0910  211.3620  153.6150 C   0  0  0  0  0  2  0  0  0  0  0  0
  160.9400  208.6630  151.0670 C   0  0  0  0  0  2  0  0  0  0  0  0
  160.7710  209.1950  152.4640 C   0  0  0  0  0  0  0  0  0  0  0  0
  161.5880  207.0600  153.4610 C   0  0  0  0  0  2  0  0  0  0  0  0
  160.7230  208.3410  156.0280 C   0  0  0  0  0  2  0  0  0  0  0  0
  161.2660  210.6260  154.9520 C   0  0  2  0  0  3  0  0  0  0  0  0
  160.1150  209.2200  157.1550 C   0  0  0  0  0  2  0  0  0  0  0  0
  161.1760  208.5100  153.5530 C   0  0  0  0  0  0  0  0  0  0  0  0
  162.0940  206.6850  152.0730 C   0  0  0  0  0  2  0  0  0  0  0  0
  160.8770  210.4540  157.1620 N   0  0  2  0  0  0  0  0  0  0  0  0
  160.2500  211.7640  157.2520 C   0  0  0  0  0  2  0  0  0  0  0  0
  160.2220  210.5750  152.6410 C   0  0  0  0  0  2  0  0  0  0  0  0
  161.1030  209.1500  154.8390 N   0  0  0  0  0  0  0  0  0  0  0  0
  160.2470  211.0710  155.9690 C   0  0  1  0  0  3  0  0  0  0  0  0
  161.0800  207.1400  151.0330 C   0  0  2  0  0  3  0  0  0  0  0  0
  160.9150  204.3880  150.3140 O   0  0  0  0  0  0  0  0  0  0  0  0
  160.0760  203.2760  150.0160 C   0  0  0  0  0  2  0  0  0  0  0  0
  160.9090  202.0160  149.8190 C   0  0  0  0  0  2  0  0  0  0  0  0
  160.2080  201.5140  146.0770 C   0  0  0  0  0  2  0  0  0  0  0  0
  161.2010  200.5000  145.9070 O   0  0  0  0  0  0  0  0  0  0  0  0
  161.7840  199.8340  146.9950 C   0  0  0  0  0  3  0  0  0  0  0  0
  160.5310  201.3070  148.5280 C   0  0  2  0  0  3  0  0  0  0  0  0
  161.5100  200.2040  148.2490 C   0  0  0  0  0  3  0  0  0  0  0  0
  160.4690  202.2950  147.3610 C   0  0  0  0  0  2  0  0  0  0  0  0
  1  2  1  0  0  0  0
  1 23  1  0  0  0  0
  3  4  1  0  0  0  0
  4  2  2  0  0  0  0
  5  3  2  0  0  0  0
  5  6  1  0  0  0  0
  6  1  2  0  0  0  0
  7  5  1  0  0  0  0
  9 10  1  0  0  0  0
 10 19  1  0  0  0  0
 10 15  2  0  0  0  0
 11 15  1  0  0  0  0
 12 14  1  0  0  0  0
 13  8  1  6  0  0  0
 13 21  1  0  0  0  0
 15 20  1  0  0  0  0
 16 11  1  0  0  0  0
 17 14  1  1  0  0  0
 17 18  1  0  0  0  0
 19  8  1  0  0  0  0
 20 13  1  0  0  0  0
 20 12  1  0  0  0  0
 21 17  1  0  0  0  0
 21 18  1  1  0  0  0
 22  2  1  6  0  0  0
 22  9  1  0  0  0  0
 22 16  1  0  0  0  0
 24 23  1  0  0  0  0
 25 24  1  0  0  0  0
 26 31  1  0  0  0  0
 27 26  1  0  0  0  0
 27 28  1  0  0  0  0
 28 30  2  0  0  0  0
 29 25  1  1  0  0  0
 30 29  1  0  0  0  0
 31 29  1  0  0  0  0
M  END
>  <MODEL>
7

>  <REMARK>
 VINA RESULT:      -7.2      2.902      9.930
  Name = 
  5 active torsions:
  status: ('A' for Active; 'I' for Inactive)
    1  A    between atoms: C_1  and  O_28
    2  A    between atoms: C_7  and  C_30
    3  A    between atoms: C_20  and  C_24
    4  A    between atoms: C_20  and  O_28
    5  A    between atoms: C_24  and  C_25
                            x       y       z     vdW  Elec       q    Type
                         _______ _______ _______ _____ _____    ______ ____

>  <TORSDO>
F 5

$$$$
=
 OpenBabel11072412143D

 31 36  0  0  1  0  0  0  0  0999 V2000
  162.2470  210.0820  150.2870 C   0  0  0  0  0  0  0  0  0  0  0  0
  161.9470  209.2570  149.1920 C   0  0  0  0  0  0  0  0  0  0  0  0
  161.6380  211.2000  147.8240 N   0  0  0  0  0  0  0  0  0  0  0  0
  161.6390  209.8470  147.9580 C   0  0  0  0  0  3  0  0  0  0  0  0
  161.9290  212.0180  148.8700 C   0  0  0  0  0  0  0  0  0  0  0  0
  162.2390  211.4750  150.1170 C   0  0  0  0  0  3  0  0  0  0  0  0
  161.9180  213.4290  148.6930 N   0  0  0  0  0  1  0  0  0  0  0  0
  161.4250  203.7340  146.5310 C   0  0  0  0  0  2  0  0  0  0  0  0
  162.1490  207.0630  148.0110 C   0  0  0  0  0  2  0  0  0  0  0  0
  161.9390  205.5760  148.1020 C   0  0  0  0  0  0  0  0  0  0  0  0
  160.7500  205.7960  150.2830 C   0  0  0  0  0  2  0  0  0  0  0  0
  160.9110  202.8040  150.2680 C   0  0  0  0  0  2  0  0  0  0  0  0
  160.8320  202.9140  147.6870 C   0  0  2  0  0  3  0  0  0  0  0  0
  161.2200  201.3030  150.0130 C   0  0  0  0  0  2  0  0  0  0  0  0
  161.2000  205.0080  149.0760 C   0  0  0  0  0  0  0  0  0  0  0  0
  160.6430  207.2890  149.9970 C   0  0  0  0  0  2  0  0  0  0  0  0
  160.5580  200.9590  148.7680 N   0  0  2  0  0  0  0  0  0  0  0  0
  161.2070  200.1810  147.7230 C   0  0  0  0  0  2  0  0  0  0  0  0
  162.4920  204.7100  147.0140 C   0  0  0  0  0  2  0  0  0  0  0  0
  160.9360  203.5960  149.0080 N   0  0  0  0  0  0  0  0  0  0  0  0
  161.5400  201.5940  147.8540 C   0  0  1  0  0  3  0  0  0  0  0  0
  161.9380  207.7660  149.3530 C   0  0  2  0  0  3  0  0  0  0  0  0
  162.5530  209.5050  151.5260 O   0  0  0  0  0  0  0  0  0  0  0  0
  161.9520  209.9120  152.7520 C   0  0  0  0  0  2  0  0  0  0  0  0
  160.4630  209.5900  152.7490 C   0  0  0  0  0  2  0  0  0  0  0  0
  159.6890  212.5690  155.0450 C   0  0  0  0  0  2  0  0  0  0  0  0
  159.3040  213.4410  153.9800 O   0  0  0  0  0  0  0  0  0  0  0  0
  159.0130  212.9650  152.6930 C   0  0  0  0  0  3  0  0  0  0  0  0
  159.6630  210.6980  153.4170 C   0  0  2  0  0  3  0  0  0  0  0  0
  159.1940  211.6790  152.3820 C   0  0  0  0  0  3  0  0  0  0  0  0
  160.4930  211.3930  154.4980 C   0  0  0  0  0  2  0  0  0  0  0  0
  1 23  1  0  0  0  0
  2  1  2  0  0  0  0
  3  4  2  0  0  0  0
  3  5  1  0  0  0  0
  4  2  1  0  0  0  0
  5  6  2  0  0  0  0
  6  1  1  0  0  0  0
  7  5  1  0  0  0  0
  8 19  1  0  0  0  0
  9 10  1  0  0  0  0
  9 22  1  0  0  0  0
 10 15  2  0  0  0  0
 13  8  1  6  0  0  0
 13 21  1  0  0  0  0
 13 20  1  0  0  0  0
 14 12  1  0  0  0  0
 15 11  1  0  0  0  0
 16 11  1  0  0  0  0
 17 18  1  6  0  0  0
 17 14  1  0  0  0  0
 19 10  1  0  0  0  0
 20 15  1  0  0  0  0
 20 12  1  0  0  0  0
 21 18  1  6  0  0  0
 21 17  1  0  0  0  0
 22  2  1  6  0  0  0
 22 16  1  0  0  0  0
 23 24  1  0  0  0  0
 25 24  1  0  0  0  0
 27 26  1  0  0  0  0
 28 27  1  0  0  0  0
 29 25  1  6  0  0  0
 29 31  1  0  0  0  0
 30 28  2  0  0  0  0
 30 29  1  0  0  0  0
 31 26  1  0  0  0  0
M  END
>  <MODEL>
8

>  <REMARK>
 VINA RESULT:      -7.2      2.821      4.253
  Name = 
  5 active torsions:
  status: ('A' for Active; 'I' for Inactive)
    1  A    between atoms: C_1  and  O_28
    2  A    between atoms: C_7  and  C_30
    3  A    between atoms: C_20  and  C_24
    4  A    between atoms: C_20  and  O_28
    5  A    between atoms: C_24  and  C_25
                            x       y       z     vdW  Elec       q    Type
                         _______ _______ _______ _____ _____    ______ ____

>  <TORSDO>
F 5

$$$$
=
 OpenBabel11072412143D

 31 36  0  0  1  0  0  0  0  0999 V2000
  161.3930  209.4240  152.2160 C   0  0  0  0  0  0  0  0  0  0  0  0
  161.0810  208.0990  152.5590 C   0  0  0  0  0  0  0  0  0  0  0  0
  161.1430  208.6940  154.8790 N   0  0  0  0  0  0  0  0  0  0  0  0
  160.9640  207.7550  153.9130 C   0  0  0  0  0  3  0  0  0  0  0  0
  161.4420  209.9830  154.5700 C   0  0  0  0  0  0  0  0  0  0  0  0
  161.5720  210.3710  153.2360 C   0  0  0  0  0  3  0  0  0  0  0  0
  161.6240  210.9390  155.6080 N   0  0  0  0  0  1  0  0  0  0  0  0
  161.4320  202.1820  150.9080 C   0  0  0  0  0  2  0  0  0  0  0  0
  160.8410  205.6580  152.0780 C   0  0  0  0  0  2  0  0  0  0  0  0
  160.8660  204.5890  151.0190 C   0  0  0  0  0  0  0  0  0  0  0  0
  161.6850  206.1980  149.2990 C   0  0  0  0  0  2  0  0  0  0  0  0
  161.1980  203.9050  147.4340 C   0  0  0  0  0  2  0  0  0  0  0  0
  161.7260  202.3210  149.4060 C   0  0  2  0  0  3  0  0  0  0  0  0
  160.7730  202.5880  146.7280 C   0  0  0  0  0  2  0  0  0  0  0  0
  161.3610  204.8050  149.7840 C   0  0  0  0  0  0  0  0  0  0  0  0
  162.0030  207.1540  150.4430 C   0  0  0  0  0  2  0  0  0  0  0  0
  161.5940  201.5380  147.3010 N   0  0  2  0  0  0  0  0  0  0  0  0
  161.0500  200.2520  147.7110 C   0  0  0  0  0  2  0  0  0  0  0  0
  160.4140  203.2110  151.3860 C   0  0  0  0  0  2  0  0  0  0  0  0
  161.4750  203.6920  148.8810 N   0  0  0  0  0  0  0  0  0  0  0  0
  160.8580  201.4050  148.5830 C   0  0  1  0  0  3  0  0  0  0  0  0
  160.8970  207.0680  151.4860 C   0  0  2  0  0  3  0  0  0  0  0  0
  161.5160  209.7800  150.8670 O   0  0  0  0  0  0  0  0  0  0  0  0
  161.8610  211.0900  150.4290 C   0  0  0  0  0  2  0  0  0  0  0  0
  162.1360  211.0980  148.9300 C   0  0  0  0  0  2  0  0  0  0  0  0
  162.4500  214.4530  147.0890 C   0  0  0  0  0  2  0  0  0  0  0  0
  161.5500  214.0950  146.0390 O   0  0  0  0  0  0  0  0  0  0  0  0
  160.6860  212.9940  146.1380 C   0  0  0  0  0  3  0  0  0  0  0  0
  161.7160  212.4180  148.3040 C   0  0  2  0  0  3  0  0  0  0  0  0
  160.7520  212.1650  147.1820 C   0  0  0  0  0  3  0  0  0  0  0  0
  162.9360  213.2010  147.8150 C   0  0  0  0  0  2  0  0  0  0  0  0
  1  2  2  0  0  0  0
  1  6  1  0  0  0  0
  2  4  1  0  0  0  0
  4  3  2  0  0  0  0
  5  3  1  0  0  0  0
  5  7  1  0  0  0  0
  6  5  2  0  0  0  0
  8 19  1  0  0  0  0
 10 19  1  0  0  0  0
 10  9  1  0  0  0  0
 11 15  1  0  0  0  0
 11 16  1  0  0  0  0
 12 20  1  0  0  0  0
 13  8  1  1  0  0  0
 14 12  1  0  0  0  0
 15 10  2  0  0  0  0
 16 22  1  0  0  0  0
 17 14  1  6  0  0  0
 17 18  1  0  0  0  0
 17 21  1  0  0  0  0
 20 13  1  0  0  0  0
 20 15  1  0  0  0  0
 21 18  1  1  0  0  0
 21 13  1  0  0  0  0
 22  9  1  0  0  0  0
 22  2  1  1  0  0  0
 23  1  1  0  0  0  0
 24 23  1  0  0  0  0
 25 24  1  0  0  0  0
 26 31  1  0  0  0  0
 27 28  1  0  0  0  0
 27 26  1  0  0  0  0
 28 30  2  0  0  0  0
 29 25  1  6  0  0  0
 30 29  1  0  0  0  0
 31 29  1  0  0  0  0
M  END
>  <MODEL>
9

>  <REMARK>
 VINA RESULT:      -6.8      3.104      4.615
  Name = 
  5 active torsions:
  status: ('A' for Active; 'I' for Inactive)
    1  A    between atoms: C_1  and  O_28
    2  A    between atoms: C_7  and  C_30
    3  A    between atoms: C_20  and  C_24
    4  A    between atoms: C_20  and  O_28
    5  A    between atoms: C_24  and  C_25
                            x       y       z     vdW  Elec       q    Type
                         _______ _______ _______ _____ _____    ______ ____

>  <TORSDO>
F 5

$$$$
