=
 OpenBabel11072413163D

 27 33  0  0  1  0  0  0  0  0999 V2000
  161.0500  204.9150  149.8950 C   0  0  0  0  0  0  0  0  0  0  0  0
  161.4100  206.7740  148.3600 C   0  0  0  0  0  0  0  0  0  0  0  0
  160.8030  204.6020  152.2620 O   0  0  0  0  0  0  0  0  0  0  0  0
  160.8930  204.1290  151.0980 C   0  0  0  0  0  0  0  0  0  0  0  0
  161.9410  207.2150  150.5250 C   0  0  0  0  0  0  0  0  0  0  0  0
  160.9560  206.4120  149.7420 C   0  0  2  0  0  3  0  0  0  0  0  0
  161.9800  201.9290  151.3090 C   0  0  0  0  0  1  0  0  0  0  0  0
  162.3610  207.6480  148.3490 N   0  0  0  0  0  0  0  0  0  0  0  0
  162.6600  207.9650  149.7020 C   0  0  0  0  0  3  0  0  0  0  0  0
  160.7790  202.6810  150.7690 C   0  0  2  0  0  3  0  0  0  0  0  0
  160.8140  202.6670  149.2320 C   0  0  0  0  0  2  0  0  0  0  0  0
  160.9600  204.1060  148.8500 C   0  0  0  0  0  0  0  0  0  0  0  0
  160.9570  204.6300  147.4660 C   0  0  0  0  0  3  0  0  0  0  0  0
  161.1840  205.8950  147.2500 N   0  0  0  0  0  0  0  0  0  0  0  0
  161.9500  207.3760  152.0080 C   0  0  0  0  0  2  0  0  0  0  0  0
  160.7920  207.1690  154.6670 C   0  0  0  0  0  3  0  0  0  0  0  0
  159.9170  208.3070  156.6170 C   0  0  0  0  0  3  0  0  0  0  0  0
  160.8800  211.4980  153.5390 N   0  0  2  0  0  0  0  0  0  0  0  0
  160.4710  210.7540  152.3720 N   0  0  1  0  0  0  0  0  0  0  0  0
  160.4540  207.1610  156.0230 C   0  0  0  0  0  3  0  0  0  0  0  0
  160.0710  209.4800  154.4990 C   0  0  0  0  0  0  0  0  0  0  0  0
  160.9290  208.4230  152.4440 C   0  0  2  0  0  3  0  0  0  0  0  0
  161.4670  209.7620  152.1920 N   0  0  0  0  0  2  0  0  0  0  0  0
  159.7480  210.6570  153.6100 C   0  0  1  0  0  0  0  0  0  0  0  0
  160.6100  208.3330  153.9060 C   0  0  0  0  0  0  0  0  0  0  0  0
  159.7140  209.4620  155.8550 C   0  0  0  0  0  3  0  0  0  0  0  0
  159.7120  211.9060  154.2730 N   0  0  0  0  0  2  0  0  0  0  0  0
  1  4  1  0  0  0  0
  4  3  2  0  0  0  0
  5 15  1  0  0  0  0
  6  2  1  6  0  0  0
  6  1  1  0  0  0  0
  6  5  1  0  0  0  0
  8  2  2  0  0  0  0
  8  9  1  0  0  0  0
  9  5  2  0  0  0  0
 10  4  1  0  0  0  0
 10  7  1  1  0  0  0
 11 10  1  0  0  0  0
 12 11  1  0  0  0  0
 12  1  2  0  0  0  0
 13 12  1  0  0  0  0
 14 13  2  0  0  0  0
 14  2  1  0  0  0  0
 16 20  1  0  0  0  0
 18 24  1  0  0  0  0
 18 27  1  6  0  0  0
 19 23  1  1  0  0  0
 19 18  1  0  0  0  0
 19 24  1  0  0  0  0
 20 17  2  0  0  0  0
 21 26  2  0  0  0  0
 22 15  1  1  0  0  0
 22 25  1  0  0  0  0
 23 22  1  0  0  0  0
 24 27  1  1  0  0  0
 24 21  1  0  0  0  0
 25 21  1  0  0  0  0
 25 16  2  0  0  0  0
 26 17  1  0  0  0  0
M  END
>  <MODEL>
1

>  <REMARK>
 VINA RESULT:      -9.6      0.000      0.000
  Name = 
  2 active torsions:
  status: ('A' for Active; 'I' for Inactive)
    1  A    between atoms: C_8  and  C_14
    2  A    between atoms: C_13  and  C_14
                            x       y       z     vdW  Elec       q    Type
                         _______ _______ _______ _____ _____    ______ ____

>  <TORSDO>
F 2

$$$$
=
 OpenBabel11072413163D

 27 33  0  0  1  0  0  0  0  0999 V2000
  161.4350  207.8230  153.1180 C   0  0  0  0  0  0  0  0  0  0  0  0
  162.2050  209.1590  151.2300 C   0  0  0  0  0  0  0  0  0  0  0  0
  160.8640  205.5300  153.5420 O   0  0  0  0  0  0  0  0  0  0  0  0
  160.9540  206.7260  153.9270 C   0  0  0  0  0  0  0  0  0  0  0  0
  161.2620  207.1720  150.6630 C   0  0  0  0  0  0  0  0  0  0  0  0
  162.0850  207.7620  151.7590 C   0  0  2  0  0  3  0  0  0  0  0  0
  159.1550  207.0770  155.5740 C   0  0  0  0  0  1  0  0  0  0  0  0
  161.6660  209.3120  150.0680 N   0  0  0  0  0  0  0  0  0  0  0  0
  161.1200  208.0560  149.6860 C   0  0  0  0  0  3  0  0  0  0  0  0
  160.6450  207.1880  155.3090 C   0  0  2  0  0  3  0  0  0  0  0  0
  161.0510  208.6700  155.2820 C   0  0  0  0  0  2  0  0  0  0  0  0
  161.5340  208.8980  153.8850 C   0  0  0  0  0  0  0  0  0  0  0  0
  162.1180  210.1590  153.3740 C   0  0  0  0  0  3  0  0  0  0  0  0
  162.4200  210.2710  152.1110 N   0  0  0  0  0  0  0  0  0  0  0  0
  160.8820  205.7350  150.5360 C   0  0  0  0  0  2  0  0  0  0  0  0
  160.8290  202.8410  150.2500 C   0  0  0  0  0  3  0  0  0  0  0  0
  160.7090  200.9290  148.7680 C   0  0  0  0  0  3  0  0  0  0  0  0
  160.8750  204.6290  146.1470 N   0  0  2  0  0  0  0  0  0  0  0  0
  161.7950  205.3870  146.9610 N   0  0  1  0  0  0  0  0  0  0  0  0
  160.5660  201.4850  150.0440 C   0  0  0  0  0  3  0  0  0  0  0  0
  161.3650  203.0960  147.8960 C   0  0  0  0  0  0  0  0  0  0  0  0
  161.5380  205.1090  149.3080 C   0  0  2  0  0  3  0  0  0  0  0  0
  161.0500  205.7810  148.1010 N   0  0  0  0  0  2  0  0  0  0  0  0
  161.9360  203.9660  146.8020 C   0  0  1  0  0  0  0  0  0  0  0  0
  161.2200  203.6510  149.1720 C   0  0  0  0  0  0  0  0  0  0  0  0
  161.1200  201.7300  147.6980 C   0  0  0  0  0  3  0  0  0  0  0  0
  161.5900  203.5680  145.4890 N   0  0  0  0  0  2  0  0  0  0  0  0
  1 12  2  0  0  0  0
  1  4  1  0  0  0  0
  2  6  1  0  0  0  0
  2 14  1  0  0  0  0
  3  4  2  0  0  0  0
  4 10  1  0  0  0  0
  6  5  1  6  0  0  0
  6  1  1  0  0  0  0
  8  2  2  0  0  0  0
  9  8  1  0  0  0  0
  9  5  2  0  0  0  0
 10  7  1  6  0  0  0
 11 10  1  0  0  0  0
 12 11  1  0  0  0  0
 13 12  1  0  0  0  0
 14 13  2  0  0  0  0
 15  5  1  0  0  0  0
 17 20  2  0  0  0  0
 18 27  1  6  0  0  0
 18 24  1  0  0  0  0
 18 19  1  0  0  0  0
 19 23  1  1  0  0  0
 20 16  1  0  0  0  0
 21 25  1  0  0  0  0
 22 15  1  1  0  0  0
 23 22  1  0  0  0  0
 24 27  1  6  0  0  0
 24 19  1  0  0  0  0
 24 21  1  0  0  0  0
 25 22  1  0  0  0  0
 25 16  2  0  0  0  0
 26 21  2  0  0  0  0
 26 17  1  0  0  0  0
M  END
>  <MODEL>
2

>  <REMARK>
 VINA RESULT:      -9.4      1.601      7.052
  Name = 
  2 active torsions:
  status: ('A' for Active; 'I' for Inactive)
    1  A    between atoms: C_8  and  C_14
    2  A    between atoms: C_13  and  C_14
                            x       y       z     vdW  Elec       q    Type
                         _______ _______ _______ _____ _____    ______ ____

>  <TORSDO>
F 2

$$$$
=
 OpenBabel11072413163D

 27 33  0  0  1  0  0  0  0  0999 V2000
  161.4800  204.1200  147.6620 C   0  0  0  0  0  0  0  0  0  0  0  0
  161.0270  202.6440  149.5480 C   0  0  0  0  0  0  0  0  0  0  0  0
  162.2040  206.3830  147.3250 O   0  0  0  0  0  0  0  0  0  0  0  0
  161.8000  205.2830  146.8650 C   0  0  0  0  0  0  0  0  0  0  0  0
  161.0480  204.8580  150.0590 C   0  0  0  0  0  0  0  0  0  0  0  0
  161.7260  203.9040  149.1340 C   0  0  2  0  0  3  0  0  0  0  0  0
  160.5190  205.7960  144.8240 C   0  0  0  0  0  1  0  0  0  0  0  0
  160.2150  202.8140  150.5370 N   0  0  0  0  0  0  0  0  0  0  0  0
  160.2650  204.1900  150.8940 C   0  0  0  0  0  3  0  0  0  0  0  0
  161.6550  204.9820  145.4140 C   0  0  2  0  0  3  0  0  0  0  0  0
  161.2790  203.4920  145.4010 C   0  0  0  0  0  2  0  0  0  0  0  0
  161.2350  203.1060  146.8450 C   0  0  0  0  0  0  0  0  0  0  0  0
  160.9970  201.7400  147.3610 C   0  0  0  0  0  3  0  0  0  0  0  0
  160.8890  201.5390  148.6440 N   0  0  0  0  0  0  0  0  0  0  0  0
  161.3870  206.3010  150.2240 C   0  0  0  0  0  2  0  0  0  0  0  0
  161.5120  209.0840  151.0600 C   0  0  0  0  0  3  0  0  0  0  0  0
  161.1570  210.7160  152.8130 C   0  0  0  0  0  3  0  0  0  0  0  0
  160.2620  206.6400  154.5950 N   0  0  2  0  0  0  0  0  0  0  0  0
  161.3010  205.9100  153.9080 N   0  0  1  0  0  0  0  0  0  0  0  0
  161.3240  210.4090  151.4590 C   0  0  0  0  0  3  0  0  0  0  0  0
  161.3510  208.3630  153.3720 C   0  0  0  0  0  0  0  0  0  0  0  0
  161.7290  206.6130  151.6780 C   0  0  2  0  0  3  0  0  0  0  0  0
  160.8680  205.8210  152.5610 N   0  0  0  0  0  2  0  0  0  0  0  0
  161.5170  207.2500  154.3790 C   0  0  1  0  0  0  0  0  0  0  0  0
  161.5160  208.0570  152.0170 C   0  0  0  0  0  0  0  0  0  0  0  0
  161.1830  209.6970  153.7700 C   0  0  0  0  0  3  0  0  0  0  0  0
  160.8580  207.4650  155.6120 N   0  0  0  0  0  2  0  0  0  0  0  0
  2  8  2  0  0  0  0
  4  3  2  0  0  0  0
  4  1  1  0  0  0  0
  5 15  1  0  0  0  0
  5  9  2  0  0  0  0
  6  1  1  6  0  0  0
  6  2  1  0  0  0  0
  6  5  1  0  0  0  0
  8  9  1  0  0  0  0
 10  7  1  1  0  0  0
 10  4  1  0  0  0  0
 11 10  1  0  0  0  0
 11 12  1  0  0  0  0
 12 13  1  0  0  0  0
 12  1  2  0  0  0  0
 13 14  2  0  0  0  0
 14  2  1  0  0  0  0
 16 20  2  0  0  0  0
 16 25  1  0  0  0  0
 17 26  2  0  0  0  0
 18 27  1  1  0  0  0
 19 23  1  6  0  0  0
 19 24  1  0  0  0  0
 19 18  1  0  0  0  0
 20 17  1  0  0  0  0
 21 26  1  0  0  0  0
 22 15  1  6  0  0  0
 22 25  1  0  0  0  0
 22 23  1  0  0  0  0
 24 21  1  6  0  0  0
 24 18  1  0  0  0  0
 24 27  1  0  0  0  0
 25 21  2  0  0  0  0
M  END
>  <MODEL>
3

>  <REMARK>
 VINA RESULT:      -8.3      2.713      4.248
  Name = 
  2 active torsions:
  status: ('A' for Active; 'I' for Inactive)
    1  A    between atoms: C_8  and  C_14
    2  A    between atoms: C_13  and  C_14
                            x       y       z     vdW  Elec       q    Type
                         _______ _______ _______ _____ _____    ______ ____

>  <TORSDO>
F 2

$$$$
=
 OpenBabel11072413163D

 27 33  0  0  1  0  0  0  0  0999 V2000
  160.9930  205.2240  149.7500 C   0  0  0  0  0  0  0  0  0  0  0  0
  161.7920  207.4220  149.0600 C   0  0  0  0  0  0  0  0  0  0  0  0
  159.8530  204.2720  151.6350 O   0  0  0  0  0  0  0  0  0  0  0  0
  160.4310  204.1410  150.5240 C   0  0  0  0  0  0  0  0  0  0  0  0
  161.3880  207.2150  151.2860 C   0  0  0  0  0  0  0  0  0  0  0  0
  160.8560  206.7070  149.9880 C   0  0  2  0  0  3  0  0  0  0  0  0
  161.5060  201.9240  150.5420 C   0  0  0  0  0  1  0  0  0  0  0  0
  162.6020  208.2210  149.6690 N   0  0  0  0  0  0  0  0  0  0  0  0
  162.3160  208.1340  151.0600 C   0  0  0  0  0  3  0  0  0  0  0  0
  160.5640  202.8490  149.7950 C   0  0  2  0  0  3  0  0  0  0  0  0
  161.2050  203.2650  148.4610 C   0  0  0  0  0  2  0  0  0  0  0  0
  161.3830  204.7450  148.5780 C   0  0  0  0  0  0  0  0  0  0  0  0
  161.8890  205.6350  147.5100 C   0  0  0  0  0  3  0  0  0  0  0  0
  162.0890  206.9000  147.7580 N   0  0  0  0  0  0  0  0  0  0  0  0
  160.7990  206.9540  152.6310 C   0  0  0  0  0  2  0  0  0  0  0  0
  160.0230  209.7560  152.5700 C   0  0  0  0  0  3  0  0  0  0  0  0
  159.5620  211.7830  153.8110 C   0  0  0  0  0  3  0  0  0  0  0  0
  160.9490  208.6770  156.8130 N   0  0  2  0  0  0  0  0  0  0  0  0
  161.9480  208.0520  155.9790 N   0  0  1  0  0  0  0  0  0  0  0  0
  159.4400  211.0230  152.6440 C   0  0  0  0  0  3  0  0  0  0  0  0
  160.8440  210.0000  154.8410 C   0  0  0  0  0  0  0  0  0  0  0  0
  161.3900  207.8990  153.6730 C   0  0  2  0  0  3  0  0  0  0  0  0
  161.2180  207.3200  155.0080 N   0  0  0  0  0  2  0  0  0  0  0  0
  161.7300  209.4720  155.9440 C   0  0  1  0  0  0  0  0  0  0  0  0
  160.7190  209.2390  153.6740 C   0  0  0  0  0  0  0  0  0  0  0  0
  160.2730  211.2790  154.9040 C   0  0  0  0  0  3  0  0  0  0  0  0
  161.4270  209.9680  157.2340 N   0  0  0  0  0  2  0  0  0  0  0  0
  1  6  1  0  0  0  0
  1  4  1  0  0  0  0
  2  8  2  0  0  0  0
  4  3  2  0  0  0  0
  5 15  1  0  0  0  0
  6  2  1  6  0  0  0
  6  5  1  0  0  0  0
  8  9  1  0  0  0  0
  9  5  2  0  0  0  0
 10  4  1  0  0  0  0
 10  7  1  1  0  0  0
 11 12  1  0  0  0  0
 11 10  1  0  0  0  0
 12  1  2  0  0  0  0
 13 14  2  0  0  0  0
 13 12  1  0  0  0  0
 14  2  1  0  0  0  0
 16 20  2  0  0  0  0
 16 25  1  0  0  0  0
 17 26  2  0  0  0  0
 18 27  1  1  0  0  0
 19 23  1  6  0  0  0
 19 18  1  0  0  0  0
 20 17  1  0  0  0  0
 21 26  1  0  0  0  0
 22 15  1  6  0  0  0
 22 25  1  0  0  0  0
 22 23  1  0  0  0  0
 24 21  1  6  0  0  0
 24 19  1  0  0  0  0
 24 18  1  0  0  0  0
 24 27  1  0  0  0  0
 25 21  2  0  0  0  0
M  END
>  <MODEL>
4

>  <REMARK>
 VINA RESULT:      -8.2      1.880      2.484
  Name = 
  2 active torsions:
  status: ('A' for Active; 'I' for Inactive)
    1  A    between atoms: C_8  and  C_14
    2  A    between atoms: C_13  and  C_14
                            x       y       z     vdW  Elec       q    Type
                         _______ _______ _______ _____ _____    ______ ____

>  <TORSDO>
F 2

$$$$
=
 OpenBabel11072413163D

 27 33  0  0  1  0  0  0  0  0999 V2000
  161.2060  203.2660  147.6720 C   0  0  0  0  0  0  0  0  0  0  0  0
  161.0060  202.6560  150.0230 C   0  0  0  0  0  0  0  0  0  0  0  0
  161.7730  205.2190  146.3970 O   0  0  0  0  0  0  0  0  0  0  0  0
  161.3890  204.0210  146.4530 C   0  0  0  0  0  0  0  0  0  0  0  0
  160.9540  204.8900  149.6160 C   0  0  0  0  0  0  0  0  0  0  0  0
  161.5960  203.6560  149.0760 C   0  0  2  0  0  3  0  0  0  0  0  0
  159.9010  203.6630  144.5220 C   0  0  0  0  0  1  0  0  0  0  0  0
  160.2800  203.1930  150.9450 N   0  0  0  0  0  0  0  0  0  0  0  0
  160.2880  204.5990  150.7240 C   0  0  0  0  0  3  0  0  0  0  0  0
  161.1280  203.1660  145.2610 C   0  0  2  0  0  3  0  0  0  0  0  0
  160.8340  201.7890  145.8760 C   0  0  0  0  0  2  0  0  0  0  0  0
  160.9420  202.0080  147.3510 C   0  0  0  0  0  0  0  0  0  0  0  0
  160.8270  200.9560  148.3860 C   0  0  0  0  0  3  0  0  0  0  0  0
  160.8470  201.2800  149.6480 N   0  0  0  0  0  0  0  0  0  0  0  0
  161.2290  206.2840  149.1620 C   0  0  0  0  0  2  0  0  0  0  0  0
  161.9530  209.0510  148.6370 C   0  0  0  0  0  3  0  0  0  0  0  0
  162.0670  211.3300  149.4480 C   0  0  0  0  0  3  0  0  0  0  0  0
  160.5720  208.7730  152.8850 N   0  0  2  0  0  0  0  0  0  0  0  0
  161.3890  207.6140  152.6170 N   0  0  1  0  0  0  0  0  0  0  0  0
  162.0550  210.4220  148.3850 C   0  0  0  0  0  3  0  0  0  0  0  0
  161.8590  209.4950  151.0210 C   0  0  0  0  0  0  0  0  0  0  0  0
  161.7480  207.1360  150.3170 C   0  0  2  0  0  3  0  0  0  0  0  0
  160.8330  207.0230  151.4550 N   0  0  0  0  0  2  0  0  0  0  0  0
  161.8960  208.9450  152.4270 C   0  0  1  0  0  0  0  0  0  0  0  0
  161.8440  208.5870  149.9570 C   0  0  0  0  0  0  0  0  0  0  0  0
  161.9820  210.8680  150.7650 C   0  0  0  0  0  3  0  0  0  0  0  0
  161.3990  209.8220  153.4190 N   0  0  0  0  0  2  0  0  0  0  0  0
  2  8  2  0  0  0  0
  3  4  2  0  0  0  0
  4  1  1  0  0  0  0
  5  9  2  0  0  0  0
  6  1  1  6  0  0  0
  6  5  1  0  0  0  0
  6  2  1  0  0  0  0
  9  8  1  0  0  0  0
 10  7  1  1  0  0  0
 10 11  1  0  0  0  0
 10  4  1  0  0  0  0
 11 12  1  0  0  0  0
 12  1  2  0  0  0  0
 12 13  1  0  0  0  0
 13 14  2  0  0  0  0
 14  2  1  0  0  0  0
 15  5  1  0  0  0  0
 16 25  1  0  0  0  0
 17 26  2  0  0  0  0
 18 27  1  1  0  0  0
 19 23  1  6  0  0  0
 19 18  1  0  0  0  0
 20 16  2  0  0  0  0
 20 17  1  0  0  0  0
 22 15  1  6  0  0  0
 22 23  1  0  0  0  0
 24 21  1  6  0  0  0
 24 19  1  0  0  0  0
 24 18  1  0  0  0  0
 24 27  1  0  0  0  0
 25 22  1  0  0  0  0
 25 21  2  0  0  0  0
 26 21  1  0  0  0  0
M  END
>  <MODEL>
5

>  <REMARK>
 VINA RESULT:      -8.2      2.608      4.707
  Name = 
  2 active torsions:
  status: ('A' for Active; 'I' for Inactive)
    1  A    between atoms: C_8  and  C_14
    2  A    between atoms: C_13  and  C_14
                            x       y       z     vdW  Elec       q    Type
                         _______ _______ _______ _____ _____    ______ ____

>  <TORSDO>
F 2

$$$$
=
 OpenBabel11072413163D

 27 33  0  0  1  0  0  0  0  0999 V2000
  161.0590  211.7850  150.2620 C   0  0  0  0  0  0  0  0  0  0  0  0
  160.2880  211.5470  152.5620 C   0  0  0  0  0  0  0  0  0  0  0  0
  162.0220  210.3830  148.5680 O   0  0  0  0  0  0  0  0  0  0  0  0
  161.6420  211.5160  148.9670 C   0  0  0  0  0  0  0  0  0  0  0  0
  161.6800  209.8980  151.8520 C   0  0  0  0  0  0  0  0  0  0  0  0
  160.6180  210.7940  151.3090 C   0  0  2  0  0  3  0  0  0  0  0  0
  163.1010  213.1760  147.8780 C   0  0  0  0  0  1  0  0  0  0  0  0
  160.9330  211.1220  153.5970 N   0  0  0  0  0  0  0  0  0  0  0  0
  161.7670  210.0540  153.1660 C   0  0  0  0  0  3  0  0  0  0  0  0
  161.6680  212.7510  148.1350 C   0  0  2  0  0  3  0  0  0  0  0  0
  160.9770  213.7910  149.0310 C   0  0  0  0  0  2  0  0  0  0  0  0
  160.6450  213.0440  150.2820 C   0  0  0  0  0  0  0  0  0  0  0  0
  159.8890  213.5890  151.4330 C   0  0  0  0  0  3  0  0  0  0  0  0
  159.7390  212.8710  152.5100 N   0  0  0  0  0  0  0  0  0  0  0  0
  162.3560  208.7970  151.1070 C   0  0  0  0  0  2  0  0  0  0  0  0
  161.6850  207.4140  148.6380 C   0  0  0  0  0  3  0  0  0  0  0  0
  161.2960  205.3090  147.5070 C   0  0  0  0  0  3  0  0  0  0  0  0
  161.9970  204.3530  151.8870 N   0  0  2  0  0  0  0  0  0  0  0  0
  161.3110  205.4980  152.4350 N   0  0  1  0  0  0  0  0  0  0  0  0
  161.5990  206.6730  147.4570 C   0  0  0  0  0  3  0  0  0  0  0  0
  161.1790  205.4220  149.9280 C   0  0  0  0  0  0  0  0  0  0  0  0
  161.5410  207.5090  151.1880 C   0  0  2  0  0  3  0  0  0  0  0  0
  162.1540  206.6050  152.1640 N   0  0  0  0  0  2  0  0  0  0  0  0
  160.8190  204.8220  151.2660 C   0  0  1  0  0  0  0  0  0  0  0  0
  161.4840  206.7860  149.8770 C   0  0  0  0  0  0  0  0  0  0  0  0
  161.0740  204.6860  148.7390 C   0  0  0  0  0  3  0  0  0  0  0  0
  161.0280  203.4270  151.3640 N   0  0  0  0  0  2  0  0  0  0  0  0
  1 12  2  0  0  0  0
  2  8  2  0  0  0  0
  3  4  2  0  0  0  0
  4  1  1  0  0  0  0
  5  9  2  0  0  0  0
  6  1  1  6  0  0  0
  6  5  1  0  0  0  0
  6  2  1  0  0  0  0
  9  8  1  0  0  0  0
 10  7  1  1  0  0  0
 10  4  1  0  0  0  0
 10 11  1  0  0  0  0
 11 12  1  0  0  0  0
 12 13  1  0  0  0  0
 13 14  2  0  0  0  0
 14  2  1  0  0  0  0
 15  5  1  0  0  0  0
 16 25  1  0  0  0  0
 17 26  2  0  0  0  0
 18 27  1  1  0  0  0
 18 19  1  0  0  0  0
 19 23  1  6  0  0  0
 20 17  1  0  0  0  0
 20 16  2  0  0  0  0
 22 15  1  6  0  0  0
 22 23  1  0  0  0  0
 24 21  1  6  0  0  0
 24 27  1  0  0  0  0
 24 18  1  0  0  0  0
 24 19  1  0  0  0  0
 25 21  2  0  0  0  0
 25 22  1  0  0  0  0
 26 21  1  0  0  0  0
M  END
>  <MODEL>
6

>  <REMARK>
 VINA RESULT:      -7.8      3.327      7.400
  Name = 
  2 active torsions:
  status: ('A' for Active; 'I' for Inactive)
    1  A    between atoms: C_8  and  C_14
    2  A    between atoms: C_13  and  C_14
                            x       y       z     vdW  Elec       q    Type
                         _______ _______ _______ _____ _____    ______ ____

>  <TORSDO>
F 2

$$$$
=
 OpenBabel11072413163D

 27 33  0  0  1  0  0  0  0  0999 V2000
  161.0210  209.0300  153.9130 C   0  0  0  0  0  0  0  0  0  0  0  0
  161.2420  210.6990  152.1490 C   0  0  0  0  0  0  0  0  0  0  0  0
  161.8920  206.8470  154.3960 O   0  0  0  0  0  0  0  0  0  0  0  0
  161.1340  207.8110  154.6810 C   0  0  0  0  0  0  0  0  0  0  0  0
  161.8870  208.6030  151.5580 C   0  0  0  0  0  0  0  0  0  0  0  0
  161.8790  209.4870  152.7600 C   0  0  2  0  0  3  0  0  0  0  0  0
  159.1650  206.8550  155.8120 C   0  0  0  0  0  1  0  0  0  0  0  0
  161.0250  210.5780  150.8830 N   0  0  0  0  0  0  0  0  0  0  0  0
  161.4770  209.2850  150.4980 C   0  0  0  0  0  3  0  0  0  0  0  0
  160.2820  207.8780  155.9010 C   0  0  2  0  0  3  0  0  0  0  0  0
  159.6870  209.2930  155.8360 C   0  0  0  0  0  2  0  0  0  0  0  0
  160.2500  209.8770  154.5800 C   0  0  0  0  0  0  0  0  0  0  0  0
  160.0420  211.2650  154.1100 C   0  0  0  0  0  3  0  0  0  0  0  0
  160.5090  211.6360  152.9510 N   0  0  0  0  0  0  0  0  0  0  0  0
  162.5120  207.2510  151.4760 C   0  0  0  0  0  2  0  0  0  0  0  0
  162.2080  206.6950  148.6370 C   0  0  0  0  0  3  0  0  0  0  0  0
  161.7320  205.0710  146.9060 C   0  0  0  0  0  3  0  0  0  0  0  0
  161.2070  202.9580  150.8860 N   0  0  2  0  0  0  0  0  0  0  0  0
  160.6230  204.0660  151.6040 N   0  0  1  0  0  0  0  0  0  0  0  0
  162.2730  206.2990  147.2990 C   0  0  0  0  0  3  0  0  0  0  0  0
  161.0720  204.6250  149.1970 C   0  0  0  0  0  0  0  0  0  0  0  0
  161.4880  206.2070  151.0410 C   0  0  2  0  0  3  0  0  0  0  0  0
  161.6870  204.9780  151.8140 N   0  0  0  0  0  2  0  0  0  0  0  0
  160.3080  203.8220  150.2230 C   0  0  1  0  0  0  0  0  0  0  0  0
  161.6150  205.8520  149.5900 C   0  0  0  0  0  0  0  0  0  0  0  0
  161.1220  204.2400  147.8500 C   0  0  0  0  0  3  0  0  0  0  0  0
  160.2400  202.4350  149.9570 N   0  0  0  0  0  2  0  0  0  0  0  0
  1 12  2  0  0  0  0
  1  4  1  0  0  0  0
  2  6  1  0  0  0  0
  2 14  1  0  0  0  0
  3  4  2  0  0  0  0
  4 10  1  0  0  0  0
  6  5  1  6  0  0  0
  6  1  1  0  0  0  0
  8  2  2  0  0  0  0
  9  8  1  0  0  0  0
  9  5  2  0  0  0  0
 10  7  1  6  0  0  0
 11 10  1  0  0  0  0
 12 11  1  0  0  0  0
 13 12  1  0  0  0  0
 14 13  2  0  0  0  0
 15  5  1  0  0  0  0
 16 25  1  0  0  0  0
 17 20  1  0  0  0  0
 17 26  2  0  0  0  0
 18 27  1  1  0  0  0
 18 19  1  0  0  0  0
 19 23  1  6  0  0  0
 20 16  2  0  0  0  0
 21 25  2  0  0  0  0
 22 15  1  1  0  0  0
 22 23  1  0  0  0  0
 24 21  1  6  0  0  0
 24 18  1  0  0  0  0
 24 19  1  0  0  0  0
 25 22  1  0  0  0  0
 26 21  1  0  0  0  0
 27 24  1  0  0  0  0
M  END
>  <MODEL>
7

>  <REMARK>
 VINA RESULT:      -7.7      2.137      6.889
  Name = 
  2 active torsions:
  status: ('A' for Active; 'I' for Inactive)
    1  A    between atoms: C_8  and  C_14
    2  A    between atoms: C_13  and  C_14
                            x       y       z     vdW  Elec       q    Type
                         _______ _______ _______ _____ _____    ______ ____

>  <TORSDO>
F 2

$$$$
=
 OpenBabel11072413163D

 27 33  0  0  1  0  0  0  0  0999 V2000
  161.5910  205.9220  150.6420 C   0  0  0  0  0  0  0  0  0  0  0  0
  161.3570  205.0600  152.9100 C   0  0  0  0  0  0  0  0  0  0  0  0
  162.1980  207.9940  149.5940 O   0  0  0  0  0  0  0  0  0  0  0  0
  161.7980  206.8030  149.5150 C   0  0  0  0  0  0  0  0  0  0  0  0
  161.3390  207.3260  152.7490 C   0  0  0  0  0  0  0  0  0  0  0  0
  161.9700  206.1500  152.0830 C   0  0  2  0  0  3  0  0  0  0  0  0
  160.3270  206.6800  147.5420 C   0  0  0  0  0  1  0  0  0  0  0  0
  160.6270  205.5040  153.8780 N   0  0  0  0  0  0  0  0  0  0  0  0
  160.6560  206.9240  153.8120 C   0  0  0  0  0  3  0  0  0  0  0  0
  161.5400  206.0880  148.2340 C   0  0  2  0  0  3  0  0  0  0  0  0
  161.2210  204.6550  148.6910 C   0  0  0  0  0  2  0  0  0  0  0  0
  161.3150  204.7100  150.1820 C   0  0  0  0  0  0  0  0  0  0  0  0
  161.1740  203.5530  151.0940 C   0  0  0  0  0  3  0  0  0  0  0  0
  161.1840  203.7370  152.3840 N   0  0  0  0  0  0  0  0  0  0  0  0
  161.6370  208.7570  152.4540 C   0  0  0  0  0  2  0  0  0  0  0  0
  161.8960  209.7650  155.1700 C   0  0  0  0  0  3  0  0  0  0  0  0
  161.4960  211.5690  156.7350 C   0  0  0  0  0  3  0  0  0  0  0  0
  159.5910  212.7800  152.7990 N   0  0  2  0  0  0  0  0  0  0  0  0
  159.1140  211.4720  152.4180 N   0  0  1  0  0  0  0  0  0  0  0  0
  162.1860  210.4070  156.3770 C   0  0  0  0  0  3  0  0  0  0  0  0
  160.2310  211.4580  154.6670 C   0  0  0  0  0  0  0  0  0  0  0  0
  160.5390  209.6630  153.0060 C   0  0  2  0  0  3  0  0  0  0  0  0
  160.2730  210.7420  152.0520 N   0  0  0  0  0  2  0  0  0  0  0  0
  159.0880  211.9060  153.7870 C   0  0  1  0  0  0  0  0  0  0  0  0
  160.9230  210.2960  154.3090 C   0  0  0  0  0  0  0  0  0  0  0  0
  160.5110  212.0880  155.8880 C   0  0  0  0  0  3  0  0  0  0  0  0
  158.7800  213.2840  153.8750 N   0  0  0  0  0  2  0  0  0  0  0  0
  2  8  2  0  0  0  0
  4  3  2  0  0  0  0
  4  1  1  0  0  0  0
  5  9  2  0  0  0  0
  6  1  1  6  0  0  0
  6  5  1  0  0  0  0
  6  2  1  0  0  0  0
  9  8  1  0  0  0  0
 10  7  1  1  0  0  0
 10 11  1  0  0  0  0
 10  4  1  0  0  0  0
 11 12  1  0  0  0  0
 12  1  2  0  0  0  0
 12 13  1  0  0  0  0
 13 14  2  0  0  0  0
 14  2  1  0  0  0  0
 15  5  1  0  0  0  0
 16 20  1  0  0  0  0
 18 24  1  0  0  0  0
 18 27  1  6  0  0  0
 19 23  1  1  0  0  0
 19 18  1  0  0  0  0
 19 24  1  0  0  0  0
 20 17  2  0  0  0  0
 21 26  2  0  0  0  0
 22 15  1  6  0  0  0
 22 25  1  0  0  0  0
 23 22  1  0  0  0  0
 24 27  1  1  0  0  0
 24 21  1  0  0  0  0
 25 21  1  0  0  0  0
 25 16  2  0  0  0  0
 26 17  1  0  0  0  0
M  END
>  <MODEL>
8

>  <REMARK>
 VINA RESULT:      -7.6      2.195      3.373
  Name = 
  2 active torsions:
  status: ('A' for Active; 'I' for Inactive)
    1  A    between atoms: C_8  and  C_14
    2  A    between atoms: C_13  and  C_14
                            x       y       z     vdW  Elec       q    Type
                         _______ _______ _______ _____ _____    ______ ____

>  <TORSDO>
F 2

$$$$
=
 OpenBabel11072413163D

 27 33  0  0  1  0  0  0  0  0999 V2000
  161.6320  204.8220  149.5420 C   0  0  0  0  0  0  0  0  0  0  0  0
  161.1190  203.2340  151.3190 C   0  0  0  0  0  0  0  0  0  0  0  0
  162.7110  206.9560  149.3390 O   0  0  0  0  0  0  0  0  0  0  0  0
  162.0710  206.0000  148.8280 C   0  0  0  0  0  0  0  0  0  0  0  0
  161.5890  205.3380  152.0340 C   0  0  0  0  0  0  0  0  0  0  0  0
  161.9860  204.3980  150.9450 C   0  0  2  0  0  3  0  0  0  0  0  0
  160.6970  206.9530  147.0180 C   0  0  0  0  0  1  0  0  0  0  0  0
  160.4570  203.4210  152.4110 N   0  0  0  0  0  0  0  0  0  0  0  0
  160.7900  204.7180  152.8900 C   0  0  0  0  0  3  0  0  0  0  0  0
  161.7240  205.8980  147.3830 C   0  0  2  0  0  3  0  0  0  0  0  0
  161.0880  204.5030  147.2730 C   0  0  0  0  0  2  0  0  0  0  0  0
  161.1250  203.9650  148.6680 C   0  0  0  0  0  0  0  0  0  0  0  0
  160.7010  202.6070  149.0750 C   0  0  0  0  0  3  0  0  0  0  0  0
  160.6930  202.2800  150.3360 N   0  0  0  0  0  0  0  0  0  0  0  0
  162.1970  206.6750  152.2940 C   0  0  0  0  0  2  0  0  0  0  0  0
  161.2050  207.3010  154.9560 C   0  0  0  0  0  3  0  0  0  0  0  0
  160.3420  208.9720  156.4810 C   0  0  0  0  0  3  0  0  0  0  0  0
  160.8620  210.9970  152.4550 N   0  0  2  0  0  0  0  0  0  0  0  0
  160.4560  209.8790  151.6360 N   0  0  1  0  0  0  0  0  0  0  0  0
  160.9410  207.7280  156.2600 C   0  0  0  0  0  3  0  0  0  0  0  0
  160.2810  209.3720  154.0900 C   0  0  0  0  0  0  0  0  0  0  0  0
  161.1150  207.7420  152.4390 C   0  0  2  0  0  3  0  0  0  0  0  0
  161.5230  208.9490  151.7160 N   0  0  0  0  0  2  0  0  0  0  0  0
  159.8120  210.1590  152.8890 C   0  0  1  0  0  0  0  0  0  0  0  0
  160.8830  208.1290  153.8680 C   0  0  0  0  0  0  0  0  0  0  0  0
  160.0000  209.7880  155.3990 C   0  0  0  0  0  3  0  0  0  0  0  0
  159.7040  211.5530  153.1020 N   0  0  0  0  0  2  0  0  0  0  0  0
  2  8  2  0  0  0  0
  4  3  2  0  0  0  0
  4  1  1  0  0  0  0
  5 15  1  0  0  0  0
  5  9  2  0  0  0  0
  6  1  1  6  0  0  0
  6  2  1  0  0  0  0
  6  5  1  0  0  0  0
  8  9  1  0  0  0  0
 10  7  1  1  0  0  0
 10  4  1  0  0  0  0
 11 10  1  0  0  0  0
 11 12  1  0  0  0  0
 12 13  1  0  0  0  0
 12  1  2  0  0  0  0
 13 14  2  0  0  0  0
 14  2  1  0  0  0  0
 16 20  1  0  0  0  0
 18 24  1  0  0  0  0
 18 27  1  6  0  0  0
 19 23  1  1  0  0  0
 19 18  1  0  0  0  0
 19 24  1  0  0  0  0
 20 17  2  0  0  0  0
 21 26  2  0  0  0  0
 22 15  1  1  0  0  0
 22 25  1  0  0  0  0
 23 22  1  0  0  0  0
 24 27  1  6  0  0  0
 24 21  1  0  0  0  0
 25 21  1  0  0  0  0
 25 16  2  0  0  0  0
 26 17  1  0  0  0  0
M  END
>  <MODEL>
9

>  <REMARK>
 VINA RESULT:      -7.5      1.890      2.972
  Name = 
  2 active torsions:
  status: ('A' for Active; 'I' for Inactive)
    1  A    between atoms: C_8  and  C_14
    2  A    between atoms: C_13  and  C_14
                            x       y       z     vdW  Elec       q    Type
                         _______ _______ _______ _____ _____    ______ ____

>  <TORSDO>
F 2

$$$$
