=
 OpenBabel11072410303D

 32 35  0  0  1  0  0  0  0  0999 V2000
  160.1500  207.5740  156.0470 C   0  0  0  0  0  3  0  0  0  0  0  0
  160.9220  206.9010  155.0900 C   0  0  0  0  0  3  0  0  0  0  0  0
  161.0170  207.4830  153.8310 C   0  0  0  0  0  0  0  0  0  0  0  0
  159.5150  208.7440  155.7290 N   0  0  0  0  0  0  0  0  0  0  0  0
  162.4420  206.0130  152.5830 O   0  0  0  0  0  0  0  0  0  0  0  0
  161.6840  207.0150  152.6450 C   0  0  0  0  0  0  0  0  0  0  0  0
  161.4300  207.9140  151.5670 N   0  0  0  0  0  0  0  0  0  0  0  0
  160.6830  209.0700  152.0870 C   0  0  1  0  0  3  0  0  0  0  0  0
  158.8660  210.5600  154.1940 C   0  0  0  0  0  1  0  0  0  0  0  0
  159.6130  209.3080  154.4900 C   0  0  0  0  0  0  0  0  0  0  0  0
  160.3970  208.6720  153.5210 C   0  0  0  0  0  0  0  0  0  0  0  0
  163.0840  210.5440  154.0520 O   0  0  0  0  0  0  0  0  0  0  0  0
  160.9770  211.4050  152.6490 O   0  0  0  0  0  0  0  0  0  0  0  0
  162.1830  210.6890  153.1860 C   0  0  0  0  0  0  0  0  0  0  0  0
  161.5490  210.3370  152.0140 C   0  0  1  0  0  0  0  0  0  0  0  0
  162.2650  210.6830  150.6960 C   0  0  0  0  0  2  0  0  0  0  0  0
  161.3810  211.3270  149.6270 C   0  0  2  0  0  3  0  0  0  0  0  0
  161.8740  210.9540  148.3060 N   0  0  0  0  0  2  0  0  0  0  0  0
  162.5400  212.1330  147.7930 C   0  0  0  0  0  2  0  0  0  0  0  0
  160.0140  213.2210  149.8140 C   0  0  0  0  0  1  0  0  0  0  0  0
  161.9580  213.3030  148.5350 C   0  0  0  0  0  2  0  0  0  0  0  0
  161.3990  212.7810  149.7670 N   0  0  0  0  0  0  0  0  0  0  0  0
  161.9180  207.8230  150.2190 C   0  0  0  0  0  2  0  0  0  0  0  0
  161.5220  206.9140  149.3230 C   0  0  0  0  0  0  0  0  0  0  0  0
  162.0610  207.0310  147.9980 N   0  0  0  0  0  0  0  0  0  0  0  0
  160.3370  206.1940  146.6580 F   0  0  0  0  0  0  0  0  0  0  0  0
  161.7070  206.2120  146.8440 C   0  0  0  0  0  3  0  0  0  0  0  0
  162.1950  204.9280  146.9910 F   0  0  0  0  0  0  0  0  0  0  0  0
  160.4010  205.9610  149.6380 C   0  0  0  0  0  2  0  0  0  0  0  0
  160.8970  204.5690  150.0060 C   0  0  0  0  0  3  0  0  0  0  0  0
  160.5540  203.6780  149.0080 F   0  0  0  0  0  0  0  0  0  0  0  0
  160.3510  204.1500  151.2060 F   0  0  0  0  0  0  0  0  0  0  0  0
  2  1  2  0  0  0  0
  3  2  1  0  0  0  0
  4  1  1  0  0  0  0
  5  6  2  0  0  0  0
  6  3  1  0  0  0  0
  7  8  1  0  0  0  0
  7  6  1  0  0  0  0
  8 11  1  1  0  0  0
  9 10  1  0  0  0  0
 10  4  2  0  0  0  0
 11  3  2  0  0  0  0
 11 10  1  0  0  0  0
 13 14  1  0  0  0  0
 14 12  2  0  0  0  0
 15 16  1  6  0  0  0
 15  8  1  0  0  0  0
 15 13  1  0  0  0  0
 15 14  1  0  0  0  0
 17 22  1  0  0  0  0
 17 16  1  1  0  0  0
 18 17  1  0  0  0  0
 19 18  1  0  0  0  0
 19 21  1  0  0  0  0
 21 22  1  0  0  0  0
 22 20  1  0  0  0  0
 23  7  1  0  0  0  0
 24 29  1  0  0  0  0
 24 23  1  0  0  0  0
 25 24  2  0  0  0  0
 26 27  1  0  0  0  0
 27 28  1  0  0  0  0
 27 25  1  0  0  0  0
 29 30  1  0  0  0  0
 30 32  1  0  0  0  0
 31 30  1  0  0  0  0
M  END
>  <MODEL>
1

>  <REMARK>
 VINA RESULT:      -5.7      0.000      0.000
  Name = 
  8 active torsions:
  status: ('A' for Active; 'I' for Inactive)
    1  A    between atoms: C_3  and  C_5
    2  A    between atoms: C_5  and  C_25
    3  A    between atoms: C_7  and  C_31
    4  A    between atoms: C_8  and  N_19
    5  A    between atoms: C_11  and  N_18
    6  A    between atoms: N_18  and  C_29
    7  A    between atoms: C_21  and  C_25
    8  A    between atoms: C_29  and  C_31
                            x       y       z     vdW  Elec       q    Type
                         _______ _______ _______ _____ _____    ______ ____

>  <TORSDO>
F 8

$$$$
=
 OpenBabel11072410303D

 32 35  0  0  1  0  0  0  0  0999 V2000
  161.0430  207.9830  157.2090 C   0  0  0  0  0  3  0  0  0  0  0  0
  161.6510  207.3500  156.1160 C   0  0  0  0  0  3  0  0  0  0  0  0
  161.2320  207.7350  154.8480 C   0  0  0  0  0  0  0  0  0  0  0  0
  160.0710  208.9260  157.0110 N   0  0  0  0  0  0  0  0  0  0  0  0
  162.5620  206.4280  153.3400 O   0  0  0  0  0  0  0  0  0  0  0  0
  161.6260  207.2410  153.5550 C   0  0  0  0  0  0  0  0  0  0  0  0
  160.8560  207.8860  152.5420 N   0  0  0  0  0  0  0  0  0  0  0  0
  160.0240  208.9220  153.1730 C   0  0  1  0  0  3  0  0  0  0  0  0
  158.5740  210.2980  155.6150 C   0  0  0  0  0  1  0  0  0  0  0  0
  159.6630  209.2980  155.7630 C   0  0  0  0  0  0  0  0  0  0  0  0
  160.2700  208.7000  154.6520 C   0  0  0  0  0  0  0  0  0  0  0  0
  162.6880  210.2070  151.4260 O   0  0  0  0  0  0  0  0  0  0  0  0
  161.3330  210.9060  153.6240 O   0  0  0  0  0  0  0  0  0  0  0  0
  161.7890  210.3970  152.2850 C   0  0  0  0  0  0  0  0  0  0  0  0
  160.4850  210.3170  152.7260 C   0  0  1  0  0  0  0  0  0  0  0  0
  159.4660  211.2760  152.0840 C   0  0  0  0  0  2  0  0  0  0  0  0
  159.8130  212.7620  152.1970 C   0  0  2  0  0  3  0  0  0  0  0  0
  159.2280  213.3000  153.4200 N   0  0  0  0  0  2  0  0  0  0  0  0
  158.0870  214.0820  152.9950 C   0  0  0  0  0  2  0  0  0  0  0  0
  160.3970  214.2550  150.4880 C   0  0  0  0  0  1  0  0  0  0  0  0
  158.3400  214.4520  151.5600 C   0  0  0  0  0  2  0  0  0  0  0  0
  159.2920  213.4890  151.0410 N   0  0  0  0  0  0  0  0  0  0  0  0
  160.9440  207.6920  151.1210 C   0  0  0  0  0  3  0  0  0  0  0  0
  160.8690  206.5090  150.5050 C   0  0  0  0  0  0  0  0  0  0  0  0
  160.8940  206.5200  149.0700 N   0  0  0  0  0  2  0  0  0  0  0  0
  162.4340  208.0880  148.2700 F   0  0  0  0  0  0  0  0  0  0  0  0
  162.0600  206.7570  148.2270 C   0  0  0  0  0  3  0  0  0  0  0  0
  161.8060  206.3650  146.9260 F   0  0  0  0  0  0  0  0  0  0  0  0
  160.5500  205.2580  151.2780 C   0  0  0  0  0  2  0  0  0  0  0  0
  161.3570  204.0540  150.8110 C   0  0  0  0  0  3  0  0  0  0  0  0
  160.6010  203.3080  149.9270 F   0  0  0  0  0  0  0  0  0  0  0  0
  161.7320  203.2620  151.8800 F   0  0  0  0  0  0  0  0  0  0  0  0
  2  1  2  0  0  0  0
  3  2  1  0  0  0  0
  4  1  1  0  0  0  0
  5  6  2  0  0  0  0
  6  3  1  0  0  0  0
  7  8  1  0  0  0  0
  7  6  1  0  0  0  0
  8 11  1  1  0  0  0
  9 10  1  0  0  0  0
 10  4  2  0  0  0  0
 11  3  2  0  0  0  0
 11 10  1  0  0  0  0
 12 14  2  0  0  0  0
 14 15  1  0  0  0  0
 14 13  1  0  0  0  0
 15 16  1  6  0  0  0
 15  8  1  0  0  0  0
 15 13  1  0  0  0  0
 17 16  1  6  0  0  0
 17 18  1  0  0  0  0
 19 18  1  0  0  0  0
 20 22  1  0  0  0  0
 21 19  1  0  0  0  0
 22 21  1  0  0  0  0
 22 17  1  0  0  0  0
 23  7  1  0  0  0  0
 24 23  2  0  0  0  0
 24 29  1  0  0  0  0
 25 24  1  0  0  0  0
 27 26  1  0  0  0  0
 27 25  1  0  0  0  0
 28 27  1  0  0  0  0
 30 29  1  0  0  0  0
 30 32  1  0  0  0  0
 31 30  1  0  0  0  0
M  END
>  <MODEL>
2

>  <REMARK>
 VINA RESULT:      -5.7      1.858      2.504
  Name = 
  8 active torsions:
  status: ('A' for Active; 'I' for Inactive)
    1  A    between atoms: C_3  and  C_5
    2  A    between atoms: C_5  and  C_25
    3  A    between atoms: C_7  and  C_31
    4  A    between atoms: C_8  and  N_19
    5  A    between atoms: C_11  and  N_18
    6  A    between atoms: N_18  and  C_29
    7  A    between atoms: C_21  and  C_25
    8  A    between atoms: C_29  and  C_31
                            x       y       z     vdW  Elec       q    Type
                         _______ _______ _______ _____ _____    ______ ____

>  <TORSDO>
F 8

$$$$
=
 OpenBabel11072410303D

 32 35  0  0  1  0  0  0  0  0999 V2000
  161.3480  205.1860  153.3880 C   0  0  0  0  0  3  0  0  0  0  0  0
  161.2630  204.6030  152.1170 C   0  0  0  0  0  3  0  0  0  0  0  0
  161.0160  205.4540  151.0450 C   0  0  0  0  0  0  0  0  0  0  0  0
  161.1790  206.5340  153.5460 N   0  0  0  0  0  0  0  0  0  0  0  0
  160.9960  204.0260  149.1200 O   0  0  0  0  0  0  0  0  0  0  0  0
  160.8280  205.1530  149.6510 C   0  0  0  0  0  0  0  0  0  0  0  0
  160.5140  206.3510  148.9420 N   0  0  0  0  0  0  0  0  0  0  0  0
  160.6220  207.4880  149.8690 C   0  0  1  0  0  3  0  0  0  0  0  0
  160.7210  208.8150  152.7310 C   0  0  0  0  0  1  0  0  0  0  0  0
  160.9360  207.3640  152.4890 C   0  0  0  0  0  0  0  0  0  0  0  0
  160.8700  206.8140  151.2040 C   0  0  0  0  0  0  0  0  0  0  0  0
  163.8260  207.0170  148.7230 O   0  0  0  0  0  0  0  0  0  0  0  0
  162.6570  208.6350  150.5030 O   0  0  0  0  0  0  0  0  0  0  0  0
  163.0150  207.7560  149.3370 C   0  0  0  0  0  0  0  0  0  0  0  0
  161.7980  208.3900  149.4660 C   0  0  1  0  0  0  0  0  0  0  0  0
  161.5370  209.6010  148.5520 C   0  0  0  0  0  2  0  0  0  0  0  0
  162.1900  210.9080  149.0040 C   0  0  2  0  0  3  0  0  0  0  0  0
  161.3910  211.5010  150.0720 N   0  0  0  0  0  2  0  0  0  0  0  0
  160.6900  212.6110  149.4640 C   0  0  0  0  0  2  0  0  0  0  0  0
  163.6610  212.2900  147.8140 C   0  0  0  0  0  1  0  0  0  0  0  0
  161.4860  212.9970  148.2480 C   0  0  0  0  0  2  0  0  0  0  0  0
  162.2810  211.8410  147.8830 N   0  0  0  0  0  0  0  0  0  0  0  0
  160.2650  206.4940  147.5340 C   0  0  0  0  0  3  0  0  0  0  0  0
  160.9410  205.8600  146.5700 C   0  0  0  0  0  0  0  0  0  0  0  0
  160.4950  206.0660  145.2220 N   0  0  0  0  0  2  0  0  0  0  0  0
  160.3360  203.7930  144.6950 F   0  0  0  0  0  0  0  0  0  0  0  0
  160.4500  205.0640  144.1630 C   0  0  0  0  0  3  0  0  0  0  0  0
  161.5700  205.1570  143.3590 F   0  0  0  0  0  0  0  0  0  0  0  0
  161.9680  204.8150  146.9110 C   0  0  0  0  0  2  0  0  0  0  0  0
  163.1930  204.8770  146.0090 C   0  0  0  0  0  3  0  0  0  0  0  0
  163.1410  203.8460  145.0900 F   0  0  0  0  0  0  0  0  0  0  0  0
  164.3590  204.7790  146.7460 F   0  0  0  0  0  0  0  0  0  0  0  0
  1  4  1  0  0  0  0
  2  1  2  0  0  0  0
  3 11  2  0  0  0  0
  3  2  1  0  0  0  0
  5  6  2  0  0  0  0
  6  3  1  0  0  0  0
  7  6  1  0  0  0  0
  7  8  1  0  0  0  0
  8 11  1  1  0  0  0
 10  9  1  0  0  0  0
 10  4  2  0  0  0  0
 11 10  1  0  0  0  0
 12 14  2  0  0  0  0
 14 15  1  0  0  0  0
 14 13  1  0  0  0  0
 15 16  1  6  0  0  0
 15  8  1  0  0  0  0
 15 13  1  0  0  0  0
 17 16  1  6  0  0  0
 17 18  1  0  0  0  0
 19 18  1  0  0  0  0
 20 22  1  0  0  0  0
 21 19  1  0  0  0  0
 22 21  1  0  0  0  0
 22 17  1  0  0  0  0
 23  7  1  0  0  0  0
 24 29  1  0  0  0  0
 24 23  2  0  0  0  0
 25 24  1  0  0  0  0
 27 26  1  0  0  0  0
 27 25  1  0  0  0  0
 28 27  1  0  0  0  0
 30 32  1  0  0  0  0
 30 29  1  0  0  0  0
 31 30  1  0  0  0  0
M  END
>  <MODEL>
3

>  <REMARK>
 VINA RESULT:      -5.3      2.459      3.611
  Name = 
  8 active torsions:
  status: ('A' for Active; 'I' for Inactive)
    1  A    between atoms: C_3  and  C_5
    2  A    between atoms: C_5  and  C_25
    3  A    between atoms: C_7  and  C_31
    4  A    between atoms: C_8  and  N_19
    5  A    between atoms: C_11  and  N_18
    6  A    between atoms: N_18  and  C_29
    7  A    between atoms: C_21  and  C_25
    8  A    between atoms: C_29  and  C_31
                            x       y       z     vdW  Elec       q    Type
                         _______ _______ _______ _____ _____    ______ ____

>  <TORSDO>
F 8

$$$$
=
 OpenBabel11072410303D

 32 35  0  0  1  0  0  0  0  0999 V2000
  160.9940  208.1960  154.9880 C   0  0  0  0  0  3  0  0  0  0  0  0
  161.3320  207.0460  154.2600 C   0  0  0  0  0  3  0  0  0  0  0  0
  161.2340  207.1220  152.8750 C   0  0  0  0  0  0  0  0  0  0  0  0
  160.5770  209.3270  154.3420 N   0  0  0  0  0  0  0  0  0  0  0  0
  161.9370  204.9670  152.0930 O   0  0  0  0  0  0  0  0  0  0  0  0
  161.4600  206.1110  151.8770 C   0  0  0  0  0  0  0  0  0  0  0  0
  161.1500  206.6360  150.5860 N   0  0  0  0  0  0  0  0  0  0  0  0
  160.8340  208.0660  150.7250 C   0  0  1  0  0  3  0  0  0  0  0  0
  159.9820  210.6400  152.3420 C   0  0  0  0  0  1  0  0  0  0  0  0
  160.4820  209.3940  152.9820 C   0  0  0  0  0  0  0  0  0  0  0  0
  160.8360  208.2690  152.2270 C   0  0  0  0  0  0  0  0  0  0  0  0
  162.7070  207.8430  147.8550 O   0  0  0  0  0  0  0  0  0  0  0  0
  163.1820  208.5450  150.3910 O   0  0  0  0  0  0  0  0  0  0  0  0
  162.6070  208.2890  149.0270 C   0  0  0  0  0  0  0  0  0  0  0  0
  161.9130  208.9160  150.0380 C   0  0  1  0  0  0  0  0  0  0  0  0
  161.7030  210.4360  149.9090 C   0  0  0  0  0  2  0  0  0  0  0  0
  161.8370  210.9910  148.4900 C   0  0  2  0  0  3  0  0  0  0  0  0
  163.2330  211.3310  148.2360 N   0  0  0  0  0  2  0  0  0  0  0  0
  163.2990  212.7750  148.3010 C   0  0  0  0  0  2  0  0  0  0  0  0
  160.1870  211.9760  147.1500 C   0  0  0  0  0  1  0  0  0  0  0  0
  161.9070  213.2740  148.0300 C   0  0  0  0  0  2  0  0  0  0  0  0
  161.0040  212.1810  148.3340 N   0  0  0  0  0  0  0  0  0  0  0  0
  161.2510  205.9620  149.3210 C   0  0  0  0  0  3  0  0  0  0  0  0
  160.9660  204.6730  149.1170 C   0  0  0  0  0  0  0  0  0  0  0  0
  161.0470  204.1960  147.7660 N   0  0  0  0  0  2  0  0  0  0  0  0
  161.2400  204.3720  145.4420 F   0  0  0  0  0  0  0  0  0  0  0  0
  161.6990  204.8690  146.6480 C   0  0  0  0  0  3  0  0  0  0  0  0
  163.0720  204.7390  146.7370 F   0  0  0  0  0  0  0  0  0  0  0  0
  160.3770  203.8320  150.2170 C   0  0  0  0  0  2  0  0  0  0  0  0
  160.6500  202.3460  150.0330 C   0  0  0  0  0  3  0  0  0  0  0  0
  159.5420  201.7390  149.4730 F   0  0  0  0  0  0  0  0  0  0  0  0
  160.9460  201.7410  151.2410 F   0  0  0  0  0  0  0  0  0  0  0  0
  2  1  2  0  0  0  0
  3  2  1  0  0  0  0
  4  1  1  0  0  0  0
  6  5  2  0  0  0  0
  6  3  1  0  0  0  0
  7  8  1  0  0  0  0
  7  6  1  0  0  0  0
  8 11  1  1  0  0  0
  9 10  1  0  0  0  0
 10  4  2  0  0  0  0
 11  3  2  0  0  0  0
 11 10  1  0  0  0  0
 12 14  2  0  0  0  0
 14 15  1  0  0  0  0
 14 13  1  0  0  0  0
 15 16  1  6  0  0  0
 15 13  1  0  0  0  0
 15  8  1  0  0  0  0
 17 16  1  1  0  0  0
 18 19  1  0  0  0  0
 18 17  1  0  0  0  0
 20 22  1  0  0  0  0
 21 19  1  0  0  0  0
 21 22  1  0  0  0  0
 22 17  1  0  0  0  0
 23  7  1  0  0  0  0
 24 23  2  0  0  0  0
 24 29  1  0  0  0  0
 25 24  1  0  0  0  0
 26 27  1  0  0  0  0
 27 28  1  0  0  0  0
 27 25  1  0  0  0  0
 30 29  1  0  0  0  0
 30 32  1  0  0  0  0
 31 30  1  0  0  0  0
M  END
>  <MODEL>
4

>  <REMARK>
 VINA RESULT:      -5.0      1.848      2.405
  Name = 
  8 active torsions:
  status: ('A' for Active; 'I' for Inactive)
    1  A    between atoms: C_3  and  C_5
    2  A    between atoms: C_5  and  C_25
    3  A    between atoms: C_7  and  C_31
    4  A    between atoms: C_8  and  N_19
    5  A    between atoms: C_11  and  N_18
    6  A    between atoms: N_18  and  C_29
    7  A    between atoms: C_21  and  C_25
    8  A    between atoms: C_29  and  C_31
                            x       y       z     vdW  Elec       q    Type
                         _______ _______ _______ _____ _____    ______ ____

>  <TORSDO>
F 8

$$$$
=
 OpenBabel11072410303D

 32 35  0  0  1  0  0  0  0  0999 V2000
  162.4010  209.3920  148.2800 C   0  0  0  0  0  3  0  0  0  0  0  0
  162.5850  209.8630  149.5870 C   0  0  0  0  0  3  0  0  0  0  0  0
  161.9600  209.1560  150.6080 C   0  0  0  0  0  0  0  0  0  0  0  0
  161.6250  208.2910  148.0420 N   0  0  0  0  0  0  0  0  0  0  0  0
  162.5880  210.2990  152.6200 O   0  0  0  0  0  0  0  0  0  0  0  0
  161.9200  209.4170  152.0220 C   0  0  0  0  0  0  0  0  0  0  0  0
  161.0760  208.4600  152.6620 N   0  0  0  0  0  0  0  0  0  0  0  0
  160.6520  207.4670  151.6630 C   0  0  1  0  0  3  0  0  0  0  0  0
  160.1490  206.4370  148.7220 C   0  0  0  0  0  1  0  0  0  0  0  0
  161.0130  207.6020  149.0490 C   0  0  0  0  0  0  0  0  0  0  0  0
  161.1980  208.0340  150.3680 C   0  0  0  0  0  0  0  0  0  0  0  0
  161.9710  205.9320  154.4380 O   0  0  0  0  0  0  0  0  0  0  0  0
  162.6300  206.0850  151.8510 O   0  0  0  0  0  0  0  0  0  0  0  0
  161.9390  206.0140  153.1840 C   0  0  0  0  0  0  0  0  0  0  0  0
  161.2680  206.0960  151.9830 C   0  0  1  0  0  0  0  0  0  0  0  0
  160.5660  204.8210  151.4820 C   0  0  0  0  0  2  0  0  0  0  0  0
  161.4930  203.7640  150.8800 C   0  0  2  0  0  3  0  0  0  0  0  0
  161.3710  203.7890  149.4260 N   0  0  0  0  0  2  0  0  0  0  0  0
  160.5890  202.6200  149.0820 C   0  0  0  0  0  2  0  0  0  0  0  0
  162.3570  201.8370  151.8950 C   0  0  0  0  0  1  0  0  0  0  0  0
  160.7440  201.6560  150.2250 C   0  0  0  0  0  2  0  0  0  0  0  0
  161.1370  202.4380  151.3810 N   0  0  0  0  0  0  0  0  0  0  0  0
  160.7760  208.3570  154.0630 C   0  0  0  0  0  3  0  0  0  0  0  0
  160.0720  209.2520  154.7620 C   0  0  0  0  0  0  0  0  0  0  0  0
  159.8030  208.9370  156.1350 N   0  0  0  0  0  2  0  0  0  0  0  0
  161.9320  208.1810  156.7370 F   0  0  0  0  0  0  0  0  0  0  0  0
  160.5790  208.0440  156.9870 C   0  0  0  0  0  3  0  0  0  0  0  0
  160.1820  206.7330  156.8060 F   0  0  0  0  0  0  0  0  0  0  0  0
  159.4100  210.4160  154.0740 C   0  0  0  0  0  2  0  0  0  0  0  0
  160.0810  211.7450  154.3910 C   0  0  0  0  0  3  0  0  0  0  0  0
  160.3800  212.4030  153.2130 F   0  0  0  0  0  0  0  0  0  0  0  0
  161.2410  211.5550  155.1200 F   0  0  0  0  0  0  0  0  0  0  0  0
  1  2  1  0  0  0  0
  2  3  2  0  0  0  0
  3  6  1  0  0  0  0
  4  1  2  0  0  0  0
  4 10  1  0  0  0  0
  6  5  2  0  0  0  0
  6  7  1  0  0  0  0
  7 23  1  0  0  0  0
  8 11  1  6  0  0  0
  8 15  1  0  0  0  0
  8  7  1  0  0  0  0
  9 10  1  0  0  0  0
 10 11  2  0  0  0  0
 11  3  1  0  0  0  0
 13 15  1  0  0  0  0
 13 14  1  0  0  0  0
 14 12  2  0  0  0  0
 15 16  1  6  0  0  0
 15 14  1  0  0  0  0
 17 22  1  0  0  0  0
 17 16  1  1  0  0  0
 18 17  1  0  0  0  0
 19 18  1  0  0  0  0
 19 21  1  0  0  0  0
 21 22  1  0  0  0  0
 22 20  1  0  0  0  0
 23 24  2  0  0  0  0
 24 25  1  0  0  0  0
 25 27  1  0  0  0  0
 26 27  1  0  0  0  0
 28 27  1  0  0  0  0
 29 30  1  0  0  0  0
 29 24  1  0  0  0  0
 30 32  1  0  0  0  0
 31 30  1  0  0  0  0
M  END
>  <MODEL>
5

>  <REMARK>
 VINA RESULT:      -4.7      3.523      7.426
  Name = 
  8 active torsions:
  status: ('A' for Active; 'I' for Inactive)
    1  A    between atoms: C_3  and  C_5
    2  A    between atoms: C_5  and  C_25
    3  A    between atoms: C_7  and  C_31
    4  A    between atoms: C_8  and  N_19
    5  A    between atoms: C_11  and  N_18
    6  A    between atoms: N_18  and  C_29
    7  A    between atoms: C_21  and  C_25
    8  A    between atoms: C_29  and  C_31
                            x       y       z     vdW  Elec       q    Type
                         _______ _______ _______ _____ _____    ______ ____

>  <TORSDO>
F 8

$$$$
=
 OpenBabel11072410303D

 32 35  0  0  1  0  0  0  0  0999 V2000
  160.7480  201.8570  145.7780 C   0  0  0  0  0  3  0  0  0  0  0  0
  160.2600  202.0230  147.0820 C   0  0  0  0  0  3  0  0  0  0  0  0
  160.7410  203.1090  147.8040 C   0  0  0  0  0  0  0  0  0  0  0  0
  161.6670  202.7310  145.2650 N   0  0  0  0  0  0  0  0  0  0  0  0
  159.6090  202.9910  149.9150 O   0  0  0  0  0  0  0  0  0  0  0  0
  160.4710  203.5090  149.1600 C   0  0  0  0  0  0  0  0  0  0  0  0
  161.2670  204.6470  149.4900 N   0  0  0  0  0  0  0  0  0  0  0  0
  161.9830  205.0850  148.2820 C   0  0  1  0  0  3  0  0  0  0  0  0
  163.1650  204.6850  145.3830 C   0  0  0  0  0  1  0  0  0  0  0  0
  162.1350  203.7950  145.9810 C   0  0  0  0  0  0  0  0  0  0  0  0
  161.6480  204.0000  147.2770 C   0  0  0  0  0  0  0  0  0  0  0  0
  159.7060  206.2290  145.9790 O   0  0  0  0  0  0  0  0  0  0  0  0
  162.1590  206.9570  146.7590 O   0  0  0  0  0  0  0  0  0  0  0  0
  160.7460  206.4570  146.6490 C   0  0  0  0  0  0  0  0  0  0  0  0
  161.4630  206.4560  147.8260 C   0  0  1  0  0  0  0  0  0  0  0  0
  161.0760  207.5040  148.8850 C   0  0  0  0  0  2  0  0  0  0  0  0
  162.1620  208.5320  149.2080 C   0  0  2  0  0  3  0  0  0  0  0  0
  162.7790  208.1950  150.4860 N   0  0  0  0  0  2  0  0  0  0  0  0
  162.2530  209.1500  151.4370 C   0  0  0  0  0  2  0  0  0  0  0  0
  162.3740  210.7250  148.4110 C   0  0  0  0  0  1  0  0  0  0  0  0
  161.8020  210.3390  150.6350 C   0  0  0  0  0  2  0  0  0  0  0  0
  161.5810  209.8710  149.2800 N   0  0  0  0  0  0  0  0  0  0  0  0
  161.2920  205.3650  150.7340 C   0  0  0  0  0  3  0  0  0  0  0  0
  161.8280  204.9080  151.8690 C   0  0  0  0  0  0  0  0  0  0  0  0
  161.8320  205.8030  152.9910 N   0  0  0  0  0  2  0  0  0  0  0  0
  160.4510  207.6890  153.0100 F   0  0  0  0  0  0  0  0  0  0  0  0
  160.6690  206.4510  153.5860 C   0  0  0  0  0  3  0  0  0  0  0  0
  160.8270  206.5710  154.9530 F   0  0  0  0  0  0  0  0  0  0  0  0
  162.5850  203.6080  151.8940 C   0  0  0  0  0  2  0  0  0  0  0  0
  161.7180  202.4300  152.3150 C   0  0  0  0  0  3  0  0  0  0  0  0
  161.6090  201.5390  151.2640 F   0  0  0  0  0  0  0  0  0  0  0  0
  160.4560  202.8520  152.6940 F   0  0  0  0  0  0  0  0  0  0  0  0
  1  2  1  0  0  0  0
  2  3  2  0  0  0  0
  3  6  1  0  0  0  0
  4  1  2  0  0  0  0
  4 10  1  0  0  0  0
  6  7  1  0  0  0  0
  6  5  2  0  0  0  0
  7 23  1  0  0  0  0
  8 11  1  6  0  0  0
  8  7  1  0  0  0  0
  9 10  1  0  0  0  0
 10 11  2  0  0  0  0
 11  3  1  0  0  0  0
 12 14  2  0  0  0  0
 13 15  1  0  0  0  0
 14 13  1  0  0  0  0
 14 15  1  0  0  0  0
 15  8  1  0  0  0  0
 15 16  1  1  0  0  0
 17 16  1  1  0  0  0
 17 22  1  0  0  0  0
 17 18  1  0  0  0  0
 18 19  1  0  0  0  0
 20 22  1  0  0  0  0
 21 19  1  0  0  0  0
 22 21  1  0  0  0  0
 23 24  2  0  0  0  0
 24 29  1  0  0  0  0
 24 25  1  0  0  0  0
 25 27  1  0  0  0  0
 26 27  1  0  0  0  0
 27 28  1  0  0  0  0
 29 30  1  0  0  0  0
 30 32  1  0  0  0  0
 31 30  1  0  0  0  0
M  END
>  <MODEL>
6

>  <REMARK>
 VINA RESULT:      -4.4      3.393      6.649
  Name = 
  8 active torsions:
  status: ('A' for Active; 'I' for Inactive)
    1  A    between atoms: C_3  and  C_5
    2  A    between atoms: C_5  and  C_25
    3  A    between atoms: C_7  and  C_31
    4  A    between atoms: C_8  and  N_19
    5  A    between atoms: C_11  and  N_18
    6  A    between atoms: N_18  and  C_29
    7  A    between atoms: C_21  and  C_25
    8  A    between atoms: C_29  and  C_31
                            x       y       z     vdW  Elec       q    Type
                         _______ _______ _______ _____ _____    ______ ____

>  <TORSDO>
F 8

$$$$
=
 OpenBabel11072410303D

 32 35  0  0  1  0  0  0  0  0999 V2000
  162.3160  206.7670  147.8700 C   0  0  0  0  0  3  0  0  0  0  0  0
  162.5540  208.0300  148.4270 C   0  0  0  0  0  3  0  0  0  0  0  0
  161.9880  208.2910  149.6700 C   0  0  0  0  0  0  0  0  0  0  0  0
  161.5440  205.8510  148.5320 N   0  0  0  0  0  0  0  0  0  0  0  0
  162.6950  210.5180  150.2100 O   0  0  0  0  0  0  0  0  0  0  0  0
  162.0110  209.4920  150.4610 C   0  0  0  0  0  0  0  0  0  0  0  0
  161.2130  209.3100  151.6300 N   0  0  0  0  0  0  0  0  0  0  0  0
  160.7550  207.9130  151.6720 C   0  0  1  0  0  3  0  0  0  0  0  0
  160.1270  205.0930  150.4010 C   0  0  0  0  0  1  0  0  0  0  0  0
  160.9900  206.1150  149.7510 C   0  0  0  0  0  0  0  0  0  0  0  0
  161.2310  207.3600  150.3440 C   0  0  0  0  0  0  0  0  0  0  0  0
  163.4420  205.8200  152.1140 O   0  0  0  0  0  0  0  0  0  0  0  0
  160.9250  205.9060  153.0140 O   0  0  0  0  0  0  0  0  0  0  0  0
  162.3130  206.2000  152.5180 C   0  0  0  0  0  0  0  0  0  0  0  0
  161.4040  207.1790  152.8550 C   0  0  1  0  0  0  0  0  0  0  0  0
  161.6460  207.9400  154.1710 C   0  0  0  0  0  2  0  0  0  0  0  0
  160.5490  207.7810  155.2250 C   0  0  2  0  0  3  0  0  0  0  0  0
  159.5910  208.8730  155.0890 N   0  0  0  0  0  2  0  0  0  0  0  0
  159.8650  209.7700  156.1920 C   0  0  0  0  0  2  0  0  0  0  0  0
  160.6390  206.6210  157.2580 C   0  0  0  0  0  1  0  0  0  0  0  0
  160.5590  208.9480  157.2420 C   0  0  0  0  0  2  0  0  0  0  0  0
  161.1310  207.8000  156.5650 N   0  0  0  0  0  0  0  0  0  0  0  0
  160.9810  210.2560  152.6870 C   0  0  0  0  0  3  0  0  0  0  0  0
  160.3120  211.4050  152.5510 C   0  0  0  0  0  0  0  0  0  0  0  0
  160.1100  212.1830  153.7390 N   0  0  0  0  0  2  0  0  0  0  0  0
  158.8340  214.1200  153.4440 F   0  0  0  0  0  0  0  0  0  0  0  0
  158.8980  212.9070  154.1040 C   0  0  0  0  0  3  0  0  0  0  0  0
  158.8360  213.0930  155.4720 F   0  0  0  0  0  0  0  0  0  0  0  0
  159.6200  211.7440  151.2580 C   0  0  0  0  0  2  0  0  0  0  0  0
  160.1490  213.0240  150.6250 C   0  0  0  0  0  3  0  0  0  0  0  0
  159.0990  213.8880  150.3860 F   0  0  0  0  0  0  0  0  0  0  0  0
  160.8050  212.7550  149.4370 F   0  0  0  0  0  0  0  0  0  0  0  0
  1  2  2  0  0  0  0
  1  4  1  0  0  0  0
  2  3  1  0  0  0  0
  3 11  2  0  0  0  0
  3  6  1  0  0  0  0
  4 10  2  0  0  0  0
  5  6  2  0  0  0  0
  6  7  1  0  0  0  0
  7  8  1  0  0  0  0
  7 23  1  0  0  0  0
  8 11  1  6  0  0  0
  8 15  1  0  0  0  0
 10 11  1  0  0  0  0
 10  9  1  0  0  0  0
 12 14  2  0  0  0  0
 14 15  1  0  0  0  0
 14 13  1  0  0  0  0
 15 13  1  0  0  0  0
 15 16  1  1  0  0  0
 17 16  1  6  0  0  0
 17 22  1  0  0  0  0
 18 17  1  0  0  0  0
 18 19  1  0  0  0  0
 19 21  1  0  0  0  0
 22 21  1  0  0  0  0
 22 20  1  0  0  0  0
 24 23  2  0  0  0  0
 24 25  1  0  0  0  0
 25 27  1  0  0  0  0
 26 27  1  0  0  0  0
 27 28  1  0  0  0  0
 29 24  1  0  0  0  0
 30 29  1  0  0  0  0
 31 30  1  0  0  0  0
 32 30  1  0  0  0  0
M  END
>  <MODEL>
7

>  <REMARK>
 VINA RESULT:      -4.4      3.571      7.214
  Name = 
  8 active torsions:
  status: ('A' for Active; 'I' for Inactive)
    1  A    between atoms: C_3  and  C_5
    2  A    between atoms: C_5  and  C_25
    3  A    between atoms: C_7  and  C_31
    4  A    between atoms: C_8  and  N_19
    5  A    between atoms: C_11  and  N_18
    6  A    between atoms: N_18  and  C_29
    7  A    between atoms: C_21  and  C_25
    8  A    between atoms: C_29  and  C_31
                            x       y       z     vdW  Elec       q    Type
                         _______ _______ _______ _____ _____    ______ ____

>  <TORSDO>
F 8

$$$$
=
 OpenBabel11072410303D

 32 35  0  0  1  0  0  0  0  0999 V2000
  160.0260  212.4820  156.2010 C   0  0  0  0  0  3  0  0  0  0  0  0
  159.7050  212.3810  154.8400 C   0  0  0  0  0  3  0  0  0  0  0  0
  160.3010  211.3500  154.1240 C   0  0  0  0  0  0  0  0  0  0  0  0
  160.9010  211.6000  156.7740 N   0  0  0  0  0  0  0  0  0  0  0  0
  159.4310  211.5650  151.9000 O   0  0  0  0  0  0  0  0  0  0  0  0
  160.2100  211.0230  152.7260 C   0  0  0  0  0  0  0  0  0  0  0  0
  161.0720  209.9230  152.4340 N   0  0  0  0  0  0  0  0  0  0  0  0
  161.6480  209.4320  153.6950 C   0  0  1  0  0  3  0  0  0  0  0  0
  162.4580  209.6890  156.7350 C   0  0  0  0  0  1  0  0  0  0  0  0
  161.4830  210.5900  156.0640 C   0  0  0  0  0  0  0  0  0  0  0  0
  161.1630  210.4500  154.7090 C   0  0  0  0  0  0  0  0  0  0  0  0
  159.3870  208.0720  155.8940 O   0  0  0  0  0  0  0  0  0  0  0  0
  161.8190  207.4050  155.0060 O   0  0  0  0  0  0  0  0  0  0  0  0
  160.4140  207.9060  155.1880 C   0  0  0  0  0  0  0  0  0  0  0  0
  161.1170  208.0250  154.0080 C   0  0  1  0  0  0  0  0  0  0  0  0
  160.7030  207.1030  152.8480 C   0  0  0  0  0  2  0  0  0  0  0  0
  161.4850  205.7920  152.7500 C   0  0  2  0  0  3  0  0  0  0  0  0
  162.7840  206.0520  152.1390 N   0  0  0  0  0  2  0  0  0  0  0  0
  162.6860  205.5460  150.7860 C   0  0  0  0  0  2  0  0  0  0  0  0
  160.6580  203.6010  152.7230 C   0  0  0  0  0  1  0  0  0  0  0  0
  161.5830  204.5250  150.7970 C   0  0  0  0  0  2  0  0  0  0  0  0
  160.7460  204.8230  151.9430 N   0  0  0  0  0  0  0  0  0  0  0  0
  161.2680  209.2790  151.1650 C   0  0  0  0  0  2  0  0  0  0  0  0
  161.7190  209.8840  150.0630 C   0  0  0  0  0  0  0  0  0  0  0  0
  161.9300  209.0580  148.9090 N   0  0  0  0  0  0  0  0  0  0  0  0
  162.6440  207.0990  147.8500 F   0  0  0  0  0  0  0  0  0  0  0  0
  161.8420  207.6030  148.8580 C   0  0  0  0  0  3  0  0  0  0  0  0
  160.5320  207.2010  148.6840 F   0  0  0  0  0  0  0  0  0  0  0  0
  162.1900  211.3130  150.1070 C   0  0  0  0  0  2  0  0  0  0  0  0
  161.9780  212.0440  148.7890 C   0  0  0  0  0  3  0  0  0  0  0  0
  163.1570  212.0460  148.0680 F   0  0  0  0  0  0  0  0  0  0  0  0
  161.5670  213.3470  149.0040 F   0  0  0  0  0  0  0  0  0  0  0  0
  1  4  1  0  0  0  0
  2  1  2  0  0  0  0
  3 11  2  0  0  0  0
  3  2  1  0  0  0  0
  5  6  2  0  0  0  0
  6  3  1  0  0  0  0
  7  6  1  0  0  0  0
  7  8  1  0  0  0  0
  8 15  1  0  0  0  0
  8 11  1  1  0  0  0
 10  9  1  0  0  0  0
 10  4  2  0  0  0  0
 11 10  1  0  0  0  0
 13 14  1  0  0  0  0
 14 12  2  0  0  0  0
 15 16  1  6  0  0  0
 15 13  1  0  0  0  0
 15 14  1  0  0  0  0
 17 16  1  6  0  0  0
 18 17  1  0  0  0  0
 19 21  1  0  0  0  0
 19 18  1  0  0  0  0
 21 22  1  0  0  0  0
 22 20  1  0  0  0  0
 22 17  1  0  0  0  0
 23  7  1  0  0  0  0
 24 29  1  0  0  0  0
 24 23  1  0  0  0  0
 25 24  2  0  0  0  0
 26 27  1  0  0  0  0
 27 25  1  0  0  0  0
 28 27  1  0  0  0  0
 30 32  1  0  0  0  0
 30 29  1  0  0  0  0
 31 30  1  0  0  0  0
M  END
>  <MODEL>
8

>  <REMARK>
 VINA RESULT:      -4.2      2.791      5.472
  Name = 
  8 active torsions:
  status: ('A' for Active; 'I' for Inactive)
    1  A    between atoms: C_3  and  C_5
    2  A    between atoms: C_5  and  C_25
    3  A    between atoms: C_7  and  C_31
    4  A    between atoms: C_8  and  N_19
    5  A    between atoms: C_11  and  N_18
    6  A    between atoms: N_18  and  C_29
    7  A    between atoms: C_21  and  C_25
    8  A    between atoms: C_29  and  C_31
                            x       y       z     vdW  Elec       q    Type
                         _______ _______ _______ _____ _____    ______ ____

>  <TORSDO>
F 8

$$$$
=
 OpenBabel11072410303D

 32 35  0  0  1  0  0  0  0  0999 V2000
  160.4540  201.8930  151.6700 C   0  0  0  0  0  3  0  0  0  0  0  0
  160.6790  203.0760  152.3870 C   0  0  0  0  0  3  0  0  0  0  0  0
  161.1860  204.1590  151.6780 C   0  0  0  0  0  0  0  0  0  0  0  0
  160.7420  201.8260  150.3340 N   0  0  0  0  0  0  0  0  0  0  0  0
  161.3590  205.9220  153.2940 O   0  0  0  0  0  0  0  0  0  0  0  0
  161.5620  205.4700  152.1380 C   0  0  0  0  0  0  0  0  0  0  0  0
  162.1150  206.2160  151.0540 N   0  0  0  0  0  0  0  0  0  0  0  0
  161.9830  205.4220  149.8230 C   0  0  1  0  0  3  0  0  0  0  0  0
  161.5710  202.7450  148.2030 C   0  0  0  0  0  1  0  0  0  0  0  0
  161.2400  202.8930  149.6450 C   0  0  0  0  0  0  0  0  0  0  0  0
  161.4530  204.0960  150.3290 C   0  0  0  0  0  0  0  0  0  0  0  0
  161.6630  208.5180  148.3690 O   0  0  0  0  0  0  0  0  0  0  0  0
  159.9960  206.7680  149.5140 O   0  0  0  0  0  0  0  0  0  0  0  0
  161.0980  207.4680  148.7690 C   0  0  0  0  0  0  0  0  0  0  0  0
  160.9940  206.0970  148.8610 C   0  0  1  0  0  0  0  0  0  0  0  0
  160.5370  205.3410  147.6000 C   0  0  0  0  0  2  0  0  0  0  0  0
  161.3440  205.6410  146.3360 C   0  0  2  0  0  3  0  0  0  0  0  0
  160.4570  206.1970  145.3190 N   0  0  0  0  0  2  0  0  0  0  0  0
  160.2450  205.1310  144.3630 C   0  0  0  0  0  2  0  0  0  0  0  0
  163.3780  204.7030  145.6490 C   0  0  0  0  0  1  0  0  0  0  0  0
  161.4130  204.1950  144.5100 C   0  0  0  0  0  2  0  0  0  0  0  0
  161.9650  204.4180  145.8320 N   0  0  0  0  0  0  0  0  0  0  0  0
  162.6000  207.5680  151.0820 C   0  0  0  0  0  3  0  0  0  0  0  0
  161.9560  208.6000  151.6330 C   0  0  0  0  0  0  0  0  0  0  0  0
  162.6370  209.8640  151.6370 N   0  0  0  0  0  2  0  0  0  0  0  0
  160.9100  211.4020  151.2900 F   0  0  0  0  0  0  0  0  0  0  0  0
  162.2110  211.0790  150.9510 C   0  0  0  0  0  3  0  0  0  0  0  0
  162.3360  210.9340  149.5830 F   0  0  0  0  0  0  0  0  0  0  0  0
  160.6820  208.3880  152.4050 C   0  0  0  0  0  2  0  0  0  0  0  0
  160.6600  209.1460  153.7250 C   0  0  0  0  0  3  0  0  0  0  0  0
  160.2540  208.2970  154.7370 F   0  0  0  0  0  0  0  0  0  0  0  0
  159.8030  210.2310  153.6610 F   0  0  0  0  0  0  0  0  0  0  0  0
  1  2  1  0  0  0  0
  3  6  1  0  0  0  0
  3  2  2  0  0  0  0
  4  1  2  0  0  0  0
  6  5  2  0  0  0  0
  7 23  1  0  0  0  0
  7  6  1  0  0  0  0
  8 11  1  1  0  0  0
  8  7  1  0  0  0  0
  9 10  1  0  0  0  0
 10 11  2  0  0  0  0
 10  4  1  0  0  0  0
 11  3  1  0  0  0  0
 12 14  2  0  0  0  0
 14 15  1  0  0  0  0
 14 13  1  0  0  0  0
 15 16  1  6  0  0  0
 15 13  1  0  0  0  0
 15  8  1  0  0  0  0
 17 16  1  1  0  0  0
 18 17  1  0  0  0  0
 19 21  1  0  0  0  0
 19 18  1  0  0  0  0
 20 22  1  0  0  0  0
 21 22  1  0  0  0  0
 22 17  1  0  0  0  0
 23 24  2  0  0  0  0
 24 25  1  0  0  0  0
 24 29  1  0  0  0  0
 27 26  1  0  0  0  0
 27 25  1  0  0  0  0
 28 27  1  0  0  0  0
 29 30  1  0  0  0  0
 30 31  1  0  0  0  0
 32 30  1  0  0  0  0
M  END
>  <MODEL>
9

>  <REMARK>
 VINA RESULT:      -4.1      3.349      6.397
  Name = 
  8 active torsions:
  status: ('A' for Active; 'I' for Inactive)
    1  A    between atoms: C_3  and  C_5
    2  A    between atoms: C_5  and  C_25
    3  A    between atoms: C_7  and  C_31
    4  A    between atoms: C_8  and  N_19
    5  A    between atoms: C_11  and  N_18
    6  A    between atoms: N_18  and  C_29
    7  A    between atoms: C_21  and  C_25
    8  A    between atoms: C_29  and  C_31
                            x       y       z     vdW  Elec       q    Type
                         _______ _______ _______ _____ _____    ______ ____

>  <TORSDO>
F 8

$$$$
