=
 OpenBabel11072409493D

 49 53  0  0  1  0  0  0  0  0999 V2000
  161.3590  206.3480  153.0180 C   0  0  0  0  0  3  0  0  0  0  0  0
  161.2460  207.5810  153.6890 C   0  0  0  0  0  3  0  0  0  0  0  0
  163.5010  206.9280  149.1550 C   0  0  0  0  0  1  0  0  0  0  0  0
  161.9550  207.4630  151.0310 C   0  0  0  0  0  0  0  0  0  0  0  0
  161.6980  206.3070  151.6970 N   0  0  0  0  0  0  0  0  0  0  0  0
  161.8610  208.6850  151.6550 C   0  0  0  0  0  0  0  0  0  0  0  0
  162.2160  207.6270  149.5590 C   0  0  1  0  0  0  0  0  0  0  0  0
  162.1330  209.6740  150.6390 C   0  0  0  0  0  0  0  0  0  0  0  0
  162.3570  209.0460  149.4170 O   0  0  0  0  0  0  0  0  0  0  0  0
  162.1630  210.9220  150.8050 O   0  0  0  0  0  0  0  0  0  0  0  0
  161.4920  208.7790  153.0000 C   0  0  0  0  0  0  0  0  0  0  0  0
  161.3250  204.8540  145.8730 C   0  0  1  0  0  0  0  0  0  0  0  0
  161.8540  202.7180  146.8590 O   0  0  0  0  0  0  0  0  0  0  0  0
  161.1620  206.0260  148.0370 C   0  0  0  0  0  0  0  0  0  0  0  0
  161.9000  203.4610  145.6580 C   0  0  0  0  0  2  0  0  0  0  0  0
  161.7680  203.6480  147.9140 C   0  0  1  0  0  3  0  0  0  0  0  0
  161.2780  204.9220  147.3430 C   0  0  0  0  0  0  0  0  0  0  0  0
  161.0670  207.1280  148.7340 C   0  0  0  0  0  3  0  0  0  0  0  0
  162.2730  205.8840  145.2820 C   0  0  0  0  0  1  0  0  0  0  0  0
  159.3800  203.9160  144.5930 O   0  0  0  0  0  0  0  0  0  0  0  0
  159.2860  206.0470  145.4130 O   0  0  0  0  0  1  0  0  0  0  0  0
  159.9550  204.9900  145.2630 C   0  0  0  0  0  0  0  0  0  0  0  0
  160.8690  203.1370  149.0010 C   0  0  0  0  0  0  0  0  0  0  0  0
  160.0320  202.1290  148.7880 C   0  0  0  0  0  2  0  0  0  0  0  0
  160.8820  203.7610  150.2420 O   0  0  0  0  0  1  0  0  0  0  0  0
  161.2560  210.0930  153.6790 C   0  0  0  0  0  2  0  0  0  0  0  0
  159.8540  210.2170  154.0580 N   0  0  0  0  0  0  0  0  0  0  0  0
  158.9390  210.4840  153.0950 O   0  0  0  0  0  1  0  0  0  0  0  0
  159.4020  209.8440  155.3680 C   0  0  0  0  0  0  0  0  0  0  0  0
  158.3090  209.1030  155.4950 C   0  0  0  0  0  2  0  0  0  0  0  0
  160.8250  211.6030  156.4460 C   0  0  0  0  0  0  0  0  0  0  0  0
  160.0810  212.8220  156.3150 N   0  0  0  0  0  2  0  0  0  0  0  0
  162.9370  210.5380  156.6460 N   0  0  0  0  0  0  0  0  0  0  0  0
  162.1230  211.6670  156.4460 N   0  0  0  0  0  0  0  0  0  0  0  0
  162.4250  209.3830  156.9350 C   0  0  0  0  0  3  0  0  0  0  0  0
  160.1380  210.2630  156.6080 C   0  0  2  0  0  3  0  0  0  0  0  0
  161.0400  209.2340  157.0220 O   0  0  0  0  0  0  0  0  0  0  0  0
  158.3520  212.9430  156.2990 S   0  0  0  0  0  0  0  0  0  0  0  0
  157.7790  211.9320  157.2580 O   0  0  0  0  0  0  0  0  0  0  0  0
  157.9580  214.3160  156.7670 O   0  0  0  0  0  0  0  0  0  0  0  0
  156.3460  212.2070  154.5440 C   0  0  1  0  0  3  0  0  0  0  0  0
  156.6290  213.6370  154.4530 C   0  0  1  0  0  3  0  0  0  0  0  0
  157.7450  212.7040  154.6730 N   0  0  0  0  0  0  0  0  0  0  0  0
  156.6320  214.0680  152.9990 C   0  0  0  0  0  2  0  0  0  0  0  0
  158.0530  214.0760  152.4740 C   0  0  0  0  0  2  0  0  0  0  0  0
  158.0470  213.7300  150.9980 C   0  0  0  0  0  1  0  0  0  0  0  0
  155.6390  211.8800  155.8580 C   0  0  0  0  0  2  0  0  0  0  0  0
  154.1720  210.2360  157.0280 C   0  0  0  0  0  1  0  0  0  0  0  0
  155.0200  210.4970  155.7950 C   0  0  0  0  0  2  0  0  0  0  0  0
  1  2  1  0  0  0  0
  4  6  2  0  0  0  0
  4  5  1  0  0  0  0
  5  1  2  0  0  0  0
  6 11  1  0  0  0  0
  7  3  1  6  0  0  0
  7  4  1  0  0  0  0
  8 10  2  0  0  0  0
  8  6  1  0  0  0  0
  9  7  1  0  0  0  0
  9  8  1  0  0  0  0
 11 26  1  0  0  0  0
 11  2  2  0  0  0  0
 12 19  1  6  0  0  0
 12 17  1  0  0  0  0
 13 16  1  0  0  0  0
 14 18  2  0  0  0  0
 15 12  1  0  0  0  0
 15 13  1  0  0  0  0
 16 23  1  1  0  0  0
 17 16  1  0  0  0  0
 17 14  2  0  0  0  0
 18  7  1  0  0  0  0
 20 22  2  0  0  0  0
 22 21  1  0  0  0  0
 22 12  1  0  0  0  0
 23 25  1  0  0  0  0
 24 23  2  0  0  0  0
 26 27  1  0  0  0  0
 27 29  1  0  0  0  0
 28 27  1  0  0  0  0
 29 30  2  0  0  0  0
 31 36  1  0  0  0  0
 32 31  1  0  0  0  0
 33 35  2  0  0  0  0
 34 31  2  0  0  0  0
 34 33  1  0  0  0  0
 35 37  1  0  0  0  0
 36 29  1  6  0  0  0
 36 37  1  0  0  0  0
 38 32  1  0  0  0  0
 38 40  2  0  0  0  0
 38 39  2  0  0  0  0
 41 43  1  0  0  0  0
 41 47  1  1  0  0  0
 42 44  1  6  0  0  0
 42 41  1  0  0  0  0
 42 43  1  0  0  0  0
 43 38  1  0  0  0  0
 45 44  1  0  0  0  0
 46 45  1  0  0  0  0
 49 47  1  0  0  0  0
 49 48  1  0  0  0  0
M  END
>  <MODEL>
1

>  <REMARK>
 VINA RESULT:      -5.3      0.000      0.000
  Name = 
  13 active torsions:
  status: ('A' for Active; 'I' for Inactive)
    1  A    between atoms: C_3  and  C_36
    2  A    between atoms: N_4  and  S_34
    3  A    between atoms: C_5  and  C_26
    4  A    between atoms: C_9  and  C_25
    5  A    between atoms: C_12  and  C_19
    6  A    between atoms: C_12  and  C_29
    7  A    between atoms: N_17  and  C_27
    8  A    between atoms: N_17  and  C_43
    9  A    between atoms: C_24  and  C_27
   10  A    between atoms: C_25  and  C_40
   11  A    between atoms: S_34  and  N_48
   12  A    between atoms: C_38  and  C_41
   13  A    between atoms: C_43  and  C_49
                            x       y       z     vdW  Elec       q    Type
                         _______ _______ _______ _____ _____    ______ ____

>  <TORSDO>
F 13

$$$$
=
 OpenBabel11072409493D

 49 53  0  0  1  0  0  0  0  0999 V2000
  162.0740  205.7670  152.4110 C   0  0  0  0  0  3  0  0  0  0  0  0
  161.9380  206.8720  153.2750 C   0  0  0  0  0  3  0  0  0  0  0  0
  163.6170  207.1300  148.4600 C   0  0  0  0  0  1  0  0  0  0  0  0
  162.2930  207.2150  150.5660 C   0  0  0  0  0  0  0  0  0  0  0  0
  162.2360  205.9540  151.0680 N   0  0  0  0  0  0  0  0  0  0  0  0
  162.1710  208.3170  151.3800 C   0  0  0  0  0  0  0  0  0  0  0  0
  162.3390  207.6160  149.1170 C   0  0  1  0  0  0  0  0  0  0  0  0
  162.2120  209.4660  150.5060 C   0  0  0  0  0  0  0  0  0  0  0  0
  162.3280  209.0480  149.1830 O   0  0  0  0  0  0  0  0  0  0  0  0
  162.1480  210.6730  150.8600 O   0  0  0  0  0  0  0  0  0  0  0  0
  161.9780  208.1760  152.7570 C   0  0  0  0  0  0  0  0  0  0  0  0
  161.1910  204.5920  145.7100 C   0  0  1  0  0  0  0  0  0  0  0  0
  161.6300  202.5230  146.8660 O   0  0  0  0  0  0  0  0  0  0  0  0
  161.1550  205.9540  147.7660 C   0  0  0  0  0  0  0  0  0  0  0  0
  161.6830  203.1560  145.6030 C   0  0  0  0  0  2  0  0  0  0  0  0
  161.6240  203.5430  147.8370 C   0  0  1  0  0  3  0  0  0  0  0  0
  161.1910  204.7890  147.1680 C   0  0  0  0  0  0  0  0  0  0  0  0
  161.1410  207.1150  148.3670 C   0  0  0  0  0  3  0  0  0  0  0  0
  162.1780  205.5120  145.0090 C   0  0  0  0  0  1  0  0  0  0  0  0
  159.1370  205.9610  145.2550 O   0  0  0  0  0  1  0  0  0  0  0  0
  159.2910  203.8290  144.4460 O   0  0  0  0  0  0  0  0  0  0  0  0
  159.8140  204.7540  145.1220 C   0  0  0  0  0  0  0  0  0  0  0  0
  160.7300  203.1800  148.9860 C   0  0  0  0  0  0  0  0  0  0  0  0
  160.0920  202.0160  149.0220 C   0  0  0  0  0  2  0  0  0  0  0  0
  160.5320  204.0990  150.0090 O   0  0  0  0  0  1  0  0  0  0  0  0
  161.7140  209.3440  153.6560 C   0  0  0  0  0  2  0  0  0  0  0  0
  160.3100  209.3690  154.0470 N   0  0  0  0  0  0  0  0  0  0  0  0
  159.3690  209.5480  153.0880 O   0  0  0  0  0  1  0  0  0  0  0  0
  159.9000  208.9880  155.3680 C   0  0  0  0  0  0  0  0  0  0  0  0
  159.0870  207.9510  155.5250 C   0  0  0  0  0  2  0  0  0  0  0  0
  160.7750  211.1540  156.2770 C   0  0  0  0  0  0  0  0  0  0  0  0
  159.8140  212.1430  155.8840 N   0  0  0  0  0  2  0  0  0  0  0  0
  163.0210  210.6320  156.8390 N   0  0  0  0  0  0  0  0  0  0  0  0
  162.0190  211.5090  156.3860 N   0  0  0  0  0  0  0  0  0  0  0  0
  162.7320  209.4410  157.2600 C   0  0  0  0  0  3  0  0  0  0  0  0
  160.3700  209.7270  156.5870 C   0  0  2  0  0  3  0  0  0  0  0  0
  161.4090  208.9960  157.2420 O   0  0  0  0  0  0  0  0  0  0  0  0
  158.1140  211.8660  155.6900 S   0  0  0  0  0  0  0  0  0  0  0  0
  157.8730  211.1940  154.3630 O   0  0  0  0  0  0  0  0  0  0  0  0
  157.6450  210.9430  156.7800 O   0  0  0  0  0  0  0  0  0  0  0  0
  157.4570  214.3730  154.7250 C   0  0  1  0  0  3  0  0  0  0  0  0
  156.3090  213.4710  154.6760 C   0  0  1  0  0  3  0  0  0  0  0  0
  157.2380  213.3790  155.8130 N   0  0  0  0  0  0  0  0  0  0  0  0
  155.0600  214.2030  155.1240 C   0  0  0  0  0  2  0  0  0  0  0  0
  154.1580  214.4490  153.9310 C   0  0  0  0  0  2  0  0  0  0  0  0
  154.5680  213.5370  152.7930 C   0  0  0  0  0  1  0  0  0  0  0  0
  158.4940  213.9830  153.6740 C   0  0  0  0  0  2  0  0  0  0  0  0
  159.1850  214.2920  151.2970 C   0  0  0  0  0  1  0  0  0  0  0  0
  158.0550  214.4490  152.2990 C   0  0  0  0  0  2  0  0  0  0  0  0
  1  2  1  0  0  0  0
  4  5  1  0  0  0  0
  4  6  2  0  0  0  0
  5  1  2  0  0  0  0
  6 11  1  0  0  0  0
  7  3  1  6  0  0  0
  7  9  1  0  0  0  0
  7  4  1  0  0  0  0
  8 10  2  0  0  0  0
  8  6  1  0  0  0  0
  9  8  1  0  0  0  0
 11  2  2  0  0  0  0
 11 26  1  0  0  0  0
 12 19  1  6  0  0  0
 12 17  1  0  0  0  0
 13 16  1  0  0  0  0
 14 18  2  0  0  0  0
 15 12  1  0  0  0  0
 15 13  1  0  0  0  0
 16 23  1  1  0  0  0
 17 14  2  0  0  0  0
 17 16  1  0  0  0  0
 18  7  1  0  0  0  0
 21 22  2  0  0  0  0
 22 20  1  0  0  0  0
 22 12  1  0  0  0  0
 23 24  2  0  0  0  0
 23 25  1  0  0  0  0
 26 27  1  0  0  0  0
 27 29  1  0  0  0  0
 28 27  1  0  0  0  0
 29 30  2  0  0  0  0
 31 34  2  0  0  0  0
 31 36  1  0  0  0  0
 32 31  1  0  0  0  0
 33 35  2  0  0  0  0
 34 33  1  0  0  0  0
 36 29  1  6  0  0  0
 36 37  1  0  0  0  0
 37 35  1  0  0  0  0
 38 43  1  0  0  0  0
 38 32  1  0  0  0  0
 38 40  2  0  0  0  0
 39 38  2  0  0  0  0
 41 47  1  6  0  0  0
 41 43  1  0  0  0  0
 42 41  1  0  0  0  0
 42 44  1  1  0  0  0
 42 43  1  0  0  0  0
 45 44  1  0  0  0  0
 46 45  1  0  0  0  0
 48 49  1  0  0  0  0
 49 47  1  0  0  0  0
M  END
>  <MODEL>
2

>  <REMARK>
 VINA RESULT:      -4.4      1.219      2.136
  Name = 
  13 active torsions:
  status: ('A' for Active; 'I' for Inactive)
    1  A    between atoms: C_3  and  C_36
    2  A    between atoms: N_4  and  S_34
    3  A    between atoms: C_5  and  C_26
    4  A    between atoms: C_9  and  C_25
    5  A    between atoms: C_12  and  C_19
    6  A    between atoms: C_12  and  C_29
    7  A    between atoms: N_17  and  C_27
    8  A    between atoms: N_17  and  C_43
    9  A    between atoms: C_24  and  C_27
   10  A    between atoms: C_25  and  C_40
   11  A    between atoms: S_34  and  N_48
   12  A    between atoms: C_38  and  C_41
   13  A    between atoms: C_43  and  C_49
                            x       y       z     vdW  Elec       q    Type
                         _______ _______ _______ _____ _____    ______ ____

>  <TORSDO>
F 13

$$$$
=
 OpenBabel11072409493D

 49 53  0  0  1  0  0  0  0  0999 V2000
  161.9650  208.3440  149.5780 C   0  0  0  0  0  3  0  0  0  0  0  0
  162.2370  209.0020  150.7930 C   0  0  0  0  0  3  0  0  0  0  0  0
  159.1440  204.9700  150.2950 C   0  0  0  0  0  1  0  0  0  0  0  0
  161.0330  206.5270  150.7520 C   0  0  0  0  0  0  0  0  0  0  0  0
  161.3790  207.1110  149.5750 N   0  0  0  0  0  0  0  0  0  0  0  0
  161.2760  207.1430  151.9560 C   0  0  0  0  0  0  0  0  0  0  0  0
  160.5010  205.1340  150.9540 C   0  0  1  0  0  0  0  0  0  0  0  0
  160.8440  206.2140  152.9750 C   0  0  0  0  0  0  0  0  0  0  0  0
  160.3740  205.0470  152.3790 O   0  0  0  0  0  0  0  0  0  0  0  0
  160.8790  206.4050  154.2190 O   0  0  0  0  0  0  0  0  0  0  0  0
  161.8960  208.3940  152.0120 C   0  0  0  0  0  0  0  0  0  0  0  0
  160.8080  201.7530  147.7070 C   0  0  1  0  0  0  0  0  0  0  0  0
  160.8730  203.1260  145.7260 O   0  0  0  0  0  0  0  0  0  0  0  0
  161.3510  203.6090  149.2400 C   0  0  0  0  0  0  0  0  0  0  0  0
  160.4090  201.8960  146.2450 C   0  0  0  0  0  2  0  0  0  0  0  0
  161.0910  203.9800  146.8240 C   0  0  1  0  0  3  0  0  0  0  0  0
  161.2230  203.1290  148.0270 C   0  0  0  0  0  0  0  0  0  0  0  0
  161.4590  204.0970  150.4470 C   0  0  0  0  0  3  0  0  0  0  0  0
  159.5980  201.3170  148.5160 C   0  0  0  0  0  1  0  0  0  0  0  0
  161.9490  199.5860  147.1600 O   0  0  0  0  0  0  0  0  0  0  0  0
  162.9180  201.0480  148.6240 O   0  0  0  0  0  1  0  0  0  0  0  0
  161.9380  200.7730  147.8810 C   0  0  0  0  0  0  0  0  0  0  0  0
  162.3060  204.8320  146.6030 C   0  0  0  0  0  0  0  0  0  0  0  0
  163.3600  204.3720  145.9400 C   0  0  0  0  0  2  0  0  0  0  0  0
  162.3440  206.1120  147.1420 O   0  0  0  0  0  1  0  0  0  0  0  0
  162.2930  209.0380  153.3040 C   0  0  0  0  0  2  0  0  0  0  0  0
  161.3440  210.0890  153.6540 N   0  0  0  0  0  0  0  0  0  0  0  0
  161.3160  211.2180  152.9050 O   0  0  0  0  0  1  0  0  0  0  0  0
  160.3040  209.8600  154.6150 C   0  0  0  0  0  0  0  0  0  0  0  0
  159.0990  209.4940  154.1980 C   0  0  0  0  0  2  0  0  0  0  0  0
  161.2800  211.2990  156.4210 C   0  0  0  0  0  0  0  0  0  0  0  0
  160.6760  212.5870  156.2450 N   0  0  0  0  0  2  0  0  0  0  0  0
  163.1330  210.0240  157.1810 N   0  0  0  0  0  0  0  0  0  0  0  0
  162.4860  211.2410  156.9000 N   0  0  0  0  0  0  0  0  0  0  0  0
  162.5160  208.8910  157.0600 C   0  0  0  0  0  3  0  0  0  0  0  0
  160.5410  210.0180  156.0890 C   0  0  2  0  0  3  0  0  0  0  0  0
  161.1930  208.8600  156.6150 O   0  0  0  0  0  0  0  0  0  0  0  0
  159.0800  212.8690  155.6290 S   0  0  0  0  0  0  0  0  0  0  0  0
  158.1420  211.8390  156.2030 O   0  0  0  0  0  0  0  0  0  0  0  0
  158.6220  214.2290  156.0760 O   0  0  0  0  0  0  0  0  0  0  0  0
  157.7760  212.6490  153.2000 C   0  0  1  0  0  3  0  0  0  0  0  0
  158.3410  213.9850  153.3780 C   0  0  1  0  0  3  0  0  0  0  0  0
  159.0930  212.8230  153.8770 N   0  0  0  0  0  0  0  0  0  0  0  0
  158.9710  214.4530  152.0810 C   0  0  0  0  0  2  0  0  0  0  0  0
  159.1100  213.2820  151.1300 C   0  0  0  0  0  2  0  0  0  0  0  0
  158.2080  213.4960  149.9310 C   0  0  0  0  0  1  0  0  0  0  0  0
  156.5800  212.4430  154.1270 C   0  0  0  0  0  2  0  0  0  0  0  0
  155.2160  214.1620  155.3120 C   0  0  0  0  0  1  0  0  0  0  0  0
  155.5820  213.5720  153.9620 C   0  0  0  0  0  2  0  0  0  0  0  0
  1  2  1  0  0  0  0
  2 11  2  0  0  0  0
  4  7  1  0  0  0  0
  4  6  2  0  0  0  0
  5  1  2  0  0  0  0
  5  4  1  0  0  0  0
  6 11  1  0  0  0  0
  6  8  1  0  0  0  0
  7  3  1  6  0  0  0
  7  9  1  0  0  0  0
  8 10  2  0  0  0  0
  9  8  1  0  0  0  0
 11 26  1  0  0  0  0
 12 22  1  0  0  0  0
 12 17  1  0  0  0  0
 12 19  1  1  0  0  0
 13 15  1  0  0  0  0
 13 16  1  0  0  0  0
 14 18  2  0  0  0  0
 15 12  1  0  0  0  0
 16 23  1  6  0  0  0
 16 17  1  0  0  0  0
 17 14  2  0  0  0  0
 18  7  1  0  0  0  0
 20 22  2  0  0  0  0
 22 21  1  0  0  0  0
 23 25  1  0  0  0  0
 24 23  2  0  0  0  0
 26 27  1  0  0  0  0
 27 29  1  0  0  0  0
 28 27  1  0  0  0  0
 30 29  2  0  0  0  0
 31 34  2  0  0  0  0
 32 31  1  0  0  0  0
 34 33  1  0  0  0  0
 35 33  2  0  0  0  0
 36 29  1  6  0  0  0
 36 31  1  0  0  0  0
 36 37  1  0  0  0  0
 37 35  1  0  0  0  0
 38 40  2  0  0  0  0
 38 39  2  0  0  0  0
 38 32  1  0  0  0  0
 41 42  1  0  0  0  0
 41 43  1  0  0  0  0
 41 47  1  1  0  0  0
 42 44  1  6  0  0  0
 42 43  1  0  0  0  0
 43 38  1  0  0  0  0
 45 44  1  0  0  0  0
 46 45  1  0  0  0  0
 49 47  1  0  0  0  0
 49 48  1  0  0  0  0
M  END
>  <MODEL>
3

>  <REMARK>
 VINA RESULT:      -3.4      1.707      3.131
  Name = 
  13 active torsions:
  status: ('A' for Active; 'I' for Inactive)
    1  A    between atoms: C_3  and  C_36
    2  A    between atoms: N_4  and  S_34
    3  A    between atoms: C_5  and  C_26
    4  A    between atoms: C_9  and  C_25
    5  A    between atoms: C_12  and  C_19
    6  A    between atoms: C_12  and  C_29
    7  A    between atoms: N_17  and  C_27
    8  A    between atoms: N_17  and  C_43
    9  A    between atoms: C_24  and  C_27
   10  A    between atoms: C_25  and  C_40
   11  A    between atoms: S_34  and  N_48
   12  A    between atoms: C_38  and  C_41
   13  A    between atoms: C_43  and  C_49
                            x       y       z     vdW  Elec       q    Type
                         _______ _______ _______ _____ _____    ______ ____

>  <TORSDO>
F 13

$$$$
=
 OpenBabel11072409493D

 49 53  0  0  1  0  0  0  0  0999 V2000
  161.6060  208.3060  148.3760 C   0  0  0  0  0  3  0  0  0  0  0  0
  162.0570  209.2180  149.3490 C   0  0  0  0  0  3  0  0  0  0  0  0
  159.2170  205.0880  150.3230 C   0  0  0  0  0  1  0  0  0  0  0  0
  161.0440  206.7590  150.0610 C   0  0  0  0  0  0  0  0  0  0  0  0
  161.1180  207.0850  148.7430 N   0  0  0  0  0  0  0  0  0  0  0  0
  161.4690  207.6270  151.0390 C   0  0  0  0  0  0  0  0  0  0  0  0
  160.6600  205.4290  150.6480 C   0  0  1  0  0  0  0  0  0  0  0  0
  161.3040  206.9280  152.2920 C   0  0  0  0  0  0  0  0  0  0  0  0
  160.8130  205.6470  152.0560 O   0  0  0  0  0  0  0  0  0  0  0  0
  161.5630  207.3830  153.4370 O   0  0  0  0  0  0  0  0  0  0  0  0
  161.9990  208.8780  150.7100 C   0  0  0  0  0  0  0  0  0  0  0  0
  160.7130  201.7240  147.7590 C   0  0  1  0  0  0  0  0  0  0  0  0
  160.6340  202.8810  145.6450 O   0  0  0  0  0  0  0  0  0  0  0  0
  161.3740  203.7230  149.0440 C   0  0  0  0  0  0  0  0  0  0  0  0
  160.2060  201.7180  146.3240 C   0  0  0  0  0  2  0  0  0  0  0  0
  160.9360  203.8430  146.6290 C   0  0  1  0  0  3  0  0  0  0  0  0
  161.1540  203.1210  147.9020 C   0  0  0  0  0  0  0  0  0  0  0  0
  161.5740  204.3340  150.1830 C   0  0  0  0  0  3  0  0  0  0  0  0
  159.5650  201.3880  148.6970 C   0  0  0  0  0  1  0  0  0  0  0  0
  162.5210  200.7010  149.1670 O   0  0  0  0  0  1  0  0  0  0  0  0
  162.1590  199.9380  147.0440 O   0  0  0  0  0  0  0  0  0  0  0  0
  161.8500  200.7560  147.9510 C   0  0  0  0  0  0  0  0  0  0  0  0
  162.1340  204.6550  146.2300 C   0  0  0  0  0  0  0  0  0  0  0  0
  162.0230  205.6860  145.4020 C   0  0  0  0  0  2  0  0  0  0  0  0
  163.3880  204.2910  146.7030 O   0  0  0  0  0  1  0  0  0  0  0  0
  162.5880  209.7960  151.7350 C   0  0  0  0  0  2  0  0  0  0  0  0
  161.5640  210.2080  152.6880 N   0  0  0  0  0  0  0  0  0  0  0  0
  161.8060  210.0530  154.0130 O   0  0  0  0  0  1  0  0  0  0  0  0
  160.4240  210.9700  152.2700 C   0  0  0  0  0  0  0  0  0  0  0  0
  159.2160  210.4240  152.3300 C   0  0  0  0  0  2  0  0  0  0  0  0
  159.2200  213.0950  151.7030 C   0  0  0  0  0  0  0  0  0  0  0  0
  158.4910  213.4430  152.8880 N   0  0  0  0  0  2  0  0  0  0  0  0
  159.3970  213.1990  149.3380 N   0  0  0  0  0  0  0  0  0  0  0  0
  158.7210  213.4270  150.5500 N   0  0  0  0  0  0  0  0  0  0  0  0
  160.6030  212.7240  149.3200 C   0  0  0  0  0  3  0  0  0  0  0  0
  160.5540  212.3790  151.7680 C   0  0  2  0  0  3  0  0  0  0  0  0
  161.2440  212.4000  150.5170 O   0  0  0  0  0  0  0  0  0  0  0  0
  158.9920  213.0930  154.5110 S   0  0  0  0  0  0  0  0  0  0  0  0
  160.4590  212.7480  154.5090 O   0  0  0  0  0  0  0  0  0  0  0  0
  158.7960  214.3220  155.3540 O   0  0  0  0  0  0  0  0  0  0  0  0
  158.4980  211.1860  156.4510 C   0  0  1  0  0  3  0  0  0  0  0  0
  157.4780  212.2320  156.4670 C   0  0  1  0  0  3  0  0  0  0  0  0
  158.0250  211.7920  155.1740 N   0  0  0  0  0  0  0  0  0  0  0  0
  156.1080  211.6110  156.6540 C   0  0  0  0  0  2  0  0  0  0  0  0
  155.3990  211.5270  155.3180 C   0  0  0  0  0  2  0  0  0  0  0  0
  155.1370  210.0730  154.9780 C   0  0  0  0  0  1  0  0  0  0  0  0
  159.8260  211.7210  156.9820 C   0  0  0  0  0  2  0  0  0  0  0  0
  160.1940  209.2620  156.7780 C   0  0  0  0  0  1  0  0  0  0  0  0
  160.7850  210.5770  157.2550 C   0  0  0  0  0  2  0  0  0  0  0  0
  1  5  2  0  0  0  0
  1  2  1  0  0  0  0
  2 11  2  0  0  0  0
  4  7  1  0  0  0  0
  4  6  2  0  0  0  0
  5  4  1  0  0  0  0
  6  8  1  0  0  0  0
  7  3  1  6  0  0  0
  7  9  1  0  0  0  0
  8 10  2  0  0  0  0
  9  8  1  0  0  0  0
 11  6  1  0  0  0  0
 11 26  1  0  0  0  0
 12 17  1  0  0  0  0
 12 22  1  0  0  0  0
 12 19  1  1  0  0  0
 13 15  1  0  0  0  0
 13 16  1  0  0  0  0
 14 18  2  0  0  0  0
 15 12  1  0  0  0  0
 16 23  1  6  0  0  0
 16 17  1  0  0  0  0
 17 14  2  0  0  0  0
 18  7  1  0  0  0  0
 21 22  2  0  0  0  0
 22 20  1  0  0  0  0
 23 25  1  0  0  0  0
 24 23  2  0  0  0  0
 26 27  1  0  0  0  0
 27 28  1  0  0  0  0
 29 30  2  0  0  0  0
 29 27  1  0  0  0  0
 31 36  1  0  0  0  0
 31 32  1  0  0  0  0
 32 38  1  0  0  0  0
 33 34  1  0  0  0  0
 34 31  2  0  0  0  0
 35 33  2  0  0  0  0
 35 37  1  0  0  0  0
 36 29  1  6  0  0  0
 37 36  1  0  0  0  0
 38 43  1  0  0  0  0
 38 40  2  0  0  0  0
 39 38  2  0  0  0  0
 41 42  1  0  0  0  0
 41 47  1  1  0  0  0
 42 44  1  6  0  0  0
 43 41  1  0  0  0  0
 43 42  1  0  0  0  0
 45 44  1  0  0  0  0
 46 45  1  0  0  0  0
 47 49  1  0  0  0  0
 48 49  1  0  0  0  0
M  END
>  <MODEL>
4

>  <REMARK>
 VINA RESULT:      -2.8      2.193      4.478
  Name = 
  13 active torsions:
  status: ('A' for Active; 'I' for Inactive)
    1  A    between atoms: C_3  and  C_36
    2  A    between atoms: N_4  and  S_34
    3  A    between atoms: C_5  and  C_26
    4  A    between atoms: C_9  and  C_25
    5  A    between atoms: C_12  and  C_19
    6  A    between atoms: C_12  and  C_29
    7  A    between atoms: N_17  and  C_27
    8  A    between atoms: N_17  and  C_43
    9  A    between atoms: C_24  and  C_27
   10  A    between atoms: C_25  and  C_40
   11  A    between atoms: S_34  and  N_48
   12  A    between atoms: C_38  and  C_41
   13  A    between atoms: C_43  and  C_49
                            x       y       z     vdW  Elec       q    Type
                         _______ _______ _______ _____ _____    ______ ____

>  <TORSDO>
F 13

$$$$
=
 OpenBabel11072409493D

 49 53  0  0  1  0  0  0  0  0999 V2000
  161.3980  207.7090  149.1200 C   0  0  0  0  0  3  0  0  0  0  0  0
  161.8790  208.4790  150.1970 C   0  0  0  0  0  3  0  0  0  0  0  0
  159.0550  204.2520  150.6730 C   0  0  0  0  0  1  0  0  0  0  0  0
  160.8790  205.9440  150.5910 C   0  0  0  0  0  0  0  0  0  0  0  0
  160.9170  206.4490  149.3300 N   0  0  0  0  0  0  0  0  0  0  0  0
  161.3340  206.6690  151.6670 C   0  0  0  0  0  0  0  0  0  0  0  0
  160.5080  204.5450  151.0000 C   0  0  1  0  0  0  0  0  0  0  0  0
  161.2030  205.8040  152.8160 C   0  0  0  0  0  0  0  0  0  0  0  0
  160.7020  204.5680  152.4200 O   0  0  0  0  0  0  0  0  0  0  0  0
  161.4960  206.0970  154.0050 O   0  0  0  0  0  0  0  0  0  0  0  0
  161.8590  207.9540  151.4980 C   0  0  0  0  0  0  0  0  0  0  0  0
  160.6340  201.5980  147.3430 C   0  0  1  0  0  0  0  0  0  0  0  0
  160.7960  203.2080  145.5560 O   0  0  0  0  0  0  0  0  0  0  0  0
  161.2760  203.2050  149.1030 C   0  0  0  0  0  0  0  0  0  0  0  0
  160.2540  201.9520  145.9130 C   0  0  0  0  0  2  0  0  0  0  0  0
  161.0570  203.8980  146.7560 C   0  0  1  0  0  3  0  0  0  0  0  0
  161.1280  202.8940  147.8390 C   0  0  0  0  0  0  0  0  0  0  0  0
  161.4050  203.5260  150.3630 C   0  0  0  0  0  3  0  0  0  0  0  0
  159.3930  201.1360  148.0900 C   0  0  0  0  0  1  0  0  0  0  0  0
  162.6740  200.5700  148.3820 O   0  0  0  0  0  1  0  0  0  0  0  0
  161.6850  199.5730  146.5790 O   0  0  0  0  0  0  0  0  0  0  0  0
  161.7010  200.5370  147.3900 C   0  0  0  0  0  0  0  0  0  0  0  0
  162.3230  204.6970  146.6450 C   0  0  0  0  0  0  0  0  0  0  0  0
  162.3000  206.0240  146.6180 C   0  0  0  0  0  2  0  0  0  0  0  0
  163.5360  204.0320  146.5230 O   0  0  0  0  0  1  0  0  0  0  0  0
  162.4800  208.7230  152.6230 C   0  0  0  0  0  2  0  0  0  0  0  0
  161.7390  209.9560  152.8580 N   0  0  0  0  0  0  0  0  0  0  0  0
  162.1720  211.0990  152.2710 O   0  0  0  0  0  1  0  0  0  0  0  0
  160.4560  209.9420  153.5000 C   0  0  0  0  0  0  0  0  0  0  0  0
  159.3550  209.9910  152.7610 C   0  0  0  0  0  2  0  0  0  0  0  0
  160.8570  211.1040  155.6840 C   0  0  0  0  0  0  0  0  0  0  0  0
  160.2160  212.3800  155.5560 N   0  0  0  0  0  2  0  0  0  0  0  0
  162.5660  209.7940  156.6840 N   0  0  0  0  0  0  0  0  0  0  0  0
  161.9140  211.0150  156.4340 N   0  0  0  0  0  0  0  0  0  0  0  0
  162.0840  208.6730  156.2470 C   0  0  0  0  0  3  0  0  0  0  0  0
  160.3190  209.8680  154.9930 C   0  0  2  0  0  3  0  0  0  0  0  0
  160.9130  208.6650  155.4870 O   0  0  0  0  0  0  0  0  0  0  0  0
  158.7980  212.6980  154.6110 S   0  0  0  0  0  0  0  0  0  0  0  0
  159.2140  213.0910  153.2170 O   0  0  0  0  0  0  0  0  0  0  0  0
  157.9810  211.4390  154.5240 O   0  0  0  0  0  0  0  0  0  0  0  0
  156.6520  214.4410  154.6090 C   0  0  1  0  0  3  0  0  0  0  0  0
  156.4900  213.4060  155.6260 C   0  0  1  0  0  3  0  0  0  0  0  0
  157.8330  213.9480  155.3710 N   0  0  0  0  0  0  0  0  0  0  0  0
  155.9500  214.0190  156.9030 C   0  0  0  0  0  2  0  0  0  0  0  0
  154.6030  213.4080  157.2330 C   0  0  0  0  0  2  0  0  0  0  0  0
  153.5050  214.3960  156.8910 C   0  0  0  0  0  1  0  0  0  0  0  0
  156.4770  213.8550  153.2100 C   0  0  0  0  0  2  0  0  0  0  0  0
  155.2610  214.2320  151.0650 C   0  0  0  0  0  1  0  0  0  0  0  0
  155.2000  214.3730  152.5750 C   0  0  0  0  0  2  0  0  0  0  0  0
  1  5  2  0  0  0  0
  1  2  1  0  0  0  0
  2 11  2  0  0  0  0
  4  7  1  0  0  0  0
  4  6  2  0  0  0  0
  5  4  1  0  0  0  0
  6  8  1  0  0  0  0
  7  3  1  6  0  0  0
  7  9  1  0  0  0  0
  8 10  2  0  0  0  0
  9  8  1  0  0  0  0
 11  6  1  0  0  0  0
 11 26  1  0  0  0  0
 12 22  1  0  0  0  0
 12 17  1  0  0  0  0
 12 19  1  1  0  0  0
 13 15  1  0  0  0  0
 13 16  1  0  0  0  0
 14 18  2  0  0  0  0
 15 12  1  0  0  0  0
 16 23  1  6  0  0  0
 16 17  1  0  0  0  0
 17 14  2  0  0  0  0
 18  7  1  0  0  0  0
 21 22  2  0  0  0  0
 22 20  1  0  0  0  0
 24 23  2  0  0  0  0
 25 23  1  0  0  0  0
 26 27  1  0  0  0  0
 27 29  1  0  0  0  0
 28 27  1  0  0  0  0
 30 29  2  0  0  0  0
 31 34  2  0  0  0  0
 32 31  1  0  0  0  0
 34 33  1  0  0  0  0
 35 33  2  0  0  0  0
 36 29  1  6  0  0  0
 36 37  1  0  0  0  0
 36 31  1  0  0  0  0
 37 35  1  0  0  0  0
 38 43  1  0  0  0  0
 38 32  1  0  0  0  0
 39 38  2  0  0  0  0
 40 38  2  0  0  0  0
 41 47  1  6  0  0  0
 41 43  1  0  0  0  0
 41 42  1  0  0  0  0
 42 44  1  1  0  0  0
 43 42  1  0  0  0  0
 44 45  1  0  0  0  0
 46 45  1  0  0  0  0
 48 49  1  0  0  0  0
 49 47  1  0  0  0  0
M  END
>  <MODEL>
5

>  <REMARK>
 VINA RESULT:      -2.7      1.878      3.842
  Name = 
  13 active torsions:
  status: ('A' for Active; 'I' for Inactive)
    1  A    between atoms: C_3  and  C_36
    2  A    between atoms: N_4  and  S_34
    3  A    between atoms: C_5  and  C_26
    4  A    between atoms: C_9  and  C_25
    5  A    between atoms: C_12  and  C_19
    6  A    between atoms: C_12  and  C_29
    7  A    between atoms: N_17  and  C_27
    8  A    between atoms: N_17  and  C_43
    9  A    between atoms: C_24  and  C_27
   10  A    between atoms: C_25  and  C_40
   11  A    between atoms: S_34  and  N_48
   12  A    between atoms: C_38  and  C_41
   13  A    between atoms: C_43  and  C_49
                            x       y       z     vdW  Elec       q    Type
                         _______ _______ _______ _____ _____    ______ ____

>  <TORSDO>
F 13

$$$$
=
 OpenBabel11072409493D

 49 53  0  0  1  0  0  0  0  0999 V2000
  161.6160  210.4500  150.3200 C   0  0  0  0  0  3  0  0  0  0  0  0
  161.9890  209.2050  149.7760 C   0  0  0  0  0  3  0  0  0  0  0  0
  161.6310  210.2110  154.7690 C   0  0  0  0  0  1  0  0  0  0  0  0
  161.2800  209.4480  152.4250 C   0  0  0  0  0  0  0  0  0  0  0  0
  161.2540  210.5510  151.6330 N   0  0  0  0  0  0  0  0  0  0  0  0
  161.6460  208.2190  151.9310 C   0  0  0  0  0  0  0  0  0  0  0  0
  160.8000  209.3380  153.8470 C   0  0  1  0  0  0  0  0  0  0  0  0
  161.4940  207.2870  153.0230 C   0  0  0  0  0  0  0  0  0  0  0  0
  161.0140  207.9530  154.1470 O   0  0  0  0  0  0  0  0  0  0  0  0
  161.7440  206.0530  152.9890 O   0  0  0  0  0  0  0  0  0  0  0  0
  162.0000  208.0600  150.5880 C   0  0  0  0  0  0  0  0  0  0  0  0
  157.9470  212.3000  156.1170 C   0  0  1  0  0  0  0  0  0  0  0  0
  158.5910  214.3590  155.0390 O   0  0  0  0  0  0  0  0  0  0  0  0
  158.9620  210.8580  154.3910 C   0  0  0  0  0  0  0  0  0  0  0  0
  158.1700  213.7980  156.2670 C   0  0  0  0  0  2  0  0  0  0  0  0
  159.1260  213.3070  154.2700 C   0  0  1  0  0  3  0  0  0  0  0  0
  158.5980  212.0410  154.8220 C   0  0  0  0  0  0  0  0  0  0  0  0
  159.3450  209.6830  153.9670 C   0  0  0  0  0  3  0  0  0  0  0  0
  158.6380  211.5750  157.2600 C   0  0  0  0  0  1  0  0  0  0  0  0
  155.8560  211.6800  154.8760 O   0  0  0  0  0  0  0  0  0  0  0  0
  155.8240  211.8450  157.1550 O   0  0  0  0  0  1  0  0  0  0  0  0
  156.4810  211.9570  156.0850 C   0  0  0  0  0  0  0  0  0  0  0  0
  158.7770  213.4770  152.8200 C   0  0  0  0  0  0  0  0  0  0  0  0
  157.5170  213.6190  152.4260 C   0  0  0  0  0  2  0  0  0  0  0  0
  159.7890  213.4400  151.8690 O   0  0  0  0  0  1  0  0  0  0  0  0
  162.2800  206.7190  149.9830 C   0  0  0  0  0  2  0  0  0  0  0  0
  161.2830  206.4090  148.9660 N   0  0  0  0  0  0  0  0  0  0  0  0
  159.9730  206.4200  149.3120 O   0  0  0  0  0  1  0  0  0  0  0  0
  161.6390  206.3180  147.5790 C   0  0  0  0  0  0  0  0  0  0  0  0
  162.8220  206.7660  147.1780 C   0  0  0  0  0  2  0  0  0  0  0  0
  161.3800  204.6460  145.7300 C   0  0  0  0  0  0  0  0  0  0  0  0
  161.7780  203.3910  146.2970 N   0  0  0  0  0  2  0  0  0  0  0  0
  161.1600  206.0100  143.7990 N   0  0  0  0  0  0  0  0  0  0  0  0
  161.5850  204.8450  144.4620 N   0  0  0  0  0  0  0  0  0  0  0  0
  160.4550  206.9110  144.4090 C   0  0  0  0  0  3  0  0  0  0  0  0
  160.7110  205.7210  146.5610 C   0  0  2  0  0  3  0  0  0  0  0  0
  160.1290  206.7500  145.7560 O   0  0  0  0  0  0  0  0  0  0  0  0
  161.5850  202.9370  147.9590 S   0  0  0  0  0  0  0  0  0  0  0  0
  162.4000  203.8660  148.8210 O   0  0  0  0  0  0  0  0  0  0  0  0
  160.1380  203.0870  148.3370 O   0  0  0  0  0  0  0  0  0  0  0  0
  161.2010  200.4400  149.0830 C   0  0  1  0  0  3  0  0  0  0  0  0
  161.0010  200.4040  147.6370 C   0  0  1  0  0  3  0  0  0  0  0  0
  162.0590  201.2660  148.1870 N   0  0  0  0  0  0  0  0  0  0  0  0
  161.6390  199.1560  147.0600 C   0  0  0  0  0  2  0  0  0  0  0  0
  161.1500  198.9410  145.6430 C   0  0  0  0  0  2  0  0  0  0  0  0
  160.4550  200.1960  145.1540 C   0  0  0  0  0  1  0  0  0  0  0  0
  160.0550  201.1830  149.7670 C   0  0  0  0  0  2  0  0  0  0  0  0
  161.2300  202.5200  151.5150 C   0  0  0  0  0  1  0  0  0  0  0  0
  160.3300  201.3260  151.2520 C   0  0  0  0  0  2  0  0  0  0  0  0
  1  5  1  0  0  0  0
  2  1  2  0  0  0  0
  2 11  1  0  0  0  0
  4  7  1  0  0  0  0
  5  4  2  0  0  0  0
  6  4  1  0  0  0  0
  6  8  1  0  0  0  0
  7 18  1  0  0  0  0
  7  9  1  0  0  0  0
  7  3  1  1  0  0  0
  8  9  1  0  0  0  0
 10  8  2  0  0  0  0
 11  6  2  0  0  0  0
 12 15  1  0  0  0  0
 12 19  1  1  0  0  0
 13 15  1  0  0  0  0
 14 17  2  0  0  0  0
 16 23  1  6  0  0  0
 16 17  1  0  0  0  0
 16 13  1  0  0  0  0
 17 12  1  0  0  0  0
 18 14  2  0  0  0  0
 20 22  2  0  0  0  0
 22 12  1  0  0  0  0
 22 21  1  0  0  0  0
 24 23  2  0  0  0  0
 25 23  1  0  0  0  0
 26 11  1  0  0  0  0
 27 28  1  0  0  0  0
 27 26  1  0  0  0  0
 29 27  1  0  0  0  0
 30 29  2  0  0  0  0
 31 32  1  0  0  0  0
 31 36  1  0  0  0  0
 32 38  1  0  0  0  0
 33 35  2  0  0  0  0
 33 34  1  0  0  0  0
 34 31  2  0  0  0  0
 35 37  1  0  0  0  0
 36 29  1  1  0  0  0
 37 36  1  0  0  0  0
 38 43  1  0  0  0  0
 38 40  2  0  0  0  0
 38 39  2  0  0  0  0
 41 47  1  1  0  0  0
 42 44  1  6  0  0  0
 42 43  1  0  0  0  0
 42 41  1  0  0  0  0
 43 41  1  0  0  0  0
 45 44  1  0  0  0  0
 46 45  1  0  0  0  0
 47 49  1  0  0  0  0
 49 48  1  0  0  0  0
M  END
>  <MODEL>
6

>  <REMARK>
 VINA RESULT:      -2.4      3.447     11.176
  Name = 
  13 active torsions:
  status: ('A' for Active; 'I' for Inactive)
    1  A    between atoms: C_3  and  C_36
    2  A    between atoms: N_4  and  S_34
    3  A    between atoms: C_5  and  C_26
    4  A    between atoms: C_9  and  C_25
    5  A    between atoms: C_12  and  C_19
    6  A    between atoms: C_12  and  C_29
    7  A    between atoms: N_17  and  C_27
    8  A    between atoms: N_17  and  C_43
    9  A    between atoms: C_24  and  C_27
   10  A    between atoms: C_25  and  C_40
   11  A    between atoms: S_34  and  N_48
   12  A    between atoms: C_38  and  C_41
   13  A    between atoms: C_43  and  C_49
                            x       y       z     vdW  Elec       q    Type
                         _______ _______ _______ _____ _____    ______ ____

>  <TORSDO>
F 13

$$$$
