=
 OpenBabel11072411233D

 42 45  0  0  1  0  0  0  0  0999 V2000
  160.7030  207.4690  152.6590 C   0  0  0  0  0  0  0  0  0  0  0  0
  162.4250  210.7030  152.8000 O   0  0  0  0  0  0  0  0  0  0  0  0
  162.4450  210.1730  148.6370 C   0  0  0  0  0  3  0  0  0  0  0  0
  160.8140  207.2310  151.2400 N   0  0  0  0  0  0  0  0  0  0  0  0
  160.3100  206.5520  153.4250 O   0  0  0  0  0  0  0  0  0  0  0  0
  161.3580  208.2360  150.3600 C   0  0  0  0  0  0  0  0  0  0  0  0
  161.9380  208.9850  148.1150 C   0  0  0  0  0  3  0  0  0  0  0  0
  162.4070  210.4010  150.0120 C   0  0  0  0  0  3  0  0  0  0  0  0
  161.0640  208.8040  153.2460 C   0  0  1  0  0  3  0  0  0  0  0  0
  161.8580  209.4450  150.8760 C   0  0  0  0  0  0  0  0  0  0  0  0
  161.3970  208.0230  148.9720 C   0  0  0  0  0  3  0  0  0  0  0  0
  161.8180  209.7090  152.3220 C   0  0  0  0  0  0  0  0  0  0  0  0
  159.1240  210.2650  156.2360 C   0  0  0  0  0  2  0  0  0  0  0  0
  160.4200  211.8190  154.6880 C   0  0  1  0  0  3  0  0  0  0  0  0
  159.5470  211.7150  153.4950 C   0  0  0  0  0  0  0  0  0  0  0  0
  159.3050  210.5000  153.1470 N   0  0  0  0  0  0  0  0  0  0  0  0
  158.8860  212.7300  156.5510 C   0  0  2  0  0  3  0  0  0  0  0  0
  160.0810  212.9850  155.6290 C   0  0  0  0  0  2  0  0  0  0  0  0
  159.9770  209.5670  154.0370 C   0  0  2  0  0  3  0  0  0  0  0  0
  160.3440  210.3990  155.2890 C   0  0  2  0  0  0  0  0  0  0  0  0
  159.0360  211.3910  157.2540 C   0  0  0  0  0  2  0  0  0  0  0  0
  157.5500  212.8230  155.8130 C   0  0  0  0  0  2  0  0  0  0  0  0
  156.4140  213.0100  156.8000 C   0  0  0  0  0  1  0  0  0  0  0  0
  159.0530  212.8180  152.7900 O   0  0  0  0  0  0  0  0  0  0  0  0
  159.6630  213.2740  151.5980 C   0  0  0  0  0  1  0  0  0  0  0  0
  161.6130  210.0500  155.8370 O   0  0  0  0  0  0  0  0  0  0  0  0
  161.5070  209.3200  157.0370 C   0  0  0  0  0  2  0  0  0  0  0  0
  161.4860  207.8270  156.7490 C   0  0  0  0  0  1  0  0  0  0  0  0
  160.4480  205.9230  150.7050 C   0  0  0  0  0  2  0  0  0  0  0  0
  161.6960  205.1040  150.4220 C   0  0  2  0  0  3  0  0  0  0  0  0
  161.0530  202.6820  147.7400 O   0  0  0  0  0  0  0  0  0  0  0  0
  161.3310  203.8990  149.6980 N   0  0  0  0  0  2  0  0  0  0  0  0
  161.2720  203.8030  148.2650 C   0  0  0  0  0  0  0  0  0  0  0  0
  161.4510  204.9880  147.3630 C   0  0  2  0  0  3  0  0  0  0  0  0
  160.3440  205.8140  147.3810 F   0  0  0  0  0  0  0  0  0  0  0  0
  161.1430  203.0980  145.2250 O   0  0  0  0  0  1  0  0  0  0  0  0
  161.9270  204.5310  145.6690 P   0  0  0  0  0  0  0  0  0  0  0  0
  163.4210  204.3140  145.6020 O   0  0  0  0  0  1  0  0  0  0  0  0
  161.5060  205.7500  144.5810 O   0  0  0  0  0  0  0  0  0  0  0  0
  163.4740  205.5220  152.1230 O   0  0  0  0  0  0  0  0  0  0  0  0
  161.9760  203.8140  152.4210 O   0  0  0  0  0  1  0  0  0  0  0  0
  162.3890  204.7610  151.7010 C   0  0  0  0  0  0  0  0  0  0  0  0
  1  9  1  0  0  0  0
  1  5  2  0  0  0  0
  3  8  1  0  0  0  0
  4  1  1  0  0  0  0
  6 10  1  0  0  0  0
  6  4  1  0  0  0  0
  7  3  2  0  0  0  0
  7 11  1  0  0  0  0
  8 10  2  0  0  0  0
  9 12  1  6  0  0  0
  9 19  1  0  0  0  0
 10 12  1  0  0  0  0
 11  6  2  0  0  0  0
 12  2  2  0  0  0  0
 13 21  1  0  0  0  0
 14 20  1  0  0  0  0
 14 18  1  1  0  0  0
 15 14  1  0  0  0  0
 16 15  2  0  0  0  0
 17 22  1  6  0  0  0
 17 21  1  0  0  0  0
 18 17  1  0  0  0  0
 19 16  1  6  0  0  0
 19 20  1  0  0  0  0
 20 26  1  1  0  0  0
 20 13  1  0  0  0  0
 22 23  1  0  0  0  0
 24 15  1  0  0  0  0
 25 24  1  0  0  0  0
 26 27  1  0  0  0  0
 28 27  1  0  0  0  0
 29  4  1  0  0  0  0
 30 29  1  1  0  0  0
 30 42  1  0  0  0  0
 31 33  2  0  0  0  0
 32 30  1  0  0  0  0
 33 32  1  0  0  0  0
 34 35  1  6  0  0  0
 34 33  1  0  0  0  0
 36 37  1  0  0  0  0
 37 34  1  0  0  0  0
 38 37  1  0  0  0  0
 39 37  2  0  0  0  0
 42 40  2  0  0  0  0
 42 41  1  0  0  0  0
M  END
>  <MODEL>
1

>  <REMARK>
 VINA RESULT:      -5.3      0.000      0.000
  Name = 
  11 active torsions:
  status: ('A' for Active; 'I' for Inactive)
    1  A    between atoms: C_4  and  C_31
    2  A    between atoms: C_5  and  O_18
    3  A    between atoms: N_9  and  C_22
    4  A    between atoms: P_10  and  C_11
    5  A    between atoms: C_11  and  C_40
    6  A    between atoms: C_14  and  O_21
    7  A    between atoms: CA_15  and  C_22
    8  A    between atoms: CA_15  and  N_25
    9  A    between atoms: CA_15  and  C_42
   10  A    between atoms: O_18  and  C_38
   11  A    between atoms: C_28  and  C_35
                            x       y       z     vdW  Elec       q    Type
                         _______ _______ _______ _____ _____    ______ ____

>  <TORSDO>
F 11

$$$$
=
 OpenBabel11072411233D

 42 45  0  0  1  0  0  0  0  0999 V2000
  161.4620  210.8530  151.1130 C   0  0  0  0  0  0  0  0  0  0  0  0
  160.0300  214.2230  151.3020 O   0  0  0  0  0  0  0  0  0  0  0  0
  160.1970  213.8550  147.1240 C   0  0  0  0  0  3  0  0  0  0  0  0
  161.6290  210.7730  149.6820 N   0  0  0  0  0  0  0  0  0  0  0  0
  161.9770  209.9810  151.8600 O   0  0  0  0  0  0  0  0  0  0  0  0
  161.1310  211.8150  148.8180 C   0  0  0  0  0  0  0  0  0  0  0  0
  160.7730  212.7090  146.5800 C   0  0  0  0  0  3  0  0  0  0  0  0
  160.0800  213.9850  148.5070 C   0  0  0  0  0  3  0  0  0  0  0  0
  160.6850  211.9770  151.7350 C   0  0  1  0  0  3  0  0  0  0  0  0
  160.5360  212.9690  149.3580 C   0  0  0  0  0  0  0  0  0  0  0  0
  161.2360  211.6950  147.4220 C   0  0  0  0  0  3  0  0  0  0  0  0
  160.3940  213.1210  150.8140 C   0  0  0  0  0  0  0  0  0  0  0  0
  158.6300  210.6470  154.7100 C   0  0  0  0  0  2  0  0  0  0  0  0
  158.7850  213.1580  154.3010 C   0  0  1  0  0  3  0  0  0  0  0  0
  157.9520  213.2300  153.0780 C   0  0  0  0  0  0  0  0  0  0  0  0
  158.3140  212.3960  152.1660 N   0  0  0  0  0  0  0  0  0  0  0  0
  157.2260  212.1700  156.1030 C   0  0  2  0  0  3  0  0  0  0  0  0
  158.0170  213.3850  155.6130 C   0  0  0  0  0  2  0  0  0  0  0  0
  159.4600  211.6180  152.6080 C   0  0  2  0  0  3  0  0  0  0  0  0
  159.5010  211.7990  154.1450 C   0  0  2  0  0  0  0  0  0  0  0  0
  158.1070  210.9310  156.1100 C   0  0  0  0  0  2  0  0  0  0  0  0
  155.9490  211.9390  155.2940 C   0  0  0  0  0  2  0  0  0  0  0  0
  155.3250  210.6070  155.6610 C   0  0  0  0  0  1  0  0  0  0  0  0
  156.8950  214.1290  152.9050 O   0  0  0  0  0  0  0  0  0  0  0  0
  156.3110  214.3580  151.6370 C   0  0  0  0  0  1  0  0  0  0  0  0
  160.8270  211.9020  154.6580 O   0  0  0  0  0  0  0  0  0  0  0  0
  161.3660  210.6550  155.0320 C   0  0  0  0  0  2  0  0  0  0  0  0
  162.3970  210.8330  156.1340 C   0  0  0  0  0  1  0  0  0  0  0  0
  162.3850  209.6610  149.1130 C   0  0  0  0  0  2  0  0  0  0  0  0
  161.8040  208.3380  149.5810 C   0  0  2  0  0  3  0  0  0  0  0  0
  163.3250  206.0030  151.9710 O   0  0  0  0  0  0  0  0  0  0  0  0
  162.7280  207.7010  150.5040 N   0  0  0  0  0  2  0  0  0  0  0  0
  162.4150  206.5390  151.2880 C   0  0  0  0  0  0  0  0  0  0  0  0
  161.0430  205.9370  151.3370 C   0  0  2  0  0  3  0  0  0  0  0  0
  160.4720  206.0720  152.5870 F   0  0  0  0  0  0  0  0  0  0  0  0
  161.5990  204.1340  149.1740 O   0  0  0  0  0  0  0  0  0  0  0  0
  160.9960  204.2150  150.7540 P   0  0  0  0  0  0  0  0  0  0  0  0
  159.5700  203.7150  150.7630 O   0  0  0  0  0  1  0  0  0  0  0  0
  161.9260  203.2210  151.7510 O   0  0  0  0  0  1  0  0  0  0  0  0
  162.5720  207.1090  147.5490 O   0  0  0  0  0  0  0  0  0  0  0  0
  160.3840  206.9760  148.2150 O   0  0  0  0  0  1  0  0  0  0  0  0
  161.5340  207.4500  148.4090 C   0  0  0  0  0  0  0  0  0  0  0  0
  1  9  1  0  0  0  0
  1  5  2  0  0  0  0
  3  8  1  0  0  0  0
  4  1  1  0  0  0  0
  6 10  1  0  0  0  0
  6  4  1  0  0  0  0
  7  3  2  0  0  0  0
  7 11  1  0  0  0  0
  8 10  2  0  0  0  0
  9 12  1  6  0  0  0
  9 19  1  0  0  0  0
 10 12  1  0  0  0  0
 11  6  2  0  0  0  0
 12  2  2  0  0  0  0
 13 21  1  0  0  0  0
 14 18  1  1  0  0  0
 15 14  1  0  0  0  0
 16 15  2  0  0  0  0
 17 22  1  6  0  0  0
 17 21  1  0  0  0  0
 18 17  1  0  0  0  0
 19 16  1  6  0  0  0
 19 20  1  0  0  0  0
 20 14  1  0  0  0  0
 20 26  1  1  0  0  0
 20 13  1  0  0  0  0
 22 23  1  0  0  0  0
 24 15  1  0  0  0  0
 25 24  1  0  0  0  0
 26 27  1  0  0  0  0
 27 28  1  0  0  0  0
 29  4  1  0  0  0  0
 30 29  1  6  0  0  0
 30 32  1  0  0  0  0
 32 33  1  0  0  0  0
 33 34  1  0  0  0  0
 33 31  2  0  0  0  0
 34 35  1  1  0  0  0
 36 37  2  0  0  0  0
 37 38  1  0  0  0  0
 37 34  1  0  0  0  0
 37 39  1  0  0  0  0
 40 42  2  0  0  0  0
 41 42  1  0  0  0  0
 42 30  1  0  0  0  0
M  END
>  <MODEL>
2

>  <REMARK>
 VINA RESULT:      -4.9      2.470      3.947
  Name = 
  11 active torsions:
  status: ('A' for Active; 'I' for Inactive)
    1  A    between atoms: C_4  and  C_31
    2  A    between atoms: C_5  and  O_18
    3  A    between atoms: N_9  and  C_22
    4  A    between atoms: P_10  and  C_11
    5  A    between atoms: C_11  and  C_40
    6  A    between atoms: C_14  and  O_21
    7  A    between atoms: CA_15  and  C_22
    8  A    between atoms: CA_15  and  N_25
    9  A    between atoms: CA_15  and  C_42
   10  A    between atoms: O_18  and  C_38
   11  A    between atoms: C_28  and  C_35
                            x       y       z     vdW  Elec       q    Type
                         _______ _______ _______ _____ _____    ______ ____

>  <TORSDO>
F 11

$$$$
=
 OpenBabel11072411233D

 42 45  0  0  1  0  0  0  0  0999 V2000
  160.7230  210.6830  152.2480 C   0  0  0  0  0  0  0  0  0  0  0  0
  163.9700  210.2130  153.8850 O   0  0  0  0  0  0  0  0  0  0  0  0
  161.7280  211.3070  157.2600 C   0  0  0  0  0  3  0  0  0  0  0  0
  159.9820  211.1720  153.3840 N   0  0  0  0  0  0  0  0  0  0  0  0
  160.2250  210.7410  151.0940 O   0  0  0  0  0  0  0  0  0  0  0  0
  160.5740  211.2050  154.6980 C   0  0  0  0  0  0  0  0  0  0  0  0
  160.3940  211.6690  157.0840 C   0  0  0  0  0  3  0  0  0  0  0  0
  162.4860  210.8900  156.1670 C   0  0  0  0  0  3  0  0  0  0  0  0
  162.1010  210.1090  152.4180 C   0  0  1  0  0  3  0  0  0  0  0  0
  161.9160  210.8280  154.8880 C   0  0  0  0  0  0  0  0  0  0  0  0
  159.8210  211.6170  155.8110 C   0  0  0  0  0  3  0  0  0  0  0  0
  162.7290  210.3760  153.7500 C   0  0  0  0  0  0  0  0  0  0  0  0
  162.2380  206.2600  152.4950 C   0  0  0  0  0  2  0  0  0  0  0  0
  160.5090  207.4350  151.0380 C   0  0  1  0  0  3  0  0  0  0  0  0
  161.4250  207.9730  150.0050 C   0  0  0  0  0  0  0  0  0  0  0  0
  162.4180  208.6280  150.4970 N   0  0  0  0  0  0  0  0  0  0  0  0
  160.8450  204.8790  150.9510 C   0  0  2  0  0  3  0  0  0  0  0  0
  159.9060  206.0610  150.7060 C   0  0  0  0  0  2  0  0  0  0  0  0
  162.3450  208.6560  151.9490 C   0  0  2  0  0  3  0  0  0  0  0  0
  161.3580  207.5240  152.3250 C   0  0  2  0  0  0  0  0  0  0  0  0
  161.4550  204.9660  152.3410 C   0  0  0  0  0  2  0  0  0  0  0  0
  161.9270  204.7600  149.8770 C   0  0  0  0  0  2  0  0  0  0  0  0
  161.3750  204.0700  148.6440 C   0  0  0  0  0  1  0  0  0  0  0  0
  161.2280  207.8180  148.6290 O   0  0  0  0  0  0  0  0  0  0  0  0
  162.3040  207.5740  147.7450 C   0  0  0  0  0  1  0  0  0  0  0  0
  160.5160  207.8630  153.4240 O   0  0  0  0  0  0  0  0  0  0  0  0
  160.8950  207.2220  154.6200 C   0  0  0  0  0  2  0  0  0  0  0  0
  160.0330  207.7040  155.7750 C   0  0  0  0  0  1  0  0  0  0  0  0
  158.6420  211.7170  153.1810 C   0  0  0  0  0  2  0  0  0  0  0  0
  158.7230  213.1940  152.8370 C   0  0  2  0  0  3  0  0  0  0  0  0
  156.9020  214.3250  155.8160 O   0  0  0  0  0  0  0  0  0  0  0  0
  158.2640  213.9820  153.9670 N   0  0  0  0  0  2  0  0  0  0  0  0
  157.1440  213.6300  154.7960 C   0  0  0  0  0  0  0  0  0  0  0  0
  156.2400  212.4730  154.4930 C   0  0  2  0  0  3  0  0  0  0  0  0
  155.0970  212.8780  153.8340 F   0  0  0  0  0  0  0  0  0  0  0  0
  154.9220  212.3680  157.0410 O   0  0  0  0  0  1  0  0  0  0  0  0
  155.8560  211.4640  155.9560 P   0  0  0  0  0  0  0  0  0  0  0  0
  157.1390  211.0500  156.6390 O   0  0  0  0  0  1  0  0  0  0  0  0
  155.0020  210.0770  155.5170 O   0  0  0  0  0  0  0  0  0  0  0  0
  156.8100  214.3420  151.7180 O   0  0  0  0  0  1  0  0  0  0  0  0
  158.2110  212.9960  150.5050 O   0  0  0  0  0  0  0  0  0  0  0  0
  157.9020  213.4860  151.6220 C   0  0  0  0  0  0  0  0  0  0  0  0
  1  4  1  0  0  0  0
  4  6  1  0  0  0  0
  5  1  2  0  0  0  0
  6 10  2  0  0  0  0
  6 11  1  0  0  0  0
  7  3  1  0  0  0  0
  8  3  2  0  0  0  0
  9  1  1  1  0  0  0
  9 12  1  0  0  0  0
 10  8  1  0  0  0  0
 11  7  2  0  0  0  0
 12  2  2  0  0  0  0
 12 10  1  0  0  0  0
 14 18  1  6  0  0  0
 14 20  1  0  0  0  0
 15 16  2  0  0  0  0
 15 14  1  0  0  0  0
 17 22  1  6  0  0  0
 17 21  1  0  0  0  0
 18 17  1  0  0  0  0
 19 16  1  6  0  0  0
 19 20  1  0  0  0  0
 19  9  1  0  0  0  0
 20 13  1  0  0  0  0
 20 26  1  1  0  0  0
 21 13  1  0  0  0  0
 23 22  1  0  0  0  0
 24 15  1  0  0  0  0
 25 24  1  0  0  0  0
 26 27  1  0  0  0  0
 27 28  1  0  0  0  0
 29  4  1  0  0  0  0
 30 29  1  1  0  0  0
 30 32  1  0  0  0  0
 32 33  1  0  0  0  0
 33 31  2  0  0  0  0
 34 35  1  1  0  0  0
 34 33  1  0  0  0  0
 34 37  1  0  0  0  0
 37 38  1  0  0  0  0
 37 36  1  0  0  0  0
 39 37  2  0  0  0  0
 41 42  2  0  0  0  0
 42 40  1  0  0  0  0
 42 30  1  0  0  0  0
M  END
>  <MODEL>
3

>  <REMARK>
 VINA RESULT:      -4.0      3.661      8.768
  Name = 
  11 active torsions:
  status: ('A' for Active; 'I' for Inactive)
    1  A    between atoms: C_4  and  C_31
    2  A    between atoms: C_5  and  O_18
    3  A    between atoms: N_9  and  C_22
    4  A    between atoms: P_10  and  C_11
    5  A    between atoms: C_11  and  C_40
    6  A    between atoms: C_14  and  O_21
    7  A    between atoms: CA_15  and  C_22
    8  A    between atoms: CA_15  and  N_25
    9  A    between atoms: CA_15  and  C_42
   10  A    between atoms: O_18  and  C_38
   11  A    between atoms: C_28  and  C_35
                            x       y       z     vdW  Elec       q    Type
                         _______ _______ _______ _____ _____    ______ ____

>  <TORSDO>
F 11

$$$$
=
 OpenBabel11072411233D

 42 45  0  0  1  0  0  0  0  0999 V2000
  160.2640  211.8980  152.0920 C   0  0  0  0  0  0  0  0  0  0  0  0
  162.3130  210.0370  154.4960 O   0  0  0  0  0  0  0  0  0  0  0  0
  160.2920  212.5270  157.2030 C   0  0  0  0  0  3  0  0  0  0  0  0
  159.6580  212.8330  153.0090 N   0  0  0  0  0  0  0  0  0  0  0  0
  160.1440  212.0620  150.8500 O   0  0  0  0  0  0  0  0  0  0  0  0
  159.8660  212.7180  154.4310 C   0  0  0  0  0  0  0  0  0  0  0  0
  159.4280  213.4960  156.6980 C   0  0  0  0  0  3  0  0  0  0  0  0
  160.9400  211.6510  156.3340 C   0  0  0  0  0  3  0  0  0  0  0  0
  161.0540  210.7260  152.5990 C   0  0  1  0  0  3  0  0  0  0  0  0
  160.7260  211.7340  154.9510 C   0  0  0  0  0  0  0  0  0  0  0  0
  159.2160  213.5900  155.3210 C   0  0  0  0  0  3  0  0  0  0  0  0
  161.4110  210.7940  154.0510 C   0  0  0  0  0  0  0  0  0  0  0  0
  160.4090  207.6320  150.3960 C   0  0  0  0  0  2  0  0  0  0  0  0
  162.2050  207.5470  152.2020 C   0  0  1  0  0  3  0  0  0  0  0  0
  161.3190  207.5410  153.3890 C   0  0  0  0  0  0  0  0  0  0  0  0
  160.4480  208.4880  153.3790 N   0  0  0  0  0  0  0  0  0  0  0  0
  161.5280  205.4490  150.8620 C   0  0  2  0  0  3  0  0  0  0  0  0
  162.6030  206.1530  151.6930 C   0  0  0  0  0  2  0  0  0  0  0  0
  160.5950  209.3080  152.1870 C   0  0  2  0  0  3  0  0  0  0  0  0
  161.4400  208.4530  151.2120 C   0  0  2  0  0  0  0  0  0  0  0  0
  161.0050  206.3770  149.7770 C   0  0  0  0  0  2  0  0  0  0  0  0
  160.3880  204.9050  151.7240 C   0  0  0  0  0  2  0  0  0  0  0  0
  160.6610  203.4650  152.1140 C   0  0  0  0  0  1  0  0  0  0  0  0
  161.4260  206.6220  154.4390 O   0  0  0  0  0  0  0  0  0  0  0  0
  160.9380  206.9110  155.7340 C   0  0  0  0  0  1  0  0  0  0  0  0
  162.3730  209.2250  150.4610 O   0  0  0  0  0  0  0  0  0  0  0  0
  162.4190  208.8540  149.1020 C   0  0  0  0  0  2  0  0  0  0  0  0
  161.6650  209.8630  148.2520 C   0  0  0  0  0  1  0  0  0  0  0  0
  158.8910  213.9570  152.4790 C   0  0  0  0  0  2  0  0  0  0  0  0
  157.4020  213.6860  152.6140 C   0  0  2  0  0  3  0  0  0  0  0  0
  156.0220  210.9620  154.6510 O   0  0  0  0  0  0  0  0  0  0  0  0
  157.1980  212.4000  153.2570 N   0  0  0  0  0  2  0  0  0  0  0  0
  156.1820  212.1400  154.2400 C   0  0  0  0  0  0  0  0  0  0  0  0
  155.3060  213.2150  154.8080 C   0  0  2  0  0  3  0  0  0  0  0  0
  155.6080  214.4530  154.2760 F   0  0  0  0  0  0  0  0  0  0  0  0
  155.6920  211.7080  157.2200 O   0  0  0  0  0  1  0  0  0  0  0  0
  155.2950  213.2430  156.6250 P   0  0  0  0  0  0  0  0  0  0  0  0
  153.9170  213.6200  157.1200 O   0  0  0  0  0  0  0  0  0  0  0  0
  156.4090  214.3670  157.2120 O   0  0  0  0  0  1  0  0  0  0  0  0
  155.4020  214.0410  151.1630 O   0  0  0  0  0  1  0  0  0  0  0  0
  157.4160  213.4760  150.2280 O   0  0  0  0  0  0  0  0  0  0  0  0
  156.7490  213.7120  151.2690 C   0  0  0  0  0  0  0  0  0  0  0  0
  1  4  1  0  0  0  0
  4  6  1  0  0  0  0
  5  1  2  0  0  0  0
  6 10  2  0  0  0  0
  6 11  1  0  0  0  0
  7  3  1  0  0  0  0
  8  3  2  0  0  0  0
  9  1  1  1  0  0  0
  9 12  1  0  0  0  0
 10  8  1  0  0  0  0
 11  7  2  0  0  0  0
 12  2  2  0  0  0  0
 12 10  1  0  0  0  0
 13 20  1  0  0  0  0
 14 18  1  6  0  0  0
 14 15  1  0  0  0  0
 15 24  1  0  0  0  0
 16 15  2  0  0  0  0
 17 18  1  0  0  0  0
 17 22  1  1  0  0  0
 19  9  1  0  0  0  0
 19 16  1  1  0  0  0
 20 26  1  6  0  0  0
 20 19  1  0  0  0  0
 20 14  1  0  0  0  0
 21 13  1  0  0  0  0
 21 17  1  0  0  0  0
 22 23  1  0  0  0  0
 24 25  1  0  0  0  0
 27 26  1  0  0  0  0
 28 27  1  0  0  0  0
 29  4  1  0  0  0  0
 30 29  1  6  0  0  0
 30 32  1  0  0  0  0
 32 33  1  0  0  0  0
 33 31  2  0  0  0  0
 33 34  1  0  0  0  0
 34 35  1  6  0  0  0
 34 37  1  0  0  0  0
 37 38  2  0  0  0  0
 37 39  1  0  0  0  0
 37 36  1  0  0  0  0
 40 42  1  0  0  0  0
 41 42  2  0  0  0  0
 42 30  1  0  0  0  0
M  END
>  <MODEL>
4

>  <REMARK>
 VINA RESULT:      -3.5      4.235      9.267
  Name = 
  11 active torsions:
  status: ('A' for Active; 'I' for Inactive)
    1  A    between atoms: C_4  and  C_31
    2  A    between atoms: C_5  and  O_18
    3  A    between atoms: N_9  and  C_22
    4  A    between atoms: P_10  and  C_11
    5  A    between atoms: C_11  and  C_40
    6  A    between atoms: C_14  and  O_21
    7  A    between atoms: CA_15  and  C_22
    8  A    between atoms: CA_15  and  N_25
    9  A    between atoms: CA_15  and  C_42
   10  A    between atoms: O_18  and  C_38
   11  A    between atoms: C_28  and  C_35
                            x       y       z     vdW  Elec       q    Type
                         _______ _______ _______ _____ _____    ______ ____

>  <TORSDO>
F 11

$$$$
=
 OpenBabel11072411233D

 42 45  0  0  1  0  0  0  0  0999 V2000
  160.4130  209.3180  152.2570 C   0  0  0  0  0  0  0  0  0  0  0  0
  162.5480  206.5330  153.3200 O   0  0  0  0  0  0  0  0  0  0  0  0
  160.6490  207.2910  156.9860 C   0  0  0  0  0  3  0  0  0  0  0  0
  159.8490  209.6550  153.5410 N   0  0  0  0  0  0  0  0  0  0  0  0
  160.2450  210.0820  151.2720 O   0  0  0  0  0  0  0  0  0  0  0  0
  160.1140  208.8440  154.7040 C   0  0  0  0  0  0  0  0  0  0  0  0
  159.7700  208.3690  157.0690 C   0  0  0  0  0  3  0  0  0  0  0  0
  161.2570  206.9820  155.7700 C   0  0  0  0  0  3  0  0  0  0  0  0
  161.2170  208.0620  152.0760 C   0  0  1  0  0  3  0  0  0  0  0  0
  160.9890  207.7450  154.6260 C   0  0  0  0  0  0  0  0  0  0  0  0
  159.5040  209.1390  155.9350 C   0  0  0  0  0  3  0  0  0  0  0  0
  161.6330  207.3970  153.3510 C   0  0  0  0  0  0  0  0  0  0  0  0
  160.3290  206.5450  148.6480 C   0  0  0  0  0  2  0  0  0  0  0  0
  162.3690  205.6960  149.9170 C   0  0  1  0  0  3  0  0  0  0  0  0
  161.6650  204.9810  151.0070 C   0  0  0  0  0  0  0  0  0  0  0  0
  160.7800  205.7030  151.6010 N   0  0  0  0  0  0  0  0  0  0  0  0
  161.5520  204.5630  147.7490 C   0  0  2  0  0  3  0  0  0  0  0  0
  162.7200  204.8240  148.7020 C   0  0  0  0  0  2  0  0  0  0  0  0
  160.7350  207.0370  151.0240 C   0  0  2  0  0  3  0  0  0  0  0  0
  161.4490  206.9090  149.6560 C   0  0  2  0  0  0  0  0  0  0  0  0
  160.8570  205.8680  147.3930 C   0  0  0  0  0  2  0  0  0  0  0  0
  160.5610  203.5400  148.3060 C   0  0  0  0  0  2  0  0  0  0  0  0
  161.1490  202.1440  148.2370 C   0  0  0  0  0  1  0  0  0  0  0  0
  161.9430  203.6630  151.3840 O   0  0  0  0  0  0  0  0  0  0  0  0
  160.9670  202.8410  151.9940 C   0  0  0  0  0  1  0  0  0  0  0  0
  162.2460  208.0460  149.3360 O   0  0  0  0  0  0  0  0  0  0  0  0
  161.6800  208.8400  148.3190 C   0  0  0  0  0  2  0  0  0  0  0  0
  162.1530  210.2790  148.4450 C   0  0  0  0  0  1  0  0  0  0  0  0
  159.0670  210.8800  153.6780 C   0  0  0  0  0  2  0  0  0  0  0  0
  159.9480  212.0950  153.4370 C   0  0  2  0  0  3  0  0  0  0  0  0
  159.0990  213.9150  156.5090 O   0  0  0  0  0  0  0  0  0  0  0  0
  160.0390  212.8770  154.6570 N   0  0  0  0  0  2  0  0  0  0  0  0
  158.9050  213.3410  155.4070 C   0  0  0  0  0  0  0  0  0  0  0  0
  157.4930  213.1800  154.9290 C   0  0  2  0  0  3  0  0  0  0  0  0
  156.8620  214.3990  154.7830 F   0  0  0  0  0  0  0  0  0  0  0  0
  156.0300  210.7120  155.0070 O   0  0  0  0  0  0  0  0  0  0  0  0
  156.5200  212.0310  155.9480 P   0  0  0  0  0  0  0  0  0  0  0  0
  155.2940  212.7370  156.4810 O   0  0  0  0  0  1  0  0  0  0  0  0
  157.4320  211.4700  157.2520 O   0  0  0  0  0  1  0  0  0  0  0  0
  160.0600  214.0730  151.9200 O   0  0  0  0  0  1  0  0  0  0  0  0
  158.3500  212.5620  151.7150 O   0  0  0  0  0  0  0  0  0  0  0  0
  159.3940  212.9200  152.3210 C   0  0  0  0  0  0  0  0  0  0  0  0
  1  4  1  0  0  0  0
  2 12  2  0  0  0  0
  3  7  1  0  0  0  0
  4 29  1  0  0  0  0
  4  6  1  0  0  0  0
  5  1  2  0  0  0  0
  6 11  1  0  0  0  0
  8  3  2  0  0  0  0
  9  1  1  1  0  0  0
  9 12  1  0  0  0  0
 10  6  2  0  0  0  0
 10  8  1  0  0  0  0
 11  7  2  0  0  0  0
 12 10  1  0  0  0  0
 13 20  1  0  0  0  0
 14 18  1  6  0  0  0
 14 15  1  0  0  0  0
 15 24  1  0  0  0  0
 15 16  2  0  0  0  0
 17 22  1  1  0  0  0
 17 18  1  0  0  0  0
 19 16  1  1  0  0  0
 19  9  1  0  0  0  0
 20 26  1  6  0  0  0
 20 14  1  0  0  0  0
 20 19  1  0  0  0  0
 21 17  1  0  0  0  0
 21 13  1  0  0  0  0
 23 22  1  0  0  0  0
 24 25  1  0  0  0  0
 27 28  1  0  0  0  0
 27 26  1  0  0  0  0
 30 29  1  1  0  0  0
 30 32  1  0  0  0  0
 32 33  1  0  0  0  0
 33 31  2  0  0  0  0
 34 35  1  1  0  0  0
 34 33  1  0  0  0  0
 34 37  1  0  0  0  0
 36 37  2  0  0  0  0
 37 38  1  0  0  0  0
 37 39  1  0  0  0  0
 40 42  1  0  0  0  0
 41 42  2  0  0  0  0
 42 30  1  0  0  0  0
M  END
>  <MODEL>
5

>  <REMARK>
 VINA RESULT:      -3.3      3.585      9.440
  Name = 
  11 active torsions:
  status: ('A' for Active; 'I' for Inactive)
    1  A    between atoms: C_4  and  C_31
    2  A    between atoms: C_5  and  O_18
    3  A    between atoms: N_9  and  C_22
    4  A    between atoms: P_10  and  C_11
    5  A    between atoms: C_11  and  C_40
    6  A    between atoms: C_14  and  O_21
    7  A    between atoms: CA_15  and  C_22
    8  A    between atoms: CA_15  and  N_25
    9  A    between atoms: CA_15  and  C_42
   10  A    between atoms: O_18  and  C_38
   11  A    between atoms: C_28  and  C_35
                            x       y       z     vdW  Elec       q    Type
                         _______ _______ _______ _____ _____    ______ ____

>  <TORSDO>
F 11

$$$$
=
 OpenBabel11072411233D

 42 45  0  0  1  0  0  0  0  0999 V2000
  161.5680  210.7240  152.5130 C   0  0  0  0  0  0  0  0  0  0  0  0
  159.8750  213.8540  151.6290 O   0  0  0  0  0  0  0  0  0  0  0  0
  160.8250  212.5480  147.7550 C   0  0  0  0  0  3  0  0  0  0  0  0
  161.9970  210.3340  151.1920 N   0  0  0  0  0  0  0  0  0  0  0  0
  162.0030  210.1160  153.5250 O   0  0  0  0  0  0  0  0  0  0  0  0
  161.5880  211.0810  150.0280 C   0  0  0  0  0  0  0  0  0  0  0  0
  161.5750  211.3830  147.6110 C   0  0  0  0  0  3  0  0  0  0  0  0
  160.4500  212.9810  149.0250 C   0  0  0  0  0  3  0  0  0  0  0  0
  160.6080  211.8630  152.7050 C   0  0  1  0  0  3  0  0  0  0  0  0
  160.8190  212.2510  150.1630 C   0  0  0  0  0  0  0  0  0  0  0  0
  161.9530  210.6540  148.7410 C   0  0  0  0  0  3  0  0  0  0  0  0
  160.4050  212.7200  151.4940 C   0  0  0  0  0  0  0  0  0  0  0  0
  158.1680  210.7760  155.4810 C   0  0  0  0  0  2  0  0  0  0  0  0
  158.4030  213.2460  154.8990 C   0  0  1  0  0  3  0  0  0  0  0  0
  157.7370  213.2200  153.5750 C   0  0  0  0  0  0  0  0  0  0  0  0
  158.2060  212.3170  152.7870 N   0  0  0  0  0  0  0  0  0  0  0  0
  156.6110  212.4060  156.5530 C   0  0  2  0  0  3  0  0  0  0  0  0
  157.4720  213.5760  156.0760 C   0  0  0  0  0  2  0  0  0  0  0  0
  159.2760  211.5760  153.4350 C   0  0  2  0  0  3  0  0  0  0  0  0
  159.1180  211.8780  154.9460 C   0  0  2  0  0  0  0  0  0  0  0  0
  157.4690  211.1700  156.7730 C   0  0  0  0  0  2  0  0  0  0  0  0
  155.4480  212.1120  155.6040 C   0  0  0  0  0  2  0  0  0  0  0  0
  155.1850  210.6200  155.5380 C   0  0  0  0  0  1  0  0  0  0  0  0
  156.7220  214.1030  153.1940 O   0  0  0  0  0  0  0  0  0  0  0  0
  156.0930  214.0150  151.9310 C   0  0  0  0  0  1  0  0  0  0  0  0
  160.3660  212.0210  155.6180 O   0  0  0  0  0  0  0  0  0  0  0  0
  160.6210  210.9720  156.5240 C   0  0  0  0  0  2  0  0  0  0  0  0
  162.0670  211.0150  156.9910 C   0  0  0  0  0  1  0  0  0  0  0  0
  162.9260  209.2170  151.0440 C   0  0  0  0  0  2  0  0  0  0  0  0
  162.1590  207.9220  150.8380 C   0  0  2  0  0  3  0  0  0  0  0  0
  160.4760  207.0430  147.6970 O   0  0  0  0  0  0  0  0  0  0  0  0
  161.4030  207.9970  149.6000 N   0  0  0  0  0  2  0  0  0  0  0  0
  161.2440  206.9020  148.6830 C   0  0  0  0  0  0  0  0  0  0  0  0
  161.9630  205.5970  148.8420 C   0  0  2  0  0  3  0  0  0  0  0  0
  162.2980  205.0470  147.6200 F   0  0  0  0  0  0  0  0  0  0  0  0
  160.8000  202.9800  149.0370 O   0  0  0  0  0  0  0  0  0  0  0  0
  161.0720  204.4130  149.8950 P   0  0  0  0  0  0  0  0  0  0  0  0
  159.7400  205.0000  150.3050 O   0  0  0  0  0  1  0  0  0  0  0  0
  161.9620  204.0630  151.2860 O   0  0  0  0  0  1  0  0  0  0  0  0
  161.7100  206.9420  153.0890 O   0  0  0  0  0  1  0  0  0  0  0  0
  160.0840  208.1440  152.0130 O   0  0  0  0  0  0  0  0  0  0  0  0
  161.2500  207.6700  151.9980 C   0  0  0  0  0  0  0  0  0  0  0  0
  1  9  1  0  0  0  0
  1  5  2  0  0  0  0
  3  8  1  0  0  0  0
  4  1  1  0  0  0  0
  6 10  1  0  0  0  0
  6  4  1  0  0  0  0
  7  3  2  0  0  0  0
  7 11  1  0  0  0  0
  8 10  2  0  0  0  0
  9 12  1  6  0  0  0
  9 19  1  0  0  0  0
 10 12  1  0  0  0  0
 11  6  2  0  0  0  0
 12  2  2  0  0  0  0
 13 21  1  0  0  0  0
 14 20  1  0  0  0  0
 14 18  1  1  0  0  0
 15 14  1  0  0  0  0
 16 15  2  0  0  0  0
 17 22  1  6  0  0  0
 17 21  1  0  0  0  0
 18 17  1  0  0  0  0
 19 16  1  6  0  0  0
 19 20  1  0  0  0  0
 20 13  1  0  0  0  0
 20 26  1  1  0  0  0
 23 22  1  0  0  0  0
 24 15  1  0  0  0  0
 25 24  1  0  0  0  0
 26 27  1  0  0  0  0
 27 28  1  0  0  0  0
 29  4  1  0  0  0  0
 30 29  1  1  0  0  0
 30 42  1  0  0  0  0
 31 33  2  0  0  0  0
 32 30  1  0  0  0  0
 33 34  1  0  0  0  0
 33 32  1  0  0  0  0
 34 35  1  6  0  0  0
 34 37  1  0  0  0  0
 36 37  2  0  0  0  0
 37 38  1  0  0  0  0
 37 39  1  0  0  0  0
 42 41  2  0  0  0  0
 42 40  1  0  0  0  0
M  END
>  <MODEL>
6

>  <REMARK>
 VINA RESULT:      -2.8      2.113      3.309
  Name = 
  11 active torsions:
  status: ('A' for Active; 'I' for Inactive)
    1  A    between atoms: C_4  and  C_31
    2  A    between atoms: C_5  and  O_18
    3  A    between atoms: N_9  and  C_22
    4  A    between atoms: P_10  and  C_11
    5  A    between atoms: C_11  and  C_40
    6  A    between atoms: C_14  and  O_21
    7  A    between atoms: CA_15  and  C_22
    8  A    between atoms: CA_15  and  N_25
    9  A    between atoms: CA_15  and  C_42
   10  A    between atoms: O_18  and  C_38
   11  A    between atoms: C_28  and  C_35
                            x       y       z     vdW  Elec       q    Type
                         _______ _______ _______ _____ _____    ______ ____

>  <TORSDO>
F 11

$$$$
=
 OpenBabel11072411233D

 42 45  0  0  1  0  0  0  0  0999 V2000
  161.6100  208.9010  152.3610 C   0  0  0  0  0  0  0  0  0  0  0  0
  161.7910  205.7520  154.2300 O   0  0  0  0  0  0  0  0  0  0  0  0
  160.0510  208.1400  157.2100 C   0  0  0  0  0  3  0  0  0  0  0  0
  161.1220  209.7490  153.4210 N   0  0  0  0  0  0  0  0  0  0  0  0
  162.0130  209.4050  151.2810 O   0  0  0  0  0  0  0  0  0  0  0  0
  160.7490  209.1970  154.7010 C   0  0  0  0  0  0  0  0  0  0  0  0
  159.8630  209.4970  156.9500 C   0  0  0  0  0  3  0  0  0  0  0  0
  160.5800  207.3100  156.2230 C   0  0  0  0  0  3  0  0  0  0  0  0
  161.6550  207.4090  152.5290 C   0  0  1  0  0  3  0  0  0  0  0  0
  160.9220  207.8270  154.9670 C   0  0  0  0  0  0  0  0  0  0  0  0
  160.2100  210.0210  155.7030 C   0  0  0  0  0  3  0  0  0  0  0  0
  161.4690  206.9330  153.9360 C   0  0  0  0  0  0  0  0  0  0  0  0
  160.3020  206.1040  149.1660 C   0  0  0  0  0  2  0  0  0  0  0  0
  162.0040  204.7230  150.4670 C   0  0  1  0  0  3  0  0  0  0  0  0
  161.1290  204.2990  151.5850 C   0  0  0  0  0  0  0  0  0  0  0  0
  160.5150  205.2790  152.1500 N   0  0  0  0  0  0  0  0  0  0  0  0
  160.8520  203.8110  148.3470 C   0  0  2  0  0  3  0  0  0  0  0  0
  162.0570  203.7400  149.2870 C   0  0  0  0  0  2  0  0  0  0  0  0
  160.8710  206.5400  151.5200 C   0  0  2  0  0  3  0  0  0  0  0  0
  161.4930  206.1480  150.1580 C   0  0  2  0  0  0  0  0  0  0  0  0
  160.5820  205.2510  147.9390 C   0  0  0  0  0  2  0  0  0  0  0  0
  159.6040  203.1610  148.9460 C   0  0  0  0  0  2  0  0  0  0  0  0
  159.7730  201.6560  149.0130 C   0  0  0  0  0  1  0  0  0  0  0  0
  160.9980  202.9750  152.0150 O   0  0  0  0  0  0  0  0  0  0  0  0
  162.0710  202.0560  151.9360 C   0  0  0  0  0  1  0  0  0  0  0  0
  162.5940  206.9740  149.7910 O   0  0  0  0  0  0  0  0  0  0  0  0
  162.5630  207.3540  148.4340 C   0  0  0  0  0  2  0  0  0  0  0  0
  162.2630  208.8380  148.3060 C   0  0  0  0  0  1  0  0  0  0  0  0
  161.0850  211.1940  153.2190 C   0  0  0  0  0  2  0  0  0  0  0  0
  159.9000  211.5720  152.3460 C   0  0  2  0  0  3  0  0  0  0  0  0
  160.4530  214.4500  150.1350 O   0  0  0  0  0  0  0  0  0  0  0  0
  160.0780  212.9240  151.8450 N   0  0  0  0  0  2  0  0  0  0  0  0
  160.4350  213.2430  150.4900 C   0  0  0  0  0  0  0  0  0  0  0  0
  160.7980  212.1990  149.4780 C   0  0  2  0  0  3  0  0  0  0  0  0
  162.0780  211.7200  149.6760 F   0  0  0  0  0  0  0  0  0  0  0  0
  161.8080  213.7590  147.2900 O   0  0  0  0  0  1  0  0  0  0  0  0
  160.5380  212.7450  147.7630 P   0  0  0  0  0  0  0  0  0  0  0  0
  159.2370  213.5080  147.6650 O   0  0  0  0  0  1  0  0  0  0  0  0
  160.4710  211.4210  146.7190 O   0  0  0  0  0  0  0  0  0  0  0  0
  158.5150  212.1070  154.3520 O   0  0  0  0  0  1  0  0  0  0  0  0
  157.6480  210.8220  152.6660 O   0  0  0  0  0  0  0  0  0  0  0  0
  158.6290  211.4610  153.1260 C   0  0  0  0  0  0  0  0  0  0  0  0
  1  4  1  0  0  0  0
  4  6  1  0  0  0  0
  5  1  2  0  0  0  0
  6 10  2  0  0  0  0
  6 11  1  0  0  0  0
  7  3  1  0  0  0  0
  8  3  2  0  0  0  0
  9  1  1  1  0  0  0
  9 12  1  0  0  0  0
 10  8  1  0  0  0  0
 11  7  2  0  0  0  0
 12  2  2  0  0  0  0
 12 10  1  0  0  0  0
 13 20  1  0  0  0  0
 14 18  1  6  0  0  0
 14 15  1  0  0  0  0
 15 24  1  0  0  0  0
 15 16  2  0  0  0  0
 17 22  1  1  0  0  0
 17 18  1  0  0  0  0
 19 16  1  1  0  0  0
 19  9  1  0  0  0  0
 20 26  1  6  0  0  0
 20 14  1  0  0  0  0
 20 19  1  0  0  0  0
 21 17  1  0  0  0  0
 21 13  1  0  0  0  0
 22 23  1  0  0  0  0
 25 24  1  0  0  0  0
 27 26  1  0  0  0  0
 28 27  1  0  0  0  0
 29  4  1  0  0  0  0
 30 42  1  0  0  0  0
 30 29  1  1  0  0  0
 31 33  2  0  0  0  0
 32 30  1  0  0  0  0
 33 32  1  0  0  0  0
 34 35  1  6  0  0  0
 34 33  1  0  0  0  0
 36 37  1  0  0  0  0
 37 34  1  0  0  0  0
 38 37  1  0  0  0  0
 39 37  2  0  0  0  0
 41 42  2  0  0  0  0
 42 40  1  0  0  0  0
M  END
>  <MODEL>
7

>  <REMARK>
 VINA RESULT:      -2.7      2.977      8.315
  Name = 
  11 active torsions:
  status: ('A' for Active; 'I' for Inactive)
    1  A    between atoms: C_4  and  C_31
    2  A    between atoms: C_5  and  O_18
    3  A    between atoms: N_9  and  C_22
    4  A    between atoms: P_10  and  C_11
    5  A    between atoms: C_11  and  C_40
    6  A    between atoms: C_14  and  O_21
    7  A    between atoms: CA_15  and  C_22
    8  A    between atoms: CA_15  and  N_25
    9  A    between atoms: CA_15  and  C_42
   10  A    between atoms: O_18  and  C_38
   11  A    between atoms: C_28  and  C_35
                            x       y       z     vdW  Elec       q    Type
                         _______ _______ _______ _____ _____    ______ ____

>  <TORSDO>
F 11

$$$$
=
 OpenBabel11072411233D

 42 45  0  0  1  0  0  0  0  0999 V2000
  161.3760  210.7200  150.4750 C   0  0  0  0  0  0  0  0  0  0  0  0
  160.0610  207.5580  151.7840 O   0  0  0  0  0  0  0  0  0  0  0  0
  162.0820  206.0460  148.4310 C   0  0  0  0  0  3  0  0  0  0  0  0
  161.9700  210.2160  149.2610 N   0  0  0  0  0  0  0  0  0  0  0  0
  161.2650  211.9600  150.6580 O   0  0  0  0  0  0  0  0  0  0  0  0
  162.0160  208.8000  148.9890 C   0  0  0  0  0  0  0  0  0  0  0  0
  162.6910  206.9470  147.5590 C   0  0  0  0  0  3  0  0  0  0  0  0
  161.4460  206.5120  149.5810 C   0  0  0  0  0  3  0  0  0  0  0  0
  160.8720  209.7800  151.5320 C   0  0  1  0  0  3  0  0  0  0  0  0
  161.4170  207.8830  149.8710 C   0  0  0  0  0  0  0  0  0  0  0  0
  162.6580  208.3150  147.8380 C   0  0  0  0  0  3  0  0  0  0  0  0
  160.7490  208.3540  151.0930 C   0  0  0  0  0  0  0  0  0  0  0  0
  161.6270  211.1920  155.0360 C   0  0  0  0  0  2  0  0  0  0  0  0
  160.1800  209.1080  154.7970 C   0  0  1  0  0  3  0  0  0  0  0  0
  161.2370  208.1580  154.3740 C   0  0  0  0  0  0  0  0  0  0  0  0
  161.9370  208.5850  153.3820 N   0  0  0  0  0  0  0  0  0  0  0  0
  160.9510  209.9660  157.1040 C   0  0  2  0  0  3  0  0  0  0  0  0
  159.9270  209.1500  156.3120 C   0  0  0  0  0  2  0  0  0  0  0  0
  161.4730  209.8940  152.9520 C   0  0  2  0  0  3  0  0  0  0  0  0
  160.6250  210.4290  154.1320 C   0  0  2  0  0  0  0  0  0  0  0  0
  161.1420  211.3350  156.4700 C   0  0  0  0  0  2  0  0  0  0  0  0
  162.2860  209.2360  157.2590 C   0  0  0  0  0  2  0  0  0  0  0  0
  163.4350  210.2250  157.2280 C   0  0  0  0  0  1  0  0  0  0  0  0
  161.4440  206.9070  154.9650 O   0  0  0  0  0  0  0  0  0  0  0  0
  161.0450  205.7080  154.3300 C   0  0  0  0  0  1  0  0  0  0  0  0
  159.4750  211.1540  153.7070 O   0  0  0  0  0  0  0  0  0  0  0  0
  159.7660  212.4910  153.3720 C   0  0  0  0  0  2  0  0  0  0  0  0
  158.5520  213.1570  152.7460 C   0  0  0  0  0  1  0  0  0  0  0  0
  162.4560  211.1600  148.2580 C   0  0  0  0  0  2  0  0  0  0  0  0
  161.5130  212.3480  148.1560 C   0  0  2  0  0  3  0  0  0  0  0  0
  158.4240  212.4980  146.1790 O   0  0  0  0  0  0  0  0  0  0  0  0
  160.4640  212.0540  147.1950 N   0  0  0  0  0  2  0  0  0  0  0  0
  159.2150  212.7600  147.1210 C   0  0  0  0  0  0  0  0  0  0  0  0
  158.8050  213.7940  148.1260 C   0  0  2  0  0  3  0  0  0  0  0  0
  159.6650  213.8260  149.2050 F   0  0  0  0  0  0  0  0  0  0  0  0
  156.8760  214.3070  150.1890 O   0  0  0  0  0  1  0  0  0  0  0  0
  157.0700  213.6350  148.6470 P   0  0  0  0  0  0  0  0  0  0  0  0
  156.6860  212.1740  148.6950 O   0  0  0  0  0  1  0  0  0  0  0  0
  156.0470  214.4300  147.5660 O   0  0  0  0  0  0  0  0  0  0  0  0
  162.4120  213.8830  146.4050 O   0  0  0  0  0  0  0  0  0  0  0  0
  162.7450  214.3480  148.6240 O   0  0  0  0  0  1  0  0  0  0  0  0
  162.2690  213.5730  147.7530 C   0  0  0  0  0  0  0  0  0  0  0  0
  1  5  2  0  0  0  0
  3  8  1  0  0  0  0
  4  1  1  0  0  0  0
  6  4  1  0  0  0  0
  6 10  1  0  0  0  0
  7 11  1  0  0  0  0
  7  3  2  0  0  0  0
  8 10  2  0  0  0  0
  9  1  1  6  0  0  0
  9 19  1  0  0  0  0
 10 12  1  0  0  0  0
 11  6  2  0  0  0  0
 12  9  1  0  0  0  0
 12  2  2  0  0  0  0
 13 21  1  0  0  0  0
 14 18  1  1  0  0  0
 15 14  1  0  0  0  0
 15 24  1  0  0  0  0
 16 15  2  0  0  0  0
 17 22  1  6  0  0  0
 18 17  1  0  0  0  0
 19 16  1  1  0  0  0
 19 20  1  0  0  0  0
 20 26  1  6  0  0  0
 20 14  1  0  0  0  0
 20 13  1  0  0  0  0
 21 17  1  0  0  0  0
 23 22  1  0  0  0  0
 25 24  1  0  0  0  0
 27 26  1  0  0  0  0
 28 27  1  0  0  0  0
 29  4  1  0  0  0  0
 30 29  1  6  0  0  0
 31 33  2  0  0  0  0
 32 30  1  0  0  0  0
 33 32  1  0  0  0  0
 33 34  1  0  0  0  0
 34 37  1  0  0  0  0
 34 35  1  1  0  0  0
 37 38  1  0  0  0  0
 37 36  1  0  0  0  0
 39 37  2  0  0  0  0
 40 42  2  0  0  0  0
 42 30  1  0  0  0  0
 42 41  1  0  0  0  0
M  END
>  <MODEL>
8

>  <REMARK>
 VINA RESULT:      -2.6      3.812      6.669
  Name = 
  11 active torsions:
  status: ('A' for Active; 'I' for Inactive)
    1  A    between atoms: C_4  and  C_31
    2  A    between atoms: C_5  and  O_18
    3  A    between atoms: N_9  and  C_22
    4  A    between atoms: P_10  and  C_11
    5  A    between atoms: C_11  and  C_40
    6  A    between atoms: C_14  and  O_21
    7  A    between atoms: CA_15  and  C_22
    8  A    between atoms: CA_15  and  N_25
    9  A    between atoms: CA_15  and  C_42
   10  A    between atoms: O_18  and  C_38
   11  A    between atoms: C_28  and  C_35
                            x       y       z     vdW  Elec       q    Type
                         _______ _______ _______ _____ _____    ______ ____

>  <TORSDO>
F 11

$$$$
=
 OpenBabel11072411233D

 42 45  0  0  1  0  0  0  0  0999 V2000
  161.4800  207.6730  149.7900 C   0  0  0  0  0  0  0  0  0  0  0  0
  162.2540  204.3270  151.0730 O   0  0  0  0  0  0  0  0  0  0  0  0
  160.7390  206.0090  154.6070 C   0  0  0  0  0  3  0  0  0  0  0  0
  161.0700  208.2870  151.0290 N   0  0  0  0  0  0  0  0  0  0  0  0
  161.6660  208.3800  148.7650 O   0  0  0  0  0  0  0  0  0  0  0  0
  160.9480  207.5080  152.2380 C   0  0  0  0  0  0  0  0  0  0  0  0
  160.3780  207.3550  154.6020 C   0  0  0  0  0  3  0  0  0  0  0  0
  161.1980  205.4080  153.4360 C   0  0  0  0  0  3  0  0  0  0  0  0
  161.7010  206.1910  149.7010 C   0  0  1  0  0  3  0  0  0  0  0  0
  161.2970  206.1460  152.2490 C   0  0  0  0  0  0  0  0  0  0  0  0
  160.4820  208.0990  153.4240 C   0  0  0  0  0  3  0  0  0  0  0  0
  161.7740  205.4900  151.0220 C   0  0  0  0  0  0  0  0  0  0  0  0
  160.1360  205.1590  146.3360 C   0  0  0  0  0  2  0  0  0  0  0  0
  161.9730  203.7270  147.3680 C   0  0  1  0  0  3  0  0  0  0  0  0
  161.2000  203.1660  148.5010 C   0  0  0  0  0  0  0  0  0  0  0  0
  160.6010  204.0640  149.2020 N   0  0  0  0  0  0  0  0  0  0  0  0
  160.6910  202.9770  145.2590 C   0  0  2  0  0  3  0  0  0  0  0  0
  161.9660  202.8630  146.0980 C   0  0  0  0  0  2  0  0  0  0  0  0
  160.8690  205.3920  148.6720 C   0  0  2  0  0  3  0  0  0  0  0  0
  161.3970  205.1540  147.2370 C   0  0  2  0  0  0  0  0  0  0  0  0
  160.3470  204.4370  145.0140 C   0  0  0  0  0  2  0  0  0  0  0  0
  159.5130  202.2260  145.8820 C   0  0  0  0  0  2  0  0  0  0  0  0
  159.3310  200.8790  145.2100 C   0  0  0  0  0  1  0  0  0  0  0  0
  161.1430  201.8030  148.8080 O   0  0  0  0  0  0  0  0  0  0  0  0
  160.8730  201.3450  150.1180 C   0  0  0  0  0  1  0  0  0  0  0  0
  162.4410  206.0530  146.8720 O   0  0  0  0  0  0  0  0  0  0  0  0
  163.3880  205.4680  146.0090 C   0  0  0  0  0  2  0  0  0  0  0  0
  163.0800  205.8260  144.5640 C   0  0  0  0  0  1  0  0  0  0  0  0
  160.8570  209.7300  151.0760 C   0  0  0  0  0  2  0  0  0  0  0  0
  160.9500  210.2290  152.5080 C   0  0  2  0  0  3  0  0  0  0  0  0
  158.9450  213.0400  153.7530 O   0  0  0  0  0  0  0  0  0  0  0  0
  160.2740  211.5100  152.6200 N   0  0  0  0  0  2  0  0  0  0  0  0
  159.3880  211.8650  153.6940 C   0  0  0  0  0  0  0  0  0  0  0  0
  158.9580  210.8900  154.7490 C   0  0  2  0  0  3  0  0  0  0  0  0
  157.5880  210.7130  154.7510 F   0  0  0  0  0  0  0  0  0  0  0  0
  158.4150  212.1690  157.2610 O   0  0  0  0  0  1  0  0  0  0  0  0
  159.5890  211.3010  156.4030 P   0  0  0  0  0  0  0  0  0  0  0  0
  160.8330  212.1510  156.2760 O   0  0  0  0  0  0  0  0  0  0  0  0
  159.9750  209.9000  157.2610 O   0  0  0  0  0  1  0  0  0  0  0  0
  162.7040  210.4420  154.2700 O   0  0  0  0  0  1  0  0  0  0  0  0
  163.3010  210.3280  152.0600 O   0  0  0  0  0  0  0  0  0  0  0  0
  162.3810  210.3490  152.9200 C   0  0  0  0  0  0  0  0  0  0  0  0
  1  4  1  0  0  0  0
  4 29  1  0  0  0  0
  4  6  1  0  0  0  0
  5  1  2  0  0  0  0
  6 10  2  0  0  0  0
  6 11  1  0  0  0  0
  7  3  1  0  0  0  0
  8  3  2  0  0  0  0
  9  1  1  1  0  0  0
  9 12  1  0  0  0  0
 10  8  1  0  0  0  0
 11  7  2  0  0  0  0
 12  2  2  0  0  0  0
 12 10  1  0  0  0  0
 13 20  1  0  0  0  0
 14 18  1  6  0  0  0
 14 15  1  0  0  0  0
 15 24  1  0  0  0  0
 15 16  2  0  0  0  0
 17 22  1  1  0  0  0
 17 18  1  0  0  0  0
 19 16  1  1  0  0  0
 19  9  1  0  0  0  0
 20 26  1  6  0  0  0
 20 14  1  0  0  0  0
 20 19  1  0  0  0  0
 21 17  1  0  0  0  0
 21 13  1  0  0  0  0
 23 22  1  0  0  0  0
 24 25  1  0  0  0  0
 27 26  1  0  0  0  0
 28 27  1  0  0  0  0
 30 29  1  6  0  0  0
 30 32  1  0  0  0  0
 30 42  1  0  0  0  0
 32 33  1  0  0  0  0
 33 31  2  0  0  0  0
 33 34  1  0  0  0  0
 34 35  1  1  0  0  0
 34 37  1  0  0  0  0
 37 36  1  0  0  0  0
 37 39  1  0  0  0  0
 38 37  2  0  0  0  0
 41 42  2  0  0  0  0
 42 40  1  0  0  0  0
M  END
>  <MODEL>
9

>  <REMARK>
 VINA RESULT:      -2.5      3.220      9.836
  Name = 
  11 active torsions:
  status: ('A' for Active; 'I' for Inactive)
    1  A    between atoms: C_4  and  C_31
    2  A    between atoms: C_5  and  O_18
    3  A    between atoms: N_9  and  C_22
    4  A    between atoms: P_10  and  C_11
    5  A    between atoms: C_11  and  C_40
    6  A    between atoms: C_14  and  O_21
    7  A    between atoms: CA_15  and  C_22
    8  A    between atoms: CA_15  and  N_25
    9  A    between atoms: CA_15  and  C_42
   10  A    between atoms: O_18  and  C_38
   11  A    between atoms: C_28  and  C_35
                            x       y       z     vdW  Elec       q    Type
                         _______ _______ _______ _____ _____    ______ ____

>  <TORSDO>
F 11

$$$$
