=
 OpenBabel11072414283D

 47 53  0  0  1  0  0  0  0  0999 V2000
  158.4910  214.1290  153.3030 C   0  0  0  0  0  2  0  0  0  0  0  0
  161.9210  205.8510  151.9000 C   0  0  2  0  0  3  0  0  0  0  0  0
  161.5880  207.8690  150.9770 C   0  0  2  0  0  3  0  0  0  0  0  0
  160.8110  212.9750  149.7610 C   0  0  0  0  0  0  0  0  0  0  0  0
  157.6220  213.0780  155.4830 C   0  0  2  0  0  0  0  0  0  0  0  0
  162.5530  207.0910  151.6640 O   0  0  0  0  0  0  0  0  0  0  0  0
  160.6680  205.7630  151.0710 C   0  0  0  0  0  2  0  0  0  0  0  0
  160.3470  209.5270  155.5330 C   0  0  0  0  0  2  0  0  0  0  0  0
  156.2650  212.5570  155.9570 C   0  0  0  0  0  2  0  0  0  0  0  0
  161.8940  212.2800  149.5880 C   0  0  0  0  0  0  0  0  0  0  0  0
  157.7630  214.4520  156.1230 C   0  0  0  0  0  1  0  0  0  0  0  0
  160.3650  213.8760  148.7900 O   0  0  0  0  0  1  0  0  0  0  0  0
  157.8580  211.7220  153.6120 C   0  0  0  0  0  0  0  0  0  0  0  0
  159.5210  209.9720  154.3200 C   0  0  0  0  0  2  0  0  0  0  0  0
  159.8340  207.3040  153.6210 O   0  0  0  0  0  1  0  0  0  0  0  0
  162.4870  210.2720  150.7810 C   0  0  1  0  0  3  0  0  0  0  0  0
  158.2980  214.3550  151.7930 C   0  0  0  0  0  2  0  0  0  0  0  0
  160.0360  212.6360  151.0210 C   0  0  2  0  0  3  0  0  0  0  0  0
  156.0350  213.4590  153.6790 C   0  0  0  0  0  2  0  0  0  0  0  0
  161.4290  210.6550  151.8510 C   0  0  0  0  0  2  0  0  0  0  0  0
  155.2540  212.9350  154.8750 C   0  0  0  0  0  2  0  0  0  0  0  0
  157.4960  213.1390  153.9670 C   0  0  2  0  0  0  0  0  0  0  0  0
  160.0580  211.1230  151.2900 C   0  0  0  0  0  2  0  0  0  0  0  0
  161.9870  207.8460  154.5430 C   0  0  0  0  0  3  0  0  0  0  0  0
  160.5500  207.0230  150.3650 N   0  0  2  0  0  0  0  0  0  0  0  0
  158.7430  212.0310  155.7900 C   0  0  1  0  0  3  0  0  0  0  0  0
  162.1920  208.9420  150.0530 C   0  0  0  0  0  2  0  0  0  0  0  0
  161.7130  209.0410  155.1280 C   0  0  0  0  0  3  0  0  0  0  0  0
  157.1890  211.0430  152.7920 O   0  0  0  0  0  0  0  0  0  0  0  0
  158.5790  213.1130  150.9410 C   0  0  0  0  0  2  0  0  0  0  0  0
  161.5870  205.6660  153.3630 C   0  0  0  0  0  0  0  0  0  0  0  0
  162.7970  211.3590  149.7720 C   0  0  0  0  0  3  0  0  0  0  0  0
  161.6820  204.5340  153.8350 O   0  0  0  0  0  0  0  0  0  0  0  0
  160.9930  206.7740  154.2070 C   0  0  2  0  0  3  0  0  0  0  0  0
  158.6950  211.1460  154.6020 N   0  0  0  0  0  0  0  0  0  0  0  0
  162.1090  204.4690  146.5530 C   0  0  2  0  0  3  0  0  0  0  0  0
  161.7340  205.8560  148.3770 C   0  0  1  0  0  3  0  0  0  0  0  0
  161.5890  203.9370  145.2100 C   0  0  0  0  0  1  0  0  0  0  0  0
  160.6980  206.8990  148.8830 C   0  0  1  0  0  3  0  0  0  0  0  0
  159.9730  205.6340  146.8360 C   0  0  0  0  0  2  0  0  0  0  0  0
  161.0620  204.9010  147.4930 N   0  0  1  0  0  0  0  0  0  0  0  0
  159.0710  206.6070  148.0920 S   0  0  0  0  0  0  0  0  0  0  0  0
  163.1600  205.5660  146.4070 C   0  0  0  0  0  2  0  0  0  0  0  0
  162.9400  206.4550  147.6330 C   0  0  0  0  0  2  0  0  0  0  0  0
  160.8760  212.0950  157.0760 F   0  0  0  0  0  0  0  0  0  0  0  0
  160.9330  212.3780  154.8380 F   0  0  0  0  0  0  0  0  0  0  0  0
  160.1910  212.6050  155.9880 C   0  0  0  0  0  3  0  0  0  0  0  0
  2  7  1  6  0  0  0
  2 31  1  0  0  0  0
  3 27  1  6  0  0  0
  3  6  1  0  0  0  0
  4 18  1  0  0  0  0
  5 26  1  0  0  0  0
  5  9  1  0  0  0  0
  5 11  1  1  0  0  0
  6  2  1  0  0  0  0
 10  4  2  0  0  0  0
 10 32  2  0  0  0  0
 12  4  1  0  0  0  0
 13 22  1  0  0  0  0
 13 35  1  0  0  0  0
 14 35  1  0  0  0  0
 14  8  1  0  0  0  0
 16 32  1  6  0  0  0
 16 20  1  0  0  0  0
 17  1  1  0  0  0  0
 18 30  1  6  0  0  0
 18 23  1  0  0  0  0
 19 22  1  0  0  0  0
 19 21  1  0  0  0  0
 21  9  1  0  0  0  0
 22  1  1  6  0  0  0
 22  5  1  0  0  0  0
 23 20  1  0  0  0  0
 24 28  2  0  0  0  0
 25  3  1  0  0  0  0
 25  7  1  1  0  0  0
 26 47  1  6  0  0  0
 27 16  1  0  0  0  0
 28  8  1  0  0  0  0
 29 13  2  0  0  0  0
 30 17  1  0  0  0  0
 31 33  2  0  0  0  0
 31 34  1  0  0  0  0
 34 15  1  6  0  0  0
 34 24  1  0  0  0  0
 35 26  1  0  0  0  0
 36 38  1  6  0  0  0
 36 41  1  0  0  0  0
 37 44  1  6  0  0  0
 37 39  1  0  0  0  0
 39 42  1  6  0  0  0
 39 25  1  0  0  0  0
 40 42  1  0  0  0  0
 41 40  1  6  0  0  0
 41 37  1  0  0  0  0
 43 36  1  0  0  0  0
 43 44  1  0  0  0  0
 46 47  1  0  0  0  0
 47 45  1  0  0  0  0
M  END
>  <MODEL>
1

>  <REMARK>
 VINA RESULT:       4.5      0.000      0.000
  Name = 
  2 active torsions:
  status: ('A' for Active; 'I' for Inactive)
    1  A    between atoms: C_11  and  N_37
    2  A    between atoms: C_33  and  C_38
                            x       y       z     vdW  Elec       q    Type
                         _______ _______ _______ _____ _____    ______ ____

>  <TORSDO>
F 2

$$$$
