=
 OpenBabel11072410173D

 37 43  0  0  1  0  0  0  0  0999 V2000
  161.4040  205.4010  148.5820 C   0  0  0  0  0  3  0  0  0  0  0  0
  161.1090  202.8950  149.7840 C   0  0  0  0  0  3  0  0  0  0  0  0
  161.1700  202.9930  148.3880 C   0  0  0  0  0  0  0  0  0  0  0  0
  161.1790  204.0430  150.5790 C   0  0  0  0  0  0  0  0  0  0  0  0
  161.2810  206.2610  152.1730 N   0  0  0  0  0  0  0  0  0  0  0  0
  161.0840  203.9300  151.9260 N   0  0  0  0  0  0  0  0  0  0  0  0
  161.1310  205.0280  152.7200 C   0  0  0  0  0  3  0  0  0  0  0  0
  161.3360  205.3150  149.9810 C   0  0  0  0  0  0  0  0  0  0  0  0
  161.3950  206.4490  150.8280 C   0  0  0  0  0  0  0  0  0  0  0  0
  161.3310  204.2510  147.7930 C   0  0  0  0  0  3  0  0  0  0  0  0
  161.2200  200.5310  148.2010 C   0  0  0  0  0  3  0  0  0  0  0  0
  161.1340  201.7760  147.5610 C   0  0  0  0  0  0  0  0  0  0  0  0
  161.2710  197.8880  145.2310 Cl  0  0  0  0  0  0  0  0  0  0  0  0
  161.0600  201.8060  146.1490 C   0  0  0  0  0  0  0  0  0  0  0  0
  161.2560  199.3810  147.4790 N   0  0  0  0  0  0  0  0  0  0  0  0
  161.1100  200.6030  145.4370 C   0  0  0  0  0  3  0  0  0  0  0  0
  161.2140  199.3930  146.1220 C   0  0  0  0  0  0  0  0  0  0  0  0
  160.8680  203.0220  145.4190 N   0  0  0  0  0  0  0  0  0  0  0  0
  160.5060  204.9410  144.4240 N   0  0  0  0  0  2  0  0  0  0  0  0
  159.1040  203.1710  143.8830 O   0  0  0  0  0  1  0  0  0  0  0  0
  159.7470  203.8310  144.9340 C   0  0  2  0  0  0  0  0  0  0  0  0
  161.6210  204.1770  144.9160 C   0  0  1  0  0  3  0  0  0  0  0  0
  161.7950  210.2160  150.8320 C   0  0  0  0  0  3  0  0  0  0  0  0
  161.9280  209.4550  148.5450 C   0  0  0  0  0  3  0  0  0  0  0  0
  161.7410  208.1390  148.9740 C   0  0  0  0  0  3  0  0  0  0  0  0
  161.6070  208.8990  151.2600 C   0  0  0  0  0  3  0  0  0  0  0  0
  161.9540  210.5030  149.4700 C   0  0  0  0  0  0  0  0  0  0  0  0
  161.5660  207.8440  150.3360 C   0  0  0  0  0  0  0  0  0  0  0  0
  160.3290  212.8870  150.0430 O   0  0  0  0  0  0  0  0  0  0  0  0
  161.6430  214.2540  148.7090 N   0  0  0  0  0  2  0  0  0  0  0  0
  162.1450  211.8400  148.9910 N   0  0  0  0  0  2  0  0  0  0  0  0
  161.3270  212.9840  149.2820 C   0  0  0  0  0  0  0  0  0  0  0  0
  162.7630  214.4530  147.7990 C   0  0  0  0  0  2  0  0  0  0  0  0
  162.2890  214.4520  146.3530 C   0  0  0  0  0  2  0  0  0  0  0  0
  161.9790  213.0600  144.3610 C   0  0  0  0  0  2  0  0  0  0  0  0
  163.3340  213.4140  144.4830 O   0  0  0  0  0  0  0  0  0  0  0  0
  162.6440  213.1410  145.6780 C   0  0  1  0  0  3  0  0  0  0  0  0
  1  8  1  0  0  0  0
  2  4  1  0  0  0  0
  3  2  2  0  0  0  0
  4  6  1  0  0  0  0
  5  7  1  0  0  0  0
  6  7  2  0  0  0  0
  8  4  2  0  0  0  0
  8  9  1  0  0  0  0
  9  5  2  0  0  0  0
 10  3  1  0  0  0  0
 10  1  2  0  0  0  0
 12 11  1  0  0  0  0
 12  3  1  0  0  0  0
 13 17  1  0  0  0  0
 14 12  2  0  0  0  0
 15 11  2  0  0  0  0
 16 17  2  0  0  0  0
 16 14  1  0  0  0  0
 17 15  1  0  0  0  0
 18 14  1  0  0  0  0
 19 21  1  0  0  0  0
 21 20  1  6  0  0  0
 21 18  1  0  0  0  0
 22 19  1  6  0  0  0
 22 21  1  0  0  0  0
 22 18  1  0  0  0  0
 23 26  1  0  0  0  0
 24 25  2  0  0  0  0
 24 27  1  0  0  0  0
 25 28  1  0  0  0  0
 27 23  2  0  0  0  0
 28  9  1  0  0  0  0
 28 26  2  0  0  0  0
 30 32  1  0  0  0  0
 31 32  1  0  0  0  0
 31 27  1  0  0  0  0
 32 29  2  0  0  0  0
 33 30  1  0  0  0  0
 34 33  1  0  0  0  0
 35 36  1  0  0  0  0
 35 37  1  0  0  0  0
 36 37  1  0  0  0  0
 37 34  1  1  0  0  0
M  END
>  <MODEL>
1

>  <REMARK>
 VINA RESULT:      -8.2      0.000      0.000
  Name = 
  7 active torsions:
  status: ('A' for Active; 'I' for Inactive)
    1  A    between atoms: C_1  and  C_5
    2  A    between atoms: C_1  and  C_25
    3  A    between atoms: N_4  and  C_18
    4  A    between atoms: C_5  and  N_24
    5  A    between atoms: C_7  and  C_15
    6  A    between atoms: N_28  and  C_33
    7  A    between atoms: C_34  and  C_36
                            x       y       z     vdW  Elec       q    Type
                         _______ _______ _______ _____ _____    ______ ____

>  <TORSDO>
F 7

$$$$
=
 OpenBabel11072410173D

 37 43  0  0  1  0  0  0  0  0999 V2000
  160.9820  208.2120  150.9810 C   0  0  0  0  0  3  0  0  0  0  0  0
  160.8030  207.7630  153.7330 C   0  0  0  0  0  3  0  0  0  0  0  0
  160.6630  209.0630  153.2320 C   0  0  0  0  0  0  0  0  0  0  0  0
  161.0460  206.6920  152.8690 C   0  0  0  0  0  0  0  0  0  0  0  0
  161.5530  204.5700  151.2220 N   0  0  0  0  0  0  0  0  0  0  0  0
  161.2110  205.4460  153.3780 N   0  0  0  0  0  0  0  0  0  0  0  0
  161.4660  204.3920  152.5650 C   0  0  0  0  0  3  0  0  0  0  0  0
  161.1310  206.9070  151.4740 C   0  0  0  0  0  0  0  0  0  0  0  0
  161.3850  205.7900  150.6400 C   0  0  0  0  0  0  0  0  0  0  0  0
  160.7410  209.2790  151.8490 C   0  0  0  0  0  3  0  0  0  0  0  0
  160.2580  211.4700  153.6070 C   0  0  0  0  0  3  0  0  0  0  0  0
  160.3700  210.1800  154.1450 C   0  0  0  0  0  0  0  0  0  0  0  0
  159.6950  213.8180  156.7670 Cl  0  0  0  0  0  0  0  0  0  0  0  0
  160.2380  210.0170  155.5430 C   0  0  0  0  0  0  0  0  0  0  0  0
  160.0530  212.5420  154.4150 N   0  0  0  0  0  0  0  0  0  0  0  0
  160.0370  211.1450  156.3470 C   0  0  0  0  0  3  0  0  0  0  0  0
  159.9520  212.4070  155.7620 C   0  0  0  0  0  0  0  0  0  0  0  0
  160.2370  208.7280  156.1670 N   0  0  0  0  0  0  0  0  0  0  0  0
  160.1900  206.8220  157.2470 N   0  0  0  0  0  2  0  0  0  0  0  0
  162.2640  207.8050  156.8960 O   0  0  0  0  0  1  0  0  0  0  0  0
  160.9380  208.0510  157.2600 C   0  0  2  0  0  0  0  0  0  0  0  0
  159.4700  207.4770  156.1880 C   0  0  1  0  0  3  0  0  0  0  0  0
  161.6190  204.7270  147.0120 C   0  0  0  0  0  3  0  0  0  0  0  0
  161.5570  207.1400  147.0790 C   0  0  0  0  0  3  0  0  0  0  0  0
  161.4850  207.0970  148.4730 C   0  0  0  0  0  3  0  0  0  0  0  0
  161.5480  204.6860  148.4060 C   0  0  0  0  0  3  0  0  0  0  0  0
  161.6260  205.9550  146.3380 C   0  0  0  0  0  0  0  0  0  0  0  0
  161.4910  205.8710  149.1570 C   0  0  0  0  0  0  0  0  0  0  0  0
  160.4060  204.1670  144.3470 O   0  0  0  0  0  0  0  0  0  0  0  0
  161.2840  205.3560  142.5610 N   0  0  0  0  0  2  0  0  0  0  0  0
  161.7010  206.0400  144.9090 N   0  0  0  0  0  2  0  0  0  0  0  0
  161.1010  205.1440  143.9620 C   0  0  0  0  0  0  0  0  0  0  0  0
  162.0910  206.4450  142.0260 C   0  0  0  0  0  2  0  0  0  0  0  0
  162.0140  206.4760  140.5070 C   0  0  0  0  0  2  0  0  0  0  0  0
  161.8510  207.9250  138.5380 C   0  0  0  0  0  2  0  0  0  0  0  0
  160.7910  208.2040  139.4190 O   0  0  0  0  0  0  0  0  0  0  0  0
  162.0350  207.9080  140.0040 C   0  0  1  0  0  3  0  0  0  0  0  0
  1  8  2  0  0  0  0
  1 10  1  0  0  0  0
  3  2  1  0  0  0  0
  3 12  1  0  0  0  0
  4  6  1  0  0  0  0
  4  2  2  0  0  0  0
  5  7  1  0  0  0  0
  7  6  2  0  0  0  0
  8  4  1  0  0  0  0
  9  5  2  0  0  0  0
  9  8  1  0  0  0  0
 10  3  2  0  0  0  0
 11 12  2  0  0  0  0
 11 15  1  0  0  0  0
 12 14  1  0  0  0  0
 14 18  1  0  0  0  0
 14 16  2  0  0  0  0
 15 17  2  0  0  0  0
 17 16  1  0  0  0  0
 17 13  1  0  0  0  0
 18 22  1  0  0  0  0
 18 21  1  0  0  0  0
 19 21  1  0  0  0  0
 21 20  1  6  0  0  0
 22 19  1  6  0  0  0
 22 21  1  0  0  0  0
 23 26  1  0  0  0  0
 24 25  2  0  0  0  0
 25 28  1  0  0  0  0
 26 28  2  0  0  0  0
 27 23  2  0  0  0  0
 27 24  1  0  0  0  0
 28  9  1  0  0  0  0
 30 32  1  0  0  0  0
 31 27  1  0  0  0  0
 32 29  2  0  0  0  0
 32 31  1  0  0  0  0
 33 30  1  0  0  0  0
 34 33  1  0  0  0  0
 35 36  1  0  0  0  0
 35 37  1  0  0  0  0
 36 37  1  0  0  0  0
 37 34  1  1  0  0  0
M  END
>  <MODEL>
2

>  <REMARK>
 VINA RESULT:      -7.0      5.169      9.583
  Name = 
  7 active torsions:
  status: ('A' for Active; 'I' for Inactive)
    1  A    between atoms: C_1  and  C_5
    2  A    between atoms: C_1  and  C_25
    3  A    between atoms: N_4  and  C_18
    4  A    between atoms: C_5  and  N_24
    5  A    between atoms: C_7  and  C_15
    6  A    between atoms: N_28  and  C_33
    7  A    between atoms: C_34  and  C_36
                            x       y       z     vdW  Elec       q    Type
                         _______ _______ _______ _____ _____    ______ ____

>  <TORSDO>
F 7

$$$$
=
 OpenBabel11072410173D

 37 43  0  0  1  0  0  0  0  0999 V2000
  159.0660  210.3390  153.6430 C   0  0  0  0  0  3  0  0  0  0  0  0
  159.1500  212.1210  155.7930 C   0  0  0  0  0  3  0  0  0  0  0  0
  157.9500  211.9280  155.0990 C   0  0  0  0  0  0  0  0  0  0  0  0
  160.3090  211.4400  155.4090 C   0  0  0  0  0  0  0  0  0  0  0  0
  162.6090  210.1560  154.6770 N   0  0  0  0  0  0  0  0  0  0  0  0
  161.4690  211.6660  156.0740 N   0  0  0  0  0  0  0  0  0  0  0  0
  162.6120  211.0350  155.7120 C   0  0  0  0  0  3  0  0  0  0  0  0
  160.2760  210.5310  154.3270 C   0  0  0  0  0  0  0  0  0  0  0  0
  161.4780  209.8700  153.9720 C   0  0  0  0  0  0  0  0  0  0  0  0
  157.9120  211.0230  154.0290 C   0  0  0  0  0  3  0  0  0  0  0  0
  156.2540  212.3870  156.8340 C   0  0  0  0  0  3  0  0  0  0  0  0
  156.7250  212.6190  155.5330 C   0  0  0  0  0  0  0  0  0  0  0  0
  152.8590  214.4470  157.0420 Cl  0  0  0  0  0  0  0  0  0  0  0  0
  155.9800  213.4720  154.6870 C   0  0  0  0  0  0  0  0  0  0  0  0
  155.0940  212.9500  157.2610 N   0  0  0  0  0  0  0  0  0  0  0  0
  154.7850  214.0270  155.1560 C   0  0  0  0  0  3  0  0  0  0  0  0
  154.3520  213.7490  156.4520 C   0  0  0  0  0  0  0  0  0  0  0  0
  156.4380  213.8450  153.3820 N   0  0  0  0  0  0  0  0  0  0  0  0
  157.1460  214.2690  151.3520 N   0  0  0  0  0  2  0  0  0  0  0  0
  158.6860  214.4360  153.0820 O   0  0  0  0  0  1  0  0  0  0  0  0
  157.6400  213.6690  152.5630 C   0  0  2  0  0  0  0  0  0  0  0  0
  155.9460  214.4290  152.1290 C   0  0  1  0  0  3  0  0  0  0  0  0
  161.1840  206.6310  152.0300 C   0  0  0  0  0  3  0  0  0  0  0  0
  162.1470  208.2920  150.5670 C   0  0  0  0  0  3  0  0  0  0  0  0
  162.0860  209.2330  151.5980 C   0  0  0  0  0  3  0  0  0  0  0  0
  161.1240  207.5730  153.0600 C   0  0  0  0  0  3  0  0  0  0  0  0
  161.6990  206.9850  150.7760 C   0  0  0  0  0  0  0  0  0  0  0  0
  161.5850  208.8840  152.8620 C   0  0  0  0  0  0  0  0  0  0  0  0
  161.1280  207.4460  147.9270 O   0  0  0  0  0  0  0  0  0  0  0  0
  161.5980  205.2500  147.3520 N   0  0  0  0  0  2  0  0  0  0  0  0
  161.7800  206.0470  149.6950 N   0  0  0  0  0  2  0  0  0  0  0  0
  161.4850  206.3010  148.3120 C   0  0  0  0  0  0  0  0  0  0  0  0
  161.9800  203.8900  147.7110 C   0  0  0  0  0  2  0  0  0  0  0  0
  161.1160  202.8770  146.9760 C   0  0  0  0  0  2  0  0  0  0  0  0
  161.5180  200.5510  147.6330 C   0  0  0  0  0  2  0  0  0  0  0  0
  161.8030  201.4040  148.7150 O   0  0  0  0  0  0  0  0  0  0  0  0
  160.7050  201.7530  147.9090 C   0  0  1  0  0  3  0  0  0  0  0  0
  1 10  2  0  0  0  0
  1  8  1  0  0  0  0
  3 12  1  0  0  0  0
  3  2  2  0  0  0  0
  4  2  1  0  0  0  0
  4  6  1  0  0  0  0
  5  7  1  0  0  0  0
  7  6  2  0  0  0  0
  8  4  2  0  0  0  0
  9  8  1  0  0  0  0
  9  5  2  0  0  0  0
 10  3  1  0  0  0  0
 11 15  1  0  0  0  0
 12 11  2  0  0  0  0
 14 16  2  0  0  0  0
 14 12  1  0  0  0  0
 16 17  1  0  0  0  0
 17 13  1  0  0  0  0
 17 15  2  0  0  0  0
 18 14  1  0  0  0  0
 19 21  1  0  0  0  0
 21 20  1  1  0  0  0
 21 18  1  0  0  0  0
 22 19  1  1  0  0  0
 22 21  1  0  0  0  0
 22 18  1  0  0  0  0
 23 26  1  0  0  0  0
 24 27  1  0  0  0  0
 24 25  2  0  0  0  0
 25 28  1  0  0  0  0
 27 23  2  0  0  0  0
 28 26  2  0  0  0  0
 28  9  1  0  0  0  0
 29 32  2  0  0  0  0
 30 33  1  0  0  0  0
 30 32  1  0  0  0  0
 31 27  1  0  0  0  0
 32 31  1  0  0  0  0
 34 33  1  0  0  0  0
 35 37  1  0  0  0  0
 35 36  1  0  0  0  0
 37 34  1  6  0  0  0
 37 36  1  0  0  0  0
M  END
>  <MODEL>
3

>  <REMARK>
 VINA RESULT:      -6.8      6.278     11.315
  Name = 
  7 active torsions:
  status: ('A' for Active; 'I' for Inactive)
    1  A    between atoms: C_1  and  C_5
    2  A    between atoms: C_1  and  C_25
    3  A    between atoms: N_4  and  C_18
    4  A    between atoms: C_5  and  N_24
    5  A    between atoms: C_7  and  C_15
    6  A    between atoms: N_28  and  C_33
    7  A    between atoms: C_34  and  C_36
                            x       y       z     vdW  Elec       q    Type
                         _______ _______ _______ _____ _____    ______ ____

>  <TORSDO>
F 7

$$$$
=
 OpenBabel11072410173D

 37 43  0  0  1  0  0  0  0  0999 V2000
  160.0220  212.8250  144.1680 C   0  0  0  0  0  3  0  0  0  0  0  0
  161.0930  213.3260  141.6360 C   0  0  0  0  0  3  0  0  0  0  0  0
  159.8210  212.7520  141.7500 C   0  0  0  0  0  0  0  0  0  0  0  0
  161.8360  213.6360  142.7790 C   0  0  0  0  0  0  0  0  0  0  0  0
  163.3400  214.2310  144.9820 N   0  0  0  0  0  0  0  0  0  0  0  0
  163.0790  214.1600  142.6460 N   0  0  0  0  0  0  0  0  0  0  0  0
  163.8290  214.4530  143.7360 C   0  0  0  0  0  3  0  0  0  0  0  0
  161.3000  213.3930  144.0650 C   0  0  0  0  0  0  0  0  0  0  0  0
  162.0950  213.7180  145.1920 C   0  0  0  0  0  0  0  0  0  0  0  0
  159.2850  212.5150  143.0230 C   0  0  0  0  0  3  0  0  0  0  0  0
  157.8050  213.1270  140.3740 C   0  0  0  0  0  3  0  0  0  0  0  0
  159.0290  212.4640  140.5430 C   0  0  0  0  0  0  0  0  0  0  0  0
  156.2980  211.5910  137.0300 Cl  0  0  0  0  0  0  0  0  0  0  0  0
  159.4260  211.5190  139.5690 C   0  0  0  0  0  0  0  0  0  0  0  0
  157.0070  212.8480  139.3100 N   0  0  0  0  0  0  0  0  0  0  0  0
  158.5760  211.2500  138.4910 C   0  0  0  0  0  3  0  0  0  0  0  0
  157.3600  211.9240  138.3810 C   0  0  0  0  0  0  0  0  0  0  0  0
  160.7030  210.8720  139.6070 N   0  0  0  0  0  0  0  0  0  0  0  0
  162.7170  210.0140  139.7040 N   0  0  0  0  0  2  0  0  0  0  0  0
  161.8580  210.4980  137.6020 O   0  0  0  0  0  1  0  0  0  0  0  0
  161.9890  210.9680  138.9110 C   0  0  2  0  0  0  0  0  0  0  0  0
  161.4710  209.9220  140.4190 C   0  0  1  0  0  3  0  0  0  0  0  0
  160.2820  214.2540  148.4740 C   0  0  0  0  0  3  0  0  0  0  0  0
  161.6300  212.2620  148.6840 C   0  0  0  0  0  3  0  0  0  0  0  0
  162.0850  212.4340  147.3750 C   0  0  0  0  0  3  0  0  0  0  0  0
  160.7380  214.4250  147.1650 C   0  0  0  0  0  3  0  0  0  0  0  0
  160.7280  213.1720  149.2440 C   0  0  0  0  0  0  0  0  0  0  0  0
  161.6540  213.5240  146.6010 C   0  0  0  0  0  0  0  0  0  0  0  0
  157.9870  213.3230  150.3020 O   0  0  0  0  0  0  0  0  0  0  0  0
  158.6640  212.8330  152.4650 N   0  0  0  0  0  2  0  0  0  0  0  0
  160.2870  212.9630  150.5920 N   0  0  0  0  0  2  0  0  0  0  0  0
  158.9400  213.0530  151.0810 C   0  0  0  0  0  0  0  0  0  0  0  0
  159.7060  212.5410  153.4410 C   0  0  0  0  0  2  0  0  0  0  0  0
  159.6980  211.0660  153.8120 C   0  0  0  0  0  2  0  0  0  0  0  0
  159.6790  209.4960  155.6930 C   0  0  0  0  0  2  0  0  0  0  0  0
  160.9930  209.9460  155.4660 O   0  0  0  0  0  0  0  0  0  0  0  0
  159.9640  210.8900  155.2950 C   0  0  1  0  0  3  0  0  0  0  0  0
  2  3  2  0  0  0  0
  2  4  1  0  0  0  0
  3 10  1  0  0  0  0
  4  8  1  0  0  0  0
  5  9  1  0  0  0  0
  6  4  2  0  0  0  0
  6  7  1  0  0  0  0
  7  5  2  0  0  0  0
  8  1  1  0  0  0  0
  8  9  2  0  0  0  0
  9 28  1  0  0  0  0
 10  1  2  0  0  0  0
 11 12  1  0  0  0  0
 12  3  1  0  0  0  0
 13 17  1  0  0  0  0
 14 18  1  0  0  0  0
 14 12  2  0  0  0  0
 15 11  2  0  0  0  0
 16 14  1  0  0  0  0
 17 16  2  0  0  0  0
 17 15  1  0  0  0  0
 18 22  1  0  0  0  0
 21 20  1  6  0  0  0
 21 18  1  0  0  0  0
 21 19  1  0  0  0  0
 21 22  1  0  0  0  0
 22 19  1  6  0  0  0
 23 27  1  0  0  0  0
 24 27  2  0  0  0  0
 25 24  1  0  0  0  0
 26 23  2  0  0  0  0
 27 31  1  0  0  0  0
 28 26  1  0  0  0  0
 28 25  2  0  0  0  0
 29 32  2  0  0  0  0
 30 33  1  0  0  0  0
 31 32  1  0  0  0  0
 32 30  1  0  0  0  0
 33 34  1  0  0  0  0
 36 35  1  0  0  0  0
 37 34  1  6  0  0  0
 37 36  1  0  0  0  0
 37 35  1  0  0  0  0
M  END
>  <MODEL>
4

>  <REMARK>
 VINA RESULT:      -6.5      7.632     10.279
  Name = 
  7 active torsions:
  status: ('A' for Active; 'I' for Inactive)
    1  A    between atoms: C_1  and  C_5
    2  A    between atoms: C_1  and  C_25
    3  A    between atoms: N_4  and  C_18
    4  A    between atoms: C_5  and  N_24
    5  A    between atoms: C_7  and  C_15
    6  A    between atoms: N_28  and  C_33
    7  A    between atoms: C_34  and  C_36
                            x       y       z     vdW  Elec       q    Type
                         _______ _______ _______ _____ _____    ______ ____

>  <TORSDO>
F 7

$$$$
=
 OpenBabel11072410173D

 37 43  0  0  1  0  0  0  0  0999 V2000
  160.7280  207.1550  150.7960 C   0  0  0  0  0  3  0  0  0  0  0  0
  161.9680  206.3280  148.4320 C   0  0  0  0  0  3  0  0  0  0  0  0
  161.3140  205.3880  149.2380 C   0  0  0  0  0  0  0  0  0  0  0  0
  162.0180  207.6730  148.8090 C   0  0  0  0  0  0  0  0  0  0  0  0
  162.1680  210.3080  149.5190 N   0  0  0  0  0  0  0  0  0  0  0  0
  162.6840  208.5610  148.0310 N   0  0  0  0  0  0  0  0  0  0  0  0
  162.7640  209.8680  148.3820 C   0  0  0  0  0  3  0  0  0  0  0  0
  161.3870  208.1030  149.9990 C   0  0  0  0  0  0  0  0  0  0  0  0
  161.4710  209.4750  150.3420 C   0  0  0  0  0  0  0  0  0  0  0  0
  160.6840  205.8120  150.4150 C   0  0  0  0  0  3  0  0  0  0  0  0
  161.1740  202.9890  149.8040 C   0  0  0  0  0  3  0  0  0  0  0  0
  161.2340  203.9800  148.8140 C   0  0  0  0  0  0  0  0  0  0  0  0
  161.2080  199.5650  147.7810 Cl  0  0  0  0  0  0  0  0  0  0  0  0
  161.2570  203.5810  147.4580 C   0  0  0  0  0  0  0  0  0  0  0  0
  161.1650  201.6730  149.4660 N   0  0  0  0  0  0  0  0  0  0  0  0
  161.2560  202.2170  147.1470 C   0  0  0  0  0  3  0  0  0  0  0  0
  161.2150  201.2720  148.1700 C   0  0  0  0  0  0  0  0  0  0  0  0
  161.2150  204.5250  146.3820 N   0  0  0  0  0  0  0  0  0  0  0  0
  161.1130  205.8560  144.6440 N   0  0  0  0  0  2  0  0  0  0  0  0
  163.2190  205.2000  145.3710 O   0  0  0  0  0  1  0  0  0  0  0  0
  161.9170  204.7610  145.1180 C   0  0  2  0  0  0  0  0  0  0  0  0
  160.3930  205.6260  145.8680 C   0  0  1  0  0  3  0  0  0  0  0  0
  159.8250  211.9820  152.6550 C   0  0  0  0  0  3  0  0  0  0  0  0
  159.9950  209.8820  153.8330 C   0  0  0  0  0  3  0  0  0  0  0  0
  160.6080  209.3080  152.7170 C   0  0  0  0  0  3  0  0  0  0  0  0
  160.4380  211.4070  151.5400 C   0  0  0  0  0  3  0  0  0  0  0  0
  159.6020  211.2240  153.8110 C   0  0  0  0  0  0  0  0  0  0  0  0
  160.8480  210.0650  151.5590 C   0  0  0  0  0  0  0  0  0  0  0  0
  160.8900  212.1840  156.2750 O   0  0  0  0  0  0  0  0  0  0  0  0
  158.8680  212.7440  157.2600 N   0  0  0  0  0  2  0  0  0  0  0  0
  158.9790  211.7770  154.9770 N   0  0  0  0  0  2  0  0  0  0  0  0
  159.6360  212.2300  156.1710 C   0  0  0  0  0  0  0  0  0  0  0  0
  157.4120  212.8110  157.2370 C   0  0  0  0  0  2  0  0  0  0  0  0
  156.9330  213.7500  156.1410 C   0  0  0  0  0  2  0  0  0  0  0  0
  155.2620  214.0350  154.3720 C   0  0  0  0  0  2  0  0  0  0  0  0
  155.7430  212.7140  154.3580 O   0  0  0  0  0  0  0  0  0  0  0  0
  155.5770  213.3110  155.6210 C   0  0  1  0  0  3  0  0  0  0  0  0
  2  4  2  0  0  0  0
  2  3  1  0  0  0  0
  3 10  2  0  0  0  0
  4  8  1  0  0  0  0
  5  9  2  0  0  0  0
  6  7  2  0  0  0  0
  6  4  1  0  0  0  0
  7  5  1  0  0  0  0
  8  9  1  0  0  0  0
  8  1  2  0  0  0  0
  9 28  1  0  0  0  0
 10  1  1  0  0  0  0
 12  3  1  0  0  0  0
 12 11  2  0  0  0  0
 13 17  1  0  0  0  0
 14 12  1  0  0  0  0
 15 11  1  0  0  0  0
 16 14  2  0  0  0  0
 16 17  1  0  0  0  0
 17 15  2  0  0  0  0
 18 14  1  0  0  0  0
 19 21  1  0  0  0  0
 21 20  1  1  0  0  0
 21 22  1  0  0  0  0
 21 18  1  0  0  0  0
 22 19  1  1  0  0  0
 22 18  1  0  0  0  0
 23 27  1  0  0  0  0
 25 24  1  0  0  0  0
 26 28  1  0  0  0  0
 26 23  2  0  0  0  0
 27 24  2  0  0  0  0
 27 31  1  0  0  0  0
 28 25  2  0  0  0  0
 31 32  1  0  0  0  0
 32 29  2  0  0  0  0
 32 30  1  0  0  0  0
 33 30  1  0  0  0  0
 34 33  1  0  0  0  0
 35 37  1  0  0  0  0
 36 35  1  0  0  0  0
 36 37  1  0  0  0  0
 37 34  1  6  0  0  0
M  END
>  <MODEL>
5

>  <REMARK>
 VINA RESULT:      -6.3      4.087      5.894
  Name = 
  7 active torsions:
  status: ('A' for Active; 'I' for Inactive)
    1  A    between atoms: C_1  and  C_5
    2  A    between atoms: C_1  and  C_25
    3  A    between atoms: N_4  and  C_18
    4  A    between atoms: C_5  and  N_24
    5  A    between atoms: C_7  and  C_15
    6  A    between atoms: N_28  and  C_33
    7  A    between atoms: C_34  and  C_36
                            x       y       z     vdW  Elec       q    Type
                         _______ _______ _______ _____ _____    ______ ____

>  <TORSDO>
F 7

$$$$
=
 OpenBabel11072410173D

 37 43  0  0  1  0  0  0  0  0999 V2000
  160.2500  212.4040  143.9210 C   0  0  0  0  0  3  0  0  0  0  0  0
  160.9750  213.3720  141.4010 C   0  0  0  0  0  3  0  0  0  0  0  0
  159.7780  212.6620  141.5540 C   0  0  0  0  0  0  0  0  0  0  0  0
  161.8170  213.5860  142.4970 C   0  0  0  0  0  0  0  0  0  0  0  0
  163.5090  214.0050  144.6020 N   0  0  0  0  0  0  0  0  0  0  0  0
  162.9870  214.2470  142.3220 N   0  0  0  0  0  0  0  0  0  0  0  0
  163.8310  214.4530  143.3620 C   0  0  0  0  0  3  0  0  0  0  0  0
  161.4550  213.1070  143.7770 C   0  0  0  0  0  0  0  0  0  0  0  0
  162.3440  213.3440  144.8550 C   0  0  0  0  0  0  0  0  0  0  0  0
  159.4140  212.1910  142.8220 C   0  0  0  0  0  3  0  0  0  0  0  0
  157.6770  213.1940  140.3710 C   0  0  0  0  0  3  0  0  0  0  0  0
  158.8800  212.4740  140.4030 C   0  0  0  0  0  0  0  0  0  0  0  0
  155.8380  211.9080  137.0880 Cl  0  0  0  0  0  0  0  0  0  0  0  0
  159.1540  211.5690  139.3510 C   0  0  0  0  0  0  0  0  0  0  0  0
  156.7840  213.0070  139.3640 N   0  0  0  0  0  0  0  0  0  0  0  0
  158.2080  211.3940  138.3350 C   0  0  0  0  0  3  0  0  0  0  0  0
  157.0190  212.1220  138.3610 C   0  0  0  0  0  0  0  0  0  0  0  0
  160.3990  210.8690  139.2500 N   0  0  0  0  0  0  0  0  0  0  0  0
  162.3720  209.9190  139.1540 N   0  0  0  0  0  2  0  0  0  0  0  0
  161.5070  210.7950  137.1850 O   0  0  0  0  0  1  0  0  0  0  0  0
  161.6780  211.0270  138.5530 C   0  0  2  0  0  0  0  0  0  0  0  0
  161.1340  209.7610  139.8700 C   0  0  1  0  0  3  0  0  0  0  0  0
  162.9600  212.1080  148.3820 C   0  0  0  0  0  3  0  0  0  0  0  0
  160.5960  212.5360  148.1440 C   0  0  0  0  0  3  0  0  0  0  0  0
  160.8020  212.9270  146.8190 C   0  0  0  0  0  3  0  0  0  0  0  0
  163.1640  212.5000  147.0570 C   0  0  0  0  0  3  0  0  0  0  0  0
  161.6730  212.1210  148.9340 C   0  0  0  0  0  0  0  0  0  0  0  0
  162.0870  212.9040  146.2540 C   0  0  0  0  0  0  0  0  0  0  0  0
  162.1020  209.4830  150.1630 O   0  0  0  0  0  0  0  0  0  0  0  0
  161.3130  210.1800  152.2280 N   0  0  0  0  0  2  0  0  0  0  0  0
  161.4210  211.7240  150.2880 N   0  0  0  0  0  2  0  0  0  0  0  0
  161.6320  210.4230  150.8570 C   0  0  0  0  0  0  0  0  0  0  0  0
  160.7430  211.2010  153.0990 C   0  0  0  0  0  2  0  0  0  0  0  0
  160.0990  210.5670  154.3220 C   0  0  0  0  0  2  0  0  0  0  0  0
  160.3690  208.8890  156.0870 C   0  0  0  0  0  2  0  0  0  0  0  0
  160.5260  208.2800  154.8290 O   0  0  0  0  0  0  0  0  0  0  0  0
  161.0490  209.5780  154.9710 C   0  0  1  0  0  3  0  0  0  0  0  0
  2  3  2  0  0  0  0
  2  4  1  0  0  0  0
  3 10  1  0  0  0  0
  4  8  1  0  0  0  0
  5  9  1  0  0  0  0
  6  4  2  0  0  0  0
  6  7  1  0  0  0  0
  7  5  2  0  0  0  0
  8  1  1  0  0  0  0
  8  9  2  0  0  0  0
  9 28  1  0  0  0  0
 10  1  2  0  0  0  0
 11 12  1  0  0  0  0
 12  3  1  0  0  0  0
 13 17  1  0  0  0  0
 14 12  2  0  0  0  0
 15 11  2  0  0  0  0
 16 17  2  0  0  0  0
 16 14  1  0  0  0  0
 17 15  1  0  0  0  0
 18 14  1  0  0  0  0
 18 22  1  0  0  0  0
 21 20  1  6  0  0  0
 21 19  1  0  0  0  0
 21 18  1  0  0  0  0
 21 22  1  0  0  0  0
 22 19  1  6  0  0  0
 23 27  1  0  0  0  0
 24 27  2  0  0  0  0
 25 24  1  0  0  0  0
 26 23  2  0  0  0  0
 27 31  1  0  0  0  0
 28 25  2  0  0  0  0
 28 26  1  0  0  0  0
 29 32  2  0  0  0  0
 30 33  1  0  0  0  0
 31 32  1  0  0  0  0
 32 30  1  0  0  0  0
 33 34  1  0  0  0  0
 36 37  1  0  0  0  0
 36 35  1  0  0  0  0
 37 34  1  6  0  0  0
 37 35  1  0  0  0  0
M  END
>  <MODEL>
6

>  <REMARK>
 VINA RESULT:      -6.3      6.983     10.387
  Name = 
  7 active torsions:
  status: ('A' for Active; 'I' for Inactive)
    1  A    between atoms: C_1  and  C_5
    2  A    between atoms: C_1  and  C_25
    3  A    between atoms: N_4  and  C_18
    4  A    between atoms: C_5  and  N_24
    5  A    between atoms: C_7  and  C_15
    6  A    between atoms: N_28  and  C_33
    7  A    between atoms: C_34  and  C_36
                            x       y       z     vdW  Elec       q    Type
                         _______ _______ _______ _____ _____    ______ ____

>  <TORSDO>
F 7

$$$$
=
 OpenBabel11072410173D

 37 43  0  0  1  0  0  0  0  0999 V2000
  160.5250  209.0310  151.6360 C   0  0  0  0  0  3  0  0  0  0  0  0
  160.7910  211.8080  151.8010 C   0  0  0  0  0  3  0  0  0  0  0  0
  160.0730  211.1200  152.7870 C   0  0  0  0  0  0  0  0  0  0  0  0
  161.3630  211.1170  150.7280 C   0  0  0  0  0  0  0  0  0  0  0  0
  162.4720  209.8160  148.5950 N   0  0  0  0  0  0  0  0  0  0  0  0
  162.0260  211.8060  149.7670 N   0  0  0  0  0  0  0  0  0  0  0  0
  162.5740  211.1650  148.7060 C   0  0  0  0  0  3  0  0  0  0  0  0
  161.2400  209.7120  150.6390 C   0  0  0  0  0  0  0  0  0  0  0  0
  161.8310  209.0580  149.5290 C   0  0  0  0  0  0  0  0  0  0  0  0
  159.9550  209.7260  152.7040 C   0  0  0  0  0  3  0  0  0  0  0  0
  158.5100  212.8040  153.6890 C   0  0  0  0  0  3  0  0  0  0  0  0
  159.5080  211.8500  153.9330 C   0  0  0  0  0  0  0  0  0  0  0  0
  157.7610  214.3920  157.2570 Cl  0  0  0  0  0  0  0  0  0  0  0  0
  159.9540  211.6640  155.2610 C   0  0  0  0  0  0  0  0  0  0  0  0
  158.0020  213.5500  154.7040 N   0  0  0  0  0  0  0  0  0  0  0  0
  159.4160  212.4560  156.2810 C   0  0  0  0  0  3  0  0  0  0  0  0
  158.4380  213.4040  155.9810 C   0  0  0  0  0  0  0  0  0  0  0  0
  160.8940  210.6430  155.6160 N   0  0  0  0  0  0  0  0  0  0  0  0
  162.3640  209.1610  156.2830 N   0  0  0  0  0  2  0  0  0  0  0  0
  163.0070  210.6280  154.6010 O   0  0  0  0  0  1  0  0  0  0  0  0
  162.3390  210.5250  155.8250 C   0  0  2  0  0  0  0  0  0  0  0  0
  160.9390  209.2630  156.1110 C   0  0  1  0  0  3  0  0  0  0  0  0
  161.7940  205.3410  150.2580 C   0  0  0  0  0  3  0  0  0  0  0  0
  161.5520  205.6350  147.8740 C   0  0  0  0  0  3  0  0  0  0  0  0
  161.6200  207.0210  148.0400 C   0  0  0  0  0  3  0  0  0  0  0  0
  161.8620  206.7260  150.4220 C   0  0  0  0  0  3  0  0  0  0  0  0
  161.6410  204.7860  148.9810 C   0  0  0  0  0  0  0  0  0  0  0  0
  161.7870  207.5850  149.3150 C   0  0  0  0  0  0  0  0  0  0  0  0
  159.7020  202.8770  150.1000 O   0  0  0  0  0  0  0  0  0  0  0  0
  160.6900  201.0660  149.0420 N   0  0  0  0  0  2  0  0  0  0  0  0
  161.5710  203.3700  148.7690 N   0  0  0  0  0  2  0  0  0  0  0  0
  160.6150  202.4610  149.3390 C   0  0  0  0  0  0  0  0  0  0  0  0
  161.7260  200.4930  148.1920 C   0  0  0  0  0  2  0  0  0  0  0  0
  161.1950  200.2450  146.7890 C   0  0  0  0  0  2  0  0  0  0  0  0
  160.9440  202.3410  145.5440 C   0  0  0  0  0  2  0  0  0  0  0  0
  160.1170  201.3540  144.9790 O   0  0  0  0  0  0  0  0  0  0  0  0
  160.2380  201.3490  146.3800 C   0  0  1  0  0  3  0  0  0  0  0  0
  1 10  1  0  0  0  0
  2  3  1  0  0  0  0
  3 12  1  0  0  0  0
  4  2  2  0  0  0  0
  5  7  1  0  0  0  0
  5  9  2  0  0  0  0
  6  4  1  0  0  0  0
  7  6  2  0  0  0  0
  8  4  1  0  0  0  0
  8  1  2  0  0  0  0
  9  8  1  0  0  0  0
 10  3  2  0  0  0  0
 11 12  2  0  0  0  0
 11 15  1  0  0  0  0
 12 14  1  0  0  0  0
 14 18  1  0  0  0  0
 14 16  2  0  0  0  0
 15 17  2  0  0  0  0
 17 16  1  0  0  0  0
 17 13  1  0  0  0  0
 18 21  1  0  0  0  0
 18 22  1  0  0  0  0
 21 20  1  6  0  0  0
 21 22  1  0  0  0  0
 21 19  1  0  0  0  0
 22 19  1  6  0  0  0
 23 26  1  0  0  0  0
 24 25  2  0  0  0  0
 24 27  1  0  0  0  0
 25 28  1  0  0  0  0
 27 23  2  0  0  0  0
 28  9  1  0  0  0  0
 28 26  2  0  0  0  0
 30 32  1  0  0  0  0
 31 27  1  0  0  0  0
 31 32  1  0  0  0  0
 32 29  2  0  0  0  0
 33 30  1  0  0  0  0
 34 33  1  0  0  0  0
 35 37  1  0  0  0  0
 36 35  1  0  0  0  0
 36 37  1  0  0  0  0
 37 34  1  6  0  0  0
M  END
>  <MODEL>
7

>  <REMARK>
 VINA RESULT:      -6.2      4.853     10.951
  Name = 
  7 active torsions:
  status: ('A' for Active; 'I' for Inactive)
    1  A    between atoms: C_1  and  C_5
    2  A    between atoms: C_1  and  C_25
    3  A    between atoms: N_4  and  C_18
    4  A    between atoms: C_5  and  N_24
    5  A    between atoms: C_7  and  C_15
    6  A    between atoms: N_28  and  C_33
    7  A    between atoms: C_34  and  C_36
                            x       y       z     vdW  Elec       q    Type
                         _______ _______ _______ _____ _____    ______ ____

>  <TORSDO>
F 7

$$$$
=
 OpenBabel11072410173D

 37 43  0  0  1  0  0  0  0  0999 V2000
  160.0550  212.8000  149.5080 C   0  0  0  0  0  3  0  0  0  0  0  0
  158.4160  212.8610  151.7700 C   0  0  0  0  0  3  0  0  0  0  0  0
  159.7120  212.3380  151.8660 C   0  0  0  0  0  0  0  0  0  0  0  0
  157.9320  213.3390  150.5490 C   0  0  0  0  0  0  0  0  0  0  0  0
  156.9310  214.2570  148.1760 N   0  0  0  0  0  0  0  0  0  0  0  0
  156.6640  213.8110  150.4700 N   0  0  0  0  0  0  0  0  0  0  0  0
  156.1630  214.2630  149.2950 C   0  0  0  0  0  3  0  0  0  0  0  0
  158.7560  213.3190  149.4000 C   0  0  0  0  0  0  0  0  0  0  0  0
  158.2180  213.8080  148.1840 C   0  0  0  0  0  0  0  0  0  0  0  0
  160.5320  212.3220  150.7300 C   0  0  0  0  0  3  0  0  0  0  0  0
  159.8830  212.5960  154.3150 C   0  0  0  0  0  3  0  0  0  0  0  0
  160.2260  211.8720  153.1640 C   0  0  0  0  0  0  0  0  0  0  0  0
  161.8600  210.7830  157.2510 Cl  0  0  0  0  0  0  0  0  0  0  0  0
  161.0840  210.7570  153.2970 C   0  0  0  0  0  0  0  0  0  0  0  0
  160.3850  212.2450  155.5280 N   0  0  0  0  0  0  0  0  0  0  0  0
  161.5900  210.4300  154.5600 C   0  0  0  0  0  3  0  0  0  0  0  0
  161.2310  211.1940  155.6700 C   0  0  0  0  0  0  0  0  0  0  0  0
  161.4050  209.9020  152.1940 N   0  0  0  0  0  0  0  0  0  0  0  0
  161.7670  208.6390  150.4400 N   0  0  0  0  0  2  0  0  0  0  0  0
  160.9790  207.6030  152.3630 O   0  0  0  0  0  1  0  0  0  0  0  0
  160.8390  208.7210  151.5360 C   0  0  2  0  0  0  0  0  0  0  0  0
  162.3240  209.8150  151.0540 C   0  0  1  0  0  3  0  0  0  0  0  0
  161.0070  214.4510  145.7020 C   0  0  0  0  0  3  0  0  0  0  0  0
  159.2130  213.3360  144.5340 C   0  0  0  0  0  3  0  0  0  0  0  0
  158.4670  213.3030  145.7140 C   0  0  0  0  0  3  0  0  0  0  0  0
  160.2600  214.4190  146.8820 C   0  0  0  0  0  3  0  0  0  0  0  0
  160.4870  213.9120  144.5190 C   0  0  0  0  0  0  0  0  0  0  0  0
  158.9750  213.8540  146.9020 C   0  0  0  0  0  0  0  0  0  0  0  0
  163.3570  213.4140  144.1080 O   0  0  0  0  0  0  0  0  0  0  0  0
  163.2150  213.7600  141.8200 N   0  0  0  0  0  2  0  0  0  0  0  0
  161.2200  213.9290  143.2870 N   0  0  0  0  0  2  0  0  0  0  0  0
  162.6270  213.6900  143.1200 C   0  0  0  0  0  0  0  0  0  0  0  0
  162.4510  214.0970  140.6250 C   0  0  0  0  0  2  0  0  0  0  0  0
  162.5280  212.9740  139.6030 C   0  0  0  0  0  2  0  0  0  0  0  0
  161.4910  210.7730  139.3110 C   0  0  0  0  0  2  0  0  0  0  0  0
  161.2140  211.2580  140.6020 O   0  0  0  0  0  0  0  0  0  0  0  0
  161.2210  212.2040  139.5610 C   0  0  1  0  0  3  0  0  0  0  0  0
  1 10  1  0  0  0  0
  2  3  1  0  0  0  0
  3 12  1  0  0  0  0
  4  2  2  0  0  0  0
  5  9  2  0  0  0  0
  5  7  1  0  0  0  0
  6  4  1  0  0  0  0
  7  6  2  0  0  0  0
  8  1  2  0  0  0  0
  8  4  1  0  0  0  0
  9  8  1  0  0  0  0
 10  3  2  0  0  0  0
 11 15  1  0  0  0  0
 12 14  1  0  0  0  0
 12 11  2  0  0  0  0
 14 16  2  0  0  0  0
 15 17  2  0  0  0  0
 16 17  1  0  0  0  0
 17 13  1  0  0  0  0
 18 14  1  0  0  0  0
 19 21  1  0  0  0  0
 21 18  1  0  0  0  0
 21 20  1  1  0  0  0
 22 19  1  1  0  0  0
 22 21  1  0  0  0  0
 22 18  1  0  0  0  0
 23 26  1  0  0  0  0
 24 25  2  0  0  0  0
 25 28  1  0  0  0  0
 26 28  2  0  0  0  0
 27 24  1  0  0  0  0
 27 23  2  0  0  0  0
 28  9  1  0  0  0  0
 30 32  1  0  0  0  0
 31 27  1  0  0  0  0
 32 31  1  0  0  0  0
 32 29  2  0  0  0  0
 33 30  1  0  0  0  0
 34 33  1  0  0  0  0
 35 37  1  0  0  0  0
 35 36  1  0  0  0  0
 37 34  1  1  0  0  0
 37 36  1  0  0  0  0
M  END
>  <MODEL>
8

>  <REMARK>
 VINA RESULT:      -6.0      6.372      9.512
  Name = 
  7 active torsions:
  status: ('A' for Active; 'I' for Inactive)
    1  A    between atoms: C_1  and  C_5
    2  A    between atoms: C_1  and  C_25
    3  A    between atoms: N_4  and  C_18
    4  A    between atoms: C_5  and  N_24
    5  A    between atoms: C_7  and  C_15
    6  A    between atoms: N_28  and  C_33
    7  A    between atoms: C_34  and  C_36
                            x       y       z     vdW  Elec       q    Type
                         _______ _______ _______ _____ _____    ______ ____

>  <TORSDO>
F 7

$$$$
=
 OpenBabel11072410173D

 37 43  0  0  1  0  0  0  0  0999 V2000
  161.8130  210.6640  147.7840 C   0  0  0  0  0  3  0  0  0  0  0  0
  161.2740  211.0410  150.5000 C   0  0  0  0  0  3  0  0  0  0  0  0
  161.5230  209.7520  150.0150 C   0  0  0  0  0  0  0  0  0  0  0  0
  161.2790  212.1390  149.6340 C   0  0  0  0  0  0  0  0  0  0  0  0
  161.2480  214.3110  147.9750 N   0  0  0  0  0  0  0  0  0  0  0  0
  161.0040  213.3740  150.1180 N   0  0  0  0  0  0  0  0  0  0  0  0
  160.9840  214.4530  149.2980 C   0  0  0  0  0  3  0  0  0  0  0  0
  161.5580  211.9590  148.2590 C   0  0  0  0  0  0  0  0  0  0  0  0
  161.5450  213.1020  147.4210 C   0  0  0  0  0  0  0  0  0  0  0  0
  161.8040  209.5720  148.6540 C   0  0  0  0  0  3  0  0  0  0  0  0
  162.0730  207.3900  150.4780 C   0  0  0  0  0  3  0  0  0  0  0  0
  161.5530  208.6070  150.9400 C   0  0  0  0  0  0  0  0  0  0  0  0
  161.5540  204.8730  153.5130 Cl  0  0  0  0  0  0  0  0  0  0  0  0
  161.0420  208.6680  152.2570 C   0  0  0  0  0  0  0  0  0  0  0  0
  162.0640  206.2870  151.2710 N   0  0  0  0  0  0  0  0  0  0  0  0
  161.0400  207.5100  153.0430 C   0  0  0  0  0  3  0  0  0  0  0  0
  161.5530  206.3200  152.5280 C   0  0  0  0  0  0  0  0  0  0  0  0
  160.5860  209.8910  152.8450 N   0  0  0  0  0  0  0  0  0  0  0  0
  159.9870  211.8360  153.6580 N   0  0  0  0  0  2  0  0  0  0  0  0
  161.3900  210.5170  154.9560 O   0  0  0  0  0  1  0  0  0  0  0  0
  161.1400  210.9760  153.6600 C   0  0  2  0  0  0  0  0  0  0  0  0
  159.4310  210.7950  152.8340 C   0  0  1  0  0  3  0  0  0  0  0  0
  163.4210  213.3220  144.1370 C   0  0  0  0  0  3  0  0  0  0  0  0
  161.1660  212.6030  143.6600 C   0  0  0  0  0  3  0  0  0  0  0  0
  160.8620  212.6600  145.0230 C   0  0  0  0  0  3  0  0  0  0  0  0
  163.1150  213.3790  145.4990 C   0  0  0  0  0  3  0  0  0  0  0  0
  162.4470  212.9360  143.2080 C   0  0  0  0  0  0  0  0  0  0  0  0
  161.8280  213.0600  145.9590 C   0  0  0  0  0  0  0  0  0  0  0  0
  160.9400  214.1710  141.0030 O   0  0  0  0  0  0  0  0  0  0  0  0
  162.3530  213.2980  139.3860 N   0  0  0  0  0  2  0  0  0  0  0  0
  162.7190  212.8680  141.8020 N   0  0  0  0  0  2  0  0  0  0  0  0
  161.9580  213.4750  140.7470 C   0  0  0  0  0  0  0  0  0  0  0  0
  163.5010  212.4900  138.9960 C   0  0  0  0  0  2  0  0  0  0  0  0
  163.0490  211.1760  138.3770 C   0  0  0  0  0  2  0  0  0  0  0  0
  161.5530  209.2630  138.7010 C   0  0  0  0  0  2  0  0  0  0  0  0
  162.1150  209.6370  139.9350 O   0  0  0  0  0  0  0  0  0  0  0  0
  161.7830  210.6800  139.0510 C   0  0  1  0  0  3  0  0  0  0  0  0
  1  8  2  0  0  0  0
  1 10  1  0  0  0  0
  3  2  1  0  0  0  0
  3 12  1  0  0  0  0
  4  6  1  0  0  0  0
  4  2  2  0  0  0  0
  5  7  1  0  0  0  0
  7  6  2  0  0  0  0
  8  4  1  0  0  0  0
  9  5  2  0  0  0  0
  9  8  1  0  0  0  0
 10  3  2  0  0  0  0
 11 12  2  0  0  0  0
 11 15  1  0  0  0  0
 12 14  1  0  0  0  0
 14 18  1  0  0  0  0
 14 16  2  0  0  0  0
 15 17  2  0  0  0  0
 17 16  1  0  0  0  0
 17 13  1  0  0  0  0
 18 21  1  0  0  0  0
 19 21  1  0  0  0  0
 21 20  1  1  0  0  0
 22 18  1  0  0  0  0
 22 19  1  1  0  0  0
 22 21  1  0  0  0  0
 23 26  1  0  0  0  0
 24 25  2  0  0  0  0
 25 28  1  0  0  0  0
 26 28  2  0  0  0  0
 27 24  1  0  0  0  0
 27 23  2  0  0  0  0
 28  9  1  0  0  0  0
 30 32  1  0  0  0  0
 31 27  1  0  0  0  0
 32 29  2  0  0  0  0
 32 31  1  0  0  0  0
 33 30  1  0  0  0  0
 34 33  1  0  0  0  0
 35 37  1  0  0  0  0
 35 36  1  0  0  0  0
 37 34  1  6  0  0  0
 37 36  1  0  0  0  0
M  END
>  <MODEL>
9

>  <REMARK>
 VINA RESULT:      -5.6      4.927      8.560
  Name = 
  7 active torsions:
  status: ('A' for Active; 'I' for Inactive)
    1  A    between atoms: C_1  and  C_5
    2  A    between atoms: C_1  and  C_25
    3  A    between atoms: N_4  and  C_18
    4  A    between atoms: C_5  and  N_24
    5  A    between atoms: C_7  and  C_15
    6  A    between atoms: N_28  and  C_33
    7  A    between atoms: C_34  and  C_36
                            x       y       z     vdW  Elec       q    Type
                         _______ _______ _______ _____ _____    ______ ____

>  <TORSDO>
F 7

$$$$
