=
 OpenBabel11072412333D

 51 57  0  0  1  0  0  0  0  0999 V2000
  159.5620  209.8970  154.7480 C   0  0  2  0  0  0  0  0  0  0  0  0
  162.5410  206.7680  151.8630 C   0  0  0  0  0  2  0  0  0  0  0  0
  161.3130  208.4400  155.8780 C   0  0  0  0  0  2  0  0  0  0  0  0
  161.3030  207.6690  151.9840 C   0  0  1  0  0  3  0  0  0  0  0  0
  160.9550  204.2420  153.5050 O   0  0  0  0  0  0  0  0  0  0  0  0
  161.1640  208.4530  153.3160 C   0  0  1  0  0  3  0  0  0  0  0  0
  161.4830  205.3300  153.6780 C   0  0  0  0  0  0  0  0  0  0  0  0
  159.7420  209.0170  153.4800 C   0  0  0  0  0  2  0  0  0  0  0  0
  162.7330  205.6730  152.9160 C   0  0  0  0  0  2  0  0  0  0  0  0
  160.8280  209.8680  155.6310 C   0  0  0  0  0  2  0  0  0  0  0  0
  161.5670  207.6670  154.5820 C   0  0  2  0  0  3  0  0  0  0  0  0
  160.8790  206.3050  154.6540 C   0  0  0  0  0  2  0  0  0  0  0  0
  158.4090  209.3680  155.5790 C   0  0  0  0  0  0  0  0  0  0  0  0
  157.5240  210.2380  156.2050 O   0  0  0  0  0  1  0  0  0  0  0  0
  158.2620  208.1270  155.7400 O   0  0  0  0  0  0  0  0  0  0  0  0
  159.2920  211.3750  154.3440 C   0  0  2  0  0  3  0  0  0  0  0  0
  157.8960  212.6120  152.5920 C   0  0  0  0  0  0  0  0  0  0  0  0
  157.8510  213.3360  151.2780 C   0  0  0  0  0  2  0  0  0  0  0  0
  158.9630  211.5720  152.8500 C   0  0  1  0  0  3  0  0  0  0  0  0
  160.2160  211.6890  151.9560 C   0  0  0  0  0  2  0  0  0  0  0  0
  158.6710  212.6410  150.2820 N   0  0  0  0  0  0  0  0  0  0  0  0
  157.0190  212.8190  153.4190 O   0  0  0  0  0  0  0  0  0  0  0  0
  160.0480  212.6390  150.7620 C   0  0  0  0  0  2  0  0  0  0  0  0
  159.8460  214.4420  148.7350 O   0  0  0  0  0  0  0  0  0  0  0  0
  158.5910  212.4880  147.4070 C   0  0  0  0  0  1  0  0  0  0  0  0
  158.6220  213.5750  148.8210 S   0  0  0  0  0  0  0  0  0  0  0  0
  157.3940  214.4450  148.8020 O   0  0  0  0  0  0  0  0  0  0  0  0
  160.3700  212.3500  154.8440 C   0  0  2  0  0  3  0  0  0  0  0  0
  159.8880  213.0780  155.9920 N   0  0  0  0  0  2  0  0  0  0  0  0
  159.9340  213.6310  154.7230 O   0  0  0  0  0  0  0  0  0  0  0  0
  161.2490  208.5510  150.7270 C   0  0  0  0  0  2  0  0  0  0  0  0
  162.2290  207.2080  148.8770 C   0  0  1  0  0  3  0  0  0  0  0  0
  161.6200  208.3880  148.1360 C   0  0  1  0  0  3  0  0  0  0  0  0
  160.9480  207.8390  149.4000 C   0  0  2  0  0  3  0  0  0  0  0  0
  162.5050  209.6020  148.3340 C   0  0  0  0  0  2  0  0  0  0  0  0
  162.6350  212.0380  147.9080 C   0  0  0  0  0  1  0  0  0  0  0  0
  161.6990  210.8640  148.0940 C   0  0  0  0  0  2  0  0  0  0  0  0
  161.9350  205.9590  148.1760 N   0  0  0  0  0  0  0  0  0  0  0  0
  163.2570  204.7570  145.9940 C   0  0  0  0  0  1  0  0  0  0  0  0
  160.3960  205.6220  144.8610 C   0  0  0  0  0  2  0  0  0  0  0  0
  160.2530  205.5510  146.3640 C   0  0  0  0  0  2  0  0  0  0  0  0
  162.4550  206.0270  145.7270 C   0  0  1  0  0  3  0  0  0  0  0  0
  161.7440  205.8650  144.5220 O   0  0  0  0  0  0  0  0  0  0  0  0
  161.4490  206.3320  146.8320 C   0  0  2  0  0  3  0  0  0  0  0  0
  160.8520  205.3210  148.9300 C   0  0  0  0  0  2  0  0  0  0  0  0
  161.3210  203.9840  149.4950 C   0  0  1  0  0  3  0  0  0  0  0  0
  160.9270  201.5550  146.9940 C   0  0  0  0  0  1  0  0  0  0  0  0
  160.1560  203.2450  150.1170 C   0  0  0  0  0  2  0  0  0  0  0  0
  159.8290  202.1930  149.1110 C   0  0  0  0  0  2  0  0  0  0  0  0
  161.1560  201.9930  148.4270 C   0  0  2  0  0  3  0  0  0  0  0  0
  161.8670  203.2050  148.4530 O   0  0  0  0  0  0  0  0  0  0  0  0
  1 13  1  1  0  0  0
  1 10  1  0  0  0  0
  2  4  1  0  0  0  0
  2  9  1  0  0  0  0
  4 31  1  6  0  0  0
  4  6  1  0  0  0  0
  5  7  2  0  0  0  0
  6  8  1  1  0  0  0
  6 11  1  0  0  0  0
  7 12  1  0  0  0  0
  8  1  1  0  0  0  0
  9  7  1  0  0  0  0
 10  3  1  0  0  0  0
 11 12  1  1  0  0  0
 11  3  1  0  0  0  0
 13 15  2  0  0  0  0
 13 14  1  0  0  0  0
 16 19  1  6  0  0  0
 16  1  1  0  0  0  0
 17 19  1  0  0  0  0
 17 22  2  0  0  0  0
 18 17  1  0  0  0  0
 19 20  1  6  0  0  0
 21 23  1  0  0  0  0
 21 18  1  0  0  0  0
 23 20  1  0  0  0  0
 24 26  2  0  0  0  0
 25 26  1  0  0  0  0
 26 21  1  0  0  0  0
 27 26  2  0  0  0  0
 28 16  1  6  0  0  0
 28 29  1  0  0  0  0
 30 28  1  0  0  0  0
 30 29  1  0  0  0  0
 32 38  1  6  0  0  0
 32 34  1  0  0  0  0
 33 35  1  1  0  0  0
 33 32  1  0  0  0  0
 33 34  1  0  0  0  0
 34 31  1  1  0  0  0
 36 37  1  0  0  0  0
 37 35  1  0  0  0  0
 38 45  1  0  0  0  0
 40 41  1  0  0  0  0
 41 44  1  0  0  0  0
 42 39  1  1  0  0  0
 42 44  1  0  0  0  0
 43 40  1  0  0  0  0
 43 42  1  0  0  0  0
 44 38  1  1  0  0  0
 46 45  1  6  0  0  0
 46 48  1  0  0  0  0
 49 48  1  0  0  0  0
 50 47  1  6  0  0  0
 50 51  1  0  0  0  0
 50 49  1  0  0  0  0
 51 46  1  0  0  0  0
M  END
>  <MODEL>
1

>  <REMARK>
 VINA RESULT:      -3.3      0.000      0.000
  Name = 
  13 active torsions:
  status: ('A' for Active; 'I' for Inactive)
    1  A    between atoms: C_2  and  N_37
    2  A    between atoms: C_5  and  C_10
    3  A    between atoms: C_5  and  C_15
    4  A    between atoms: C_9  and  C_15
    5  A    between atoms: C_12  and  C_43
    6  A    between atoms: C_15  and  C_21
    7  A    between atoms: C_16  and  C_51
    8  A    between atoms: C_19  and  C_32
    9  A    between atoms: S_24  and  N_39
   10  A    between atoms: C_32  and  C_40
   11  A    between atoms: N_37  and  C_43
   12  A    between atoms: N_37  and  C_45
   13  A    between atoms: C_38  and  C_51
                            x       y       z     vdW  Elec       q    Type
                         _______ _______ _______ _____ _____    ______ ____

>  <TORSDO>
F 13

$$$$
=
 OpenBabel11072412333D

 51 57  0  0  1  0  0  0  0  0999 V2000
  161.5800  206.6430  151.7310 C   0  0  2  0  0  0  0  0  0  0  0  0
  160.1060  210.6870  154.6400 C   0  0  0  0  0  2  0  0  0  0  0  0
  160.5460  206.2330  154.0180 C   0  0  0  0  0  2  0  0  0  0  0  0
  160.8830  210.1440  153.4320 C   0  0  1  0  0  3  0  0  0  0  0  0
  162.5560  209.6640  156.7700 O   0  0  0  0  0  0  0  0  0  0  0  0
  160.6920  208.6350  153.1260 C   0  0  1  0  0  3  0  0  0  0  0  0
  161.6380  209.2510  156.0780 C   0  0  0  0  0  0  0  0  0  0  0  0
  161.7720  208.1250  152.1560 C   0  0  0  0  0  2  0  0  0  0  0  0
  160.3590  210.0370  156.0020 C   0  0  0  0  0  2  0  0  0  0  0  0
  160.4250  205.9840  152.5150 C   0  0  0  0  0  2  0  0  0  0  0  0
  160.6270  207.7210  154.3680 C   0  0  2  0  0  3  0  0  0  0  0  0
  161.7990  207.9600  155.3180 C   0  0  0  0  0  2  0  0  0  0  0  0
  162.8440  205.8590  152.0270 C   0  0  0  0  0  0  0  0  0  0  0  0
  162.7880  204.6490  152.7100 O   0  0  0  0  0  1  0  0  0  0  0  0
  163.9670  206.3160  151.6870 O   0  0  0  0  0  0  0  0  0  0  0  0
  161.2430  206.5560  150.2150 C   0  0  2  0  0  3  0  0  0  0  0  0
  160.4530  204.1340  149.9710 C   0  0  0  0  0  0  0  0  0  0  0  0
  160.1840  202.9670  149.0670 C   0  0  0  0  0  2  0  0  0  0  0  0
  161.4890  205.1670  149.5900 C   0  0  1  0  0  3  0  0  0  0  0  0
  161.8290  205.2240  148.0850 C   0  0  0  0  0  2  0  0  0  0  0  0
  161.2620  202.8210  148.0860 N   0  0  0  0  0  0  0  0  0  0  0  0
  159.8790  204.2000  151.0490 O   0  0  0  0  0  0  0  0  0  0  0  0
  161.2940  204.0340  147.2760 C   0  0  0  0  0  2  0  0  0  0  0  0
  161.2970  201.8020  145.6400 O   0  0  0  0  0  0  0  0  0  0  0  0
  161.6510  200.0100  147.5940 C   0  0  0  0  0  1  0  0  0  0  0  0
  160.8440  201.5000  147.0410 S   0  0  0  0  0  0  0  0  0  0  0  0
  159.3530  201.2870  147.0470 O   0  0  0  0  0  0  0  0  0  0  0  0
  161.8620  207.6930  149.3870 C   0  0  2  0  0  3  0  0  0  0  0  0
  160.8310  208.5870  148.9210 N   0  0  0  0  0  2  0  0  0  0  0  0
  161.4180  207.6340  148.1050 O   0  0  0  0  0  0  0  0  0  0  0  0
  160.5900  211.0680  152.2390 C   0  0  0  0  0  2  0  0  0  0  0  0
  158.8890  212.8420  151.8470 C   0  0  1  0  0  3  0  0  0  0  0  0
  160.1790  213.5260  151.4220 C   0  0  1  0  0  3  0  0  0  0  0  0
  160.1860  212.5130  152.5710 C   0  0  2  0  0  3  0  0  0  0  0  0
  160.5960  212.9910  150.0680 C   0  0  0  0  0  2  0  0  0  0  0  0
  161.4260  213.6210  147.8210 C   0  0  0  0  0  1  0  0  0  0  0  0
  161.1530  214.1200  149.2230 C   0  0  0  0  0  2  0  0  0  0  0  0
  158.0710  213.7490  152.6500 N   0  0  0  0  0  0  0  0  0  0  0  0
  158.5220  214.0430  155.4180 C   0  0  0  0  0  1  0  0  0  0  0  0
  155.5730  212.8300  155.1780 C   0  0  0  0  0  2  0  0  0  0  0  0
  155.8840  213.4580  153.8390 C   0  0  0  0  0  2  0  0  0  0  0  0
  157.8310  212.7680  154.9420 C   0  0  1  0  0  3  0  0  0  0  0  0
  156.7750  212.4720  155.8260 O   0  0  0  0  0  0  0  0  0  0  0  0
  157.2480  212.9030  153.5390 C   0  0  2  0  0  3  0  0  0  0  0  0
  157.2040  214.4530  151.7010 C   0  0  0  0  0  2  0  0  0  0  0  0
  156.5380  213.4580  150.7580 C   0  0  1  0  0  3  0  0  0  0  0  0
  157.4770  214.2800  147.4790 C   0  0  0  0  0  1  0  0  0  0  0  0
  155.2000  213.9930  150.2960 C   0  0  0  0  0  2  0  0  0  0  0  0
  155.4660  214.4490  148.9010 C   0  0  0  0  0  2  0  0  0  0  0  0
  156.6130  213.5610  148.4960 C   0  0  2  0  0  3  0  0  0  0  0  0
  157.3710  213.2500  149.6380 O   0  0  0  0  0  0  0  0  0  0  0  0
  1 13  1  1  0  0  0
  1  8  1  0  0  0  0
  1 10  1  0  0  0  0
  2  9  1  0  0  0  0
  4 31  1  6  0  0  0
  4  2  1  0  0  0  0
  6  8  1  6  0  0  0
  6  4  1  0  0  0  0
  6 11  1  0  0  0  0
  7  5  2  0  0  0  0
  9  7  1  0  0  0  0
 10  3  1  0  0  0  0
 11  3  1  6  0  0  0
 11 12  1  0  0  0  0
 12  7  1  0  0  0  0
 13 14  1  0  0  0  0
 15 13  2  0  0  0  0
 16 28  1  6  0  0  0
 16  1  1  0  0  0  0
 17 22  2  0  0  0  0
 18 17  1  0  0  0  0
 19 17  1  0  0  0  0
 19 16  1  6  0  0  0
 20 19  1  0  0  0  0
 21 18  1  0  0  0  0
 23 20  1  0  0  0  0
 23 21  1  0  0  0  0
 24 26  2  0  0  0  0
 26 27  2  0  0  0  0
 26 25  1  0  0  0  0
 26 21  1  0  0  0  0
 28 30  1  6  0  0  0
 29 28  1  0  0  0  0
 30 29  1  0  0  0  0
 32 34  1  0  0  0  0
 32 38  1  1  0  0  0
 33 35  1  6  0  0  0
 33 32  1  0  0  0  0
 33 34  1  0  0  0  0
 34 31  1  6  0  0  0
 36 37  1  0  0  0  0
 37 35  1  0  0  0  0
 40 43  1  0  0  0  0
 41 40  1  0  0  0  0
 42 39  1  1  0  0  0
 42 43  1  0  0  0  0
 44 38  1  6  0  0  0
 44 41  1  0  0  0  0
 44 42  1  0  0  0  0
 45 38  1  0  0  0  0
 46 45  1  1  0  0  0
 48 46  1  0  0  0  0
 49 48  1  0  0  0  0
 50 47  1  6  0  0  0
 50 49  1  0  0  0  0
 50 51  1  0  0  0  0
 51 46  1  0  0  0  0
M  END
>  <MODEL>
2

>  <REMARK>
 VINA RESULT:      -0.7      2.746      8.977
  Name = 
  13 active torsions:
  status: ('A' for Active; 'I' for Inactive)
    1  A    between atoms: C_2  and  N_37
    2  A    between atoms: C_5  and  C_10
    3  A    between atoms: C_5  and  C_15
    4  A    between atoms: C_9  and  C_15
    5  A    between atoms: C_12  and  C_43
    6  A    between atoms: C_15  and  C_21
    7  A    between atoms: C_16  and  C_51
    8  A    between atoms: C_19  and  C_32
    9  A    between atoms: S_24  and  N_39
   10  A    between atoms: C_32  and  C_40
   11  A    between atoms: N_37  and  C_43
   12  A    between atoms: N_37  and  C_45
   13  A    between atoms: C_38  and  C_51
                            x       y       z     vdW  Elec       q    Type
                         _______ _______ _______ _____ _____    ______ ____

>  <TORSDO>
F 13

$$$$
=
 OpenBabel11072412333D

 51 57  0  0  1  0  0  0  0  0999 V2000
  161.4250  207.1490  151.7870 C   0  0  2  0  0  0  0  0  0  0  0  0
  160.6270  211.2580  154.8640 C   0  0  0  0  0  2  0  0  0  0  0  0
  160.0900  206.8690  153.9320 C   0  0  0  0  0  2  0  0  0  0  0  0
  161.3810  210.6150  153.6910 C   0  0  1  0  0  3  0  0  0  0  0  0
  162.5360  209.5640  157.1160 O   0  0  0  0  0  0  0  0  0  0  0  0
  160.8800  209.2140  153.2500 C   0  0  1  0  0  3  0  0  0  0  0  0
  161.6260  209.4200  156.3150 C   0  0  0  0  0  0  0  0  0  0  0  0
  161.9080  208.5180  152.3430 C   0  0  0  0  0  2  0  0  0  0  0  0
  160.5780  210.4910  156.1880 C   0  0  0  0  0  2  0  0  0  0  0  0
  160.0740  206.7410  152.4090 C   0  0  0  0  0  2  0  0  0  0  0  0
  160.4750  208.2730  154.4060 C   0  0  2  0  0  3  0  0  0  0  0  0
  161.5640  208.1730  155.4720 C   0  0  0  0  0  2  0  0  0  0  0  0
  162.4360  206.0720  152.1310 C   0  0  0  0  0  0  0  0  0  0  0  0
  162.2260  205.2160  153.2060 O   0  0  0  0  0  1  0  0  0  0  0  0
  163.4990  205.9660  151.4640 O   0  0  0  0  0  0  0  0  0  0  0  0
  161.2390  207.2310  150.2450 C   0  0  2  0  0  3  0  0  0  0  0  0
  161.5860  205.4470  148.4430 C   0  0  0  0  0  0  0  0  0  0  0  0
  161.6190  203.9900  148.0820 C   0  0  0  0  0  2  0  0  0  0  0  0
  160.7350  205.9240  149.5980 C   0  0  1  0  0  3  0  0  0  0  0  0
  160.3640  204.8340  150.6270 C   0  0  0  0  0  2  0  0  0  0  0  0
  160.5030  203.2810  148.7120 N   0  0  0  0  0  0  0  0  0  0  0  0
  162.1960  206.2480  147.7500 O   0  0  0  0  0  0  0  0  0  0  0  0
  160.6580  203.4030  150.1580 C   0  0  0  0  0  2  0  0  0  0  0  0
  159.4780  200.8430  148.8550 O   0  0  0  0  0  0  0  0  0  0  0  0
  160.6780  201.4080  146.5320 C   0  0  0  0  0  1  0  0  0  0  0  0
  160.6520  201.6020  148.3040 S   0  0  0  0  0  0  0  0  0  0  0  0
  161.9240  201.0400  148.8820 O   0  0  0  0  0  0  0  0  0  0  0  0
  162.4550  207.8190  149.5140 C   0  0  2  0  0  3  0  0  0  0  0  0
  162.5810  209.2260  149.8090 N   0  0  0  0  0  2  0  0  0  0  0  0
  162.0540  208.7580  148.6160 O   0  0  0  0  0  0  0  0  0  0  0  0
  161.4350  211.6480  152.5540 C   0  0  0  0  0  2  0  0  0  0  0  0
  160.0390  213.2090  151.2120 C   0  0  1  0  0  3  0  0  0  0  0  0
  159.0320  212.6320  152.1940 C   0  0  1  0  0  3  0  0  0  0  0  0
  160.1840  211.7670  151.6720 C   0  0  2  0  0  3  0  0  0  0  0  0
  159.2480  213.2700  153.5510 C   0  0  0  0  0  2  0  0  0  0  0  0
  156.8020  213.0480  153.8690 C   0  0  0  0  0  1  0  0  0  0  0  0
  157.9830  213.9860  153.9850 C   0  0  0  0  0  2  0  0  0  0  0  0
  159.4680  213.2620  149.8670 N   0  0  0  0  0  0  0  0  0  0  0  0
  161.1770  211.6220  148.3360 C   0  0  0  0  0  1  0  0  0  0  0  0
  161.1660  214.4450  146.8350 C   0  0  0  0  0  2  0  0  0  0  0  0
  159.9170  214.4110  147.6860 C   0  0  0  0  0  2  0  0  0  0  0  0
  161.6100  213.0650  148.5830 C   0  0  1  0  0  3  0  0  0  0  0  0
  162.1400  213.5850  147.3870 O   0  0  0  0  0  0  0  0  0  0  0  0
  160.4530  213.9600  149.0150 C   0  0  2  0  0  3  0  0  0  0  0  0
  158.2530  214.0740  149.9790 C   0  0  0  0  0  2  0  0  0  0  0  0
  157.0670  213.3340  149.3690 C   0  0  1  0  0  3  0  0  0  0  0  0
  157.8870  212.5160  146.0580 C   0  0  0  0  0  1  0  0  0  0  0  0
  156.1370  214.3140  148.6870 C   0  0  0  0  0  2  0  0  0  0  0  0
  156.4250  214.1190  147.2360 C   0  0  0  0  0  2  0  0  0  0  0  0
  156.9090  212.6930  147.2030 C   0  0  2  0  0  3  0  0  0  0  0  0
  157.5390  212.3990  148.4240 O   0  0  0  0  0  0  0  0  0  0  0  0
  1 13  1  1  0  0  0
  1  8  1  0  0  0  0
  1 10  1  0  0  0  0
  2  9  1  0  0  0  0
  4 31  1  6  0  0  0
  4  2  1  0  0  0  0
  6  8  1  1  0  0  0
  6  4  1  0  0  0  0
  6 11  1  0  0  0  0
  7  5  2  0  0  0  0
  9  7  1  0  0  0  0
 10  3  1  0  0  0  0
 11  3  1  6  0  0  0
 11 12  1  0  0  0  0
 12  7  1  0  0  0  0
 13 14  1  0  0  0  0
 15 13  2  0  0  0  0
 16 28  1  6  0  0  0
 16  1  1  0  0  0  0
 17 19  1  0  0  0  0
 18 17  1  0  0  0  0
 18 21  1  0  0  0  0
 19 16  1  1  0  0  0
 19 20  1  0  0  0  0
 21 23  1  0  0  0  0
 22 17  2  0  0  0  0
 23 20  1  0  0  0  0
 25 26  1  0  0  0  0
 26 21  1  0  0  0  0
 26 24  2  0  0  0  0
 26 27  2  0  0  0  0
 28 30  1  6  0  0  0
 28 29  1  0  0  0  0
 30 29  1  0  0  0  0
 32 38  1  6  0  0  0
 32 34  1  0  0  0  0
 32 33  1  0  0  0  0
 33 35  1  1  0  0  0
 34 33  1  0  0  0  0
 34 31  1  1  0  0  0
 35 37  1  0  0  0  0
 36 37  1  0  0  0  0
 38 45  1  0  0  0  0
 40 43  1  0  0  0  0
 40 41  1  0  0  0  0
 41 44  1  0  0  0  0
 42 39  1  6  0  0  0
 42 44  1  0  0  0  0
 43 42  1  0  0  0  0
 44 38  1  6  0  0  0
 46 45  1  6  0  0  0
 48 46  1  0  0  0  0
 49 48  1  0  0  0  0
 50 47  1  6  0  0  0
 50 49  1  0  0  0  0
 50 51  1  0  0  0  0
 51 46  1  0  0  0  0
M  END
>  <MODEL>
3

>  <REMARK>
 VINA RESULT:      -0.6      2.892      8.207
  Name = 
  13 active torsions:
  status: ('A' for Active; 'I' for Inactive)
    1  A    between atoms: C_2  and  N_37
    2  A    between atoms: C_5  and  C_10
    3  A    between atoms: C_5  and  C_15
    4  A    between atoms: C_9  and  C_15
    5  A    between atoms: C_12  and  C_43
    6  A    between atoms: C_15  and  C_21
    7  A    between atoms: C_16  and  C_51
    8  A    between atoms: C_19  and  C_32
    9  A    between atoms: S_24  and  N_39
   10  A    between atoms: C_32  and  C_40
   11  A    between atoms: N_37  and  C_43
   12  A    between atoms: N_37  and  C_45
   13  A    between atoms: C_38  and  C_51
                            x       y       z     vdW  Elec       q    Type
                         _______ _______ _______ _____ _____    ______ ____

>  <TORSDO>
F 13

$$$$
