=
 OpenBabel11072415293D

 59 64  0  0  1  0  0  0  0  0999 V2000
  160.9850  212.2270  148.1180 C   0  0  1  0  0  3  0  0  0  0  0  0
  160.3370  213.8090  146.2440 C   0  0  0  0  0  2  0  0  0  0  0  0
  160.3570  211.5000  145.8110 C   0  0  0  0  0  2  0  0  0  0  0  0
  157.8600  213.9060  146.2580 C   0  0  0  0  0  1  0  0  0  0  0  0
  161.0870  212.5540  146.6150 C   0  0  2  0  0  3  0  0  0  0  0  0
  159.0770  213.3180  145.5670 C   0  0  2  0  0  3  0  0  0  0  0  0
  159.0260  211.9150  145.6370 O   0  0  0  0  0  0  0  0  0  0  0  0
  162.2400  211.5700  148.5960 C   0  0  0  0  0  3  0  0  0  0  0  0
  162.2470  210.7480  149.6080 C   0  0  0  0  0  0  0  0  0  0  0  0
  162.2760  209.9110  150.6120 C   0  0  0  0  0  3  0  0  0  0  0  0
  161.3630  206.3270  151.4010 C   0  0  0  0  0  0  0  0  0  0  0  0
  161.3680  206.6210  149.0280 C   0  0  0  0  0  0  0  0  0  0  0  0
  161.9080  208.4940  150.4670 C   0  0  0  0  0  0  0  0  0  0  0  0
  161.7360  207.9640  149.1900 C   0  0  0  0  0  3  0  0  0  0  0  0
  161.1920  205.8420  150.1360 N   0  0  0  0  0  0  0  0  0  0  0  0
  161.7090  207.6700  151.5760 C   0  0  0  0  0  3  0  0  0  0  0  0
  160.7700  206.8730  146.6590 C   0  0  0  0  0  3  0  0  0  0  0  0
  160.5120  206.0240  145.1070 S   0  0  0  0  0  0  0  0  0  0  0  0
  161.2900  204.7150  147.2860 N   0  0  0  0  0  0  0  0  0  0  0  0
  161.1320  206.0850  147.6590 C   0  0  0  0  0  0  0  0  0  0  0  0
  161.0930  204.4650  145.8620 C   0  0  2  0  0  3  0  0  0  0  0  0
  161.4980  203.6190  148.2230 C   0  0  0  0  0  2  0  0  0  0  0  0
  160.7310  202.5180  147.8410 O   0  0  0  0  0  1  0  0  0  0  0  0
  163.5110  204.7490  145.4500 C   0  0  0  0  0  2  0  0  0  0  0  0
  162.3850  204.0750  145.2110 C   0  0  0  0  0  3  0  0  0  0  0  0
  161.1310  205.4870  152.6020 C   0  0  0  0  0  0  0  0  0  0  0  0
  161.0830  204.0560  152.5630 N   0  0  0  0  0  2  0  0  0  0  0  0
  160.9610  206.0530  153.7160 O   0  0  0  0  0  0  0  0  0  0  0  0
  161.4800  203.2250  151.4380 C   0  0  0  0  0  2  0  0  0  0  0  0
  160.3830  202.4910  150.9870 O   0  0  0  0  0  1  0  0  0  0  0  0
  160.7730  213.4710  148.9780 C   0  0  0  0  0  2  0  0  0  0  0  0
  159.6240  213.2810  149.9670 C   0  0  2  0  0  3  0  0  0  0  0  0
  158.2210  214.3680  148.3670 O   0  0  0  0  0  0  0  0  0  0  0  0
  157.4390  214.4080  150.5170 O   0  0  0  0  0  1  0  0  0  0  0  0
  158.3980  214.0530  149.5720 C   0  0  0  0  0  0  0  0  0  0  0  0
  160.0260  213.5660  151.3870 C   0  0  0  0  0  0  0  0  0  0  0  0
  160.8990  214.4500  151.6070 O   0  0  0  0  0  0  0  0  0  0  0  0
  159.4570  212.8360  152.4920 N   0  0  0  0  0  0  0  0  0  0  0  0
  158.3540  213.4130  153.2180 C   0  0  0  0  0  0  0  0  0  0  0  0
  155.9090  213.5040  153.7480 C   0  0  0  0  0  0  0  0  0  0  0  0
  158.6420  214.4440  154.2680 C   0  0  0  0  0  2  0  0  0  0  0  0
  157.0810  213.5660  155.9830 C   0  0  0  0  0  0  0  0  0  0  0  0
  156.8250  212.2180  151.8660 O   0  0  0  0  0  1  0  0  0  0  0  0
  154.7010  213.6730  153.0820 O   0  0  0  0  0  1  0  0  0  0  0  0
  158.3190  213.9110  155.6250 C   0  0  0  0  0  3  0  0  0  0  0  0
  155.9170  213.6820  155.0810 C   0  0  0  0  0  3  0  0  0  0  0  0
  157.0820  213.0470  152.9530 C   0  0  0  0  0  0  0  0  0  0  0  0
  156.8640  213.1680  157.2610 F   0  0  0  0  0  0  0  0  0  0  0  0
  159.3150  210.5010  153.2980 C   0  0  0  0  0  2  0  0  0  0  0  0
  161.4930  210.5930  155.2280 C   0  0  1  0  0  3  0  0  0  0  0  0
  161.8990  210.6970  156.6890 C   0  0  0  0  0  1  0  0  0  0  0  0
  160.3830  209.5420  155.0280 C   0  0  1  0  0  3  0  0  0  0  0  0
  160.2010  211.7310  153.1110 C   0  0  2  0  0  3  0  0  0  0  0  0
  160.9120  212.2490  154.7110 S   0  0  0  0  0  0  0  0  0  0  0  0
  160.1060  209.4020  153.6540 O   0  0  0  0  0  0  0  0  0  0  0  0
  159.5730  207.3540  156.1090 C   0  0  0  0  0  0  0  0  0  0  0  0
  160.4390  208.1860  157.0530 C   0  0  0  0  0  2  0  0  0  0  0  0
  160.7780  208.1940  155.6600 C   0  0  2  0  0  3  0  0  0  0  0  0
  158.6340  206.6090  155.8810 O   0  0  0  0  0  0  0  0  0  0  0  0
  1  8  1  1  0  0  0
  1 31  1  0  0  0  0
  2  5  1  0  0  0  0
  3  5  1  0  0  0  0
  5  1  1  1  0  0  0
  6  7  1  0  0  0  0
  6  2  1  0  0  0  0
  6  4  1  1  0  0  0
  7  3  1  0  0  0  0
  8  9  2  0  0  0  0
  9 10  2  0  0  0  0
 11 16  1  0  0  0  0
 11 26  1  0  0  0  0
 12 14  2  0  0  0  0
 12 15  1  0  0  0  0
 13 10  1  0  0  0  0
 13 16  2  0  0  0  0
 14 13  1  0  0  0  0
 15 11  2  0  0  0  0
 17 20  2  0  0  0  0
 18 21  1  0  0  0  0
 18 17  1  0  0  0  0
 19 20  1  0  0  0  0
 19 22  1  0  0  0  0
 20 12  1  0  0  0  0
 21 25  1  6  0  0  0
 21 19  1  0  0  0  0
 23 22  1  0  0  0  0
 25 24  2  0  0  0  0
 26 28  2  0  0  0  0
 27 26  1  0  0  0  0
 29 27  1  0  0  0  0
 30 29  1  0  0  0  0
 32 31  1  6  0  0  0
 32 36  1  0  0  0  0
 33 35  2  0  0  0  0
 35 32  1  0  0  0  0
 35 34  1  0  0  0  0
 36 37  2  0  0  0  0
 36 38  1  0  0  0  0
 38 39  1  0  0  0  0
 39 41  1  0  0  0  0
 40 46  2  0  0  0  0
 41 45  1  0  0  0  0
 42 48  1  0  0  0  0
 43 47  1  0  0  0  0
 44 40  1  0  0  0  0
 45 42  2  0  0  0  0
 46 42  1  0  0  0  0
 47 39  2  0  0  0  0
 47 40  1  0  0  0  0
 49 55  1  0  0  0  0
 50 51  1  1  0  0  0
 52 55  1  6  0  0  0
 52 50  1  0  0  0  0
 52 58  1  0  0  0  0
 53 38  1  1  0  0  0
 53 49  1  0  0  0  0
 53 54  1  0  0  0  0
 54 50  1  0  0  0  0
 56 57  1  0  0  0  0
 58 56  1  0  0  0  0
 58 57  1  1  0  0  0
 59 56  2  0  0  0  0
M  END
>  <MODEL>
1

>  <REMARK>
 VINA RESULT:      -4.1      0.000      0.000
  Name = 
  15 active torsions:
  status: ('A' for Active; 'I' for Inactive)
    1  A    between atoms: C_2  and  N_29
    2  A    between atoms: C_3  and  C_4
    3  A    between atoms: C_4  and  C_15
    4  A    between atoms: C_4  and  C_38
    5  A    between atoms: C_5  and  C_6
    6  A    between atoms: C_7  and  N_49
    7  A    between atoms: C_14  and  C_33
    8  A    between atoms: C_15  and  C_52
    9  A    between atoms: C_18  and  C_50
   10  A    between atoms: C_19  and  C_52
   11  A    between atoms: C_20  and  C_25
   12  A    between atoms: N_31  and  C_43
   13  A    between atoms: C_36  and  N_49
   14  A    between atoms: C_37  and  C_41
   15  A    between atoms: C_52  and  C_59
                            x       y       z     vdW  Elec       q    Type
                         _______ _______ _______ _____ _____    ______ ____

>  <TORSDO>
F 15

$$$$
=
 OpenBabel11072415293D

 59 64  0  0  1  0  0  0  0  0999 V2000
  161.3000  207.9900  153.8180 C   0  0  1  0  0  3  0  0  0  0  0  0
  160.6910  209.3790  155.8510 C   0  0  0  0  0  2  0  0  0  0  0  0
  161.1680  207.0980  156.1490 C   0  0  0  0  0  2  0  0  0  0  0  0
  162.8390  210.0840  156.8670 C   0  0  0  0  0  1  0  0  0  0  0  0
  160.5370  208.0500  155.1560 C   0  0  2  0  0  3  0  0  0  0  0  0
  161.6750  209.1160  156.9700 C   0  0  2  0  0  3  0  0  0  0  0  0
  162.1480  207.7960  156.8730 O   0  0  0  0  0  0  0  0  0  0  0  0
  161.9010  206.6360  153.6190 C   0  0  0  0  0  3  0  0  0  0  0  0
  161.3120  205.7170  152.9050 C   0  0  0  0  0  0  0  0  0  0  0  0
  160.7460  204.7860  152.1830 C   0  0  0  0  0  3  0  0  0  0  0  0
  161.0060  205.8580  148.5660 C   0  0  0  0  0  0  0  0  0  0  0  0
  161.0300  203.4690  148.6700 C   0  0  0  0  0  0  0  0  0  0  0  0
  160.8510  204.7530  150.7160 C   0  0  0  0  0  0  0  0  0  0  0  0
  160.9130  203.5230  150.0660 C   0  0  0  0  0  3  0  0  0  0  0  0
  161.0740  204.6350  147.9610 N   0  0  0  0  0  0  0  0  0  0  0  0
  160.9090  205.9250  149.9580 C   0  0  0  0  0  3  0  0  0  0  0  0
  161.0870  201.0130  148.6740 C   0  0  0  0  0  3  0  0  0  0  0  0
  161.2850  199.5430  147.6770 S   0  0  0  0  0  0  0  0  0  0  0  0
  161.3240  201.9680  146.5880 N   0  0  0  0  0  0  0  0  0  0  0  0
  161.1540  202.1470  147.9950 C   0  0  0  0  0  0  0  0  0  0  0  0
  161.3180  200.5710  146.1660 C   0  0  2  0  0  3  0  0  0  0  0  0
  161.6110  203.0400  145.6450 C   0  0  0  0  0  2  0  0  0  0  0  0
  162.9720  203.3490  145.6800 O   0  0  0  0  0  1  0  0  0  0  0  0
  159.4560  201.2250  144.6830 C   0  0  0  0  0  2  0  0  0  0  0  0
  160.0930  200.2690  145.3590 C   0  0  0  0  0  3  0  0  0  0  0  0
  161.0930  207.1220  147.7940 C   0  0  0  0  0  0  0  0  0  0  0  0
  161.3830  207.1680  146.3920 N   0  0  0  0  0  2  0  0  0  0  0  0
  160.9100  208.2140  148.3960 O   0  0  0  0  0  0  0  0  0  0  0  0
  161.3950  206.0280  145.4910 C   0  0  0  0  0  2  0  0  0  0  0  0
  160.8270  206.3890  144.2690 O   0  0  0  0  0  1  0  0  0  0  0  0
  160.4000  208.2640  152.6150 C   0  0  0  0  0  2  0  0  0  0  0  0
  160.9330  209.4170  151.7650 C   0  0  2  0  0  3  0  0  0  0  0  0
  162.8220  209.9370  150.3990 O   0  0  0  0  0  0  0  0  0  0  0  0
  162.7070  207.7600  151.0920 O   0  0  0  0  0  1  0  0  0  0  0  0
  162.1980  209.0560  151.0430 C   0  0  0  0  0  0  0  0  0  0  0  0
  161.0820  210.6930  152.5450 C   0  0  0  0  0  0  0  0  0  0  0  0
  162.2250  211.0130  152.9760 O   0  0  0  0  0  0  0  0  0  0  0  0
  159.9520  211.5410  152.8290 N   0  0  0  0  0  0  0  0  0  0  0  0
  159.6980  212.6770  151.9800 C   0  0  0  0  0  0  0  0  0  0  0  0
  159.8560  213.8050  149.7500 C   0  0  0  0  0  0  0  0  0  0  0  0
  158.8930  213.8190  152.5240 C   0  0  0  0  0  2  0  0  0  0  0  0
  157.4790  214.1690  150.5170 C   0  0  0  0  0  0  0  0  0  0  0  0
  161.0660  211.7380  150.2940 O   0  0  0  0  0  1  0  0  0  0  0  0
  160.8320  214.1680  148.8300 O   0  0  0  0  0  1  0  0  0  0  0  0
  157.5780  213.9100  151.8230 C   0  0  0  0  0  3  0  0  0  0  0  0
  158.6520  214.3930  149.6470 C   0  0  0  0  0  3  0  0  0  0  0  0
  160.1850  212.7260  150.7210 C   0  0  0  0  0  0  0  0  0  0  0  0
  156.2440  214.3150  149.9780 F   0  0  0  0  0  0  0  0  0  0  0  0
  157.8040  211.2180  154.0140 C   0  0  0  0  0  2  0  0  0  0  0  0
  158.4490  212.6760  156.4500 C   0  0  1  0  0  3  0  0  0  0  0  0
  158.2880  213.9590  157.2480 C   0  0  0  0  0  1  0  0  0  0  0  0
  157.0910  212.1720  155.9210 C   0  0  1  0  0  3  0  0  0  0  0  0
  159.3010  211.4900  154.1450 C   0  0  2  0  0  3  0  0  0  0  0  0
  159.5840  213.0430  155.0630 S   0  0  0  0  0  0  0  0  0  0  0  0
  157.2660  210.9320  155.2750 O   0  0  0  0  0  0  0  0  0  0  0  0
  154.8550  211.1800  156.7110 C   0  0  0  0  0  0  0  0  0  0  0  0
  154.8350  212.7070  156.6690 C   0  0  0  0  0  2  0  0  0  0  0  0
  156.0580  212.0690  157.0580 C   0  0  2  0  0  3  0  0  0  0  0  0
  154.3280  210.0890  156.5640 O   0  0  0  0  0  0  0  0  0  0  0  0
  1 31  1  6  0  0  0
  2  6  1  0  0  0  0
  3  7  1  0  0  0  0
  5  1  1  6  0  0  0
  5  2  1  0  0  0  0
  5  3  1  0  0  0  0
  6  4  1  6  0  0  0
  7  6  1  0  0  0  0
  8  1  1  0  0  0  0
  9  8  2  0  0  0  0
 10  9  2  0  0  0  0
 11 16  1  0  0  0  0
 12 14  2  0  0  0  0
 13 10  1  0  0  0  0
 14 13  1  0  0  0  0
 15 11  2  0  0  0  0
 15 12  1  0  0  0  0
 16 13  2  0  0  0  0
 18 17  1  0  0  0  0
 19 20  1  0  0  0  0
 20 12  1  0  0  0  0
 20 17  2  0  0  0  0
 21 25  1  6  0  0  0
 21 19  1  0  0  0  0
 21 18  1  0  0  0  0
 22 23  1  0  0  0  0
 22 19  1  0  0  0  0
 24 25  2  0  0  0  0
 26 28  2  0  0  0  0
 26 11  1  0  0  0  0
 27 26  1  0  0  0  0
 29 27  1  0  0  0  0
 30 29  1  0  0  0  0
 32 36  1  0  0  0  0
 32 31  1  1  0  0  0
 33 35  2  0  0  0  0
 35 34  1  0  0  0  0
 35 32  1  0  0  0  0
 36 38  1  0  0  0  0
 36 37  2  0  0  0  0
 39 41  1  0  0  0  0
 39 38  1  0  0  0  0
 40 47  1  0  0  0  0
 42 45  2  0  0  0  0
 43 47  1  0  0  0  0
 44 40  1  0  0  0  0
 45 41  1  0  0  0  0
 46 40  2  0  0  0  0
 46 42  1  0  0  0  0
 47 39  2  0  0  0  0
 48 42  1  0  0  0  0
 49 53  1  0  0  0  0
 49 55  1  0  0  0  0
 50 51  1  6  0  0  0
 52 55  1  1  0  0  0
 52 50  1  0  0  0  0
 52 58  1  0  0  0  0
 53 38  1  6  0  0  0
 53 54  1  0  0  0  0
 54 50  1  0  0  0  0
 56 58  1  0  0  0  0
 57 56  1  0  0  0  0
 58 57  1  6  0  0  0
 59 56  2  0  0  0  0
M  END
>  <MODEL>
2

>  <REMARK>
 VINA RESULT:      -3.8      2.788      6.085
  Name = 
  15 active torsions:
  status: ('A' for Active; 'I' for Inactive)
    1  A    between atoms: C_2  and  N_29
    2  A    between atoms: C_3  and  C_4
    3  A    between atoms: C_4  and  C_15
    4  A    between atoms: C_4  and  C_38
    5  A    between atoms: C_5  and  C_6
    6  A    between atoms: C_7  and  N_49
    7  A    between atoms: C_14  and  C_33
    8  A    between atoms: C_15  and  C_52
    9  A    between atoms: C_18  and  C_50
   10  A    between atoms: C_19  and  C_52
   11  A    between atoms: C_20  and  C_25
   12  A    between atoms: N_31  and  C_43
   13  A    between atoms: C_36  and  N_49
   14  A    between atoms: C_37  and  C_41
   15  A    between atoms: C_52  and  C_59
                            x       y       z     vdW  Elec       q    Type
                         _______ _______ _______ _____ _____    ______ ____

>  <TORSDO>
F 15

$$$$
=
 OpenBabel11072415293D

 59 64  0  0  1  0  0  0  0  0999 V2000
  161.2780  208.0920  153.2230 C   0  0  1  0  0  3  0  0  0  0  0  0
  160.4800  209.4360  155.2200 C   0  0  0  0  0  2  0  0  0  0  0  0
  160.6370  207.1010  155.4260 C   0  0  0  0  0  2  0  0  0  0  0  0
  162.4810  209.8160  156.6330 C   0  0  0  0  0  1  0  0  0  0  0  0
  160.3020  208.1750  154.4130 C   0  0  2  0  0  3  0  0  0  0  0  0
  161.2150  208.9950  156.4660 C   0  0  2  0  0  3  0  0  0  0  0  0
  161.5470  207.6340  156.3550 O   0  0  0  0  0  0  0  0  0  0  0  0
  162.1590  206.8910  153.3510 C   0  0  0  0  0  3  0  0  0  0  0  0
  161.7090  205.6810  153.1660 C   0  0  0  0  0  0  0  0  0  0  0  0
  161.2830  204.4600  152.9710 C   0  0  0  0  0  3  0  0  0  0  0  0
  160.8600  201.9880  150.1420 C   0  0  0  0  0  0  0  0  0  0  0  0
  160.9880  204.1950  149.2300 C   0  0  0  0  0  0  0  0  0  0  0  0
  161.1420  203.8800  151.6270 C   0  0  0  0  0  0  0  0  0  0  0  0
  161.1400  204.7250  150.5190 C   0  0  0  0  0  3  0  0  0  0  0  0
  160.8530  202.8450  149.0780 N   0  0  0  0  0  0  0  0  0  0  0  0
  160.9900  202.5060  151.4330 C   0  0  0  0  0  3  0  0  0  0  0  0
  160.7370  206.4160  148.2120 C   0  0  0  0  0  3  0  0  0  0  0  0
  160.6740  207.3350  146.6800 S   0  0  0  0  0  0  0  0  0  0  0  0
  161.0980  204.7110  146.7010 N   0  0  0  0  0  0  0  0  0  0  0  0
  160.9300  205.1150  148.0610 C   0  0  0  0  0  0  0  0  0  0  0  0
  161.0960  205.8190  145.7520 C   0  0  2  0  0  3  0  0  0  0  0  0
  161.1390  203.3270  146.2470 C   0  0  0  0  0  2  0  0  0  0  0  0
  160.4220  203.1990  145.0560 O   0  0  0  0  0  1  0  0  0  0  0  0
  163.4790  205.2230  145.5050 C   0  0  0  0  0  2  0  0  0  0  0  0
  162.4540  205.9970  145.1450 C   0  0  0  0  0  3  0  0  0  0  0  0
  160.6730  200.5260  149.9740 C   0  0  0  0  0  0  0  0  0  0  0  0
  160.9350  199.8360  148.7460 N   0  0  0  0  0  2  0  0  0  0  0  0
  160.2580  199.8500  150.9540 O   0  0  0  0  0  0  0  0  0  0  0  0
  161.6270  200.3880  147.5940 C   0  0  0  0  0  2  0  0  0  0  0  0
  161.5320  199.5040  146.5200 O   0  0  0  0  0  1  0  0  0  0  0  0
  160.5580  207.9800  151.8810 C   0  0  0  0  0  2  0  0  0  0  0  0
  160.9540  209.1120  150.9340 C   0  0  2  0  0  3  0  0  0  0  0  0
  162.8660  207.8010  150.3570 O   0  0  0  0  0  1  0  0  0  0  0  0
  162.2610  209.3580  148.7940 O   0  0  0  0  0  0  0  0  0  0  0  0
  162.0820  208.7240  150.0210 C   0  0  0  0  0  0  0  0  0  0  0  0
  161.2400  210.4000  151.6540 C   0  0  0  0  0  0  0  0  0  0  0  0
  162.4250  210.6490  152.0080 O   0  0  0  0  0  0  0  0  0  0  0  0
  160.1910  211.3360  151.9690 N   0  0  0  0  0  0  0  0  0  0  0  0
  159.9690  212.4590  151.0930 C   0  0  0  0  0  0  0  0  0  0  0  0
  160.5150  213.7310  149.0060 C   0  0  0  0  0  0  0  0  0  0  0  0
  158.8450  213.4030  151.4000 C   0  0  0  0  0  2  0  0  0  0  0  0
  157.9940  213.6160  149.0800 C   0  0  0  0  0  0  0  0  0  0  0  0
  161.8980  211.8840  149.8500 O   0  0  0  0  0  1  0  0  0  0  0  0
  161.6180  214.3190  148.4000 O   0  0  0  0  0  1  0  0  0  0  0  0
  157.7790  213.3000  150.3590 C   0  0  0  0  0  3  0  0  0  0  0  0
  159.2960  214.1000  148.5750 C   0  0  0  0  0  3  0  0  0  0  0  0
  160.7630  212.6710  150.0220 C   0  0  0  0  0  0  0  0  0  0  0  0
  156.9490  213.5720  148.2180 F   0  0  0  0  0  0  0  0  0  0  0  0
  158.0910  211.2950  153.2780 C   0  0  0  0  0  2  0  0  0  0  0  0
  159.0530  212.6790  155.6510 C   0  0  1  0  0  3  0  0  0  0  0  0
  159.1010  213.9790  156.4390 C   0  0  0  0  0  1  0  0  0  0  0  0
  157.6150  212.3460  155.2080 C   0  0  1  0  0  3  0  0  0  0  0  0
  159.6160  211.3780  153.3200 C   0  0  2  0  0  3  0  0  0  0  0  0
  160.1430  212.8900  154.1980 S   0  0  0  0  0  0  0  0  0  0  0  0
  157.5960  211.0890  154.5720 O   0  0  0  0  0  0  0  0  0  0  0  0
  155.4070  211.4940  156.2110 C   0  0  0  0  0  0  0  0  0  0  0  0
  155.4150  213.0090  156.0170 C   0  0  0  0  0  2  0  0  0  0  0  0
  156.6450  212.3820  156.4030 C   0  0  2  0  0  3  0  0  0  0  0  0
  154.8510  210.4070  156.2030 O   0  0  0  0  0  0  0  0  0  0  0  0
  1 31  1  6  0  0  0
  1  8  1  0  0  0  0
  2  6  1  0  0  0  0
  3  7  1  0  0  0  0
  5  1  1  6  0  0  0
  5  2  1  0  0  0  0
  5  3  1  0  0  0  0
  6  4  1  6  0  0  0
  7  6  1  0  0  0  0
  9  8  2  0  0  0  0
 10  9  2  0  0  0  0
 11 16  1  0  0  0  0
 12 14  2  0  0  0  0
 13 10  1  0  0  0  0
 14 13  1  0  0  0  0
 15 12  1  0  0  0  0
 15 11  2  0  0  0  0
 16 13  2  0  0  0  0
 18 17  1  0  0  0  0
 19 20  1  0  0  0  0
 20 17  2  0  0  0  0
 20 12  1  0  0  0  0
 21 25  1  1  0  0  0
 21 18  1  0  0  0  0
 21 19  1  0  0  0  0
 22 19  1  0  0  0  0
 23 22  1  0  0  0  0
 25 24  2  0  0  0  0
 26 11  1  0  0  0  0
 26 28  2  0  0  0  0
 27 26  1  0  0  0  0
 29 27  1  0  0  0  0
 30 29  1  0  0  0  0
 32 36  1  0  0  0  0
 32 31  1  1  0  0  0
 34 35  2  0  0  0  0
 35 33  1  0  0  0  0
 35 32  1  0  0  0  0
 36 38  1  0  0  0  0
 36 37  2  0  0  0  0
 39 41  1  0  0  0  0
 39 38  1  0  0  0  0
 40 47  1  0  0  0  0
 42 45  2  0  0  0  0
 43 47  1  0  0  0  0
 44 40  1  0  0  0  0
 45 41  1  0  0  0  0
 46 40  2  0  0  0  0
 46 42  1  0  0  0  0
 47 39  2  0  0  0  0
 48 42  1  0  0  0  0
 49 53  1  0  0  0  0
 49 55  1  0  0  0  0
 50 51  1  6  0  0  0
 52 55  1  1  0  0  0
 52 50  1  0  0  0  0
 52 58  1  0  0  0  0
 53 38  1  6  0  0  0
 53 54  1  0  0  0  0
 54 50  1  0  0  0  0
 56 58  1  0  0  0  0
 57 56  1  0  0  0  0
 58 57  1  6  0  0  0
 59 56  2  0  0  0  0
M  END
>  <MODEL>
3

>  <REMARK>
 VINA RESULT:      -3.5      2.487      5.863
  Name = 
  15 active torsions:
  status: ('A' for Active; 'I' for Inactive)
    1  A    between atoms: C_2  and  N_29
    2  A    between atoms: C_3  and  C_4
    3  A    between atoms: C_4  and  C_15
    4  A    between atoms: C_4  and  C_38
    5  A    between atoms: C_5  and  C_6
    6  A    between atoms: C_7  and  N_49
    7  A    between atoms: C_14  and  C_33
    8  A    between atoms: C_15  and  C_52
    9  A    between atoms: C_18  and  C_50
   10  A    between atoms: C_19  and  C_52
   11  A    between atoms: C_20  and  C_25
   12  A    between atoms: N_31  and  C_43
   13  A    between atoms: C_36  and  N_49
   14  A    between atoms: C_37  and  C_41
   15  A    between atoms: C_52  and  C_59
                            x       y       z     vdW  Elec       q    Type
                         _______ _______ _______ _____ _____    ______ ____

>  <TORSDO>
F 15

$$$$
=
 OpenBabel11072415293D

 59 64  0  0  1  0  0  0  0  0999 V2000
  162.1880  210.0420  150.5770 C   0  0  1  0  0  3  0  0  0  0  0  0
  160.5640  209.0770  152.2690 C   0  0  0  0  0  2  0  0  0  0  0  0
  162.2000  210.5890  153.0150 C   0  0  0  0  0  2  0  0  0  0  0  0
  158.7450  210.7450  152.5000 C   0  0  0  0  0  1  0  0  0  0  0  0
  161.9900  209.4860  152.0010 C   0  0  2  0  0  3  0  0  0  0  0  0
  160.0030  210.1830  153.1360 C   0  0  2  0  0  3  0  0  0  0  0  0
  160.9610  211.2030  153.2670 O   0  0  0  0  0  0  0  0  0  0  0  0
  161.1900  209.4450  149.6390 C   0  0  0  0  0  3  0  0  0  0  0  0
  161.4270  208.3400  148.9880 C   0  0  0  0  0  0  0  0  0  0  0  0
  161.6370  207.2260  148.3370 C   0  0  0  0  0  3  0  0  0  0  0  0
  161.0490  204.4880  150.8780 C   0  0  0  0  0  0  0  0  0  0  0  0
  161.2770  203.5000  148.7120 C   0  0  0  0  0  0  0  0  0  0  0  0
  161.4480  205.9050  148.9540 C   0  0  0  0  0  0  0  0  0  0  0  0
  161.4730  204.7690  148.1480 C   0  0  0  0  0  3  0  0  0  0  0  0
  161.0700  203.3960  150.0570 N   0  0  0  0  0  0  0  0  0  0  0  0
  161.2230  205.7590  150.3240 C   0  0  0  0  0  3  0  0  0  0  0  0
  161.1480  201.0780  148.3250 C   0  0  0  0  0  3  0  0  0  0  0  0
  161.1600  199.7800  147.0950 S   0  0  0  0  0  0  0  0  0  0  0  0
  161.3000  202.3430  146.4030 N   0  0  0  0  0  0  0  0  0  0  0  0
  161.2490  202.3010  147.8290 C   0  0  0  0  0  0  0  0  0  0  0  0
  161.1580  201.0370  145.7680 C   0  0  2  0  0  3  0  0  0  0  0  0
  161.5960  203.5350  145.6180 C   0  0  0  0  0  2  0  0  0  0  0  0
  162.9770  203.6740  145.4710 O   0  0  0  0  0  1  0  0  0  0  0  0
  159.1650  202.0410  144.7130 C   0  0  0  0  0  2  0  0  0  0  0  0
  159.8570  200.9470  145.0320 C   0  0  0  0  0  3  0  0  0  0  0  0
  160.7860  204.3730  152.3330 C   0  0  0  0  0  0  0  0  0  0  0  0
  161.4750  205.1490  153.3200 N   0  0  0  0  0  2  0  0  0  0  0  0
  159.9180  203.5490  152.7300 O   0  0  0  0  0  0  0  0  0  0  0  0
  162.3260  206.2960  153.0540 C   0  0  0  0  0  2  0  0  0  0  0  0
  162.2080  207.2210  154.0920 O   0  0  0  0  0  1  0  0  0  0  0  0
  162.0190  211.5580  150.5090 C   0  0  0  0  0  2  0  0  0  0  0  0
  161.8780  212.0450  149.0680 C   0  0  2  0  0  3  0  0  0  0  0  0
  164.0650  212.6970  148.3600 O   0  0  0  0  0  1  0  0  0  0  0  0
  163.3090  210.7340  147.4610 O   0  0  0  0  0  0  0  0  0  0  0  0
  163.1380  211.8510  148.2750 C   0  0  0  0  0  0  0  0  0  0  0  0
  161.3760  213.4580  148.9780 C   0  0  0  0  0  0  0  0  0  0  0  0
  162.2150  214.3990  148.9040 O   0  0  0  0  0  0  0  0  0  0  0  0
  159.9680  213.7610  148.9990 N   0  0  0  0  0  0  0  0  0  0  0  0
  159.2770  213.9680  147.7510 C   0  0  0  0  0  0  0  0  0  0  0  0
  159.2450  213.9130  145.2480 C   0  0  0  0  0  0  0  0  0  0  0  0
  157.8260  214.3440  147.7830 C   0  0  0  0  0  2  0  0  0  0  0  0
  157.0850  212.8230  145.9690 C   0  0  0  0  0  0  0  0  0  0  0  0
  161.3010  213.6580  146.5670 O   0  0  0  0  0  1  0  0  0  0  0  0
  159.9600  214.4450  144.1820 O   0  0  0  0  0  1  0  0  0  0  0  0
  156.9890  213.2360  147.2350 C   0  0  0  0  0  3  0  0  0  0  0  0
  158.0200  213.4220  144.9940 C   0  0  0  0  0  3  0  0  0  0  0  0
  159.9220  213.8410  146.5720 C   0  0  0  0  0  0  0  0  0  0  0  0
  156.2290  211.8670  145.5330 F   0  0  0  0  0  0  0  0  0  0  0  0
  159.9160  213.5240  151.4620 C   0  0  0  0  0  2  0  0  0  0  0  0
  157.1790  214.4070  151.9080 C   0  0  1  0  0  3  0  0  0  0  0  0
  155.7410  214.0080  152.1960 C   0  0  0  0  0  1  0  0  0  0  0  0
  158.1600  213.6870  152.8550 C   0  0  1  0  0  3  0  0  0  0  0  0
  159.3290  214.2240  150.2380 C   0  0  2  0  0  3  0  0  0  0  0  0
  157.5230  213.9650  150.1670 S   0  0  0  0  0  0  0  0  0  0  0  0
  159.4680  214.1570  152.6270 O   0  0  0  0  0  0  0  0  0  0  0  0
  157.8900  212.5980  155.1680 C   0  0  0  0  0  0  0  0  0  0  0  0
  156.5660  213.1120  154.6060 C   0  0  0  0  0  2  0  0  0  0  0  0
  157.7470  213.8750  154.3260 C   0  0  2  0  0  3  0  0  0  0  0  0
  158.5570  211.7870  155.7920 O   0  0  0  0  0  0  0  0  0  0  0  0
  1  8  1  6  0  0  0
  2  6  1  0  0  0  0
  3  7  1  0  0  0  0
  5  1  1  6  0  0  0
  5  2  1  0  0  0  0
  5  3  1  0  0  0  0
  6  4  1  6  0  0  0
  6  7  1  0  0  0  0
  9  8  2  0  0  0  0
 10 13  1  0  0  0  0
 10  9  2  0  0  0  0
 11 26  1  0  0  0  0
 12 15  1  0  0  0  0
 13 16  2  0  0  0  0
 14 12  2  0  0  0  0
 14 13  1  0  0  0  0
 15 11  2  0  0  0  0
 16 11  1  0  0  0  0
 18 17  1  0  0  0  0
 19 20  1  0  0  0  0
 20 17  2  0  0  0  0
 20 12  1  0  0  0  0
 21 25  1  1  0  0  0
 21 19  1  0  0  0  0
 21 18  1  0  0  0  0
 22 19  1  0  0  0  0
 23 22  1  0  0  0  0
 24 25  2  0  0  0  0
 26 28  2  0  0  0  0
 26 27  1  0  0  0  0
 29 27  1  0  0  0  0
 29 30  1  0  0  0  0
 31  1  1  0  0  0  0
 32 31  1  1  0  0  0
 34 35  2  0  0  0  0
 35 33  1  0  0  0  0
 35 32  1  0  0  0  0
 36 38  1  0  0  0  0
 36 32  1  0  0  0  0
 37 36  2  0  0  0  0
 39 41  1  0  0  0  0
 39 38  1  0  0  0  0
 40 47  1  0  0  0  0
 42 45  2  0  0  0  0
 43 47  1  0  0  0  0
 44 40  1  0  0  0  0
 45 41  1  0  0  0  0
 46 40  2  0  0  0  0
 46 42  1  0  0  0  0
 47 39  2  0  0  0  0
 48 42  1  0  0  0  0
 49 55  1  0  0  0  0
 50 51  1  1  0  0  0
 50 52  1  0  0  0  0
 52 55  1  1  0  0  0
 52 58  1  0  0  0  0
 53 38  1  6  0  0  0
 53 49  1  0  0  0  0
 54 53  1  0  0  0  0
 54 50  1  0  0  0  0
 56 59  2  0  0  0  0
 57 56  1  0  0  0  0
 58 57  1  6  0  0  0
 58 56  1  0  0  0  0
M  END
>  <MODEL>
4

>  <REMARK>
 VINA RESULT:      -1.9      2.854      5.791
  Name = 
  15 active torsions:
  status: ('A' for Active; 'I' for Inactive)
    1  A    between atoms: C_2  and  N_29
    2  A    between atoms: C_3  and  C_4
    3  A    between atoms: C_4  and  C_15
    4  A    between atoms: C_4  and  C_38
    5  A    between atoms: C_5  and  C_6
    6  A    between atoms: C_7  and  N_49
    7  A    between atoms: C_14  and  C_33
    8  A    between atoms: C_15  and  C_52
    9  A    between atoms: C_18  and  C_50
   10  A    between atoms: C_19  and  C_52
   11  A    between atoms: C_20  and  C_25
   12  A    between atoms: N_31  and  C_43
   13  A    between atoms: C_36  and  N_49
   14  A    between atoms: C_37  and  C_41
   15  A    between atoms: C_52  and  C_59
                            x       y       z     vdW  Elec       q    Type
                         _______ _______ _______ _____ _____    ______ ____

>  <TORSDO>
F 15

$$$$
