=
 OpenBabel11072410173D

 33 38  0  0  1  0  0  0  0  0999 V2000
  162.4700  207.6830  150.5420 C   0  0  0  0  0  0  0  0  0  0  0  0
  161.7780  209.9530  149.0890 C   0  0  0  0  0  3  0  0  0  0  0  0
  161.5270  209.9190  150.4630 C   0  0  0  0  0  3  0  0  0  0  0  0
  162.7270  207.7750  149.1710 C   0  0  0  0  0  3  0  0  0  0  0  0
  161.8790  208.7800  151.2040 C   0  0  0  0  0  0  0  0  0  0  0  0
  162.3730  208.8920  148.4780 N   0  0  0  0  0  0  0  0  0  0  0  0
  159.7290  208.7600  155.4870 C   0  0  0  0  0  2  0  0  0  0  0  0
  160.1950  208.9460  153.0450 C   0  0  0  0  0  2  0  0  0  0  0  0
  161.6690  211.4950  154.9290 C   0  0  0  0  0  2  0  0  0  0  0  0
  159.0250  209.6190  156.5240 C   0  0  0  0  0  2  0  0  0  0  0  0
  159.3590  210.9720  154.4240 C   0  0  1  0  0  0  0  0  0  0  0  0
  162.3800  209.8140  153.4360 C   0  0  0  0  0  2  0  0  0  0  0  0
  157.8250  213.1060  155.6860 O   0  0  0  0  0  1  0  0  0  0  0  0
  161.6230  210.0610  154.6570 N   0  0  2  0  0  0  0  0  0  0  0  0
  157.0410  210.8520  155.6290 C   0  0  0  0  0  2  0  0  0  0  0  0
  158.4840  211.1910  153.1820 C   0  0  0  0  0  1  0  0  0  0  0  0
  161.6420  208.7290  152.6870 C   0  0  2  0  0  3  0  0  0  0  0  0
  157.7790  211.9210  156.4270 C   0  0  1  0  0  3  0  0  0  0  0  0
  160.3480  212.1110  154.5290 C   0  0  0  0  0  2  0  0  0  0  0  0
  158.5540  210.8080  155.7270 C   0  0  1  0  0  0  0  0  0  0  0  0
  160.2290  209.6930  154.3770 C   0  0  1  0  0  0  0  0  0  0  0  0
  162.8500  206.5050  151.2550 N   0  0  0  0  0  2  0  0  0  0  0  0
  162.3190  204.4550  152.2030 O   0  0  0  0  0  0  0  0  0  0  0  0
  162.0790  205.2950  151.2990 C   0  0  0  0  0  0  0  0  0  0  0  0
  161.0420  204.9530  150.2630 C   0  0  2  0  0  3  0  0  0  0  0  0
  160.9360  202.7410  148.3860 C   0  0  0  0  0  0  0  0  0  0  0  0
  160.3820  203.6220  150.5400 C   0  0  0  0  0  0  0  0  0  0  0  0
  159.7880  203.4280  151.6350 O   0  0  0  0  0  0  0  0  0  0  0  0
  160.4040  202.5800  149.5590 N   0  0  0  0  0  0  0  0  0  0  0  0
  161.5780  205.0520  148.8590 C   0  0  0  0  0  3  0  0  0  0  0  0
  161.5330  204.0350  147.9950 C   0  0  0  0  0  0  0  0  0  0  0  0
  160.9240  201.6110  147.4240 C   0  0  0  0  0  1  0  0  0  0  0  0
  162.0530  204.1980  146.7540 F   0  0  0  0  0  0  0  0  0  0  0  0
  1  5  1  0  0  0  0
  1 22  1  0  0  0  0
  2  3  1  0  0  0  0
  3  5  2  0  0  0  0
  4  1  2  0  0  0  0
  6  2  2  0  0  0  0
  6  4  1  0  0  0  0
  7 10  1  0  0  0  0
 11 16  1  6  0  0  0
 11 19  1  0  0  0  0
 11 20  1  0  0  0  0
 14 12  1  6  0  0  0
 14  9  1  0  0  0  0
 15 18  1  0  0  0  0
 17  5  1  6  0  0  0
 17  8  1  0  0  0  0
 17 12  1  0  0  0  0
 18 13  1  6  0  0  0
 19  9  1  0  0  0  0
 20 15  1  6  0  0  0
 20 18  1  0  0  0  0
 20 10  1  0  0  0  0
 21  8  1  6  0  0  0
 21 11  1  0  0  0  0
 21 14  1  0  0  0  0
 21  7  1  0  0  0  0
 22 24  1  0  0  0  0
 24 23  2  0  0  0  0
 25 27  1  0  0  0  0
 25 24  1  1  0  0  0
 26 29  2  0  0  0  0
 27 28  2  0  0  0  0
 29 27  1  0  0  0  0
 30 25  1  0  0  0  0
 31 26  1  0  0  0  0
 31 30  2  0  0  0  0
 32 26  1  0  0  0  0
 33 31  1  0  0  0  0
M  END
>  <MODEL>
1

>  <REMARK>
 VINA RESULT:      -6.2      0.000      0.000
  Name = 
  3 active torsions:
  status: ('A' for Active; 'I' for Inactive)
    1  A    between atoms: C_1  and  C_27
    2  A    between atoms: C_2  and  N_8
    3  A    between atoms: C_20  and  C_24
                            x       y       z     vdW  Elec       q    Type
                         _______ _______ _______ _____ _____    ______ ____

>  <TORSDO>
F 3

$$$$
=
 OpenBabel11072410173D

 33 38  0  0  1  0  0  0  0  0999 V2000
  161.4990  206.3350  150.7940 C   0  0  0  0  0  0  0  0  0  0  0  0
  160.8130  204.2650  152.5210 C   0  0  0  0  0  3  0  0  0  0  0  0
  161.2110  205.4940  153.0530 C   0  0  0  0  0  3  0  0  0  0  0  0
  161.0690  205.0960  150.3090 C   0  0  0  0  0  3  0  0  0  0  0  0
  161.5530  206.5460  152.1880 C   0  0  0  0  0  0  0  0  0  0  0  0
  160.7450  204.0950  151.1730 N   0  0  0  0  0  0  0  0  0  0  0  0
  162.2040  210.2660  155.1370 C   0  0  0  0  0  2  0  0  0  0  0  0
  161.4610  208.1050  154.1390 C   0  0  0  0  0  2  0  0  0  0  0  0
  160.0730  210.9000  152.5650 C   0  0  0  0  0  2  0  0  0  0  0  0
  161.5180  211.4290  155.8340 C   0  0  0  0  0  2  0  0  0  0  0  0
  159.7670  209.9580  154.7740 C   0  0  1  0  0  0  0  0  0  0  0  0
  161.3840  209.0390  151.9480 C   0  0  0  0  0  2  0  0  0  0  0  0
  157.7480  211.6480  156.0250 O   0  0  0  0  0  1  0  0  0  0  0  0
  161.2980  210.1650  152.8700 N   0  0  2  0  0  0  0  0  0  0  0  0
  159.5810  210.7470  157.2610 C   0  0  0  0  0  2  0  0  0  0  0  0
  158.9680  208.7570  155.2990 C   0  0  0  0  0  1  0  0  0  0  0  0
  161.9590  207.8850  152.7350 C   0  0  2  0  0  3  0  0  0  0  0  0
  159.0340  211.9420  156.4880 C   0  0  1  0  0  3  0  0  0  0  0  0
  159.0270  210.5600  153.6010 C   0  0  0  0  0  2  0  0  0  0  0  0
  160.0690  211.0180  155.8510 C   0  0  1  0  0  0  0  0  0  0  0  0
  161.1680  209.6020  154.2200 C   0  0  1  0  0  0  0  0  0  0  0  0
  161.8320  207.3770  149.8750 N   0  0  0  0  0  2  0  0  0  0  0  0
  162.7160  208.0790  147.8480 O   0  0  0  0  0  0  0  0  0  0  0  0
  162.1180  207.1740  148.4820 C   0  0  0  0  0  0  0  0  0  0  0  0
  161.6660  205.9510  147.7290 C   0  0  2  0  0  3  0  0  0  0  0  0
  161.3660  205.5240  144.8730 C   0  0  0  0  0  0  0  0  0  0  0  0
  162.7490  205.4130  146.8220 C   0  0  0  0  0  0  0  0  0  0  0  0
  163.8630  205.0740  147.3030 O   0  0  0  0  0  0  0  0  0  0  0  0
  162.5150  205.2600  145.4180 N   0  0  0  0  0  0  0  0  0  0  0  0
  160.3630  206.1720  147.0060 C   0  0  0  0  0  3  0  0  0  0  0  0
  160.2240  205.9780  145.6920 C   0  0  0  0  0  0  0  0  0  0  0  0
  161.2030  205.3450  143.4090 C   0  0  0  0  0  1  0  0  0  0  0  0
  159.0210  206.2140  145.1120 F   0  0  0  0  0  0  0  0  0  0  0  0
  1  5  1  0  0  0  0
  2  3  1  0  0  0  0
  4  1  2  0  0  0  0
  4  6  1  0  0  0  0
  5  3  2  0  0  0  0
  6  2  2  0  0  0  0
  7 10  1  0  0  0  0
  9 14  1  0  0  0  0
  9 19  1  0  0  0  0
 11 16  1  1  0  0  0
 11 20  1  0  0  0  0
 12 17  1  0  0  0  0
 14 12  1  6  0  0  0
 14 21  1  0  0  0  0
 17  5  1  6  0  0  0
 17  8  1  0  0  0  0
 18 13  1  6  0  0  0
 18 15  1  0  0  0  0
 19 11  1  0  0  0  0
 20 10  1  6  0  0  0
 20 18  1  0  0  0  0
 20 15  1  0  0  0  0
 21  8  1  6  0  0  0
 21 11  1  0  0  0  0
 21  7  1  0  0  0  0
 22  1  1  0  0  0  0
 23 24  2  0  0  0  0
 24 22  1  0  0  0  0
 25 24  1  6  0  0  0
 26 29  2  0  0  0  0
 26 31  1  0  0  0  0
 27 28  2  0  0  0  0
 27 25  1  0  0  0  0
 29 27  1  0  0  0  0
 30 25  1  0  0  0  0
 31 30  2  0  0  0  0
 32 26  1  0  0  0  0
 33 31  1  0  0  0  0
M  END
>  <MODEL>
2

>  <REMARK>
 VINA RESULT:      -5.9      2.478      3.585
  Name = 
  3 active torsions:
  status: ('A' for Active; 'I' for Inactive)
    1  A    between atoms: C_1  and  C_27
    2  A    between atoms: C_2  and  N_8
    3  A    between atoms: C_20  and  C_24
                            x       y       z     vdW  Elec       q    Type
                         _______ _______ _______ _____ _____    ______ ____

>  <TORSDO>
F 3

$$$$
=
 OpenBabel11072410173D

 33 38  0  0  1  0  0  0  0  0999 V2000
  159.6630  212.2790  153.0800 C   0  0  0  0  0  0  0  0  0  0  0  0
  157.0960  213.0970  152.3860 C   0  0  0  0  0  3  0  0  0  0  0  0
  158.1550  213.3600  151.5140 C   0  0  0  0  0  3  0  0  0  0  0  0
  158.5670  212.0150  153.9070 C   0  0  0  0  0  3  0  0  0  0  0  0
  159.4520  212.9450  151.8540 C   0  0  0  0  0  0  0  0  0  0  0  0
  157.3210  212.4310  153.5520 N   0  0  0  0  0  0  0  0  0  0  0  0
  162.0740  214.4530  148.1370 C   0  0  0  0  0  2  0  0  0  0  0  0
  160.1820  213.9150  149.6690 C   0  0  0  0  0  2  0  0  0  0  0  0
  161.6600  211.0810  148.2560 C   0  0  0  0  0  2  0  0  0  0  0  0
  162.3650  214.2450  146.6610 C   0  0  0  0  0  2  0  0  0  0  0  0
  160.3470  212.8770  147.3030 C   0  0  1  0  0  0  0  0  0  0  0  0
  161.2390  211.9170  150.4210 C   0  0  0  0  0  2  0  0  0  0  0  0
  160.0650  212.1740  144.4880 O   0  0  0  0  0  1  0  0  0  0  0  0
  161.8450  212.2330  149.1340 N   0  0  2  0  0  0  0  0  0  0  0  0
  160.3420  214.4350  145.2010 C   0  0  0  0  0  2  0  0  0  0  0  0
  158.8420  213.1830  147.2910 C   0  0  0  0  0  1  0  0  0  0  0  0
  160.6040  213.1930  150.9210 C   0  0  2  0  0  3  0  0  0  0  0  0
  161.0230  213.1730  144.6830 C   0  0  1  0  0  3  0  0  0  0  0  0
  160.5390  211.3780  147.2870 C   0  0  0  0  0  2  0  0  0  0  0  0
  161.1240  213.5540  146.1570 C   0  0  1  0  0  0  0  0  0  0  0  0
  161.0880  213.3610  148.5720 C   0  0  1  0  0  0  0  0  0  0  0  0
  160.9640  211.8320  153.4660 N   0  0  0  0  0  2  0  0  0  0  0  0
  162.3500  210.2540  154.4510 O   0  0  0  0  0  0  0  0  0  0  0  0
  161.2890  210.4780  153.8150 C   0  0  0  0  0  0  0  0  0  0  0  0
  160.4510  209.3030  153.3870 C   0  0  2  0  0  3  0  0  0  0  0  0
  161.2170  206.5500  152.8780 C   0  0  0  0  0  0  0  0  0  0  0  0
  160.4450  208.2040  154.4250 C   0  0  0  0  0  0  0  0  0  0  0  0
  160.0480  208.4450  155.5960 O   0  0  0  0  0  0  0  0  0  0  0  0
  160.8660  206.8790  154.0840 N   0  0  0  0  0  0  0  0  0  0  0  0
  160.8220  208.8030  152.0160 C   0  0  0  0  0  3  0  0  0  0  0  0
  161.1770  207.5370  151.7810 C   0  0  0  0  0  0  0  0  0  0  0  0
  161.6450  205.1550  152.6050 C   0  0  0  0  0  1  0  0  0  0  0  0
  161.5130  207.1680  150.5200 F   0  0  0  0  0  0  0  0  0  0  0  0
  1 22  1  0  0  0  0
  1  4  1  0  0  0  0
  2  6  1  0  0  0  0
  3  5  1  0  0  0  0
  3  2  2  0  0  0  0
  5  1  2  0  0  0  0
  6  4  2  0  0  0  0
  8 17  1  0  0  0  0
 10  7  1  0  0  0  0
 11 16  1  1  0  0  0
 11 21  1  0  0  0  0
 12 17  1  0  0  0  0
 14  9  1  6  0  0  0
 14 12  1  0  0  0  0
 17  5  1  1  0  0  0
 18 13  1  1  0  0  0
 18 15  1  0  0  0  0
 18 20  1  0  0  0  0
 19 11  1  0  0  0  0
 19  9  1  0  0  0  0
 20 15  1  6  0  0  0
 20 10  1  0  0  0  0
 20 11  1  0  0  0  0
 21  7  1  6  0  0  0
 21 14  1  0  0  0  0
 21  8  1  0  0  0  0
 22 24  1  0  0  0  0
 24 23  2  0  0  0  0
 25 24  1  1  0  0  0
 25 27  1  0  0  0  0
 26 29  2  0  0  0  0
 27 28  2  0  0  0  0
 29 27  1  0  0  0  0
 30 25  1  0  0  0  0
 31 30  2  0  0  0  0
 31 26  1  0  0  0  0
 32 26  1  0  0  0  0
 33 31  1  0  0  0  0
M  END
>  <MODEL>
3

>  <REMARK>
 VINA RESULT:      -5.9      3.978      7.267
  Name = 
  3 active torsions:
  status: ('A' for Active; 'I' for Inactive)
    1  A    between atoms: C_1  and  C_27
    2  A    between atoms: C_2  and  N_8
    3  A    between atoms: C_20  and  C_24
                            x       y       z     vdW  Elec       q    Type
                         _______ _______ _______ _____ _____    ______ ____

>  <TORSDO>
F 3

$$$$
=
 OpenBabel11072410173D

 33 38  0  0  1  0  0  0  0  0999 V2000
  161.9530  210.1220  150.7720 C   0  0  0  0  0  0  0  0  0  0  0  0
  160.8480  212.3890  149.5980 C   0  0  0  0  0  3  0  0  0  0  0  0
  160.3910  211.9780  150.8530 C   0  0  0  0  0  3  0  0  0  0  0  0
  162.3970  210.5870  149.5310 C   0  0  0  0  0  3  0  0  0  0  0  0
  160.9480  210.8390  151.4540 C   0  0  0  0  0  0  0  0  0  0  0  0
  161.8370  211.6950  148.9710 N   0  0  0  0  0  0  0  0  0  0  0  0
  158.2420  210.0340  155.3260 C   0  0  0  0  0  2  0  0  0  0  0  0
  159.0900  210.8460  153.1270 C   0  0  0  0  0  2  0  0  0  0  0  0
  160.7890  212.2220  155.8540 C   0  0  0  0  0  2  0  0  0  0  0  0
  157.5970  210.6780  156.5420 C   0  0  0  0  0  2  0  0  0  0  0  0
  158.5210  212.4850  155.0480 C   0  0  1  0  0  0  0  0  0  0  0  0
  161.3290  210.9660  153.9320 C   0  0  0  0  0  2  0  0  0  0  0  0
  157.3180  214.4360  156.8500 O   0  0  0  0  0  1  0  0  0  0  0  0
  160.4740  211.0050  155.1120 N   0  0  2  0  0  0  0  0  0  0  0  0
  156.0810  212.5880  155.9850 C   0  0  0  0  0  2  0  0  0  0  0  0
  157.9050  213.2930  153.8970 C   0  0  0  0  0  1  0  0  0  0  0  0
  160.4920  210.3920  152.8140 C   0  0  2  0  0  3  0  0  0  0  0  0
  156.9080  213.1320  157.1440 C   0  0  1  0  0  3  0  0  0  0  0  0
  159.7070  213.2460  155.5970 C   0  0  0  0  0  2  0  0  0  0  0  0
  157.5170  212.1330  156.1630 C   0  0  1  0  0  0  0  0  0  0  0  0
  159.0890  211.1080  154.6310 C   0  0  1  0  0  0  0  0  0  0  0  0
  162.5540  208.9600  151.3470 N   0  0  0  0  0  2  0  0  0  0  0  0
  162.4470  206.7290  151.9740 O   0  0  0  0  0  0  0  0  0  0  0  0
  162.0650  207.6210  151.1750 C   0  0  0  0  0  0  0  0  0  0  0  0
  161.1690  207.2210  150.0330 C   0  0  2  0  0  3  0  0  0  0  0  0
  161.5460  205.2000  147.9840 C   0  0  0  0  0  0  0  0  0  0  0  0
  160.7110  205.7860  150.1490 C   0  0  0  0  0  0  0  0  0  0  0  0
  160.0810  205.4050  151.1720 O   0  0  0  0  0  0  0  0  0  0  0  0
  160.9650  204.8530  149.0930 N   0  0  0  0  0  0  0  0  0  0  0  0
  161.7790  207.5290  148.6910 C   0  0  0  0  0  3  0  0  0  0  0  0
  161.9550  206.5990  147.7490 C   0  0  0  0  0  0  0  0  0  0  0  0
  161.7780  204.1730  146.9380 C   0  0  0  0  0  1  0  0  0  0  0  0
  162.5270  206.9520  146.5710 F   0  0  0  0  0  0  0  0  0  0  0  0
  1 22  1  0  0  0  0
  1  5  1  0  0  0  0
  2  3  1  0  0  0  0
  3  5  2  0  0  0  0
  4  1  2  0  0  0  0
  6  4  1  0  0  0  0
  6  2  2  0  0  0  0
  7 10  1  0  0  0  0
 11 16  1  6  0  0  0
 11 19  1  0  0  0  0
 11 20  1  0  0  0  0
 14 12  1  6  0  0  0
 14  9  1  0  0  0  0
 15 18  1  0  0  0  0
 17  5  1  6  0  0  0
 17  8  1  0  0  0  0
 17 12  1  0  0  0  0
 18 13  1  6  0  0  0
 19  9  1  0  0  0  0
 20 15  1  6  0  0  0
 20 10  1  0  0  0  0
 20 18  1  0  0  0  0
 21  8  1  6  0  0  0
 21 11  1  0  0  0  0
 21 14  1  0  0  0  0
 21  7  1  0  0  0  0
 24 22  1  0  0  0  0
 24 23  2  0  0  0  0
 25 27  1  0  0  0  0
 25 24  1  1  0  0  0
 26 29  2  0  0  0  0
 27 28  2  0  0  0  0
 29 27  1  0  0  0  0
 30 25  1  0  0  0  0
 31 26  1  0  0  0  0
 31 30  2  0  0  0  0
 32 26  1  0  0  0  0
 33 31  1  0  0  0  0
M  END
>  <MODEL>
4

>  <REMARK>
 VINA RESULT:      -5.9      1.702      2.228
  Name = 
  3 active torsions:
  status: ('A' for Active; 'I' for Inactive)
    1  A    between atoms: C_1  and  C_27
    2  A    between atoms: C_2  and  N_8
    3  A    between atoms: C_20  and  C_24
                            x       y       z     vdW  Elec       q    Type
                         _______ _______ _______ _____ _____    ______ ____

>  <TORSDO>
F 3

$$$$
=
 OpenBabel11072410173D

 33 38  0  0  1  0  0  0  0  0999 V2000
  161.2940  207.9120  152.4960 C   0  0  0  0  0  0  0  0  0  0  0  0
  161.1530  205.2650  153.3400 C   0  0  0  0  0  3  0  0  0  0  0  0
  160.8960  205.5690  152.0000 C   0  0  0  0  0  3  0  0  0  0  0  0
  161.5700  207.5550  153.8190 C   0  0  0  0  0  3  0  0  0  0  0  0
  160.9710  206.9020  151.5660 C   0  0  0  0  0  0  0  0  0  0  0  0
  161.4870  206.2540  154.2120 N   0  0  0  0  0  0  0  0  0  0  0  0
  159.8270  206.5900  146.9230 C   0  0  0  0  0  2  0  0  0  0  0  0
  160.3570  206.0480  149.2980 C   0  0  0  0  0  2  0  0  0  0  0  0
  163.1230  207.1930  147.4940 C   0  0  0  0  0  2  0  0  0  0  0  0
  160.2790  206.0730  145.5670 C   0  0  0  0  0  2  0  0  0  0  0  0
  161.8130  205.1620  147.3490 C   0  0  1  0  0  0  0  0  0  0  0  0
  161.9470  207.8160  149.4410 C   0  0  0  0  0  2  0  0  0  0  0  0
  163.1150  203.5900  145.2670 O   0  0  0  0  0  1  0  0  0  0  0  0
  161.8010  207.5200  148.0220 N   0  0  2  0  0  0  0  0  0  0  0  0
  160.7430  203.6160  145.5310 C   0  0  0  0  0  2  0  0  0  0  0  0
  161.7800  203.8750  148.1840 C   0  0  0  0  0  1  0  0  0  0  0  0
  160.7250  207.2510  150.1250 C   0  0  2  0  0  3  0  0  0  0  0  0
  161.9470  204.2040  144.8040 C   0  0  1  0  0  3  0  0  0  0  0  0
  163.2270  205.6940  147.3290 C   0  0  0  0  0  2  0  0  0  0  0  0
  161.2610  204.9870  145.9200 C   0  0  1  0  0  0  0  0  0  0  0  0
  160.9600  206.3190  147.9210 C   0  0  1  0  0  0  0  0  0  0  0  0
  161.3890  209.2810  152.0990 N   0  0  0  0  0  2  0  0  0  0  0  0
  160.5780  211.4540  152.1240 O   0  0  0  0  0  0  0  0  0  0  0  0
  160.6970  210.3640  152.7380 C   0  0  0  0  0  0  0  0  0  0  0  0
  160.1690  210.2750  154.1450 C   0  0  2  0  0  3  0  0  0  0  0  0
  160.0230  212.3040  156.2170 C   0  0  0  0  0  0  0  0  0  0  0  0
  158.9890  211.1940  154.3670 C   0  0  0  0  0  0  0  0  0  0  0  0
  157.9570  211.0790  153.6520 O   0  0  0  0  0  0  0  0  0  0  0  0
  159.0200  212.1830  155.4010 N   0  0  0  0  0  0  0  0  0  0  0  0
  161.2510  210.4630  155.1770 C   0  0  0  0  0  3  0  0  0  0  0  0
  161.1860  211.3970  156.1280 C   0  0  0  0  0  0  0  0  0  0  0  0
  159.9830  213.3580  157.2610 C   0  0  0  0  0  1  0  0  0  0  0  0
  162.2090  211.5140  157.0110 F   0  0  0  0  0  0  0  0  0  0  0  0
  1  4  1  0  0  0  0
  2  6  1  0  0  0  0
  3  2  2  0  0  0  0
  4  6  2  0  0  0  0
  5  3  1  0  0  0  0
  5  1  2  0  0  0  0
  8 17  1  0  0  0  0
 10 20  1  0  0  0  0
 10  7  1  0  0  0  0
 11 21  1  0  0  0  0
 11 16  1  1  0  0  0
 12 17  1  0  0  0  0
 14  9  1  1  0  0  0
 14 12  1  0  0  0  0
 17  5  1  1  0  0  0
 18 13  1  1  0  0  0
 18 15  1  0  0  0  0
 18 20  1  0  0  0  0
 19 11  1  0  0  0  0
 19  9  1  0  0  0  0
 20 15  1  1  0  0  0
 20 11  1  0  0  0  0
 21  7  1  6  0  0  0
 21 14  1  0  0  0  0
 21  8  1  0  0  0  0
 22  1  1  0  0  0  0
 22 24  1  0  0  0  0
 23 24  2  0  0  0  0
 25 24  1  6  0  0  0
 25 27  1  0  0  0  0
 25 30  1  0  0  0  0
 26 32  1  0  0  0  0
 27 29  1  0  0  0  0
 28 27  2  0  0  0  0
 29 26  2  0  0  0  0
 30 31  2  0  0  0  0
 31 26  1  0  0  0  0
 31 33  1  0  0  0  0
M  END
>  <MODEL>
5

>  <REMARK>
 VINA RESULT:      -5.6      3.442      9.124
  Name = 
  3 active torsions:
  status: ('A' for Active; 'I' for Inactive)
    1  A    between atoms: C_1  and  C_27
    2  A    between atoms: C_2  and  N_8
    3  A    between atoms: C_20  and  C_24
                            x       y       z     vdW  Elec       q    Type
                         _______ _______ _______ _____ _____    ______ ____

>  <TORSDO>
F 3

$$$$
=
 OpenBabel11072410173D

 33 38  0  0  1  0  0  0  0  0999 V2000
  161.2670  207.7810  153.5440 C   0  0  0  0  0  0  0  0  0  0  0  0
  159.9860  206.5980  155.7120 C   0  0  0  0  0  3  0  0  0  0  0  0
  159.9990  207.9910  155.6040 C   0  0  0  0  0  3  0  0  0  0  0  0
  161.2040  206.3910  153.6810 C   0  0  0  0  0  3  0  0  0  0  0  0
  160.6390  208.5950  154.5090 C   0  0  0  0  0  0  0  0  0  0  0  0
  160.5780  205.8330  154.7540 N   0  0  0  0  0  0  0  0  0  0  0  0
  159.9850  213.2710  155.3300 C   0  0  0  0  0  2  0  0  0  0  0  0
  159.9090  210.7820  155.4730 C   0  0  0  0  0  2  0  0  0  0  0  0
  158.1680  212.0600  152.7240 C   0  0  0  0  0  2  0  0  0  0  0  0
  158.9570  214.3890  155.3700 C   0  0  0  0  0  2  0  0  0  0  0  0
  157.7630  212.1850  155.1080 C   0  0  1  0  0  0  0  0  0  0  0  0
  159.9440  210.5540  153.1020 C   0  0  0  0  0  2  0  0  0  0  0  0
  155.2500  213.6440  155.3540 O   0  0  0  0  0  1  0  0  0  0  0  0
  159.4690  211.9060  153.3700 N   0  0  2  0  0  0  0  0  0  0  0  0
  157.0380  213.9380  156.9090 C   0  0  0  0  0  2  0  0  0  0  0  0
  157.1890  211.1900  156.1260 C   0  0  0  0  0  1  0  0  0  0  0  0
  160.6440  210.0900  154.3570 C   0  0  2  0  0  3  0  0  0  0  0  0
  156.3540  214.4510  155.6470 C   0  0  1  0  0  3  0  0  0  0  0  0
  157.0860  211.9620  153.7750 C   0  0  0  0  0  2  0  0  0  0  0  0
  157.6540  213.6570  155.5510 C   0  0  1  0  0  0  0  0  0  0  0  0
  159.2730  212.0090  154.8220 C   0  0  1  0  0  0  0  0  0  0  0  0
  161.9250  208.3500  152.4110 N   0  0  0  0  0  2  0  0  0  0  0  0
  162.8620  208.1370  150.2990 O   0  0  0  0  0  0  0  0  0  0  0  0
  161.9970  207.7320  151.1160 C   0  0  0  0  0  0  0  0  0  0  0  0
  161.0320  206.6670  150.6670 C   0  0  2  0  0  3  0  0  0  0  0  0
  161.2150  204.7940  148.4570 C   0  0  0  0  0  0  0  0  0  0  0  0
  161.6320  205.2830  150.7620 C   0  0  0  0  0  0  0  0  0  0  0  0
  162.0580  204.8550  151.8680 O   0  0  0  0  0  0  0  0  0  0  0  0
  161.7010  204.4390  149.6080 N   0  0  0  0  0  0  0  0  0  0  0  0
  160.4520  206.9560  149.3070 C   0  0  0  0  0  3  0  0  0  0  0  0
  160.5380  206.0960  148.2890 C   0  0  0  0  0  0  0  0  0  0  0  0
  161.3300  203.8640  147.3060 C   0  0  0  0  0  1  0  0  0  0  0  0
  160.0050  206.4360  147.0900 F   0  0  0  0  0  0  0  0  0  0  0  0
  1  4  2  0  0  0  0
  1  5  1  0  0  0  0
  3  2  1  0  0  0  0
  4  6  1  0  0  0  0
  5  3  2  0  0  0  0
  6  2  2  0  0  0  0
  7 10  1  0  0  0  0
  9 19  1  0  0  0  0
 11 20  1  0  0  0  0
 11 16  1  1  0  0  0
 12 14  1  0  0  0  0
 12 17  1  0  0  0  0
 14  9  1  6  0  0  0
 14 21  1  0  0  0  0
 17  5  1  1  0  0  0
 17  8  1  0  0  0  0
 18 13  1  6  0  0  0
 18 15  1  0  0  0  0
 19 11  1  0  0  0  0
 20 10  1  6  0  0  0
 20 18  1  0  0  0  0
 20 15  1  0  0  0  0
 21 11  1  0  0  0  0
 21  7  1  1  0  0  0
 21  8  1  0  0  0  0
 22  1  1  0  0  0  0
 23 24  2  0  0  0  0
 24 22  1  0  0  0  0
 25 27  1  0  0  0  0
 25 24  1  6  0  0  0
 26 29  2  0  0  0  0
 27 28  2  0  0  0  0
 29 27  1  0  0  0  0
 30 25  1  0  0  0  0
 31 26  1  0  0  0  0
 31 30  2  0  0  0  0
 32 26  1  0  0  0  0
 33 31  1  0  0  0  0
M  END
>  <MODEL>
6

>  <REMARK>
 VINA RESULT:      -5.4      2.056      3.612
  Name = 
  3 active torsions:
  status: ('A' for Active; 'I' for Inactive)
    1  A    between atoms: C_1  and  C_27
    2  A    between atoms: C_2  and  N_8
    3  A    between atoms: C_20  and  C_24
                            x       y       z     vdW  Elec       q    Type
                         _______ _______ _______ _____ _____    ______ ____

>  <TORSDO>
F 3

$$$$
=
 OpenBabel11072410173D

 33 38  0  0  1  0  0  0  0  0999 V2000
  161.5980  207.2690  152.3210 C   0  0  0  0  0  0  0  0  0  0  0  0
  162.2970  209.4450  150.7340 C   0  0  0  0  0  3  0  0  0  0  0  0
  161.4300  209.6370  151.8120 C   0  0  0  0  0  3  0  0  0  0  0  0
  162.4840  207.1310  151.2480 C   0  0  0  0  0  3  0  0  0  0  0  0
  161.0780  208.5450  152.6220 C   0  0  0  0  0  0  0  0  0  0  0  0
  162.8060  208.2080  150.4790 N   0  0  0  0  0  0  0  0  0  0  0  0
  157.8030  210.3400  155.6250 C   0  0  0  0  0  2  0  0  0  0  0  0
  159.4120  210.0320  153.7460 C   0  0  0  0  0  2  0  0  0  0  0  0
  160.9710  210.3800  156.8550 C   0  0  0  0  0  2  0  0  0  0  0  0
  157.5220  211.4330  156.6420 C   0  0  0  0  0  2  0  0  0  0  0  0
  159.7070  211.9260  155.4870 C   0  0  1  0  0  0  0  0  0  0  0  0
  160.9140  208.7880  155.1150 C   0  0  0  0  0  2  0  0  0  0  0  0
  159.7870  214.4450  156.9530 O   0  0  0  0  0  1  0  0  0  0  0  0
  160.0850  209.5650  156.0280 N   0  0  2  0  0  0  0  0  0  0  0  0
  157.8470  213.7460  155.7500 C   0  0  0  0  0  2  0  0  0  0  0  0
  160.0550  212.7410  154.2330 C   0  0  0  0  0  1  0  0  0  0  0  0
  160.1680  208.7310  153.8030 C   0  0  2  0  0  3  0  0  0  0  0  0
  158.5570  213.7950  157.0980 C   0  0  1  0  0  3  0  0  0  0  0  0
  160.9450  211.8020  156.3450 C   0  0  0  0  0  2  0  0  0  0  0  0
  158.5240  212.5010  156.2900 C   0  0  1  0  0  0  0  0  0  0  0  0
  159.2720  210.4690  155.2020 C   0  0  1  0  0  0  0  0  0  0  0  0
  161.2740  206.1300  153.1200 N   0  0  0  0  0  2  0  0  0  0  0  0
  160.4470  203.9720  153.3220 O   0  0  0  0  0  0  0  0  0  0  0  0
  161.0450  204.8100  152.6010 C   0  0  0  0  0  0  0  0  0  0  0  0
  161.5550  204.3640  151.2570 C   0  0  2  0  0  3  0  0  0  0  0  0
  160.5030  202.3680  149.4300 C   0  0  0  0  0  0  0  0  0  0  0  0
  160.5630  204.6480  150.1520 C   0  0  0  0  0  0  0  0  0  0  0  0
  160.1680  205.8270  149.9470 O   0  0  0  0  0  0  0  0  0  0  0  0
  160.0810  203.5910  149.3160 N   0  0  0  0  0  0  0  0  0  0  0  0
  162.0170  202.9310  151.2660 C   0  0  0  0  0  3  0  0  0  0  0  0
  161.5320  202.0110  150.4280 C   0  0  0  0  0  0  0  0  0  0  0  0
  159.9520  201.3260  148.5290 C   0  0  0  0  0  1  0  0  0  0  0  0
  161.9880  200.7360  150.5100 F   0  0  0  0  0  0  0  0  0  0  0  0
  1  5  1  0  0  0  0
  1 22  1  0  0  0  0
  2  3  1  0  0  0  0
  3  5  2  0  0  0  0
  4  1  2  0  0  0  0
  6  2  2  0  0  0  0
  6  4  1  0  0  0  0
  7 10  1  0  0  0  0
  8 17  1  0  0  0  0
 11 16  1  6  0  0  0
 11 20  1  0  0  0  0
 11 19  1  0  0  0  0
 14 12  1  6  0  0  0
 14  9  1  0  0  0  0
 15 18  1  0  0  0  0
 17  5  1  6  0  0  0
 17 12  1  0  0  0  0
 18 13  1  6  0  0  0
 19  9  1  0  0  0  0
 20 15  1  6  0  0  0
 20 10  1  0  0  0  0
 20 18  1  0  0  0  0
 21  8  1  6  0  0  0
 21 11  1  0  0  0  0
 21  7  1  0  0  0  0
 21 14  1  0  0  0  0
 24 22  1  0  0  0  0
 24 23  2  0  0  0  0
 25 30  1  0  0  0  0
 25 24  1  1  0  0  0
 26 31  1  0  0  0  0
 27 25  1  0  0  0  0
 28 27  2  0  0  0  0
 29 26  2  0  0  0  0
 29 27  1  0  0  0  0
 31 33  1  0  0  0  0
 31 30  2  0  0  0  0
 32 26  1  0  0  0  0
M  END
>  <MODEL>
7

>  <REMARK>
 VINA RESULT:      -4.6      1.792      2.270
  Name = 
  3 active torsions:
  status: ('A' for Active; 'I' for Inactive)
    1  A    between atoms: C_1  and  C_27
    2  A    between atoms: C_2  and  N_8
    3  A    between atoms: C_20  and  C_24
                            x       y       z     vdW  Elec       q    Type
                         _______ _______ _______ _____ _____    ______ ____

>  <TORSDO>
F 3

$$$$
=
 OpenBabel11072410173D

 33 38  0  0  1  0  0  0  0  0999 V2000
  160.6890  205.4000  150.5270 C   0  0  0  0  0  0  0  0  0  0  0  0
  160.9420  203.5990  152.6320 C   0  0  0  0  0  3  0  0  0  0  0  0
  161.3300  204.9280  152.8210 C   0  0  0  0  0  3  0  0  0  0  0  0
  160.2890  204.0670  150.3950 C   0  0  0  0  0  3  0  0  0  0  0  0
  161.1990  205.8440  151.7650 C   0  0  0  0  0  0  0  0  0  0  0  0
  160.4290  203.2010  151.4360 N   0  0  0  0  0  0  0  0  0  0  0  0
  162.7130  209.9510  153.7170 C   0  0  0  0  0  2  0  0  0  0  0  0
  161.9560  207.6000  153.3750 C   0  0  0  0  0  2  0  0  0  0  0  0
  159.4180  209.9520  152.8820 C   0  0  0  0  0  2  0  0  0  0  0  0
  162.3500  211.0780  154.6680 C   0  0  0  0  0  2  0  0  0  0  0  0
  160.6240  209.2510  154.8610 C   0  0  1  0  0  0  0  0  0  0  0  0
  160.4570  208.2390  151.6380 C   0  0  0  0  0  2  0  0  0  0  0  0
  159.4200  210.7700  157.0380 O   0  0  0  0  0  1  0  0  0  0  0  0
  160.7060  209.4450  152.4180 N   0  0  2  0  0  0  0  0  0  0  0  0
  161.7590  210.3010  156.9710 C   0  0  0  0  0  2  0  0  0  0  0  0
  160.5170  208.0200  155.7720 C   0  0  0  0  0  1  0  0  0  0  0  0
  161.5850  207.2850  151.9510 C   0  0  2  0  0  3  0  0  0  0  0  0
  160.6540  211.3010  156.6510 C   0  0  1  0  0  3  0  0  0  0  0  0
  159.2470  209.5930  154.3400 C   0  0  0  0  0  2  0  0  0  0  0  0
  161.2840  210.4670  155.5400 C   0  0  1  0  0  0  0  0  0  0  0  0
  161.4870  209.0370  153.5940 C   0  0  1  0  0  0  0  0  0  0  0  0
  160.5320  206.2970  149.4260 N   0  0  0  0  0  2  0  0  0  0  0  0
  161.3160  207.2340  147.4540 O   0  0  0  0  0  0  0  0  0  0  0  0
  161.2830  206.2260  148.2040 C   0  0  0  0  0  0  0  0  0  0  0  0
  161.9750  204.9700  147.7460 C   0  0  2  0  0  3  0  0  0  0  0  0
  160.9940  202.7960  146.0920 C   0  0  0  0  0  0  0  0  0  0  0  0
  162.1030  204.9110  146.2410 C   0  0  0  0  0  0  0  0  0  0  0  0
  162.7060  205.8290  145.6230 O   0  0  0  0  0  0  0  0  0  0  0  0
  161.5640  203.8060  145.5070 N   0  0  0  0  0  0  0  0  0  0  0  0
  161.3500  203.7280  148.3240 C   0  0  0  0  0  3  0  0  0  0  0  0
  160.8960  202.7280  147.5640 C   0  0  0  0  0  0  0  0  0  0  0  0
  160.4550  201.6900  145.2610 C   0  0  0  0  0  1  0  0  0  0  0  0
  160.3310  201.6490  148.1590 F   0  0  0  0  0  0  0  0  0  0  0  0
  1  5  1  0  0  0  0
  2  3  1  0  0  0  0
  4  1  2  0  0  0  0
  4  6  1  0  0  0  0
  5  3  2  0  0  0  0
  6  2  2  0  0  0  0
  7 10  1  0  0  0  0
  9 19  1  0  0  0  0
 11 20  1  0  0  0  0
 11 16  1  1  0  0  0
 12 17  1  0  0  0  0
 14 12  1  6  0  0  0
 14  9  1  0  0  0  0
 14 21  1  0  0  0  0
 17  5  1  1  0  0  0
 17  8  1  0  0  0  0
 18 15  1  0  0  0  0
 18 13  1  1  0  0  0
 19 11  1  0  0  0  0
 20 10  1  6  0  0  0
 20 18  1  0  0  0  0
 20 15  1  0  0  0  0
 21  8  1  6  0  0  0
 21  7  1  0  0  0  0
 21 11  1  0  0  0  0
 22  1  1  0  0  0  0
 23 24  2  0  0  0  0
 24 22  1  0  0  0  0
 25 24  1  6  0  0  0
 25 30  1  0  0  0  0
 26 31  1  0  0  0  0
 27 25  1  0  0  0  0
 28 27  2  0  0  0  0
 29 26  2  0  0  0  0
 29 27  1  0  0  0  0
 31 33  1  0  0  0  0
 31 30  2  0  0  0  0
 32 26  1  0  0  0  0
M  END
>  <MODEL>
8

>  <REMARK>
 VINA RESULT:      -4.5      2.396      3.879
  Name = 
  3 active torsions:
  status: ('A' for Active; 'I' for Inactive)
    1  A    between atoms: C_1  and  C_27
    2  A    between atoms: C_2  and  N_8
    3  A    between atoms: C_20  and  C_24
                            x       y       z     vdW  Elec       q    Type
                         _______ _______ _______ _____ _____    ______ ____

>  <TORSDO>
F 3

$$$$
=
 OpenBabel11072410173D

 33 38  0  0  1  0  0  0  0  0999 V2000
  161.7720  207.6880  152.1480 C   0  0  0  0  0  0  0  0  0  0  0  0
  162.3300  209.7070  150.3160 C   0  0  0  0  0  3  0  0  0  0  0  0
  161.6990  210.0320  151.5190 C   0  0  0  0  0  3  0  0  0  0  0  0
  162.4270  207.4160  150.9430 C   0  0  0  0  0  3  0  0  0  0  0  0
  161.4200  209.0200  152.4520 C   0  0  0  0  0  0  0  0  0  0  0  0
  162.6830  208.4170  150.0580 N   0  0  0  0  0  0  0  0  0  0  0  0
  158.1470  210.1370  155.7680 C   0  0  0  0  0  2  0  0  0  0  0  0
  159.3080  209.6940  153.6070 C   0  0  0  0  0  2  0  0  0  0  0  0
  160.4390  212.5850  155.2140 C   0  0  0  0  0  2  0  0  0  0  0  0
  157.2690  211.2500  156.3180 C   0  0  0  0  0  2  0  0  0  0  0  0
  158.3300  212.0250  154.1660 C   0  0  1  0  0  0  0  0  0  0  0  0
  161.3680  210.5620  154.4320 C   0  0  0  0  0  2  0  0  0  0  0  0
  156.7300  214.4530  154.3820 O   0  0  0  0  0  1  0  0  0  0  0  0
  160.3240  211.1300  155.2760 N   0  0  2  0  0  0  0  0  0  0  0  0
  155.7640  212.2820  154.6070 C   0  0  0  0  0  2  0  0  0  0  0  0
  157.8730  211.9540  152.7020 C   0  0  0  0  0  1  0  0  0  0  0  0
  160.7660  209.3490  153.7640 C   0  0  2  0  0  3  0  0  0  0  0  0
  156.3510  213.4920  155.3250 C   0  0  1  0  0  3  0  0  0  0  0  0
  159.3600  213.1220  154.3020 C   0  0  0  0  0  2  0  0  0  0  0  0
  157.1730  212.2160  155.1670 C   0  0  1  0  0  0  0  0  0  0  0  0
  159.0380  210.7480  154.6780 C   0  0  1  0  0  0  0  0  0  0  0  0
  161.5140  206.6270  153.0680 N   0  0  0  0  0  2  0  0  0  0  0  0
  160.7020  204.5020  153.5280 O   0  0  0  0  0  0  0  0  0  0  0  0
  161.2380  205.2690  152.6880 C   0  0  0  0  0  0  0  0  0  0  0  0
  161.6310  204.7030  151.3500 C   0  0  2  0  0  3  0  0  0  0  0  0
  160.4690  202.5150  149.8360 C   0  0  0  0  0  0  0  0  0  0  0  0
  160.5300  204.8560  150.3250 C   0  0  0  0  0  0  0  0  0  0  0  0
  160.0830  206.0010  150.0470 O   0  0  0  0  0  0  0  0  0  0  0  0
  160.0030  203.7120  149.6460 N   0  0  0  0  0  0  0  0  0  0  0  0
  162.1340  203.2870  151.4520 C   0  0  0  0  0  3  0  0  0  0  0  0
  161.5990  202.2790  150.7580 C   0  0  0  0  0  0  0  0  0  0  0  0
  159.8660  201.3780  149.0970 C   0  0  0  0  0  1  0  0  0  0  0  0
  162.0980  201.0280  150.9170 F   0  0  0  0  0  0  0  0  0  0  0  0
  1  5  1  0  0  0  0
  1 22  1  0  0  0  0
  2  3  1  0  0  0  0
  3  5  2  0  0  0  0
  4  1  2  0  0  0  0
  6  2  2  0  0  0  0
  6  4  1  0  0  0  0
  7 10  1  0  0  0  0
  8 17  1  0  0  0  0
  9 14  1  0  0  0  0
 11 16  1  6  0  0  0
 11 19  1  0  0  0  0
 11 21  1  0  0  0  0
 11 20  1  0  0  0  0
 14 12  1  6  0  0  0
 15 18  1  0  0  0  0
 17  5  1  6  0  0  0
 17 12  1  0  0  0  0
 18 13  1  6  0  0  0
 19  9  1  0  0  0  0
 20 15  1  6  0  0  0
 20 18  1  0  0  0  0
 20 10  1  0  0  0  0
 21  8  1  6  0  0  0
 21 14  1  0  0  0  0
 21  7  1  0  0  0  0
 24 22  1  0  0  0  0
 24 23  2  0  0  0  0
 25 30  1  0  0  0  0
 25 24  1  1  0  0  0
 26 31  1  0  0  0  0
 27 25  1  0  0  0  0
 28 27  2  0  0  0  0
 29 26  2  0  0  0  0
 29 27  1  0  0  0  0
 31 33  1  0  0  0  0
 31 30  2  0  0  0  0
 32 26  1  0  0  0  0
M  END
>  <MODEL>
9

>  <REMARK>
 VINA RESULT:      -4.5      1.750      2.096
  Name = 
  3 active torsions:
  status: ('A' for Active; 'I' for Inactive)
    1  A    between atoms: C_1  and  C_27
    2  A    between atoms: C_2  and  N_8
    3  A    between atoms: C_20  and  C_24
                            x       y       z     vdW  Elec       q    Type
                         _______ _______ _______ _____ _____    ______ ____

>  <TORSDO>
F 3

$$$$
