=
 OpenBabel11072413033D

 37 42  0  0  1  0  0  0  0  0999 V2000
  161.0850  206.0300  154.6620 O   0  0  0  0  0  1  0  0  0  0  0  0
  161.3900  209.6730  154.6070 C   0  0  1  0  0  0  0  0  0  0  0  0
  161.3800  209.6430  157.1910 C   0  0  0  0  0  2  0  0  0  0  0  0
  160.0860  208.8170  157.0490 C   0  0  0  0  0  2  0  0  0  0  0  0
  160.7280  207.3350  155.0070 C   0  0  2  0  0  3  0  0  0  0  0  0
  161.7610  210.4180  155.9030 C   0  0  1  0  0  3  0  0  0  0  0  0
  162.3480  209.0360  153.5840 C   0  0  1  0  0  3  0  0  0  0  0  0
  161.9340  208.2440  154.8170 C   0  0  1  0  0  3  0  0  0  0  0  0
  160.3220  207.3900  156.5020 C   0  0  2  0  0  3  0  0  0  0  0  0
  162.0510  207.8150  150.2070 N   0  0  0  0  0  0  0  0  0  0  0  0
  160.7450  206.7340  148.6330 C   0  0  0  0  0  2  0  0  0  0  0  0
  161.1660  208.0880  149.1230 C   0  0  2  0  0  3  0  0  0  0  0  0
  162.1490  208.8840  151.0840 C   0  0  0  0  0  0  0  0  0  0  0  0
  161.6850  208.5330  152.3790 N   0  0  0  0  0  0  0  0  0  0  0  0
  161.8010  209.0560  148.2350 N   0  0  0  0  0  2  0  0  0  0  0  0
  161.2060  207.1380  152.2720 C   0  0  0  0  0  2  0  0  0  0  0  0
  160.6300  205.9840  149.9850 C   0  0  2  0  0  3  0  0  0  0  0  0
  162.1630  210.1150  150.5620 C   0  0  0  0  0  3  0  0  0  0  0  0
  161.6930  206.6190  150.8990 C   0  0  1  0  0  3  0  0  0  0  0  0
  162.2520  210.2490  149.0260 C   0  0  0  0  0  2  0  0  0  0  0  0
  161.3810  202.5960  148.4210 C   0  0  0  0  0  3  0  0  0  0  0  0
  160.4230  204.1630  152.1880 O   0  0  0  0  0  1  0  0  0  0  0  0
  161.1720  203.9700  148.5680 C   0  0  0  0  0  3  0  0  0  0  0  0
  160.7400  203.6560  150.9330 C   0  0  0  0  0  0  0  0  0  0  0  0
  160.9480  202.2810  150.7820 C   0  0  0  0  0  3  0  0  0  0  0  0
  161.2690  201.7520  149.5290 C   0  0  0  0  0  3  0  0  0  0  0  0
  160.8500  204.5090  149.8220 C   0  0  0  0  0  0  0  0  0  0  0  0
  163.8350  210.9430  154.8600 O   0  0  0  0  0  0  0  0  0  0  0  0
  163.1770  210.9010  155.9330 C   0  0  0  0  0  0  0  0  0  0  0  0
  163.7880  211.2680  157.1710 N   0  0  0  0  0  2  0  0  0  0  0  0
  165.1690  211.7130  157.2470 C   0  0  0  0  0  1  0  0  0  0  0  0
  159.0540  206.5830  156.7370 C   0  0  0  0  0  2  0  0  0  0  0  0
  158.1940  206.7070  155.6450 O   0  0  0  0  0  1  0  0  0  0  0  0
  159.9340  209.8550  154.1120 C   0  0  0  0  0  2  0  0  0  0  0  0
  159.5410  211.2950  153.9810 C   0  0  0  0  0  0  0  0  0  0  0  0
  158.5440  211.9060  154.9040 C   0  0  0  0  0  1  0  0  0  0  0  0
  160.0950  212.0400  153.0290 C   0  0  0  0  0  2  0  0  0  0  0  0
  2 34  1  6  0  0  0
  2  8  1  0  0  0  0
  2  6  1  0  0  0  0
  4  3  1  0  0  0  0
  5  1  1  1  0  0  0
  5  9  1  0  0  0  0
  6 29  1  6  0  0  0
  6  3  1  0  0  0  0
  7 14  1  6  0  0  0
  7  2  1  0  0  0  0
  7  8  1  0  0  0  0
  8  5  1  0  0  0  0
  9 32  1  0  0  0  0
  9  4  1  0  0  0  0
 10 19  1  0  0  0  0
 10 13  1  0  0  0  0
 11 12  1  0  0  0  0
 11 17  1  0  0  0  0
 12 10  1  0  0  0  0
 13 14  1  0  0  0  0
 15 20  1  0  0  0  0
 15 12  1  0  0  0  0
 16 14  1  0  0  0  0
 17 19  1  0  0  0  0
 18 13  2  0  0  0  0
 19 16  1  0  0  0  0
 20 18  1  0  0  0  0
 21 23  2  0  0  0  0
 21 26  1  0  0  0  0
 23 27  1  0  0  0  0
 24 22  1  0  0  0  0
 25 24  1  0  0  0  0
 26 25  2  0  0  0  0
 27 17  1  0  0  0  0
 27 24  2  0  0  0  0
 28 29  2  0  0  0  0
 29 30  1  0  0  0  0
 30 31  1  0  0  0  0
 33 32  1  0  0  0  0
 35 34  1  0  0  0  0
 35 36  1  0  0  0  0
 37 35  2  0  0  0  0
M  END
>  <MODEL>
1

>  <REMARK>
 VINA RESULT:      -5.6      0.000      0.000
  Name = 
  6 active torsions:
  status: ('A' for Active; 'I' for Inactive)
    1  A    between atoms: C_1  and  C_36
    2  A    between atoms: C_5  and  C_18
    3  A    between atoms: C_8  and  C_18
    4  A    between atoms: N_13  and  C_25
    5  A    between atoms: C_16  and  C_21
    6  A    between atoms: C_26  and  C_31
                            x       y       z     vdW  Elec       q    Type
                         _______ _______ _______ _____ _____    ______ ____

>  <TORSDO>
F 6

$$$$
=
 OpenBabel11072413033D

 37 42  0  0  1  0  0  0  0  0999 V2000
  161.7810  208.9290  151.6600 O   0  0  0  0  0  1  0  0  0  0  0  0
  160.4890  210.4550  154.7200 C   0  0  1  0  0  0  0  0  0  0  0  0
  161.5910  208.5390  156.0580 C   0  0  0  0  0  2  0  0  0  0  0  0
  160.8340  207.6030  155.0960 C   0  0  0  0  0  2  0  0  0  0  0  0
  161.0990  208.9390  152.8770 C   0  0  2  0  0  3  0  0  0  0  0  0
  161.0280  209.9830  156.0840 C   0  0  1  0  0  3  0  0  0  0  0  0
  161.0890  211.5280  153.7940 C   0  0  1  0  0  3  0  0  0  0  0  0
  161.6090  210.1000  153.7210 C   0  0  1  0  0  3  0  0  0  0  0  0
  161.3840  207.6270  153.6510 C   0  0  2  0  0  3  0  0  0  0  0  0
  159.3350  213.6010  151.4250 N   0  0  0  0  0  0  0  0  0  0  0  0
  158.2900  213.7530  149.3670 C   0  0  0  0  0  2  0  0  0  0  0  0
  158.0390  213.5600  150.8340 C   0  0  2  0  0  3  0  0  0  0  0  0
  159.3700  212.9630  152.6550 C   0  0  0  0  0  0  0  0  0  0  0  0
  160.2530  211.8520  152.6360 N   0  0  0  0  0  0  0  0  0  0  0  0
  157.1580  214.4530  151.5800 N   0  0  0  0  0  2  0  0  0  0  0  0
  160.7640  211.7670  151.2510 C   0  0  0  0  0  2  0  0  0  0  0  0
  159.5970  212.9340  149.2100 C   0  0  2  0  0  3  0  0  0  0  0  0
  158.3120  213.1120  153.4600 C   0  0  0  0  0  3  0  0  0  0  0  0
  160.3360  213.0780  150.5520 C   0  0  1  0  0  3  0  0  0  0  0  0
  157.2200  214.1200  153.0420 C   0  0  0  0  0  2  0  0  0  0  0  0
  162.4740  214.4310  147.2180 C   0  0  0  0  0  3  0  0  0  0  0  0
  158.6780  212.8090  146.4990 O   0  0  0  0  0  1  0  0  0  0  0  0
  161.7010  213.9750  148.2890 C   0  0  0  0  0  3  0  0  0  0  0  0
  159.9350  213.3450  146.7510 C   0  0  0  0  0  0  0  0  0  0  0  0
  160.7120  213.8040  145.6820 C   0  0  0  0  0  3  0  0  0  0  0  0
  161.9790  214.3450  145.9140 C   0  0  0  0  0  3  0  0  0  0  0  0
  160.4280  213.4300  148.0640 C   0  0  0  0  0  0  0  0  0  0  0  0
  161.5270  211.9970  157.2520 O   0  0  0  0  0  0  0  0  0  0  0  0
  161.9790  210.9490  156.7190 C   0  0  0  0  0  0  0  0  0  0  0  0
  163.3860  210.7050  156.6830 N   0  0  0  0  0  2  0  0  0  0  0  0
  164.3440  211.6320  157.2610 C   0  0  0  0  0  1  0  0  0  0  0  0
  160.8000  206.4360  152.9080 C   0  0  0  0  0  2  0  0  0  0  0  0
  161.6530  205.3360  153.0140 O   0  0  0  0  0  1  0  0  0  0  0  0
  159.0320  210.0470  154.3880 C   0  0  0  0  0  2  0  0  0  0  0  0
  158.0370  210.6060  155.3590 C   0  0  0  0  0  0  0  0  0  0  0  0
  158.4820  211.2990  156.6020 C   0  0  0  0  0  1  0  0  0  0  0  0
  156.7370  210.4860  155.1060 C   0  0  0  0  0  2  0  0  0  0  0  0
  2 34  1  6  0  0  0
  2  6  1  0  0  0  0
  3  6  1  0  0  0  0
  4  3  1  0  0  0  0
  5  1  1  6  0  0  0
  5  9  1  0  0  0  0
  5  8  1  0  0  0  0
  6 29  1  6  0  0  0
  7 14  1  6  0  0  0
  7  2  1  0  0  0  0
  8  7  1  0  0  0  0
  8  2  1  0  0  0  0
  9  4  1  0  0  0  0
 10 13  1  0  0  0  0
 11 12  1  0  0  0  0
 12 10  1  0  0  0  0
 12 15  1  0  0  0  0
 13 18  2  0  0  0  0
 14 13  1  0  0  0  0
 15 20  1  0  0  0  0
 16 14  1  0  0  0  0
 17 11  1  0  0  0  0
 17 19  1  0  0  0  0
 19 16  1  0  0  0  0
 19 10  1  0  0  0  0
 20 18  1  0  0  0  0
 21 23  1  0  0  0  0
 22 24  1  0  0  0  0
 24 27  1  0  0  0  0
 25 26  1  0  0  0  0
 25 24  2  0  0  0  0
 26 21  2  0  0  0  0
 27 23  2  0  0  0  0
 27 17  1  0  0  0  0
 29 28  2  0  0  0  0
 30 29  1  0  0  0  0
 30 31  1  0  0  0  0
 32 33  1  0  0  0  0
 32  9  1  0  0  0  0
 34 35  1  0  0  0  0
 35 36  1  0  0  0  0
 37 35  2  0  0  0  0
M  END
>  <MODEL>
2

>  <REMARK>
 VINA RESULT:      -5.2      3.506      6.293
  Name = 
  6 active torsions:
  status: ('A' for Active; 'I' for Inactive)
    1  A    between atoms: C_1  and  C_36
    2  A    between atoms: C_5  and  C_18
    3  A    between atoms: C_8  and  C_18
    4  A    between atoms: N_13  and  C_25
    5  A    between atoms: C_16  and  C_21
    6  A    between atoms: C_26  and  C_31
                            x       y       z     vdW  Elec       q    Type
                         _______ _______ _______ _____ _____    ______ ____

>  <TORSDO>
F 6

$$$$
=
 OpenBabel11072413033D

 37 42  0  0  1  0  0  0  0  0999 V2000
  159.5720  211.6020  150.6270 O   0  0  0  0  0  1  0  0  0  0  0  0
  159.0320  211.7850  154.2380 C   0  0  1  0  0  0  0  0  0  0  0  0
  157.9130  214.0860  153.8840 C   0  0  0  0  0  2  0  0  0  0  0  0
  159.2000  214.4520  153.1180 C   0  0  0  0  0  2  0  0  0  0  0  0
  159.6360  212.2000  151.8870 C   0  0  2  0  0  3  0  0  0  0  0  0
  158.0730  212.8490  154.8040 C   0  0  1  0  0  3  0  0  0  0  0  0
  158.6720  210.3850  153.7080 C   0  0  1  0  0  3  0  0  0  0  0  0
  158.5670  211.5860  152.7800 C   0  0  1  0  0  3  0  0  0  0  0  0
  159.3420  213.7160  151.7650 C   0  0  2  0  0  3  0  0  0  0  0  0
  160.5790  207.3690  153.2040 N   0  0  0  0  0  0  0  0  0  0  0  0
  162.4650  206.3850  152.2970 C   0  0  0  0  0  2  0  0  0  0  0  0
  161.8920  206.9490  153.5640 C   0  0  2  0  0  3  0  0  0  0  0  0
  160.0850  208.3380  154.0630 C   0  0  0  0  0  0  0  0  0  0  0  0
  159.8340  209.5560  153.3790 N   0  0  0  0  0  0  0  0  0  0  0  0
  161.8090  206.1510  154.7830 N   0  0  0  0  0  2  0  0  0  0  0  0
  160.2660  209.3310  151.9830 C   0  0  0  0  0  2  0  0  0  0  0  0
  161.8720  207.3810  151.2680 C   0  0  2  0  0  3  0  0  0  0  0  0
  160.3650  208.2110  155.3650 C   0  0  0  0  0  3  0  0  0  0  0  0
  160.5130  207.8100  151.8480 C   0  0  1  0  0  3  0  0  0  0  0  0
  161.0550  206.9120  155.8350 C   0  0  0  0  0  2  0  0  0  0  0  0
  161.2010  204.8370  148.5180 C   0  0  0  0  0  3  0  0  0  0  0  0
  162.3410  208.8550  148.8560 O   0  0  0  0  0  1  0  0  0  0  0  0
  161.3420  205.4130  149.7830 C   0  0  0  0  0  3  0  0  0  0  0  0
  161.9620  207.5220  148.7580 C   0  0  0  0  0  0  0  0  0  0  0  0
  161.8210  206.9400  147.4930 C   0  0  0  0  0  3  0  0  0  0  0  0
  161.4400  205.6010  147.3730 C   0  0  0  0  0  3  0  0  0  0  0  0
  161.7240  206.7570  149.9130 C   0  0  0  0  0  0  0  0  0  0  0  0
  155.7750  212.3400  154.4490 O   0  0  0  0  0  0  0  0  0  0  0  0
  156.7530  212.2950  155.2410 C   0  0  0  0  0  0  0  0  0  0  0  0
  156.5950  211.7600  156.5560 N   0  0  0  0  0  2  0  0  0  0  0  0
  155.3230  211.2400  157.0290 C   0  0  0  0  0  1  0  0  0  0  0  0
  160.4390  214.4070  150.9700 C   0  0  0  0  0  2  0  0  0  0  0  0
  160.1540  214.3490  149.6050 O   0  0  0  0  0  1  0  0  0  0  0  0
  160.5380  212.0090  154.5200 C   0  0  0  0  0  2  0  0  0  0  0  0
  160.9260  211.6510  155.9220 C   0  0  0  0  0  0  0  0  0  0  0  0
  162.2170  210.9640  156.2110 C   0  0  0  0  0  1  0  0  0  0  0  0
  160.1080  211.9560  156.9250 C   0  0  0  0  0  2  0  0  0  0  0  0
  2 34  1  1  0  0  0
  2  6  1  0  0  0  0
  3  6  1  0  0  0  0
  4  3  1  0  0  0  0
  5  1  1  6  0  0  0
  5  8  1  0  0  0  0
  6 29  1  6  0  0  0
  7 14  1  6  0  0  0
  7  2  1  0  0  0  0
  8  7  1  0  0  0  0
  8  2  1  0  0  0  0
  9  5  1  0  0  0  0
  9  4  1  0  0  0  0
 10 12  1  0  0  0  0
 10 13  1  0  0  0  0
 11 12  1  0  0  0  0
 12 15  1  0  0  0  0
 13 18  2  0  0  0  0
 14 13  1  0  0  0  0
 15 20  1  0  0  0  0
 16 14  1  0  0  0  0
 17 19  1  0  0  0  0
 17 11  1  0  0  0  0
 18 20  1  0  0  0  0
 19 16  1  0  0  0  0
 19 10  1  0  0  0  0
 21 23  1  0  0  0  0
 23 27  2  0  0  0  0
 24 22  1  0  0  0  0
 24 27  1  0  0  0  0
 25 24  2  0  0  0  0
 26 25  1  0  0  0  0
 26 21  2  0  0  0  0
 27 17  1  0  0  0  0
 28 29  2  0  0  0  0
 29 30  1  0  0  0  0
 30 31  1  0  0  0  0
 32  9  1  0  0  0  0
 33 32  1  0  0  0  0
 34 35  1  0  0  0  0
 35 36  1  0  0  0  0
 35 37  2  0  0  0  0
M  END
>  <MODEL>
3

>  <REMARK>
 VINA RESULT:      -3.7      2.983      5.593
  Name = 
  6 active torsions:
  status: ('A' for Active; 'I' for Inactive)
    1  A    between atoms: C_1  and  C_36
    2  A    between atoms: C_5  and  C_18
    3  A    between atoms: C_8  and  C_18
    4  A    between atoms: N_13  and  C_25
    5  A    between atoms: C_16  and  C_21
    6  A    between atoms: C_26  and  C_31
                            x       y       z     vdW  Elec       q    Type
                         _______ _______ _______ _____ _____    ______ ____

>  <TORSDO>
F 6

$$$$
