=
 OpenBabel11072414193D

 56 63  0  0  1  0  0  0  0  0999 V2000
  159.4940  212.0270  151.6130 C   0  0  0  0  0  0  0  0  0  0  0  0
  161.3600  208.3380  156.7700 C   0  0  0  0  0  2  0  0  0  0  0  0
  161.0230  209.7670  156.3880 C   0  0  0  0  0  2  0  0  0  0  0  0
  162.6840  206.9310  155.4480 O   0  0  0  0  0  0  0  0  0  0  0  0
  158.1450  213.3060  154.4620 C   0  0  2  0  0  0  0  0  0  0  0  0
  160.3440  214.2940  149.9600 C   0  0  0  0  0  2  0  0  0  0  0  0
  160.6780  212.8460  149.6360 C   0  0  0  0  0  2  0  0  0  0  0  0
  161.6200  207.6530  155.5310 C   0  0  0  0  0  0  0  0  0  0  0  0
  154.9420  214.1810  152.1350 C   0  0  0  0  0  2  0  0  0  0  0  0
  157.1290  213.8590  153.3170 C   0  0  1  0  0  3  0  0  0  0  0  0
  154.9690  213.1620  154.2770 O   0  0  0  0  0  1  0  0  0  0  0  0
  159.9720  208.9440  154.2070 C   0  0  0  0  0  0  0  0  0  0  0  0
  160.6180  211.9950  150.8720 C   0  0  0  0  0  3  0  0  0  0  0  0
  159.1540  214.4520  154.6400 C   0  0  0  0  0  1  0  0  0  0  0  0
  159.0280  211.0180  155.3940 C   0  0  0  0  0  3  0  0  0  0  0  0
  157.1520  213.0990  152.0300 C   0  0  1  0  0  3  0  0  0  0  0  0
  160.6170  206.4300  153.8180 C   0  0  0  0  0  0  0  0  0  0  0  0
  160.7600  207.6900  154.3480 N   0  0  0  0  0  0  0  0  0  0  0  0
  159.0660  211.9320  154.1660 C   0  0  0  0  0  0  0  0  0  0  0  0
  159.7680  209.6110  152.9780 C   0  0  0  0  0  3  0  0  0  0  0  0
  159.0600  214.4510  150.8240 C   0  0  0  0  0  2  0  0  0  0  0  0
  160.0990  205.4750  154.5480 O   0  0  0  0  0  0  0  0  0  0  0  0
  155.8140  213.2740  151.2800 C   0  0  0  0  0  2  0  0  0  0  0  0
  158.4520  213.0910  151.1920 C   0  0  1  0  0  3  0  0  0  0  0  0
  159.3000  211.1240  152.8450 C   0  0  0  0  0  0  0  0  0  0  0  0
  159.8280  209.7750  155.4370 C   0  0  0  0  0  0  0  0  0  0  0  0
  155.5810  214.1740  153.5330 C   0  0  2  0  0  3  0  0  0  0  0  0
  161.7170  206.7220  150.2540 N   0  0  0  0  0  0  0  0  0  0  0  0
  161.4320  208.2670  151.9940 O   0  0  0  0  0  0  0  0  0  0  0  0
  161.3710  206.0140  152.5080 C   0  0  1  0  0  3  0  0  0  0  0  0
  161.6930  205.2910  150.2020 C   0  0  0  0  0  2  0  0  0  0  0  0
  161.1100  204.8330  151.5050 C   0  0  1  0  0  3  0  0  0  0  0  0
  161.4210  207.0930  151.5920 C   0  0  0  0  0  0  0  0  0  0  0  0
  161.3330  207.5610  149.1450 C   0  0  2  0  0  3  0  0  0  0  0  0
  162.0140  207.3330  147.7390 C   0  0  1  0  0  3  0  0  0  0  0  0
  162.5670  208.3810  148.7670 C   0  0  1  0  0  3  0  0  0  0  0  0
  162.2430  205.7840  147.6000 C   0  0  2  0  0  3  0  0  0  0  0  0
  163.5370  203.8140  146.3480 C   0  0  0  0  0  2  0  0  0  0  0  0
  163.9650  205.1270  147.4940 S   0  0  0  0  0  0  0  0  0  0  0  0
  162.0260  203.8520  145.9960 C   0  0  0  0  0  2  0  0  0  0  0  0
  161.5980  205.2410  146.3860 C   0  0  1  0  0  3  0  0  0  0  0  0
  160.2440  205.8520  146.2450 N   0  0  0  0  0  2  0  0  0  0  0  0
  159.8860  206.3450  144.9020 C   0  0  0  0  0  2  0  0  0  0  0  0
  160.8100  205.6980  143.9180 N   0  0  0  0  0  1  0  0  0  0  0  0
  161.5710  210.6630  148.1550 C   0  0  0  0  0  2  0  0  0  0  0  0
  162.6220  210.3250  150.1610 O   0  0  0  0  0  1  0  0  0  0  0  0
  162.2220  209.8120  148.9990 C   0  0  0  0  0  0  0  0  0  0  0  0
  160.5440  202.3650  150.5160 C   0  0  0  0  0  2  0  0  0  0  0  0
  160.8520  203.3800  151.2650 C   0  0  0  0  0  2  0  0  0  0  0  0
  160.3170  201.3950  149.4250 C   0  0  1  0  0  3  0  0  0  0  0  0
  158.9360  201.2090  149.0370 N   0  0  0  0  0  1  0  0  0  0  0  0
  160.2610  202.0140  147.1060 O   0  0  0  0  0  1  0  0  0  0  0  0
  161.1150  201.5650  148.1150 C   0  0  0  0  0  3  0  0  0  0  0  0
  161.7160  200.3680  147.7450 O   0  0  0  0  0  1  0  0  0  0  0  0
  157.3240  214.3080  156.9480 C   0  0  0  0  0  1  0  0  0  0  0  0
  157.3740  213.1910  155.8510 C   0  0  0  0  0  2  0  0  0  0  0  0
  1 25  1  0  0  0  0
  3  2  1  0  0  0  0
  4  8  2  0  0  0  0
  5 14  1  1  0  0  0
  5 56  1  0  0  0  0
  6 21  1  0  0  0  0
  7  6  1  0  0  0  0
  7 13  1  0  0  0  0
  8  2  1  0  0  0  0
  9 27  1  0  0  0  0
 10 27  1  0  0  0  0
 10  5  1  0  0  0  0
 12 18  1  0  0  0  0
 12 26  1  0  0  0  0
 13  1  2  0  0  0  0
 15 26  2  0  0  0  0
 16 10  1  0  0  0  0
 17 18  1  0  0  0  0
 17 22  2  0  0  0  0
 18  8  1  0  0  0  0
 19  5  1  0  0  0  0
 19 15  1  0  0  0  0
 20 12  2  0  0  0  0
 21 24  1  0  0  0  0
 23 16  1  0  0  0  0
 23  9  1  0  0  0  0
 24  1  1  0  0  0  0
 24 16  1  0  0  0  0
 25 20  1  0  0  0  0
 25 19  2  0  0  0  0
 26  3  1  0  0  0  0
 27 11  1  0  0  0  0
 28 33  1  0  0  0  0
 30 17  1  0  0  0  0
 31 28  1  0  0  0  0
 31 32  1  0  0  0  0
 32 30  1  0  0  0  0
 33 29  2  0  0  0  0
 33 30  1  0  0  0  0
 34 28  1  0  0  0  0
 35 36  1  0  0  0  0
 35 34  1  0  0  0  0
 36 47  1  0  0  0  0
 36 34  1  0  0  0  0
 37 35  1  0  0  0  0
 38 39  1  0  0  0  0
 39 37  1  0  0  0  0
 40 38  1  0  0  0  0
 40 41  1  0  0  0  0
 41 37  1  0  0  0  0
 42 41  1  0  0  0  0
 43 42  1  0  0  0  0
 44 43  1  0  0  0  0
 45 47  2  0  0  0  0
 47 46  1  0  0  0  0
 48 49  1  0  0  0  0
 49 32  1  0  0  0  0
 50 48  1  0  0  0  0
 51 50  1  0  0  0  0
 52 53  1  0  0  0  0
 53 50  1  0  0  0  0
 54 53  1  0  0  0  0
 56 55  1  0  0  0  0
M  END
>  <MODEL>
1

>  <REMARK>
 VINA RESULT:      -1.3      0.000      0.000
  Name = 
  10 active torsions:
  status: ('A' for Active; 'I' for Inactive)
    1  A    between atoms: C_3  and  C_32
    2  A    between atoms: C_8  and  C_35
    3  A    between atoms: N_9  and  C_17
    4  A    between atoms: N_13  and  C_28
    5  A    between atoms: N_13  and  C_41
    6  A    between atoms: CA_29  and  C_30
    7  A    between atoms: CA_29  and  C_38
    8  A    between atoms: C_34  and  C_37
    9  A    between atoms: C_40  and  C_42
   10  A    between atoms: C_53  and  C_55
                            x       y       z     vdW  Elec       q    Type
                         _______ _______ _______ _____ _____    ______ ____

>  <TORSDO>
F 10

$$$$
