=
 OpenBabel11072410053D

 69 74  0  0  1  0  0  0  0  0999 V2000
  159.1410  211.8710  152.9450 C   0  0  0  0  0  2  0  0  0  0  0  0
  159.7910  211.1180  154.1170 C   0  0  1  0  0  3  0  0  0  0  0  0
  160.5080  213.0890  155.5470 C   0  0  0  0  0  2  0  0  0  0  0  0
  158.5040  214.3110  153.5670 C   0  0  2  0  0  3  0  0  0  0  0  0
  159.2840  213.8260  156.0550 C   0  0  0  0  0  2  0  0  0  0  0  0
  158.1510  213.8050  154.9740 C   0  0  1  0  0  3  0  0  0  0  0  0
  157.3070  214.4520  152.8150 O   0  0  0  0  0  1  0  0  0  0  0  0
  159.4910  213.3320  152.8670 C   0  0  2  0  0  3  0  0  0  0  0  0
  160.2190  211.6430  155.3000 C   0  0  0  0  0  2  0  0  0  0  0  0
  161.4770  208.6280  153.0810 C   0  0  1  0  0  0  0  0  0  0  0  0
  162.4880  209.5440  152.8090 F   0  0  0  0  0  0  0  0  0  0  0  0
  160.2520  208.8440  155.1300 C   0  0  0  0  0  2  0  0  0  0  0  0
  161.5400  208.3410  154.5760 C   0  0  0  0  0  2  0  0  0  0  0  0
  160.2230  209.1840  152.7690 O   0  0  0  0  0  0  0  0  0  0  0  0
  159.6400  209.6150  153.9870 C   0  0  2  0  0  3  0  0  0  0  0  0
  162.6750  206.4230  153.0360 C   0  0  0  0  0  2  0  0  0  0  0  0
  161.2690  204.2460  151.5540 C   0  0  0  0  0  0  0  0  0  0  0  0
  160.5230  205.5060  151.0810 C   0  0  0  0  0  2  0  0  0  0  0  0
  163.2760  205.4810  152.0570 C   0  0  0  0  0  2  0  0  0  0  0  0
  160.3850  206.5890  152.1710 C   0  0  0  0  0  2  0  0  0  0  0  0
  161.7020  207.3190  152.2910 C   0  0  1  0  0  3  0  0  0  0  0  0
  162.5080  204.2850  151.8900 N   0  0  0  0  0  0  0  0  0  0  0  0
  160.6190  202.9260  151.3610 C   0  0  0  0  0  2  0  0  0  0  0  0
  160.0020  200.8920  149.8180 C   0  0  0  0  0  0  0  0  0  0  0  0
  159.7180  199.9670  150.6300 O   0  0  0  0  0  0  0  0  0  0  0  0
  162.2260  201.6490  150.2100 O   0  0  0  0  0  1  0  0  0  0  0  0
  159.9420  202.3040  148.0000 C   0  0  1  0  0  3  0  0  0  0  0  0
  159.4010  201.0460  148.5690 N   0  0  0  0  0  2  0  0  0  0  0  0
  160.8870  202.0770  150.1140 C   0  0  2  0  0  0  0  0  0  0  0  0
  160.7350  202.9580  148.9940 O   0  0  0  0  0  0  0  0  0  0  0  0
  160.8800  202.0570  146.7860 C   0  0  1  0  0  3  0  0  0  0  0  0
  158.9080  200.5030  145.7860 O   0  0  0  0  0  1  0  0  0  0  0  0
  159.6770  202.4980  144.2920 O   0  0  0  0  0  0  0  0  0  0  0  0
  160.1300  201.2480  145.3400 P   0  0  0  0  0  0  0  0  0  0  0  0
  161.1660  200.0730  144.6350 O   0  0  0  0  0  1  0  0  0  0  0  0
  161.6080  203.3460  146.3070 C   0  0  2  0  0  3  0  0  0  0  0  0
  162.3040  204.1330  147.4100 C   0  0  0  0  0  1  0  0  0  0  0  0
  160.8370  204.2630  145.3790 C   0  0  0  0  0  2  0  0  0  0  0  0
  160.5030  206.0130  147.4120 O   0  0  0  0  0  0  0  0  0  0  0  0
  162.3980  206.3890  145.8730 O   0  0  0  0  0  0  0  0  0  0  0  0
  160.0440  207.0050  145.0670 F   0  0  0  0  0  0  0  0  0  0  0  0
  160.9770  205.9560  145.9800 S   0  0  0  0  0  0  0  0  0  0  0  0
  160.6990  214.4140  150.9230 O   0  0  0  0  0  1  0  0  0  0  0  0
  159.6390  213.5730  151.3430 C   0  0  1  0  0  3  0  0  0  0  0  0
  159.4470  212.3230  150.3960 C   0  0  2  0  0  3  0  0  0  0  0  0
  161.0620  211.5960  147.2220 O   0  0  0  0  0  1  0  0  0  0  0  0
  160.6670  211.1680  148.5000 C   0  0  2  0  0  3  0  0  0  0  0  0
  160.6910  212.2830  149.4060 C   0  0  1  0  0  0  0  0  0  0  0  0
  161.1880  213.5220  148.9740 O   0  0  0  0  0  1  0  0  0  0  0  0
  162.1100  211.0620  149.6550 P   0  0  2  0  0  0  0  0  0  0  0  0
  163.3760  211.4170  148.9140 O   0  0  0  0  0  0  0  0  0  0  0  0
  162.3260  211.2540  151.3370 O   0  0  0  0  0  1  0  0  0  0  0  0
  158.1180  212.2690  149.5790 C   0  0  0  0  0  2  0  0  0  0  0  0
  157.5920  213.6200  148.9720 C   0  0  2  0  0  0  0  0  0  0  0  0
  156.7080  214.3600  149.8040 O   0  0  0  0  0  0  0  0  0  0  0  0
  156.1190  213.6080  148.7690 C   0  0  0  0  0  2  0  0  0  0  0  0
  158.4840  214.4500  147.5900 S   0  0  0  0  0  0  0  0  0  0  0  0
  158.7620  213.1830  146.3010 C   0  0  1  0  0  3  0  0  0  0  0  0
  157.3970  212.9010  145.7130 C   0  0  0  0  0  1  0  0  0  0  0  0
  159.6250  213.7910  145.1780 C   0  0  0  0  0  2  0  0  0  0  0  0
  160.0870  212.7660  144.3560 O   0  0  0  0  0  0  0  0  0  0  0  0
  159.3630  213.0570  143.1680 C   0  0  0  0  0  2  0  0  0  0  0  0
  158.9590  212.4480  141.0980 C   0  0  0  0  0  1  0  0  0  0  0  0
  159.2620  211.9320  142.3220 O   0  0  0  0  0  0  0  0  0  0  0  0
  156.8580  214.4000  155.5190 C   0  0  0  0  0  2  0  0  0  0  0  0
  155.5540  213.6100  155.3090 C   0  0  0  0  0  2  0  0  0  0  0  0
  155.5820  212.3030  155.9070 O   0  0  0  0  0  0  0  0  0  0  0  0
  155.4210  210.0240  155.2590 C   0  0  0  0  0  1  0  0  0  0  0  0
  155.2030  211.4810  154.8430 C   0  0  0  0  0  2  0  0  0  0  0  0
  2  1  1  1  0  0  0
  2  9  1  0  0  0  0
  3  5  1  0  0  0  0
  4  7  1  6  0  0  0
  4  6  1  0  0  0  0
  6 65  1  1  0  0  0
  6  5  1  0  0  0  0
  8 44  1  6  0  0  0
  8  1  1  0  0  0  0
  8  4  1  0  0  0  0
  9  3  1  0  0  0  0
 10 11  1  6  0  0  0
 10 13  1  0  0  0  0
 13 12  1  0  0  0  0
 14 10  1  0  0  0  0
 14 15  1  0  0  0  0
 15  2  1  0  0  0  0
 15 12  1  1  0  0  0
 17 22  2  0  0  0  0
 18 17  1  0  0  0  0
 18 20  1  0  0  0  0
 19 16  1  0  0  0  0
 21 20  1  1  0  0  0
 21 16  1  0  0  0  0
 21 10  1  0  0  0  0
 22 19  1  0  0  0  0
 23 17  1  0  0  0  0
 24 29  1  0  0  0  0
 24 25  2  0  0  0  0
 27 31  1  6  0  0  0
 27 28  1  0  0  0  0
 27 30  1  0  0  0  0
 28 24  1  0  0  0  0
 29 26  1  1  0  0  0
 29 23  1  0  0  0  0
 30 29  1  0  0  0  0
 31 34  1  6  0  0  0
 33 34  2  0  0  0  0
 34 32  1  0  0  0  0
 35 34  1  0  0  0  0
 36 31  1  0  0  0  0
 36 37  1  1  0  0  0
 38 42  1  0  0  0  0
 38 36  1  0  0  0  0
 40 42  2  0  0  0  0
 41 42  1  0  0  0  0
 42 39  2  0  0  0  0
 44 43  1  1  0  0  0
 45 53  1  6  0  0  0
 45 44  1  0  0  0  0
 47 46  1  6  0  0  0
 47 48  1  0  0  0  0
 47 50  1  0  0  0  0
 48 49  1  6  0  0  0
 48 50  1  0  0  0  0
 48 45  1  0  0  0  0
 50 51  2  6  0  0  0
 50 52  1  0  0  0  0
 54 53  1  1  0  0  0
 54 55  1  0  0  0  0
 56 54  1  0  0  0  0
 56 55  1  0  0  0  0
 57 54  1  0  0  0  0
 58 59  1  6  0  0  0
 58 57  1  0  0  0  0
 60 58  1  0  0  0  0
 61 60  1  0  0  0  0
 62 61  1  0  0  0  0
 63 64  1  0  0  0  0
 64 62  1  0  0  0  0
 66 65  1  0  0  0  0
 66 67  1  0  0  0  0
 69 68  1  0  0  0  0
 69 67  1  0  0  0  0
M  END
>  <MODEL>
1

>  <REMARK>
 VINA RESULT:       1.7      0.000      0.000
  Name = 
  24 active torsions:
  status: ('A' for Active; 'I' for Inactive)
    1  A    between atoms: C_3  and  C_11
    2  A    between atoms: C_3  and  O_48
    3  A    between atoms: C_5  and  C_60
    4  A    between atoms: C_5  and  S_67
    5  A    between atoms: C_8  and  C_49
    6  A    between atoms: C_9  and  C_14
    7  A    between atoms: C_9  and  S_67
    8  A    between atoms: C_11  and  C_39
    9  A    between atoms: C_13  and  C_21
   10  A    between atoms: C_13  and  C_29
   11  A    between atoms: C_13  and  C_60
   12  A    between atoms: C_14  and  O_16
   13  A    between atoms: O_16  and  C_46
   14  A    between atoms: C_21  and  C_65
   15  A    between atoms: C_22  and  C_58
   16  A    between atoms: C_25  and  C_30
   17  A    between atoms: C_25  and  S_59
   18  A    between atoms: C_26  and  C_62
   19  A    between atoms: C_30  and  C_33
   20  A    between atoms: C_33  and  P_36
   21  A    between atoms: C_33  and  C_50
   22  A    between atoms: C_35  and  O_48
   23  A    between atoms: C_46  and  O_61
   24  A    between atoms: C_62  and  C_63
                            x       y       z     vdW  Elec       q    Type
                         _______ _______ _______ _____ _____    ______ ____

>  <TORSDO>
F 24

$$$$
=
 OpenBabel11072410053D

 69 74  0  0  1  0  0  0  0  0999 V2000
  160.6480  211.3190  151.5770 C   0  0  0  0  0  2  0  0  0  0  0  0
  161.3920  210.3390  152.4980 C   0  0  1  0  0  3  0  0  0  0  0  0
  161.1670  211.5720  154.7060 C   0  0  0  0  0  2  0  0  0  0  0  0
  159.0930  212.9300  152.8950 C   0  0  2  0  0  3  0  0  0  0  0  0
  159.7090  211.6240  155.1190 C   0  0  0  0  0  2  0  0  0  0  0  0
  158.7930  211.7710  153.8560 C   0  0  1  0  0  3  0  0  0  0  0  0
  158.0210  213.0480  151.9680 O   0  0  0  0  0  1  0  0  0  0  0  0
  160.4430  212.6920  152.1570 C   0  0  2  0  0  3  0  0  0  0  0  0
  161.4600  210.3740  153.8590 C   0  0  0  0  0  2  0  0  0  0  0  0
  160.8960  207.2010  152.6530 C   0  0  1  0  0  0  0  0  0  0  0  0
  160.0420  207.4830  153.7150 F   0  0  0  0  0  0  0  0  0  0  0  0
  160.8350  208.6220  150.7230 C   0  0  0  0  0  2  0  0  0  0  0  0
  160.1140  207.4940  151.3780 C   0  0  0  0  0  2  0  0  0  0  0  0
  162.0250  208.0370  152.7060 O   0  0  0  0  0  0  0  0  0  0  0  0
  161.8200  209.0800  151.7700 C   0  0  2  0  0  3  0  0  0  0  0  0
  160.0880  204.8240  152.6590 C   0  0  0  0  0  2  0  0  0  0  0  0
  161.9590  202.8470  151.4330 C   0  0  0  0  0  0  0  0  0  0  0  0
  162.8610  204.0770  151.6350 C   0  0  0  0  0  2  0  0  0  0  0  0
  160.4710  203.5000  153.2130 C   0  0  0  0  0  2  0  0  0  0  0  0
  162.1290  205.4210  151.4350 C   0  0  0  0  0  2  0  0  0  0  0  0
  161.3180  205.7140  152.6750 C   0  0  1  0  0  3  0  0  0  0  0  0
  160.9700  202.6020  152.2160 N   0  0  0  0  0  0  0  0  0  0  0  0
  162.4030  201.7940  150.4870 C   0  0  0  0  0  2  0  0  0  0  0  0
  160.1970  201.4960  149.0920 C   0  0  0  0  0  0  0  0  0  0  0  0
  159.4810  200.7410  149.8090 O   0  0  0  0  0  0  0  0  0  0  0  0
  162.2560  200.4090  148.5900 O   0  0  0  0  0  1  0  0  0  0  0  0
  160.8640  203.2000  147.6950 C   0  0  1  0  0  3  0  0  0  0  0  0
  159.6890  202.4930  148.2590 N   0  0  0  0  0  2  0  0  0  0  0  0
  161.7020  201.5810  149.1410 C   0  0  2  0  0  0  0  0  0  0  0  0
  162.0470  202.7120  148.3310 O   0  0  0  0  0  0  0  0  0  0  0  0
  161.0460  202.9390  146.1740 C   0  0  1  0  0  3  0  0  0  0  0  0
  160.7960  200.2890  145.7090 O   0  0  0  0  0  1  0  0  0  0  0  0
  158.6050  201.5660  146.3160 O   0  0  0  0  0  1  0  0  0  0  0  0
  160.0690  201.5770  145.4670 P   0  0  0  0  0  0  0  0  0  0  0  0
  159.8990  201.7080  143.7630 O   0  0  0  0  0  0  0  0  0  0  0  0
  160.8170  204.2110  145.3060 C   0  0  2  0  0  3  0  0  0  0  0  0
  161.9850  204.5840  144.4020 C   0  0  0  0  0  1  0  0  0  0  0  0
  160.2560  205.4290  146.0110 C   0  0  0  0  0  2  0  0  0  0  0  0
  162.8230  206.2650  146.1270 O   0  0  0  0  0  0  0  0  0  0  0  0
  161.1310  207.5790  147.3550 O   0  0  0  0  0  0  0  0  0  0  0  0
  161.8980  205.3520  148.3640 F   0  0  0  0  0  0  0  0  0  0  0  0
  161.5690  206.2110  146.9640 S   0  0  0  0  0  0  0  0  0  0  0  0
  161.9930  214.0350  150.6730 O   0  0  0  0  0  1  0  0  0  0  0  0
  160.6640  213.6220  150.9370 C   0  0  1  0  0  3  0  0  0  0  0  0
  159.8650  213.2780  149.6180 C   0  0  2  0  0  3  0  0  0  0  0  0
  160.8240  212.9090  146.1310 O   0  0  0  0  0  1  0  0  0  0  0  0
  160.5310  212.3180  147.3700 C   0  0  2  0  0  3  0  0  0  0  0  0
  160.9190  213.2080  148.4290 C   0  0  1  0  0  0  0  0  0  0  0  0
  161.6030  214.3960  148.1270 O   0  0  0  0  0  1  0  0  0  0  0  0
  162.0670  211.7240  148.2160 P   0  0  2  0  0  0  0  0  0  0  0  0
  163.2620  211.9800  147.3320 O   0  0  0  0  0  0  0  0  0  0  0  0
  162.5540  211.5370  149.8420 O   0  0  0  0  0  1  0  0  0  0  0  0
  158.7030  214.2490  149.2380 C   0  0  0  0  0  2  0  0  0  0  0  0
  157.5160  213.6550  148.3970 C   0  0  2  0  0  0  0  0  0  0  0  0
  156.6320  212.7990  149.1080 O   0  0  0  0  0  0  0  0  0  0  0  0
  157.5910  212.1750  148.2870 C   0  0  0  0  0  2  0  0  0  0  0  0
  156.9780  214.4490  146.8240 S   0  0  0  0  0  0  0  0  0  0  0  0
  158.0650  213.8010  145.5030 C   0  0  1  0  0  3  0  0  0  0  0  0
  157.7850  212.3160  145.4450 C   0  0  0  0  0  1  0  0  0  0  0  0
  157.6260  214.4010  144.1530 C   0  0  0  0  0  2  0  0  0  0  0  0
  158.1150  213.6010  143.1220 O   0  0  0  0  0  0  0  0  0  0  0  0
  157.8090  214.4240  142.0050 C   0  0  0  0  0  2  0  0  0  0  0  0
  156.3820  214.2360  140.3480 C   0  0  0  0  0  1  0  0  0  0  0  0
  157.5100  213.6630  140.8550 O   0  0  0  0  0  0  0  0  0  0  0  0
  157.3190  211.6650  154.2300 C   0  0  0  0  0  2  0  0  0  0  0  0
  156.8720  212.2530  155.5800 C   0  0  0  0  0  2  0  0  0  0  0  0
  155.4520  212.4560  155.6650 O   0  0  0  0  0  0  0  0  0  0  0  0
  153.9210  214.2710  155.6000 C   0  0  0  0  0  1  0  0  0  0  0  0
  155.3600  213.8330  155.8840 C   0  0  0  0  0  2  0  0  0  0  0  0
  1  8  1  0  0  0  0
  2  1  1  1  0  0  0
  2  9  1  0  0  0  0
  3  5  1  0  0  0  0
  4  7  1  6  0  0  0
  4  6  1  0  0  0  0
  6 65  1  1  0  0  0
  6  5  1  0  0  0  0
  8 44  1  6  0  0  0
  8  4  1  0  0  0  0
  9  3  1  0  0  0  0
 10 21  1  0  0  0  0
 10 14  1  0  0  0  0
 10 11  1  1  0  0  0
 12 13  1  0  0  0  0
 13 10  1  0  0  0  0
 15 12  1  6  0  0  0
 15  2  1  0  0  0  0
 15 14  1  0  0  0  0
 16 21  1  0  0  0  0
 16 19  1  0  0  0  0
 17 18  1  0  0  0  0
 17 22  2  0  0  0  0
 20 18  1  0  0  0  0
 21 20  1  6  0  0  0
 22 19  1  0  0  0  0
 23 17  1  0  0  0  0
 24 29  1  0  0  0  0
 24 25  2  0  0  0  0
 27 31  1  6  0  0  0
 27 28  1  0  0  0  0
 27 30  1  0  0  0  0
 28 24  1  0  0  0  0
 29 26  1  6  0  0  0
 29 23  1  0  0  0  0
 30 29  1  0  0  0  0
 31 34  1  6  0  0  0
 34 32  1  0  0  0  0
 34 33  1  0  0  0  0
 35 34  2  0  0  0  0
 36 37  1  1  0  0  0
 36 38  1  0  0  0  0
 36 31  1  0  0  0  0
 38 42  1  0  0  0  0
 39 42  2  0  0  0  0
 42 40  2  0  0  0  0
 42 41  1  0  0  0  0
 44 43  1  6  0  0  0
 45 53  1  6  0  0  0
 45 44  1  0  0  0  0
 47 46  1  6  0  0  0
 47 50  1  0  0  0  0
 47 48  1  0  0  0  0
 48 49  1  6  0  0  0
 48 45  1  0  0  0  0
 50 51  2  6  0  0  0
 50 48  1  0  0  0  0
 50 52  1  0  0  0  0
 54 55  1  0  0  0  0
 54 53  1  1  0  0  0
 56 54  1  0  0  0  0
 56 55  1  0  0  0  0
 57 54  1  0  0  0  0
 58 59  1  6  0  0  0
 58 57  1  0  0  0  0
 60 58  1  0  0  0  0
 61 60  1  0  0  0  0
 62 61  1  0  0  0  0
 63 64  1  0  0  0  0
 64 62  1  0  0  0  0
 65 66  1  0  0  0  0
 66 67  1  0  0  0  0
 67 69  1  0  0  0  0
 68 69  1  0  0  0  0
M  END
>  <MODEL>
2

>  <REMARK>
 VINA RESULT:       3.6      1.655      2.220
  Name = 
  24 active torsions:
  status: ('A' for Active; 'I' for Inactive)
    1  A    between atoms: C_3  and  C_11
    2  A    between atoms: C_3  and  O_48
    3  A    between atoms: C_5  and  C_60
    4  A    between atoms: C_5  and  S_67
    5  A    between atoms: C_8  and  C_49
    6  A    between atoms: C_9  and  C_14
    7  A    between atoms: C_9  and  S_67
    8  A    between atoms: C_11  and  C_39
    9  A    between atoms: C_13  and  C_21
   10  A    between atoms: C_13  and  C_29
   11  A    between atoms: C_13  and  C_60
   12  A    between atoms: C_14  and  O_16
   13  A    between atoms: O_16  and  C_46
   14  A    between atoms: C_21  and  C_65
   15  A    between atoms: C_22  and  C_58
   16  A    between atoms: C_25  and  C_30
   17  A    between atoms: C_25  and  S_59
   18  A    between atoms: C_26  and  C_62
   19  A    between atoms: C_30  and  C_33
   20  A    between atoms: C_33  and  P_36
   21  A    between atoms: C_33  and  C_50
   22  A    between atoms: C_35  and  O_48
   23  A    between atoms: C_46  and  O_61
   24  A    between atoms: C_62  and  C_63
                            x       y       z     vdW  Elec       q    Type
                         _______ _______ _______ _____ _____    ______ ____

>  <TORSDO>
F 24

$$$$
