=
 OpenBabel11072413113D

 34 37  0  0  1  0  0  0  0  0999 V2000
  157.6650  212.3340  153.8770 C   0  0  0  0  0  2  0  0  0  0  0  0
  160.7500  210.3600  153.4670 C   0  0  1  0  0  3  0  0  0  0  0  0
  158.2730  212.3220  155.2830 C   0  0  0  0  0  2  0  0  0  0  0  0
  160.8930  212.1270  156.7570 O   0  0  0  0  0  1  0  0  0  0  0  0
  162.7060  210.7000  154.8870 O   0  0  0  0  0  0  0  0  0  0  0  0
  158.5500  211.5980  152.9600 N   0  0  0  0  0  0  0  0  0  0  0  0
  160.5380  211.3950  155.6330 C   0  0  2  0  0  3  0  0  0  0  0  0
  159.2800  210.6580  153.8270 C   0  0  2  0  0  3  0  0  0  0  0  0
  161.4620  210.7730  154.7130 C   0  0  0  0  0  0  0  0  0  0  0  0
  159.3170  211.3000  155.1490 C   0  0  2  0  0  3  0  0  0  0  0  0
  160.9180  208.8690  153.2360 C   0  0  0  0  0  2  0  0  0  0  0  0
  162.1580  209.9390  148.7880 O   0  0  0  0  0  0  0  0  0  0  0  0
  161.4290  208.6230  151.8590 C   0  0  0  0  0  0  0  0  0  0  0  0
  162.0180  209.1450  149.7560 C   0  0  0  0  0  0  0  0  0  0  0  0
  161.4450  209.5650  150.9800 N   0  0  0  0  0  0  0  0  0  0  0  0
  162.4540  207.7220  149.6990 C   0  0  1  0  0  3  0  0  0  0  0  0
  162.1500  207.0530  151.3750 S   0  0  0  0  0  0  0  0  0  0  0  0
  161.6590  206.9550  148.6840 C   0  0  0  0  0  0  0  0  0  0  0  0
  162.0190  206.9000  147.5170 O   0  0  0  0  0  0  0  0  0  0  0  0
  160.4150  206.2540  149.1070 C   0  0  0  0  0  1  0  0  0  0  0  0
  159.6230  212.8150  152.2260 S   0  0  0  0  0  0  0  0  0  0  0  0
  158.3410  213.3670  151.0570 C   0  0  1  0  0  3  0  0  0  0  0  0
  157.3530  214.2840  151.7650 C   0  0  0  0  0  2  0  0  0  0  0  0
  156.0820  214.1840  151.1930 O   0  0  0  0  0  1  0  0  0  0  0  0
  158.9610  214.0600  149.9300 N   0  0  0  0  0  2  0  0  0  0  0  0
  158.8560  213.2790  148.6930 C   0  0  1  0  0  3  0  0  0  0  0  0
  157.5100  213.4480  147.9910 C   0  0  0  0  0  1  0  0  0  0  0  0
  160.8320  212.8540  145.4110 C   0  0  0  0  0  2  0  0  0  0  0  0
  162.8310  212.9050  146.7780 O   0  0  0  0  0  0  0  0  0  0  0  0
  162.5890  213.7590  147.8610 C   0  0  0  0  0  2  0  0  0  0  0  0
  161.3530  213.3060  148.6330 C   0  0  0  0  0  2  0  0  0  0  0  0
  162.1870  213.5150  145.6950 C   0  0  0  0  0  2  0  0  0  0  0  0
  160.1070  212.3610  146.6660 C   0  0  0  0  0  2  0  0  0  0  0  0
  160.0850  213.4090  147.7850 C   0  0  1  0  0  3  0  0  0  0  0  0
  1  3  1  0  0  0  0
  2 11  1  1  0  0  0
  2  8  1  0  0  0  0
  2  9  1  0  0  0  0
  6  1  1  0  0  0  0
  7  4  1  6  0  0  0
  8  6  1  6  0  0  0
  8 10  1  0  0  0  0
  9  5  2  0  0  0  0
  9  7  1  0  0  0  0
 10  3  1  6  0  0  0
 10  7  1  0  0  0  0
 12 14  2  0  0  0  0
 13 11  1  0  0  0  0
 14 15  1  0  0  0  0
 15 13  2  0  0  0  0
 16 18  1  6  0  0  0
 16 14  1  0  0  0  0
 16 17  1  0  0  0  0
 17 13  1  0  0  0  0
 18 20  1  0  0  0  0
 19 18  2  0  0  0  0
 21  6  1  0  0  0  0
 22 23  1  1  0  0  0
 22 21  1  0  0  0  0
 24 23  1  0  0  0  0
 25 22  1  0  0  0  0
 26 27  1  6  0  0  0
 26 25  1  0  0  0  0
 28 32  1  0  0  0  0
 28 33  1  0  0  0  0
 29 30  1  0  0  0  0
 30 31  1  0  0  0  0
 32 29  1  0  0  0  0
 33 34  1  0  0  0  0
 34 31  1  0  0  0  0
 34 26  1  1  0  0  0
M  END
>  <MODEL>
1

>  <REMARK>
 VINA RESULT:      -6.5      0.000      0.000
  Name = 
  9 active torsions:
  status: ('A' for Active; 'I' for Inactive)
    1  A    between atoms: C_1  and  N_14
    2  A    between atoms: C_1  and  C_33
    3  A    between atoms: C_6  and  C_11
    4  A    between atoms: C_7  and  C_26
    5  A    between atoms: C_9  and  C_31
    6  A    between atoms: C_11  and  C_16
    7  A    between atoms: N_14  and  C_26
    8  A    between atoms: S_19  and  N_20
    9  A    between atoms: S_19  and  C_26
                            x       y       z     vdW  Elec       q    Type
                         _______ _______ _______ _____ _____    ______ ____

>  <TORSDO>
F 9

$$$$
=
 OpenBabel11072413113D

 34 37  0  0  1  0  0  0  0  0999 V2000
  161.8170  210.1390  154.4510 C   0  0  0  0  0  2  0  0  0  0  0  0
  159.1950  212.1760  152.8520 C   0  0  1  0  0  3  0  0  0  0  0  0
  160.8730  210.4810  155.6080 C   0  0  0  0  0  2  0  0  0  0  0  0
  158.0020  211.1430  156.2400 O   0  0  0  0  0  1  0  0  0  0  0  0
  156.9130  212.2620  153.7140 O   0  0  0  0  0  0  0  0  0  0  0  0
  161.2910  210.7230  153.2070 N   0  0  0  0  0  0  0  0  0  0  0  0
  158.7190  211.6020  155.1430 C   0  0  2  0  0  3  0  0  0  0  0  0
  160.4770  211.8670  153.6520 C   0  0  2  0  0  3  0  0  0  0  0  0
  158.1420  212.0770  153.9070 C   0  0  0  0  0  0  0  0  0  0  0  0
  160.0260  211.5170  155.0070 C   0  0  2  0  0  3  0  0  0  0  0  0
  159.2670  213.5950  152.3150 C   0  0  0  0  0  2  0  0  0  0  0  0
  157.0330  213.0230  148.1750 O   0  0  0  0  0  0  0  0  0  0  0  0
  159.1060  213.5860  150.8350 C   0  0  0  0  0  0  0  0  0  0  0  0
  158.0340  213.3170  148.8810 C   0  0  0  0  0  0  0  0  0  0  0  0
  158.0050  213.1970  150.2910 N   0  0  0  0  0  0  0  0  0  0  0  0
  159.3070  213.8240  148.2990 C   0  0  1  0  0  3  0  0  0  0  0  0
  160.3750  214.2150  149.7340 S   0  0  0  0  0  0  0  0  0  0  0  0
  159.9580  212.7840  147.4380 C   0  0  0  0  0  0  0  0  0  0  0  0
  159.4660  212.4590  146.3660 O   0  0  0  0  0  0  0  0  0  0  0  0
  161.2210  212.1410  147.8960 C   0  0  0  0  0  1  0  0  0  0  0  0
  160.3090  209.4520  152.4400 S   0  0  0  0  0  0  0  0  0  0  0  0
  161.4810  208.1410  152.9120 C   0  0  1  0  0  3  0  0  0  0  0  0
  160.7260  206.9540  153.4960 C   0  0  0  0  0  2  0  0  0  0  0  0
  160.6950  207.0200  154.8910 O   0  0  0  0  0  1  0  0  0  0  0  0
  162.2590  207.7260  151.7470 N   0  0  0  0  0  2  0  0  0  0  0  0
  161.4400  207.7090  150.5310 C   0  0  1  0  0  3  0  0  0  0  0  0
  161.9160  208.7040  149.4740 C   0  0  0  0  0  1  0  0  0  0  0  0
  161.0560  203.8860  150.8400 C   0  0  0  0  0  2  0  0  0  0  0  0
  161.5610  203.7890  148.4730 O   0  0  0  0  0  0  0  0  0  0  0  0
  161.0390  204.9440  147.8750 C   0  0  0  0  0  2  0  0  0  0  0  0
  161.5960  206.1940  148.5510 C   0  0  0  0  0  2  0  0  0  0  0  0
  160.6150  203.4340  149.4420 C   0  0  0  0  0  2  0  0  0  0  0  0
  161.8310  205.2060  150.8490 C   0  0  0  0  0  2  0  0  0  0  0  0
  161.1520  206.2950  150.0100 C   0  0  1  0  0  3  0  0  0  0  0  0
  1  3  1  0  0  0  0
  2 11  1  1  0  0  0
  2  8  1  0  0  0  0
  2  9  1  0  0  0  0
  5  9  2  0  0  0  0
  6  1  1  0  0  0  0
  7  4  1  6  0  0  0
  8  6  1  6  0  0  0
  8 10  1  0  0  0  0
  9  7  1  0  0  0  0
 10  7  1  0  0  0  0
 10  3  1  6  0  0  0
 12 14  2  0  0  0  0
 13 11  1  0  0  0  0
 14 15  1  0  0  0  0
 15 13  2  0  0  0  0
 16 18  1  6  0  0  0
 16 14  1  0  0  0  0
 16 17  1  0  0  0  0
 17 13  1  0  0  0  0
 18 20  1  0  0  0  0
 19 18  2  0  0  0  0
 21 22  1  0  0  0  0
 21  6  1  0  0  0  0
 22 23  1  6  0  0  0
 23 24  1  0  0  0  0
 25 22  1  0  0  0  0
 26 27  1  6  0  0  0
 26 25  1  0  0  0  0
 28 33  1  0  0  0  0
 29 32  1  0  0  0  0
 30 29  1  0  0  0  0
 30 31  1  0  0  0  0
 31 34  1  0  0  0  0
 32 28  1  0  0  0  0
 34 26  1  1  0  0  0
 34 33  1  0  0  0  0
M  END
>  <MODEL>
2

>  <REMARK>
 VINA RESULT:      -6.4      2.132      6.436
  Name = 
  9 active torsions:
  status: ('A' for Active; 'I' for Inactive)
    1  A    between atoms: C_1  and  N_14
    2  A    between atoms: C_1  and  C_33
    3  A    between atoms: C_6  and  C_11
    4  A    between atoms: C_7  and  C_26
    5  A    between atoms: C_9  and  C_31
    6  A    between atoms: C_11  and  C_16
    7  A    between atoms: N_14  and  C_26
    8  A    between atoms: S_19  and  N_20
    9  A    between atoms: S_19  and  C_26
                            x       y       z     vdW  Elec       q    Type
                         _______ _______ _______ _____ _____    ______ ____

>  <TORSDO>
F 9

$$$$
=
 OpenBabel11072413113D

 34 37  0  0  1  0  0  0  0  0999 V2000
  161.6160  209.6430  154.8540 C   0  0  0  0  0  2  0  0  0  0  0  0
  159.4570  212.0010  153.0210 C   0  0  1  0  0  3  0  0  0  0  0  0
  160.6750  210.1830  155.9360 C   0  0  0  0  0  2  0  0  0  0  0  0
  157.9190  211.3230  156.3600 O   0  0  0  0  0  1  0  0  0  0  0  0
  157.1730  212.4890  153.7320 O   0  0  0  0  0  0  0  0  0  0  0  0
  161.2640  210.2480  153.5590 N   0  0  0  0  0  0  0  0  0  0  0  0
  158.7620  211.6120  155.2960 C   0  0  2  0  0  3  0  0  0  0  0  0
  160.6230  211.5260  153.9120 C   0  0  2  0  0  3  0  0  0  0  0  0
  158.3430  212.1180  154.0100 C   0  0  0  0  0  0  0  0  0  0  0  0
  160.0440  211.3130  155.2460 C   0  0  2  0  0  3  0  0  0  0  0  0
  159.7900  213.3640  152.4420 C   0  0  0  0  0  2  0  0  0  0  0  0
  156.6500  213.0400  148.9060 O   0  0  0  0  0  0  0  0  0  0  0  0
  159.2860  213.4580  151.0440 C   0  0  0  0  0  0  0  0  0  0  0  0
  157.7870  213.3050  149.3790 C   0  0  0  0  0  0  0  0  0  0  0  0
  158.0900  213.0840  150.7430 N   0  0  0  0  0  0  0  0  0  0  0  0
  158.8860  213.8810  148.5560 C   0  0  1  0  0  3  0  0  0  0  0  0
  160.2590  214.1920  149.7270 S   0  0  0  0  0  0  0  0  0  0  0  0
  159.3230  212.9200  147.4910 C   0  0  0  0  0  0  0  0  0  0  0  0
  158.5670  212.6060  146.5820 O   0  0  0  0  0  0  0  0  0  0  0  0
  160.6950  212.3420  147.5450 C   0  0  0  0  0  1  0  0  0  0  0  0
  160.1350  209.1170  152.7760 S   0  0  0  0  0  0  0  0  0  0  0  0
  161.1620  208.9910  151.2790 C   0  0  1  0  0  3  0  0  0  0  0  0
  162.3390  209.9540  151.3730 C   0  0  0  0  0  2  0  0  0  0  0  0
  162.2950  210.8970  150.3430 O   0  0  0  0  0  1  0  0  0  0  0  0
  161.6390  207.6190  151.1170 N   0  0  0  0  0  2  0  0  0  0  0  0
  160.9490  206.9350  150.0190 C   0  0  1  0  0  3  0  0  0  0  0  0
  161.4540  207.3540  148.6390 C   0  0  0  0  0  1  0  0  0  0  0  0
  161.0740  203.6740  152.0700 C   0  0  0  0  0  2  0  0  0  0  0  0
  161.4610  202.5370  149.9660 O   0  0  0  0  0  0  0  0  0  0  0  0
  160.7640  203.2310  148.9680 C   0  0  0  0  0  2  0  0  0  0  0  0
  161.1920  204.6960  148.9390 C   0  0  0  0  0  2  0  0  0  0  0  0
  160.6210  202.5880  151.0850 C   0  0  0  0  0  2  0  0  0  0  0  0
  161.6730  204.9110  151.3960 C   0  0  0  0  0  2  0  0  0  0  0  0
  160.8170  205.4220  150.2310 C   0  0  1  0  0  3  0  0  0  0  0  0
  1  3  1  0  0  0  0
  2 11  1  1  0  0  0
  2  8  1  0  0  0  0
  2  9  1  0  0  0  0
  5  9  2  0  0  0  0
  6  1  1  0  0  0  0
  7  4  1  6  0  0  0
  8  6  1  6  0  0  0
  8 10  1  0  0  0  0
  9  7  1  0  0  0  0
 10  7  1  0  0  0  0
 10  3  1  6  0  0  0
 12 14  2  0  0  0  0
 13 11  1  0  0  0  0
 14 15  1  0  0  0  0
 15 13  2  0  0  0  0
 16 18  1  6  0  0  0
 16 14  1  0  0  0  0
 16 17  1  0  0  0  0
 17 13  1  0  0  0  0
 18 20  1  0  0  0  0
 19 18  2  0  0  0  0
 21  6  1  0  0  0  0
 22 23  1  1  0  0  0
 22 21  1  0  0  0  0
 24 23  1  0  0  0  0
 25 22  1  0  0  0  0
 26 27  1  6  0  0  0
 26 25  1  0  0  0  0
 29 32  1  0  0  0  0
 30 29  1  0  0  0  0
 31 30  1  0  0  0  0
 31 34  1  0  0  0  0
 32 28  1  0  0  0  0
 33 28  1  0  0  0  0
 34 26  1  6  0  0  0
 34 33  1  0  0  0  0
M  END
>  <MODEL>
3

>  <REMARK>
 VINA RESULT:      -6.2      2.333      6.692
  Name = 
  9 active torsions:
  status: ('A' for Active; 'I' for Inactive)
    1  A    between atoms: C_1  and  N_14
    2  A    between atoms: C_1  and  C_33
    3  A    between atoms: C_6  and  C_11
    4  A    between atoms: C_7  and  C_26
    5  A    between atoms: C_9  and  C_31
    6  A    between atoms: C_11  and  C_16
    7  A    between atoms: N_14  and  C_26
    8  A    between atoms: S_19  and  N_20
    9  A    between atoms: S_19  and  C_26
                            x       y       z     vdW  Elec       q    Type
                         _______ _______ _______ _____ _____    ______ ____

>  <TORSDO>
F 9

$$$$
=
 OpenBabel11072413113D

 34 37  0  0  1  0  0  0  0  0999 V2000
  161.9570  205.5450  151.6130 C   0  0  0  0  0  2  0  0  0  0  0  0
  161.4480  209.1780  151.2590 C   0  0  1  0  0  3  0  0  0  0  0  0
  161.5800  205.9940  153.0290 C   0  0  0  0  0  2  0  0  0  0  0  0
  160.0330  208.0910  154.5430 O   0  0  0  0  0  1  0  0  0  0  0  0
  159.9270  210.4230  152.7060 O   0  0  0  0  0  0  0  0  0  0  0  0
  161.9350  206.7090  150.7130 N   0  0  0  0  0  0  0  0  0  0  0  0
  160.8140  208.3130  153.4170 C   0  0  2  0  0  3  0  0  0  0  0  0
  162.1800  207.8630  151.5960 C   0  0  2  0  0  3  0  0  0  0  0  0
  160.6800  209.4330  152.5140 C   0  0  0  0  0  0  0  0  0  0  0  0
  161.6770  207.4540  152.9150 C   0  0  2  0  0  3  0  0  0  0  0  0
  162.4710  210.2790  151.0370 C   0  0  0  0  0  2  0  0  0  0  0  0
  159.6220  213.7600  149.5450 O   0  0  0  0  0  0  0  0  0  0  0  0
  161.9260  211.2940  150.0940 C   0  0  0  0  0  0  0  0  0  0  0  0
  160.5740  212.9470  149.4020 C   0  0  0  0  0  0  0  0  0  0  0  0
  160.8980  212.0050  150.4070 N   0  0  0  0  0  0  0  0  0  0  0  0
  161.4350  212.9230  148.1880 C   0  0  1  0  0  3  0  0  0  0  0  0
  162.7240  211.6680  148.5310 S   0  0  0  0  0  0  0  0  0  0  0  0
  160.6450  212.5330  146.9740 C   0  0  0  0  0  0  0  0  0  0  0  0
  159.6310  211.8570  147.0760 O   0  0  0  0  0  0  0  0  0  0  0  0
  161.1050  212.9770  145.6290 C   0  0  0  0  0  1  0  0  0  0  0  0
  160.3090  206.7440  149.9900 S   0  0  0  0  0  0  0  0  0  0  0  0
  160.9670  206.7000  148.2930 C   0  0  1  0  0  3  0  0  0  0  0  0
  161.5130  208.0700  147.9120 C   0  0  0  0  0  2  0  0  0  0  0  0
  162.8930  208.1320  148.1170 O   0  0  0  0  0  1  0  0  0  0  0  0
  162.0170  205.6890  148.1920 N   0  0  0  0  0  2  0  0  0  0  0  0
  161.7130  204.6990  147.1540 C   0  0  1  0  0  3  0  0  0  0  0  0
  162.6060  204.8310  145.9210 C   0  0  0  0  0  1  0  0  0  0  0  0
  161.2720  200.8810  146.8640 C   0  0  0  0  0  2  0  0  0  0  0  0
  160.2910  200.9720  149.0770 O   0  0  0  0  0  0  0  0  0  0  0  0
  160.9310  201.9960  149.7880 C   0  0  0  0  0  2  0  0  0  0  0  0
  160.8210  203.3190  149.0340 C   0  0  0  0  0  2  0  0  0  0  0  0
  161.3070  200.3840  148.3150 C   0  0  0  0  0  2  0  0  0  0  0  0
  160.8360  202.3410  146.7200 C   0  0  0  0  0  2  0  0  0  0  0  0
  161.5610  203.2730  147.6970 C   0  0  1  0  0  3  0  0  0  0  0  0
  1  3  1  0  0  0  0
  2 11  1  1  0  0  0
  2  8  1  0  0  0  0
  2  9  1  0  0  0  0
  6  1  1  0  0  0  0
  7  4  1  6  0  0  0
  8  6  1  6  0  0  0
  8 10  1  0  0  0  0
  9  5  2  0  0  0  0
  9  7  1  0  0  0  0
 10  3  1  6  0  0  0
 10  7  1  0  0  0  0
 13 15  2  0  0  0  0
 13 11  1  0  0  0  0
 14 12  2  0  0  0  0
 14 15  1  0  0  0  0
 16 18  1  6  0  0  0
 16 17  1  0  0  0  0
 16 14  1  0  0  0  0
 17 13  1  0  0  0  0
 18 19  2  0  0  0  0
 20 18  1  0  0  0  0
 21  6  1  0  0  0  0
 22 23  1  1  0  0  0
 22 21  1  0  0  0  0
 23 24  1  0  0  0  0
 25 22  1  0  0  0  0
 26 27  1  6  0  0  0
 26 25  1  0  0  0  0
 28 32  1  0  0  0  0
 29 30  1  0  0  0  0
 31 30  1  0  0  0  0
 32 29  1  0  0  0  0
 33 28  1  0  0  0  0
 33 34  1  0  0  0  0
 34 26  1  6  0  0  0
 34 31  1  0  0  0  0
M  END
>  <MODEL>
4

>  <REMARK>
 VINA RESULT:      -6.2      3.218      7.650
  Name = 
  9 active torsions:
  status: ('A' for Active; 'I' for Inactive)
    1  A    between atoms: C_1  and  N_14
    2  A    between atoms: C_1  and  C_33
    3  A    between atoms: C_6  and  C_11
    4  A    between atoms: C_7  and  C_26
    5  A    between atoms: C_9  and  C_31
    6  A    between atoms: C_11  and  C_16
    7  A    between atoms: N_14  and  C_26
    8  A    between atoms: S_19  and  N_20
    9  A    between atoms: S_19  and  C_26
                            x       y       z     vdW  Elec       q    Type
                         _______ _______ _______ _____ _____    ______ ____

>  <TORSDO>
F 9

$$$$
=
 OpenBabel11072413113D

 34 37  0  0  1  0  0  0  0  0999 V2000
  162.1890  206.2480  152.9880 C   0  0  0  0  0  2  0  0  0  0  0  0
  160.6860  209.4730  153.9480 C   0  0  1  0  0  3  0  0  0  0  0  0
  161.5410  205.9520  154.3440 C   0  0  0  0  0  2  0  0  0  0  0  0
  159.2900  206.8010  156.1580 O   0  0  0  0  0  1  0  0  0  0  0  0
  158.7150  209.6100  155.3810 O   0  0  0  0  0  0  0  0  0  0  0  0
  161.9300  207.6500  152.6220 N   0  0  0  0  0  0  0  0  0  0  0  0
  160.0930  207.6500  155.4090 C   0  0  2  0  0  3  0  0  0  0  0  0
  161.7270  208.3350  153.9100 C   0  0  2  0  0  3  0  0  0  0  0  0
  159.7400  208.9890  154.9980 C   0  0  0  0  0  0  0  0  0  0  0  0
  161.2200  207.3010  154.8230 C   0  0  2  0  0  3  0  0  0  0  0  0
  161.3600  210.7560  154.3990 C   0  0  0  0  0  2  0  0  0  0  0  0
  158.9040  214.4340  156.1030 O   0  0  0  0  0  0  0  0  0  0  0  0
  160.3810  211.8780  154.3780 C   0  0  0  0  0  0  0  0  0  0  0  0
  159.2280  213.6220  155.1960 C   0  0  0  0  0  0  0  0  0  0  0  0
  160.1440  212.5710  155.4380 N   0  0  0  0  0  0  0  0  0  0  0  0
  158.6950  213.7110  153.8090 C   0  0  1  0  0  3  0  0  0  0  0  0
  159.5640  212.4020  152.8690 S   0  0  0  0  0  0  0  0  0  0  0  0
  157.2150  213.4710  153.7840 C   0  0  0  0  0  0  0  0  0  0  0  0
  156.4470  214.3310  153.3770 O   0  0  0  0  0  0  0  0  0  0  0  0
  156.6780  212.1660  154.2610 C   0  0  0  0  0  1  0  0  0  0  0  0
  160.4560  207.6340  151.6230 S   0  0  0  0  0  0  0  0  0  0  0  0
  161.3760  208.0400  150.1050 C   0  0  1  0  0  3  0  0  0  0  0  0
  162.4410  209.0860  150.4070 C   0  0  0  0  0  2  0  0  0  0  0  0
  161.8650  210.3470  150.5830 O   0  0  0  0  0  1  0  0  0  0  0  0
  161.9900  206.8320  149.5580 N   0  0  0  0  0  2  0  0  0  0  0  0
  161.1510  206.2250  148.5190 C   0  0  1  0  0  3  0  0  0  0  0  0
  161.5970  206.5850  147.1030 C   0  0  0  0  0  1  0  0  0  0  0  0
  160.4560  203.1010  150.6670 C   0  0  0  0  0  2  0  0  0  0  0  0
  161.3970  201.8150  148.8420 O   0  0  0  0  0  0  0  0  0  0  0  0
  161.0780  202.4710  147.6460 C   0  0  0  0  0  2  0  0  0  0  0  0
  161.5790  203.9130  147.6780 C   0  0  0  0  0  2  0  0  0  0  0  0
  160.2610  201.9740  149.6450 C   0  0  0  0  0  2  0  0  0  0  0  0
  161.3020  204.2670  150.1500 C   0  0  0  0  0  2  0  0  0  0  0  0
  160.8730  204.7360  148.7550 C   0  0  1  0  0  3  0  0  0  0  0  0
  1  3  1  0  0  0  0
  2 11  1  1  0  0  0
  2  9  1  0  0  0  0
  6  1  1  0  0  0  0
  7  4  1  6  0  0  0
  8  6  1  6  0  0  0
  8  2  1  0  0  0  0
  8 10  1  0  0  0  0
  9  5  2  0  0  0  0
  9  7  1  0  0  0  0
 10  3  1  6  0  0  0
 10  7  1  0  0  0  0
 13 11  1  0  0  0  0
 13 15  2  0  0  0  0
 14 15  1  0  0  0  0
 14 12  2  0  0  0  0
 16 18  1  1  0  0  0
 16 14  1  0  0  0  0
 17 16  1  0  0  0  0
 17 13  1  0  0  0  0
 18 20  1  0  0  0  0
 19 18  2  0  0  0  0
 21  6  1  0  0  0  0
 22 23  1  1  0  0  0
 22 21  1  0  0  0  0
 23 24  1  0  0  0  0
 25 22  1  0  0  0  0
 26 27  1  6  0  0  0
 26 25  1  0  0  0  0
 29 32  1  0  0  0  0
 30 31  1  0  0  0  0
 30 29  1  0  0  0  0
 31 34  1  0  0  0  0
 32 28  1  0  0  0  0
 33 28  1  0  0  0  0
 34 26  1  6  0  0  0
 34 33  1  0  0  0  0
M  END
>  <MODEL>
5

>  <REMARK>
 VINA RESULT:      -5.8      3.517      7.580
  Name = 
  9 active torsions:
  status: ('A' for Active; 'I' for Inactive)
    1  A    between atoms: C_1  and  N_14
    2  A    between atoms: C_1  and  C_33
    3  A    between atoms: C_6  and  C_11
    4  A    between atoms: C_7  and  C_26
    5  A    between atoms: C_9  and  C_31
    6  A    between atoms: C_11  and  C_16
    7  A    between atoms: N_14  and  C_26
    8  A    between atoms: S_19  and  N_20
    9  A    between atoms: S_19  and  C_26
                            x       y       z     vdW  Elec       q    Type
                         _______ _______ _______ _____ _____    ______ ____

>  <TORSDO>
F 9

$$$$
=
 OpenBabel11072413113D

 34 37  0  0  1  0  0  0  0  0999 V2000
  160.7840  209.2020  152.1490 C   0  0  0  0  0  2  0  0  0  0  0  0
  160.6940  209.1150  155.8320 C   0  0  1  0  0  3  0  0  0  0  0  0
  161.9030  210.1650  152.5570 C   0  0  0  0  0  2  0  0  0  0  0  0
  163.8830  210.7410  154.7540 O   0  0  0  0  0  1  0  0  0  0  0  0
  162.6790  209.5370  157.1880 O   0  0  0  0  0  0  0  0  0  0  0  0
  160.1690  208.6320  153.3580 N   0  0  0  0  0  0  0  0  0  0  0  0
  162.5660  210.3380  154.9330 C   0  0  2  0  0  3  0  0  0  0  0  0
  160.4180  209.6360  154.4060 C   0  0  2  0  0  3  0  0  0  0  0  0
  162.0420  209.6930  156.1150 C   0  0  0  0  0  0  0  0  0  0  0  0
  161.6450  210.3310  153.9920 C   0  0  2  0  0  3  0  0  0  0  0  0
  159.6640  209.6940  156.7860 C   0  0  0  0  0  2  0  0  0  0  0  0
  155.9630  211.6960  154.6040 O   0  0  0  0  0  0  0  0  0  0  0  0
  158.8920  210.7710  156.1060 C   0  0  0  0  0  0  0  0  0  0  0  0
  157.1300  211.7090  155.0790 C   0  0  0  0  0  0  0  0  0  0  0  0
  157.7150  210.5460  155.6340 N   0  0  0  0  0  0  0  0  0  0  0  0
  157.9710  212.9370  155.1120 C   0  0  1  0  0  3  0  0  0  0  0  0
  159.4970  212.4570  156.0040 S   0  0  0  0  0  0  0  0  0  0  0  0
  158.3070  213.3980  153.7250 C   0  0  0  0  0  0  0  0  0  0  0  0
  159.3490  213.0540  153.1850 O   0  0  0  0  0  0  0  0  0  0  0  0
  157.3570  214.2860  152.9990 C   0  0  0  0  0  1  0  0  0  0  0  0
  161.0200  207.1010  153.6710 S   0  0  0  0  0  0  0  0  0  0  0  0
  161.2340  206.7550  151.8960 C   0  0  1  0  0  3  0  0  0  0  0  0
  162.7050  206.5090  151.5880 C   0  0  0  0  0  2  0  0  0  0  0  0
  163.0810  207.1540  150.4060 O   0  0  0  0  0  1  0  0  0  0  0  0
  160.4330  205.5930  151.5150 N   0  0  0  0  0  2  0  0  0  0  0  0
  161.2640  204.3960  151.3530 C   0  0  1  0  0  3  0  0  0  0  0  0
  160.9610  203.3110  152.3840 C   0  0  0  0  0  1  0  0  0  0  0  0
  161.5130  204.8340  147.5310 C   0  0  0  0  0  2  0  0  0  0  0  0
  160.4700  202.6550  147.3600 O   0  0  0  0  0  0  0  0  0  0  0  0
  160.8990  201.8870  148.4500 C   0  0  0  0  0  2  0  0  0  0  0  0
  160.5780  202.5980  149.7620 C   0  0  0  0  0  2  0  0  0  0  0  0
  161.5950  203.4010  146.9900 C   0  0  0  0  0  2  0  0  0  0  0  0
  160.8300  204.9420  148.8970 C   0  0  0  0  0  2  0  0  0  0  0  0
  161.3510  203.9080  149.9010 C   0  0  1  0  0  3  0  0  0  0  0  0
  1  3  1  0  0  0  0
  1  6  1  0  0  0  0
  2  9  1  0  0  0  0
  2 11  1  1  0  0  0
  6 21  1  0  0  0  0
  7  4  1  6  0  0  0
  7  9  1  0  0  0  0
  8  6  1  6  0  0  0
  8  2  1  0  0  0  0
  9  5  2  0  0  0  0
 10  3  1  6  0  0  0
 10  8  1  0  0  0  0
 10  7  1  0  0  0  0
 12 14  2  0  0  0  0
 13 11  1  0  0  0  0
 14 16  1  0  0  0  0
 14 15  1  0  0  0  0
 15 13  2  0  0  0  0
 16 18  1  6  0  0  0
 16 17  1  0  0  0  0
 17 13  1  0  0  0  0
 19 18  2  0  0  0  0
 20 18  1  0  0  0  0
 22 23  1  1  0  0  0
 22 21  1  0  0  0  0
 24 23  1  0  0  0  0
 25 22  1  0  0  0  0
 26 25  1  0  0  0  0
 26 27  1  1  0  0  0
 28 33  1  0  0  0  0
 29 30  1  0  0  0  0
 30 31  1  0  0  0  0
 31 34  1  0  0  0  0
 32 29  1  0  0  0  0
 32 28  1  0  0  0  0
 33 34  1  0  0  0  0
 34 26  1  1  0  0  0
M  END
>  <MODEL>
6

>  <REMARK>
 VINA RESULT:      -5.7      3.898      7.636
  Name = 
  9 active torsions:
  status: ('A' for Active; 'I' for Inactive)
    1  A    between atoms: C_1  and  N_14
    2  A    between atoms: C_1  and  C_33
    3  A    between atoms: C_6  and  C_11
    4  A    between atoms: C_7  and  C_26
    5  A    between atoms: C_9  and  C_31
    6  A    between atoms: C_11  and  C_16
    7  A    between atoms: N_14  and  C_26
    8  A    between atoms: S_19  and  N_20
    9  A    between atoms: S_19  and  C_26
                            x       y       z     vdW  Elec       q    Type
                         _______ _______ _______ _____ _____    ______ ____

>  <TORSDO>
F 9

$$$$
=
 OpenBabel11072413113D

 34 37  0  0  1  0  0  0  0  0999 V2000
  160.7990  210.0430  152.7850 C   0  0  0  0  0  2  0  0  0  0  0  0
  161.1670  206.9360  150.8390 C   0  0  1  0  0  3  0  0  0  0  0  0
  160.8630  208.9530  153.8600 C   0  0  0  0  0  2  0  0  0  0  0  0
  161.9610  206.2030  154.4170 O   0  0  0  0  0  1  0  0  0  0  0  0
  162.3010  204.9700  151.7360 O   0  0  0  0  0  0  0  0  0  0  0  0
  160.9350  209.4250  151.4570 N   0  0  0  0  0  0  0  0  0  0  0  0
  161.4080  206.6290  153.2170 C   0  0  2  0  0  3  0  0  0  0  0  0
  160.4560  208.0440  151.6430 C   0  0  2  0  0  3  0  0  0  0  0  0
  161.6570  206.0340  151.9240 C   0  0  0  0  0  0  0  0  0  0  0  0
  160.7100  207.7340  153.0580 C   0  0  2  0  0  3  0  0  0  0  0  0
  160.1490  206.2130  149.9740 C   0  0  0  0  0  2  0  0  0  0  0  0
  162.6510  205.6350  145.9910 O   0  0  0  0  0  0  0  0  0  0  0  0
  160.8450  205.4670  148.8890 C   0  0  0  0  0  0  0  0  0  0  0  0
  162.0360  205.2080  147.0030 C   0  0  0  0  0  0  0  0  0  0  0  0
  161.3770  206.0890  147.8940 N   0  0  0  0  0  0  0  0  0  0  0  0
  161.9650  203.7620  147.3510 C   0  0  1  0  0  3  0  0  0  0  0  0
  161.0820  203.6900  148.9530 S   0  0  0  0  0  0  0  0  0  0  0  0
  161.2100  202.9920  146.3090 C   0  0  0  0  0  0  0  0  0  0  0  0
  160.9020  203.5130  145.2460 O   0  0  0  0  0  0  0  0  0  0  0  0
  160.8310  201.5770  146.5760 C   0  0  0  0  0  1  0  0  0  0  0  0
  162.6670  209.4930  151.0550 S   0  0  0  0  0  0  0  0  0  0  0  0
  162.3600  210.3810  149.4960 C   0  0  1  0  0  3  0  0  0  0  0  0
  161.8080  209.4200  148.4510 C   0  0  0  0  0  2  0  0  0  0  0  0
  162.7190  208.3950  148.1850 O   0  0  0  0  0  1  0  0  0  0  0  0
  161.4220  211.4780  149.7240 N   0  0  0  0  0  2  0  0  0  0  0  0
  161.5840  212.5410  148.7270 C   0  0  1  0  0  3  0  0  0  0  0  0
  162.9940  212.6060  148.1440 C   0  0  0  0  0  1  0  0  0  0  0  0
  160.0990  212.5470  145.1700 C   0  0  0  0  0  2  0  0  0  0  0  0
  158.2000  213.7120  146.1210 O   0  0  0  0  0  0  0  0  0  0  0  0
  158.0230  213.2460  147.4300 C   0  0  0  0  0  2  0  0  0  0  0  0
  159.3020  213.4330  148.2420 C   0  0  0  0  0  2  0  0  0  0  0  0
  158.5820  212.5790  145.3920 C   0  0  0  0  0  2  0  0  0  0  0  0
  160.9080  213.1230  146.3350 C   0  0  0  0  0  2  0  0  0  0  0  0
  160.4500  212.5850  147.6950 C   0  0  1  0  0  3  0  0  0  0  0  0
  1  3  1  0  0  0  0
  2 11  1  6  0  0  0
  2  8  1  0  0  0  0
  2  9  1  0  0  0  0
  5  9  2  0  0  0  0
  6  1  1  0  0  0  0
  7  4  1  6  0  0  0
  8  6  1  6  0  0  0
  8 10  1  0  0  0  0
  9  7  1  0  0  0  0
 10  7  1  0  0  0  0
 10  3  1  6  0  0  0
 12 14  2  0  0  0  0
 13 17  1  0  0  0  0
 13 11  1  0  0  0  0
 14 16  1  0  0  0  0
 14 15  1  0  0  0  0
 15 13  2  0  0  0  0
 16 18  1  6  0  0  0
 16 17  1  0  0  0  0
 18 20  1  0  0  0  0
 19 18  2  0  0  0  0
 21  6  1  0  0  0  0
 22 23  1  6  0  0  0
 22 25  1  0  0  0  0
 22 21  1  0  0  0  0
 24 23  1  0  0  0  0
 26 27  1  6  0  0  0
 26 25  1  0  0  0  0
 28 32  1  0  0  0  0
 28 33  1  0  0  0  0
 29 30  1  0  0  0  0
 30 31  1  0  0  0  0
 32 29  1  0  0  0  0
 33 34  1  0  0  0  0
 34 31  1  0  0  0  0
 34 26  1  1  0  0  0
M  END
>  <MODEL>
7

>  <REMARK>
 VINA RESULT:      -5.6      2.879      4.750
  Name = 
  9 active torsions:
  status: ('A' for Active; 'I' for Inactive)
    1  A    between atoms: C_1  and  N_14
    2  A    between atoms: C_1  and  C_33
    3  A    between atoms: C_6  and  C_11
    4  A    between atoms: C_7  and  C_26
    5  A    between atoms: C_9  and  C_31
    6  A    between atoms: C_11  and  C_16
    7  A    between atoms: N_14  and  C_26
    8  A    between atoms: S_19  and  N_20
    9  A    between atoms: S_19  and  C_26
                            x       y       z     vdW  Elec       q    Type
                         _______ _______ _______ _____ _____    ______ ____

>  <TORSDO>
F 9

$$$$
=
 OpenBabel11072413113D

 34 37  0  0  1  0  0  0  0  0999 V2000
  161.1870  209.4900  151.7910 C   0  0  0  0  0  2  0  0  0  0  0  0
  160.1040  209.1780  155.3000 C   0  0  1  0  0  3  0  0  0  0  0  0
  162.1880  210.3640  152.5540 C   0  0  0  0  0  2  0  0  0  0  0  0
  163.5210  210.6920  155.2360 O   0  0  0  0  0  1  0  0  0  0  0  0
  161.6640  209.4050  157.1630 O   0  0  0  0  0  0  0  0  0  0  0  0
  160.2480  208.8800  152.7460 N   0  0  0  0  0  0  0  0  0  0  0  0
  162.1920  210.3510  155.0260 C   0  0  2  0  0  3  0  0  0  0  0  0
  160.2410  209.8010  153.8950 C   0  0  2  0  0  3  0  0  0  0  0  0
  161.3460  209.6630  155.9740 C   0  0  0  0  0  0  0  0  0  0  0  0
  161.5590  210.4540  153.8760 C   0  0  2  0  0  3  0  0  0  0  0  0
  158.8770  209.7510  155.9860 C   0  0  0  0  0  2  0  0  0  0  0  0
  159.4280  214.4530  155.7790 O   0  0  0  0  0  0  0  0  0  0  0  0
  158.6310  211.1390  155.5080 C   0  0  0  0  0  0  0  0  0  0  0  0
  158.9050  213.3660  155.4160 C   0  0  0  0  0  0  0  0  0  0  0  0
  159.2330  212.1420  156.0480 N   0  0  0  0  0  0  0  0  0  0  0  0
  157.9270  213.2760  154.2980 C   0  0  1  0  0  3  0  0  0  0  0  0
  157.5810  211.4900  154.0960 S   0  0  0  0  0  0  0  0  0  0  0  0
  156.6640  214.0140  154.6260 C   0  0  0  0  0  0  0  0  0  0  0  0
  156.3720  214.2740  155.7850 O   0  0  0  0  0  0  0  0  0  0  0  0
  155.7550  214.4340  153.5230 C   0  0  0  0  0  1  0  0  0  0  0  0
  160.9290  207.2880  153.1590 S   0  0  0  0  0  0  0  0  0  0  0  0
  161.7230  207.1080  151.5310 C   0  0  1  0  0  3  0  0  0  0  0  0
  162.9420  206.2020  151.6430 C   0  0  0  0  0  2  0  0  0  0  0  0
  162.5590  204.8630  151.7600 O   0  0  0  0  0  1  0  0  0  0  0  0
  160.7690  206.5600  150.5690 N   0  0  0  0  0  2  0  0  0  0  0  0
  161.0260  207.0550  149.2130 C   0  0  1  0  0  3  0  0  0  0  0  0
  161.9070  208.3020  149.1870 C   0  0  0  0  0  1  0  0  0  0  0  0
  161.8100  205.5950  145.7330 C   0  0  0  0  0  2  0  0  0  0  0  0
  161.2100  203.4400  146.6610 O   0  0  0  0  0  0  0  0  0  0  0  0
  161.5850  203.4350  148.0110 C   0  0  0  0  0  2  0  0  0  0  0  0
  160.9350  204.6020  148.7500 C   0  0  0  0  0  2  0  0  0  0  0  0
  162.2300  204.1470  146.0140 C   0  0  0  0  0  2  0  0  0  0  0  0
  160.9060  206.1990  146.8110 C   0  0  0  0  0  2  0  0  0  0  0  0
  161.4320  205.9500  148.2290 C   0  0  1  0  0  3  0  0  0  0  0  0
  1  3  1  0  0  0  0
  1  6  1  0  0  0  0
  2  9  1  0  0  0  0
  2 11  1  1  0  0  0
  6 21  1  0  0  0  0
  7  4  1  6  0  0  0
  7  9  1  0  0  0  0
  8  6  1  6  0  0  0
  8  2  1  0  0  0  0
  9  5  2  0  0  0  0
 10  3  1  6  0  0  0
 10  8  1  0  0  0  0
 10  7  1  0  0  0  0
 13 11  1  0  0  0  0
 13 15  2  0  0  0  0
 14 12  2  0  0  0  0
 14 15  1  0  0  0  0
 16 18  1  1  0  0  0
 16 14  1  0  0  0  0
 17 16  1  0  0  0  0
 17 13  1  0  0  0  0
 18 19  2  0  0  0  0
 20 18  1  0  0  0  0
 22 23  1  1  0  0  0
 22 21  1  0  0  0  0
 23 24  1  0  0  0  0
 25 22  1  0  0  0  0
 26 27  1  1  0  0  0
 26 25  1  0  0  0  0
 28 32  1  0  0  0  0
 28 33  1  0  0  0  0
 29 30  1  0  0  0  0
 30 31  1  0  0  0  0
 32 29  1  0  0  0  0
 33 34  1  0  0  0  0
 34 31  1  0  0  0  0
 34 26  1  1  0  0  0
M  END
>  <MODEL>
8

>  <REMARK>
 VINA RESULT:      -5.1      3.863      7.242
  Name = 
  9 active torsions:
  status: ('A' for Active; 'I' for Inactive)
    1  A    between atoms: C_1  and  N_14
    2  A    between atoms: C_1  and  C_33
    3  A    between atoms: C_6  and  C_11
    4  A    between atoms: C_7  and  C_26
    5  A    between atoms: C_9  and  C_31
    6  A    between atoms: C_11  and  C_16
    7  A    between atoms: N_14  and  C_26
    8  A    between atoms: S_19  and  N_20
    9  A    between atoms: S_19  and  C_26
                            x       y       z     vdW  Elec       q    Type
                         _______ _______ _______ _____ _____    ______ ____

>  <TORSDO>
F 9

$$$$
=
 OpenBabel11072413113D

 34 37  0  0  1  0  0  0  0  0999 V2000
  160.9640  209.7840  152.0160 C   0  0  0  0  0  2  0  0  0  0  0  0
  160.4400  209.3440  155.6370 C   0  0  1  0  0  3  0  0  0  0  0  0
  162.0780  210.6270  152.6440 C   0  0  0  0  0  2  0  0  0  0  0  0
  163.8170  210.8540  155.0950 O   0  0  0  0  0  1  0  0  0  0  0  0
  162.2740  209.4990  157.2410 O   0  0  0  0  0  0  0  0  0  0  0  0
  160.1820  209.1400  153.0840 N   0  0  0  0  0  0  0  0  0  0  0  0
  162.4680  210.5220  155.0830 C   0  0  2  0  0  3  0  0  0  0  0  0
  160.3610  210.0190  154.2520 C   0  0  2  0  0  3  0  0  0  0  0  0
  161.7760  209.8010  156.1260 C   0  0  0  0  0  0  0  0  0  0  0  0
  161.6640  210.6690  154.0510 C   0  0  2  0  0  3  0  0  0  0  0  0
  159.3390  209.8930  156.5270 C   0  0  0  0  0  2  0  0  0  0  0  0
  155.6600  211.8310  154.2540 O   0  0  0  0  0  0  0  0  0  0  0  0
  158.5780  210.9460  155.8000 C   0  0  0  0  0  0  0  0  0  0  0  0
  156.8260  211.8550  154.7300 C   0  0  0  0  0  0  0  0  0  0  0  0
  157.3990  210.7110  155.3360 N   0  0  0  0  0  0  0  0  0  0  0  0
  157.6780  213.0750  154.7110 C   0  0  1  0  0  3  0  0  0  0  0  0
  159.1980  212.6210  155.6260 S   0  0  0  0  0  0  0  0  0  0  0  0
  158.0200  213.4720  153.3050 C   0  0  0  0  0  0  0  0  0  0  0  0
  157.2340  214.1200  152.6280 O   0  0  0  0  0  0  0  0  0  0  0  0
  159.3330  213.0690  152.7300 C   0  0  0  0  0  1  0  0  0  0  0  0
  160.9070  207.5330  153.3270 S   0  0  0  0  0  0  0  0  0  0  0  0
  161.3650  207.3770  151.5720 C   0  0  1  0  0  3  0  0  0  0  0  0
  162.8000  206.8820  151.4510 C   0  0  0  0  0  2  0  0  0  0  0  0
  162.9850  205.7040  152.1790 O   0  0  0  0  0  1  0  0  0  0  0  0
  160.4510  206.4570  150.8990 N   0  0  0  0  0  2  0  0  0  0  0  0
  160.5400  206.5800  149.4400 C   0  0  1  0  0  3  0  0  0  0  0  0
  161.5100  207.6710  148.9890 C   0  0  0  0  0  1  0  0  0  0  0  0
  160.7180  202.7350  149.2350 C   0  0  0  0  0  2  0  0  0  0  0  0
  162.0420  203.0480  147.2300 O   0  0  0  0  0  0  0  0  0  0  0  0
  161.5800  204.2040  146.5880 C   0  0  0  0  0  2  0  0  0  0  0  0
  161.6420  205.4010  147.5340 C   0  0  0  0  0  2  0  0  0  0  0  0
  160.8860  202.4420  147.7390 C   0  0  0  0  0  2  0  0  0  0  0  0
  161.2060  204.1240  149.6530 C   0  0  0  0  0  2  0  0  0  0  0  0
  160.6980  205.2330  148.7240 C   0  0  1  0  0  3  0  0  0  0  0  0
  1  3  1  0  0  0  0
  1  6  1  0  0  0  0
  2  9  1  0  0  0  0
  2 11  1  1  0  0  0
  6 21  1  0  0  0  0
  7  4  1  6  0  0  0
  7  9  1  0  0  0  0
  8  6  1  6  0  0  0
  8  2  1  0  0  0  0
  9  5  2  0  0  0  0
 10  3  1  6  0  0  0
 10  8  1  0  0  0  0
 10  7  1  0  0  0  0
 12 14  2  0  0  0  0
 13 11  1  0  0  0  0
 14 15  1  0  0  0  0
 15 13  2  0  0  0  0
 16 18  1  6  0  0  0
 16 14  1  0  0  0  0
 16 17  1  0  0  0  0
 17 13  1  0  0  0  0
 19 18  2  0  0  0  0
 20 18  1  0  0  0  0
 22 23  1  1  0  0  0
 22 21  1  0  0  0  0
 23 24  1  0  0  0  0
 25 22  1  0  0  0  0
 26 27  1  1  0  0  0
 26 25  1  0  0  0  0
 28 33  1  0  0  0  0
 29 32  1  0  0  0  0
 30 29  1  0  0  0  0
 30 31  1  0  0  0  0
 31 34  1  0  0  0  0
 32 28  1  0  0  0  0
 34 26  1  1  0  0  0
 34 33  1  0  0  0  0
M  END
>  <MODEL>
9

>  <REMARK>
 VINA RESULT:      -5.1      3.664      7.221
  Name = 
  9 active torsions:
  status: ('A' for Active; 'I' for Inactive)
    1  A    between atoms: C_1  and  N_14
    2  A    between atoms: C_1  and  C_33
    3  A    between atoms: C_6  and  C_11
    4  A    between atoms: C_7  and  C_26
    5  A    between atoms: C_9  and  C_31
    6  A    between atoms: C_11  and  C_16
    7  A    between atoms: N_14  and  C_26
    8  A    between atoms: S_19  and  N_20
    9  A    between atoms: S_19  and  C_26
                            x       y       z     vdW  Elec       q    Type
                         _______ _______ _______ _____ _____    ______ ____

>  <TORSDO>
F 9

$$$$
