=
 OpenBabel11072411073D

 46 52  0  0  1  0  0  0  0  0999 V2000
  161.2400  206.4680  151.8150 N   0  0  0  0  0  0  0  0  0  0  0  0
  163.3030  213.3450  143.8170 C   0  0  0  0  0  3  0  0  0  0  0  0
  158.1120  213.0430  153.1610 C   0  0  0  0  0  2  0  0  0  0  0  0
  158.5740  213.2940  144.9280 C   0  0  0  0  0  3  0  0  0  0  0  0
  162.5970  212.7310  145.9010 C   0  0  2  0  0  3  0  0  0  0  0  0
  162.2270  209.9200  146.9890 C   0  0  0  0  0  2  0  0  0  0  0  0
  160.7630  213.1160  153.9850 S   0  0  0  0  0  0  0  0  0  0  0  0
  161.4980  211.5200  153.5750 C   0  0  0  0  0  2  0  0  0  0  0  0
  158.0990  213.9520  149.4200 C   0  0  0  0  0  2  0  0  0  0  0  0
  160.5370  210.4530  154.0550 C   0  0  2  0  0  3  0  0  0  0  0  0
  160.2680  208.2470  157.2410 O   0  0  0  0  0  0  0  0  0  0  0  0
  156.6240  212.6510  146.8200 C   0  0  0  0  0  3  0  0  0  0  0  0
  157.9550  212.8060  147.2250 C   0  0  0  0  0  0  0  0  0  0  0  0
  161.6390  207.6000  147.7180 N   0  0  0  0  0  0  0  0  0  0  0  0
  163.2680  212.2980  144.6380 C   0  0  0  0  0  3  0  0  0  0  0  0
  158.3170  209.3220  156.2280 O   0  0  0  0  0  0  0  0  0  0  0  0
  162.5770  214.4530  144.3460 N   0  0  0  0  0  0  0  0  0  0  0  0
  159.0760  206.3540  155.2280 N   0  0  0  0  0  0  0  0  0  0  0  0
  161.9670  207.5990  151.3170 C   0  0  0  0  0  0  0  0  0  0  0  0
  160.9650  214.4520  146.0630 O   0  0  0  0  0  0  0  0  0  0  0  0
  159.7180  208.8390  155.9690 S   0  0  0  0  0  0  0  0  0  0  0  0
  162.5190  208.4200  152.1010 O   0  0  0  0  0  0  0  0  0  0  0  0
  157.2440  213.1310  144.5330 C   0  0  0  0  0  3  0  0  0  0  0  0
  159.1840  210.9160  153.7680 N   0  0  0  0  0  2  0  0  0  0  0  0
  159.6570  207.5760  154.7040 C   0  0  1  0  0  3  0  0  0  0  0  0
  161.3430  211.0920  147.3610 C   0  0  0  0  0  2  0  0  0  0  0  0
  161.5760  206.9640  148.9020 C   0  0  0  0  0  3  0  0  0  0  0  0
  156.3100  213.0960  150.7710 O   0  0  0  0  0  1  0  0  0  0  0  0
  162.3230  209.0380  149.3230 N   0  0  0  0  0  2  0  0  0  0  0  0
  161.0330  207.2920  154.1210 C   0  0  0  0  0  2  0  0  0  0  0  0
  160.7080  210.1930  155.4890 N   0  0  0  0  0  0  0  0  0  0  0  0
  158.9400  213.1450  146.2750 C   0  0  0  0  0  0  0  0  0  0  0  0
  159.2050  205.2190  154.6210 C   0  0  0  0  0  3  0  0  0  0  0  0
  157.5480  213.7440  150.8260 C   0  0  1  0  0  3  0  0  0  0  0  0
  159.9830  205.0790  153.3320 C   0  0  0  0  0  2  0  0  0  0  0  0
  161.9950  209.8200  155.6930 O   0  0  0  0  0  1  0  0  0  0  0  0
  156.2690  212.8130  145.4790 C   0  0  0  0  0  3  0  0  0  0  0  0
  161.2430  212.1030  146.2320 C   0  0  1  0  0  3  0  0  0  0  0  0
  159.1130  212.3420  154.0740 C   0  0  2  0  0  3  0  0  0  0  0  0
  160.3780  213.3130  146.6850 C   0  0  1  0  0  3  0  0  0  0  0  0
  162.0900  208.8410  148.0130 C   0  0  0  0  0  0  0  0  0  0  0  0
  158.2820  212.6310  148.6740 C   0  0  0  0  0  2  0  0  0  0  0  0
  162.0090  207.8500  149.8730 C   0  0  0  0  0  0  0  0  0  0  0  0
  160.8350  206.2760  153.0370 C   0  0  0  0  0  0  0  0  0  0  0  0
  162.1480  214.0510  145.4850 C   0  0  0  0  0  0  0  0  0  0  0  0
  158.5230  212.9560  151.6960 C   0  0  0  0  0  2  0  0  0  0  0  0
  1 44  2  0  0  0  0
  2 17  1  0  0  0  0
  2 15  2  0  0  0  0
  4 32  1  0  0  0  0
  5 15  1  6  0  0  0
  5 38  1  0  0  0  0
  6 26  1  0  0  0  0
  6 41  1  0  0  0  0
  7 39  1  0  0  0  0
  8  7  1  0  0  0  0
  9 34  1  0  0  0  0
 10  8  1  1  0  0  0
 10 31  1  0  0  0  0
 12 13  1  0  0  0  0
 13 42  1  0  0  0  0
 14 41  2  0  0  0  0
 14 27  1  0  0  0  0
 17 45  2  0  0  0  0
 19  1  1  0  0  0  0
 19 22  2  0  0  0  0
 21 16  2  0  0  0  0
 21 11  2  0  0  0  0
 23  4  2  0  0  0  0
 23 37  1  0  0  0  0
 24 10  1  0  0  0  0
 24 39  1  0  0  0  0
 25 30  1  1  0  0  0
 25 18  1  0  0  0  0
 25 21  1  0  0  0  0
 27 43  2  0  0  0  0
 29 43  1  0  0  0  0
 31 36  1  0  0  0  0
 31 21  1  0  0  0  0
 32 40  1  0  0  0  0
 32 13  2  0  0  0  0
 33 18  2  0  0  0  0
 34 28  1  6  0  0  0
 34 46  1  0  0  0  0
 35 33  1  0  0  0  0
 37 12  2  0  0  0  0
 38 40  1  0  0  0  0
 38 26  1  1  0  0  0
 39  3  1  6  0  0  0
 40 20  1  6  0  0  0
 41 29  1  0  0  0  0
 42  9  1  0  0  0  0
 43 19  1  0  0  0  0
 44 35  1  0  0  0  0
 44 30  1  0  0  0  0
 45  5  1  0  0  0  0
 45 20  1  0  0  0  0
 46  3  1  0  0  0  0
M  END
>  <MODEL>
1

>  <REMARK>
 VINA RESULT:      19.5      0.000      0.000
  Name = 
  0 active torsions:
  status: ('A' for Active; 'I' for Inactive)
                            x       y       z     vdW  Elec       q    Type
                         _______ _______ _______ _____ _____    ______ ____

>  <TORSDO>
F 0

$$$$
