=
 OpenBabel11072415263D

 25 28  0  0  1  0  0  0  0  0999 V2000
  160.4170  201.0240  149.2120 C   0  0  0  0  0  2  0  0  0  0  0  0
  160.9000  202.1450  150.5780 S   0  0  0  0  0  0  0  0  0  0  0  0
  161.1130  204.2970  144.7210 N   0  0  0  0  0  0  0  0  0  0  0  0
  161.0650  201.5040  147.9150 C   0  0  0  0  0  2  0  0  0  0  0  0
  161.0270  205.7240  148.7330 C   0  0  0  0  0  0  0  0  0  0  0  0
  161.5430  205.3150  147.3650 C   0  0  2  0  0  3  0  0  0  0  0  0
  161.2600  202.9660  148.0760 C   0  0  0  0  0  0  0  0  0  0  0  0
  161.0160  206.1750  146.2450 C   0  0  0  0  0  3  0  0  0  0  0  0
  161.3640  203.8390  147.0660 C   0  0  0  0  0  0  0  0  0  0  0  0
  161.3280  203.4180  145.6550 C   0  0  0  0  0  3  0  0  0  0  0  0
  161.1760  203.4300  149.4130 N   0  0  0  0  0  0  0  0  0  0  0  0
  160.8670  205.6850  145.0090 C   0  0  0  0  0  3  0  0  0  0  0  0
  160.9200  204.8080  149.7030 C   0  0  0  0  0  3  0  0  0  0  0  0
  160.8350  207.1660  149.0710 C   0  0  0  0  0  2  0  0  0  0  0  0
  161.9170  207.6320  150.0300 C   0  0  0  0  0  2  0  0  0  0  0  0
  161.2940  208.2290  151.2830 C   0  0  1  0  0  3  0  0  0  0  0  0
  160.6750  209.0980  153.8790 C   0  0  1  0  0  3  0  0  0  0  0  0
  161.4910  210.0750  153.0220 C   0  0  0  0  0  2  0  0  0  0  0  0
  161.2580  207.6930  153.8020 C   0  0  0  0  0  2  0  0  0  0  0  0
  161.1890  207.1460  152.3720 C   0  0  0  0  0  2  0  0  0  0  0  0
  162.1870  210.4020  150.7610 O   0  0  0  0  0  1  0  0  0  0  0  0
  162.1040  209.4380  151.7660 C   0  0  2  0  0  3  0  0  0  0  0  0
  160.6480  209.5630  155.3230 C   0  0  0  0  0  2  0  0  0  0  0  0
  162.2920  209.5800  156.7450 N   0  0  0  0  0  1  0  0  0  0  0  0
  161.4490  208.7330  156.1070 O   0  0  0  0  0  0  0  0  0  0  0  0
  1  2  1  0  0  0  0
  3 12  1  0  0  0  0
  3 10  2  0  0  0  0
  4  7  1  0  0  0  0
  4  1  1  0  0  0  0
  5 14  1  0  0  0  0
  5 13  2  0  0  0  0
  6  8  1  6  0  0  0
  6  5  1  0  0  0  0
  7 11  1  0  0  0  0
  9  6  1  0  0  0  0
  9  7  2  0  0  0  0
 10  9  1  0  0  0  0
 11 13  1  0  0  0  0
 11  2  1  0  0  0  0
 12  8  2  0  0  0  0
 14 15  1  0  0  0  0
 16 15  1  6  0  0  0
 16 22  1  0  0  0  0
 16 20  1  0  0  0  0
 17 23  1  1  0  0  0
 18 17  1  0  0  0  0
 19 17  1  0  0  0  0
 20 19  1  0  0  0  0
 22 21  1  6  0  0  0
 22 18  1  0  0  0  0
 23 25  1  0  0  0  0
 25 24  1  0  0  0  0
M  END
>  <MODEL>
1

>  <REMARK>
 VINA RESULT:      -9.0      0.000      0.000
  Name = 
  5 active torsions:
  status: ('A' for Active; 'I' for Inactive)
    1  A    between atoms: C_5  and  C_16
    2  A    between atoms: C_6  and  C_23
    3  A    between atoms: C_9  and  C_11
    4  A    between atoms: C_11  and  O_25
    5  A    between atoms: C_16  and  C_23
                            x       y       z     vdW  Elec       q    Type
                         _______ _______ _______ _____ _____    ______ ____

>  <TORSDO>
F 5

$$$$
=
 OpenBabel11072415263D

 25 28  0  0  1  0  0  0  0  0999 V2000
  162.4370  204.8450  145.4370 C   0  0  0  0  0  2  0  0  0  0  0  0
  161.8030  206.3000  146.3520 S   0  0  0  0  0  0  0  0  0  0  0  0
  161.1060  200.6320  148.8790 N   0  0  0  0  0  0  0  0  0  0  0  0
  161.6890  203.5950  145.8980 C   0  0  0  0  0  2  0  0  0  0  0  0
  161.0380  204.7440  149.9890 C   0  0  0  0  0  0  0  0  0  0  0  0
  160.5680  203.3530  149.6050 C   0  0  2  0  0  3  0  0  0  0  0  0
  161.2560  203.8740  147.2900 C   0  0  0  0  0  0  0  0  0  0  0  0
  160.9200  202.3000  150.6250 C   0  0  0  0  0  3  0  0  0  0  0  0
  160.9850  202.9360  148.2070 C   0  0  0  0  0  0  0  0  0  0  0  0
  161.0610  201.4970  147.9080 C   0  0  0  0  0  3  0  0  0  0  0  0
  161.2900  205.2420  147.6580 N   0  0  0  0  0  0  0  0  0  0  0  0
  161.1220  201.0280  150.2630 C   0  0  0  0  0  3  0  0  0  0  0  0
  161.3180  205.6380  149.0330 C   0  0  0  0  0  3  0  0  0  0  0  0
  160.9940  205.1940  151.4130 C   0  0  0  0  0  2  0  0  0  0  0  0
  162.0020  206.3050  151.6470 C   0  0  0  0  0  2  0  0  0  0  0  0
  161.2900  207.5970  152.0220 C   0  0  1  0  0  3  0  0  0  0  0  0
  160.4730  210.0470  153.1200 C   0  0  1  0  0  3  0  0  0  0  0  0
  161.3930  210.1350  151.8950 C   0  0  0  0  0  2  0  0  0  0  0  0
  161.0130  209.0460  154.1320 C   0  0  0  0  0  2  0  0  0  0  0  0
  161.0540  207.6320  153.5420 C   0  0  0  0  0  2  0  0  0  0  0  0
  162.2960  208.7560  150.1670 O   0  0  0  0  0  1  0  0  0  0  0  0
  162.0930  208.8140  151.5470 C   0  0  2  0  0  3  0  0  0  0  0  0
  160.3330  211.4100  153.7700 C   0  0  0  0  0  2  0  0  0  0  0  0
  158.4050  211.9270  152.9090 N   0  0  0  0  0  1  0  0  0  0  0  0
  159.7080  212.2960  152.8920 O   0  0  0  0  0  0  0  0  0  0  0  0
  1  4  1  0  0  0  0
  1  2  1  0  0  0  0
  2 11  1  0  0  0  0
  3 12  1  0  0  0  0
  4  7  1  0  0  0  0
  5 14  1  0  0  0  0
  6  5  1  0  0  0  0
  6  8  1  1  0  0  0
  7 11  1  0  0  0  0
  7  9  2  0  0  0  0
  9  6  1  0  0  0  0
 10  9  1  0  0  0  0
 10  3  2  0  0  0  0
 11 13  1  0  0  0  0
 12  8  2  0  0  0  0
 13  5  2  0  0  0  0
 14 15  1  0  0  0  0
 16 15  1  1  0  0  0
 16 20  1  0  0  0  0
 17 23  1  1  0  0  0
 17 19  1  0  0  0  0
 18 17  1  0  0  0  0
 20 19  1  0  0  0  0
 22 21  1  6  0  0  0
 22 18  1  0  0  0  0
 22 16  1  0  0  0  0
 25 24  1  0  0  0  0
 25 23  1  0  0  0  0
M  END
>  <MODEL>
2

>  <REMARK>
 VINA RESULT:      -8.9      2.364      3.558
  Name = 
  5 active torsions:
  status: ('A' for Active; 'I' for Inactive)
    1  A    between atoms: C_5  and  C_16
    2  A    between atoms: C_6  and  C_23
    3  A    between atoms: C_9  and  C_11
    4  A    between atoms: C_11  and  O_25
    5  A    between atoms: C_16  and  C_23
                            x       y       z     vdW  Elec       q    Type
                         _______ _______ _______ _____ _____    ______ ____

>  <TORSDO>
F 5

$$$$
=
 OpenBabel11072415263D

 25 28  0  0  1  0  0  0  0  0999 V2000
  160.9970  208.9790  156.2560 C   0  0  0  0  0  2  0  0  0  0  0  0
  160.5110  207.2130  156.2130 S   0  0  0  0  0  0  0  0  0  0  0  0
  161.8140  210.0960  150.8290 N   0  0  0  0  0  0  0  0  0  0  0  0
  160.7080  209.6140  154.8970 C   0  0  0  0  0  2  0  0  0  0  0  0
  161.4530  206.1680  152.4370 C   0  0  0  0  0  0  0  0  0  0  0  0
  161.1230  207.4540  151.7010 C   0  0  2  0  0  3  0  0  0  0  0  0
  160.7890  208.5100  153.9090 C   0  0  0  0  0  0  0  0  0  0  0  0
  162.0100  207.7050  150.5080 C   0  0  0  0  0  3  0  0  0  0  0  0
  161.0500  208.6690  152.6060 C   0  0  0  0  0  0  0  0  0  0  0  0
  161.2570  209.9960  152.0010 C   0  0  0  0  0  3  0  0  0  0  0  0
  160.7190  207.2090  154.4690 N   0  0  0  0  0  0  0  0  0  0  0  0
  162.2790  208.9480  150.0960 C   0  0  0  0  0  3  0  0  0  0  0  0
  161.1920  206.0670  153.7460 C   0  0  0  0  0  3  0  0  0  0  0  0
  161.8690  204.9480  151.6830 C   0  0  0  0  0  2  0  0  0  0  0  0
  160.7110  203.9690  151.5830 C   0  0  0  0  0  2  0  0  0  0  0  0
  160.5180  203.5230  150.1420 C   0  0  1  0  0  3  0  0  0  0  0  0
  160.7950  202.8100  147.4410 C   0  0  1  0  0  3  0  0  0  0  0  0
  161.0010  201.6780  148.4580 C   0  0  0  0  0  2  0  0  0  0  0  0
  161.5700  204.0540  147.8520 C   0  0  0  0  0  2  0  0  0  0  0  0
  161.0620  204.6020  149.1910 C   0  0  0  0  0  2  0  0  0  0  0  0
  160.6840  201.2070  150.7770 O   0  0  0  0  0  1  0  0  0  0  0  0
  161.1920  202.1660  149.9010 C   0  0  2  0  0  3  0  0  0  0  0  0
  161.2380  202.3620  146.0610 C   0  0  0  0  0  2  0  0  0  0  0  0
  159.6920  201.4970  144.8020 N   0  0  0  0  0  1  0  0  0  0  0  0
  160.6190  201.1570  145.7290 O   0  0  0  0  0  0  0  0  0  0  0  0
  2  1  1  0  0  0  0
  3 10  2  0  0  0  0
  4  1  1  0  0  0  0
  5 13  2  0  0  0  0
  6  8  1  6  0  0  0
  6  5  1  0  0  0  0
  6  9  1  0  0  0  0
  7 11  1  0  0  0  0
  7  4  1  0  0  0  0
  9  7  2  0  0  0  0
 10  9  1  0  0  0  0
 11  2  1  0  0  0  0
 12  8  2  0  0  0  0
 12  3  1  0  0  0  0
 13 11  1  0  0  0  0
 14  5  1  0  0  0  0
 15 14  1  0  0  0  0
 16 15  1  1  0  0  0
 17 23  1  6  0  0  0
 17 19  1  0  0  0  0
 17 18  1  0  0  0  0
 18 22  1  0  0  0  0
 19 20  1  0  0  0  0
 20 16  1  0  0  0  0
 22 16  1  0  0  0  0
 22 21  1  1  0  0  0
 24 25  1  0  0  0  0
 25 23  1  0  0  0  0
M  END
>  <MODEL>
3

>  <REMARK>
 VINA RESULT:      -8.9      3.705      8.173
  Name = 
  5 active torsions:
  status: ('A' for Active; 'I' for Inactive)
    1  A    between atoms: C_5  and  C_16
    2  A    between atoms: C_6  and  C_23
    3  A    between atoms: C_9  and  C_11
    4  A    between atoms: C_11  and  O_25
    5  A    between atoms: C_16  and  C_23
                            x       y       z     vdW  Elec       q    Type
                         _______ _______ _______ _____ _____    ______ ____

>  <TORSDO>
F 5

$$$$
=
 OpenBabel11072415263D

 25 28  0  0  1  0  0  0  0  0999 V2000
  162.3110  204.3490  145.2450 C   0  0  0  0  0  2  0  0  0  0  0  0
  161.6400  205.9410  145.8550 S   0  0  0  0  0  0  0  0  0  0  0  0
  161.1850  200.9020  149.5140 N   0  0  0  0  0  0  0  0  0  0  0  0
  161.6150  203.1990  145.9720 C   0  0  0  0  0  2  0  0  0  0  0  0
  160.9890  205.1500  149.7510 C   0  0  0  0  0  0  0  0  0  0  0  0
  160.5630  203.6960  149.6740 C   0  0  2  0  0  3  0  0  0  0  0  0
  161.1950  203.7460  147.2860 C   0  0  0  0  0  0  0  0  0  0  0  0
  160.9680  202.8880  150.8810 C   0  0  0  0  0  3  0  0  0  0  0  0
  160.9720  203.0120  148.3830 C   0  0  0  0  0  0  0  0  0  0  0  0
  161.0940  201.5440  148.3860 C   0  0  0  0  0  3  0  0  0  0  0  0
  161.1860  205.1620  147.3620 N   0  0  0  0  0  0  0  0  0  0  0  0
  161.2090  201.5760  150.7850 C   0  0  0  0  0  3  0  0  0  0  0  0
  161.2220  205.8350  148.6250 C   0  0  0  0  0  3  0  0  0  0  0  0
  160.9510  205.8840  151.0520 C   0  0  0  0  0  2  0  0  0  0  0  0
  161.5110  207.2860  150.8840 C   0  0  0  0  0  2  0  0  0  0  0  0
  161.0190  208.1910  152.0030 C   0  0  1  0  0  3  0  0  0  0  0  0
  160.6350  209.6420  154.3750 C   0  0  1  0  0  3  0  0  0  0  0  0
  161.4810  210.3320  153.2970 C   0  0  0  0  0  2  0  0  0  0  0  0
  161.0850  208.2020  154.5780 C   0  0  0  0  0  2  0  0  0  0  0  0
  160.8840  207.3770  153.3020 C   0  0  0  0  0  2  0  0  0  0  0  0
  162.0680  210.1070  150.9930 O   0  0  0  0  0  1  0  0  0  0  0  0
  161.9600  209.3890  152.1840 C   0  0  2  0  0  3  0  0  0  0  0  0
  160.7350  210.4010  155.6850 C   0  0  0  0  0  2  0  0  0  0  0  0
  162.6060  210.4950  156.7870 N   0  0  0  0  0  1  0  0  0  0  0  0
  161.9530  211.0770  155.7530 O   0  0  0  0  0  0  0  0  0  0  0  0
  1  2  1  0  0  0  0
  1  4  1  0  0  0  0
  2 11  1  0  0  0  0
  3 12  1  0  0  0  0
  4  7  1  0  0  0  0
  5 14  1  0  0  0  0
  6  5  1  0  0  0  0
  6  8  1  1  0  0  0
  7 11  1  0  0  0  0
  7  9  2  0  0  0  0
  9 10  1  0  0  0  0
  9  6  1  0  0  0  0
 10  3  2  0  0  0  0
 11 13  1  0  0  0  0
 12  8  2  0  0  0  0
 13  5  2  0  0  0  0
 15 14  1  0  0  0  0
 16 15  1  6  0  0  0
 16 22  1  0  0  0  0
 16 20  1  0  0  0  0
 17 19  1  0  0  0  0
 17 23  1  1  0  0  0
 18 17  1  0  0  0  0
 20 19  1  0  0  0  0
 22 21  1  6  0  0  0
 22 18  1  0  0  0  0
 23 25  1  0  0  0  0
 25 24  1  0  0  0  0
M  END
>  <MODEL>
4

>  <REMARK>
 VINA RESULT:      -8.5      1.782      3.125
  Name = 
  5 active torsions:
  status: ('A' for Active; 'I' for Inactive)
    1  A    between atoms: C_5  and  C_16
    2  A    between atoms: C_6  and  C_23
    3  A    between atoms: C_9  and  C_11
    4  A    between atoms: C_11  and  O_25
    5  A    between atoms: C_16  and  C_23
                            x       y       z     vdW  Elec       q    Type
                         _______ _______ _______ _____ _____    ______ ____

>  <TORSDO>
F 5

$$$$
=
 OpenBabel11072415263D

 25 28  0  0  1  0  0  0  0  0999 V2000
  160.3100  201.0760  149.3020 C   0  0  0  0  0  2  0  0  0  0  0  0
  160.8990  201.9980  150.7720 S   0  0  0  0  0  0  0  0  0  0  0  0
  161.0000  204.8400  145.2120 N   0  0  0  0  0  0  0  0  0  0  0  0
  160.9330  201.6810  148.0450 C   0  0  0  0  0  2  0  0  0  0  0  0
  161.1350  205.7670  149.3670 C   0  0  0  0  0  0  0  0  0  0  0  0
  161.5790  205.5060  147.9390 C   0  0  2  0  0  3  0  0  0  0  0  0
  161.2060  203.1030  148.3730 C   0  0  0  0  0  0  0  0  0  0  0  0
  161.0530  206.5190  146.9540 C   0  0  0  0  0  3  0  0  0  0  0  0
  161.3160  204.0870  147.4720 C   0  0  0  0  0  0  0  0  0  0  0  0
  161.2060  203.8440  146.0240 C   0  0  0  0  0  3  0  0  0  0  0  0
  161.1960  203.4030  149.7590 N   0  0  0  0  0  0  0  0  0  0  0  0
  160.8350  206.1910  145.6760 C   0  0  0  0  0  3  0  0  0  0  0  0
  161.0190  204.7450  150.2240 C   0  0  0  0  0  3  0  0  0  0  0  0
  161.0280  207.1640  149.8840 C   0  0  0  0  0  2  0  0  0  0  0  0
  162.2970  207.5520  150.6240 C   0  0  0  0  0  2  0  0  0  0  0  0
  161.9560  208.2500  151.9320 C   0  0  1  0  0  3  0  0  0  0  0  0
  160.7220  209.4980  154.1220 C   0  0  1  0  0  3  0  0  0  0  0  0
  160.8550  207.9710  154.2080 C   0  0  0  0  0  2  0  0  0  0  0  0
  160.1790  209.9190  152.7630 C   0  0  0  0  0  2  0  0  0  0  0  0
  161.1430  209.5230  151.6390 C   0  0  0  0  0  2  0  0  0  0  0  0
  161.9560  206.1550  153.1170 O   0  0  0  0  0  1  0  0  0  0  0  0
  161.2000  207.3010  152.8700 C   0  0  2  0  0  3  0  0  0  0  0  0
  159.8080  210.0070  155.2200 C   0  0  0  0  0  2  0  0  0  0  0  0
  160.8200  210.4500  157.0920 N   0  0  0  0  0  1  0  0  0  0  0  0
  160.4370  211.0300  155.9300 O   0  0  0  0  0  0  0  0  0  0  0  0
  1  2  1  0  0  0  0
  3 12  1  0  0  0  0
  3 10  2  0  0  0  0
  4  7  1  0  0  0  0
  4  1  1  0  0  0  0
  5 14  1  0  0  0  0
  5 13  2  0  0  0  0
  6  8  1  6  0  0  0
  6  5  1  0  0  0  0
  7 11  1  0  0  0  0
  9  6  1  0  0  0  0
  9  7  2  0  0  0  0
 10  9  1  0  0  0  0
 11 13  1  0  0  0  0
 11  2  1  0  0  0  0
 12  8  2  0  0  0  0
 14 15  1  0  0  0  0
 16 15  1  6  0  0  0
 16 22  1  0  0  0  0
 17 18  1  0  0  0  0
 17 23  1  1  0  0  0
 19 17  1  0  0  0  0
 20 16  1  0  0  0  0
 20 19  1  0  0  0  0
 22 21  1  1  0  0  0
 22 18  1  0  0  0  0
 23 25  1  0  0  0  0
 25 24  1  0  0  0  0
M  END
>  <MODEL>
5

>  <REMARK>
 VINA RESULT:      -8.5      1.316      1.629
  Name = 
  5 active torsions:
  status: ('A' for Active; 'I' for Inactive)
    1  A    between atoms: C_5  and  C_16
    2  A    between atoms: C_6  and  C_23
    3  A    between atoms: C_9  and  C_11
    4  A    between atoms: C_11  and  O_25
    5  A    between atoms: C_16  and  C_23
                            x       y       z     vdW  Elec       q    Type
                         _______ _______ _______ _____ _____    ______ ____

>  <TORSDO>
F 5

$$$$
=
 OpenBabel11072415263D

 25 28  0  0  1  0  0  0  0  0999 V2000
  162.4350  204.6440  145.2270 C   0  0  0  0  0  2  0  0  0  0  0  0
  161.6940  206.1150  146.0300 S   0  0  0  0  0  0  0  0  0  0  0  0
  161.2070  200.5790  148.8790 N   0  0  0  0  0  0  0  0  0  0  0  0
  161.7380  203.3850  145.7400 C   0  0  0  0  0  2  0  0  0  0  0  0
  160.8850  204.7400  149.7300 C   0  0  0  0  0  0  0  0  0  0  0  0
  160.5020  203.3050  149.4180 C   0  0  2  0  0  3  0  0  0  0  0  0
  161.2430  203.7230  147.0980 C   0  0  0  0  0  0  0  0  0  0  0  0
  160.8730  202.3350  150.5110 C   0  0  0  0  0  3  0  0  0  0  0  0
  160.9890  202.8290  148.0620 C   0  0  0  0  0  0  0  0  0  0  0  0
  161.1510  201.3800  147.8550 C   0  0  0  0  0  3  0  0  0  0  0  0
  161.1920  205.1110  147.3810 N   0  0  0  0  0  0  0  0  0  0  0  0
  161.1530  201.0570  150.2350 C   0  0  0  0  0  3  0  0  0  0  0  0
  161.1510  205.5890  148.7300 C   0  0  0  0  0  3  0  0  0  0  0  0
  160.7670  205.2710  151.1210 C   0  0  0  0  0  2  0  0  0  0  0  0
  162.1330  205.6750  151.6500 C   0  0  0  0  0  2  0  0  0  0  0  0
  162.0680  207.0560  152.2860 C   0  0  1  0  0  3  0  0  0  0  0  0
  161.4060  209.6540  153.1130 C   0  0  1  0  0  3  0  0  0  0  0  0
  160.8270  208.5130  153.9600 C   0  0  0  0  0  2  0  0  0  0  0  0
  161.1950  209.3880  151.6290 C   0  0  0  0  0  2  0  0  0  0  0  0
  161.9390  208.1240  151.1850 C   0  0  0  0  0  2  0  0  0  0  0  0
  161.0480  206.1560  154.2710 O   0  0  0  0  0  1  0  0  0  0  0  0
  160.9100  207.1350  153.2880 C   0  0  2  0  0  3  0  0  0  0  0  0
  160.7580  210.9720  153.4950 C   0  0  0  0  0  2  0  0  0  0  0  0
  159.1320  212.0120  152.4960 N   0  0  0  0  0  1  0  0  0  0  0  0
  159.3850  210.9170  153.2510 O   0  0  0  0  0  0  0  0  0  0  0  0
  1  4  1  0  0  0  0
  1  2  1  0  0  0  0
  2 11  1  0  0  0  0
  3 12  1  0  0  0  0
  4  7  1  0  0  0  0
  5 14  1  0  0  0  0
  6  5  1  0  0  0  0
  6  8  1  1  0  0  0
  7 11  1  0  0  0  0
  7  9  2  0  0  0  0
  9  6  1  0  0  0  0
 10  9  1  0  0  0  0
 10  3  2  0  0  0  0
 11 13  1  0  0  0  0
 12  8  2  0  0  0  0
 13  5  2  0  0  0  0
 14 15  1  0  0  0  0
 16 15  1  6  0  0  0
 16 22  1  0  0  0  0
 17 23  1  1  0  0  0
 17 18  1  0  0  0  0
 19 17  1  0  0  0  0
 20 19  1  0  0  0  0
 20 16  1  0  0  0  0
 22 18  1  0  0  0  0
 22 21  1  1  0  0  0
 24 25  1  0  0  0  0
 25 23  1  0  0  0  0
M  END
>  <MODEL>
6

>  <REMARK>
 VINA RESULT:      -8.4      2.314      3.766
  Name = 
  5 active torsions:
  status: ('A' for Active; 'I' for Inactive)
    1  A    between atoms: C_5  and  C_16
    2  A    between atoms: C_6  and  C_23
    3  A    between atoms: C_9  and  C_11
    4  A    between atoms: C_11  and  O_25
    5  A    between atoms: C_16  and  C_23
                            x       y       z     vdW  Elec       q    Type
                         _______ _______ _______ _____ _____    ______ ____

>  <TORSDO>
F 5

$$$$
=
 OpenBabel11072415263D

 25 28  0  0  1  0  0  0  0  0999 V2000
  158.6910  212.6910  153.8030 C   0  0  0  0  0  2  0  0  0  0  0  0
  159.6360  212.2620  152.2940 S   0  0  0  0  0  0  0  0  0  0  0  0
  160.0560  208.5010  157.2610 N   0  0  0  0  0  0  0  0  0  0  0  0
  159.3500  212.0300  155.0140 C   0  0  0  0  0  2  0  0  0  0  0  0
  160.7960  208.4820  153.0660 C   0  0  0  0  0  0  0  0  0  0  0  0
  161.0270  208.5600  154.5650 C   0  0  2  0  0  3  0  0  0  0  0  0
  160.0350  210.8220  154.4920 C   0  0  0  0  0  0  0  0  0  0  0  0
  160.7240  207.2720  155.2850 C   0  0  0  0  0  3  0  0  0  0  0  0
  160.3390  209.7420  155.2220 C   0  0  0  0  0  0  0  0  0  0  0  0
  160.0440  209.6560  156.6630 C   0  0  0  0  0  3  0  0  0  0  0  0
  160.2260  210.8100  153.0870 N   0  0  0  0  0  0  0  0  0  0  0  0
  160.3150  207.2720  156.5590 C   0  0  0  0  0  3  0  0  0  0  0  0
  160.4720  209.5870  152.3850 C   0  0  0  0  0  3  0  0  0  0  0  0
  161.1280  207.2350  152.3120 C   0  0  0  0  0  2  0  0  0  0  0  0
  161.2290  207.5290  150.8260 C   0  0  0  0  0  2  0  0  0  0  0  0
  161.5090  206.2500  150.0500 C   0  0  1  0  0  3  0  0  0  0  0  0
  161.3900  203.7970  148.6910 C   0  0  1  0  0  3  0  0  0  0  0  0
  161.1690  205.0510  147.8330 C   0  0  0  0  0  2  0  0  0  0  0  0
  160.5570  203.8590  149.9640 C   0  0  0  0  0  2  0  0  0  0  0  0
  160.9790  205.0420  150.8420 C   0  0  0  0  0  2  0  0  0  0  0  0
  161.3830  207.4260  147.9540 O   0  0  0  0  0  1  0  0  0  0  0  0
  160.8900  206.3210  148.6490 C   0  0  2  0  0  3  0  0  0  0  0  0
  161.0310  202.5520  147.9030 C   0  0  0  0  0  2  0  0  0  0  0  0
  161.3930  200.5390  148.6380 N   0  0  0  0  0  1  0  0  0  0  0  0
  160.5280  201.5730  148.7590 O   0  0  0  0  0  0  0  0  0  0  0  0
  1  4  1  0  0  0  0
  2 11  1  0  0  0  0
  2  1  1  0  0  0  0
  5  6  1  0  0  0  0
  6  9  1  0  0  0  0
  6  8  1  1  0  0  0
  7  4  1  0  0  0  0
  7  9  2  0  0  0  0
  8 12  2  0  0  0  0
  9 10  1  0  0  0  0
 10  3  2  0  0  0  0
 11  7  1  0  0  0  0
 12  3  1  0  0  0  0
 13  5  2  0  0  0  0
 13 11  1  0  0  0  0
 14  5  1  0  0  0  0
 15 14  1  0  0  0  0
 16 15  1  1  0  0  0
 16 20  1  0  0  0  0
 17 23  1  6  0  0  0
 17 19  1  0  0  0  0
 18 22  1  0  0  0  0
 18 17  1  0  0  0  0
 19 20  1  0  0  0  0
 22 21  1  6  0  0  0
 22 16  1  0  0  0  0
 23 25  1  0  0  0  0
 24 25  1  0  0  0  0
M  END
>  <MODEL>
7

>  <REMARK>
 VINA RESULT:      -8.2      3.419      8.813
  Name = 
  5 active torsions:
  status: ('A' for Active; 'I' for Inactive)
    1  A    between atoms: C_5  and  C_16
    2  A    between atoms: C_6  and  C_23
    3  A    between atoms: C_9  and  C_11
    4  A    between atoms: C_11  and  O_25
    5  A    between atoms: C_16  and  C_23
                            x       y       z     vdW  Elec       q    Type
                         _______ _______ _______ _____ _____    ______ ____

>  <TORSDO>
F 5

$$$$
=
 OpenBabel11072415263D

 25 28  0  0  1  0  0  0  0  0999 V2000
  162.0970  206.1310  146.7620 C   0  0  0  0  0  2  0  0  0  0  0  0
  161.9430  207.5600  147.8970 S   0  0  0  0  0  0  0  0  0  0  0  0
  160.8200  201.8330  150.1190 N   0  0  0  0  0  0  0  0  0  0  0  0
  161.2580  204.9710  147.2960 C   0  0  0  0  0  2  0  0  0  0  0  0
  161.7200  205.7620  151.4960 C   0  0  0  0  0  0  0  0  0  0  0  0
  160.9400  204.5110  151.1360 C   0  0  2  0  0  3  0  0  0  0  0  0
  161.1920  205.1630  148.7660 C   0  0  0  0  0  0  0  0  0  0  0  0
  161.3130  203.3120  151.9710 C   0  0  0  0  0  3  0  0  0  0  0  0
  160.9650  204.1860  149.6540 C   0  0  0  0  0  0  0  0  0  0  0  0
  160.7190  202.7930  149.2460 C   0  0  0  0  0  3  0  0  0  0  0  0
  161.5460  206.4620  149.2100 N   0  0  0  0  0  0  0  0  0  0  0  0
  161.2040  202.0710  151.4850 C   0  0  0  0  0  3  0  0  0  0  0  0
  161.9400  206.6990  150.5650 C   0  0  0  0  0  3  0  0  0  0  0  0
  162.0650  206.0580  152.9190 C   0  0  0  0  0  2  0  0  0  0  0  0
  160.8210  206.4700  153.6880 C   0  0  0  0  0  2  0  0  0  0  0  0
  161.0330  207.8220  154.3530 C   0  0  1  0  0  3  0  0  0  0  0  0
  160.8400  210.4440  155.3350 C   0  0  1  0  0  3  0  0  0  0  0  0
  160.2780  209.3440  156.2460 C   0  0  0  0  0  2  0  0  0  0  0  0
  160.3510  210.2640  153.9050 C   0  0  0  0  0  2  0  0  0  0  0  0
  160.8510  208.9410  153.3140 C   0  0  0  0  0  2  0  0  0  0  0  0
  160.2610  206.9660  156.4670 O   0  0  0  0  0  1  0  0  0  0  0  0
  160.0790  207.9950  155.5420 C   0  0  2  0  0  3  0  0  0  0  0  0
  160.4310  211.8110  155.8500 C   0  0  0  0  0  2  0  0  0  0  0  0
  159.0280  213.2450  155.0130 N   0  0  0  0  0  1  0  0  0  0  0  0
  159.0750  212.0270  155.6040 O   0  0  0  0  0  0  0  0  0  0  0  0
  1  4  1  0  0  0  0
  1  2  1  0  0  0  0
  2 11  1  0  0  0  0
  3 12  1  0  0  0  0
  4  7  1  0  0  0  0
  5 14  1  0  0  0  0
  6  5  1  0  0  0  0
  6  8  1  1  0  0  0
  7 11  1  0  0  0  0
  7  9  2  0  0  0  0
  9  6  1  0  0  0  0
 10  9  1  0  0  0  0
 10  3  2  0  0  0  0
 11 13  1  0  0  0  0
 12  8  2  0  0  0  0
 13  5  2  0  0  0  0
 14 15  1  0  0  0  0
 16 15  1  6  0  0  0
 16 22  1  0  0  0  0
 17 23  1  1  0  0  0
 17 18  1  0  0  0  0
 19 17  1  0  0  0  0
 20 19  1  0  0  0  0
 20 16  1  0  0  0  0
 22 18  1  0  0  0  0
 22 21  1  1  0  0  0
 24 25  1  0  0  0  0
 25 23  1  0  0  0  0
M  END
>  <MODEL>
8

>  <REMARK>
 VINA RESULT:      -8.0      2.633      4.333
  Name = 
  5 active torsions:
  status: ('A' for Active; 'I' for Inactive)
    1  A    between atoms: C_5  and  C_16
    2  A    between atoms: C_6  and  C_23
    3  A    between atoms: C_9  and  C_11
    4  A    between atoms: C_11  and  O_25
    5  A    between atoms: C_16  and  C_23
                            x       y       z     vdW  Elec       q    Type
                         _______ _______ _______ _____ _____    ______ ____

>  <TORSDO>
F 5

$$$$
=
 OpenBabel11072415263D

 25 28  0  0  1  0  0  0  0  0999 V2000
  160.7540  200.8210  146.4940 C   0  0  0  0  0  2  0  0  0  0  0  0
  161.1710  200.5970  148.2640 S   0  0  0  0  0  0  0  0  0  0  0  0
  161.0860  206.3820  145.9150 N   0  0  0  0  0  0  0  0  0  0  0  0
  161.3340  202.1470  146.0050 C   0  0  0  0  0  2  0  0  0  0  0  0
  160.9670  204.3680  149.6670 C   0  0  0  0  0  0  0  0  0  0  0  0
  161.4860  205.1410  148.4680 C   0  0  2  0  0  3  0  0  0  0  0  0
  161.4110  203.0210  147.2010 C   0  0  0  0  0  0  0  0  0  0  0  0
  160.8670  206.5080  148.3230 C   0  0  0  0  0  3  0  0  0  0  0  0
  161.4230  204.3600  147.1690 C   0  0  0  0  0  0  0  0  0  0  0  0
  161.3920  205.1180  145.9070 C   0  0  0  0  0  3  0  0  0  0  0  0
  161.3170  202.3390  148.4400 N   0  0  0  0  0  0  0  0  0  0  0  0
  160.7340  207.0820  147.1220 C   0  0  0  0  0  3  0  0  0  0  0  0
  160.9550  203.0300  149.6400 C   0  0  0  0  0  3  0  0  0  0  0  0
  160.6640  205.0720  150.9500 C   0  0  0  0  0  2  0  0  0  0  0  0
  161.9390  205.2840  151.7480 C   0  0  0  0  0  2  0  0  0  0  0  0
  161.9630  206.6830  152.3450 C   0  0  1  0  0  3  0  0  0  0  0  0
  161.4620  209.3370  153.1100 C   0  0  1  0  0  3  0  0  0  0  0  0
  160.8380  208.2540  154.0000 C   0  0  0  0  0  2  0  0  0  0  0  0
  161.2070  209.0420  151.6380 C   0  0  0  0  0  2  0  0  0  0  0  0
  161.8710  207.7260  151.2170 C   0  0  0  0  0  2  0  0  0  0  0  0
  160.9350  205.8970  154.3750 O   0  0  0  0  0  1  0  0  0  0  0  0
  160.8310  206.8550  153.3660 C   0  0  2  0  0  3  0  0  0  0  0  0
  160.8950  210.6990  153.4660 C   0  0  0  0  0  2  0  0  0  0  0  0
  159.9910  212.2420  152.2310 N   0  0  0  0  0  1  0  0  0  0  0  0
  159.7850  210.9770  152.6680 O   0  0  0  0  0  0  0  0  0  0  0  0
  1  2  1  0  0  0  0
  2 11  1  0  0  0  0
  3 12  1  0  0  0  0
  4  1  1  0  0  0  0
  4  7  1  0  0  0  0
  5 14  1  0  0  0  0
  6  8  1  6  0  0  0
  6  5  1  0  0  0  0
  7 11  1  0  0  0  0
  9  7  2  0  0  0  0
  9  6  1  0  0  0  0
 10  3  2  0  0  0  0
 10  9  1  0  0  0  0
 11 13  1  0  0  0  0
 12  8  2  0  0  0  0
 13  5  2  0  0  0  0
 14 15  1  0  0  0  0
 16 15  1  6  0  0  0
 16 22  1  0  0  0  0
 17 23  1  1  0  0  0
 17 18  1  0  0  0  0
 19 17  1  0  0  0  0
 20 19  1  0  0  0  0
 20 16  1  0  0  0  0
 22 18  1  0  0  0  0
 22 21  1  1  0  0  0
 24 25  1  0  0  0  0
 25 23  1  0  0  0  0
M  END
>  <MODEL>
9

>  <REMARK>
 VINA RESULT:      -7.7      1.941      2.738
  Name = 
  5 active torsions:
  status: ('A' for Active; 'I' for Inactive)
    1  A    between atoms: C_5  and  C_16
    2  A    between atoms: C_6  and  C_23
    3  A    between atoms: C_9  and  C_11
    4  A    between atoms: C_11  and  O_25
    5  A    between atoms: C_16  and  C_23
                            x       y       z     vdW  Elec       q    Type
                         _______ _______ _______ _____ _____    ______ ____

>  <TORSDO>
F 5

$$$$
