=
 OpenBabel11072411393D

 61 70  0  0  1  0  0  0  0  0999 V2000
  158.5380  212.7800  153.1360 C   0  0  0  0  0  1  0  0  0  0  0  0
  157.8930  213.0220  145.4610 C   0  0  0  0  0  3  0  0  0  0  0  0
  159.1290  209.6900  151.7910 C   0  0  0  0  0  2  0  0  0  0  0  0
  157.0230  211.6790  148.9360 C   0  0  1  0  0  3  0  0  0  0  0  0
  163.2110  212.1860  148.8770 C   0  0  2  0  0  3  0  0  0  0  0  0
  163.5510  210.5400  154.5720 O   0  0  0  0  0  0  0  0  0  0  0  0
  158.9100  213.1100  148.0810 C   0  0  0  0  0  0  0  0  0  0  0  0
  163.2150  211.1550  153.3580 C   0  0  0  0  0  2  0  0  0  0  0  0
  160.7510  214.0560  149.6100 C   0  0  0  0  0  2  0  0  0  0  0  0
  159.6390  211.1220  151.5590 C   0  0  2  0  0  3  0  0  0  0  0  0
  158.0690  209.5660  152.8890 C   0  0  0  0  0  2  0  0  0  0  0  0
  162.1270  208.1270  153.6450 C   0  0  0  0  0  1  0  0  0  0  0  0
  156.5310  214.4530  151.3850 O   0  0  0  0  0  1  0  0  0  0  0  0
  159.0730  213.7110  145.7280 C   0  0  0  0  0  3  0  0  0  0  0  0
  162.3620  211.5010  149.9270 C   0  0  2  0  0  3  0  0  0  0  0  0
  157.7400  212.3600  147.7970 C   0  0  0  0  0  0  0  0  0  0  0  0
  163.2710  211.3770  147.5890 C   0  0  0  0  0  2  0  0  0  0  0  0
  159.3280  210.1950  154.8340 O   0  0  0  0  0  0  0  0  0  0  0  0
  157.1430  213.8160  150.3060 C   0  0  1  0  0  3  0  0  0  0  0  0
  161.7810  212.2060  150.9180 C   0  0  2  0  0  3  0  0  0  0  0  0
  158.5640  213.3670  150.6870 C   0  0  2  0  0  3  0  0  0  0  0  0
  162.4070  209.3670  148.6780 C   0  0  2  0  0  3  0  0  0  0  0  0
  162.8940  211.2540  155.5880 C   0  0  0  0  0  2  0  0  0  0  0  0
  158.6700  209.1140  154.2140 C   0  0  0  0  0  2  0  0  0  0  0  0
  156.0570  211.7250  146.1800 F   0  0  0  0  0  0  0  0  0  0  0  0
  157.2200  212.3570  146.4840 C   0  0  0  0  0  0  0  0  0  0  0  0
  160.8980  208.8850  156.1010 C   0  0  0  0  0  1  0  0  0  0  0  0
  163.5760  209.9140  147.8770 C   0  0  0  0  0  2  0  0  0  0  0  0
  156.2500  212.6720  149.8000 C   0  0  1  0  0  3  0  0  0  0  0  0
  164.6150  212.4130  149.4040 C   0  0  0  0  0  1  0  0  0  0  0  0
  161.0550  211.5240  152.0530 C   0  0  2  0  0  3  0  0  0  0  0  0
  159.5740  213.7530  147.0270 C   0  0  0  0  0  3  0  0  0  0  0  0
  161.3520  211.2260  155.4750 C   0  0  0  0  0  2  0  0  0  0  0  0
  159.5130  213.1540  149.4830 C   0  0  1  0  0  3  0  0  0  0  0  0
  156.2070  210.6210  148.5230 O   0  0  0  0  0  1  0  0  0  0  0  0
  161.3290  209.4330  153.6210 C   0  0  1  0  0  3  0  0  0  0  0  0
  160.7130  209.9180  154.9820 C   0  0  2  0  0  0  0  0  0  0  0  0
  162.1810  210.1090  149.8770 O   0  0  0  0  0  0  0  0  0  0  0  0
  161.9920  210.4740  152.7080 C   0  0  2  0  0  3  0  0  0  0  0  0
  161.6180  213.6930  150.8160 C   0  0  0  0  0  2  0  0  0  0  0  0
  155.1870  213.2010  149.0900 F   0  0  0  0  0  0  0  0  0  0  0  0
  158.5610  212.2170  151.7210 C   0  0  2  0  0  3  0  0  0  0  0  0
  161.3270  206.0930  150.2300 N   0  0  0  0  0  0  0  0  0  0  0  0
  162.4380  207.8640  148.9370 C   0  0  1  0  0  3  0  0  0  0  0  0
  161.8070  205.9370  147.9030 N   0  0  2  0  0  0  0  0  0  0  0  0
  161.1670  207.4200  149.6230 C   0  0  1  0  0  3  0  0  0  0  0  0
  160.7690  206.2360  148.8770 C   0  0  2  0  0  3  0  0  0  0  0  0
  160.2040  205.9190  151.1280 C   0  0  0  0  0  1  0  0  0  0  0  0
  162.5330  207.1200  147.6940 N   0  0  0  0  0  2  0  0  0  0  0  0
  160.4270  205.3970  144.1860 C   0  0  0  0  0  2  0  0  0  0  0  0
  161.1420  205.4800  146.6730 C   0  0  2  0  0  3  0  0  0  0  0  0
  161.1290  204.0220  146.6440 N   0  0  0  0  0  0  0  0  0  0  0  0
  161.7890  206.1760  145.0980 S   0  0  0  0  0  0  0  0  0  0  0  0
  160.4740  203.9500  144.3570 N   0  0  0  0  0  2  0  0  0  0  0  0
  160.7830  203.3150  145.6070 C   0  0  0  0  0  0  0  0  0  0  0  0
  160.0880  201.0650  144.7490 C   0  0  0  0  0  3  0  0  0  0  0  0
  160.7640  201.8420  145.7030 C   0  0  0  0  0  0  0  0  0  0  0  0
  161.4980  199.8010  146.8040 C   0  0  0  0  0  3  0  0  0  0  0  0
  161.4720  201.1950  146.7270 C   0  0  0  0  0  3  0  0  0  0  0  0
  160.1080  199.6700  144.8280 C   0  0  0  0  0  3  0  0  0  0  0  0
  160.8130  199.0380  145.8560 C   0  0  0  0  0  3  0  0  0  0  0  0
  2 14  2  0  0  0  0
  2 26  1  0  0  0  0
  3 11  1  0  0  0  0
  4 35  1  6  0  0  0
  4 29  1  0  0  0  0
  5 30  1  1  0  0  0
  5 15  1  0  0  0  0
  6 23  1  0  0  0  0
  7 34  1  0  0  0  0
  8  6  1  0  0  0  0
  9 40  1  0  0  0  0
 10 42  1  0  0  0  0
 10  3  1  1  0  0  0
 10 31  1  0  0  0  0
 11 24  1  0  0  0  0
 14 32  1  0  0  0  0
 15 38  1  1  0  0  0
 15 20  1  0  0  0  0
 16  7  1  0  0  0  0
 16  4  1  0  0  0  0
 17 28  1  0  0  0  0
 17  5  1  0  0  0  0
 18 37  1  0  0  0  0
 19 21  1  0  0  0  0
 19 13  1  1  0  0  0
 20 40  1  6  0  0  0
 20 31  1  0  0  0  0
 21 42  1  0  0  0  0
 22 44  1  0  0  0  0
 22 38  1  0  0  0  0
 24 18  1  0  0  0  0
 25 26  1  0  0  0  0
 26 16  2  0  0  0  0
 28 22  1  0  0  0  0
 29 19  1  0  0  0  0
 31 39  1  0  0  0  0
 32  7  2  0  0  0  0
 33 23  1  0  0  0  0
 34  9  1  0  0  0  0
 34 21  1  0  0  0  0
 36 12  1  0  0  0  0
 36 37  1  0  0  0  0
 37 33  1  0  0  0  0
 37 27  1  0  0  0  0
 39  8  1  0  0  0  0
 39 36  1  0  0  0  0
 41 29  1  0  0  0  0
 42  1  1  0  0  0  0
 43 48  1  0  0  0  0
 44 46  1  0  0  0  0
 45 47  1  0  0  0  0
 46 43  1  0  0  0  0
 47 46  1  0  0  0  0
 47 43  1  0  0  0  0
 49 45  1  0  0  0  0
 49 44  1  0  0  0  0
 50 54  1  0  0  0  0
 50 53  1  0  0  0  0
 51 45  1  0  0  0  0
 52 51  1  0  0  0  0
 53 51  1  0  0  0  0
 54 55  1  0  0  0  0
 55 57  1  0  0  0  0
 55 52  2  0  0  0  0
 56 60  2  0  0  0  0
 56 57  1  0  0  0  0
 57 59  2  0  0  0  0
 59 58  1  0  0  0  0
 60 61  1  0  0  0  0
 61 58  2  0  0  0  0
M  END
>  <MODEL>
1

>  <REMARK>
 VINA RESULT:      33.3      0.000      0.000
  Name = 
  3 active torsions:
  status: ('A' for Active; 'I' for Inactive)
    1  A    between atoms: C_19  and  C_27
    2  A    between atoms: N_20  and  C_21
    3  A    between atoms: C_51  and  C_52
                            x       y       z     vdW  Elec       q    Type
                         _______ _______ _______ _____ _____    ______ ____

>  <TORSDO>
F 3

$$$$
=
 OpenBabel11072411393D

 61 70  0  0  1  0  0  0  0  0999 V2000
  161.7120  206.8420  152.4390 C   0  0  0  0  0  1  0  0  0  0  0  0
  158.7100  213.6150  154.5610 C   0  0  0  0  0  3  0  0  0  0  0  0
  159.4660  207.9370  150.1010 C   0  0  0  0  0  2  0  0  0  0  0  0
  158.4880  209.9450  153.5000 C   0  0  1  0  0  3  0  0  0  0  0  0
  162.7030  212.4940  149.7180 C   0  0  2  0  0  3  0  0  0  0  0  0
  163.8310  207.2410  147.1890 O   0  0  0  0  0  0  0  0  0  0  0  0
  160.3530  211.6360  153.4240 C   0  0  0  0  0  0  0  0  0  0  0  0
  163.6070  208.2880  148.0940 C   0  0  0  0  0  2  0  0  0  0  0  0
  162.7120  211.0780  152.5610 C   0  0  0  0  0  2  0  0  0  0  0  0
  160.6910  208.5180  150.8270 C   0  0  2  0  0  3  0  0  0  0  0  0
  159.1110  206.5040  150.5070 C   0  0  0  0  0  2  0  0  0  0  0  0
  160.9370  207.2420  146.6050 C   0  0  0  0  0  1  0  0  0  0  0  0
  160.9750  207.8450  155.3280 O   0  0  0  0  0  1  0  0  0  0  0  0
  160.0220  213.9170  154.2080 C   0  0  0  0  0  3  0  0  0  0  0  0
  162.0750  211.1210  149.5910 C   0  0  2  0  0  3  0  0  0  0  0  0
  158.9980  211.3470  153.7300 C   0  0  0  0  0  0  0  0  0  0  0  0
  161.7180  213.5960  149.3540 C   0  0  0  0  0  2  0  0  0  0  0  0
  161.0360  205.3000  149.7270 O   0  0  0  0  0  0  0  0  0  0  0  0
  160.5310  208.9950  154.6750 C   0  0  1  0  0  3  0  0  0  0  0  0
  162.5530  210.0720  150.2900 C   0  0  2  0  0  3  0  0  0  0  0  0
  161.2510  209.1540  153.3250 C   0  0  2  0  0  3  0  0  0  0  0  0
  160.1810  212.0270  148.2840 C   0  0  2  0  0  3  0  0  0  0  0  0
  164.2770  206.1410  147.9400 C   0  0  0  0  0  2  0  0  0  0  0  0
  159.6540  205.4790  149.5190 C   0  0  0  0  0  2  0  0  0  0  0  0
  156.9210  212.0840  154.7250 F   0  0  0  0  0  0  0  0  0  0  0  0
  158.1960  212.3390  154.3360 C   0  0  0  0  0  0  0  0  0  0  0  0
  161.5740  204.6090  147.4860 C   0  0  0  0  0  1  0  0  0  0  0  0
  161.0030  213.2820  148.0490 C   0  0  0  0  0  2  0  0  0  0  0  0
  158.9990  208.9710  154.5580 C   0  0  1  0  0  3  0  0  0  0  0  0
  163.9300  212.5930  148.8330 C   0  0  0  0  0  1  0  0  0  0  0  0
  162.0360  208.6720  150.0660 C   0  0  2  0  0  3  0  0  0  0  0  0
  160.8330  212.9340  153.6450 C   0  0  0  0  0  3  0  0  0  0  0  0
  163.2480  205.6340  148.9780 C   0  0  0  0  0  2  0  0  0  0  0  0
  161.2670  210.6000  152.7730 C   0  0  1  0  0  3  0  0  0  0  0  0
  157.0970  209.8770  153.3740 O   0  0  0  0  0  1  0  0  0  0  0  0
  161.3290  207.1040  148.0780 C   0  0  1  0  0  3  0  0  0  0  0  0
  161.7670  205.6780  148.5700 C   0  0  2  0  0  0  0  0  0  0  0  0
  160.9830  210.9320  148.7290 O   0  0  0  0  0  0  0  0  0  0  0  0
  162.1350  208.3190  148.5570 C   0  0  2  0  0  3  0  0  0  0  0  0
  163.4400  210.2770  151.4810 C   0  0  0  0  0  2  0  0  0  0  0  0
  158.4410  209.2620  155.7890 F   0  0  0  0  0  0  0  0  0  0  0  0
  160.8280  208.0740  152.3010 C   0  0  2  0  0  3  0  0  0  0  0  0
  157.1150  212.2020  146.0790 N   0  0  0  0  0  0  0  0  0  0  0  0
  159.2560  211.6260  147.1390 C   0  0  1  0  0  3  0  0  0  0  0  0
  159.1390  211.8470  144.8770 N   0  0  2  0  0  0  0  0  0  0  0  0
  158.2360  212.7090  146.8790 C   0  0  1  0  0  3  0  0  0  0  0  0
  158.2580  212.8620  145.4330 C   0  0  2  0  0  3  0  0  0  0  0  0
  156.0630  213.1930  146.1800 C   0  0  0  0  0  1  0  0  0  0  0  0
  160.0000  211.4360  145.9070 N   0  0  0  0  0  2  0  0  0  0  0  0
  161.6610  213.8560  142.5070 C   0  0  0  0  0  2  0  0  0  0  0  0
  159.8750  212.4620  143.7620 C   0  0  2  0  0  3  0  0  0  0  0  0
  159.9370  211.5240  142.6470 N   0  0  0  0  0  0  0  0  0  0  0  0
  161.5410  213.1320  144.1670 S   0  0  0  0  0  0  0  0  0  0  0  0
  161.5790  212.8070  141.4970 N   0  0  0  0  0  2  0  0  0  0  0  0
  160.6760  211.6940  141.5900 C   0  0  0  0  0  0  0  0  0  0  0  0
  161.6520  209.7540  140.3380 C   0  0  0  0  0  3  0  0  0  0  0  0
  160.6280  210.7010  140.4990 C   0  0  0  0  0  0  0  0  0  0  0  0
  159.4430  209.6960  138.6270 C   0  0  0  0  0  3  0  0  0  0  0  0
  159.5230  210.6580  139.6360 C   0  0  0  0  0  3  0  0  0  0  0  0
  161.5780  208.7940  139.3240 C   0  0  0  0  0  3  0  0  0  0  0  0
  160.4730  208.7650  138.4690 C   0  0  0  0  0  3  0  0  0  0  0  0
  3 11  1  0  0  0  0
  4 35  1  1  0  0  0
  4 16  1  0  0  0  0
  4 29  1  0  0  0  0
  5 30  1  6  0  0  0
  6 23  1  0  0  0  0
  6  8  1  0  0  0  0
  7 32  2  0  0  0  0
  7 16  1  0  0  0  0
  8 39  1  0  0  0  0
  9 34  1  0  0  0  0
 10  3  1  6  0  0  0
 10 42  1  0  0  0  0
 12 36  1  0  0  0  0
 14  2  2  0  0  0  0
 15 38  1  6  0  0  0
 15  5  1  0  0  0  0
 15 20  1  0  0  0  0
 16 26  2  0  0  0  0
 17  5  1  0  0  0  0
 19 13  1  6  0  0  0
 20 40  1  1  0  0  0
 21 19  1  0  0  0  0
 22 38  1  0  0  0  0
 23 33  1  0  0  0  0
 24 18  1  0  0  0  0
 24 11  1  0  0  0  0
 26  2  1  0  0  0  0
 26 25  1  0  0  0  0
 27 37  1  0  0  0  0
 28 22  1  0  0  0  0
 28 17  1  0  0  0  0
 29 19  1  0  0  0  0
 29 41  1  0  0  0  0
 31 20  1  0  0  0  0
 31 10  1  0  0  0  0
 32 14  1  0  0  0  0
 34 21  1  0  0  0  0
 34  7  1  0  0  0  0
 36 39  1  0  0  0  0
 36 37  1  0  0  0  0
 37 33  1  0  0  0  0
 37 18  1  0  0  0  0
 39 31  1  0  0  0  0
 40  9  1  0  0  0  0
 42  1  1  0  0  0  0
 42 21  1  0  0  0  0
 43 48  1  0  0  0  0
 43 46  1  0  0  0  0
 44 22  1  0  0  0  0
 45 47  1  0  0  0  0
 45 49  1  0  0  0  0
 46 44  1  0  0  0  0
 47 43  1  0  0  0  0
 47 46  1  0  0  0  0
 49 44  1  0  0  0  0
 50 53  1  0  0  0  0
 51 53  1  0  0  0  0
 51 45  1  0  0  0  0
 52 51  1  0  0  0  0
 54 55  1  0  0  0  0
 54 50  1  0  0  0  0
 55 52  2  0  0  0  0
 56 57  1  0  0  0  0
 57 55  1  0  0  0  0
 58 59  1  0  0  0  0
 59 57  2  0  0  0  0
 60 56  2  0  0  0  0
 61 58  2  0  0  0  0
 61 60  1  0  0  0  0
M  END
>  <MODEL>
2

>  <REMARK>
 VINA RESULT:      34.9      3.730      7.210
  Name = 
  3 active torsions:
  status: ('A' for Active; 'I' for Inactive)
    1  A    between atoms: C_19  and  C_27
    2  A    between atoms: N_20  and  C_21
    3  A    between atoms: C_51  and  C_52
                            x       y       z     vdW  Elec       q    Type
                         _______ _______ _______ _____ _____    ______ ____

>  <TORSDO>
F 3

$$$$
