=
 OpenBabel11072412563D

 70 80  0  0  1  0  0  0  0  0999 V2000
  162.7780  208.1270  152.6560 C   0  0  2  0  0  3  0  0  0  0  0  0
  161.7360  206.6070  149.4670 C   0  0  2  0  0  0  0  0  0  0  0  0
  161.9010  209.9400  150.2290 C   0  0  1  0  0  3  0  0  0  0  0  0
  161.2250  212.2470  154.2780 C   0  0  0  0  0  2  0  0  0  0  0  0
  163.3610  208.3330  151.4060 O   0  0  0  0  0  0  0  0  0  0  0  0
  160.4080  208.4030  153.6960 C   0  0  1  0  0  0  0  0  0  0  0  0
  161.5480  205.5150  150.4660 C   0  0  2  0  0  0  0  0  0  0  0  0
  162.6270  205.7210  151.5740 C   0  0  1  0  0  3  0  0  0  0  0  0
  159.3570  213.3920  150.8850 O   0  0  0  0  0  0  0  0  0  0  0  0
  161.7670  207.4370  147.1650 C   0  0  1  0  0  3  0  0  0  0  0  0
  160.0380  210.8150  152.5610 C   0  0  1  0  0  3  0  0  0  0  0  0
  158.6410  206.7170  156.3590 C   0  0  0  0  0  0  0  0  0  0  0  0
  163.0320  207.1540  149.3220 O   0  0  0  0  0  0  0  0  0  0  0  0
  161.6080  211.3260  155.4120 C   0  0  1  0  0  3  0  0  0  0  0  0
  159.4650  209.4950  153.1180 C   0  0  0  0  0  2  0  0  0  0  0  0
  161.1860  208.8960  149.3450 C   0  0  0  0  0  2  0  0  0  0  0  0
  159.2820  211.1120  151.3890 O   0  0  0  0  0  0  0  0  0  0  0  0
  162.3030  206.1690  154.0230 O   0  0  0  0  0  1  0  0  0  0  0  0
  161.4350  212.1030  150.4840 C   0  0  0  0  0  2  0  0  0  0  0  0
  160.6120  207.9080  157.2610 C   0  0  0  0  0  2  0  0  0  0  0  0
  161.5380  207.8610  156.0410 C   0  0  1  0  0  3  0  0  0  0  0  0
  162.1610  210.0550  154.8080 C   0  0  0  0  0  2  0  0  0  0  0  0
  163.2010  209.6700  151.0310 C   0  0  0  0  0  2  0  0  0  0  0  0
  159.8710  212.1150  150.5500 C   0  0  2  0  0  0  0  0  0  0  0  0
  159.8750  211.8740  153.6670 C   0  0  2  0  0  3  0  0  0  0  0  0
  161.1390  208.9260  154.9880 C   0  0  1  0  0  3  0  0  0  0  0  0
  159.6200  206.8230  157.2170 N   0  0  0  0  0  0  0  0  0  0  0  0
  160.5900  206.4330  147.0190 C   0  0  0  0  0  2  0  0  0  0  0  0
  162.2400  206.6930  152.7320 C   0  0  1  0  0  0  0  0  0  0  0  0
  161.9560  211.1680  149.5680 O   0  0  0  0  0  0  0  0  0  0  0  0
  161.9830  207.8010  148.6450 C   0  0  2  0  0  0  0  0  0  0  0  0
  159.4450  207.2680  154.0820 C   0  0  0  0  0  2  0  0  0  0  0  0
  163.1750  204.3820  152.0500 C   0  0  0  0  0  1  0  0  0  0  0  0
  161.2800  207.8750  152.5000 C   0  0  2  0  0  3  0  0  0  0  0  0
  159.1230  213.1470  153.2670 C   0  0  0  0  0  2  0  0  0  0  0  0
  158.4990  207.6720  155.2160 C   0  0  0  0  0  2  0  0  0  0  0  0
  160.7980  205.0900  147.7970 C   0  0  1  0  0  0  0  0  0  0  0  0
  159.8490  213.8420  152.1260 C   0  0  0  0  0  2  0  0  0  0  0  0
  161.8820  205.2070  148.9510 C   0  0  1  0  0  3  0  0  0  0  0  0
  159.5680  204.7380  148.3520 O   0  0  0  0  0  1  0  0  0  0  0  0
  162.8750  207.9790  156.4450 O   0  0  0  0  0  1  0  0  0  0  0  0
  159.3600  211.8620  149.1310 C   0  0  0  0  0  1  0  0  0  0  0  0
  160.1800  205.3900  150.8060 O   0  0  0  0  0  0  0  0  0  0  0  0
  159.6030  206.5460  150.5620 O   0  0  0  0  0  1  0  0  0  0  0  0
  157.0770  205.0410  155.4190 C   0  0  0  0  0  1  0  0  0  0  0  0
  157.7280  205.6690  156.5170 O   0  0  0  0  0  0  0  0  0  0  0  0
  162.6520  211.9730  156.2020 N   0  0  0  0  0  2  0  0  0  0  0  0
  164.0560  211.0650  154.4520 C   0  0  0  0  0  2  0  0  0  0  0  0
  165.3820  211.6240  154.0310 C   0  0  0  0  0  2  0  0  0  0  0  0
  164.9940  212.2600  156.2650 O   0  0  0  0  0  0  0  0  0  0  0  0
  166.0240  212.0410  155.3260 C   0  0  1  0  0  0  0  0  0  0  0  0
  163.9610  211.3680  155.9330 C   0  0  1  0  0  3  0  0  0  0  0  0
  166.9520  210.9160  155.8550 C   0  0  2  0  0  3  0  0  0  0  0  0
  167.2180  211.0860  157.2170 O   0  0  0  0  0  1  0  0  0  0  0  0
  168.1520  210.8210  155.1340 O   0  0  0  0  0  0  0  0  0  0  0  0
  169.1630  211.0490  156.0760 C   0  0  0  0  0  1  0  0  0  0  0  0
  166.7750  213.3570  155.1200 C   0  0  0  0  0  2  0  0  0  0  0  0
  166.7400  214.1670  156.2710 O   0  0  0  0  0  1  0  0  0  0  0  0
  161.0970  204.1110  146.8060 O   0  0  0  0  0  0  0  0  0  0  0  0
  161.2370  201.8300  146.5650 O   0  0  0  0  0  0  0  0  0  0  0  0
  161.6410  202.9360  147.3440 C   0  0  2  0  0  3  0  0  0  0  0  0
  160.5630  202.0360  147.7800 C   0  0  0  0  0  2  0  0  0  0  0  0
  162.9540  206.8410  146.6750 O   0  0  0  0  0  0  0  0  0  0  0  0
  163.6170  204.8890  145.6440 O   0  0  0  0  0  0  0  0  0  0  0  0
  162.9980  205.9830  145.5780 C   0  0  0  0  0  0  0  0  0  0  0  0
  162.3680  206.3610  144.3910 O   0  0  0  0  0  0  0  0  0  0  0  0
  161.6510  205.4350  143.5370 C   0  0  2  0  0  3  0  0  0  0  0  0
  161.6570  205.9500  142.0970 C   0  0  0  0  0  1  0  0  0  0  0  0
  160.2980  205.1790  143.9230 O   0  0  0  0  0  0  0  0  0  0  0  0
  160.1380  203.8290  144.3200 C   0  0  0  0  0  1  0  0  0  0  0  0
  1  5  1  6  0  0  0
  1 29  1  0  0  0  0
  2 13  1  1  0  0  0
  2  7  1  0  0  0  0
  3 16  1  6  0  0  0
  3 23  1  0  0  0  0
  4 14  1  0  0  0  0
  6 15  1  6  0  0  0
  6 32  1  0  0  0  0
  6 26  1  0  0  0  0
  7 43  1  1  0  0  0
  7  8  1  0  0  0  0
  8 33  1  1  0  0  0
  8 29  1  0  0  0  0
  9 38  1  0  0  0  0
 10 63  1  1  0  0  0
 10 31  1  0  0  0  0
 11 15  1  1  0  0  0
 11 25  1  0  0  0  0
 12 46  1  0  0  0  0
 12 27  2  0  0  0  0
 14 47  1  1  0  0  0
 17 11  1  0  0  0  0
 19 24  1  0  0  0  0
 21 41  1  1  0  0  0
 21 20  1  0  0  0  0
 22 14  1  0  0  0  0
 23  5  1  0  0  0  0
 24 42  1  6  0  0  0
 24  9  1  0  0  0  0
 24 17  1  0  0  0  0
 25 35  1  6  0  0  0
 25  4  1  0  0  0  0
 26 22  1  6  0  0  0
 26 21  1  0  0  0  0
 27 20  1  0  0  0  0
 28 10  1  0  0  0  0
 28 37  1  0  0  0  0
 29 18  1  1  0  0  0
 30  3  1  0  0  0  0
 30 19  1  0  0  0  0
 31 13  1  0  0  0  0
 31 16  1  1  0  0  0
 31  2  1  0  0  0  0
 32 36  1  0  0  0  0
 34  1  1  0  0  0  0
 34 29  1  0  0  0  0
 34  6  1  0  0  0  0
 36 12  1  0  0  0  0
 37 40  1  0  0  0  0
 37 39  1  0  0  0  0
 38 35  1  0  0  0  0
 39  2  1  0  0  0  0
 39  7  1  0  0  0  0
 44 43  1  0  0  0  0
 45 46  1  0  0  0  0
 48 52  1  0  0  0  0
 49 48  1  0  0  0  0
 49 51  1  0  0  0  0
 51 53  1  0  0  0  0
 51 50  1  0  0  0  0
 52 47  1  0  0  0  0
 52 50  1  0  0  0  0
 53 54  1  0  0  0  0
 55 53  1  0  0  0  0
 55 56  1  0  0  0  0
 57 51  1  0  0  0  0
 57 58  1  0  0  0  0
 59 61  1  0  0  0  0
 59 37  1  0  0  0  0
 60 61  1  0  0  0  0
 60 62  1  0  0  0  0
 61 62  1  0  0  0  0
 65 64  2  0  0  0  0
 65 63  1  0  0  0  0
 66 65  1  0  0  0  0
 67 69  1  0  0  0  0
 67 66  1  0  0  0  0
 68 67  1  0  0  0  0
 69 70  1  0  0  0  0
M  END
>  <MODEL>
1

>  <REMARK>
 VINA RESULT:      24.3      0.000      0.000
  Name = 
  14 active torsions:
  status: ('A' for Active; 'I' for Inactive)
    1  A    between atoms: O_2  and  C_16
    2  A    between atoms: C_3  and  C_40
    3  A    between atoms: C_3  and  O_51
    4  A    between atoms: N_8  and  C_27
    5  A    between atoms: N_8  and  C_41
    6  A    between atoms: O_13  and  C_50
    7  A    between atoms: O_13  and  C_65
    8  A    between atoms: O_14  and  C_15
    9  A    between atoms: C_16  and  O_22
   10  A    between atoms: C_20  and  O_22
   11  A    between atoms: C_20  and  O_28
   12  A    between atoms: C_23  and  O_28
   13  A    between atoms: C_25  and  O_49
   14  A    between atoms: C_33  and  C_40
                            x       y       z     vdW  Elec       q    Type
                         _______ _______ _______ _____ _____    ______ ____

>  <TORSDO>
F 14

$$$$
