=
 OpenBabel11072411123D

 30 32  0  0  1  0  0  0  0  0999 V2000
  161.3490  209.0030  151.7230 N   0  0  0  0  0  0  0  0  0  0  0  0
  161.5260  206.0060  149.5030 C   0  0  0  0  0  3  0  0  0  0  0  0
  161.9530  206.5740  148.2940 C   0  0  0  0  0  0  0  0  0  0  0  0
  160.8100  206.2100  151.9040 C   0  0  0  0  0  2  0  0  0  0  0  0
  160.9670  209.3380  154.0390 N   0  0  0  0  0  2  0  0  0  0  0  0
  161.2870  207.0020  153.1240 C   0  0  0  0  0  2  0  0  0  0  0  0
  162.1560  207.9630  148.2310 C   0  0  0  0  0  3  0  0  0  0  0  0
  161.3410  206.8010  150.6360 C   0  0  0  0  0  0  0  0  0  0  0  0
  161.5540  208.1870  150.5630 C   0  0  0  0  0  0  0  0  0  0  0  0
  161.9570  208.7660  149.3580 C   0  0  0  0  0  3  0  0  0  0  0  0
  161.1630  208.4890  152.9070 C   0  0  0  0  0  0  0  0  0  0  0  0
  159.3350  211.9930  155.7160 C   0  0  1  0  0  3  0  0  0  0  0  0
  161.0920  211.5330  155.5720 S   0  0  0  0  0  0  0  0  0  0  0  0
  158.5650  211.2490  154.6440 C   0  0  2  0  0  3  0  0  0  0  0  0
  160.8490  210.7860  153.9300 C   0  0  2  0  0  3  0  0  0  0  0  0
  159.4660  211.1580  153.4330 C   0  0  0  0  0  2  0  0  0  0  0  0
  157.2950  211.9600  154.3110 C   0  0  0  0  0  0  0  0  0  0  0  0
  156.0820  211.5210  154.8280 O   0  0  0  0  0  1  0  0  0  0  0  0
  157.3230  212.9500  153.5370 O   0  0  0  0  0  0  0  0  0  0  0  0
  158.8600  211.6350  156.9800 O   0  0  0  0  0  0  0  0  0  0  0  0
  159.4760  210.4140  157.2600 C   0  0  0  0  0  1  0  0  0  0  0  0
  162.1520  205.7500  147.0770 C   0  0  0  0  0  0  0  0  0  0  0  0
  163.2280  205.1000  146.9570 O   0  0  0  0  0  0  0  0  0  0  0  0
  159.9200  206.1800  146.1980 O   0  0  0  0  0  1  0  0  0  0  0  0
  161.1630  205.6670  146.0330 N   0  0  0  0  0  0  0  0  0  0  0  0
  161.4450  204.9160  144.8160 C   0  0  0  0  0  2  0  0  0  0  0  0
  160.3210  203.9320  144.5160 C   0  0  0  0  0  2  0  0  0  0  0  0
  159.8530  201.4630  144.7430 N   0  0  0  0  0  2  0  0  0  0  0  0
  161.2960  202.5550  146.2390 N   0  0  0  0  0  1  0  0  0  0  0  0
  160.5610  202.6170  145.1790 C   0  0  0  0  0  0  0  0  0  0  0  0
  1 11  2  0  0  0  0
  2  8  1  0  0  0  0
  3  2  2  0  0  0  0
  4  6  1  0  0  0  0
  7  3  1  0  0  0  0
  7 10  2  0  0  0  0
  8  4  1  0  0  0  0
  9  8  2  0  0  0  0
  9  1  1  0  0  0  0
 10  9  1  0  0  0  0
 11  6  1  0  0  0  0
 11  5  1  0  0  0  0
 12 20  1  1  0  0  0
 13 12  1  0  0  0  0
 14 17  1  6  0  0  0
 14 12  1  0  0  0  0
 15  5  1  1  0  0  0
 15 13  1  0  0  0  0
 16 15  1  0  0  0  0
 16 14  1  0  0  0  0
 17 18  1  0  0  0  0
 19 17  2  0  0  0  0
 20 21  1  0  0  0  0
 22  3  1  0  0  0  0
 23 22  2  0  0  0  0
 25 24  1  0  0  0  0
 25 22  1  0  0  0  0
 26 25  1  0  0  0  0
 27 26  1  0  0  0  0
 27 30  1  0  0  0  0
 28 30  2  0  0  0  0
 30 29  1  0  0  0  0
M  END
>  <MODEL>
1

>  <REMARK>
 VINA RESULT:      -7.3      0.000      0.000
  Name = 
  7 active torsions:
  status: ('A' for Active; 'I' for Inactive)
    1  A    between atoms: C_1  and  C_5
    2  A    between atoms: C_3  and  C_19
    3  A    between atoms: C_3  and  C_21
    4  A    between atoms: C_6  and  O_17
    5  A    between atoms: N_8  and  C_27
    6  A    between atoms: C_16  and  C_18
    7  A    between atoms: C_21  and  N_29
                            x       y       z     vdW  Elec       q    Type
                         _______ _______ _______ _____ _____    ______ ____

>  <TORSDO>
F 7

$$$$
=
 OpenBabel11072411123D

 30 32  0  0  1  0  0  0  0  0999 V2000
  161.0110  209.4270  154.1630 N   0  0  0  0  0  0  0  0  0  0  0  0
  160.9580  205.8580  153.0690 C   0  0  0  0  0  3  0  0  0  0  0  0
  161.3320  205.9690  151.7210 C   0  0  0  0  0  0  0  0  0  0  0  0
  160.3910  206.8840  155.2920 C   0  0  0  0  0  2  0  0  0  0  0  0
  160.7770  210.5320  156.2480 N   0  0  0  0  0  2  0  0  0  0  0  0
  160.9640  208.0120  156.1540 C   0  0  0  0  0  2  0  0  0  0  0  0
  161.5780  207.2460  151.1890 C   0  0  0  0  0  3  0  0  0  0  0  0
  160.8670  206.9930  153.8770 C   0  0  0  0  0  0  0  0  0  0  0  0
  161.1210  208.2630  153.3360 C   0  0  0  0  0  0  0  0  0  0  0  0
  161.4720  208.3870  151.9900 C   0  0  0  0  0  3  0  0  0  0  0  0
  160.8780  209.3460  155.4580 C   0  0  0  0  0  0  0  0  0  0  0  0
  158.4940  213.2320  156.1100 C   0  0  1  0  0  3  0  0  0  0  0  0
  160.1100  213.0370  156.9280 S   0  0  0  0  0  0  0  0  0  0  0  0
  158.3470  212.1250  155.0860 C   0  0  2  0  0  3  0  0  0  0  0  0
  160.7010  211.8650  155.6660 C   0  0  2  0  0  3  0  0  0  0  0  0
  159.7220  211.8720  154.5090 C   0  0  0  0  0  2  0  0  0  0  0  0
  157.3840  212.5140  154.0150 C   0  0  0  0  0  0  0  0  0  0  0  0
  157.8350  212.8380  152.7410 O   0  0  0  0  0  0  0  0  0  0  0  0
  156.1550  212.5710  154.2760 O   0  0  0  0  0  1  0  0  0  0  0  0
  157.4750  213.1390  157.0620 O   0  0  0  0  0  0  0  0  0  0  0  0
  157.0440  214.4530  157.2510 C   0  0  0  0  0  1  0  0  0  0  0  0
  161.4330  204.7790  150.8430 C   0  0  0  0  0  0  0  0  0  0  0  0
  161.8940  203.7080  151.3270 O   0  0  0  0  0  0  0  0  0  0  0  0
  160.3430  205.8580  148.9480 O   0  0  0  0  0  1  0  0  0  0  0  0
  161.0220  204.8040  149.4620 N   0  0  0  0  0  0  0  0  0  0  0  0
  161.2260  203.6340  148.6170 C   0  0  0  0  0  2  0  0  0  0  0  0
  161.8810  204.0270  147.2980 C   0  0  0  0  0  2  0  0  0  0  0  0
  160.8940  201.9330  146.2940 N   0  0  0  0  0  1  0  0  0  0  0  0
  161.2080  203.8590  144.9890 N   0  0  0  0  0  2  0  0  0  0  0  0
  161.2660  203.2990  146.1510 C   0  0  0  0  0  0  0  0  0  0  0  0
  1 11  2  0  0  0  0
  2  8  1  0  0  0  0
  3  2  2  0  0  0  0
  4  6  1  0  0  0  0
  7  3  1  0  0  0  0
  7 10  2  0  0  0  0
  8  4  1  0  0  0  0
  9  8  2  0  0  0  0
  9  1  1  0  0  0  0
 10  9  1  0  0  0  0
 11  6  1  0  0  0  0
 11  5  1  0  0  0  0
 12 13  1  0  0  0  0
 12 20  1  1  0  0  0
 14 17  1  6  0  0  0
 14 12  1  0  0  0  0
 15  5  1  1  0  0  0
 15 13  1  0  0  0  0
 16 14  1  0  0  0  0
 16 15  1  0  0  0  0
 17 19  1  0  0  0  0
 18 17  2  0  0  0  0
 20 21  1  0  0  0  0
 22 23  2  0  0  0  0
 22  3  1  0  0  0  0
 24 25  1  0  0  0  0
 25 22  1  0  0  0  0
 26 25  1  0  0  0  0
 27 26  1  0  0  0  0
 29 30  2  0  0  0  0
 30 28  1  0  0  0  0
 30 27  1  0  0  0  0
M  END
>  <MODEL>
2

>  <REMARK>
 VINA RESULT:      -7.1      2.034      2.886
  Name = 
  7 active torsions:
  status: ('A' for Active; 'I' for Inactive)
    1  A    between atoms: C_1  and  C_5
    2  A    between atoms: C_3  and  C_19
    3  A    between atoms: C_3  and  C_21
    4  A    between atoms: C_6  and  O_17
    5  A    between atoms: N_8  and  C_27
    6  A    between atoms: C_16  and  C_18
    7  A    between atoms: C_21  and  N_29
                            x       y       z     vdW  Elec       q    Type
                         _______ _______ _______ _____ _____    ______ ____

>  <TORSDO>
F 7

$$$$
=
 OpenBabel11072411123D

 30 32  0  0  1  0  0  0  0  0999 V2000
  161.3750  208.1970  151.5180 N   0  0  0  0  0  0  0  0  0  0  0  0
  161.2810  205.1050  149.4270 C   0  0  0  0  0  3  0  0  0  0  0  0
  161.6400  205.6050  148.1660 C   0  0  0  0  0  0  0  0  0  0  0  0
  160.7480  205.4370  151.8610 C   0  0  0  0  0  2  0  0  0  0  0  0
  161.1750  208.6420  153.8390 N   0  0  0  0  0  2  0  0  0  0  0  0
  161.3410  206.2600  153.0080 C   0  0  0  0  0  2  0  0  0  0  0  0
  161.8890  206.9810  148.0280 C   0  0  0  0  0  3  0  0  0  0  0  0
  161.2080  205.9540  150.5340 C   0  0  0  0  0  0  0  0  0  0  0  0
  161.4660  207.3250  150.3850 C   0  0  0  0  0  0  0  0  0  0  0  0
  161.8020  207.8380  149.1300 C   0  0  0  0  0  3  0  0  0  0  0  0
  161.2570  207.7400  152.7340 C   0  0  0  0  0  0  0  0  0  0  0  0
  160.0720  211.4620  155.6720 C   0  0  1  0  0  3  0  0  0  0  0  0
  161.7320  210.8950  155.1800 S   0  0  0  0  0  0  0  0  0  0  0  0
  159.0520  210.7150  154.8360 C   0  0  2  0  0  3  0  0  0  0  0  0
  161.1020  210.0880  153.6740 C   0  0  2  0  0  3  0  0  0  0  0  0
  159.6630  210.5160  153.4670 C   0  0  0  0  0  2  0  0  0  0  0  0
  157.7750  211.4810  154.7430 C   0  0  0  0  0  0  0  0  0  0  0  0
  157.7100  212.6620  154.0130 O   0  0  0  0  0  0  0  0  0  0  0  0
  156.7560  211.0650  155.3500 O   0  0  0  0  0  1  0  0  0  0  0  0
  159.8680  211.1910  157.0270 O   0  0  0  0  0  0  0  0  0  0  0  0
  160.5470  209.9940  157.2570 C   0  0  0  0  0  1  0  0  0  0  0  0
  161.7210  204.7240  146.9760 C   0  0  0  0  0  0  0  0  0  0  0  0
  162.1910  205.1980  145.9050 O   0  0  0  0  0  0  0  0  0  0  0  0
  160.9580  202.7390  148.1670 O   0  0  0  0  0  1  0  0  0  0  0  0
  161.2830  203.3520  147.0030 N   0  0  0  0  0  0  0  0  0  0  0  0
  161.3000  202.5550  145.7830 C   0  0  0  0  0  2  0  0  0  0  0  0
  160.3080  201.4010  145.8780 C   0  0  0  0  0  2  0  0  0  0  0  0
  161.6660  200.0440  147.5150 N   0  0  0  0  0  1  0  0  0  0  0  0
  161.0940  199.1690  145.4130 N   0  0  0  0  0  2  0  0  0  0  0  0
  160.9900  200.1330  146.2670 C   0  0  0  0  0  0  0  0  0  0  0  0
  1 11  2  0  0  0  0
  2  8  1  0  0  0  0
  3  2  2  0  0  0  0
  4  6  1  0  0  0  0
  7  3  1  0  0  0  0
  7 10  2  0  0  0  0
  8  4  1  0  0  0  0
  9  8  2  0  0  0  0
  9  1  1  0  0  0  0
 10  9  1  0  0  0  0
 11  6  1  0  0  0  0
 11  5  1  0  0  0  0
 12 20  1  1  0  0  0
 13 12  1  0  0  0  0
 14 17  1  6  0  0  0
 14 12  1  0  0  0  0
 15  5  1  1  0  0  0
 15 13  1  0  0  0  0
 16 15  1  0  0  0  0
 16 14  1  0  0  0  0
 17 19  1  0  0  0  0
 18 17  2  0  0  0  0
 20 21  1  0  0  0  0
 22 25  1  0  0  0  0
 22  3  1  0  0  0  0
 23 22  2  0  0  0  0
 25 24  1  0  0  0  0
 26 27  1  0  0  0  0
 26 25  1  0  0  0  0
 27 30  1  0  0  0  0
 29 30  2  0  0  0  0
 30 28  1  0  0  0  0
M  END
>  <MODEL>
3

>  <REMARK>
 VINA RESULT:      -6.8      1.389      1.834
  Name = 
  7 active torsions:
  status: ('A' for Active; 'I' for Inactive)
    1  A    between atoms: C_1  and  C_5
    2  A    between atoms: C_3  and  C_19
    3  A    between atoms: C_3  and  C_21
    4  A    between atoms: C_6  and  O_17
    5  A    between atoms: N_8  and  C_27
    6  A    between atoms: C_16  and  C_18
    7  A    between atoms: C_21  and  N_29
                            x       y       z     vdW  Elec       q    Type
                         _______ _______ _______ _____ _____    ______ ____

>  <TORSDO>
F 7

$$$$
=
 OpenBabel11072411123D

 30 32  0  0  1  0  0  0  0  0999 V2000
  161.2550  208.0490  153.4990 N   0  0  0  0  0  0  0  0  0  0  0  0
  161.5900  205.7820  150.5510 C   0  0  0  0  0  3  0  0  0  0  0  0
  161.1040  204.5720  151.0680 C   0  0  0  0  0  0  0  0  0  0  0  0
  162.2180  208.2010  150.8200 C   0  0  0  0  0  2  0  0  0  0  0  0
  161.5340  210.3780  153.8470 N   0  0  0  0  0  2  0  0  0  0  0  0
  161.5990  209.4220  151.5070 C   0  0  0  0  0  2  0  0  0  0  0  0
  160.6880  204.5260  152.4090 C   0  0  0  0  0  3  0  0  0  0  0  0
  161.6260  206.9310  151.3450 C   0  0  0  0  0  0  0  0  0  0  0  0
  161.2020  206.8740  152.6820 C   0  0  0  0  0  0  0  0  0  0  0  0
  160.7370  205.6690  153.2130 C   0  0  0  0  0  3  0  0  0  0  0  0
  161.4940  209.2290  152.9990 C   0  0  0  0  0  0  0  0  0  0  0  0
  159.1210  210.9890  156.3620 C   0  0  1  0  0  3  0  0  0  0  0  0
  159.8730  209.4530  155.7360 S   0  0  0  0  0  0  0  0  0  0  0  0
  159.9690  212.1540  155.8940 C   0  0  2  0  0  3  0  0  0  0  0  0
  161.4270  210.2930  155.2970 C   0  0  2  0  0  3  0  0  0  0  0  0
  161.4070  211.6840  155.9000 C   0  0  0  0  0  2  0  0  0  0  0  0
  159.7920  213.3350  156.7890 C   0  0  0  0  0  0  0  0  0  0  0  0
  158.5210  213.8130  157.0860 O   0  0  0  0  0  0  0  0  0  0  0  0
  160.8030  213.9160  157.2580 O   0  0  0  0  0  1  0  0  0  0  0  0
  157.8230  211.1120  155.8610 O   0  0  0  0  0  0  0  0  0  0  0  0
  157.9880  211.3180  154.4910 C   0  0  0  0  0  1  0  0  0  0  0  0
  161.0590  203.3390  150.2450 C   0  0  0  0  0  0  0  0  0  0  0  0
  160.9010  202.2300  150.8270 O   0  0  0  0  0  0  0  0  0  0  0  0
  161.1600  204.5330  148.1230 O   0  0  0  0  0  1  0  0  0  0  0  0
  161.1870  203.3660  148.8110 N   0  0  0  0  0  0  0  0  0  0  0  0
  161.2270  202.1190  148.0570 C   0  0  0  0  0  2  0  0  0  0  0  0
  161.1960  202.3930  146.5580 C   0  0  0  0  0  2  0  0  0  0  0  0
  161.1420  199.9350  145.9930 N   0  0  0  0  0  1  0  0  0  0  0  0
  159.7310  201.4530  144.8890 N   0  0  0  0  0  2  0  0  0  0  0  0
  160.6130  201.2430  145.8090 C   0  0  0  0  0  0  0  0  0  0  0  0
  2  3  2  0  0  0  0
  2  8  1  0  0  0  0
  3  7  1  0  0  0  0
  4  8  1  0  0  0  0
  4  6  1  0  0  0  0
  6 11  1  0  0  0  0
  7 10  2  0  0  0  0
  8  9  2  0  0  0  0
  9 10  1  0  0  0  0
  9  1  1  0  0  0  0
 11  1  2  0  0  0  0
 11  5  1  0  0  0  0
 12 20  1  6  0  0  0
 13 12  1  0  0  0  0
 14 16  1  0  0  0  0
 14 12  1  0  0  0  0
 14 17  1  1  0  0  0
 15  5  1  6  0  0  0
 15 13  1  0  0  0  0
 15 16  1  0  0  0  0
 17 18  2  0  0  0  0
 17 19  1  0  0  0  0
 21 20  1  0  0  0  0
 22 23  2  0  0  0  0
 22  3  1  0  0  0  0
 24 25  1  0  0  0  0
 25 22  1  0  0  0  0
 26 25  1  0  0  0  0
 27 26  1  0  0  0  0
 29 30  2  0  0  0  0
 30 28  1  0  0  0  0
 30 27  1  0  0  0  0
M  END
>  <MODEL>
4

>  <REMARK>
 VINA RESULT:      -6.4      2.008      3.164
  Name = 
  7 active torsions:
  status: ('A' for Active; 'I' for Inactive)
    1  A    between atoms: C_1  and  C_5
    2  A    between atoms: C_3  and  C_19
    3  A    between atoms: C_3  and  C_21
    4  A    between atoms: C_6  and  O_17
    5  A    between atoms: N_8  and  C_27
    6  A    between atoms: C_16  and  C_18
    7  A    between atoms: C_21  and  N_29
                            x       y       z     vdW  Elec       q    Type
                         _______ _______ _______ _____ _____    ______ ____

>  <TORSDO>
F 7

$$$$
=
 OpenBabel11072411123D

 30 32  0  0  1  0  0  0  0  0999 V2000
  161.4090  208.6970  153.4770 N   0  0  0  0  0  0  0  0  0  0  0  0
  161.6980  206.2120  150.7060 C   0  0  0  0  0  3  0  0  0  0  0  0
  161.2550  205.0370  151.3320 C   0  0  0  0  0  0  0  0  0  0  0  0
  162.2830  208.6550  150.7640 C   0  0  0  0  0  2  0  0  0  0  0  0
  161.6490  211.0510  153.6330 N   0  0  0  0  0  2  0  0  0  0  0  0
  161.6600  209.9150  151.3740 C   0  0  0  0  0  2  0  0  0  0  0  0
  160.8840  205.0890  152.6860 C   0  0  0  0  0  3  0  0  0  0  0  0
  161.7350  207.4190  151.4060 C   0  0  0  0  0  0  0  0  0  0  0  0
  161.3560  207.4600  152.7570 C   0  0  0  0  0  0  0  0  0  0  0  0
  160.9340  206.2920  153.3960 C   0  0  0  0  0  3  0  0  0  0  0  0
  161.6070  209.8380  152.8790 C   0  0  0  0  0  0  0  0  0  0  0  0
  159.7960  209.5290  156.2350 C   0  0  1  0  0  3  0  0  0  0  0  0
  161.5350  209.3710  155.7180 S   0  0  0  0  0  0  0  0  0  0  0  0
  159.2240  210.7760  155.5920 C   0  0  2  0  0  3  0  0  0  0  0  0
  161.5910  211.0780  155.0880 C   0  0  2  0  0  3  0  0  0  0  0  0
  160.3370  211.7990  155.5450 C   0  0  0  0  0  2  0  0  0  0  0  0
  158.0600  211.2910  156.3710 C   0  0  0  0  0  0  0  0  0  0  0  0
  156.7740  210.8380  156.1040 O   0  0  0  0  0  0  0  0  0  0  0  0
  158.2440  212.1600  157.2610 O   0  0  0  0  0  1  0  0  0  0  0  0
  159.0800  208.4050  155.8160 O   0  0  0  0  0  0  0  0  0  0  0  0
  159.7070  207.3280  156.4440 C   0  0  0  0  0  1  0  0  0  0  0  0
  161.2100  203.7420  150.6100 C   0  0  0  0  0  0  0  0  0  0  0  0
  161.3150  202.6750  151.2760 O   0  0  0  0  0  0  0  0  0  0  0  0
  160.7370  204.7570  148.4460 O   0  0  0  0  0  1  0  0  0  0  0  0
  161.0500  203.6630  149.1810 N   0  0  0  0  0  0  0  0  0  0  0  0
  161.1030  202.3710  148.5090 C   0  0  0  0  0  2  0  0  0  0  0  0
  161.2120  202.5500  146.9990 C   0  0  0  0  0  2  0  0  0  0  0  0
  160.0710  201.3200  145.1160 N   0  0  0  0  0  2  0  0  0  0  0  0
  161.2240  200.1480  146.7920 N   0  0  0  0  0  1  0  0  0  0  0  0
  160.8880  201.2850  146.2790 C   0  0  0  0  0  0  0  0  0  0  0  0
  2  3  2  0  0  0  0
  2  8  1  0  0  0  0
  3  7  1  0  0  0  0
  4  6  1  0  0  0  0
  4  8  1  0  0  0  0
  6 11  1  0  0  0  0
  7 10  2  0  0  0  0
  8  9  2  0  0  0  0
  9 10  1  0  0  0  0
  9  1  1  0  0  0  0
 11  1  2  0  0  0  0
 11  5  1  0  0  0  0
 12 20  1  6  0  0  0
 13 12  1  0  0  0  0
 14 12  1  0  0  0  0
 14 17  1  1  0  0  0
 15  5  1  6  0  0  0
 15 16  1  0  0  0  0
 15 13  1  0  0  0  0
 16 14  1  0  0  0  0
 17 19  1  0  0  0  0
 18 17  2  0  0  0  0
 20 21  1  0  0  0  0
 22 23  2  0  0  0  0
 22  3  1  0  0  0  0
 24 25  1  0  0  0  0
 25 22  1  0  0  0  0
 26 25  1  0  0  0  0
 27 26  1  0  0  0  0
 28 30  2  0  0  0  0
 30 29  1  0  0  0  0
 30 27  1  0  0  0  0
M  END
>  <MODEL>
5

>  <REMARK>
 VINA RESULT:      -6.0      2.110      3.027
  Name = 
  7 active torsions:
  status: ('A' for Active; 'I' for Inactive)
    1  A    between atoms: C_1  and  C_5
    2  A    between atoms: C_3  and  C_19
    3  A    between atoms: C_3  and  C_21
    4  A    between atoms: C_6  and  O_17
    5  A    between atoms: N_8  and  C_27
    6  A    between atoms: C_16  and  C_18
    7  A    between atoms: C_21  and  N_29
                            x       y       z     vdW  Elec       q    Type
                         _______ _______ _______ _____ _____    ______ ____

>  <TORSDO>
F 7

$$$$
=
 OpenBabel11072411123D

 30 32  0  0  1  0  0  0  0  0999 V2000
  160.6440  206.7800  152.0060 N   0  0  0  0  0  0  0  0  0  0  0  0
  161.2580  203.9640  149.6330 C   0  0  0  0  0  3  0  0  0  0  0  0
  161.2630  204.6300  148.3980 C   0  0  0  0  0  0  0  0  0  0  0  0
  160.9830  203.9530  152.1310 C   0  0  0  0  0  2  0  0  0  0  0  0
  160.6300  206.9930  154.3680 N   0  0  0  0  0  2  0  0  0  0  0  0
  161.4330  204.8540  153.2850 C   0  0  0  0  0  2  0  0  0  0  0  0
  161.0390  206.0170  148.3750 C   0  0  0  0  0  3  0  0  0  0  0  0
  161.0690  204.6730  150.8220 C   0  0  0  0  0  0  0  0  0  0  0  0
  160.8530  206.0590  150.7860 C   0  0  0  0  0  0  0  0  0  0  0  0
  160.8340  206.7280  149.5610 C   0  0  0  0  0  3  0  0  0  0  0  0
  160.8440  206.2370  153.1750 C   0  0  0  0  0  0  0  0  0  0  0  0
  161.7040  210.2860  153.6450 C   0  0  1  0  0  3  0  0  0  0  0  0
  160.5370  209.1680  152.8050 S   0  0  0  0  0  0  0  0  0  0  0  0
  161.9480  209.7500  155.0410 C   0  0  2  0  0  3  0  0  0  0  0  0
  160.0780  208.3410  154.3600 C   0  0  2  0  0  3  0  0  0  0  0  0
  160.6470  209.1420  155.5150 C   0  0  0  0  0  2  0  0  0  0  0  0
  162.3930  210.8380  155.9600 C   0  0  0  0  0  0  0  0  0  0  0  0
  163.7460  211.0750  156.1720 O   0  0  0  0  0  0  0  0  0  0  0  0
  161.5350  211.5310  156.5630 O   0  0  0  0  0  1  0  0  0  0  0  0
  162.9050  210.3290  152.9340 O   0  0  0  0  0  0  0  0  0  0  0  0
  162.5690  209.9220  151.6420 C   0  0  0  0  0  1  0  0  0  0  0  0
  161.4580  203.8990  147.1230 C   0  0  0  0  0  0  0  0  0  0  0  0
  162.2280  204.3950  146.2540 O   0  0  0  0  0  0  0  0  0  0  0  0
  160.1280  201.9760  147.8100 O   0  0  0  0  0  1  0  0  0  0  0  0
  160.8020  202.6470  146.8450 N   0  0  0  0  0  0  0  0  0  0  0  0
  160.9560  202.0140  145.5420 C   0  0  0  0  0  2  0  0  0  0  0  0
  160.2700  200.6530  145.5170 C   0  0  0  0  0  2  0  0  0  0  0  0
  161.2130  198.3250  145.2750 N   0  0  0  0  0  2  0  0  0  0  0  0
  161.8780  199.7120  147.0490 N   0  0  0  0  0  1  0  0  0  0  0  0
  161.1980  199.5720  145.9600 C   0  0  0  0  0  0  0  0  0  0  0  0
  1 11  2  0  0  0  0
  2  8  1  0  0  0  0
  3  2  2  0  0  0  0
  4  6  1  0  0  0  0
  7  3  1  0  0  0  0
  7 10  2  0  0  0  0
  8  4  1  0  0  0  0
  9  8  2  0  0  0  0
  9  1  1  0  0  0  0
 10  9  1  0  0  0  0
 11  6  1  0  0  0  0
 11  5  1  0  0  0  0
 12 20  1  6  0  0  0
 12 14  1  0  0  0  0
 13 12  1  0  0  0  0
 13 15  1  0  0  0  0
 14 16  1  0  0  0  0
 14 17  1  1  0  0  0
 15  5  1  6  0  0  0
 15 16  1  0  0  0  0
 17 18  2  0  0  0  0
 17 19  1  0  0  0  0
 21 20  1  0  0  0  0
 22  3  1  0  0  0  0
 23 22  2  0  0  0  0
 25 22  1  0  0  0  0
 25 24  1  0  0  0  0
 26 25  1  0  0  0  0
 27 26  1  0  0  0  0
 27 30  1  0  0  0  0
 28 30  2  0  0  0  0
 30 29  1  0  0  0  0
M  END
>  <MODEL>
6

>  <REMARK>
 VINA RESULT:      -5.4      2.659      3.632
  Name = 
  7 active torsions:
  status: ('A' for Active; 'I' for Inactive)
    1  A    between atoms: C_1  and  C_5
    2  A    between atoms: C_3  and  C_19
    3  A    between atoms: C_3  and  C_21
    4  A    between atoms: C_6  and  O_17
    5  A    between atoms: N_8  and  C_27
    6  A    between atoms: C_16  and  C_18
    7  A    between atoms: C_21  and  N_29
                            x       y       z     vdW  Elec       q    Type
                         _______ _______ _______ _____ _____    ______ ____

>  <TORSDO>
F 7

$$$$
=
 OpenBabel11072411123D

 30 32  0  0  1  0  0  0  0  0999 V2000
  161.7820  205.3190  150.0270 N   0  0  0  0  0  0  0  0  0  0  0  0
  160.8780  206.3080  153.5120 C   0  0  0  0  0  3  0  0  0  0  0  0
  161.2000  207.6740  153.5110 C   0  0  0  0  0  0  0  0  0  0  0  0
  160.7870  204.0640  152.3850 C   0  0  0  0  0  2  0  0  0  0  0  0
  161.5110  203.3500  148.7330 N   0  0  0  0  0  2  0  0  0  0  0  0
  160.3990  203.5520  150.9950 C   0  0  0  0  0  2  0  0  0  0  0  0
  161.7370  208.2430  152.3450 C   0  0  0  0  0  3  0  0  0  0  0  0
  161.0550  205.5360  152.3620 C   0  0  0  0  0  0  0  0  0  0  0  0
  161.5870  206.1170  151.2010 C   0  0  0  0  0  0  0  0  0  0  0  0
  161.9310  207.4700  151.1960 C   0  0  0  0  0  3  0  0  0  0  0  0
  161.2990  204.1120  149.9230 C   0  0  0  0  0  0  0  0  0  0  0  0
  161.4410  205.8270  146.2070 C   0  0  1  0  0  3  0  0  0  0  0  0
  162.4690  205.6290  147.6980 S   0  0  0  0  0  0  0  0  0  0  0  0
  160.7660  204.5010  145.9200 C   0  0  2  0  0  3  0  0  0  0  0  0
  162.3540  203.8130  147.6390 C   0  0  2  0  0  3  0  0  0  0  0  0
  161.7440  203.4150  146.3090 C   0  0  0  0  0  2  0  0  0  0  0  0
  160.3950  204.3930  144.4790 C   0  0  0  0  0  0  0  0  0  0  0  0
  159.3920  203.5220  144.0710 O   0  0  0  0  0  1  0  0  0  0  0  0
  161.0120  205.0790  143.6260 O   0  0  0  0  0  0  0  0  0  0  0  0
  160.4770  206.8140  146.4310 O   0  0  0  0  0  0  0  0  0  0  0  0
  160.8310  207.3860  147.6540 C   0  0  0  0  0  1  0  0  0  0  0  0
  161.0240  208.5130  154.7210 C   0  0  0  0  0  0  0  0  0  0  0  0
  161.5830  208.1510  155.7940 O   0  0  0  0  0  0  0  0  0  0  0  0
  159.7880  210.2590  153.5530 O   0  0  0  0  0  1  0  0  0  0  0  0
  160.2420  209.7230  154.7110 N   0  0  0  0  0  0  0  0  0  0  0  0
  160.0250  210.4640  155.9480 C   0  0  0  0  0  2  0  0  0  0  0  0
  160.7400  211.8090  155.9040 C   0  0  0  0  0  2  0  0  0  0  0  0
  158.6070  212.9870  155.2510 N   0  0  0  0  0  2  0  0  0  0  0  0
  160.0790  213.9440  156.8100 N   0  0  0  0  0  1  0  0  0  0  0  0
  159.7780  212.9380  156.0570 C   0  0  0  0  0  0  0  0  0  0  0  0
  1  9  1  0  0  0  0
  3  2  1  0  0  0  0
  3 22  1  0  0  0  0
  5 11  1  0  0  0  0
  6  4  1  0  0  0  0
  7  3  2  0  0  0  0
  8  4  1  0  0  0  0
  8  2  2  0  0  0  0
  9  8  1  0  0  0  0
 10  9  2  0  0  0  0
 10  7  1  0  0  0  0
 11  1  2  0  0  0  0
 11  6  1  0  0  0  0
 12 20  1  1  0  0  0
 12 13  1  0  0  0  0
 14 17  1  6  0  0  0
 14 12  1  0  0  0  0
 14 16  1  0  0  0  0
 15 13  1  0  0  0  0
 15  5  1  1  0  0  0
 16 15  1  0  0  0  0
 18 17  1  0  0  0  0
 19 17  2  0  0  0  0
 20 21  1  0  0  0  0
 22 23  2  0  0  0  0
 24 25  1  0  0  0  0
 25 22  1  0  0  0  0
 25 26  1  0  0  0  0
 27 26  1  0  0  0  0
 27 30  1  0  0  0  0
 28 30  2  0  0  0  0
 30 29  1  0  0  0  0
M  END
>  <MODEL>
7

>  <REMARK>
 VINA RESULT:      -5.1      3.013      9.872
  Name = 
  7 active torsions:
  status: ('A' for Active; 'I' for Inactive)
    1  A    between atoms: C_1  and  C_5
    2  A    between atoms: C_3  and  C_19
    3  A    between atoms: C_3  and  C_21
    4  A    between atoms: C_6  and  O_17
    5  A    between atoms: N_8  and  C_27
    6  A    between atoms: C_16  and  C_18
    7  A    between atoms: C_21  and  N_29
                            x       y       z     vdW  Elec       q    Type
                         _______ _______ _______ _____ _____    ______ ____

>  <TORSDO>
F 7

$$$$
=
 OpenBabel11072411123D

 30 32  0  0  1  0  0  0  0  0999 V2000
  160.0250  213.3600  146.4150 N   0  0  0  0  0  0  0  0  0  0  0  0
  160.0560  213.5010  150.1460 C   0  0  0  0  0  3  0  0  0  0  0  0
  158.6870  213.4360  150.4440 C   0  0  0  0  0  0  0  0  0  0  0  0
  161.9520  213.6120  148.5000 C   0  0  0  0  0  2  0  0  0  0  0  0
  161.6960  213.1780  144.7430 N   0  0  0  0  0  2  0  0  0  0  0  0
  162.3000  212.9110  147.1830 C   0  0  0  0  0  2  0  0  0  0  0  0
  157.7660  213.3660  149.3850 C   0  0  0  0  0  3  0  0  0  0  0  0
  160.4990  213.4610  148.8220 C   0  0  0  0  0  0  0  0  0  0  0  0
  159.5690  213.3850  147.7730 C   0  0  0  0  0  0  0  0  0  0  0  0
  158.2020  213.3410  148.0570 C   0  0  0  0  0  3  0  0  0  0  0  0
  161.2830  213.2030  146.1100 C   0  0  0  0  0  0  0  0  0  0  0  0
  161.2290  212.1220  141.3980 C   0  0  1  0  0  3  0  0  0  0  0  0
  160.2560  211.8500  142.9140 S   0  0  0  0  0  0  0  0  0  0  0  0
  162.1910  213.2640  141.6540 C   0  0  2  0  0  3  0  0  0  0  0  0
  160.7830  213.4350  143.6370 C   0  0  2  0  0  3  0  0  0  0  0  0
  161.4820  214.2440  142.5620 C   0  0  0  0  0  2  0  0  0  0  0  0
  162.5930  213.9180  140.3750 C   0  0  0  0  0  0  0  0  0  0  0  0
  161.6500  214.1850  139.3890 O   0  0  0  0  0  0  0  0  0  0  0  0
  163.8000  214.2110  140.1790 O   0  0  0  0  0  1  0  0  0  0  0  0
  161.9400  210.9610  141.0840 O   0  0  0  0  0  0  0  0  0  0  0  0
  161.3120  210.4560  139.9450 C   0  0  0  0  0  1  0  0  0  0  0  0
  158.1930  213.4800  151.8410 C   0  0  0  0  0  0  0  0  0  0  0  0
  157.4060  214.4090  152.1750 O   0  0  0  0  0  0  0  0  0  0  0  0
  159.2570  211.3810  152.4760 O   0  0  0  0  0  1  0  0  0  0  0  0
  158.5790  212.5010  152.8250 N   0  0  0  0  0  0  0  0  0  0  0  0
  158.1390  212.6400  154.2070 C   0  0  0  0  0  2  0  0  0  0  0  0
  157.4960  211.3500  154.7020 C   0  0  0  0  0  2  0  0  0  0  0  0
  155.2070  210.3290  154.9870 N   0  0  0  0  0  1  0  0  0  0  0  0
  155.4530  212.6200  154.5370 N   0  0  0  0  0  2  0  0  0  0  0  0
  156.0130  211.4840  154.7890 C   0  0  0  0  0  0  0  0  0  0  0  0
  1  9  1  0  0  0  0
  2  3  1  0  0  0  0
  3 22  1  0  0  0  0
  4  8  1  0  0  0  0
  5 11  1  0  0  0  0
  6  4  1  0  0  0  0
  7  3  2  0  0  0  0
  8  2  2  0  0  0  0
  9 10  2  0  0  0  0
  9  8  1  0  0  0  0
 10  7  1  0  0  0  0
 11  1  2  0  0  0  0
 11  6  1  0  0  0  0
 12 20  1  1  0  0  0
 12 14  1  0  0  0  0
 12 13  1  0  0  0  0
 13 15  1  0  0  0  0
 14 17  1  6  0  0  0
 14 16  1  0  0  0  0
 15  5  1  1  0  0  0
 16 15  1  0  0  0  0
 18 17  2  0  0  0  0
 19 17  1  0  0  0  0
 21 20  1  0  0  0  0
 22 23  2  0  0  0  0
 22 25  1  0  0  0  0
 24 25  1  0  0  0  0
 25 26  1  0  0  0  0
 26 27  1  0  0  0  0
 27 30  1  0  0  0  0
 29 30  2  0  0  0  0
 30 28  1  0  0  0  0
M  END
>  <MODEL>
8

>  <REMARK>
 VINA RESULT:      -4.9      6.588     11.665
  Name = 
  7 active torsions:
  status: ('A' for Active; 'I' for Inactive)
    1  A    between atoms: C_1  and  C_5
    2  A    between atoms: C_3  and  C_19
    3  A    between atoms: C_3  and  C_21
    4  A    between atoms: C_6  and  O_17
    5  A    between atoms: N_8  and  C_27
    6  A    between atoms: C_16  and  C_18
    7  A    between atoms: C_21  and  N_29
                            x       y       z     vdW  Elec       q    Type
                         _______ _______ _______ _____ _____    ______ ____

>  <TORSDO>
F 7

$$$$
=
 OpenBabel11072411123D

 30 32  0  0  1  0  0  0  0  0999 V2000
  161.9560  209.5850  148.5780 N   0  0  0  0  0  0  0  0  0  0  0  0
  161.4840  206.0310  149.6180 C   0  0  0  0  0  3  0  0  0  0  0  0
  161.7600  205.3470  148.4250 C   0  0  0  0  0  0  0  0  0  0  0  0
  161.1920  208.1580  150.9240 C   0  0  0  0  0  2  0  0  0  0  0  0
  161.9910  211.6630  149.7210 N   0  0  0  0  0  2  0  0  0  0  0  0
  161.9350  209.4940  151.0200 C   0  0  0  0  0  2  0  0  0  0  0  0
  162.0810  206.0910  147.2770 C   0  0  0  0  0  3  0  0  0  0  0  0
  161.5630  207.4240  149.6740 C   0  0  0  0  0  0  0  0  0  0  0  0
  161.8910  208.1550  148.5220 C   0  0  0  0  0  0  0  0  0  0  0  0
  162.1450  207.4870  147.3230 C   0  0  0  0  0  3  0  0  0  0  0  0
  161.9190  210.2360  149.7070 C   0  0  0  0  0  0  0  0  0  0  0  0
  159.8720  213.9610  148.0620 C   0  0  1  0  0  3  0  0  0  0  0  0
  161.4740  214.1630  148.9050 S   0  0  0  0  0  0  0  0  0  0  0  0
  159.6600  212.4840  147.8010 C   0  0  2  0  0  3  0  0  0  0  0  0
  161.9950  212.4650  148.5050 C   0  0  2  0  0  3  0  0  0  0  0  0
  161.0170  211.8890  147.4990 C   0  0  0  0  0  2  0  0  0  0  0  0
  158.7210  212.2730  146.6600 C   0  0  0  0  0  0  0  0  0  0  0  0
  159.1990  212.1850  145.3580 O   0  0  0  0  0  0  0  0  0  0  0  0
  157.4860  212.1980  146.8790 O   0  0  0  0  0  1  0  0  0  0  0  0
  158.8500  214.4530  148.8770 O   0  0  0  0  0  0  0  0  0  0  0  0
  159.2530  214.1480  150.1770 C   0  0  0  0  0  1  0  0  0  0  0  0
  161.6790  203.8690  148.3400 C   0  0  0  0  0  0  0  0  0  0  0  0
  162.2730  203.2850  147.3920 O   0  0  0  0  0  0  0  0  0  0  0  0
  160.4640  203.6330  150.4400 O   0  0  0  0  0  1  0  0  0  0  0  0
  160.9500  203.0820  149.3020 N   0  0  0  0  0  0  0  0  0  0  0  0
  160.8260  201.6410  149.1230 C   0  0  0  0  0  2  0  0  0  0  0  0
  159.9130  201.3180  147.9460 C   0  0  0  0  0  2  0  0  0  0  0  0
  160.4400  201.3880  145.4800 N   0  0  0  0  0  2  0  0  0  0  0  0
  161.4960  199.8370  146.8920 N   0  0  0  0  0  1  0  0  0  0  0  0
  160.6950  200.8430  146.7690 C   0  0  0  0  0  0  0  0  0  0  0  0
  1 11  2  0  0  0  0
  2  8  1  0  0  0  0
  3  2  2  0  0  0  0
  4  6  1  0  0  0  0
  7 10  2  0  0  0  0
  7  3  1  0  0  0  0
  8  4  1  0  0  0  0
  9  1  1  0  0  0  0
  9  8  2  0  0  0  0
 10  9  1  0  0  0  0
 11  5  1  0  0  0  0
 11  6  1  0  0  0  0
 12 20  1  1  0  0  0
 12 13  1  0  0  0  0
 14 17  1  6  0  0  0
 14 12  1  0  0  0  0
 15 13  1  0  0  0  0
 15  5  1  1  0  0  0
 16 14  1  0  0  0  0
 16 15  1  0  0  0  0
 17 19  1  0  0  0  0
 18 17  2  0  0  0  0
 20 21  1  0  0  0  0
 22  3  1  0  0  0  0
 22 25  1  0  0  0  0
 23 22  2  0  0  0  0
 25 24  1  0  0  0  0
 26 25  1  0  0  0  0
 27 26  1  0  0  0  0
 28 30  2  0  0  0  0
 30 29  1  0  0  0  0
 30 27  1  0  0  0  0
M  END
>  <MODEL>
9

>  <REMARK>
 VINA RESULT:      -4.9      4.031      5.088
  Name = 
  7 active torsions:
  status: ('A' for Active; 'I' for Inactive)
    1  A    between atoms: C_1  and  C_5
    2  A    between atoms: C_3  and  C_19
    3  A    between atoms: C_3  and  C_21
    4  A    between atoms: C_6  and  O_17
    5  A    between atoms: N_8  and  C_27
    6  A    between atoms: C_16  and  C_18
    7  A    between atoms: C_21  and  N_29
                            x       y       z     vdW  Elec       q    Type
                         _______ _______ _______ _____ _____    ______ ____

>  <TORSDO>
F 7

$$$$
