=
 OpenBabel11072413173D

 27 32  0  0  1  0  0  0  0  0999 V2000
  159.9810  209.2010  155.1740 C   0  0  1  0  0  3  0  0  0  0  0  0
  160.2200  211.5610  156.1500 C   0  0  1  0  0  3  0  0  0  0  0  0
  162.9590  211.0630  156.5400 C   0  0  0  0  0  0  0  0  0  0  0  0
  157.3990  213.0960  154.9700 C   0  0  1  0  0  0  0  0  0  0  0  0
  161.3530  206.3760  153.4170 C   0  0  0  0  0  0  0  0  0  0  0  0
  160.6360  208.6160  153.0100 N   0  0  0  0  0  0  0  0  0  0  0  0
  158.8760  211.7500  153.2360 C   0  0  0  0  0  0  0  0  0  0  0  0
  158.0410  210.9010  155.3710 O   0  0  0  0  0  0  0  0  0  0  0  0
  158.7610  213.4340  151.3300 O   0  0  0  0  0  0  0  0  0  0  0  0
  162.1440  210.0990  155.9270 O   0  0  0  0  0  0  0  0  0  0  0  0
  156.4800  211.2240  153.6330 C   0  0  0  0  0  1  0  0  0  0  0  0
  158.6300  214.0100  155.0520 C   0  0  1  0  0  3  0  0  0  0  0  0
  158.8180  212.6180  152.2590 C   0  0  0  0  0  0  0  0  0  0  0  0
  158.7000  211.6820  156.3510 C   0  0  2  0  0  3  0  0  0  0  0  0
  161.8700  205.3270  153.0110 O   0  0  0  0  0  0  0  0  0  0  0  0
  160.8090  207.4830  153.8390 C   0  0  0  0  0  0  0  0  0  0  0  0
  161.0210  212.3970  157.1160 C   0  0  0  0  0  3  0  0  0  0  0  0
  157.4510  214.3830  154.1750 C   0  0  0  0  0  2  0  0  0  0  0  0
  157.5040  213.6970  157.2610 O   0  0  0  0  0  1  0  0  0  0  0  0
  159.9520  210.8390  153.1450 O   0  0  0  0  0  0  0  0  0  0  0  0
  157.7440  211.7480  154.2940 C   0  0  1  0  0  0  0  0  0  0  0  0
  160.4740  207.7550  155.2550 C   0  0  0  0  0  2  0  0  0  0  0  0
  160.7320  210.1090  156.1590 C   0  0  2  0  0  3  0  0  0  0  0  0
  162.3320  212.1840  157.2610 C   0  0  0  0  0  3  0  0  0  0  0  0
  164.2140  210.9810  156.4600 O   0  0  0  0  0  0  0  0  0  0  0  0
  158.2250  213.1240  156.2110 C   0  0  2  0  0  0  0  0  0  0  0  0
  160.1630  209.5780  153.7270 C   0  0  0  0  0  0  0  0  0  0  0  0
  1 22  1  6  0  0  0
  1 23  1  0  0  0  0
  2 23  1  0  0  0  0
  2 14  1  0  0  0  0
  2 17  1  1  0  0  0
  3 24  1  0  0  0  0
  4 18  1  6  0  0  0
  4 12  1  0  0  0  0
  4 26  1  0  0  0  0
  5 16  2  0  0  0  0
  6 27  2  0  0  0  0
  6 16  1  0  0  0  0
  7 21  1  0  0  0  0
  9 13  2  0  0  0  0
 10  3  1  0  0  0  0
 12 18  1  1  0  0  0
 12 26  1  0  0  0  0
 13  7  2  0  0  0  0
 14  8  1  6  0  0  0
 15  5  2  0  0  0  0
 16 22  1  0  0  0  0
 17 24  2  0  0  0  0
 20  7  1  0  0  0  0
 20 27  1  0  0  0  0
 21 11  1  6  0  0  0
 21  4  1  0  0  0  0
 21  8  1  0  0  0  0
 23 10  1  6  0  0  0
 25  3  2  0  0  0  0
 26 14  1  0  0  0  0
 26 19  1  1  0  0  0
 27  1  1  0  0  0  0
M  END
>  <MODEL>
1

>  <REMARK>
 VINA RESULT:      -3.8      0.000      0.000
  Name = 
  0 active torsions:
  status: ('A' for Active; 'I' for Inactive)
                            x       y       z     vdW  Elec       q    Type
                         _______ _______ _______ _____ _____    ______ ____

>  <TORSDO>
F 0

$$$$
=
 OpenBabel11072413173D

 27 32  0  0  1  0  0  0  0  0999 V2000
  158.1270  210.1760  137.5870 C   0  0  1  0  0  3  0  0  0  0  0  0
  159.1190  212.5400  137.6030 C   0  0  1  0  0  3  0  0  0  0  0  0
  156.5210  213.5740  137.3110 C   0  0  0  0  0  0  0  0  0  0  0  0
  162.1920  212.0010  139.0070 C   0  0  1  0  0  0  0  0  0  0  0  0
  155.4200  207.9010  138.2640 C   0  0  0  0  0  0  0  0  0  0  0  0
  157.0540  209.2020  139.4190 N   0  0  0  0  0  0  0  0  0  0  0  0
  160.0870  210.9660  140.2320 C   0  0  0  0  0  0  0  0  0  0  0  0
  160.6450  210.6980  137.8670 O   0  0  0  0  0  0  0  0  0  0  0  0
  160.7790  211.5420  142.6150 O   0  0  0  0  0  0  0  0  0  0  0  0
  156.7230  212.1910  137.4350 O   0  0  0  0  0  0  0  0  0  0  0  0
  161.9870  209.5710  139.4450 C   0  0  0  0  0  1  0  0  0  0  0  0
  161.5460  213.3400  139.3920 C   0  0  1  0  0  3  0  0  0  0  0  0
  160.4440  211.2660  141.4550 C   0  0  0  0  0  0  0  0  0  0  0  0
  160.5310  212.0000  137.3220 C   0  0  2  0  0  3  0  0  0  0  0  0
  154.4350  207.1520  138.2890 O   0  0  0  0  0  0  0  0  0  0  0  0
  156.4590  208.6890  138.2440 C   0  0  0  0  0  0  0  0  0  0  0  0
  158.9050  213.9470  137.1040 C   0  0  0  0  0  3  0  0  0  0  0  0
  162.6650  212.7540  140.2310 C   0  0  0  0  0  2  0  0  0  0  0  0
  162.6160  213.3910  137.1340 O   0  0  0  0  0  1  0  0  0  0  0  0
  158.7080  210.7080  140.0720 O   0  0  0  0  0  0  0  0  0  0  0  0
  161.1900  210.8310  139.1520 C   0  0  1  0  0  0  0  0  0  0  0  0
  157.0260  209.2820  137.0110 C   0  0  0  0  0  2  0  0  0  0  0  0
  157.9920  211.6230  137.0930 C   0  0  2  0  0  3  0  0  0  0  0  0
  157.6700  214.4470  137.0120 C   0  0  0  0  0  3  0  0  0  0  0  0
  155.3730  214.0670  137.4700 O   0  0  0  0  0  0  0  0  0  0  0  0
  161.6080  212.8760  137.9510 C   0  0  2  0  0  0  0  0  0  0  0  0
  157.9930  210.0180  139.0790 C   0  0  0  0  0  0  0  0  0  0  0  0
  1 22  1  6  0  0  0
  1 27  1  0  0  0  0
  2 17  1  6  0  0  0
  3 10  1  0  0  0  0
  3 25  2  0  0  0  0
  4 21  1  0  0  0  0
  4 12  1  0  0  0  0
  4 18  1  1  0  0  0
  5 15  2  0  0  0  0
  7 13  2  0  0  0  0
  8 21  1  0  0  0  0
 12 18  1  6  0  0  0
 13  9  2  0  0  0  0
 14  2  1  0  0  0  0
 14  8  1  1  0  0  0
 14 26  1  0  0  0  0
 16  5  2  0  0  0  0
 16  6  1  0  0  0  0
 20  7  1  0  0  0  0
 21 11  1  1  0  0  0
 21  7  1  0  0  0  0
 22 16  1  0  0  0  0
 23 10  1  1  0  0  0
 23  1  1  0  0  0  0
 23  2  1  0  0  0  0
 24 17  2  0  0  0  0
 24  3  1  0  0  0  0
 26 19  1  6  0  0  0
 26  4  1  0  0  0  0
 26 12  1  0  0  0  0
 27  6  2  0  0  0  0
 27 20  1  0  0  0  0
M  END
>  <MODEL>
2

>  <REMARK>
 VINA RESULT:      -2.9     13.998     17.134
  Name = 
  0 active torsions:
  status: ('A' for Active; 'I' for Inactive)
                            x       y       z     vdW  Elec       q    Type
                         _______ _______ _______ _____ _____    ______ ____

>  <TORSDO>
F 0

$$$$
=
 OpenBabel11072413173D

 27 32  0  0  1  0  0  0  0  0999 V2000
  159.2750  213.8990  152.1470 C   0  0  1  0  0  3  0  0  0  0  0  0
  157.1960  213.8320  153.6460 C   0  0  1  0  0  3  0  0  0  0  0  0
  155.5950  213.9350  151.3370 C   0  0  0  0  0  0  0  0  0  0  0  0
  158.4830  212.6240  156.5760 C   0  0  1  0  0  0  0  0  0  0  0  0
  160.9250  213.1760  149.0300 C   0  0  0  0  0  0  0  0  0  0  0  0
  160.0870  212.0560  150.9630 N   0  0  0  0  0  0  0  0  0  0  0  0
  159.0900  211.3330  154.3480 C   0  0  0  0  0  0  0  0  0  0  0  0
  159.3430  213.7340  154.7270 O   0  0  0  0  0  0  0  0  0  0  0  0
  158.8160  208.9690  155.2550 O   0  0  0  0  0  0  0  0  0  0  0  0
  156.9930  213.8840  151.2280 O   0  0  0  0  0  0  0  0  0  0  0  0
  160.8270  212.2840  155.8490 C   0  0  0  0  0  1  0  0  0  0  0  0
  157.0580  212.1450  156.2660 C   0  0  1  0  0  3  0  0  0  0  0  0
  158.9460  210.1190  154.8150 C   0  0  0  0  0  0  0  0  0  0  0  0
  158.0200  214.2140  154.8860 C   0  0  2  0  0  3  0  0  0  0  0  0
  161.4350  213.1310  147.9040 O   0  0  0  0  0  0  0  0  0  0  0  0
  160.3880  213.2190  150.2180 C   0  0  0  0  0  0  0  0  0  0  0  0
  155.7510  214.2560  153.7330 C   0  0  0  0  0  3  0  0  0  0  0  0
  157.9230  211.3950  157.2600 C   0  0  0  0  0  2  0  0  0  0  0  0
  157.1200  214.4530  157.2200 O   0  0  0  0  0  1  0  0  0  0  0  0
  159.0250  211.4290  152.9410 O   0  0  0  0  0  0  0  0  0  0  0  0
  159.4070  212.4770  155.3440 C   0  0  1  0  0  0  0  0  0  0  0  0
  159.8680  214.4530  150.8490 C   0  0  0  0  0  2  0  0  0  0  0  0
  157.8090  214.3200  152.3200 C   0  0  2  0  0  3  0  0  0  0  0  0
  154.9850  214.2570  152.6390 C   0  0  0  0  0  3  0  0  0  0  0  0
  154.8680  213.6910  150.3370 O   0  0  0  0  0  0  0  0  0  0  0  0
  157.4420  213.6060  156.1590 C   0  0  2  0  0  0  0  0  0  0  0  0
  159.4830  212.4110  152.0460 C   0  0  0  0  0  0  0  0  0  0  0  0
  1 22  1  6  0  0  0
  1 23  1  0  0  0  0
  2 17  1  1  0  0  0
  2 14  1  0  0  0  0
  3 24  1  0  0  0  0
  4 18  1  1  0  0  0
  5 16  2  0  0  0  0
  6 27  2  0  0  0  0
  7 13  2  0  0  0  0
  7 21  1  0  0  0  0
  8 21  1  0  0  0  0
 10  3  1  0  0  0  0
 12  4  1  0  0  0  0
 12 18  1  1  0  0  0
 13  9  2  0  0  0  0
 14  8  1  6  0  0  0
 14 26  1  0  0  0  0
 15  5  2  0  0  0  0
 16 22  1  0  0  0  0
 16  6  1  0  0  0  0
 20  7  1  0  0  0  0
 21 11  1  1  0  0  0
 21  4  1  0  0  0  0
 23 10  1  6  0  0  0
 23  2  1  0  0  0  0
 24 17  2  0  0  0  0
 25  3  2  0  0  0  0
 26 12  1  0  0  0  0
 26  4  1  0  0  0  0
 26 19  1  1  0  0  0
 27  1  1  0  0  0  0
 27 20  1  0  0  0  0
M  END
>  <MODEL>
3

>  <REMARK>
 VINA RESULT:      -2.6      2.587      5.846
  Name = 
  0 active torsions:
  status: ('A' for Active; 'I' for Inactive)
                            x       y       z     vdW  Elec       q    Type
                         _______ _______ _______ _____ _____    ______ ____

>  <TORSDO>
F 0

$$$$
=
 OpenBabel11072413173D

 27 32  0  0  1  0  0  0  0  0999 V2000
  159.4690  209.7490  137.7280 C   0  0  1  0  0  3  0  0  0  0  0  0
  157.1980  210.8340  138.2200 C   0  0  1  0  0  3  0  0  0  0  0  0
  156.0410  208.2720  138.2460 C   0  0  0  0  0  0  0  0  0  0  0  0
  158.1290  213.9190  139.3700 C   0  0  1  0  0  0  0  0  0  0  0  0
  161.7470  206.9750  137.9910 C   0  0  0  0  0  0  0  0  0  0  0  0
  160.7810  208.6880  139.3430 N   0  0  0  0  0  0  0  0  0  0  0  0
  159.3350  211.8080  140.4130 C   0  0  0  0  0  0  0  0  0  0  0  0
  159.1020  212.2920  138.0290 O   0  0  0  0  0  0  0  0  0  0  0  0
  159.3120  212.5840  142.8390 O   0  0  0  0  0  0  0  0  0  0  0  0
  157.4240  208.4230  138.0620 O   0  0  0  0  0  0  0  0  0  0  0  0
  160.5880  213.6310  139.2800 C   0  0  0  0  0  1  0  0  0  0  0  0
  156.8850  213.3360  140.0560 C   0  0  1  0  0  3  0  0  0  0  0  0
  159.3190  212.2080  141.6600 C   0  0  0  0  0  0  0  0  0  0  0  0
  157.7100  212.2150  137.7810 C   0  0  2  0  0  3  0  0  0  0  0  0
  162.4510  205.9620  137.8880 O   0  0  0  0  0  0  0  0  0  0  0  0
  161.0080  208.0430  138.1060 C   0  0  0  0  0  0  0  0  0  0  0  0
  155.7100  210.6620  138.0440 C   0  0  0  0  0  3  0  0  0  0  0  0
  157.6740  214.4530  140.7100 C   0  0  0  0  0  2  0  0  0  0  0  0
  156.3800  214.3480  137.8270 O   0  0  0  0  0  1  0  0  0  0  0  0
  159.5070  210.4160  140.2490 O   0  0  0  0  0  0  0  0  0  0  0  0
  159.2690  212.8760  139.2930 C   0  0  1  0  0  0  0  0  0  0  0  0
  160.1800  208.6000  137.0110 C   0  0  0  0  0  2  0  0  0  0  0  0
  157.9450  209.6590  137.5630 C   0  0  2  0  0  3  0  0  0  0  0  0
  155.1630  209.4460  138.1040 C   0  0  0  0  0  3  0  0  0  0  0  0
  155.5570  207.1480  138.5480 O   0  0  0  0  0  0  0  0  0  0  0  0
  157.0260  213.3420  138.5480 C   0  0  2  0  0  0  0  0  0  0  0  0
  159.9420  209.6490  139.1550 C   0  0  0  0  0  0  0  0  0  0  0  0
  1 22  1  6  0  0  0
  1 27  1  0  0  0  0
  2 17  1  6  0  0  0
  3 25  2  0  0  0  0
  4 12  1  0  0  0  0
  4 18  1  1  0  0  0
  5 16  2  0  0  0  0
  7 13  2  0  0  0  0
  8 21  1  0  0  0  0
 10  3  1  0  0  0  0
 12 18  1  6  0  0  0
 13  9  2  0  0  0  0
 14  8  1  1  0  0  0
 14  2  1  0  0  0  0
 14 26  1  0  0  0  0
 15  5  2  0  0  0  0
 16  6  1  0  0  0  0
 17 24  2  0  0  0  0
 20  7  1  0  0  0  0
 21 11  1  6  0  0  0
 21  4  1  0  0  0  0
 21  7  1  0  0  0  0
 22 16  1  0  0  0  0
 23  1  1  0  0  0  0
 23 10  1  1  0  0  0
 23  2  1  0  0  0  0
 24  3  1  0  0  0  0
 26 19  1  6  0  0  0
 26  4  1  0  0  0  0
 26 12  1  0  0  0  0
 27  6  2  0  0  0  0
 27 20  1  0  0  0  0
M  END
>  <MODEL>
4

>  <REMARK>
 VINA RESULT:      -2.2     13.703     16.528
  Name = 
  0 active torsions:
  status: ('A' for Active; 'I' for Inactive)
                            x       y       z     vdW  Elec       q    Type
                         _______ _______ _______ _____ _____    ______ ____

>  <TORSDO>
F 0

$$$$
=
 OpenBabel11072413173D

 27 32  0  0  1  0  0  0  0  0999 V2000
  161.4170  209.1170  137.8700 C   0  0  1  0  0  3  0  0  0  0  0  0
  159.6170  210.9340  137.6810 C   0  0  1  0  0  3  0  0  0  0  0  0
  157.6810  208.9120  137.4200 C   0  0  0  0  0  0  0  0  0  0  0  0
  161.2240  213.6520  138.9970 C   0  0  1  0  0  0  0  0  0  0  0  0
  162.4420  205.7970  138.8120 C   0  0  0  0  0  0  0  0  0  0  0  0
  161.8120  207.8730  139.8070 N   0  0  0  0  0  0  0  0  0  0  0  0
  161.3100  211.3950  140.3730 C   0  0  0  0  0  0  0  0  0  0  0  0
  161.8880  211.6560  138.0130 O   0  0  0  0  0  0  0  0  0  0  0  0
  160.9260  212.4030  142.6800 O   0  0  0  0  0  0  0  0  0  0  0  0
  159.0280  208.5800  137.6330 O   0  0  0  0  0  0  0  0  0  0  0  0
  163.3650  212.5660  139.6110 C   0  0  0  0  0  1  0  0  0  0  0  0
  159.7230  213.5900  139.3120 C   0  0  1  0  0  3  0  0  0  0  0  0
  161.1100  211.9150  141.5580 C   0  0  0  0  0  0  0  0  0  0  0  0
  160.6710  212.0120  137.3830 C   0  0  2  0  0  3  0  0  0  0  0  0
  162.7530  204.6050  138.9290 O   0  0  0  0  0  0  0  0  0  0  0  0
  162.1160  207.0540  138.6950 C   0  0  0  0  0  0  0  0  0  0  0  0
  158.2620  211.2400  137.0930 C   0  0  0  0  0  3  0  0  0  0  0  0
  160.6500  214.4530  140.1450 C   0  0  0  0  0  2  0  0  0  0  0  0
  160.1980  214.4530  137.0160 O   0  0  0  0  0  1  0  0  0  0  0  0
  161.0260  210.0140  140.2870 O   0  0  0  0  0  0  0  0  0  0  0  0
  161.9110  212.2910  139.2630 C   0  0  1  0  0  0  0  0  0  0  0  0
  161.8470  207.7250  137.4030 C   0  0  0  0  0  2  0  0  0  0  0  0
  160.0550  209.5120  137.2820 C   0  0  2  0  0  3  0  0  0  0  0  0
  157.3320  210.2850  137.0160 C   0  0  0  0  0  3  0  0  0  0  0  0
  156.7780  208.0500  137.5910 O   0  0  0  0  0  0  0  0  0  0  0  0
  160.2450  213.3790  137.9060 C   0  0  2  0  0  0  0  0  0  0  0  0
  161.4380  209.0290  139.3740 C   0  0  0  0  0  0  0  0  0  0  0  0
  1 22  1  6  0  0  0
  1 27  1  0  0  0  0
  2 17  1  6  0  0  0
  3 25  2  0  0  0  0
  3 10  1  0  0  0  0
  4 21  1  0  0  0  0
  4 12  1  0  0  0  0
  4 18  1  1  0  0  0
  5 15  2  0  0  0  0
  7 13  2  0  0  0  0
  8 21  1  0  0  0  0
 12 18  1  6  0  0  0
 13  9  2  0  0  0  0
 14  2  1  0  0  0  0
 14 26  1  0  0  0  0
 14  8  1  1  0  0  0
 16  5  2  0  0  0  0
 16  6  1  0  0  0  0
 20  7  1  0  0  0  0
 21 11  1  1  0  0  0
 21  7  1  0  0  0  0
 22 16  1  0  0  0  0
 23 10  1  1  0  0  0
 23  2  1  0  0  0  0
 23  1  1  0  0  0  0
 24 17  2  0  0  0  0
 24  3  1  0  0  0  0
 26 19  1  6  0  0  0
 26  4  1  0  0  0  0
 26 12  1  0  0  0  0
 27  6  2  0  0  0  0
 27 20  1  0  0  0  0
M  END
>  <MODEL>
5

>  <REMARK>
 VINA RESULT:      -1.9     13.946     16.729
  Name = 
  0 active torsions:
  status: ('A' for Active; 'I' for Inactive)
                            x       y       z     vdW  Elec       q    Type
                         _______ _______ _______ _____ _____    ______ ____

>  <TORSDO>
F 0

$$$$
=
 OpenBabel11072413173D

 27 32  0  0  1  0  0  0  0  0999 V2000
  160.0180  213.4480  151.9810 C   0  0  1  0  0  3  0  0  0  0  0  0
  158.3200  212.7250  153.7620 C   0  0  1  0  0  3  0  0  0  0  0  0
  156.2500  213.4990  152.0230 C   0  0  0  0  0  0  0  0  0  0  0  0
  160.2130  210.6800  155.7460 C   0  0  1  0  0  0  0  0  0  0  0  0
  160.9340  213.9540  148.5370 C   0  0  0  0  0  0  0  0  0  0  0  0
  160.5350  212.1830  150.0860 N   0  0  0  0  0  0  0  0  0  0  0  0
  160.3050  210.2770  153.1330 C   0  0  0  0  0  0  0  0  0  0  0  0
  160.6520  212.4140  154.2660 O   0  0  0  0  0  0  0  0  0  0  0  0
  160.2210  207.7320  153.1920 O   0  0  0  0  0  0  0  0  0  0  0  0
  157.5890  213.5870  151.6140 O   0  0  0  0  0  0  0  0  0  0  0  0
  162.3360  210.7770  154.4740 C   0  0  0  0  0  1  0  0  0  0  0  0
  158.7510  210.2370  155.5930 C   0  0  1  0  0  3  0  0  0  0  0  0
  160.2580  208.9690  153.1660 C   0  0  0  0  0  0  0  0  0  0  0  0
  159.4000  212.7160  154.8550 C   0  0  2  0  0  3  0  0  0  0  0  0
  161.1840  214.3330  147.3860 O   0  0  0  0  0  0  0  0  0  0  0  0
  160.6730  213.5490  149.7490 C   0  0  0  0  0  0  0  0  0  0  0  0
  156.9320  212.9900  154.2910 C   0  0  0  0  0  3  0  0  0  0  0  0
  159.8090  209.2560  156.0580 C   0  0  0  0  0  2  0  0  0  0  0  0
  159.0380  212.0780  157.2590 O   0  0  0  0  0  1  0  0  0  0  0  0
  159.9310  210.8430  151.8950 O   0  0  0  0  0  0  0  0  0  0  0  0
  160.8410  211.0300  154.3760 C   0  0  1  0  0  0  0  0  0  0  0  0
  160.3140  214.4530  150.8650 C   0  0  0  0  0  2  0  0  0  0  0  0
  158.6290  213.6790  152.5930 C   0  0  2  0  0  3  0  0  0  0  0  0
  155.9440  213.3110  153.4520 C   0  0  0  0  0  3  0  0  0  0  0  0
  155.3190  213.5610  151.1770 O   0  0  0  0  0  0  0  0  0  0  0  0
  159.1120  211.6700  155.9260 C   0  0  2  0  0  0  0  0  0  0  0  0
  160.1870  212.1020  151.3260 C   0  0  0  0  0  0  0  0  0  0  0  0
  1 22  1  6  0  0  0
  1 23  1  0  0  0  0
  2 17  1  1  0  0  0
  2 14  1  0  0  0  0
  3 24  1  0  0  0  0
  4 26  1  0  0  0  0
  4 18  1  1  0  0  0
  5 16  2  0  0  0  0
  6 27  2  0  0  0  0
  7 13  2  0  0  0  0
  7 21  1  0  0  0  0
  8 21  1  0  0  0  0
 10  3  1  0  0  0  0
 12  4  1  0  0  0  0
 12 26  1  0  0  0  0
 12 18  1  1  0  0  0
 13  9  2  0  0  0  0
 14  8  1  6  0  0  0
 14 26  1  0  0  0  0
 15  5  2  0  0  0  0
 16  6  1  0  0  0  0
 16 22  1  0  0  0  0
 20  7  1  0  0  0  0
 21 11  1  1  0  0  0
 21  4  1  0  0  0  0
 23 10  1  6  0  0  0
 23  2  1  0  0  0  0
 24 17  2  0  0  0  0
 25  3  2  0  0  0  0
 26 19  1  1  0  0  0
 27 20  1  0  0  0  0
 27  1  1  0  0  0  0
M  END
>  <MODEL>
6

>  <REMARK>
 VINA RESULT:      -1.7      2.358      5.852
  Name = 
  0 active torsions:
  status: ('A' for Active; 'I' for Inactive)
                            x       y       z     vdW  Elec       q    Type
                         _______ _______ _______ _____ _____    ______ ____

>  <TORSDO>
F 0

$$$$
=
 OpenBabel11072413173D

 27 32  0  0  1  0  0  0  0  0999 V2000
  161.6480  210.5360  152.2170 C   0  0  1  0  0  3  0  0  0  0  0  0
  161.5610  210.1060  149.6900 C   0  0  1  0  0  3  0  0  0  0  0  0
  161.1720  207.3730  150.2250 C   0  0  0  0  0  0  0  0  0  0  0  0
  160.9120  213.2340  148.4680 C   0  0  1  0  0  0  0  0  0  0  0  0
  160.6880  209.6910  155.5820 C   0  0  0  0  0  0  0  0  0  0  0  0
  159.7590  210.6180  153.5890 N   0  0  0  0  0  0  0  0  0  0  0  0
  159.4020  212.3600  150.4570 C   0  0  0  0  0  0  0  0  0  0  0  0
  161.8450  212.3820  150.4160 O   0  0  0  0  0  0  0  0  0  0  0  0
  157.1680  213.1980  149.5640 O   0  0  0  0  0  0  0  0  0  0  0  0
  161.2580  208.2950  151.2780 O   0  0  0  0  0  0  0  0  0  0  0  0
  160.7330  214.4520  150.6190 C   0  0  0  0  0  1  0  0  0  0  0  0
  160.2430  212.0970  147.6830 C   0  0  1  0  0  3  0  0  0  0  0  0
  158.2550  212.7890  149.9950 C   0  0  0  0  0  0  0  0  0  0  0  0
  162.1960  211.4730  149.3880 C   0  0  2  0  0  3  0  0  0  0  0  0
  160.5450  209.2870  156.7430 O   0  0  0  0  0  0  0  0  0  0  0  0
  160.8340  210.1180  154.3590 C   0  0  0  0  0  0  0  0  0  0  0  0
  161.8320  209.0700  148.6280 C   0  0  0  0  0  3  0  0  0  0  0  0
  159.7350  213.5200  147.5610 C   0  0  0  0  0  2  0  0  0  0  0  0
  162.6530  212.3950  147.0960 O   0  0  0  0  0  1  0  0  0  0  0  0
  159.2960  211.3320  151.4190 O   0  0  0  0  0  0  0  0  0  0  0  0
  160.6990  213.0680  149.9920 C   0  0  1  0  0  0  0  0  0  0  0  0
  162.0790  209.9700  153.5710 C   0  0  0  0  0  2  0  0  0  0  0  0
  161.9260  209.5460  151.0780 C   0  0  2  0  0  3  0  0  0  0  0  0
  161.6000  207.7780  148.8750 C   0  0  0  0  0  3  0  0  0  0  0  0
  160.7150  206.2160  150.4260 O   0  0  0  0  0  0  0  0  0  0  0  0
  161.7090  212.0420  148.0610 C   0  0  2  0  0  0  0  0  0  0  0  0
  160.1900  210.8720  152.4000 C   0  0  0  0  0  0  0  0  0  0  0  0
  1 27  1  0  0  0  0
  1 22  1  1  0  0  0
  2 17  1  6  0  0  0
  2 23  1  0  0  0  0
  3 25  2  0  0  0  0
  3 10  1  0  0  0  0
  4 18  1  6  0  0  0
  4 21  1  0  0  0  0
  5 15  2  0  0  0  0
  6 16  1  0  0  0  0
  7 20  1  0  0  0  0
  9 13  2  0  0  0  0
 12 18  1  6  0  0  0
 12 26  1  0  0  0  0
 12  4  1  0  0  0  0
 13  7  2  0  0  0  0
 14  2  1  0  0  0  0
 14  8  1  1  0  0  0
 16  5  2  0  0  0  0
 17 24  2  0  0  0  0
 20 27  1  0  0  0  0
 21  8  1  0  0  0  0
 21  7  1  0  0  0  0
 21 11  1  1  0  0  0
 22 16  1  0  0  0  0
 23 10  1  1  0  0  0
 23  1  1  0  0  0  0
 24  3  1  0  0  0  0
 26 19  1  6  0  0  0
 26  4  1  0  0  0  0
 26 14  1  0  0  0  0
 27  6  2  0  0  0  0
M  END
>  <MODEL>
7

>  <REMARK>
 VINA RESULT:      -1.7      3.502      6.253
  Name = 
  0 active torsions:
  status: ('A' for Active; 'I' for Inactive)
                            x       y       z     vdW  Elec       q    Type
                         _______ _______ _______ _____ _____    ______ ____

>  <TORSDO>
F 0

$$$$
=
 OpenBabel11072413173D

 27 32  0  0  1  0  0  0  0  0999 V2000
  162.1790  210.3160  150.8790 C   0  0  1  0  0  3  0  0  0  0  0  0
  160.7470  209.4570  152.8250 C   0  0  1  0  0  3  0  0  0  0  0  0
  158.9560  211.5770  152.3720 C   0  0  0  0  0  0  0  0  0  0  0  0
  161.8510  206.2340  153.1380 C   0  0  1  0  0  0  0  0  0  0  0  0
  162.4930  212.0210  147.7250 C   0  0  0  0  0  0  0  0  0  0  0  0
  161.6530  209.9780  148.6280 N   0  0  0  0  0  0  0  0  0  0  0  0
  161.2060  207.0770  150.7150 C   0  0  0  0  0  0  0  0  0  0  0  0
  162.7220  208.2020  152.2670 O   0  0  0  0  0  0  0  0  0  0  0  0
  159.9760  204.9800  149.9560 O   0  0  0  0  0  0  0  0  0  0  0  0
  160.0690  211.3980  151.5360 O   0  0  0  0  0  0  0  0  0  0  0  0
  163.4670  206.2030  151.2610 C   0  0  0  0  0  1  0  0  0  0  0  0
  160.3530  206.4200  153.4180 C   0  0  1  0  0  3  0  0  0  0  0  0
  160.5710  205.9990  150.3280 C   0  0  0  0  0  0  0  0  0  0  0  0
  161.9010  208.5900  153.3530 C   0  0  2  0  0  3  0  0  0  0  0  0
  162.6450  212.7830  146.7610 O   0  0  0  0  0  0  0  0  0  0  0  0
  162.3310  211.2150  148.7360 C   0  0  0  0  0  0  0  0  0  0  0  0
  159.7790  209.8870  153.8990 C   0  0  0  0  0  3  0  0  0  0  0  0
  160.9110  205.0490  153.0910 C   0  0  0  0  0  2  0  0  0  0  0  0
  161.7910  207.0740  155.3550 O   0  0  0  0  0  1  0  0  0  0  0  0
  160.8890  208.2380  149.9760 O   0  0  0  0  0  0  0  0  0  0  0  0
  162.2720  206.9480  151.8310 C   0  0  1  0  0  0  0  0  0  0  0  0
  162.6660  211.5620  150.1360 C   0  0  0  0  0  2  0  0  0  0  0  0
  161.2110  210.6800  152.0140 C   0  0  2  0  0  3  0  0  0  0  0  0
  158.9000  210.8630  153.6600 C   0  0  0  0  0  3  0  0  0  0  0  0
  158.0060  212.3240  152.0170 O   0  0  0  0  0  0  0  0  0  0  0  0
  161.3930  207.3290  154.0410 C   0  0  2  0  0  0  0  0  0  0  0  0
  161.5710  209.4540  149.8040 C   0  0  0  0  0  0  0  0  0  0  0  0
  1 22  1  6  0  0  0
  1 23  1  0  0  0  0
  2 14  1  0  0  0  0
  2 17  1  1  0  0  0
  3 24  1  0  0  0  0
  4 18  1  1  0  0  0
  4 12  1  0  0  0  0
  4 26  1  0  0  0  0
  5 16  2  0  0  0  0
  6 16  1  0  0  0  0
  6 27  2  0  0  0  0
  7 21  1  0  0  0  0
  9 13  2  0  0  0  0
 10  3  1  0  0  0  0
 12 18  1  1  0  0  0
 12 26  1  0  0  0  0
 13  7  2  0  0  0  0
 14  8  1  6  0  0  0
 14 26  1  0  0  0  0
 15  5  2  0  0  0  0
 16 22  1  0  0  0  0
 20  7  1  0  0  0  0
 21 11  1  6  0  0  0
 21  8  1  0  0  0  0
 21  4  1  0  0  0  0
 23 10  1  6  0  0  0
 23  2  1  0  0  0  0
 24 17  2  0  0  0  0
 25  3  2  0  0  0  0
 26 19  1  1  0  0  0
 27 20  1  0  0  0  0
 27  1  1  0  0  0  0
M  END
>  <MODEL>
8

>  <REMARK>
 VINA RESULT:      -1.1      3.162      6.753
  Name = 
  0 active torsions:
  status: ('A' for Active; 'I' for Inactive)
                            x       y       z     vdW  Elec       q    Type
                         _______ _______ _______ _____ _____    ______ ____

>  <TORSDO>
F 0

$$$$
=
 OpenBabel11072413173D

 27 32  0  0  1  0  0  0  0  0999 V2000
  161.5280  210.6790  151.8400 C   0  0  1  0  0  3  0  0  0  0  0  0
  159.8490  212.0120  153.2470 C   0  0  1  0  0  3  0  0  0  0  0  0
  158.4130  212.5790  150.8970 C   0  0  0  0  0  0  0  0  0  0  0  0
  160.4620  210.8130  156.3920 C   0  0  1  0  0  0  0  0  0  0  0  0
  162.3130  208.6590  148.9660 C   0  0  0  0  0  0  0  0  0  0  0  0
  161.1290  208.5230  151.0340 N   0  0  0  0  0  0  0  0  0  0  0  0
  160.1240  209.0460  154.4530 C   0  0  0  0  0  0  0  0  0  0  0  0
  161.6640  210.9430  154.4100 O   0  0  0  0  0  0  0  0  0  0  0  0
  158.6700  207.4080  155.7530 O   0  0  0  0  0  0  0  0  0  0  0  0
  159.5490  211.7560  150.8520 O   0  0  0  0  0  0  0  0  0  0  0  0
  162.1930  209.1330  155.8260 C   0  0  0  0  0  1  0  0  0  0  0  0
  158.9880  211.1450  156.1170 C   0  0  1  0  0  3  0  0  0  0  0  0
  159.3740  208.2070  155.1220 C   0  0  0  0  0  0  0  0  0  0  0  0
  160.8270  212.0850  154.4300 C   0  0  2  0  0  3  0  0  0  0  0  0
  162.6420  208.1520  147.8860 O   0  0  0  0  0  0  0  0  0  0  0  0
  161.9640  209.1870  150.1060 C   0  0  0  0  0  0  0  0  0  0  0  0
  158.8740  213.1620  153.2020 C   0  0  0  0  0  3  0  0  0  0  0  0
  159.3710  210.2260  157.2610 C   0  0  0  0  0  2  0  0  0  0  0  0
  160.3560  213.1680  156.6490 O   0  0  0  0  0  1  0  0  0  0  0  0
  160.0290  208.9220  153.0490 O   0  0  0  0  0  0  0  0  0  0  0  0
  161.0750  209.9800  155.2410 C   0  0  1  0  0  0  0  0  0  0  0  0
  162.2400  210.5910  150.4880 C   0  0  0  0  0  2  0  0  0  0  0  0
  160.5400  211.8530  151.8800 C   0  0  2  0  0  3  0  0  0  0  0  0
  158.1620  213.3960  152.0970 C   0  0  0  0  0  3  0  0  0  0  0  0
  157.6070  212.6050  149.9290 O   0  0  0  0  0  0  0  0  0  0  0  0
  160.0960  212.1170  155.7680 C   0  0  2  0  0  0  0  0  0  0  0  0
  160.8870  209.3270  152.0130 C   0  0  0  0  0  0  0  0  0  0  0  0
  1 22  1  6  0  0  0
  1 23  1  0  0  0  0
  1 27  1  0  0  0  0
  2 17  1  6  0  0  0
  2 14  1  0  0  0  0
  3 24  1  0  0  0  0
  4 18  1  1  0  0  0
  5 16  2  0  0  0  0
  6 27  2  0  0  0  0
  7 13  2  0  0  0  0
  7 21  1  0  0  0  0
  8 21  1  0  0  0  0
 10  3  1  0  0  0  0
 12  4  1  0  0  0  0
 12 18  1  1  0  0  0
 13  9  2  0  0  0  0
 14  8  1  1  0  0  0
 14 26  1  0  0  0  0
 15  5  2  0  0  0  0
 16 22  1  0  0  0  0
 16  6  1  0  0  0  0
 20  7  1  0  0  0  0
 21 11  1  1  0  0  0
 21  4  1  0  0  0  0
 23 10  1  6  0  0  0
 23  2  1  0  0  0  0
 24 17  2  0  0  0  0
 25  3  2  0  0  0  0
 26 12  1  0  0  0  0
 26  4  1  0  0  0  0
 26 19  1  1  0  0  0
 27 20  1  0  0  0  0
M  END
>  <MODEL>
9

>  <REMARK>
 VINA RESULT:      -1.0      2.486      4.939
  Name = 
  0 active torsions:
  status: ('A' for Active; 'I' for Inactive)
                            x       y       z     vdW  Elec       q    Type
                         _______ _______ _______ _____ _____    ______ ____

>  <TORSDO>
F 0

$$$$
