=
 OpenBabel11072411183D

 28 29  0  0  1  0  0  0  0  0999 V2000
  161.3320  205.2560  151.1220 C   0  0  0  0  0  2  0  0  0  0  0  0
  161.0960  206.6260  153.4940 C   0  0  0  0  0  0  0  0  0  0  0  0
  160.9850  208.7050  154.0210 N   0  0  0  0  0  0  0  0  0  0  0  0
  161.0410  208.6560  152.6640 C   0  0  0  0  0  0  0  0  0  0  0  0
  161.0170  207.4740  154.5290 N   0  0  0  0  0  0  0  0  0  0  0  0
  161.1950  205.2770  153.5470 N   0  0  0  0  0  0  0  0  0  0  0  0
  161.3100  204.5870  152.3710 C   0  0  0  0  0  3  0  0  0  0  0  0
  161.2380  206.6620  151.0550 C   0  0  0  0  0  0  0  0  0  0  0  0
  161.1200  207.3400  152.2630 C   0  0  0  0  0  0  0  0  0  0  0  0
  161.2380  207.3720  149.7400 C   0  0  0  0  0  2  0  0  0  0  0  0
  162.3170  206.0550  147.8840 N   0  0  0  0  0  2  0  0  0  0  0  0
  162.4430  205.2450  146.7020 C   0  0  0  0  0  0  0  0  0  0  0  0
  161.1320  206.4020  148.6100 C   0  0  0  0  0  0  0  0  0  0  0  0
  163.5980  204.9670  146.2880 O   0  0  0  0  0  0  0  0  0  0  0  0
  160.0140  205.9010  148.3250 O   0  0  0  0  0  0  0  0  0  0  0  0
  161.2750  204.7200  145.9180 C   0  0  1  0  0  3  0  0  0  0  0  0
  161.3880  205.6580  143.7250 O   0  0  0  0  0  1  0  0  0  0  0  0
  160.7380  205.7660  144.9540 C   0  0  0  0  0  2  0  0  0  0  0  0
  161.6100  203.4850  145.2260 N   0  0  0  0  0  2  0  0  0  0  0  0
  160.6140  202.4950  145.6010 C   0  0  0  0  0  2  0  0  0  0  0  0
  160.8550  202.0570  146.9760 C   0  0  0  0  0  0  0  0  0  0  0  0
  161.0520  201.6940  148.1080 C   0  0  0  0  0  3  0  0  0  0  0  0
  161.1050  209.8650  151.7900 C   0  0  0  0  0  2  0  0  0  0  0  0
  160.6740  211.1060  152.5550 C   0  0  0  0  0  2  0  0  0  0  0  0
  159.1600  211.2460  152.5450 C   0  0  0  0  0  2  0  0  0  0  0  0
  159.4660  211.6720  154.8730 O   0  0  0  0  0  1  0  0  0  0  0  0
  157.3070  211.7960  154.1170 O   0  0  0  0  0  0  0  0  0  0  0  0
  158.6640  211.5950  153.9060 C   0  0  0  0  0  0  0  0  0  0  0  0
  1  7  1  0  0  0  0
  2  6  1  0  0  0  0
  2  5  2  0  0  0  0
  3  5  1  0  0  0  0
  4  3  2  0  0  0  0
  7  6  2  0  0  0  0
  8  1  1  0  0  0  0
  8  9  2  0  0  0  0
  9  4  1  0  0  0  0
  9  2  1  0  0  0  0
 10  8  1  0  0  0  0
 11 13  1  0  0  0  0
 12 11  1  0  0  0  0
 13 10  1  0  0  0  0
 14 12  2  0  0  0  0
 15 13  2  0  0  0  0
 16 18  1  6  0  0  0
 16 12  1  0  0  0  0
 17 18  1  0  0  0  0
 19 20  1  0  0  0  0
 19 16  1  0  0  0  0
 20 21  1  0  0  0  0
 21 22  3  0  0  0  0
 23 24  1  0  0  0  0
 23  4  1  0  0  0  0
 25 24  1  0  0  0  0
 25 28  1  0  0  0  0
 28 27  2  0  0  0  0
 28 26  1  0  0  0  0
M  END
>  <MODEL>
1

>  <REMARK>
 VINA RESULT:      -7.0      0.000      0.000
  Name = 
  11 active torsions:
  status: ('A' for Active; 'I' for Inactive)
    1  A    between atoms: C_1  and  C_23
    2  A    between atoms: C_1  and  C_28
    3  A    between atoms: N_2  and  C_3
    4  A    between atoms: N_2  and  CA_24
    5  A    between atoms: C_3  and  C_17
    6  A    between atoms: C_11  and  CA_24
    7  A    between atoms: C_12  and  C_26
    8  A    between atoms: C_16  and  C_22
    9  A    between atoms: C_18  and  CA_24
   10  A    between atoms: C_19  and  C_22
   11  A    between atoms: C_23  and  C_26
                            x       y       z     vdW  Elec       q    Type
                         _______ _______ _______ _____ _____    ______ ____

>  <TORSDO>
F 11

$$$$
=
 OpenBabel11072411183D

 28 29  0  0  1  0  0  0  0  0999 V2000
  161.4660  206.2690  152.9140 C   0  0  0  0  0  2  0  0  0  0  0  0
  160.9990  204.3750  150.9770 C   0  0  0  0  0  0  0  0  0  0  0  0
  160.9050  204.4140  148.8320 N   0  0  0  0  0  0  0  0  0  0  0  0
  161.2290  205.6740  149.2250 C   0  0  0  0  0  0  0  0  0  0  0  0
  160.7660  203.6210  149.8930 N   0  0  0  0  0  0  0  0  0  0  0  0
  160.9250  203.9900  152.2730 N   0  0  0  0  0  0  0  0  0  0  0  0
  161.1590  204.9250  153.2430 C   0  0  0  0  0  3  0  0  0  0  0  0
  161.5390  206.6840  151.5680 C   0  0  0  0  0  0  0  0  0  0  0  0
  161.3000  205.7140  150.6000 C   0  0  0  0  0  0  0  0  0  0  0  0
  161.8840  208.0930  151.2140 C   0  0  0  0  0  2  0  0  0  0  0  0
  162.1180  209.5490  153.2570 N   0  0  0  0  0  2  0  0  0  0  0  0
  161.7460  210.3760  154.3720 C   0  0  0  0  0  0  0  0  0  0  0  0
  161.2940  209.0500  152.1960 C   0  0  0  0  0  0  0  0  0  0  0  0
  162.6550  210.8000  155.1320 O   0  0  0  0  0  0  0  0  0  0  0  0
  160.0950  209.4090  152.0700 O   0  0  0  0  0  0  0  0  0  0  0  0
  160.3300  210.7550  154.6980 C   0  0  1  0  0  3  0  0  0  0  0  0
  160.0960  208.5790  155.6530 O   0  0  0  0  0  1  0  0  0  0  0  0
  159.7820  209.9240  155.8470 C   0  0  0  0  0  2  0  0  0  0  0  0
  160.2100  212.1790  154.9710 N   0  0  0  0  0  2  0  0  0  0  0  0
  159.0610  212.6670  154.2270 C   0  0  0  0  0  2  0  0  0  0  0  0
  159.4130  212.7990  152.8140 C   0  0  0  0  0  0  0  0  0  0  0  0
  159.7050  212.9090  151.6500 C   0  0  0  0  0  3  0  0  0  0  0  0
  161.3790  206.8260  148.2860 C   0  0  0  0  0  2  0  0  0  0  0  0
  160.9490  206.4340  146.8810 C   0  0  0  0  0  2  0  0  0  0  0  0
  162.1320  205.9070  146.0840 C   0  0  0  0  0  2  0  0  0  0  0  0
  161.4070  205.3130  143.8900 O   0  0  0  0  0  0  0  0  0  0  0  0
  161.4910  203.5970  145.4060 O   0  0  0  0  0  1  0  0  0  0  0  0
  161.6710  204.9290  145.0590 C   0  0  0  0  0  0  0  0  0  0  0  0
  1  7  1  0  0  0  0
  2  6  1  0  0  0  0
  3  4  2  0  0  0  0
  3  5  1  0  0  0  0
  4  9  1  0  0  0  0
  5  2  2  0  0  0  0
  6  7  2  0  0  0  0
  8  1  1  0  0  0  0
  9  2  1  0  0  0  0
  9  8  2  0  0  0  0
 10  8  1  0  0  0  0
 10 13  1  0  0  0  0
 11 12  1  0  0  0  0
 12 16  1  0  0  0  0
 12 14  2  0  0  0  0
 13 11  1  0  0  0  0
 15 13  2  0  0  0  0
 16 19  1  0  0  0  0
 16 18  1  1  0  0  0
 17 18  1  0  0  0  0
 20 19  1  0  0  0  0
 21 20  1  0  0  0  0
 22 21  3  0  0  0  0
 23  4  1  0  0  0  0
 24 23  1  0  0  0  0
 25 24  1  0  0  0  0
 26 28  2  0  0  0  0
 28 27  1  0  0  0  0
 28 25  1  0  0  0  0
M  END
>  <MODEL>
2

>  <REMARK>
 VINA RESULT:      -6.7      2.230      8.614
  Name = 
  11 active torsions:
  status: ('A' for Active; 'I' for Inactive)
    1  A    between atoms: C_1  and  C_23
    2  A    between atoms: C_1  and  C_28
    3  A    between atoms: N_2  and  C_3
    4  A    between atoms: N_2  and  CA_24
    5  A    between atoms: C_3  and  C_17
    6  A    between atoms: C_11  and  CA_24
    7  A    between atoms: C_12  and  C_26
    8  A    between atoms: C_16  and  C_22
    9  A    between atoms: C_18  and  CA_24
   10  A    between atoms: C_19  and  C_22
   11  A    between atoms: C_23  and  C_26
                            x       y       z     vdW  Elec       q    Type
                         _______ _______ _______ _____ _____    ______ ____

>  <TORSDO>
F 11

$$$$
=
 OpenBabel11072411183D

 28 29  0  0  1  0  0  0  0  0999 V2000
  161.8880  207.9350  148.8730 C   0  0  0  0  0  2  0  0  0  0  0  0
  161.7860  209.6630  151.0080 C   0  0  0  0  0  0  0  0  0  0  0  0
  161.3750  209.4350  153.1040 N   0  0  0  0  0  0  0  0  0  0  0  0
  161.3260  208.1880  152.5660 C   0  0  0  0  0  0  0  0  0  0  0  0
  161.6550  210.3330  152.1620 N   0  0  0  0  0  0  0  0  0  0  0  0
  162.0290  210.1830  149.7830 N   0  0  0  0  0  0  0  0  0  0  0  0
  162.0850  209.3300  148.7140 C   0  0  0  0  0  3  0  0  0  0  0  0
  161.6270  207.3830  150.1430 C   0  0  0  0  0  0  0  0  0  0  0  0
  161.5780  208.2700  151.2140 C   0  0  0  0  0  0  0  0  0  0  0  0
  161.4420  205.9110  150.3210 C   0  0  0  0  0  2  0  0  0  0  0  0
  162.3920  205.2890  148.0720 N   0  0  0  0  0  2  0  0  0  0  0  0
  162.4440  204.8150  146.7150 C   0  0  0  0  0  0  0  0  0  0  0  0
  161.3020  205.2280  149.0010 C   0  0  0  0  0  0  0  0  0  0  0  0
  163.5450  204.8630  146.1080 O   0  0  0  0  0  0  0  0  0  0  0  0
  160.2420  204.6060  148.7330 O   0  0  0  0  0  0  0  0  0  0  0  0
  161.2580  204.2760  145.9700 C   0  0  1  0  0  3  0  0  0  0  0  0
  160.0760  206.2700  145.3960 O   0  0  0  0  0  1  0  0  0  0  0  0
  160.8230  205.2210  144.8610 C   0  0  0  0  0  2  0  0  0  0  0  0
  161.5150  202.9390  145.4550 N   0  0  0  0  0  2  0  0  0  0  0  0
  160.4730  202.0690  145.9730 C   0  0  0  0  0  2  0  0  0  0  0  0
  160.8620  201.5740  147.2940 C   0  0  0  0  0  0  0  0  0  0  0  0
  161.1820  201.1690  148.3820 C   0  0  0  0  0  3  0  0  0  0  0  0
  160.9560  206.9630  153.3360 C   0  0  0  0  0  2  0  0  0  0  0  0
  161.3090  207.1250  154.8060 C   0  0  0  0  0  2  0  0  0  0  0  0
  160.0550  207.3190  155.6430 C   0  0  0  0  0  2  0  0  0  0  0  0
  159.1840  209.5280  155.8810 O   0  0  0  0  0  0  0  0  0  0  0  0
  161.0010  209.0320  157.1850 O   0  0  0  0  0  1  0  0  0  0  0  0
  160.0400  208.6810  156.2460 C   0  0  0  0  0  0  0  0  0  0  0  0
  1  8  1  0  0  0  0
  2  9  1  0  0  0  0
  2  5  2  0  0  0  0
  4  3  2  0  0  0  0
  4 23  1  0  0  0  0
  5  3  1  0  0  0  0
  6  2  1  0  0  0  0
  7  1  1  0  0  0  0
  7  6  2  0  0  0  0
  8 10  1  0  0  0  0
  8  9  2  0  0  0  0
  9  4  1  0  0  0  0
 11 13  1  0  0  0  0
 12 11  1  0  0  0  0
 13 10  1  0  0  0  0
 14 12  2  0  0  0  0
 15 13  2  0  0  0  0
 16 18  1  6  0  0  0
 16 12  1  0  0  0  0
 18 17  1  0  0  0  0
 19 16  1  0  0  0  0
 19 20  1  0  0  0  0
 20 21  1  0  0  0  0
 21 22  3  0  0  0  0
 23 24  1  0  0  0  0
 24 25  1  0  0  0  0
 25 28  1  0  0  0  0
 26 28  2  0  0  0  0
 28 27  1  0  0  0  0
M  END
>  <MODEL>
3

>  <REMARK>
 VINA RESULT:      -6.4      1.870      2.972
  Name = 
  11 active torsions:
  status: ('A' for Active; 'I' for Inactive)
    1  A    between atoms: C_1  and  C_23
    2  A    between atoms: C_1  and  C_28
    3  A    between atoms: N_2  and  C_3
    4  A    between atoms: N_2  and  CA_24
    5  A    between atoms: C_3  and  C_17
    6  A    between atoms: C_11  and  CA_24
    7  A    between atoms: C_12  and  C_26
    8  A    between atoms: C_16  and  C_22
    9  A    between atoms: C_18  and  CA_24
   10  A    between atoms: C_19  and  C_22
   11  A    between atoms: C_23  and  C_26
                            x       y       z     vdW  Elec       q    Type
                         _______ _______ _______ _____ _____    ______ ____

>  <TORSDO>
F 11

$$$$
=
 OpenBabel11072411183D

 28 29  0  0  1  0  0  0  0  0999 V2000
  160.7660  203.6780  150.4800 C   0  0  0  0  0  2  0  0  0  0  0  0
  161.1080  201.4090  148.9650 C   0  0  0  0  0  0  0  0  0  0  0  0
  161.2950  201.0250  146.8590 N   0  0  0  0  0  0  0  0  0  0  0  0
  161.2010  202.3740  146.9970 C   0  0  0  0  0  0  0  0  0  0  0  0
  161.2410  200.4360  148.0530 N   0  0  0  0  0  0  0  0  0  0  0  0
  160.9710  201.2640  150.3030 N   0  0  0  0  0  0  0  0  0  0  0  0
  160.8040  202.3880  151.0650 C   0  0  0  0  0  3  0  0  0  0  0  0
  160.9000  203.8410  149.0850 C   0  0  0  0  0  0  0  0  0  0  0  0
  161.0720  202.6850  148.3330 C   0  0  0  0  0  0  0  0  0  0  0  0
  160.8840  205.2000  148.4640 C   0  0  0  0  0  2  0  0  0  0  0  0
  161.7490  205.8850  150.7280 N   0  0  0  0  0  2  0  0  0  0  0  0
  161.9830  206.6950  151.8940 C   0  0  0  0  0  0  0  0  0  0  0  0
  161.1390  206.2570  149.4870 C   0  0  0  0  0  0  0  0  0  0  0  0
  162.6430  206.2000  152.8430 O   0  0  0  0  0  0  0  0  0  0  0  0
  160.8270  207.4500  149.2370 O   0  0  0  0  0  0  0  0  0  0  0  0
  161.4740  208.0980  152.0540 C   0  0  1  0  0  3  0  0  0  0  0  0
  160.4500  207.3900  154.0920 O   0  0  0  0  0  1  0  0  0  0  0  0
  161.1870  208.4220  153.5120 C   0  0  0  0  0  2  0  0  0  0  0  0
  162.3880  209.0670  151.4670 N   0  0  0  0  0  2  0  0  0  0  0  0
  161.6280  210.2790  151.2120 C   0  0  0  0  0  2  0  0  0  0  0  0
  161.9570  210.7920  149.8820 C   0  0  0  0  0  0  0  0  0  0  0  0
  162.2300  211.2150  148.7870 C   0  0  0  0  0  3  0  0  0  0  0  0
  161.1480  203.3260  145.8460 C   0  0  0  0  0  2  0  0  0  0  0  0
  162.5140  203.9450  145.5980 C   0  0  0  0  0  2  0  0  0  0  0  0
  162.4040  205.4550  145.4600 C   0  0  0  0  0  2  0  0  0  0  0  0
  161.2370  205.6850  143.3910 O   0  0  0  0  0  0  0  0  0  0  0  0
  160.0810  206.3330  145.2610 O   0  0  0  0  0  1  0  0  0  0  0  0
  161.2110  205.8140  144.6430 C   0  0  0  0  0  0  0  0  0  0  0  0
  1  7  1  0  0  0  0
  2  6  1  0  0  0  0
  3  4  2  0  0  0  0
  3  5  1  0  0  0  0
  4  9  1  0  0  0  0
  5  2  2  0  0  0  0
  6  7  2  0  0  0  0
  8  1  1  0  0  0  0
  9  2  1  0  0  0  0
  9  8  2  0  0  0  0
 10  8  1  0  0  0  0
 10 13  1  0  0  0  0
 11 12  1  0  0  0  0
 12 16  1  0  0  0  0
 12 14  2  0  0  0  0
 13 11  1  0  0  0  0
 15 13  2  0  0  0  0
 16 18  1  1  0  0  0
 18 17  1  0  0  0  0
 19 16  1  0  0  0  0
 20 19  1  0  0  0  0
 21 20  1  0  0  0  0
 22 21  3  0  0  0  0
 23  4  1  0  0  0  0
 24 23  1  0  0  0  0
 25 24  1  0  0  0  0
 26 28  2  0  0  0  0
 28 27  1  0  0  0  0
 28 25  1  0  0  0  0
M  END
>  <MODEL>
4

>  <REMARK>
 VINA RESULT:      -6.4      2.478      7.956
  Name = 
  11 active torsions:
  status: ('A' for Active; 'I' for Inactive)
    1  A    between atoms: C_1  and  C_23
    2  A    between atoms: C_1  and  C_28
    3  A    between atoms: N_2  and  C_3
    4  A    between atoms: N_2  and  CA_24
    5  A    between atoms: C_3  and  C_17
    6  A    between atoms: C_11  and  CA_24
    7  A    between atoms: C_12  and  C_26
    8  A    between atoms: C_16  and  C_22
    9  A    between atoms: C_18  and  CA_24
   10  A    between atoms: C_19  and  C_22
   11  A    between atoms: C_23  and  C_26
                            x       y       z     vdW  Elec       q    Type
                         _______ _______ _______ _____ _____    ______ ____

>  <TORSDO>
F 11

$$$$
=
 OpenBabel11072411183D

 28 29  0  0  1  0  0  0  0  0999 V2000
  161.3900  206.0840  152.2520 C   0  0  0  0  0  2  0  0  0  0  0  0
  161.0260  203.8130  150.7470 C   0  0  0  0  0  0  0  0  0  0  0  0
  160.8060  203.4250  148.6450 N   0  0  0  0  0  0  0  0  0  0  0  0
  161.0110  204.7620  148.7690 C   0  0  0  0  0  0  0  0  0  0  0  0
  160.8160  202.8440  149.8440 N   0  0  0  0  0  0  0  0  0  0  0  0
  161.0680  203.6820  152.0930 N   0  0  0  0  0  0  0  0  0  0  0  0
  161.2520  204.8060  152.8500 C   0  0  0  0  0  3  0  0  0  0  0  0
  161.3400  206.2340  150.8510 C   0  0  0  0  0  0  0  0  0  0  0  0
  161.1540  205.0760  150.1030 C   0  0  0  0  0  0  0  0  0  0  0  0
  161.5070  207.5740  150.2130 C   0  0  0  0  0  2  0  0  0  0  0  0
  160.8380  208.4100  152.4930 N   0  0  0  0  0  2  0  0  0  0  0  0
  160.5880  209.3260  153.5740 C   0  0  0  0  0  0  0  0  0  0  0  0
  161.4810  208.6600  151.2380 C   0  0  0  0  0  0  0  0  0  0  0  0
  160.1080  208.8710  154.6440 O   0  0  0  0  0  0  0  0  0  0  0  0
  162.0330  209.7630  150.9880 O   0  0  0  0  0  0  0  0  0  0  0  0
  160.8540  210.8020  153.4990 C   0  0  1  0  0  3  0  0  0  0  0  0
  160.1650  212.2630  151.7410 O   0  0  0  0  0  1  0  0  0  0  0  0
  159.7000  211.5410  152.8390 C   0  0  0  0  0  2  0  0  0  0  0  0
  161.1550  211.3560  154.8100 N   0  0  0  0  0  2  0  0  0  0  0  0
  160.0960  212.2950  155.1370 C   0  0  0  0  0  2  0  0  0  0  0  0
  159.3520  211.8100  156.2990 C   0  0  0  0  0  0  0  0  0  0  0  0
  158.7410  211.4100  157.2570 C   0  0  0  0  0  3  0  0  0  0  0  0
  160.9780  205.7190  147.6220 C   0  0  0  0  0  2  0  0  0  0  0  0
  162.3630  205.8750  147.0130 C   0  0  0  0  0  2  0  0  0  0  0  0
  162.6770  204.7110  146.0860 C   0  0  0  0  0  2  0  0  0  0  0  0
  160.9240  203.4470  145.0760 O   0  0  0  0  0  1  0  0  0  0  0  0
  161.2970  205.5210  144.1770 O   0  0  0  0  0  0  0  0  0  0  0  0
  161.5760  204.5230  145.1000 C   0  0  0  0  0  0  0  0  0  0  0  0
  1  7  1  0  0  0  0
  2  6  1  0  0  0  0
  3  4  2  0  0  0  0
  3  5  1  0  0  0  0
  4  9  1  0  0  0  0
  5  2  2  0  0  0  0
  6  7  2  0  0  0  0
  8  1  1  0  0  0  0
  9  2  1  0  0  0  0
  9  8  2  0  0  0  0
 10  8  1  0  0  0  0
 10 13  1  0  0  0  0
 11 12  1  0  0  0  0
 12 14  2  0  0  0  0
 13 11  1  0  0  0  0
 15 13  2  0  0  0  0
 16 18  1  1  0  0  0
 16 12  1  0  0  0  0
 16 19  1  0  0  0  0
 17 18  1  0  0  0  0
 19 20  1  0  0  0  0
 20 21  1  0  0  0  0
 21 22  3  0  0  0  0
 23  4  1  0  0  0  0
 24 23  1  0  0  0  0
 25 24  1  0  0  0  0
 26 28  1  0  0  0  0
 27 28  2  0  0  0  0
 28 25  1  0  0  0  0
M  END
>  <MODEL>
5

>  <REMARK>
 VINA RESULT:      -6.4      2.163      8.562
  Name = 
  11 active torsions:
  status: ('A' for Active; 'I' for Inactive)
    1  A    between atoms: C_1  and  C_23
    2  A    between atoms: C_1  and  C_28
    3  A    between atoms: N_2  and  C_3
    4  A    between atoms: N_2  and  CA_24
    5  A    between atoms: C_3  and  C_17
    6  A    between atoms: C_11  and  CA_24
    7  A    between atoms: C_12  and  C_26
    8  A    between atoms: C_16  and  C_22
    9  A    between atoms: C_18  and  CA_24
   10  A    between atoms: C_19  and  C_22
   11  A    between atoms: C_23  and  C_26
                            x       y       z     vdW  Elec       q    Type
                         _______ _______ _______ _____ _____    ______ ____

>  <TORSDO>
F 11

$$$$
=
 OpenBabel11072411183D

 28 29  0  0  1  0  0  0  0  0999 V2000
  161.2110  205.3560  152.5820 C   0  0  0  0  0  2  0  0  0  0  0  0
  160.9890  203.6360  150.4490 C   0  0  0  0  0  0  0  0  0  0  0  0
  160.8320  203.8960  148.3220 N   0  0  0  0  0  0  0  0  0  0  0  0
  160.9680  205.1400  148.8520 C   0  0  0  0  0  0  0  0  0  0  0  0
  160.8460  202.9800  149.2890 N   0  0  0  0  0  0  0  0  0  0  0  0
  161.0110  203.1050  151.6930 N   0  0  0  0  0  0  0  0  0  0  0  0
  161.1250  203.9530  152.7610 C   0  0  0  0  0  3  0  0  0  0  0  0
  161.1820  205.9220  151.2910 C   0  0  0  0  0  0  0  0  0  0  0  0
  161.0690  205.0400  150.2220 C   0  0  0  0  0  0  0  0  0  0  0  0
  161.2960  207.3990  151.0940 C   0  0  0  0  0  2  0  0  0  0  0  0
  160.9430  209.5210  152.4050 N   0  0  0  0  0  2  0  0  0  0  0  0
  160.9420  210.4360  153.5140 C   0  0  0  0  0  0  0  0  0  0  0  0
  161.2290  208.1180  152.4010 C   0  0  0  0  0  0  0  0  0  0  0  0
  160.5470  211.6140  153.3170 O   0  0  0  0  0  0  0  0  0  0  0  0
  161.4120  207.4800  153.4710 O   0  0  0  0  0  0  0  0  0  0  0  0
  161.4010  210.0750  154.8980 C   0  0  1  0  0  3  0  0  0  0  0  0
  163.0560  210.5060  156.5630 O   0  0  0  0  0  1  0  0  0  0  0  0
  162.7480  210.7030  155.2180 C   0  0  0  0  0  2  0  0  0  0  0  0
  160.4030  210.4260  155.8980 N   0  0  0  0  0  2  0  0  0  0  0  0
  159.3280  209.4530  155.7950 C   0  0  0  0  0  2  0  0  0  0  0  0
  159.7780  208.1690  156.3320 C   0  0  0  0  0  0  0  0  0  0  0  0
  160.1460  207.1110  156.7760 C   0  0  0  0  0  3  0  0  0  0  0  0
  160.9120  206.3980  148.0480 C   0  0  0  0  0  2  0  0  0  0  0  0
  161.7600  206.2720  146.7920 C   0  0  0  0  0  2  0  0  0  0  0  0
  160.8830  206.0770  145.5660 C   0  0  0  0  0  2  0  0  0  0  0  0
  160.3320  204.2480  144.1370 O   0  0  0  0  0  0  0  0  0  0  0  0
  162.3200  204.0650  145.2610 O   0  0  0  0  0  1  0  0  0  0  0  0
  161.1610  204.7560  144.9350 C   0  0  0  0  0  0  0  0  0  0  0  0
  1  7  1  0  0  0  0
  2  6  1  0  0  0  0
  3  4  2  0  0  0  0
  3  5  1  0  0  0  0
  4  9  1  0  0  0  0
  5  2  2  0  0  0  0
  6  7  2  0  0  0  0
  8  1  1  0  0  0  0
  9  2  1  0  0  0  0
  9  8  2  0  0  0  0
 10  8  1  0  0  0  0
 10 13  1  0  0  0  0
 11 12  1  0  0  0  0
 12 16  1  0  0  0  0
 13 11  1  0  0  0  0
 13 15  2  0  0  0  0
 14 12  2  0  0  0  0
 16 18  1  1  0  0  0
 16 19  1  0  0  0  0
 18 17  1  0  0  0  0
 20 19  1  0  0  0  0
 20 21  1  0  0  0  0
 21 22  3  0  0  0  0
 23  4  1  0  0  0  0
 24 23  1  0  0  0  0
 25 24  1  0  0  0  0
 26 28  2  0  0  0  0
 28 27  1  0  0  0  0
 28 25  1  0  0  0  0
M  END
>  <MODEL>
6

>  <REMARK>
 VINA RESULT:      -6.3      2.348      8.547
  Name = 
  11 active torsions:
  status: ('A' for Active; 'I' for Inactive)
    1  A    between atoms: C_1  and  C_23
    2  A    between atoms: C_1  and  C_28
    3  A    between atoms: N_2  and  C_3
    4  A    between atoms: N_2  and  CA_24
    5  A    between atoms: C_3  and  C_17
    6  A    between atoms: C_11  and  CA_24
    7  A    between atoms: C_12  and  C_26
    8  A    between atoms: C_16  and  C_22
    9  A    between atoms: C_18  and  CA_24
   10  A    between atoms: C_19  and  C_22
   11  A    between atoms: C_23  and  C_26
                            x       y       z     vdW  Elec       q    Type
                         _______ _______ _______ _____ _____    ______ ____

>  <TORSDO>
F 11

$$$$
=
 OpenBabel11072411183D

 28 29  0  0  1  0  0  0  0  0999 V2000
  161.9630  208.6200  150.7250 C   0  0  0  0  0  2  0  0  0  0  0  0
  161.3790  207.1910  148.4500 C   0  0  0  0  0  0  0  0  0  0  0  0
  160.7060  205.1870  148.0690 N   0  0  0  0  0  0  0  0  0  0  0  0
  160.7620  205.3220  149.4200 C   0  0  0  0  0  0  0  0  0  0  0  0
  161.0780  206.3200  147.4760 N   0  0  0  0  0  0  0  0  0  0  0  0
  161.8440  208.4530  148.3040 N   0  0  0  0  0  0  0  0  0  0  0  0
  162.1340  209.1730  149.4310 C   0  0  0  0  0  3  0  0  0  0  0  0
  161.4860  207.3030  150.8890 C   0  0  0  0  0  0  0  0  0  0  0  0
  161.1960  206.5930  149.7290 C   0  0  0  0  0  0  0  0  0  0  0  0
  161.2810  206.7220  152.2500 C   0  0  0  0  0  2  0  0  0  0  0  0
  160.4870  209.0520  152.7840 N   0  0  0  0  0  2  0  0  0  0  0  0
  160.2450  210.2550  153.5340 C   0  0  0  0  0  0  0  0  0  0  0  0
  160.9860  207.7920  153.2480 C   0  0  0  0  0  0  0  0  0  0  0  0
  159.6920  211.2230  152.9490 O   0  0  0  0  0  0  0  0  0  0  0  0
  161.1670  207.5660  154.4730 O   0  0  0  0  0  0  0  0  0  0  0  0
  160.6270  210.4350  154.9750 C   0  0  1  0  0  3  0  0  0  0  0  0
  162.6190  210.1060  156.2490 O   0  0  0  0  0  1  0  0  0  0  0  0
  162.1070  210.7490  155.1230 C   0  0  0  0  0  2  0  0  0  0  0  0
  159.8040  211.4470  155.6210 N   0  0  0  0  0  2  0  0  0  0  0  0
  158.6880  210.7600  156.2490 C   0  0  0  0  0  2  0  0  0  0  0  0
  157.4310  211.2560  155.6890 C   0  0  0  0  0  0  0  0  0  0  0  0
  156.3970  211.6660  155.2260 C   0  0  0  0  0  3  0  0  0  0  0  0
  160.4860  204.2110  150.3790 C   0  0  0  0  0  2  0  0  0  0  0  0
  161.2030  202.9400  149.9520 C   0  0  0  0  0  2  0  0  0  0  0  0
  160.2470  201.9940  149.2440 C   0  0  0  0  0  2  0  0  0  0  0  0
  160.8140  201.9830  146.9270 O   0  0  0  0  0  0  0  0  0  0  0  0
  161.5660  200.1910  148.1410 O   0  0  0  0  0  1  0  0  0  0  0  0
  160.8980  201.4040  148.0410 C   0  0  0  0  0  0  0  0  0  0  0  0
  1  8  1  0  0  0  0
  2  9  1  0  0  0  0
  3  4  2  0  0  0  0
  4  9  1  0  0  0  0
  4 23  1  0  0  0  0
  5  3  1  0  0  0  0
  5  2  2  0  0  0  0
  6  2  1  0  0  0  0
  6  7  2  0  0  0  0
  7  1  1  0  0  0  0
  8 10  1  0  0  0  0
  9  8  2  0  0  0  0
 10 13  1  0  0  0  0
 11 13  1  0  0  0  0
 11 12  1  0  0  0  0
 12 16  1  0  0  0  0
 13 15  2  0  0  0  0
 14 12  2  0  0  0  0
 16 18  1  6  0  0  0
 16 19  1  0  0  0  0
 18 17  1  0  0  0  0
 19 20  1  0  0  0  0
 21 20  1  0  0  0  0
 22 21  3  0  0  0  0
 24 23  1  0  0  0  0
 25 24  1  0  0  0  0
 26 28  2  0  0  0  0
 28 27  1  0  0  0  0
 28 25  1  0  0  0  0
M  END
>  <MODEL>
7

>  <REMARK>
 VINA RESULT:      -6.3      2.505      9.145
  Name = 
  11 active torsions:
  status: ('A' for Active; 'I' for Inactive)
    1  A    between atoms: C_1  and  C_23
    2  A    between atoms: C_1  and  C_28
    3  A    between atoms: N_2  and  C_3
    4  A    between atoms: N_2  and  CA_24
    5  A    between atoms: C_3  and  C_17
    6  A    between atoms: C_11  and  CA_24
    7  A    between atoms: C_12  and  C_26
    8  A    between atoms: C_16  and  C_22
    9  A    between atoms: C_18  and  CA_24
   10  A    between atoms: C_19  and  C_22
   11  A    between atoms: C_23  and  C_26
                            x       y       z     vdW  Elec       q    Type
                         _______ _______ _______ _____ _____    ______ ____

>  <TORSDO>
F 11

$$$$
=
 OpenBabel11072411183D

 28 29  0  0  1  0  0  0  0  0999 V2000
  161.0820  203.8630  150.6200 C   0  0  0  0  0  2  0  0  0  0  0  0
  161.1890  201.5340  149.1630 C   0  0  0  0  0  0  0  0  0  0  0  0
  161.2240  201.0780  147.0640 N   0  0  0  0  0  0  0  0  0  0  0  0
  161.2230  202.4340  147.1620 C   0  0  0  0  0  0  0  0  0  0  0  0
  161.2050  200.5280  148.2770 N   0  0  0  0  0  0  0  0  0  0  0  0
  161.1240  201.4370  150.5110 N   0  0  0  0  0  0  0  0  0  0  0  0
  161.0730  202.5910  151.2440 C   0  0  0  0  0  3  0  0  0  0  0  0
  161.1420  203.9770  149.2160 C   0  0  0  0  0  0  0  0  0  0  0  0
  161.1950  202.7910  148.4930 C   0  0  0  0  0  0  0  0  0  0  0  0
  161.1740  205.3150  148.5520 C   0  0  0  0  0  2  0  0  0  0  0  0
  161.6850  207.6440  149.3650 N   0  0  0  0  0  2  0  0  0  0  0  0
  161.7490  208.7820  150.2420 C   0  0  0  0  0  0  0  0  0  0  0  0
  160.9820  206.4100  149.5490 C   0  0  0  0  0  0  0  0  0  0  0  0
  162.3340  209.8190  149.8350 O   0  0  0  0  0  0  0  0  0  0  0  0
  160.2010  206.2350  150.5200 O   0  0  0  0  0  0  0  0  0  0  0  0
  161.1690  208.8060  151.6270 C   0  0  1  0  0  3  0  0  0  0  0  0
  161.0430  207.2160  153.4040 O   0  0  0  0  0  1  0  0  0  0  0  0
  161.9340  207.8850  152.5650 C   0  0  0  0  0  2  0  0  0  0  0  0
  161.1040  210.1610  152.1540 N   0  0  0  0  0  2  0  0  0  0  0  0
  159.9070  210.2480  152.9740 C   0  0  0  0  0  2  0  0  0  0  0  0
  160.2730  210.6580  154.3300 C   0  0  0  0  0  0  0  0  0  0  0  0
  160.5720  210.9940  155.4480 C   0  0  0  0  0  3  0  0  0  0  0  0
  161.1610  203.3530  145.9860 C   0  0  0  0  0  2  0  0  0  0  0  0
  162.5270  203.9570  145.7030 C   0  0  0  0  0  2  0  0  0  0  0  0
  162.4230  205.4620  145.5140 C   0  0  0  0  0  2  0  0  0  0  0  0
  160.1810  206.2410  145.2740 O   0  0  0  0  0  1  0  0  0  0  0  0
  161.2170  205.5870  143.3380 O   0  0  0  0  0  0  0  0  0  0  0  0
  161.2150  205.7990  144.7090 C   0  0  0  0  0  0  0  0  0  0  0  0
  1  7  1  0  0  0  0
  2  6  1  0  0  0  0
  3  4  2  0  0  0  0
  3  5  1  0  0  0  0
  4  9  1  0  0  0  0
  5  2  2  0  0  0  0
  6  7  2  0  0  0  0
  8  1  1  0  0  0  0
  9  2  1  0  0  0  0
  9  8  2  0  0  0  0
 10  8  1  0  0  0  0
 10 13  1  0  0  0  0
 11 13  1  0  0  0  0
 11 12  1  0  0  0  0
 12 16  1  0  0  0  0
 13 15  2  0  0  0  0
 14 12  2  0  0  0  0
 16 19  1  0  0  0  0
 16 18  1  1  0  0  0
 18 17  1  0  0  0  0
 19 20  1  0  0  0  0
 20 21  1  0  0  0  0
 21 22  3  0  0  0  0
 23  4  1  0  0  0  0
 24 23  1  0  0  0  0
 25 24  1  0  0  0  0
 27 28  2  0  0  0  0
 28 26  1  0  0  0  0
 28 25  1  0  0  0  0
M  END
>  <MODEL>
8

>  <REMARK>
 VINA RESULT:      -6.1      2.432      8.104
  Name = 
  11 active torsions:
  status: ('A' for Active; 'I' for Inactive)
    1  A    between atoms: C_1  and  C_23
    2  A    between atoms: C_1  and  C_28
    3  A    between atoms: N_2  and  C_3
    4  A    between atoms: N_2  and  CA_24
    5  A    between atoms: C_3  and  C_17
    6  A    between atoms: C_11  and  CA_24
    7  A    between atoms: C_12  and  C_26
    8  A    between atoms: C_16  and  C_22
    9  A    between atoms: C_18  and  CA_24
   10  A    between atoms: C_19  and  C_22
   11  A    between atoms: C_23  and  C_26
                            x       y       z     vdW  Elec       q    Type
                         _______ _______ _______ _____ _____    ______ ____

>  <TORSDO>
F 11

$$$$
=
 OpenBabel11072411183D

 28 29  0  0  1  0  0  0  0  0999 V2000
  161.7080  208.2480  150.2440 C   0  0  0  0  0  2  0  0  0  0  0  0
  161.7110  206.6440  148.0120 C   0  0  0  0  0  0  0  0  0  0  0  0
  161.4750  204.5350  147.6800 N   0  0  0  0  0  0  0  0  0  0  0  0
  161.3200  204.7330  149.0150 C   0  0  0  0  0  0  0  0  0  0  0  0
  161.7110  205.6930  147.0660 N   0  0  0  0  0  0  0  0  0  0  0  0
  161.9530  207.9650  147.8440 N   0  0  0  0  0  0  0  0  0  0  0  0
  161.9510  208.7710  148.9490 C   0  0  0  0  0  3  0  0  0  0  0  0
  161.4620  206.8730  150.4320 C   0  0  0  0  0  0  0  0  0  0  0  0
  161.4670  206.0740  149.2940 C   0  0  0  0  0  0  0  0  0  0  0  0
  161.1830  206.3180  151.7910 C   0  0  0  0  0  2  0  0  0  0  0  0
  161.4820  207.2170  154.1250 N   0  0  0  0  0  2  0  0  0  0  0  0
  161.3230  208.0700  155.2720 C   0  0  0  0  0  0  0  0  0  0  0  0
  161.0070  207.4150  152.7880 C   0  0  0  0  0  0  0  0  0  0  0  0
  161.9230  207.7620  156.3340 O   0  0  0  0  0  0  0  0  0  0  0  0
  160.4590  208.4930  152.4370 O   0  0  0  0  0  0  0  0  0  0  0  0
  160.4700  209.3060  155.2850 C   0  0  1  0  0  3  0  0  0  0  0  0
  159.3120  210.5290  156.9760 O   0  0  0  0  0  1  0  0  0  0  0  0
  159.4470  209.2630  156.4090 C   0  0  0  0  0  2  0  0  0  0  0  0
  161.2820  210.5120  155.3540 N   0  0  0  0  0  2  0  0  0  0  0  0
  161.3350  211.0750  154.0150 C   0  0  0  0  0  2  0  0  0  0  0  0
  160.0320  211.6420  153.6710 C   0  0  0  0  0  0  0  0  0  0  0  0
  158.9580  212.1090  153.3850 C   0  0  0  0  0  3  0  0  0  0  0  0
  161.1230  203.6290  150.0030 C   0  0  0  0  0  2  0  0  0  0  0  0
  160.2730  202.5190  149.4050 C   0  0  0  0  0  2  0  0  0  0  0  0
  161.1170  201.2840  149.1310 C   0  0  0  0  0  2  0  0  0  0  0  0
  160.5840  201.7540  146.8530 O   0  0  0  0  0  0  0  0  0  0  0  0
  161.5880  199.7310  147.2410 O   0  0  0  0  0  1  0  0  0  0  0  0
  161.0900  200.9500  147.6790 C   0  0  0  0  0  0  0  0  0  0  0  0
  1  8  1  0  0  0  0
  2  9  1  0  0  0  0
  3  4  2  0  0  0  0
  4  9  1  0  0  0  0
  4 23  1  0  0  0  0
  5  3  1  0  0  0  0
  5  2  2  0  0  0  0
  6  2  1  0  0  0  0
  6  7  2  0  0  0  0
  7  1  1  0  0  0  0
  8 10  1  0  0  0  0
  9  8  2  0  0  0  0
 10 13  1  0  0  0  0
 11 12  1  0  0  0  0
 12 16  1  0  0  0  0
 12 14  2  0  0  0  0
 13 11  1  0  0  0  0
 15 13  2  0  0  0  0
 16 19  1  0  0  0  0
 16 18  1  1  0  0  0
 18 17  1  0  0  0  0
 20 19  1  0  0  0  0
 21 20  1  0  0  0  0
 22 21  3  0  0  0  0
 24 23  1  0  0  0  0
 25 24  1  0  0  0  0
 26 28  2  0  0  0  0
 27 28  1  0  0  0  0
 28 25  1  0  0  0  0
M  END
>  <MODEL>
9

>  <REMARK>
 VINA RESULT:      -6.1      2.400      9.175
  Name = 
  11 active torsions:
  status: ('A' for Active; 'I' for Inactive)
    1  A    between atoms: C_1  and  C_23
    2  A    between atoms: C_1  and  C_28
    3  A    between atoms: N_2  and  C_3
    4  A    between atoms: N_2  and  CA_24
    5  A    between atoms: C_3  and  C_17
    6  A    between atoms: C_11  and  CA_24
    7  A    between atoms: C_12  and  C_26
    8  A    between atoms: C_16  and  C_22
    9  A    between atoms: C_18  and  CA_24
   10  A    between atoms: C_19  and  C_22
   11  A    between atoms: C_23  and  C_26
                            x       y       z     vdW  Elec       q    Type
                         _______ _______ _______ _____ _____    ______ ____

>  <TORSDO>
F 11

$$$$
