=
 OpenBabel11072412223D

 27 29  0  0  1  0  0  0  0  0999 V2000
  162.1070  207.4270  150.1350 C   0  0  2  0  0  3  0  0  0  0  0  0
  161.9860  207.0130  151.5680 C   0  0  0  0  0  0  0  0  0  0  0  0
  162.8240  206.2050  152.0510 O   0  0  0  0  0  0  0  0  0  0  0  0
  160.9300  207.5350  152.3800 N   0  0  0  0  0  2  0  0  0  0  0  0
  161.4350  205.9060  153.9500 O   0  0  0  0  0  1  0  0  0  0  0  0
  160.6780  207.0580  153.7310 C   0  0  1  0  0  3  0  0  0  0  0  0
  161.0530  208.1390  154.7540 C   0  0  2  0  0  3  0  0  0  0  0  0
  159.9460  206.9750  156.6540 C   0  0  0  0  0  2  0  0  0  0  0  0
  159.9970  208.2600  155.8500 C   0  0  0  0  0  3  0  0  0  0  0  0
  160.6590  208.1850  157.2140 C   0  0  0  0  0  2  0  0  0  0  0  0
  160.2120  210.3610  154.3320 O   0  0  0  0  0  1  0  0  0  0  0  0
  161.2800  209.4960  154.0830 C   0  0  0  0  0  2  0  0  0  0  0  0
  162.1980  208.9400  150.0220 C   0  0  0  0  0  2  0  0  0  0  0  0
  161.9470  209.3370  148.7100 O   0  0  0  0  0  1  0  0  0  0  0  0
  160.9600  206.9530  149.3730 N   0  0  0  0  0  2  0  0  0  0  0  0
  161.1070  205.4410  147.4320 C   0  0  0  0  0  0  0  0  0  0  0  0
  160.4150  203.2920  149.4960 C   0  0  0  0  0  3  0  0  0  0  0  0
  161.6060  204.2780  146.8180 C   0  0  0  0  0  0  0  0  0  0  0  0
  161.4590  204.0960  145.4390 C   0  0  0  0  0  3  0  0  0  0  0  0
  160.8150  205.0670  144.6680 C   0  0  0  0  0  3  0  0  0  0  0  0
  161.1870  201.2940  148.5200 O   0  0  0  0  0  0  0  0  0  0  0  0
  160.3810  204.6200  149.6630 C   0  0  0  0  0  3  0  0  0  0  0  0
  161.2500  205.5950  148.9270 C   0  0  2  0  0  3  0  0  0  0  0  0
  162.2630  203.2150  147.6380 C   0  0  0  0  0  2  0  0  0  0  0  0
  161.2760  202.5480  148.5510 C   0  0  0  0  0  0  0  0  0  0  0  0
  160.4500  206.4050  146.6510 C   0  0  0  0  0  3  0  0  0  0  0  0
  160.3100  206.2200  145.2740 C   0  0  0  0  0  3  0  0  0  0  0  0
  1 13  1  1  0  0  0
  1  2  1  0  0  0  0
  2  3  2  0  0  0  0
  2  4  1  0  0  0  0
  4  6  1  0  0  0  0
  6  5  1  1  0  0  0
  6  7  1  0  0  0  0
  7 12  1  6  0  0  0
  7  9  1  0  0  0  0
  8 10  1  0  0  0  0
  9  8  1  0  0  0  0
  9 10  1  0  0  0  0
 12 11  1  0  0  0  0
 14 13  1  0  0  0  0
 15  1  1  0  0  0  0
 16 23  1  0  0  0  0
 17 22  2  0  0  0  0
 18 16  1  0  0  0  0
 18 24  1  0  0  0  0
 19 18  2  0  0  0  0
 20 27  2  0  0  0  0
 20 19  1  0  0  0  0
 21 25  2  0  0  0  0
 23 15  1  1  0  0  0
 23 22  1  0  0  0  0
 24 25  1  0  0  0  0
 25 17  1  0  0  0  0
 26 16  2  0  0  0  0
 27 26  1  0  0  0  0
M  END
>  <MODEL>
1

>  <REMARK>
 VINA RESULT:      -7.8      0.000      0.000
  Name = 
  8 active torsions:
  status: ('A' for Active; 'I' for Inactive)
    1  A    between atoms: C_3  and  CA_13
    2  A    between atoms: N_4  and  CA_13
    3  A    between atoms: N_4  and  C_17
    4  A    between atoms: C_8  and  CA_13
    5  A    between atoms: C_9  and  C_12
    6  A    between atoms: C_10  and  C_12
    7  A    between atoms: C_10  and  N_24
    8  A    between atoms: C_12  and  C_25
                            x       y       z     vdW  Elec       q    Type
                         _______ _______ _______ _____ _____    ______ ____

>  <TORSDO>
F 8

$$$$
=
 OpenBabel11072412223D

 27 29  0  0  1  0  0  0  0  0999 V2000
  160.7250  208.1950  152.9320 C   0  0  2  0  0  3  0  0  0  0  0  0
  160.9480  209.6730  152.8510 C   0  0  0  0  0  0  0  0  0  0  0  0
  162.1190  210.1140  152.6980 O   0  0  0  0  0  0  0  0  0  0  0  0
  159.8410  210.5730  152.9450 N   0  0  0  0  0  2  0  0  0  0  0  0
  159.6080  212.5800  151.8080 O   0  0  0  0  0  1  0  0  0  0  0  0
  160.0140  212.0160  153.0190 C   0  0  1  0  0  3  0  0  0  0  0  0
  159.1850  212.5920  154.1750 C   0  0  2  0  0  3  0  0  0  0  0  0
  160.7310  211.8470  155.9770 C   0  0  0  0  0  2  0  0  0  0  0  0
  159.3190  211.7400  155.4360 C   0  0  0  0  0  3  0  0  0  0  0  0
  159.6140  212.6290  156.6290 C   0  0  0  0  0  2  0  0  0  0  0  0
  156.9380  211.7370  154.3690 O   0  0  0  0  0  1  0  0  0  0  0  0
  157.7120  212.7460  153.7910 C   0  0  0  0  0  2  0  0  0  0  0  0
  160.5230  207.7640  154.3750 C   0  0  0  0  0  2  0  0  0  0  0  0
  161.4470  208.4040  155.1990 O   0  0  0  0  0  1  0  0  0  0  0  0
  161.8620  207.4810  152.3680 N   0  0  0  0  0  2  0  0  0  0  0  0
  161.3090  205.6200  150.8500 C   0  0  0  0  0  0  0  0  0  0  0  0
  162.5480  207.4430  148.7290 C   0  0  0  0  0  3  0  0  0  0  0  0
  160.7180  205.1330  149.6690 C   0  0  0  0  0  0  0  0  0  0  0  0
  160.5380  203.7580  149.4910 C   0  0  0  0  0  3  0  0  0  0  0  0
  160.9460  202.8630  150.4830 C   0  0  0  0  0  3  0  0  0  0  0  0
  161.6350  206.6640  146.7030 O   0  0  0  0  0  0  0  0  0  0  0  0
  162.5740  207.6070  150.0570 C   0  0  0  0  0  3  0  0  0  0  0  0
  161.5210  207.1060  151.0000 C   0  0  2  0  0  3  0  0  0  0  0  0
  160.3130  206.0790  148.5840 C   0  0  0  0  0  2  0  0  0  0  0  0
  161.5120  206.7250  147.9540 C   0  0  0  0  0  0  0  0  0  0  0  0
  161.7270  204.7120  151.8360 C   0  0  0  0  0  3  0  0  0  0  0  0
  161.5410  203.3390  151.6540 C   0  0  0  0  0  3  0  0  0  0  0  0
  1 13  1  1  0  0  0
  2  1  1  0  0  0  0
  2  4  1  0  0  0  0
  3  2  2  0  0  0  0
  4  6  1  0  0  0  0
  6  5  1  6  0  0  0
  6  7  1  0  0  0  0
  7 12  1  6  0  0  0
  7  9  1  0  0  0  0
  8 10  1  0  0  0  0
  9  8  1  0  0  0  0
  9 10  1  0  0  0  0
 12 11  1  0  0  0  0
 13 14  1  0  0  0  0
 15  1  1  0  0  0  0
 16 23  1  0  0  0  0
 16 26  1  0  0  0  0
 17 22  2  0  0  0  0
 18 16  2  0  0  0  0
 19 18  1  0  0  0  0
 19 20  2  0  0  0  0
 20 27  1  0  0  0  0
 21 25  2  0  0  0  0
 22 23  1  0  0  0  0
 23 15  1  1  0  0  0
 24 18  1  0  0  0  0
 25 24  1  0  0  0  0
 25 17  1  0  0  0  0
 27 26  2  0  0  0  0
M  END
>  <MODEL>
2

>  <REMARK>
 VINA RESULT:      -7.8      2.524      4.656
  Name = 
  8 active torsions:
  status: ('A' for Active; 'I' for Inactive)
    1  A    between atoms: C_3  and  CA_13
    2  A    between atoms: N_4  and  CA_13
    3  A    between atoms: N_4  and  C_17
    4  A    between atoms: C_8  and  CA_13
    5  A    between atoms: C_9  and  C_12
    6  A    between atoms: C_10  and  C_12
    7  A    between atoms: C_10  and  N_24
    8  A    between atoms: C_12  and  C_25
                            x       y       z     vdW  Elec       q    Type
                         _______ _______ _______ _____ _____    ______ ____

>  <TORSDO>
F 8

$$$$
=
 OpenBabel11072412223D

 27 29  0  0  1  0  0  0  0  0999 V2000
  161.6860  207.3230  149.9850 C   0  0  2  0  0  3  0  0  0  0  0  0
  161.8350  206.9910  151.4360 C   0  0  0  0  0  0  0  0  0  0  0  0
  162.8350  206.3250  151.8180 O   0  0  0  0  0  0  0  0  0  0  0  0
  160.8530  207.4300  152.3780 N   0  0  0  0  0  2  0  0  0  0  0  0
  161.8840  206.0700  153.9480 O   0  0  0  0  0  1  0  0  0  0  0  0
  160.8710  207.0150  153.7730 C   0  0  1  0  0  3  0  0  0  0  0  0
  161.1140  208.2260  154.6850 C   0  0  2  0  0  3  0  0  0  0  0  0
  159.9280  207.0790  156.5470 C   0  0  0  0  0  2  0  0  0  0  0  0
  160.0170  208.3590  155.7390 C   0  0  0  0  0  3  0  0  0  0  0  0
  160.6260  208.2880  157.1270 C   0  0  0  0  0  2  0  0  0  0  0  0
  161.8810  210.5120  154.6260 O   0  0  0  0  0  1  0  0  0  0  0  0
  161.2380  209.5220  153.8800 C   0  0  0  0  0  2  0  0  0  0  0  0
  161.6020  208.8270  149.7870 C   0  0  0  0  0  2  0  0  0  0  0  0
  162.2730  209.1950  148.6210 O   0  0  0  0  0  1  0  0  0  0  0  0
  160.4880  206.6960  149.4430 N   0  0  0  0  0  2  0  0  0  0  0  0
  160.9080  204.3460  148.8320 C   0  0  0  0  0  0  0  0  0  0  0  0
  162.8880  205.5810  146.8520 C   0  0  0  0  0  3  0  0  0  0  0  0
  161.0210  203.3320  147.8630 C   0  0  0  0  0  0  0  0  0  0  0  0
  161.0610  201.9900  148.2550 C   0  0  0  0  0  3  0  0  0  0  0  0
  160.9920  201.6530  149.6090 C   0  0  0  0  0  3  0  0  0  0  0  0
  163.1630  203.9180  145.2090 O   0  0  0  0  0  0  0  0  0  0  0  0
  162.2390  206.2000  147.8470 C   0  0  0  0  0  3  0  0  0  0  0  0
  160.9000  205.7860  148.3810 C   0  0  2  0  0  3  0  0  0  0  0  0
  161.1340  203.6820  146.4140 C   0  0  0  0  0  2  0  0  0  0  0  0
  162.4320  204.3760  146.1250 C   0  0  0  0  0  0  0  0  0  0  0  0
  160.8520  203.9980  150.1900 C   0  0  0  0  0  3  0  0  0  0  0  0
  160.8890  202.6560  150.5760 C   0  0  0  0  0  3  0  0  0  0  0  0
  1 13  1  1  0  0  0
  1  2  1  0  0  0  0
  2  3  2  0  0  0  0
  2  4  1  0  0  0  0
  4  6  1  0  0  0  0
  6  5  1  6  0  0  0
  6  7  1  0  0  0  0
  7 12  1  6  0  0  0
  7  9  1  0  0  0  0
  8 10  1  0  0  0  0
  9  8  1  0  0  0  0
  9 10  1  0  0  0  0
 12 11  1  0  0  0  0
 14 13  1  0  0  0  0
 15  1  1  0  0  0  0
 16 26  1  0  0  0  0
 17 22  2  0  0  0  0
 18 19  1  0  0  0  0
 18 16  2  0  0  0  0
 19 20  2  0  0  0  0
 20 27  1  0  0  0  0
 21 25  2  0  0  0  0
 22 23  1  0  0  0  0
 23 16  1  0  0  0  0
 23 15  1  1  0  0  0
 24 18  1  0  0  0  0
 25 24  1  0  0  0  0
 25 17  1  0  0  0  0
 26 27  2  0  0  0  0
M  END
>  <MODEL>
3

>  <REMARK>
 VINA RESULT:      -7.7      1.373      2.594
  Name = 
  8 active torsions:
  status: ('A' for Active; 'I' for Inactive)
    1  A    between atoms: C_3  and  CA_13
    2  A    between atoms: N_4  and  CA_13
    3  A    between atoms: N_4  and  C_17
    4  A    between atoms: C_8  and  CA_13
    5  A    between atoms: C_9  and  C_12
    6  A    between atoms: C_10  and  C_12
    7  A    between atoms: C_10  and  N_24
    8  A    between atoms: C_12  and  C_25
                            x       y       z     vdW  Elec       q    Type
                         _______ _______ _______ _____ _____    ______ ____

>  <TORSDO>
F 8

$$$$
=
 OpenBabel11072412223D

 27 29  0  0  1  0  0  0  0  0999 V2000
  161.9460  206.5290  151.2450 C   0  0  2  0  0  3  0  0  0  0  0  0
  161.4440  206.7140  152.6430 C   0  0  0  0  0  0  0  0  0  0  0  0
  161.0900  205.7060  153.3110 O   0  0  0  0  0  0  0  0  0  0  0  0
  161.3710  208.0240  153.2130 N   0  0  0  0  0  2  0  0  0  0  0  0
  161.5290  207.6640  155.4980 O   0  0  0  0  0  1  0  0  0  0  0  0
  160.7580  208.2770  154.5080 C   0  0  1  0  0  3  0  0  0  0  0  0
  160.6670  209.7870  154.7670 C   0  0  2  0  0  3  0  0  0  0  0  0
  159.6120  210.7440  152.7270 C   0  0  0  0  0  2  0  0  0  0  0  0
  160.9140  210.5880  153.4900 C   0  0  0  0  0  3  0  0  0  0  0  0
  160.1470  211.8960  153.5460 C   0  0  0  0  0  2  0  0  0  0  0  0
  162.8150  210.7380  155.3180 O   0  0  0  0  0  1  0  0  0  0  0  0
  161.6350  210.2300  155.8660 C   0  0  0  0  0  2  0  0  0  0  0  0
  162.6820  207.7720  150.7740 C   0  0  0  0  0  2  0  0  0  0  0  0
  161.9240  208.4410  149.8130 O   0  0  0  0  0  1  0  0  0  0  0  0
  160.8380  206.2510  150.3430 N   0  0  0  0  0  2  0  0  0  0  0  0
  161.0820  205.1320  148.1610 C   0  0  0  0  0  0  0  0  0  0  0  0
  160.1750  202.6610  149.7210 C   0  0  0  0  0  3  0  0  0  0  0  0
  161.5900  204.0860  147.3680 C   0  0  0  0  0  0  0  0  0  0  0  0
  161.5400  204.1760  145.9740 C   0  0  0  0  0  3  0  0  0  0  0  0
  160.9840  205.3030  145.3630 C   0  0  0  0  0  3  0  0  0  0  0  0
  160.9580  200.8530  148.4310 O   0  0  0  0  0  0  0  0  0  0  0  0
  160.1690  203.9330  150.1380 C   0  0  0  0  0  3  0  0  0  0  0  0
  161.1190  204.9920  149.6630 C   0  0  2  0  0  3  0  0  0  0  0  0
  162.1530  202.8580  148.0100 C   0  0  0  0  0  2  0  0  0  0  0  0
  161.0820  202.0740  148.7090 C   0  0  0  0  0  0  0  0  0  0  0  0
  160.5130  206.2540  147.5380 C   0  0  0  0  0  3  0  0  0  0  0  0
  160.4700  206.3410  146.1450 C   0  0  0  0  0  3  0  0  0  0  0  0
  1 13  1  6  0  0  0
  1  2  1  0  0  0  0
  2  4  1  0  0  0  0
  2  3  2  0  0  0  0
  4  6  1  0  0  0  0
  6  7  1  0  0  0  0
  6  5  1  1  0  0  0
  7 12  1  1  0  0  0
  8  9  1  0  0  0  0
  8 10  1  0  0  0  0
  9 10  1  0  0  0  0
  9  7  1  0  0  0  0
 11 12  1  0  0  0  0
 14 13  1  0  0  0  0
 15  1  1  0  0  0  0
 16 23  1  0  0  0  0
 17 22  2  0  0  0  0
 18 24  1  0  0  0  0
 18 16  2  0  0  0  0
 19 18  1  0  0  0  0
 20 19  2  0  0  0  0
 20 27  1  0  0  0  0
 21 25  2  0  0  0  0
 23 22  1  0  0  0  0
 23 15  1  1  0  0  0
 24 25  1  0  0  0  0
 25 17  1  0  0  0  0
 26 16  1  0  0  0  0
 27 26  2  0  0  0  0
M  END
>  <MODEL>
4

>  <REMARK>
 VINA RESULT:      -7.5      1.320      2.045
  Name = 
  8 active torsions:
  status: ('A' for Active; 'I' for Inactive)
    1  A    between atoms: C_3  and  CA_13
    2  A    between atoms: N_4  and  CA_13
    3  A    between atoms: N_4  and  C_17
    4  A    between atoms: C_8  and  CA_13
    5  A    between atoms: C_9  and  C_12
    6  A    between atoms: C_10  and  C_12
    7  A    between atoms: C_10  and  N_24
    8  A    between atoms: C_12  and  C_25
                            x       y       z     vdW  Elec       q    Type
                         _______ _______ _______ _____ _____    ______ ____

>  <TORSDO>
F 8

$$$$
=
 OpenBabel11072412223D

 27 29  0  0  1  0  0  0  0  0999 V2000
  161.1860  208.3070  150.7200 C   0  0  2  0  0  3  0  0  0  0  0  0
  161.0600  207.1490  149.7810 C   0  0  0  0  0  0  0  0  0  0  0  0
  160.8310  207.3640  148.5610 O   0  0  0  0  0  0  0  0  0  0  0  0
  161.2040  205.8110  150.2670 N   0  0  0  0  0  2  0  0  0  0  0  0
  161.6630  204.7850  148.2390 O   0  0  0  0  0  1  0  0  0  0  0  0
  160.9500  204.6470  149.4310 C   0  0  1  0  0  3  0  0  0  0  0  0
  161.3780  203.3660  150.1600 C   0  0  2  0  0  3  0  0  0  0  0  0
  160.4560  201.7580  148.5010 C   0  0  0  0  0  2  0  0  0  0  0  0
  160.3750  202.2360  149.9380 C   0  0  0  0  0  3  0  0  0  0  0  0
  161.1110  200.9530  149.6010 C   0  0  0  0  0  2  0  0  0  0  0  0
  160.4600  203.2030  152.3850 O   0  0  0  0  0  1  0  0  0  0  0  0
  161.5810  203.6100  151.6570 C   0  0  0  0  0  2  0  0  0  0  0  0
  162.4110  209.1400  150.3790 C   0  0  0  0  0  2  0  0  0  0  0  0
  162.0400  210.2490  149.6210 O   0  0  0  0  0  1  0  0  0  0  0  0
  161.2870  207.8360  152.0940 N   0  0  0  0  0  2  0  0  0  0  0  0
  160.8590  208.5880  154.4010 C   0  0  0  0  0  0  0  0  0  0  0  0
  159.7180  211.0630  153.0110 C   0  0  0  0  0  3  0  0  0  0  0  0
  160.9580  209.5610  155.4130 C   0  0  0  0  0  0  0  0  0  0  0  0
  160.6720  209.2230  156.7390 C   0  0  0  0  0  3  0  0  0  0  0  0
  160.2850  207.9210  157.0640 C   0  0  0  0  0  3  0  0  0  0  0  0
  159.8130  212.7390  154.6610 O   0  0  0  0  0  0  0  0  0  0  0  0
  160.0810  209.9060  152.4430 C   0  0  0  0  0  3  0  0  0  0  0  0
  161.1420  208.9900  152.9740 C   0  0  2  0  0  3  0  0  0  0  0  0
  161.3350  210.9670  155.0720 C   0  0  0  0  0  2  0  0  0  0  0  0
  160.2630  211.6340  154.2620 C   0  0  0  0  0  0  0  0  0  0  0  0
  160.4560  207.2850  154.7350 C   0  0  0  0  0  3  0  0  0  0  0  0
  160.1750  206.9530  156.0620 C   0  0  0  0  0  3  0  0  0  0  0  0
  1 13  1  6  0  0  0
  1 15  1  0  0  0  0
  2  4  1  0  0  0  0
  2  1  1  0  0  0  0
  3  2  2  0  0  0  0
  6  5  1  6  0  0  0
  6  7  1  0  0  0  0
  6  4  1  0  0  0  0
  7 12  1  1  0  0  0
  8 10  1  0  0  0  0
  8  9  1  0  0  0  0
  9  7  1  0  0  0  0
 10  9  1  0  0  0  0
 12 11  1  0  0  0  0
 14 13  1  0  0  0  0
 16 26  2  0  0  0  0
 16 18  1  0  0  0  0
 17 25  1  0  0  0  0
 18 19  2  0  0  0  0
 19 20  1  0  0  0  0
 22 23  1  0  0  0  0
 22 17  2  0  0  0  0
 23 15  1  6  0  0  0
 23 16  1  0  0  0  0
 24 18  1  0  0  0  0
 25 21  2  0  0  0  0
 25 24  1  0  0  0  0
 26 27  1  0  0  0  0
 27 20  2  0  0  0  0
M  END
>  <MODEL>
5

>  <REMARK>
 VINA RESULT:      -7.5      2.353      7.971
  Name = 
  8 active torsions:
  status: ('A' for Active; 'I' for Inactive)
    1  A    between atoms: C_3  and  CA_13
    2  A    between atoms: N_4  and  CA_13
    3  A    between atoms: N_4  and  C_17
    4  A    between atoms: C_8  and  CA_13
    5  A    between atoms: C_9  and  C_12
    6  A    between atoms: C_10  and  C_12
    7  A    between atoms: C_10  and  N_24
    8  A    between atoms: C_12  and  C_25
                            x       y       z     vdW  Elec       q    Type
                         _______ _______ _______ _____ _____    ______ ____

>  <TORSDO>
F 8

$$$$
=
 OpenBabel11072412223D

 27 29  0  0  1  0  0  0  0  0999 V2000
  161.4580  206.9700  150.9490 C   0  0  2  0  0  3  0  0  0  0  0  0
  161.2960  208.3880  151.3990 C   0  0  0  0  0  0  0  0  0  0  0  0
  161.8410  209.3120  150.7370 O   0  0  0  0  0  0  0  0  0  0  0  0
  160.5270  208.6880  152.5670 N   0  0  0  0  0  2  0  0  0  0  0  0
  159.3780  210.7020  152.5550 O   0  0  0  0  0  1  0  0  0  0  0  0
  160.4570  210.0280  153.1300 C   0  0  1  0  0  3  0  0  0  0  0  0
  160.2850  209.9560  154.6530 C   0  0  2  0  0  3  0  0  0  0  0  0
  160.0810  212.3200  155.4020 C   0  0  0  0  0  2  0  0  0  0  0  0
  160.9970  211.1130  155.3500 C   0  0  0  0  0  3  0  0  0  0  0  0
  160.2700  211.4660  156.6350 C   0  0  0  0  0  2  0  0  0  0  0  0
  159.7420  207.9530  155.8830 O   0  0  0  0  0  1  0  0  0  0  0  0
  160.7720  208.6170  155.2130 C   0  0  0  0  0  2  0  0  0  0  0  0
  162.6740  206.3380  151.6060 C   0  0  0  0  0  2  0  0  0  0  0  0
  162.3310  205.8290  152.8580 O   0  0  0  0  0  1  0  0  0  0  0  0
  161.6050  206.9120  149.5020 N   0  0  0  0  0  2  0  0  0  0  0  0
  161.3020  205.3410  147.6270 C   0  0  0  0  0  0  0  0  0  0  0  0
  160.2810  203.4680  149.8200 C   0  0  0  0  0  3  0  0  0  0  0  0
  161.4980  204.0760  147.0420 C   0  0  0  0  0  0  0  0  0  0  0  0
  161.2330  203.8850  145.6830 C   0  0  0  0  0  3  0  0  0  0  0  0
  160.7720  204.9470  144.9010 C   0  0  0  0  0  3  0  0  0  0  0  0
  160.5390  201.3170  148.8980 O   0  0  0  0  0  0  0  0  0  0  0  0
  160.5490  204.7750  149.9270 C   0  0  0  0  0  3  0  0  0  0  0  0
  161.5650  205.5090  149.1040 C   0  0  2  0  0  3  0  0  0  0  0  0
  161.9550  202.9220  147.8760 C   0  0  0  0  0  2  0  0  0  0  0  0
  160.9020  202.5210  148.8670 C   0  0  0  0  0  0  0  0  0  0  0  0
  160.8260  206.3990  146.8370 C   0  0  0  0  0  3  0  0  0  0  0  0
  160.5680  206.2030  145.4780 C   0  0  0  0  0  3  0  0  0  0  0  0
  1  2  1  0  0  0  0
  1 13  1  1  0  0  0
  2  4  1  0  0  0  0
  3  2  2  0  0  0  0
  4  6  1  0  0  0  0
  6  5  1  6  0  0  0
  6  7  1  0  0  0  0
  7 12  1  1  0  0  0
  7  9  1  0  0  0  0
  8 10  1  0  0  0  0
  9  8  1  0  0  0  0
  9 10  1  0  0  0  0
 12 11  1  0  0  0  0
 13 14  1  0  0  0  0
 15  1  1  0  0  0  0
 16 23  1  0  0  0  0
 17 22  2  0  0  0  0
 18 16  1  0  0  0  0
 18 24  1  0  0  0  0
 19 18  2  0  0  0  0
 20 27  2  0  0  0  0
 20 19  1  0  0  0  0
 23 15  1  1  0  0  0
 23 22  1  0  0  0  0
 24 25  1  0  0  0  0
 25 21  2  0  0  0  0
 25 17  1  0  0  0  0
 26 16  2  0  0  0  0
 27 26  1  0  0  0  0
M  END
>  <MODEL>
6

>  <REMARK>
 VINA RESULT:      -7.4      1.440      2.458
  Name = 
  8 active torsions:
  status: ('A' for Active; 'I' for Inactive)
    1  A    between atoms: C_3  and  CA_13
    2  A    between atoms: N_4  and  CA_13
    3  A    between atoms: N_4  and  C_17
    4  A    between atoms: C_8  and  CA_13
    5  A    between atoms: C_9  and  C_12
    6  A    between atoms: C_10  and  C_12
    7  A    between atoms: C_10  and  N_24
    8  A    between atoms: C_12  and  C_25
                            x       y       z     vdW  Elec       q    Type
                         _______ _______ _______ _____ _____    ______ ____

>  <TORSDO>
F 8

$$$$
=
 OpenBabel11072412223D

 27 29  0  0  1  0  0  0  0  0999 V2000
  161.2040  208.4670  153.2970 C   0  0  2  0  0  3  0  0  0  0  0  0
  160.5640  208.7620  154.6180 C   0  0  0  0  0  0  0  0  0  0  0  0
  160.3360  207.8160  155.4190 O   0  0  0  0  0  0  0  0  0  0  0  0
  160.2190  210.1060  154.9650 N   0  0  0  0  0  2  0  0  0  0  0  0
  160.3350  210.4110  157.2610 O   0  0  0  0  0  1  0  0  0  0  0  0
  159.4670  210.4310  156.1680 C   0  0  1  0  0  3  0  0  0  0  0  0
  158.8200  211.8160  156.0310 C   0  0  2  0  0  3  0  0  0  0  0  0
  156.5680  210.9530  155.4170 C   0  0  0  0  0  2  0  0  0  0  0  0
  157.7280  211.8190  154.9630 C   0  0  0  0  0  3  0  0  0  0  0  0
  156.4680  212.4580  155.5170 C   0  0  0  0  0  2  0  0  0  0  0  0
  160.1040  213.6820  156.8600 O   0  0  0  0  0  1  0  0  0  0  0  0
  159.8600  212.8970  155.7310 C   0  0  0  0  0  2  0  0  0  0  0  0
  160.4720  209.1890  152.1770 C   0  0  0  0  0  2  0  0  0  0  0  0
  161.1190  210.3870  151.8780 O   0  0  0  0  0  1  0  0  0  0  0  0
  161.1920  207.0340  153.0380 N   0  0  0  0  0  2  0  0  0  0  0  0
  161.0420  205.3870  151.2120 C   0  0  0  0  0  0  0  0  0  0  0  0
  162.6810  207.4640  149.6750 C   0  0  0  0  0  3  0  0  0  0  0  0
  160.7450  205.0600  149.8760 C   0  0  0  0  0  0  0  0  0  0  0  0
  160.6430  203.7210  149.4880 C   0  0  0  0  0  3  0  0  0  0  0  0
  160.8380  202.7030  150.4250 C   0  0  0  0  0  3  0  0  0  0  0  0
  162.2680  206.9570  147.4130 O   0  0  0  0  0  0  0  0  0  0  0  0
  162.4030  207.4540  150.9850 C   0  0  0  0  0  3  0  0  0  0  0  0
  161.1780  206.8410  151.5930 C   0  0  2  0  0  3  0  0  0  0  0  0
  160.5710  206.1400  148.8560 C   0  0  0  0  0  2  0  0  0  0  0  0
  161.8650  206.8570  148.6010 C   0  0  0  0  0  0  0  0  0  0  0  0
  161.2490  204.3580  152.1430 C   0  0  0  0  0  3  0  0  0  0  0  0
  161.1420  203.0210  151.7510 C   0  0  0  0  0  3  0  0  0  0  0  0
  1 13  1  6  0  0  0
  1  2  1  0  0  0  0
  2  4  1  0  0  0  0
  2  3  2  0  0  0  0
  4  6  1  0  0  0  0
  6  5  1  1  0  0  0
  7 12  1  6  0  0  0
  7  6  1  0  0  0  0
  8 10  1  0  0  0  0
  9  8  1  0  0  0  0
  9 10  1  0  0  0  0
  9  7  1  0  0  0  0
 12 11  1  0  0  0  0
 14 13  1  0  0  0  0
 15  1  1  0  0  0  0
 16 23  1  0  0  0  0
 16 26  1  0  0  0  0
 17 22  2  0  0  0  0
 18 16  2  0  0  0  0
 19 18  1  0  0  0  0
 19 20  2  0  0  0  0
 20 27  1  0  0  0  0
 21 25  2  0  0  0  0
 22 23  1  0  0  0  0
 23 15  1  1  0  0  0
 24 18  1  0  0  0  0
 25 24  1  0  0  0  0
 25 17  1  0  0  0  0
 27 26  2  0  0  0  0
M  END
>  <MODEL>
7

>  <REMARK>
 VINA RESULT:      -7.3      2.687      4.573
  Name = 
  8 active torsions:
  status: ('A' for Active; 'I' for Inactive)
    1  A    between atoms: C_3  and  CA_13
    2  A    between atoms: N_4  and  CA_13
    3  A    between atoms: N_4  and  C_17
    4  A    between atoms: C_8  and  CA_13
    5  A    between atoms: C_9  and  C_12
    6  A    between atoms: C_10  and  C_12
    7  A    between atoms: C_10  and  N_24
    8  A    between atoms: C_12  and  C_25
                            x       y       z     vdW  Elec       q    Type
                         _______ _______ _______ _____ _____    ______ ____

>  <TORSDO>
F 8

$$$$
=
 OpenBabel11072412223D

 27 29  0  0  1  0  0  0  0  0999 V2000
  161.9350  207.3540  151.5380 C   0  0  2  0  0  3  0  0  0  0  0  0
  161.7500  207.3030  150.0540 C   0  0  0  0  0  0  0  0  0  0  0  0
  161.7570  208.3760  149.3930 O   0  0  0  0  0  0  0  0  0  0  0  0
  161.5720  206.0460  149.3950 N   0  0  0  0  0  2  0  0  0  0  0  0
  162.2440  206.5860  147.2420 O   0  0  0  0  0  1  0  0  0  0  0  0
  161.2450  205.9480  147.9800 C   0  0  1  0  0  3  0  0  0  0  0  0
  161.1350  204.4760  147.5610 C   0  0  2  0  0  3  0  0  0  0  0  0
  160.3460  202.9620  149.3710 C   0  0  0  0  0  2  0  0  0  0  0  0
  161.5700  203.5420  148.6880 C   0  0  0  0  0  3  0  0  0  0  0  0
  161.1240  202.1240  148.3820 C   0  0  0  0  0  2  0  0  0  0  0  0
  161.1150  203.7030  145.2760 O   0  0  0  0  0  1  0  0  0  0  0  0
  161.9410  204.1900  146.2920 C   0  0  0  0  0  2  0  0  0  0  0  0
  162.5300  206.0510  152.0470 C   0  0  0  0  0  2  0  0  0  0  0  0
  161.5490  205.0620  152.0890 O   0  0  0  0  0  1  0  0  0  0  0  0
  160.6590  207.5930  152.1980 N   0  0  0  0  0  2  0  0  0  0  0  0
  160.8630  208.3710  154.5270 C   0  0  0  0  0  0  0  0  0  0  0  0
  159.5940  210.9240  153.4180 C   0  0  0  0  0  3  0  0  0  0  0  0
  161.2760  209.3330  155.4680 C   0  0  0  0  0  0  0  0  0  0  0  0
  161.3010  209.0150  156.8300 C   0  0  0  0  0  3  0  0  0  0  0  0
  160.9140  207.7440  157.2610 C   0  0  0  0  0  3  0  0  0  0  0  0
  160.2080  212.5860  154.9670 O   0  0  0  0  0  0  0  0  0  0  0  0
  159.7230  209.7440  152.7970 C   0  0  0  0  0  3  0  0  0  0  0  0
  160.8160  208.7530  153.0680 C   0  0  2  0  0  3  0  0  0  0  0  0
  161.6560  210.7090  155.0220 C   0  0  0  0  0  2  0  0  0  0  0  0
  160.4670  211.4520  154.4890 C   0  0  0  0  0  0  0  0  0  0  0  0
  160.4650  207.1000  154.9720 C   0  0  0  0  0  3  0  0  0  0  0  0
  160.4950  206.7870  156.3320 C   0  0  0  0  0  3  0  0  0  0  0  0
  1 13  1  1  0  0  0
  1 15  1  0  0  0  0
  2  1  1  0  0  0  0
  3  2  2  0  0  0  0
  4  2  1  0  0  0  0
  6  5  1  6  0  0  0
  6  4  1  0  0  0  0
  7 12  1  6  0  0  0
  7  6  1  0  0  0  0
  7  9  1  0  0  0  0
  9  8  1  0  0  0  0
 10  9  1  0  0  0  0
 10  8  1  0  0  0  0
 11 12  1  0  0  0  0
 13 14  1  0  0  0  0
 16 26  2  0  0  0  0
 16 18  1  0  0  0  0
 17 25  1  0  0  0  0
 18 19  2  0  0  0  0
 19 20  1  0  0  0  0
 22 23  1  0  0  0  0
 22 17  2  0  0  0  0
 23 15  1  6  0  0  0
 23 16  1  0  0  0  0
 24 18  1  0  0  0  0
 25 21  2  0  0  0  0
 25 24  1  0  0  0  0
 26 27  1  0  0  0  0
 27 20  2  0  0  0  0
M  END
>  <MODEL>
8

>  <REMARK>
 VINA RESULT:      -7.0      1.564      8.407
  Name = 
  8 active torsions:
  status: ('A' for Active; 'I' for Inactive)
    1  A    between atoms: C_3  and  CA_13
    2  A    between atoms: N_4  and  CA_13
    3  A    between atoms: N_4  and  C_17
    4  A    between atoms: C_8  and  CA_13
    5  A    between atoms: C_9  and  C_12
    6  A    between atoms: C_10  and  C_12
    7  A    between atoms: C_10  and  N_24
    8  A    between atoms: C_12  and  C_25
                            x       y       z     vdW  Elec       q    Type
                         _______ _______ _______ _____ _____    ______ ____

>  <TORSDO>
F 8

$$$$
=
 OpenBabel11072412223D

 27 29  0  0  1  0  0  0  0  0999 V2000
  161.8010  207.3520  149.7440 C   0  0  2  0  0  3  0  0  0  0  0  0
  162.0760  207.6280  151.1890 C   0  0  0  0  0  0  0  0  0  0  0  0
  162.6000  206.7300  151.9000 O   0  0  0  0  0  0  0  0  0  0  0  0
  161.7470  208.9010  151.7520 N   0  0  0  0  0  2  0  0  0  0  0  0
  162.6220  210.3280  153.3570 O   0  0  0  0  0  1  0  0  0  0  0  0
  161.8580  209.1740  153.1770 C   0  0  1  0  0  3  0  0  0  0  0  0
  160.4640  209.3610  153.7920 C   0  0  2  0  0  3  0  0  0  0  0  0
  159.5730  211.4490  152.7740 C   0  0  0  0  0  2  0  0  0  0  0  0
  160.1550  210.8370  154.0340 C   0  0  0  0  0  3  0  0  0  0  0  0
  158.6600  211.0750  153.9200 C   0  0  0  0  0  2  0  0  0  0  0  0
  160.4990  207.2000  154.8640 O   0  0  0  0  0  1  0  0  0  0  0  0
  160.3080  208.5650  155.0900 C   0  0  0  0  0  2  0  0  0  0  0  0
  161.5690  208.6500  148.9870 C   0  0  0  0  0  2  0  0  0  0  0  0
  162.7190  209.0040  148.2830 O   0  0  0  0  0  1  0  0  0  0  0  0
  160.6300  206.4970  149.6060 N   0  0  0  0  0  2  0  0  0  0  0  0
  160.9390  204.1260  149.0080 C   0  0  0  0  0  0  0  0  0  0  0  0
  162.6590  205.2810  146.7560 C   0  0  0  0  0  3  0  0  0  0  0  0
  160.9120  203.0860  148.0600 C   0  0  0  0  0  0  0  0  0  0  0  0
  160.9870  201.7550  148.4790 C   0  0  0  0  0  3  0  0  0  0  0  0
  161.0910  201.4520  149.8390 C   0  0  0  0  0  3  0  0  0  0  0  0
  162.6970  203.5740  145.1350 O   0  0  0  0  0  0  0  0  0  0  0  0
  162.1520  205.9340  147.8090 C   0  0  0  0  0  3  0  0  0  0  0  0
  160.8900  205.5550  148.5230 C   0  0  2  0  0  3  0  0  0  0  0  0
  160.8400  203.3990  146.5990 C   0  0  0  0  0  2  0  0  0  0  0  0
  162.0970  204.0660  146.1260 C   0  0  0  0  0  0  0  0  0  0  0  0
  161.0560  203.8130  150.3710 C   0  0  0  0  0  3  0  0  0  0  0  0
  161.1270  202.4800  150.7840 C   0  0  0  0  0  3  0  0  0  0  0  0
  1 13  1  6  0  0  0
  1  2  1  0  0  0  0
  2  4  1  0  0  0  0
  2  3  2  0  0  0  0
  4  6  1  0  0  0  0
  6  5  1  6  0  0  0
  6  7  1  0  0  0  0
  7  9  1  0  0  0  0
  7 12  1  1  0  0  0
  8 10  1  0  0  0  0
  8  9  1  0  0  0  0
 10  9  1  0  0  0  0
 11 12  1  0  0  0  0
 14 13  1  0  0  0  0
 15  1  1  0  0  0  0
 16 26  1  0  0  0  0
 17 22  2  0  0  0  0
 18 19  1  0  0  0  0
 18 16  2  0  0  0  0
 19 20  2  0  0  0  0
 20 27  1  0  0  0  0
 21 25  2  0  0  0  0
 22 23  1  0  0  0  0
 23 16  1  0  0  0  0
 23 15  1  1  0  0  0
 24 18  1  0  0  0  0
 25 24  1  0  0  0  0
 25 17  1  0  0  0  0
 26 27  2  0  0  0  0
M  END
>  <MODEL>
9

>  <REMARK>
 VINA RESULT:      -7.0      1.703      3.351
  Name = 
  8 active torsions:
  status: ('A' for Active; 'I' for Inactive)
    1  A    between atoms: C_3  and  CA_13
    2  A    between atoms: N_4  and  CA_13
    3  A    between atoms: N_4  and  C_17
    4  A    between atoms: C_8  and  CA_13
    5  A    between atoms: C_9  and  C_12
    6  A    between atoms: C_10  and  C_12
    7  A    between atoms: C_10  and  N_24
    8  A    between atoms: C_12  and  C_25
                            x       y       z     vdW  Elec       q    Type
                         _______ _______ _______ _____ _____    ______ ____

>  <TORSDO>
F 8

$$$$
