=
 OpenBabel11072411203D

 42 48  0  0  1  0  0  0  0  0999 V2000
  161.1210  209.4040  153.8180 C   0  0  1  0  0  0  0  0  0  0  0  0
  160.5740  208.1060  153.2510 C   0  0  2  0  0  3  0  0  0  0  0  0
  161.9990  209.1990  151.5820 C   0  0  2  0  0  3  0  0  0  0  0  0
  161.6990  207.1230  152.9810 C   0  0  2  0  0  3  0  0  0  0  0  0
  160.7370  210.7240  153.1870 C   0  0  0  0  0  2  0  0  0  0  0  0
  161.1330  207.9660  151.8520 C   0  0  1  0  0  3  0  0  0  0  0  0
  161.6030  209.4340  155.1260 O   0  0  0  0  0  1  0  0  0  0  0  0
  162.0720  210.0550  152.8430 C   0  0  1  0  0  3  0  0  0  0  0  0
  161.4490  209.9560  150.5120 O   0  0  0  0  0  0  0  0  0  0  0  0
  162.0450  210.0210  149.2510 C   0  0  0  0  0  0  0  0  0  0  0  0
  162.2290  208.9800  148.5630 O   0  0  0  0  0  0  0  0  0  0  0  0
  162.5020  211.3360  148.7340 C   0  0  0  0  0  2  0  0  0  0  0  0
  162.4210  214.1040  147.9910 O   0  0  0  0  0  0  0  0  0  0  0  0
  161.3830  213.4110  147.8030 C   0  0  0  0  0  0  0  0  0  0  0  0
  161.3790  212.0130  148.1070 N   0  0  0  0  0  2  0  0  0  0  0  0
  157.5020  213.8850  146.3550 C   0  0  1  0  0  3  0  0  0  0  0  0
  159.0360  213.6600  148.2460 N   0  0  0  0  0  2  0  0  0  0  0  0
  157.1690  212.3980  146.1950 C   0  0  0  0  0  1  0  0  0  0  0  0
  160.8230  214.1670  145.0010 N   0  0  0  0  0  1  0  0  0  0  0  0
  157.7840  214.2680  147.8100 C   0  0  0  0  0  2  0  0  0  0  0  0
  159.7700  213.7210  145.8980 C   0  0  1  0  0  3  0  0  0  0  0  0
  160.1190  214.0830  147.3560 C   0  0  2  0  0  3  0  0  0  0  0  0
  158.5500  214.3020  145.4940 O   0  0  0  0  0  0  0  0  0  0  0  0
  161.1740  205.8340  152.9090 O   0  0  0  0  0  0  0  0  0  0  0  0
  161.7520  205.2920  151.7610 C   0  0  0  0  0  2  0  0  0  0  0  0
  160.8150  204.2700  151.1430 C   0  0  0  0  0  2  0  0  0  0  0  0
  160.9880  204.1500  147.2410 C   0  0  2  0  0  3  0  0  0  0  0  0
  160.8650  202.1270  145.6630 C   0  0  0  0  0  1  0  0  0  0  0  0
  161.4370  202.3880  149.4830 C   0  0  2  0  0  0  0  0  0  0  0  0
  160.4670  204.5880  148.6170 C   0  0  2  0  0  3  0  0  0  0  0  0
  161.4720  201.4920  150.5640 O   0  0  0  0  0  0  0  0  0  0  0  0
  160.5090  205.9800  148.7380 O   0  0  0  0  0  1  0  0  0  0  0  0
  161.2010  201.7140  148.1560 C   0  0  1  0  0  3  0  0  0  0  0  0
  161.2830  203.9090  149.7310 C   0  0  1  0  0  3  0  0  0  0  0  0
  160.1490  200.9580  148.6910 O   0  0  0  0  0  0  0  0  0  0  0  0
  160.2290  201.6500  149.9190 C   0  0  2  0  0  3  0  0  0  0  0  0
  160.6510  202.6570  147.0720 C   0  0  1  0  0  3  0  0  0  0  0  0
  162.4560  204.6050  147.0360 C   0  0  2  0  0  3  0  0  0  0  0  0
  162.6870  205.9090  147.7730 C   0  0  0  0  0  1  0  0  0  0  0  0
  162.9680  204.7390  145.6010 C   0  0  0  0  0  2  0  0  0  0  0  0
  162.2700  205.7380  144.9180 O   0  0  0  0  0  0  0  0  0  0  0  0
  161.5070  205.0940  144.0590 O   0  0  0  0  0  1  0  0  0  0  0  0
  1  7  1  1  0  0  0
  2  1  1  0  0  0  0
  3  6  1  0  0  0  0
  3  8  1  0  0  0  0
  4  2  1  0  0  0  0
  5  1  1  0  0  0  0
  6  4  1  0  0  0  0
  6  2  1  0  0  0  0
  8  5  1  0  0  0  0
  8  1  1  0  0  0  0
  9  3  1  0  0  0  0
 10  9  1  0  0  0  0
 11 10  2  0  0  0  0
 12 10  1  0  0  0  0
 14 13  2  0  0  0  0
 14 15  1  0  0  0  0
 15 12  1  0  0  0  0
 16 20  1  0  0  0  0
 18 16  1  0  0  0  0
 19 21  1  0  0  0  0
 20 17  1  0  0  0  0
 21 22  1  0  0  0  0
 22 14  1  0  0  0  0
 22 17  1  0  0  0  0
 23 21  1  0  0  0  0
 23 16  1  0  0  0  0
 24  4  1  0  0  0  0
 25 24  1  0  0  0  0
 26 25  1  0  0  0  0
 27 30  1  0  0  0  0
 28 37  1  0  0  0  0
 29 34  1  0  0  0  0
 29 36  1  0  0  0  0
 29 31  1  0  0  0  0
 30 32  1  0  0  0  0
 30 34  1  0  0  0  0
 33 35  1  0  0  0  0
 33 29  1  0  0  0  0
 34 26  1  0  0  0  0
 35 36  1  0  0  0  0
 36 31  1  0  0  0  0
 37 27  1  0  0  0  0
 37 33  1  0  0  0  0
 38 27  1  0  0  0  0
 38 39  1  0  0  0  0
 40 38  1  0  0  0  0
 41 40  1  0  0  0  0
 42 41  1  0  0  0  0
M  END
>  <MODEL>
1

>  <REMARK>
 VINA RESULT:      -7.6      0.000      0.000
  Name = 
  12 active torsions:
  status: ('A' for Active; 'I' for Inactive)
    1  A    between atoms: C_1  and  C_10
    2  A    between atoms: C_3  and  C_29
    3  A    between atoms: C_3  and  C_31
    4  A    between atoms: C_4  and  C_10
    5  A    between atoms: C_4  and  O_30
    6  A    between atoms: C_7  and  C_11
    7  A    between atoms: C_7  and  O_18
    8  A    between atoms: C_11  and  N_26
    9  A    between atoms: C_13  and  O_18
   10  A    between atoms: C_22  and  C_38
   11  A    between atoms: C_23  and  O_32
   12  A    between atoms: C_31  and  O_32
                            x       y       z     vdW  Elec       q    Type
                         _______ _______ _______ _____ _____    ______ ____

>  <TORSDO>
F 12

$$$$
=
 OpenBabel11072411203D

 42 48  0  0  1  0  0  0  0  0999 V2000
  161.0430  208.2200  155.6470 C   0  0  1  0  0  0  0  0  0  0  0  0
  160.6160  207.0840  154.7350 C   0  0  2  0  0  3  0  0  0  0  0  0
  161.3010  209.0110  153.3840 C   0  0  2  0  0  3  0  0  0  0  0  0
  161.7890  206.5930  153.9050 C   0  0  2  0  0  3  0  0  0  0  0  0
  160.2620  209.5150  155.6560 C   0  0  0  0  0  2  0  0  0  0  0  0
  160.7890  207.5710  153.3130 C   0  0  1  0  0  3  0  0  0  0  0  0
  161.8480  207.9490  156.7530 O   0  0  0  0  0  1  0  0  0  0  0  0
  161.5530  209.3900  154.8420 C   0  0  1  0  0  3  0  0  0  0  0  0
  160.3500  209.8970  152.8100 O   0  0  0  0  0  0  0  0  0  0  0  0
  160.6970  210.8700  151.8720 C   0  0  0  0  0  0  0  0  0  0  0  0
  161.5590  210.6380  150.9810 O   0  0  0  0  0  0  0  0  0  0  0  0
  160.0650  212.2110  151.9530 C   0  0  0  0  0  2  0  0  0  0  0  0
  158.9800  214.4530  153.3730 O   0  0  0  0  0  0  0  0  0  0  0  0
  158.5050  213.3100  153.6200 C   0  0  0  0  0  0  0  0  0  0  0  0
  158.9700  212.1610  152.9070 N   0  0  0  0  0  2  0  0  0  0  0  0
  155.6120  211.5730  156.0690 C   0  0  1  0  0  3  0  0  0  0  0  0
  157.9630  212.0340  155.5810 N   0  0  0  0  0  2  0  0  0  0  0  0
  155.5200  210.2290  155.3420 C   0  0  0  0  0  1  0  0  0  0  0  0
  155.6360  213.9880  153.4020 N   0  0  0  0  0  1  0  0  0  0  0  0
  157.0020  211.8260  156.6580 C   0  0  0  0  0  2  0  0  0  0  0  0
  156.0990  212.8720  154.2100 C   0  0  1  0  0  3  0  0  0  0  0  0
  157.5210  213.1480  154.7400 C   0  0  2  0  0  3  0  0  0  0  0  0
  155.1830  212.6580  155.2610 O   0  0  0  0  0  0  0  0  0  0  0  0
  161.5150  205.3080  153.4390 O   0  0  0  0  0  0  0  0  0  0  0  0
  161.6350  205.4120  152.0550 C   0  0  0  0  0  2  0  0  0  0  0  0
  160.7280  204.3990  151.3790 C   0  0  0  0  0  2  0  0  0  0  0  0
  160.8940  204.4200  147.4750 C   0  0  2  0  0  3  0  0  0  0  0  0
  160.9130  202.4460  145.8320 C   0  0  0  0  0  1  0  0  0  0  0  0
  161.4810  202.6230  149.6570 C   0  0  2  0  0  0  0  0  0  0  0  0
  160.3480  204.7730  148.8660 C   0  0  2  0  0  3  0  0  0  0  0  0
  161.5870  201.6970  150.7070 O   0  0  0  0  0  0  0  0  0  0  0  0
  160.2870  206.1590  149.0320 O   0  0  0  0  0  1  0  0  0  0  0  0
  161.2890  201.9770  148.3080 C   0  0  1  0  0  3  0  0  0  0  0  0
  161.2160  204.1190  149.9550 C   0  0  1  0  0  3  0  0  0  0  0  0
  160.2990  201.1290  148.8200 O   0  0  0  0  0  0  0  0  0  0  0  0
  160.3320  201.7840  150.0700 C   0  0  2  0  0  3  0  0  0  0  0  0
  160.6670  202.9130  147.2570 C   0  0  1  0  0  3  0  0  0  0  0  0
  162.3240  204.9880  147.2820 C   0  0  2  0  0  3  0  0  0  0  0  0
  162.3370  206.4570  147.6570 C   0  0  0  0  0  1  0  0  0  0  0  0
  162.9840  204.8110  145.9140 C   0  0  0  0  0  2  0  0  0  0  0  0
  162.6350  205.8570  145.0570 O   0  0  0  0  0  0  0  0  0  0  0  0
  161.8090  205.3210  144.1830 O   0  0  0  0  0  1  0  0  0  0  0  0
  1  5  1  0  0  0  0
  1  7  1  1  0  0  0
  2  1  1  0  0  0  0
  3  8  1  0  0  0  0
  4  2  1  0  0  0  0
  6  3  1  0  0  0  0
  6  4  1  0  0  0  0
  6  2  1  0  0  0  0
  8  1  1  0  0  0  0
  8  5  1  0  0  0  0
  9  3  1  0  0  0  0
 10 12  1  0  0  0  0
 10  9  1  0  0  0  0
 11 10  2  0  0  0  0
 12 15  1  0  0  0  0
 13 14  2  0  0  0  0
 14 22  1  0  0  0  0
 15 14  1  0  0  0  0
 16 20  1  0  0  0  0
 17 20  1  0  0  0  0
 18 16  1  0  0  0  0
 19 21  1  0  0  0  0
 21 22  1  0  0  0  0
 21 23  1  0  0  0  0
 22 17  1  0  0  0  0
 23 16  1  0  0  0  0
 24  4  1  0  0  0  0
 25 24  1  0  0  0  0
 26 25  1  0  0  0  0
 27 30  1  0  0  0  0
 28 37  1  0  0  0  0
 29 34  1  0  0  0  0
 29 36  1  0  0  0  0
 29 31  1  0  0  0  0
 30 32  1  0  0  0  0
 30 34  1  0  0  0  0
 33 35  1  0  0  0  0
 33 29  1  0  0  0  0
 34 26  1  0  0  0  0
 35 36  1  0  0  0  0
 36 31  1  0  0  0  0
 37 27  1  0  0  0  0
 37 33  1  0  0  0  0
 38 27  1  0  0  0  0
 38 39  1  0  0  0  0
 40 38  1  0  0  0  0
 41 40  1  0  0  0  0
 42 41  1  0  0  0  0
M  END
>  <MODEL>
2

>  <REMARK>
 VINA RESULT:      -7.4      3.245      4.575
  Name = 
  12 active torsions:
  status: ('A' for Active; 'I' for Inactive)
    1  A    between atoms: C_1  and  C_10
    2  A    between atoms: C_3  and  C_29
    3  A    between atoms: C_3  and  C_31
    4  A    between atoms: C_4  and  C_10
    5  A    between atoms: C_4  and  O_30
    6  A    between atoms: C_7  and  C_11
    7  A    between atoms: C_7  and  O_18
    8  A    between atoms: C_11  and  N_26
    9  A    between atoms: C_13  and  O_18
   10  A    between atoms: C_22  and  C_38
   11  A    between atoms: C_23  and  O_32
   12  A    between atoms: C_31  and  O_32
                            x       y       z     vdW  Elec       q    Type
                         _______ _______ _______ _____ _____    ______ ____

>  <TORSDO>
F 12

$$$$
=
 OpenBabel11072411203D

 42 48  0  0  1  0  0  0  0  0999 V2000
  161.6970  208.4710  152.0210 C   0  0  1  0  0  0  0  0  0  0  0  0
  162.3990  207.1280  152.1110 C   0  0  2  0  0  3  0  0  0  0  0  0
  160.9600  207.4380  154.0710 C   0  0  2  0  0  3  0  0  0  0  0  0
  161.3930  205.9920  152.0520 C   0  0  2  0  0  3  0  0  0  0  0  0
  161.9790  209.5400  153.0530 C   0  0  0  0  0  2  0  0  0  0  0  0
  161.9290  206.4700  153.3900 C   0  0  1  0  0  3  0  0  0  0  0  0
  161.1480  208.8800  150.8070 O   0  0  0  0  0  1  0  0  0  0  0  0
  160.7370  208.6520  153.1720 C   0  0  1  0  0  3  0  0  0  0  0  0
  161.4850  207.8530  155.3250 O   0  0  0  0  0  0  0  0  0  0  0  0
  160.7240  207.8610  156.4950 C   0  0  0  0  0  0  0  0  0  0  0  0
  160.1300  206.8220  156.8930 O   0  0  0  0  0  0  0  0  0  0  0  0
  160.5850  209.1260  157.2600 C   0  0  0  0  0  2  0  0  0  0  0  0
  160.9680  211.5630  155.7990 O   0  0  0  0  0  0  0  0  0  0  0  0
  159.7850  211.1630  155.9810 C   0  0  0  0  0  0  0  0  0  0  0  0
  159.5320  209.9280  156.6580 N   0  0  0  0  0  2  0  0  0  0  0  0
  155.9480  212.3010  154.8140 C   0  0  1  0  0  3  0  0  0  0  0  0
  157.5890  211.9220  156.5860 N   0  0  0  0  0  2  0  0  0  0  0  0
  155.3160  210.9060  154.8290 C   0  0  0  0  0  1  0  0  0  0  0  0
  159.1090  211.7880  153.1720 N   0  0  0  0  0  1  0  0  0  0  0  0
  156.4430  212.7350  156.1950 C   0  0  0  0  0  2  0  0  0  0  0  0
  158.0830  211.6410  154.1920 C   0  0  1  0  0  3  0  0  0  0  0  0
  158.6400  212.0410  155.5740 C   0  0  2  0  0  3  0  0  0  0  0  0
  156.9660  212.4240  153.8320 O   0  0  0  0  0  0  0  0  0  0  0  0
  162.0470  204.8190  151.6800 O   0  0  0  0  0  0  0  0  0  0  0  0
  161.0410  204.0260  151.1300 C   0  0  0  0  0  2  0  0  0  0  0  0
  160.1860  204.8530  150.1880 C   0  0  0  0  0  2  0  0  0  0  0  0
  161.9820  203.2700  147.0990 C   0  0  2  0  0  3  0  0  0  0  0  0
  163.3400  204.4080  145.2400 C   0  0  0  0  0  1  0  0  0  0  0  0
  160.9260  205.8310  147.9110 C   0  0  2  0  0  0  0  0  0  0  0  0
  161.6400  203.4710  148.5830 C   0  0  2  0  0  3  0  0  0  0  0  0
  160.5800  207.1070  148.3830 O   0  0  0  0  0  0  0  0  0  0  0  0
  161.2150  202.2690  149.1550 O   0  0  0  0  0  1  0  0  0  0  0  0
  161.9350  205.8620  146.7920 C   0  0  1  0  0  3  0  0  0  0  0  0
  160.5720  204.5680  148.7340 C   0  0  1  0  0  3  0  0  0  0  0  0
  162.7340  206.7730  147.4950 O   0  0  0  0  0  0  0  0  0  0  0  0
  161.9000  206.6820  148.6310 C   0  0  2  0  0  3  0  0  0  0  0  0
  162.7030  204.5410  146.6140 C   0  0  1  0  0  3  0  0  0  0  0  0
  160.7440  202.7740  146.3090 C   0  0  2  0  0  3  0  0  0  0  0  0
  160.8420  201.2750  146.1070 C   0  0  0  0  0  1  0  0  0  0  0  0
  160.4360  203.4440  144.9690 C   0  0  0  0  0  2  0  0  0  0  0  0
  159.5340  202.6780  144.2280 O   0  0  0  0  0  0  0  0  0  0  0  0
  158.5380  203.4950  143.9530 O   0  0  0  0  0  1  0  0  0  0  0  0
  1  7  1  6  0  0  0
  1  2  1  0  0  0  0
  1  5  1  0  0  0  0
  1  8  1  0  0  0  0
  2  6  1  0  0  0  0
  3  9  1  0  0  0  0
  4  2  1  0  0  0  0
  4  6  1  0  0  0  0
  5  8  1  0  0  0  0
  6  3  1  0  0  0  0
  8  3  1  0  0  0  0
  9 10  1  0  0  0  0
 10 11  2  0  0  0  0
 10 12  1  0  0  0  0
 13 14  2  0  0  0  0
 14 15  1  0  0  0  0
 15 12  1  0  0  0  0
 16 18  1  0  0  0  0
 16 20  1  0  0  0  0
 19 21  1  0  0  0  0
 20 17  1  0  0  0  0
 21 22  1  0  0  0  0
 22 14  1  0  0  0  0
 22 17  1  0  0  0  0
 23 21  1  0  0  0  0
 23 16  1  0  0  0  0
 24  4  1  0  0  0  0
 25 24  1  0  0  0  0
 26 25  1  0  0  0  0
 27 30  1  0  0  0  0
 28 37  1  0  0  0  0
 29 31  1  0  0  0  0
 29 36  1  0  0  0  0
 29 34  1  0  0  0  0
 30 34  1  0  0  0  0
 30 32  1  0  0  0  0
 31 36  1  0  0  0  0
 33 35  1  0  0  0  0
 33 29  1  0  0  0  0
 34 26  1  0  0  0  0
 35 36  1  0  0  0  0
 37 33  1  0  0  0  0
 37 27  1  0  0  0  0
 38 27  1  0  0  0  0
 39 38  1  0  0  0  0
 40 38  1  0  0  0  0
 41 40  1  0  0  0  0
 42 41  1  0  0  0  0
M  END
>  <MODEL>
3

>  <REMARK>
 VINA RESULT:      -7.3      3.978      5.761
  Name = 
  12 active torsions:
  status: ('A' for Active; 'I' for Inactive)
    1  A    between atoms: C_1  and  C_10
    2  A    between atoms: C_3  and  C_29
    3  A    between atoms: C_3  and  C_31
    4  A    between atoms: C_4  and  C_10
    5  A    between atoms: C_4  and  O_30
    6  A    between atoms: C_7  and  C_11
    7  A    between atoms: C_7  and  O_18
    8  A    between atoms: C_11  and  N_26
    9  A    between atoms: C_13  and  O_18
   10  A    between atoms: C_22  and  C_38
   11  A    between atoms: C_23  and  O_32
   12  A    between atoms: C_31  and  O_32
                            x       y       z     vdW  Elec       q    Type
                         _______ _______ _______ _____ _____    ______ ____

>  <TORSDO>
F 12

$$$$
=
 OpenBabel11072411203D

 42 48  0  0  1  0  0  0  0  0999 V2000
  161.0650  204.3960  150.5290 C   0  0  1  0  0  0  0  0  0  0  0  0
  161.7850  204.9010  151.7660 C   0  0  2  0  0  3  0  0  0  0  0  0
  161.2210  206.7920  150.3110 C   0  0  2  0  0  3  0  0  0  0  0  0
  160.8690  205.7850  152.5950 C   0  0  2  0  0  3  0  0  0  0  0  0
  161.6980  204.5660  149.1660 C   0  0  0  0  0  2  0  0  0  0  0  0
  161.8730  206.4070  151.6410 C   0  0  1  0  0  3  0  0  0  0  0  0
  160.0720  203.4260  150.6580 O   0  0  0  0  0  1  0  0  0  0  0  0
  160.6290  205.5470  149.6560 C   0  0  1  0  0  3  0  0  0  0  0  0
  162.1840  207.3840  149.4490 O   0  0  0  0  0  0  0  0  0  0  0  0
  161.9030  208.4990  148.6590 C   0  0  0  0  0  0  0  0  0  0  0  0
  161.5800  208.3740  147.4470 O   0  0  0  0  0  0  0  0  0  0  0  0
  162.0240  209.8550  149.2530 C   0  0  0  0  0  2  0  0  0  0  0  0
  161.2770  212.5760  149.7640 O   0  0  0  0  0  0  0  0  0  0  0  0
  161.2730  212.1760  148.5660 C   0  0  0  0  0  0  0  0  0  0  0  0
  161.6850  210.8450  148.2440 N   0  0  0  0  0  2  0  0  0  0  0  0
  160.3850  213.6310  144.7610 C   0  0  1  0  0  3  0  0  0  0  0  0
  159.7400  212.3240  146.7240 N   0  0  0  0  0  2  0  0  0  0  0  0
  161.0150  212.4870  143.9610 C   0  0  0  0  0  1  0  0  0  0  0  0
  162.8330  214.3450  147.3000 N   0  0  0  0  0  1  0  0  0  0  0  0
  159.2280  213.1600  145.6450 C   0  0  0  0  0  2  0  0  0  0  0  0
  161.8550  213.5690  146.5540 C   0  0  1  0  0  3  0  0  0  0  0  0
  160.7360  213.0740  147.4920 C   0  0  2  0  0  3  0  0  0  0  0  0
  161.3450  214.3640  145.5060 O   0  0  0  0  0  0  0  0  0  0  0  0
  161.3570  205.8570  153.8990 O   0  0  0  0  0  0  0  0  0  0  0  0
  160.6370  206.9000  154.4780 C   0  0  0  0  0  2  0  0  0  0  0  0
  161.4190  208.1960  154.3610 C   0  0  0  0  0  2  0  0  0  0  0  0
  159.7800  211.7340  154.6290 C   0  0  2  0  0  3  0  0  0  0  0  0
  159.9670  213.4810  156.5030 C   0  0  0  0  0  1  0  0  0  0  0  0
  160.8890  209.7230  156.3800 C   0  0  2  0  0  0  0  0  0  0  0  0
  160.6130  210.6080  153.9980 C   0  0  2  0  0  3  0  0  0  0  0  0
  161.5930  208.8280  157.2000 O   0  0  0  0  0  0  0  0  0  0  0  0
  160.1430  210.3100  152.7160 O   0  0  0  0  0  1  0  0  0  0  0  0
  160.8020  211.1150  156.9510 C   0  0  1  0  0  3  0  0  0  0  0  0
  160.5910  209.3640  154.9030 C   0  0  1  0  0  3  0  0  0  0  0  0
  162.1700  211.1090  157.2550 O   0  0  0  0  0  0  0  0  0  0  0  0
  162.3440  209.8650  156.6120 C   0  0  2  0  0  3  0  0  0  0  0  0
  160.5180  212.2000  155.8980 C   0  0  1  0  0  3  0  0  0  0  0  0
  158.2910  211.3180  154.7500 C   0  0  2  0  0  3  0  0  0  0  0  0
  157.4520  212.1760  153.8250 C   0  0  0  0  0  1  0  0  0  0  0  0
  157.6620  211.3150  156.1440 C   0  0  0  0  0  2  0  0  0  0  0  0
  156.3440  211.7740  156.0930 O   0  0  0  0  0  0  0  0  0  0  0  0
  156.1390  212.3510  157.2590 O   0  0  0  0  0  1  0  0  0  0  0  0
  1  7  1  1  0  0  0
  1  2  1  0  0  0  0
  2  4  1  0  0  0  0
  3  6  1  0  0  0  0
  4 24  1  0  0  0  0
  5  8  1  0  0  0  0
  5  1  1  0  0  0  0
  6  2  1  0  0  0  0
  6  4  1  0  0  0  0
  8  3  1  0  0  0  0
  8  1  1  0  0  0  0
  9  3  1  0  0  0  0
 10 12  1  0  0  0  0
 10  9  1  0  0  0  0
 11 10  2  0  0  0  0
 14 13  2  0  0  0  0
 15 14  1  0  0  0  0
 15 12  1  0  0  0  0
 16 23  1  0  0  0  0
 16 20  1  0  0  0  0
 17 22  1  0  0  0  0
 18 16  1  0  0  0  0
 20 17  1  0  0  0  0
 21 19  1  0  0  0  0
 21 22  1  0  0  0  0
 22 14  1  0  0  0  0
 23 21  1  0  0  0  0
 24 25  1  0  0  0  0
 26 25  1  0  0  0  0
 26 34  1  0  0  0  0
 27 38  1  0  0  0  0
 27 37  1  0  0  0  0
 29 36  1  0  0  0  0
 29 33  1  0  0  0  0
 29 31  1  0  0  0  0
 30 27  1  0  0  0  0
 30 34  1  0  0  0  0
 32 30  1  0  0  0  0
 33 35  1  0  0  0  0
 34 29  1  0  0  0  0
 36 31  1  0  0  0  0
 36 35  1  0  0  0  0
 37 28  1  0  0  0  0
 37 33  1  0  0  0  0
 38 40  1  0  0  0  0
 39 38  1  0  0  0  0
 41 40  1  0  0  0  0
 41 42  1  0  0  0  0
M  END
>  <MODEL>
4

>  <REMARK>
 VINA RESULT:      -7.2      2.548      7.792
  Name = 
  12 active torsions:
  status: ('A' for Active; 'I' for Inactive)
    1  A    between atoms: C_1  and  C_10
    2  A    between atoms: C_3  and  C_29
    3  A    between atoms: C_3  and  C_31
    4  A    between atoms: C_4  and  C_10
    5  A    between atoms: C_4  and  O_30
    6  A    between atoms: C_7  and  C_11
    7  A    between atoms: C_7  and  O_18
    8  A    between atoms: C_11  and  N_26
    9  A    between atoms: C_13  and  O_18
   10  A    between atoms: C_22  and  C_38
   11  A    between atoms: C_23  and  O_32
   12  A    between atoms: C_31  and  O_32
                            x       y       z     vdW  Elec       q    Type
                         _______ _______ _______ _____ _____    ______ ____

>  <TORSDO>
F 12

$$$$
=
 OpenBabel11072411203D

 42 48  0  0  1  0  0  0  0  0999 V2000
  161.1650  206.3740  153.3130 C   0  0  1  0  0  0  0  0  0  0  0  0
  161.9810  207.2530  152.3830 C   0  0  2  0  0  3  0  0  0  0  0  0
  160.9630  205.4250  151.1060 C   0  0  2  0  0  3  0  0  0  0  0  0
  161.0840  207.9300  151.3610 C   0  0  2  0  0  3  0  0  0  0  0  0
  161.5650  204.9320  153.5330 C   0  0  0  0  0  2  0  0  0  0  0  0
  161.8460  206.6690  150.9930 C   0  0  1  0  0  3  0  0  0  0  0  0
  160.3410  206.9640  154.2710 O   0  0  0  0  0  1  0  0  0  0  0  0
  160.4550  205.2890  152.5400 C   0  0  1  0  0  3  0  0  0  0  0  0
  161.7020  204.2670  150.7420 O   0  0  0  0  0  0  0  0  0  0  0  0
  161.2070  202.9730  150.9130 C   0  0  0  0  0  0  0  0  0  0  0  0
  161.5360  202.2770  151.9120 O   0  0  0  0  0  0  0  0  0  0  0  0
  160.3090  202.3980  149.8790 C   0  0  0  0  0  2  0  0  0  0  0  0
  161.4330  201.1340  147.5640 O   0  0  0  0  0  0  0  0  0  0  0  0
  161.1870  202.3710  147.5010 C   0  0  0  0  0  0  0  0  0  0  0  0
  160.5790  203.0470  148.6060 N   0  0  0  0  0  2  0  0  0  0  0  0
  161.3640  205.4140  144.6570 C   0  0  1  0  0  3  0  0  0  0  0  0
  162.1520  204.4400  146.7570 N   0  0  0  0  0  2  0  0  0  0  0  0
  160.2680  206.3030  145.2510 C   0  0  0  0  0  1  0  0  0  0  0  0
  159.9630  202.1040  144.8240 N   0  0  0  0  0  1  0  0  0  0  0  0
  162.5540  205.2380  145.6040 C   0  0  0  0  0  2  0  0  0  0  0  0
  160.4670  203.3780  145.3110 C   0  0  1  0  0  3  0  0  0  0  0  0
  161.6290  203.1500  146.3000 C   0  0  2  0  0  3  0  0  0  0  0  0
  160.8640  204.1630  144.2090 O   0  0  0  0  0  0  0  0  0  0  0  0
  161.7420  209.0420  150.8380 O   0  0  0  0  0  0  0  0  0  0  0  0
  161.0810  210.1300  151.4070 C   0  0  0  0  0  2  0  0  0  0  0  0
  161.6650  210.4310  152.7750 C   0  0  0  0  0  2  0  0  0  0  0  0
  159.1040  212.6590  154.7120 C   0  0  2  0  0  3  0  0  0  0  0  0
  158.8340  213.0130  157.2410 C   0  0  0  0  0  1  0  0  0  0  0  0
  160.7730  210.3550  155.2020 C   0  0  2  0  0  0  0  0  0  0  0  0
  160.2050  212.3370  153.6910 C   0  0  2  0  0  3  0  0  0  0  0  0
  161.7200  209.3570  155.4830 O   0  0  0  0  0  0  0  0  0  0  0  0
  159.8080  212.7160  152.4050 O   0  0  0  0  0  1  0  0  0  0  0  0
  160.3120  211.1030  156.4260 C   0  0  1  0  0  3  0  0  0  0  0  0
  160.5540  210.8400  153.7470 C   0  0  1  0  0  3  0  0  0  0  0  0
  161.6320  211.2600  156.8670 O   0  0  0  0  0  0  0  0  0  0  0  0
  162.1350  210.6900  155.6770 C   0  0  2  0  0  3  0  0  0  0  0  0
  159.7090  212.4850  156.1170 C   0  0  1  0  0  3  0  0  0  0  0  0
  157.7950  211.9000  154.3710 C   0  0  2  0  0  3  0  0  0  0  0  0
  156.7900  212.8680  153.7790 C   0  0  0  0  0  1  0  0  0  0  0  0
  157.1250  211.0970  155.4860 C   0  0  0  0  0  2  0  0  0  0  0  0
  155.7360  211.2360  155.4310 O   0  0  0  0  0  0  0  0  0  0  0  0
  155.2870  210.0460  155.0890 O   0  0  0  0  0  1  0  0  0  0  0  0
  1  5  1  0  0  0  0
  1  7  1  1  0  0  0
  2  1  1  0  0  0  0
  3  8  1  0  0  0  0
  4  2  1  0  0  0  0
  6  3  1  0  0  0  0
  6  4  1  0  0  0  0
  6  2  1  0  0  0  0
  8  1  1  0  0  0  0
  8  5  1  0  0  0  0
  9 10  1  0  0  0  0
  9  3  1  0  0  0  0
 10 11  2  0  0  0  0
 12 10  1  0  0  0  0
 14 13  2  0  0  0  0
 14 15  1  0  0  0  0
 15 12  1  0  0  0  0
 16 18  1  0  0  0  0
 16 20  1  0  0  0  0
 19 21  1  0  0  0  0
 20 17  1  0  0  0  0
 21 22  1  0  0  0  0
 22 17  1  0  0  0  0
 22 14  1  0  0  0  0
 23 16  1  0  0  0  0
 23 21  1  0  0  0  0
 24  4  1  0  0  0  0
 24 25  1  0  0  0  0
 25 26  1  0  0  0  0
 26 34  1  0  0  0  0
 27 37  1  0  0  0  0
 29 31  1  0  0  0  0
 29 36  1  0  0  0  0
 29 33  1  0  0  0  0
 30 34  1  0  0  0  0
 30 27  1  0  0  0  0
 31 36  1  0  0  0  0
 32 30  1  0  0  0  0
 33 35  1  0  0  0  0
 34 29  1  0  0  0  0
 36 35  1  0  0  0  0
 37 33  1  0  0  0  0
 37 28  1  0  0  0  0
 38 27  1  0  0  0  0
 38 40  1  0  0  0  0
 39 38  1  0  0  0  0
 41 40  1  0  0  0  0
 42 41  1  0  0  0  0
M  END
>  <MODEL>
5

>  <REMARK>
 VINA RESULT:      -6.9      3.961      9.530
  Name = 
  12 active torsions:
  status: ('A' for Active; 'I' for Inactive)
    1  A    between atoms: C_1  and  C_10
    2  A    between atoms: C_3  and  C_29
    3  A    between atoms: C_3  and  C_31
    4  A    between atoms: C_4  and  C_10
    5  A    between atoms: C_4  and  O_30
    6  A    between atoms: C_7  and  C_11
    7  A    between atoms: C_7  and  O_18
    8  A    between atoms: C_11  and  N_26
    9  A    between atoms: C_13  and  O_18
   10  A    between atoms: C_22  and  C_38
   11  A    between atoms: C_23  and  O_32
   12  A    between atoms: C_31  and  O_32
                            x       y       z     vdW  Elec       q    Type
                         _______ _______ _______ _____ _____    ______ ____

>  <TORSDO>
F 12

$$$$
=
 OpenBabel11072411203D

 42 48  0  0  1  0  0  0  0  0999 V2000
  160.6770  213.1900  149.1160 C   0  0  1  0  0  0  0  0  0  0  0  0
  160.6490  211.8410  148.4190 C   0  0  2  0  0  3  0  0  0  0  0  0
  162.4850  213.1960  147.5210 C   0  0  2  0  0  3  0  0  0  0  0  0
  161.9120  211.0550  148.7240 C   0  0  2  0  0  3  0  0  0  0  0  0
  160.4190  214.4530  148.3260 C   0  0  0  0  0  2  0  0  0  0  0  0
  161.7910  211.8350  147.4260 C   0  0  1  0  0  3  0  0  0  0  0  0
  160.5100  213.2530  150.4990 O   0  0  0  0  0  1  0  0  0  0  0  0
  161.8510  214.0120  148.6450 C   0  0  1  0  0  3  0  0  0  0  0  0
  162.3650  213.8920  146.2880 O   0  0  0  0  0  0  0  0  0  0  0  0
  161.7730  213.3260  145.1580 C   0  0  0  0  0  0  0  0  0  0  0  0
  160.6220  212.8130  145.2130 O   0  0  0  0  0  0  0  0  0  0  0  0
  162.5310  213.2980  143.8810 C   0  0  0  0  0  2  0  0  0  0  0  0
  162.9650  212.9950  141.0630 O   0  0  0  0  0  0  0  0  0  0  0  0
  162.2420  212.1400  141.6450 C   0  0  0  0  0  0  0  0  0  0  0  0
  162.0310  212.2090  143.0590 N   0  0  0  0  0  2  0  0  0  0  0  0
  160.9410  209.9840  138.3220 C   0  0  1  0  0  3  0  0  0  0  0  0
  162.5210  210.2680  140.1670 N   0  0  0  0  0  2  0  0  0  0  0  0
  161.7340  210.7560  137.2640 C   0  0  0  0  0  1  0  0  0  0  0  0
  159.5830  212.5680  140.4270 N   0  0  0  0  0  1  0  0  0  0  0  0
  161.8480  209.2780  139.3340 C   0  0  0  0  0  2  0  0  0  0  0  0
  160.6020  211.7580  139.7770 C   0  0  1  0  0  3  0  0  0  0  0  0
  161.5210  211.1080  140.8310 C   0  0  2  0  0  3  0  0  0  0  0  0
  159.9690  210.7910  138.9680 O   0  0  0  0  0  0  0  0  0  0  0  0
  161.6810  209.7030  148.4780 O   0  0  0  0  0  0  0  0  0  0  0  0
  162.3330  209.0480  149.5220 C   0  0  0  0  0  2  0  0  0  0  0  0
  161.3670  208.1200  150.2340 C   0  0  0  0  0  2  0  0  0  0  0  0
  160.7780  204.5950  148.6520 C   0  0  2  0  0  3  0  0  0  0  0  0
  160.8350  202.2780  149.7600 C   0  0  0  0  0  1  0  0  0  0  0  0
  162.0810  205.7420  150.9590 C   0  0  2  0  0  0  0  0  0  0  0  0
  160.4540  206.0520  149.0130 C   0  0  2  0  0  3  0  0  0  0  0  0
  162.5480  206.2860  152.1660 O   0  0  0  0  0  0  0  0  0  0  0  0
  160.1800  206.7930  147.8600 O   0  0  0  0  0  1  0  0  0  0  0  0
  161.7540  204.2740  151.0520 C   0  0  1  0  0  3  0  0  0  0  0  0
  161.6160  206.6690  149.8090 C   0  0  1  0  0  3  0  0  0  0  0  0
  161.0460  204.4750  152.2450 O   0  0  0  0  0  0  0  0  0  0  0  0
  161.2000  205.8740  152.1420 C   0  0  2  0  0  3  0  0  0  0  0  0
  160.7860  203.7840  149.9610 C   0  0  1  0  0  3  0  0  0  0  0  0
  162.0210  204.5190  147.7270 C   0  0  2  0  0  3  0  0  0  0  0  0
  162.3380  205.9020  147.1940 C   0  0  0  0  0  1  0  0  0  0  0  0
  161.9850  203.5260  146.5640 C   0  0  0  0  0  2  0  0  0  0  0  0
  160.9810  202.5740  146.7570 O   0  0  0  0  0  0  0  0  0  0  0  0
  160.6930  202.1340  145.5490 O   0  0  0  0  0  1  0  0  0  0  0  0
  1  7  1  1  0  0  0
  2  4  1  0  0  0  0
  2  1  1  0  0  0  0
  3  8  1  0  0  0  0
  5  8  1  0  0  0  0
  5  1  1  0  0  0  0
  6  3  1  0  0  0  0
  6  2  1  0  0  0  0
  6  4  1  0  0  0  0
  8  1  1  0  0  0  0
  9  3  1  0  0  0  0
 10 11  2  0  0  0  0
 10  9  1  0  0  0  0
 12 10  1  0  0  0  0
 13 14  2  0  0  0  0
 14 15  1  0  0  0  0
 15 12  1  0  0  0  0
 16 23  1  0  0  0  0
 16 20  1  0  0  0  0
 17 22  1  0  0  0  0
 18 16  1  0  0  0  0
 20 17  1  0  0  0  0
 21 19  1  0  0  0  0
 21 22  1  0  0  0  0
 22 14  1  0  0  0  0
 23 21  1  0  0  0  0
 24  4  1  0  0  0  0
 24 25  1  0  0  0  0
 25 26  1  0  0  0  0
 27 30  1  0  0  0  0
 27 37  1  0  0  0  0
 28 37  1  0  0  0  0
 29 33  1  0  0  0  0
 29 36  1  0  0  0  0
 29 31  1  0  0  0  0
 30 34  1  0  0  0  0
 32 30  1  0  0  0  0
 33 35  1  0  0  0  0
 34 26  1  0  0  0  0
 34 29  1  0  0  0  0
 36 31  1  0  0  0  0
 36 35  1  0  0  0  0
 37 33  1  0  0  0  0
 38 27  1  0  0  0  0
 39 38  1  0  0  0  0
 40 41  1  0  0  0  0
 40 38  1  0  0  0  0
 42 41  1  0  0  0  0
M  END
>  <MODEL>
6

>  <REMARK>
 VINA RESULT:      -6.7      3.753      5.645
  Name = 
  12 active torsions:
  status: ('A' for Active; 'I' for Inactive)
    1  A    between atoms: C_1  and  C_10
    2  A    between atoms: C_3  and  C_29
    3  A    between atoms: C_3  and  C_31
    4  A    between atoms: C_4  and  C_10
    5  A    between atoms: C_4  and  O_30
    6  A    between atoms: C_7  and  C_11
    7  A    between atoms: C_7  and  O_18
    8  A    between atoms: C_11  and  N_26
    9  A    between atoms: C_13  and  O_18
   10  A    between atoms: C_22  and  C_38
   11  A    between atoms: C_23  and  O_32
   12  A    between atoms: C_31  and  O_32
                            x       y       z     vdW  Elec       q    Type
                         _______ _______ _______ _____ _____    ______ ____

>  <TORSDO>
F 12

$$$$
=
 OpenBabel11072411203D

 42 48  0  0  1  0  0  0  0  0999 V2000
  160.1100  211.4830  152.4270 C   0  0  1  0  0  0  0  0  0  0  0  0
  161.3890  211.0570  151.7270 C   0  0  2  0  0  3  0  0  0  0  0  0
  160.9750  209.5940  153.6500 C   0  0  2  0  0  3  0  0  0  0  0  0
  161.2410  209.6620  151.1440 C   0  0  2  0  0  3  0  0  0  0  0  0
  160.1640  212.0020  153.8460 C   0  0  0  0  0  2  0  0  0  0  0  0
  161.9270  209.8620  152.4830 C   0  0  1  0  0  3  0  0  0  0  0  0
  158.9850  211.8050  151.6680 O   0  0  0  0  0  1  0  0  0  0  0  0
  159.7840  210.5460  153.5630 C   0  0  1  0  0  3  0  0  0  0  0  0
  161.6520  209.7760  154.8860 O   0  0  0  0  0  0  0  0  0  0  0  0
  161.4250  208.9610  155.9970 C   0  0  0  0  0  0  0  0  0  0  0  0
  161.5930  207.7130  155.9350 O   0  0  0  0  0  0  0  0  0  0  0  0
  160.9410  209.5780  157.2580 C   0  0  0  0  0  2  0  0  0  0  0  0
  160.3630  212.3830  157.1320 O   0  0  0  0  0  0  0  0  0  0  0  0
  159.4000  211.5760  157.0220 C   0  0  0  0  0  0  0  0  0  0  0  0
  159.6310  210.1640  157.0260 N   0  0  0  0  0  2  0  0  0  0  0  0
  155.8400  213.1390  155.5170 C   0  0  1  0  0  3  0  0  0  0  0  0
  157.1890  211.2050  156.1610 N   0  0  0  0  0  2  0  0  0  0  0  0
  156.2520  213.1840  154.0420 C   0  0  0  0  0  1  0  0  0  0  0  0
  158.7130  214.4420  157.2470 N   0  0  0  0  0  1  0  0  0  0  0  0
  155.8250  211.7150  156.0780 C   0  0  0  0  0  2  0  0  0  0  0  0
  157.9420  213.5340  156.4140 C   0  0  1  0  0  3  0  0  0  0  0  0
  157.9970  212.1030  156.9890 C   0  0  2  0  0  3  0  0  0  0  0  0
  156.6170  214.0100  156.3240 O   0  0  0  0  0  0  0  0  0  0  0  0
  162.2000  209.4760  150.1500 O   0  0  0  0  0  0  0  0  0  0  0  0
  162.6150  208.1560  150.3180 C   0  0  0  0  0  2  0  0  0  0  0  0
  161.4400  207.2940  150.7420 C   0  0  0  0  0  2  0  0  0  0  0  0
  160.6150  204.0040  148.8010 C   0  0  2  0  0  3  0  0  0  0  0  0
  160.4840  201.5890  149.6640 C   0  0  0  0  0  1  0  0  0  0  0  0
  161.9660  204.8080  151.2230 C   0  0  2  0  0  0  0  0  0  0  0  0
  160.3940  205.4370  149.3070 C   0  0  2  0  0  3  0  0  0  0  0  0
  162.4540  205.1890  152.4820 O   0  0  0  0  0  0  0  0  0  0  0  0
  160.1930  206.3110  148.2360 O   0  0  0  0  0  1  0  0  0  0  0  0
  161.5290  203.3670  151.1620 C   0  0  1  0  0  3  0  0  0  0  0  0
  161.5870  205.8810  150.1720 C   0  0  1  0  0  3  0  0  0  0  0  0
  160.8210  203.4970  152.3640 O   0  0  0  0  0  0  0  0  0  0  0  0
  161.0800  204.8850  152.4070 C   0  0  2  0  0  3  0  0  0  0  0  0
  160.5440  203.0660  150.0190 C   0  0  1  0  0  3  0  0  0  0  0  0
  161.8620  203.9300  147.8810 C   0  0  2  0  0  3  0  0  0  0  0  0
  161.9990  205.2290  147.1130 C   0  0  0  0  0  1  0  0  0  0  0  0
  161.9620  202.7550  146.9080 C   0  0  0  0  0  2  0  0  0  0  0  0
  161.4500  203.1040  145.6560 O   0  0  0  0  0  0  0  0  0  0  0  0
  160.4950  202.2280  145.4210 O   0  0  0  0  0  1  0  0  0  0  0  0
  1  7  1  6  0  0  0
  1  8  1  0  0  0  0
  1  5  1  0  0  0  0
  2  1  1  0  0  0  0
  2  6  1  0  0  0  0
  3  9  1  0  0  0  0
  4  2  1  0  0  0  0
  4  6  1  0  0  0  0
  6  3  1  0  0  0  0
  8  3  1  0  0  0  0
  8  5  1  0  0  0  0
  9 10  1  0  0  0  0
 10 12  1  0  0  0  0
 11 10  2  0  0  0  0
 14 15  1  0  0  0  0
 14 13  2  0  0  0  0
 15 12  1  0  0  0  0
 16 20  1  0  0  0  0
 16 23  1  0  0  0  0
 17 22  1  0  0  0  0
 18 16  1  0  0  0  0
 20 17  1  0  0  0  0
 21 22  1  0  0  0  0
 21 19  1  0  0  0  0
 22 14  1  0  0  0  0
 23 21  1  0  0  0  0
 24 25  1  0  0  0  0
 24  4  1  0  0  0  0
 25 26  1  0  0  0  0
 27 30  1  0  0  0  0
 27 37  1  0  0  0  0
 28 37  1  0  0  0  0
 29 36  1  0  0  0  0
 29 31  1  0  0  0  0
 30 34  1  0  0  0  0
 32 30  1  0  0  0  0
 33 29  1  0  0  0  0
 33 35  1  0  0  0  0
 34 26  1  0  0  0  0
 34 29  1  0  0  0  0
 35 36  1  0  0  0  0
 36 31  1  0  0  0  0
 37 33  1  0  0  0  0
 38 27  1  0  0  0  0
 39 38  1  0  0  0  0
 40 38  1  0  0  0  0
 41 40  1  0  0  0  0
 42 41  1  0  0  0  0
M  END
>  <MODEL>
7

>  <REMARK>
 VINA RESULT:      -6.5      4.043      6.008
  Name = 
  12 active torsions:
  status: ('A' for Active; 'I' for Inactive)
    1  A    between atoms: C_1  and  C_10
    2  A    between atoms: C_3  and  C_29
    3  A    between atoms: C_3  and  C_31
    4  A    between atoms: C_4  and  C_10
    5  A    between atoms: C_4  and  O_30
    6  A    between atoms: C_7  and  C_11
    7  A    between atoms: C_7  and  O_18
    8  A    between atoms: C_11  and  N_26
    9  A    between atoms: C_13  and  O_18
   10  A    between atoms: C_22  and  C_38
   11  A    between atoms: C_23  and  O_32
   12  A    between atoms: C_31  and  O_32
                            x       y       z     vdW  Elec       q    Type
                         _______ _______ _______ _____ _____    ______ ____

>  <TORSDO>
F 12

$$$$
=
 OpenBabel11072411203D

 42 48  0  0  1  0  0  0  0  0999 V2000
  161.2770  209.5980  153.7080 C   0  0  1  0  0  0  0  0  0  0  0  0
  160.6660  208.3240  153.1550 C   0  0  2  0  0  3  0  0  0  0  0  0
  161.8930  209.4870  151.3800 C   0  0  2  0  0  3  0  0  0  0  0  0
  161.7500  207.3550  152.7180 C   0  0  2  0  0  3  0  0  0  0  0  0
  160.8270  210.9420  153.1810 C   0  0  0  0  0  2  0  0  0  0  0  0
  161.0610  208.2430  151.6970 C   0  0  1  0  0  3  0  0  0  0  0  0
  161.9060  209.5760  154.9530 O   0  0  0  0  0  1  0  0  0  0  0  0
  162.1120  210.2910  152.6590 C   0  0  1  0  0  3  0  0  0  0  0  0
  161.2270  210.2860  150.4120 O   0  0  0  0  0  0  0  0  0  0  0  0
  161.8620  210.7680  149.2660 C   0  0  0  0  0  0  0  0  0  0  0  0
  162.3970  209.9800  148.4390 O   0  0  0  0  0  0  0  0  0  0  0  0
  161.9370  212.2340  149.0430 C   0  0  0  0  0  2  0  0  0  0  0  0
  163.3300  212.9660  146.6460 O   0  0  0  0  0  0  0  0  0  0  0  0
  162.0680  212.9550  146.6170 C   0  0  0  0  0  0  0  0  0  0  0  0
  161.3190  212.5490  147.7660 N   0  0  0  0  0  2  0  0  0  0  0  0
  160.1670  212.9670  142.9060 C   0  0  1  0  0  3  0  0  0  0  0  0
  160.0350  212.8360  145.3440 N   0  0  0  0  0  2  0  0  0  0  0  0
  160.2590  211.4630  142.6330 C   0  0  0  0  0  1  0  0  0  0  0  0
  163.4390  213.8110  144.1420 N   0  0  0  0  0  1  0  0  0  0  0  0
  159.3320  213.2870  144.1480 C   0  0  0  0  0  2  0  0  0  0  0  0
  162.1400  213.1600  144.1100 C   0  0  1  0  0  3  0  0  0  0  0  0
  161.3550  213.4680  145.4020 C   0  0  2  0  0  3  0  0  0  0  0  0
  161.4430  213.5870  142.9610 O   0  0  0  0  0  0  0  0  0  0  0  0
  161.2170  206.0690  152.6540 O   0  0  0  0  0  0  0  0  0  0  0  0
  161.5210  205.6360  151.3640 C   0  0  0  0  0  2  0  0  0  0  0  0
  160.2430  205.3040  150.6150 C   0  0  0  0  0  2  0  0  0  0  0  0
  161.9580  203.2160  147.7910 C   0  0  2  0  0  3  0  0  0  0  0  0
  163.1760  204.0200  145.6780 C   0  0  0  0  0  1  0  0  0  0  0  0
  160.8310  205.8490  148.1570 C   0  0  2  0  0  0  0  0  0  0  0  0
  161.6780  203.6870  149.2260 C   0  0  2  0  0  3  0  0  0  0  0  0
  160.4530  207.1790  148.3960 O   0  0  0  0  0  0  0  0  0  0  0  0
  161.3330  202.6050  150.0400 O   0  0  0  0  0  1  0  0  0  0  0  0
  161.7840  205.6970  146.9990 C   0  0  1  0  0  3  0  0  0  0  0  0
  160.5720  204.7560  149.2230 C   0  0  1  0  0  3  0  0  0  0  0  0
  162.5750  206.7530  147.4700 O   0  0  0  0  0  0  0  0  0  0  0  0
  161.8010  206.8540  148.6470 C   0  0  2  0  0  3  0  0  0  0  0  0
  162.5990  204.3930  147.0340 C   0  0  1  0  0  3  0  0  0  0  0  0
  160.7060  202.5360  147.1790 C   0  0  2  0  0  3  0  0  0  0  0  0
  160.5040  201.1790  147.8240 C   0  0  0  0  0  1  0  0  0  0  0  0
  160.6470  202.3860  145.6590 C   0  0  0  0  0  2  0  0  0  0  0  0
  159.7140  201.4130  145.2930 O   0  0  0  0  0  0  0  0  0  0  0  0
  160.4330  200.3890  144.8810 O   0  0  0  0  0  1  0  0  0  0  0  0
  1  7  1  1  0  0  0
  2  1  1  0  0  0  0
  3  6  1  0  0  0  0
  3  8  1  0  0  0  0
  4  2  1  0  0  0  0
  5  1  1  0  0  0  0
  6  4  1  0  0  0  0
  6  2  1  0  0  0  0
  8  5  1  0  0  0  0
  8  1  1  0  0  0  0
  9  3  1  0  0  0  0
 10  9  1  0  0  0  0
 11 10  2  0  0  0  0
 12 10  1  0  0  0  0
 14 13  2  0  0  0  0
 14 15  1  0  0  0  0
 15 12  1  0  0  0  0
 16 23  1  0  0  0  0
 16 20  1  0  0  0  0
 17 22  1  0  0  0  0
 18 16  1  0  0  0  0
 20 17  1  0  0  0  0
 21 19  1  0  0  0  0
 21 22  1  0  0  0  0
 22 14  1  0  0  0  0
 23 21  1  0  0  0  0
 24  4  1  0  0  0  0
 25 24  1  0  0  0  0
 26 25  1  0  0  0  0
 27 30  1  0  0  0  0
 28 37  1  0  0  0  0
 29 31  1  0  0  0  0
 29 36  1  0  0  0  0
 29 34  1  0  0  0  0
 30 32  1  0  0  0  0
 31 36  1  0  0  0  0
 33 37  1  0  0  0  0
 33 35  1  0  0  0  0
 33 29  1  0  0  0  0
 34 30  1  0  0  0  0
 34 26  1  0  0  0  0
 35 36  1  0  0  0  0
 37 27  1  0  0  0  0
 38 27  1  0  0  0  0
 38 39  1  0  0  0  0
 40 38  1  0  0  0  0
 41 40  1  0  0  0  0
 42 41  1  0  0  0  0
M  END
>  <MODEL>
8

>  <REMARK>
 VINA RESULT:      -6.3      1.730      3.057
  Name = 
  12 active torsions:
  status: ('A' for Active; 'I' for Inactive)
    1  A    between atoms: C_1  and  C_10
    2  A    between atoms: C_3  and  C_29
    3  A    between atoms: C_3  and  C_31
    4  A    between atoms: C_4  and  C_10
    5  A    between atoms: C_4  and  O_30
    6  A    between atoms: C_7  and  C_11
    7  A    between atoms: C_7  and  O_18
    8  A    between atoms: C_11  and  N_26
    9  A    between atoms: C_13  and  O_18
   10  A    between atoms: C_22  and  C_38
   11  A    between atoms: C_23  and  O_32
   12  A    between atoms: C_31  and  O_32
                            x       y       z     vdW  Elec       q    Type
                         _______ _______ _______ _____ _____    ______ ____

>  <TORSDO>
F 12

$$$$
=
 OpenBabel11072411203D

 42 48  0  0  1  0  0  0  0  0999 V2000
  160.1830  210.9630  155.3220 C   0  0  1  0  0  0  0  0  0  0  0  0
  159.9190  209.6640  154.5810 C   0  0  2  0  0  3  0  0  0  0  0  0
  159.8590  211.5400  153.0040 C   0  0  2  0  0  3  0  0  0  0  0  0
  161.0280  209.3830  153.5810 C   0  0  2  0  0  3  0  0  0  0  0  0
  159.1090  212.0240  155.3910 C   0  0  0  0  0  2  0  0  0  0  0  0
  159.7280  210.0210  153.1220 C   0  0  1  0  0  3  0  0  0  0  0  0
  161.2000  211.0170  156.2740 O   0  0  0  0  0  1  0  0  0  0  0  0
  160.2390  212.1260  154.3620 C   0  0  1  0  0  3  0  0  0  0  0  0
  158.6310  212.1030  152.5590 O   0  0  0  0  0  0  0  0  0  0  0  0
  158.5740  213.1880  151.6840 C   0  0  0  0  0  0  0  0  0  0  0  0
  157.5000  213.8260  151.5070 O   0  0  0  0  0  0  0  0  0  0  0  0
  159.7910  213.5710  150.9240 C   0  0  0  0  0  2  0  0  0  0  0  0
  160.8140  212.3790  148.5260 O   0  0  0  0  0  0  0  0  0  0  0  0
  159.9920  213.3300  148.4100 C   0  0  0  0  0  0  0  0  0  0  0  0
  159.4090  213.9310  149.5690 N   0  0  0  0  0  2  0  0  0  0  0  0
  159.5080  213.5250  144.2730 C   0  0  1  0  0  3  0  0  0  0  0  0
  158.5460  213.1970  146.4970 N   0  0  0  0  0  2  0  0  0  0  0  0
  159.8090  212.0550  143.9700 C   0  0  0  0  0  1  0  0  0  0  0  0
  162.0660  214.4530  146.6270 N   0  0  0  0  0  1  0  0  0  0  0  0
  158.2700  213.7000  145.1560 C   0  0  0  0  0  2  0  0  0  0  0  0
  160.9150  213.7340  146.1050 C   0  0  1  0  0  3  0  0  0  0  0  0
  159.7080  213.8960  147.0510 C   0  0  2  0  0  3  0  0  0  0  0  0
  160.6310  214.2100  144.8080 O   0  0  0  0  0  0  0  0  0  0  0  0
  161.0210  208.0270  153.2590 O   0  0  0  0  0  0  0  0  0  0  0  0
  160.7540  208.0010  151.8910 C   0  0  0  0  0  2  0  0  0  0  0  0
  162.0320  207.7290  151.1200 C   0  0  0  0  0  2  0  0  0  0  0  0
  160.6940  204.7300  149.0000 C   0  0  2  0  0  3  0  0  0  0  0  0
  160.2650  202.2980  149.7030 C   0  0  0  0  0  1  0  0  0  0  0  0
  162.2300  205.1660  151.4060 C   0  0  2  0  0  0  0  0  0  0  0  0
  160.6900  206.1390  149.6120 C   0  0  2  0  0  3  0  0  0  0  0  0
  162.8120  205.3840  152.6640 O   0  0  0  0  0  0  0  0  0  0  0  0
  160.5710  207.1080  148.6130 O   0  0  0  0  0  1  0  0  0  0  0  0
  161.5980  203.8050  151.2670 C   0  0  1  0  0  3  0  0  0  0  0  0
  161.9630  206.3540  150.4480 C   0  0  1  0  0  3  0  0  0  0  0  0
  160.9590  203.9400  152.5070 O   0  0  0  0  0  0  0  0  0  0  0  0
  161.4070  205.2730  152.6320 C   0  0  2  0  0  3  0  0  0  0  0  0
  160.5390  203.7230  150.1540 C   0  0  1  0  0  3  0  0  0  0  0  0
  161.8840  204.5570  148.0210 C   0  0  2  0  0  3  0  0  0  0  0  0
  162.4020  205.9220  147.6110 C   0  0  0  0  0  1  0  0  0  0  0  0
  161.6620  203.7050  146.7710 C   0  0  0  0  0  2  0  0  0  0  0  0
  161.1660  204.4840  145.7230 O   0  0  0  0  0  0  0  0  0  0  0  0
  161.0330  203.6510  144.7120 O   0  0  0  0  0  1  0  0  0  0  0  0
  1  5  1  0  0  0  0
  1  7  1  1  0  0  0
  2  1  1  0  0  0  0
  3  6  1  0  0  0  0
  3  8  1  0  0  0  0
  4  2  1  0  0  0  0
  6  4  1  0  0  0  0
  6  2  1  0  0  0  0
  8  1  1  0  0  0  0
  8  5  1  0  0  0  0
  9  3  1  0  0  0  0
 10  9  1  0  0  0  0
 11 10  2  0  0  0  0
 12 10  1  0  0  0  0
 14 13  2  0  0  0  0
 14 15  1  0  0  0  0
 15 12  1  0  0  0  0
 16 23  1  0  0  0  0
 16 20  1  0  0  0  0
 17 22  1  0  0  0  0
 18 16  1  0  0  0  0
 20 17  1  0  0  0  0
 21 19  1  0  0  0  0
 21 22  1  0  0  0  0
 22 14  1  0  0  0  0
 23 21  1  0  0  0  0
 24  4  1  0  0  0  0
 25 24  1  0  0  0  0
 26 25  1  0  0  0  0
 27 30  1  0  0  0  0
 27 37  1  0  0  0  0
 28 37  1  0  0  0  0
 29 36  1  0  0  0  0
 29 31  1  0  0  0  0
 30 34  1  0  0  0  0
 32 30  1  0  0  0  0
 33 29  1  0  0  0  0
 33 35  1  0  0  0  0
 34 26  1  0  0  0  0
 34 29  1  0  0  0  0
 35 36  1  0  0  0  0
 36 31  1  0  0  0  0
 37 33  1  0  0  0  0
 38 27  1  0  0  0  0
 39 38  1  0  0  0  0
 40 38  1  0  0  0  0
 41 40  1  0  0  0  0
 42 41  1  0  0  0  0
M  END
>  <MODEL>
9

>  <REMARK>
 VINA RESULT:      -6.3      2.001      3.126
  Name = 
  12 active torsions:
  status: ('A' for Active; 'I' for Inactive)
    1  A    between atoms: C_1  and  C_10
    2  A    between atoms: C_3  and  C_29
    3  A    between atoms: C_3  and  C_31
    4  A    between atoms: C_4  and  C_10
    5  A    between atoms: C_4  and  O_30
    6  A    between atoms: C_7  and  C_11
    7  A    between atoms: C_7  and  O_18
    8  A    between atoms: C_11  and  N_26
    9  A    between atoms: C_13  and  O_18
   10  A    between atoms: C_22  and  C_38
   11  A    between atoms: C_23  and  O_32
   12  A    between atoms: C_31  and  O_32
                            x       y       z     vdW  Elec       q    Type
                         _______ _______ _______ _____ _____    ______ ____

>  <TORSDO>
F 12

$$$$
