=
 OpenBabel11072411483D

 53 56  0  0  1  0  0  0  0  0999 V2000
  160.1650  208.9300  155.7590 C   0  0  0  0  0  2  0  0  0  0  0  0
  161.1830  208.9700  149.1650 O   0  0  0  0  0  0  0  0  0  0  0  0
  159.5930  206.9060  154.5290 C   0  0  0  0  0  2  0  0  0  0  0  0
  161.5690  212.2660  150.2050 O   0  0  0  0  0  0  0  0  0  0  0  0
  161.6140  206.4000  153.0940 C   0  0  2  0  0  3  0  0  0  0  0  0
  162.0440  210.0940  153.8830 P   0  0  2  0  0  0  0  0  0  0  0  0
  160.7060  208.5770  150.4550 C   0  0  0  0  0  2  0  0  0  0  0  0
  160.1560  206.2130  153.3110 C   0  0  0  0  0  2  0  0  0  0  0  0
  161.8790  210.1770  149.0120 C   0  0  1  0  0  0  0  0  0  0  0  0
  161.9180  211.0890  150.2670 C   0  0  0  0  0  0  0  0  0  0  0  0
  162.3930  205.9550  154.2000 O   0  0  0  0  0  1  0  0  0  0  0  0
  162.4060  210.8010  151.5630 C   0  0  0  0  0  2  0  0  0  0  0  0
  163.4130  210.7320  154.2620 O   0  0  0  0  0  0  0  0  0  0  0  0
  161.8970  207.8950  151.1230 C   0  0  1  0  0  3  0  0  0  0  0  0
  161.7850  210.3780  156.6640 C   0  0  0  0  0  1  0  0  0  0  0  0
  161.8060  207.8310  152.7480 C   0  0  2  0  0  3  0  0  0  0  0  0
  161.3190  210.7520  152.4320 O   0  0  0  0  0  0  0  0  0  0  0  0
  163.2210  209.8870  148.6090 F   0  0  0  0  0  0  0  0  0  0  0  0
  160.9620  210.2570  155.3670 C   0  0  2  0  0  0  0  0  0  0  0  0
  159.4520  208.3840  154.5370 C   0  0  0  0  0  2  0  0  0  0  0  0
  162.3480  208.4160  153.9290 O   0  0  0  0  0  0  0  0  0  0  0  0
  161.9020  204.5500  149.5950 C   0  0  0  0  0  2  0  0  0  0  0  0
  160.1010  206.8820  145.1400 O   0  0  0  0  0  0  0  0  0  0  0  0
  162.6360  205.2320  147.3110 C   0  0  0  0  0  2  0  0  0  0  0  0
  160.1990  207.0420  147.4810 C   0  0  0  0  0  2  0  0  0  0  0  0
  160.4490  205.9260  148.4660 C   0  0  0  0  0  2  0  0  0  0  0  0
  161.8860  205.6200  146.1320 O   0  0  0  0  0  0  0  0  0  0  0  0
  162.5550  206.8350  149.0890 O   0  0  0  0  0  0  0  0  0  0  0  0
  161.8310  205.3410  150.8290 C   0  0  2  0  0  3  0  0  0  0  0  0
  162.5880  206.6720  150.4220 C   0  0  2  0  0  3  0  0  0  0  0  0
  161.9590  205.6950  148.5900 C   0  0  1  0  0  0  0  0  0  0  0  0
  160.7880  206.5880  146.1960 C   0  0  0  0  0  0  0  0  0  0  0  0
  162.4410  204.7060  152.0590 C   0  0  0  0  0  2  0  0  0  0  0  0
  162.4840  203.2870  151.8880 O   0  0  0  0  0  0  0  0  0  0  0  0
  161.1530  201.5760  150.7830 N   0  0  0  0  0  2  0  0  0  0  0  0
  161.2480  202.6310  151.7990 C   0  0  0  0  0  0  0  0  0  0  0  0
  160.1790  202.9700  152.5500 N   0  0  0  0  0  1  0  0  0  0  0  0
  162.0710  211.6780  147.0870 F   0  0  0  0  0  0  0  0  0  0  0  0
  160.0940  211.5260  148.1890 F   0  0  0  0  0  0  0  0  0  0  0  0
  160.7850  209.7490  146.9160 F   0  0  0  0  0  0  0  0  0  0  0  0
  161.2180  210.8010  147.7480 C   0  0  0  0  0  0  0  0  0  0  0  0
  159.9840  211.5440  155.3810 C   0  0  1  0  0  3  0  0  0  0  0  0
  160.1160  212.4800  156.5160 C   0  0  0  0  0  0  0  0  0  0  0  0
  161.3090  212.8920  156.9490 O   0  0  0  0  0  0  0  0  0  0  0  0
  158.8980  212.8200  157.2600 O   0  0  0  0  0  1  0  0  0  0  0  0
  160.1270  212.2890  154.1080 O   0  0  0  0  0  0  0  0  0  0  0  0
  158.8440  212.7030  153.7330 C   0  0  1  0  0  3  0  0  0  0  0  0
  159.7300  214.0380  151.8920 O   0  0  0  0  0  0  0  0  0  0  0  0
  158.7130  213.5080  152.4360 C   0  0  0  0  0  0  0  0  0  0  0  0
  157.3420  213.7800  152.1030 O   0  0  0  0  0  0  0  0  0  0  0  0
  157.0190  214.1130  150.7740 C   0  0  0  0  0  1  0  0  0  0  0  0
  156.6090  211.9430  154.7120 C   0  0  0  0  0  1  0  0  0  0  0  0
  157.7810  211.5880  153.7610 C   0  0  0  0  0  2  0  0  0  0  0  0
  2  7  1  0  0  0  0
  3 20  1  0  0  0  0
  4 10  2  0  0  0  0
  5  8  1  0  0  0  0
  5 11  1  1  0  0  0
  6 21  1  0  0  0  0
  6 13  2  1  0  0  0
  6 19  1  0  0  0  0
  8  3  1  0  0  0  0
  9 18  1  6  0  0  0
  9  2  1  0  0  0  0
  9 10  1  0  0  0  0
 10 12  1  0  0  0  0
 12 17  1  0  0  0  0
 14  7  1  6  0  0  0
 14 16  1  0  0  0  0
 16  5  1  0  0  0  0
 16 21  1  1  0  0  0
 17  6  1  0  0  0  0
 19 42  1  0  0  0  0
 19  1  1  0  0  0  0
 19 15  1  1  0  0  0
 20  1  1  0  0  0  0
 22 29  1  0  0  0  0
 23 32  2  0  0  0  0
 25 26  1  0  0  0  0
 26 31  1  0  0  0  0
 27 32  1  0  0  0  0
 27 24  1  0  0  0  0
 29 33  1  1  0  0  0
 30 28  1  6  0  0  0
 30 29  1  0  0  0  0
 30 14  1  0  0  0  0
 31 24  1  6  0  0  0
 31 28  1  0  0  0  0
 31 22  1  0  0  0  0
 32 25  1  0  0  0  0
 34 33  1  0  0  0  0
 35 36  2  0  0  0  0
 36 34  1  0  0  0  0
 36 37  1  0  0  0  0
 38 41  1  0  0  0  0
 40 41  1  0  0  0  0
 41 39  1  0  0  0  0
 41  9  1  0  0  0  0
 42 46  1  6  0  0  0
 42 43  1  0  0  0  0
 43 44  2  0  0  0  0
 43 45  1  0  0  0  0
 47 53  1  6  0  0  0
 47 46  1  0  0  0  0
 48 49  2  0  0  0  0
 49 47  1  0  0  0  0
 50 49  1  0  0  0  0
 51 50  1  0  0  0  0
 53 52  1  0  0  0  0
M  END
>  <MODEL>
1

>  <REMARK>
 VINA RESULT:       3.4      0.000      0.000
  Name = 
  12 active torsions:
  status: ('A' for Active; 'I' for Inactive)
    1  A    between atoms: C_2  and  C_30
    2  A    between atoms: C_2  and  O_31
    3  A    between atoms: C_5  and  C_15
    4  A    between atoms: O_6  and  C_44
    5  A    between atoms: C_15  and  O_26
    6  A    between atoms: C_15  and  C_51
    7  A    between atoms: C_18  and  O_31
    8  A    between atoms: C_22  and  C_32
    9  A    between atoms: O_26  and  C_39
   10  A    between atoms: C_36  and  C_45
   11  A    between atoms: C_39  and  C_44
   12  A    between atoms: C_39  and  C_49
                            x       y       z     vdW  Elec       q    Type
                         _______ _______ _______ _____ _____    ______ ____

>  <TORSDO>
F 12

$$$$
=
 OpenBabel11072411483D

 53 56  0  0  1  0  0  0  0  0999 V2000
  160.2420  209.1180  155.5220 C   0  0  0  0  0  2  0  0  0  0  0  0
  161.1860  208.9080  148.9210 O   0  0  0  0  0  0  0  0  0  0  0  0
  159.6410  207.0550  154.3740 C   0  0  0  0  0  2  0  0  0  0  0  0
  161.6080  212.2370  149.8340 O   0  0  0  0  0  0  0  0  0  0  0  0
  161.6430  206.4800  152.9360 C   0  0  2  0  0  3  0  0  0  0  0  0
  162.1080  210.1980  153.5840 P   0  0  2  0  0  0  0  0  0  0  0  0
  160.7210  208.5660  150.2290 C   0  0  0  0  0  2  0  0  0  0  0  0
  160.1860  206.3130  153.1760 C   0  0  0  0  0  2  0  0  0  0  0  0
  161.8890  210.1030  148.7150 C   0  0  1  0  0  0  0  0  0  0  0  0
  161.9490  211.0600  149.9360 C   0  0  0  0  0  0  0  0  0  0  0  0
  162.4310  206.0710  154.0490 O   0  0  0  0  0  1  0  0  0  0  0  0
  162.4490  210.8160  151.2360 C   0  0  0  0  0  2  0  0  0  0  0  0
  163.4860  210.8390  153.9250 O   0  0  0  0  0  0  0  0  0  0  0  0
  161.9140  207.9000  150.9090 C   0  0  1  0  0  3  0  0  0  0  0  0
  161.8820  210.5850  156.3560 C   0  0  0  0  0  1  0  0  0  0  0  0
  161.8410  207.8970  152.5360 C   0  0  2  0  0  3  0  0  0  0  0  0
  161.3720  210.8080  152.1180 O   0  0  0  0  0  0  0  0  0  0  0  0
  163.2240  209.7890  148.3090 F   0  0  0  0  0  0  0  0  0  0  0  0
  161.0440  210.4230  155.0730 C   0  0  2  0  0  0  0  0  0  0  0  0
  159.5110  208.5330  154.3290 C   0  0  0  0  0  2  0  0  0  0  0  0
  162.4000  208.5210  153.6880 O   0  0  0  0  0  0  0  0  0  0  0  0
  161.8750  204.5060  149.4940 C   0  0  0  0  0  2  0  0  0  0  0  0
  160.0730  206.7060  144.9730 O   0  0  0  0  0  0  0  0  0  0  0  0
  162.6030  205.1030  147.1840 C   0  0  0  0  0  2  0  0  0  0  0  0
  160.1860  206.9430  147.3070 C   0  0  0  0  0  2  0  0  0  0  0  0
  160.4300  205.8580  148.3270 C   0  0  0  0  0  2  0  0  0  0  0  0
  161.8500  205.4590  145.9970 O   0  0  0  0  0  0  0  0  0  0  0  0
  162.5490  206.7650  148.9080 O   0  0  0  0  0  0  0  0  0  0  0  0
  161.8200  205.3390  150.7020 C   0  0  2  0  0  3  0  0  0  0  0  0
  162.5880  206.6480  150.2450 C   0  0  2  0  0  3  0  0  0  0  0  0
  161.9380  205.6160  148.4510 C   0  0  1  0  0  0  0  0  0  0  0  0
  160.7630  206.4390  146.0350 C   0  0  0  0  0  0  0  0  0  0  0  0
  162.4310  204.7390  151.9480 C   0  0  0  0  0  2  0  0  0  0  0  0
  162.5520  203.3240  151.7830 O   0  0  0  0  0  0  0  0  0  0  0  0
  161.3100  201.4600  150.8330 N   0  0  0  0  0  2  0  0  0  0  0  0
  161.3560  202.5920  151.7660 C   0  0  0  0  0  0  0  0  0  0  0  0
  160.2800  202.9240  152.5090 N   0  0  0  0  0  1  0  0  0  0  0  0
  162.0850  211.4930  146.7090 F   0  0  0  0  0  0  0  0  0  0  0  0
  160.1350  211.4760  147.8660 F   0  0  0  0  0  0  0  0  0  0  0  0
  160.7250  209.6090  146.6720 F   0  0  0  0  0  0  0  0  0  0  0  0
  161.2190  210.6860  147.4370 C   0  0  0  0  0  0  0  0  0  0  0  0
  160.0760  211.7170  155.0500 C   0  0  1  0  0  3  0  0  0  0  0  0
  159.3830  212.0210  153.7800 C   0  0  0  0  0  0  0  0  0  0  0  0
  158.6090  211.1200  153.1730 O   0  0  0  0  0  1  0  0  0  0  0  0
  159.7020  213.2920  153.1200 O   0  0  0  0  0  0  0  0  0  0  0  0
  159.0810  211.6120  156.1410 O   0  0  0  0  0  0  0  0  0  0  0  0
  158.1260  212.6110  155.9210 C   0  0  1  0  0  3  0  0  0  0  0  0
  156.1670  212.0330  157.2570 O   0  0  0  0  0  0  0  0  0  0  0  0
  156.6520  212.2320  156.1010 C   0  0  0  0  0  0  0  0  0  0  0  0
  156.0230  211.8970  154.8540 O   0  0  0  0  0  0  0  0  0  0  0  0
  155.4830  210.6080  154.6890 C   0  0  0  0  0  1  0  0  0  0  0  0
  159.9320  214.1350  156.8940 C   0  0  0  0  0  1  0  0  0  0  0  0
  158.4130  213.9370  156.6500 C   0  0  0  0  0  2  0  0  0  0  0  0
  2  7  1  0  0  0  0
  4 10  2  0  0  0  0
  5  8  1  0  0  0  0
  5 11  1  1  0  0  0
  6 21  1  0  0  0  0
  6 13  2  1  0  0  0
  6 19  1  0  0  0  0
  8  3  1  0  0  0  0
  9 18  1  6  0  0  0
  9  2  1  0  0  0  0
  9 10  1  0  0  0  0
 10 12  1  0  0  0  0
 12 17  1  0  0  0  0
 14  7  1  6  0  0  0
 14 16  1  0  0  0  0
 16  5  1  0  0  0  0
 16 21  1  1  0  0  0
 17  6  1  0  0  0  0
 19  1  1  0  0  0  0
 19 15  1  1  0  0  0
 20  3  1  0  0  0  0
 20  1  1  0  0  0  0
 22 29  1  0  0  0  0
 23 32  2  0  0  0  0
 25 26  1  0  0  0  0
 26 31  1  0  0  0  0
 27 32  1  0  0  0  0
 27 24  1  0  0  0  0
 29 33  1  1  0  0  0
 30 28  1  6  0  0  0
 30 29  1  0  0  0  0
 30 14  1  0  0  0  0
 31 24  1  6  0  0  0
 31 28  1  0  0  0  0
 31 22  1  0  0  0  0
 32 25  1  0  0  0  0
 34 33  1  0  0  0  0
 35 36  2  0  0  0  0
 36 34  1  0  0  0  0
 36 37  1  0  0  0  0
 38 41  1  0  0  0  0
 40 41  1  0  0  0  0
 41 39  1  0  0  0  0
 41  9  1  0  0  0  0
 42 43  1  6  0  0  0
 42 19  1  0  0  0  0
 42 46  1  0  0  0  0
 44 43  1  0  0  0  0
 45 43  2  0  0  0  0
 47 49  1  0  0  0  0
 47 46  1  0  0  0  0
 47 53  1  1  0  0  0
 49 48  2  0  0  0  0
 50 49  1  0  0  0  0
 51 50  1  0  0  0  0
 53 52  1  0  0  0  0
M  END
>  <MODEL>
2

>  <REMARK>
 VINA RESULT:       3.7      1.025      1.978
  Name = 
  12 active torsions:
  status: ('A' for Active; 'I' for Inactive)
    1  A    between atoms: C_2  and  C_30
    2  A    between atoms: C_2  and  O_31
    3  A    between atoms: C_5  and  C_15
    4  A    between atoms: O_6  and  C_44
    5  A    between atoms: C_15  and  O_26
    6  A    between atoms: C_15  and  C_51
    7  A    between atoms: C_18  and  O_31
    8  A    between atoms: C_22  and  C_32
    9  A    between atoms: O_26  and  C_39
   10  A    between atoms: C_36  and  C_45
   11  A    between atoms: C_39  and  C_44
   12  A    between atoms: C_39  and  C_49
                            x       y       z     vdW  Elec       q    Type
                         _______ _______ _______ _____ _____    ______ ____

>  <TORSDO>
F 12

$$$$
=
 OpenBabel11072411483D

 53 56  0  0  1  0  0  0  0  0999 V2000
  161.6280  203.8970  151.2090 C   0  0  0  0  0  2  0  0  0  0  0  0
  162.4660  210.5060  150.8420 O   0  0  0  0  0  0  0  0  0  0  0  0
  162.4420  205.0320  153.2060 C   0  0  0  0  0  2  0  0  0  0  0  0
  161.9300  209.4340  147.5770 O   0  0  0  0  0  0  0  0  0  0  0  0
  160.8760  206.9900  153.5500 C   0  0  2  0  0  3  0  0  0  0  0  0
  160.3820  206.1490  149.8750 P   0  0  2  0  0  0  0  0  0  0  0  0
  162.5550  209.1590  151.3120 C   0  0  0  0  0  2  0  0  0  0  0  0
  162.2100  206.3930  153.8190 C   0  0  0  0  0  2  0  0  0  0  0  0
  161.8830  210.7780  149.5960 C   0  0  1  0  0  0  0  0  0  0  0  0
  161.5340  209.5340  148.7370 C   0  0  0  0  0  0  0  0  0  0  0  0
  159.8070  206.1640  154.0000 O   0  0  0  0  0  1  0  0  0  0  0  0
  160.6990  208.4380  149.0540 C   0  0  0  0  0  2  0  0  0  0  0  0
  158.9860  206.1240  149.1860 O   0  0  0  0  0  0  0  0  0  0  0  0
  161.2020  208.8790  151.9610 C   0  0  1  0  0  3  0  0  0  0  0  0
  159.8760  203.3920  149.7220 C   0  0  0  0  0  1  0  0  0  0  0  0
  160.8390  207.2970  152.0970 C   0  0  2  0  0  3  0  0  0  0  0  0
  161.5010  207.3090  149.1940 O   0  0  0  0  0  0  0  0  0  0  0  0
  160.6950  211.5470  149.8010 F   0  0  0  0  0  0  0  0  0  0  0  0
  161.0180  204.4200  149.8290 C   0  0  2  0  0  0  0  0  0  0  0  0
  162.6290  204.9060  151.7380 C   0  0  0  0  0  2  0  0  0  0  0  0
  160.0160  206.2790  151.5360 O   0  0  0  0  0  0  0  0  0  0  0  0
  160.9710  212.0810  153.7540 C   0  0  0  0  0  2  0  0  0  0  0  0
  157.3390  213.5410  150.1200 O   0  0  0  0  0  0  0  0  0  0  0  0
  158.5180  212.4390  153.4750 C   0  0  0  0  0  2  0  0  0  0  0  0
  159.1990  212.1650  150.5250 C   0  0  0  0  0  2  0  0  0  0  0  0
  160.2570  212.3430  151.5860 C   0  0  0  0  0  2  0  0  0  0  0  0
  157.7530  213.1170  152.4460 O   0  0  0  0  0  0  0  0  0  0  0  0
  159.5380  210.3970  152.7480 O   0  0  0  0  0  0  0  0  0  0  0  0
  161.7860  210.9010  153.4370 C   0  0  2  0  0  3  0  0  0  0  0  0
  160.6860  209.8070  153.1170 C   0  0  2  0  0  3  0  0  0  0  0  0
  159.7480  211.7520  152.9060 C   0  0  1  0  0  0  0  0  0  0  0  0
  158.0020  212.8900  151.0210 C   0  0  0  0  0  0  0  0  0  0  0  0
  162.7340  210.4400  154.5210 C   0  0  0  0  0  2  0  0  0  0  0  0
  162.2070  210.8070  155.7990 O   0  0  0  0  0  0  0  0  0  0  0  0
  160.1400  209.8370  156.6370 N   0  0  0  0  0  2  0  0  0  0  0  0
  161.6030  209.7840  156.5440 C   0  0  0  0  0  0  0  0  0  0  0  0
  162.3070  208.8330  157.1930 N   0  0  0  0  0  1  0  0  0  0  0  0
  163.2740  211.3880  147.6760 F   0  0  0  0  0  0  0  0  0  0  0  0
  164.0330  211.7940  149.7740 F   0  0  0  0  0  0  0  0  0  0  0  0
  162.3010  213.0590  148.9650 F   0  0  0  0  0  0  0  0  0  0  0  0
  162.8890  211.7780  148.9530 C   0  0  0  0  0  0  0  0  0  0  0  0
  162.0010  204.0700  148.5940 C   0  0  1  0  0  3  0  0  0  0  0  0
  161.6340  202.9180  147.7440 C   0  0  0  0  0  0  0  0  0  0  0  0
  160.6910  203.0140  146.8050 O   0  0  0  0  0  0  0  0  0  0  0  0
  162.2270  201.6170  148.0720 O   0  0  0  0  0  1  0  0  0  0  0  0
  162.1800  205.2710  147.7470 O   0  0  0  0  0  0  0  0  0  0  0  0
  161.9590  204.8730  146.4240 C   0  0  1  0  0  3  0  0  0  0  0  0
  160.2180  206.5640  146.1560 O   0  0  0  0  0  0  0  0  0  0  0  0
  160.9340  205.6700  145.6080 C   0  0  0  0  0  0  0  0  0  0  0  0
  160.7310  205.1120  144.3010 O   0  0  0  0  0  0  0  0  0  0  0  0
  161.3610  205.7190  143.1980 C   0  0  0  0  0  1  0  0  0  0  0  0
  164.4600  204.3550  146.4980 C   0  0  0  0  0  1  0  0  0  0  0  0
  163.2420  204.6780  145.5940 C   0  0  0  0  0  2  0  0  0  0  0  0
  1 20  1  0  0  0  0
  2  7  1  0  0  0  0
  3  8  1  0  0  0  0
  4 10  2  0  0  0  0
  5  8  1  0  0  0  0
  5 11  1  6  0  0  0
  6 13  2  6  0  0  0
  6 21  1  0  0  0  0
  9 18  1  1  0  0  0
  9  2  1  0  0  0  0
 10 12  1  0  0  0  0
 10  9  1  0  0  0  0
 12 17  1  0  0  0  0
 14  7  1  1  0  0  0
 14 16  1  0  0  0  0
 14 30  1  0  0  0  0
 16 21  1  1  0  0  0
 16  5  1  0  0  0  0
 17  6  1  0  0  0  0
 19 15  1  6  0  0  0
 19  6  1  0  0  0  0
 19  1  1  0  0  0  0
 20  3  1  0  0  0  0
 23 32  2  0  0  0  0
 25 32  1  0  0  0  0
 25 26  1  0  0  0  0
 27 24  1  0  0  0  0
 28 31  1  0  0  0  0
 29 22  1  0  0  0  0
 29 33  1  1  0  0  0
 30 28  1  6  0  0  0
 30 29  1  0  0  0  0
 31 26  1  6  0  0  0
 31 24  1  0  0  0  0
 31 22  1  0  0  0  0
 32 27  1  0  0  0  0
 33 34  1  0  0  0  0
 34 36  1  0  0  0  0
 36 35  2  0  0  0  0
 36 37  1  0  0  0  0
 38 41  1  0  0  0  0
 41 40  1  0  0  0  0
 41  9  1  0  0  0  0
 41 39  1  0  0  0  0
 42 43  1  6  0  0  0
 42 19  1  0  0  0  0
 43 45  1  0  0  0  0
 44 43  2  0  0  0  0
 46 42  1  0  0  0  0
 47 53  1  6  0  0  0
 47 46  1  0  0  0  0
 49 48  2  0  0  0  0
 49 47  1  0  0  0  0
 50 49  1  0  0  0  0
 51 50  1  0  0  0  0
 53 52  1  0  0  0  0
M  END
>  <MODEL>
3

>  <REMARK>
 VINA RESULT:       4.2      2.640      7.877
  Name = 
  12 active torsions:
  status: ('A' for Active; 'I' for Inactive)
    1  A    between atoms: C_2  and  C_30
    2  A    between atoms: C_2  and  O_31
    3  A    between atoms: C_5  and  C_15
    4  A    between atoms: O_6  and  C_44
    5  A    between atoms: C_15  and  O_26
    6  A    between atoms: C_15  and  C_51
    7  A    between atoms: C_18  and  O_31
    8  A    between atoms: C_22  and  C_32
    9  A    between atoms: O_26  and  C_39
   10  A    between atoms: C_36  and  C_45
   11  A    between atoms: C_39  and  C_44
   12  A    between atoms: C_39  and  C_49
                            x       y       z     vdW  Elec       q    Type
                         _______ _______ _______ _____ _____    ______ ____

>  <TORSDO>
F 12

$$$$
=
 OpenBabel11072411483D

 53 56  0  0  1  0  0  0  0  0999 V2000
  161.8800  206.6200  147.5460 C   0  0  0  0  0  2  0  0  0  0  0  0
  160.0410  208.6450  153.6310 O   0  0  0  0  0  0  0  0  0  0  0  0
  160.6270  208.7050  147.6970 C   0  0  0  0  0  2  0  0  0  0  0  0
  161.1850  205.3850  154.0210 O   0  0  0  0  0  0  0  0  0  0  0  0
  161.7930  210.0590  149.4890 C   0  0  2  0  0  3  0  0  0  0  0  0
  162.9150  206.5070  150.2510 P   0  0  2  0  0  0  0  0  0  0  0  0
  160.1070  208.5410  152.2070 C   0  0  0  0  0  2  0  0  0  0  0  0
  160.5490  209.8210  148.7110 C   0  0  0  0  0  2  0  0  0  0  0  0
  160.7360  207.7320  154.4360 C   0  0  1  0  0  0  0  0  0  0  0  0
  161.3970  206.5470  153.6820 C   0  0  0  0  0  0  0  0  0  0  0  0
  162.9090  210.3550  148.6570 O   0  0  0  0  0  1  0  0  0  0  0  0
  162.3470  206.5760  152.6350 C   0  0  0  0  0  2  0  0  0  0  0  0
  164.3780  206.1390  150.6370 O   0  0  0  0  0  0  0  0  0  0  0  0
  161.3860  209.2780  151.8180 C   0  0  1  0  0  3  0  0  0  0  0  0
  163.8770  205.4140  147.8500 C   0  0  0  0  0  1  0  0  0  0  0  0
  161.9780  208.8680  150.3570 C   0  0  2  0  0  3  0  0  0  0  0  0
  161.7270  206.1200  151.4760 O   0  0  0  0  0  0  0  0  0  0  0  0
  161.7450  208.4360  155.1650 F   0  0  0  0  0  0  0  0  0  0  0  0
  162.5790  205.6860  148.6350 C   0  0  2  0  0  0  0  0  0  0  0  0
  160.6650  207.2930  148.1560 C   0  0  0  0  0  2  0  0  0  0  0  0
  163.0240  208.1290  149.7340 O   0  0  0  0  0  0  0  0  0  0  0  0
  160.3280  212.7910  152.0780 C   0  0  0  0  0  2  0  0  0  0  0  0
  157.4110  211.3150  156.3010 O   0  0  0  0  0  0  0  0  0  0  0  0
  160.2790  212.9370  154.5670 C   0  0  0  0  0  2  0  0  0  0  0  0
  158.3750  210.5830  154.2880 C   0  0  0  0  0  2  0  0  0  0  0  0
  158.7920  211.4310  153.1110 C   0  0  0  0  0  2  0  0  0  0  0  0
  159.2200  212.6900  155.5270 O   0  0  0  0  0  0  0  0  0  0  0  0
  161.0930  210.9620  153.4830 O   0  0  0  0  0  0  0  0  0  0  0  0
  160.8320  211.7150  151.2140 C   0  0  2  0  0  3  0  0  0  0  0  0
  161.5810  210.7760  152.2460 C   0  0  2  0  0  3  0  0  0  0  0  0
  160.1900  212.0000  153.3740 C   0  0  1  0  0  0  0  0  0  0  0  0
  158.3810  211.4910  155.4630 C   0  0  0  0  0  0  0  0  0  0  0  0
  161.7420  212.1440  150.0850 C   0  0  0  0  0  2  0  0  0  0  0  0
  161.2350  213.3450  149.4970 O   0  0  0  0  0  0  0  0  0  0  0  0
  160.3040  213.1350  147.2590 N   0  0  0  0  0  2  0  0  0  0  0  0
  161.4370  213.4990  148.1180 C   0  0  0  0  0  0  0  0  0  0  0  0
  162.6110  213.9010  147.5870 N   0  0  0  0  0  1  0  0  0  0  0  0
  158.5990  206.6590  154.9610 F   0  0  0  0  0  0  0  0  0  0  0  0
  159.2040  208.5390  156.0750 F   0  0  0  0  0  0  0  0  0  0  0  0
  160.3310  206.5900  156.5100 F   0  0  0  0  0  0  0  0  0  0  0  0
  159.6800  207.3400  155.5100 C   0  0  0  0  0  0  0  0  0  0  0  0
  161.8450  204.2490  148.7210 C   0  0  1  0  0  3  0  0  0  0  0  0
  161.1360  203.9260  149.9770 C   0  0  0  0  0  0  0  0  0  0  0  0
  161.6090  203.0200  150.8340 O   0  0  0  0  0  1  0  0  0  0  0  0
  159.8080  204.5170  150.1780 O   0  0  0  0  0  0  0  0  0  0  0  0
  160.9160  204.0970  147.5780 O   0  0  0  0  0  0  0  0  0  0  0  0
  161.4910  203.1650  146.7070 C   0  0  1  0  0  3  0  0  0  0  0  0
  160.3480  201.4340  145.4200 O   0  0  0  0  0  0  0  0  0  0  0  0
  160.7830  201.8140  146.5500 C   0  0  0  0  0  0  0  0  0  0  0  0
  160.4700  201.2170  147.8180 O   0  0  0  0  0  0  0  0  0  0  0  0
  161.4740  200.5050  148.5000 C   0  0  0  0  0  1  0  0  0  0  0  0
  160.7800  204.7350  144.8200 C   0  0  0  0  0  1  0  0  0  0  0  0
  161.8480  203.7270  145.3180 C   0  0  0  0  0  2  0  0  0  0  0  0
  1 20  1  0  0  0  0
  1 19  1  0  0  0  0
  2  9  1  0  0  0  0
  3 20  1  0  0  0  0
  3  8  1  0  0  0  0
  5 11  1  6  0  0  0
  5 16  1  0  0  0  0
  6 13  2  1  0  0  0
  6 17  1  0  0  0  0
  7  2  1  0  0  0  0
  8  5  1  0  0  0  0
  9 18  1  1  0  0  0
  9 41  1  0  0  0  0
 10  4  2  0  0  0  0
 10  9  1  0  0  0  0
 12 10  1  0  0  0  0
 14  7  1  6  0  0  0
 14 30  1  0  0  0  0
 16 21  1  1  0  0  0
 16 14  1  0  0  0  0
 17 12  1  0  0  0  0
 19 15  1  6  0  0  0
 19 42  1  0  0  0  0
 19  6  1  0  0  0  0
 21  6  1  0  0  0  0
 24 27  1  0  0  0  0
 25 32  1  0  0  0  0
 26 31  1  0  0  0  0
 26 25  1  0  0  0  0
 29 33  1  6  0  0  0
 29 22  1  0  0  0  0
 29 30  1  0  0  0  0
 30 28  1  1  0  0  0
 31 22  1  6  0  0  0
 31 28  1  0  0  0  0
 31 24  1  0  0  0  0
 32 27  1  0  0  0  0
 32 23  2  0  0  0  0
 34 33  1  0  0  0  0
 35 36  2  0  0  0  0
 36 34  1  0  0  0  0
 37 36  1  0  0  0  0
 38 41  1  0  0  0  0
 41 39  1  0  0  0  0
 41 40  1  0  0  0  0
 42 46  1  6  0  0  0
 42 43  1  0  0  0  0
 43 45  2  0  0  0  0
 43 44  1  0  0  0  0
 47 53  1  6  0  0  0
 47 46  1  0  0  0  0
 48 49  2  0  0  0  0
 49 47  1  0  0  0  0
 49 50  1  0  0  0  0
 50 51  1  0  0  0  0
 52 53  1  0  0  0  0
M  END
>  <MODEL>
4

>  <REMARK>
 VINA RESULT:       4.7      3.844      9.160
  Name = 
  12 active torsions:
  status: ('A' for Active; 'I' for Inactive)
    1  A    between atoms: C_2  and  C_30
    2  A    between atoms: C_2  and  O_31
    3  A    between atoms: C_5  and  C_15
    4  A    between atoms: O_6  and  C_44
    5  A    between atoms: C_15  and  O_26
    6  A    between atoms: C_15  and  C_51
    7  A    between atoms: C_18  and  O_31
    8  A    between atoms: C_22  and  C_32
    9  A    between atoms: O_26  and  C_39
   10  A    between atoms: C_36  and  C_45
   11  A    between atoms: C_39  and  C_44
   12  A    between atoms: C_39  and  C_49
                            x       y       z     vdW  Elec       q    Type
                         _______ _______ _______ _____ _____    ______ ____

>  <TORSDO>
F 12

$$$$
=
 OpenBabel11072411483D

 53 56  0  0  1  0  0  0  0  0999 V2000
  161.8130  204.2040  150.4010 C   0  0  0  0  0  2  0  0  0  0  0  0
  162.2710  210.8510  150.7540 O   0  0  0  0  0  0  0  0  0  0  0  0
  162.7000  205.1540  152.4620 C   0  0  0  0  0  2  0  0  0  0  0  0
  161.5720  210.1230  147.4260 O   0  0  0  0  0  0  0  0  0  0  0  0
  161.0590  206.9620  153.1270 C   0  0  2  0  0  3  0  0  0  0  0  0
  160.3610  206.5120  149.4170 P   0  0  2  0  0  0  0  0  0  0  0  0
  162.4640  209.4670  151.0580 C   0  0  0  0  0  2  0  0  0  0  0  0
  162.4380  206.4200  153.2420 C   0  0  0  0  0  2  0  0  0  0  0  0
  161.5910  211.2260  149.5870 C   0  0  1  0  0  0  0  0  0  0  0  0
  161.2510  210.0670  148.6110 C   0  0  0  0  0  0  0  0  0  0  0  0
  160.0690  206.0280  153.5440 O   0  0  0  0  0  1  0  0  0  0  0  0
  160.4990  208.8940  148.8500 C   0  0  0  0  0  2  0  0  0  0  0  0
  158.9240  206.4800  148.8170 O   0  0  0  0  0  0  0  0  0  0  0  0
  161.1750  209.0340  151.7520 C   0  0  1  0  0  3  0  0  0  0  0  0
  159.9930  203.7640  148.9750 C   0  0  0  0  0  1  0  0  0  0  0  0
  160.9070  207.4280  151.7250 C   0  0  2  0  0  3  0  0  0  0  0  0
  161.3680  207.8070  148.8080 O   0  0  0  0  0  0  0  0  0  0  0  0
  160.3810  211.8930  149.9520 F   0  0  0  0  0  0  0  0  0  0  0  0
  161.0840  204.8410  149.1310 C   0  0  2  0  0  0  0  0  0  0  0  0
  162.7940  205.2060  150.9810 C   0  0  0  0  0  2  0  0  0  0  0  0
  160.1030  206.4310  151.1010 O   0  0  0  0  0  0  0  0  0  0  0  0
  160.9120  211.9890  153.9250 C   0  0  0  0  0  2  0  0  0  0  0  0
  157.0000  213.6720  150.7010 O   0  0  0  0  0  0  0  0  0  0  0  0
  158.4330  212.2490  153.8290 C   0  0  0  0  0  2  0  0  0  0  0  0
  158.9410  212.3560  150.8330 C   0  0  0  0  0  2  0  0  0  0  0  0
  160.0540  212.4640  151.8470 C   0  0  0  0  0  2  0  0  0  0  0  0
  157.5760  213.0010  152.9320 O   0  0  0  0  0  0  0  0  0  0  0  0
  159.4960  210.3620  152.8060 O   0  0  0  0  0  0  0  0  0  0  0  0
  161.7570  210.8990  153.4230 C   0  0  2  0  0  3  0  0  0  0  0  0
  160.6910  209.7930  153.0370 C   0  0  2  0  0  3  0  0  0  0  0  0
  159.6550  211.6980  153.1130 C   0  0  1  0  0  0  0  0  0  0  0  0
  157.7450  212.9550  151.4790 C   0  0  0  0  0  0  0  0  0  0  0  0
  162.7910  210.3640  154.3900 C   0  0  0  0  0  2  0  0  0  0  0  0
  162.3560  210.6060  155.7300 O   0  0  0  0  0  0  0  0  0  0  0  0
  160.2210  210.0170  156.7390 N   0  0  0  0  0  1  0  0  0  0  0  0
  161.5670  209.6080  156.3210 C   0  0  0  0  0  0  0  0  0  0  0  0
  162.0170  208.3570  156.5550 N   0  0  0  0  0  2  0  0  0  0  0  0
  162.6440  212.2460  147.6250 F   0  0  0  0  0  0  0  0  0  0  0  0
  163.7660  212.2040  149.5950 F   0  0  0  0  0  0  0  0  0  0  0  0
  161.9530  213.5930  149.3890 F   0  0  0  0  0  0  0  0  0  0  0  0
  162.4960  212.3500  149.0040 C   0  0  0  0  0  0  0  0  0  0  0  0
  161.9980  204.6920  147.8060 C   0  0  1  0  0  3  0  0  0  0  0  0
  163.3390  205.3130  147.8360 C   0  0  0  0  0  0  0  0  0  0  0  0
  163.5600  206.4700  148.4630 O   0  0  0  0  0  1  0  0  0  0  0  0
  164.3900  204.6990  147.0170 O   0  0  0  0  0  0  0  0  0  0  0  0
  162.1250  203.2610  147.4480 O   0  0  0  0  0  0  0  0  0  0  0  0
  161.2130  203.0160  146.4150 C   0  0  1  0  0  3  0  0  0  0  0  0
  162.4530  203.9580  144.5360 O   0  0  0  0  0  0  0  0  0  0  0  0
  161.3430  203.8620  145.1440 C   0  0  0  0  0  0  0  0  0  0  0  0
  160.1840  204.6780  144.9160 O   0  0  0  0  0  0  0  0  0  0  0  0
  160.3290  206.0780  144.9130 C   0  0  0  0  0  1  0  0  0  0  0  0
  160.0120  201.3340  144.9130 C   0  0  0  0  0  1  0  0  0  0  0  0
  161.0630  201.5310  146.0370 C   0  0  0  0  0  2  0  0  0  0  0  0
  1 20  1  0  0  0  0
  2  7  1  0  0  0  0
  3  8  1  0  0  0  0
  4 10  2  0  0  0  0
  5  8  1  0  0  0  0
  5 11  1  6  0  0  0
  6 13  2  6  0  0  0
  6 21  1  0  0  0  0
  9 18  1  1  0  0  0
  9  2  1  0  0  0  0
 10 12  1  0  0  0  0
 10  9  1  0  0  0  0
 14  7  1  1  0  0  0
 14 30  1  0  0  0  0
 16 21  1  1  0  0  0
 16 14  1  0  0  0  0
 16  5  1  0  0  0  0
 17 12  1  0  0  0  0
 17  6  1  0  0  0  0
 19 15  1  6  0  0  0
 19  6  1  0  0  0  0
 19  1  1  0  0  0  0
 20  3  1  0  0  0  0
 23 32  2  0  0  0  0
 25 32  1  0  0  0  0
 25 26  1  0  0  0  0
 27 24  1  0  0  0  0
 28 31  1  0  0  0  0
 29 22  1  0  0  0  0
 29 33  1  1  0  0  0
 30 28  1  6  0  0  0
 30 29  1  0  0  0  0
 31 26  1  6  0  0  0
 31 24  1  0  0  0  0
 31 22  1  0  0  0  0
 32 27  1  0  0  0  0
 33 34  1  0  0  0  0
 34 36  1  0  0  0  0
 36 37  2  0  0  0  0
 36 35  1  0  0  0  0
 38 41  1  0  0  0  0
 41 40  1  0  0  0  0
 41  9  1  0  0  0  0
 41 39  1  0  0  0  0
 42 46  1  1  0  0  0
 42 43  1  0  0  0  0
 42 19  1  0  0  0  0
 43 44  1  0  0  0  0
 45 43  2  0  0  0  0
 47 53  1  6  0  0  0
 47 46  1  0  0  0  0
 48 49  2  0  0  0  0
 49 47  1  0  0  0  0
 50 49  1  0  0  0  0
 51 50  1  0  0  0  0
 52 53  1  0  0  0  0
M  END
>  <MODEL>
5

>  <REMARK>
 VINA RESULT:       5.4      2.613      8.007
  Name = 
  12 active torsions:
  status: ('A' for Active; 'I' for Inactive)
    1  A    between atoms: C_2  and  C_30
    2  A    between atoms: C_2  and  O_31
    3  A    between atoms: C_5  and  C_15
    4  A    between atoms: O_6  and  C_44
    5  A    between atoms: C_15  and  O_26
    6  A    between atoms: C_15  and  C_51
    7  A    between atoms: C_18  and  O_31
    8  A    between atoms: C_22  and  C_32
    9  A    between atoms: O_26  and  C_39
   10  A    between atoms: C_36  and  C_45
   11  A    between atoms: C_39  and  C_44
   12  A    between atoms: C_39  and  C_49
                            x       y       z     vdW  Elec       q    Type
                         _______ _______ _______ _____ _____    ______ ____

>  <TORSDO>
F 12

$$$$
=
 OpenBabel11072411483D

 53 57  0  0  1  0  0  0  0  0999 V2000
  161.8250  203.8630  151.2600 C   0  0  0  0  0  2  0  0  0  0  0  0
  162.8410  210.3630  150.1490 O   0  0  0  0  0  0  0  0  0  0  0  0
  163.2050  205.0670  152.8670 C   0  0  0  0  0  2  0  0  0  0  0  0
  161.3870  209.1190  147.2450 O   0  0  0  0  0  0  0  0  0  0  0  0
  161.8850  207.1440  153.4590 C   0  0  2  0  0  3  0  0  0  0  0  0
  160.3700  206.1020  150.1310 P   0  0  2  0  0  0  0  0  0  0  0  0
  162.9910  209.0460  150.6860 C   0  0  0  0  0  2  0  0  0  0  0  0
  163.2130  206.4780  153.4080 C   0  0  0  0  0  2  0  0  0  0  0  0
  161.9550  210.5920  149.0880 C   0  0  1  0  0  0  0  0  0  0  0  0
  161.3270  209.3200  148.4570 C   0  0  0  0  0  0  0  0  0  0  0  0
  160.9420  206.4240  154.2450 O   0  0  0  0  0  0  0  0  0  0  0  0
  160.5590  208.3060  149.0740 C   0  0  0  0  0  2  0  0  0  0  0  0
  158.8400  206.1260  149.8460 O   0  0  0  0  0  0  0  0  0  0  0  0
  161.8550  208.9000  151.6940 C   0  0  1  0  0  3  0  0  0  0  0  0
  159.7130  203.3800  150.3420 C   0  0  0  0  0  1  0  0  0  0  0  0
  161.4690  207.3580  152.0490 C   0  0  2  0  0  3  0  0  0  0  0  0
  161.3150  207.1370  149.0840 O   0  0  0  0  0  0  0  0  0  0  0  0
  160.9050  211.4500  149.5410 F   0  0  0  0  0  0  0  0  0  0  0  0
  160.8880  204.3340  150.0560 C   0  0  2  0  0  0  0  0  0  0  0  0
  162.9790  204.8340  151.4180 C   0  0  0  0  0  2  0  0  0  0  0  0
  160.4770  206.3630  151.8130 O   0  0  0  0  0  0  0  0  0  0  0  0
  159.9300  210.9820  154.0360 C   0  0  0  0  0  2  0  0  0  0  0  0
  159.3150  206.5870  157.0090 O   0  0  0  0  0  0  0  0  0  0  0  0
  160.7280  209.9230  156.1490 C   0  0  0  0  0  2  0  0  0  0  0  0
  159.6740  207.3940  154.8320 C   0  0  2  0  0  3  0  0  0  0  0  0
  159.3620  208.7720  154.3030 C   0  0  0  0  0  2  0  0  0  0  0  0
  160.2110  208.8130  156.9260 O   0  0  0  0  0  0  0  0  0  0  0  0
  161.6690  209.2850  154.0410 O   0  0  0  0  0  0  0  0  0  0  0  0
  160.3990  210.7870  152.6580 C   0  0  2  0  0  3  0  0  0  0  0  0
  161.7170  209.9340  152.8670 C   0  0  2  0  0  3  0  0  0  0  0  0
  160.5140  209.7190  154.6590 C   0  0  1  0  0  0  0  0  0  0  0  0
  159.8180  207.5480  156.3020 C   0  0  0  0  0  0  0  0  0  0  0  0
  160.6690  212.0470  151.8660 C   0  0  0  0  0  2  0  0  0  0  0  0
  159.8540  213.1080  152.3720 O   0  0  0  0  0  0  0  0  0  0  0  0
  158.4780  213.3130  150.3760 N   0  0  0  0  0  2  0  0  0  0  0  0
  158.5620  213.2130  151.8380 C   0  0  0  0  0  0  0  0  0  0  0  0
  157.4530  213.2790  152.6040 N   0  0  0  0  0  1  0  0  0  0  0  0
  163.8520  210.7790  147.5510 F   0  0  0  0  0  0  0  0  0  0  0  0
  163.3230  212.5340  148.8860 F   0  0  0  0  0  0  0  0  0  0  0  0
  161.9220  212.0100  147.1480 F   0  0  0  0  0  0  0  0  0  0  0  0
  162.7930  211.4780  148.1200 C   0  0  0  0  0  0  0  0  0  0  0  0
  161.4800  203.8400  148.6350 C   0  0  1  0  0  3  0  0  0  0  0  0
  161.3320  202.4070  148.3030 C   0  0  0  0  0  0  0  0  0  0  0  0
  160.2600  201.9470  147.6570 O   0  0  0  0  0  0  0  0  0  0  0  0
  162.3260  201.4770  148.8490 O   0  0  0  0  0  1  0  0  0  0  0  0
  160.9050  204.6610  147.5450 O   0  0  0  0  0  0  0  0  0  0  0  0
  161.6900  204.4370  146.4090 C   0  0  1  0  0  3  0  0  0  0  0  0
  161.2130  205.7680  144.4190 O   0  0  0  0  0  0  0  0  0  0  0  0
  161.0390  204.6760  145.0420 C   0  0  0  0  0  0  0  0  0  0  0  0
  160.0640  203.6710  144.7240 O   0  0  0  0  0  0  0  0  0  0  0  0
  160.4060  202.3150  144.8870 C   0  0  0  0  0  1  0  0  0  0  0  0
  164.2000  204.1210  146.0450 C   0  0  0  0  0  1  0  0  0  0  0  0
  163.0750  205.1100  146.4470 C   0  0  0  0  0  2  0  0  0  0  0  0
  1 20  1  0  0  0  0
  2  7  1  0  0  0  0
  3  8  1  0  0  0  0
  4 10  2  0  0  0  0
  5  8  1  6  0  0  0
  5 11  1  0  0  0  0
  6 13  2  6  0  0  0
  6 21  1  0  0  0  0
  9 18  1  1  0  0  0
  9  2  1  0  0  0  0
 10 12  1  0  0  0  0
 10  9  1  0  0  0  0
 11 25  1  0  0  0  0
 12 17  1  0  0  0  0
 14  7  1  1  0  0  0
 14 16  1  0  0  0  0
 14 30  1  0  0  0  0
 16 21  1  1  0  0  0
 16  5  1  0  0  0  0
 17  6  1  0  0  0  0
 19  6  1  0  0  0  0
 19 15  1  1  0  0  0
 19  1  1  0  0  0  0
 20  3  1  0  0  0  0
 24 27  1  0  0  0  0
 25 26  1  6  0  0  0
 25 32  1  0  0  0  0
 26 31  1  0  0  0  0
 28 31  1  0  0  0  0
 29 33  1  1  0  0  0
 29 30  1  0  0  0  0
 29 22  1  0  0  0  0
 30 28  1  1  0  0  0
 31 22  1  6  0  0  0
 31 24  1  0  0  0  0
 32 27  1  0  0  0  0
 32 23  2  0  0  0  0
 33 34  1  0  0  0  0
 35 36  2  0  0  0  0
 36 34  1  0  0  0  0
 36 37  1  0  0  0  0
 38 41  1  0  0  0  0
 40 41  1  0  0  0  0
 41 39  1  0  0  0  0
 41  9  1  0  0  0  0
 42 46  1  6  0  0  0
 42 19  1  0  0  0  0
 43 42  1  0  0  0  0
 43 45  1  0  0  0  0
 44 43  2  0  0  0  0
 47 53  1  1  0  0  0
 47 46  1  0  0  0  0
 48 49  2  0  0  0  0
 49 47  1  0  0  0  0
 50 51  1  0  0  0  0
 50 49  1  0  0  0  0
 52 53  1  0  0  0  0
M  END
>  <MODEL>
6

>  <REMARK>
 VINA RESULT:       6.1      3.005      8.321
  Name = 
  12 active torsions:
  status: ('A' for Active; 'I' for Inactive)
    1  A    between atoms: C_2  and  C_30
    2  A    between atoms: C_2  and  O_31
    3  A    between atoms: C_5  and  C_15
    4  A    between atoms: O_6  and  C_44
    5  A    between atoms: C_15  and  O_26
    6  A    between atoms: C_15  and  C_51
    7  A    between atoms: C_18  and  O_31
    8  A    between atoms: C_22  and  C_32
    9  A    between atoms: O_26  and  C_39
   10  A    between atoms: C_36  and  C_45
   11  A    between atoms: C_39  and  C_44
   12  A    between atoms: C_39  and  C_49
                            x       y       z     vdW  Elec       q    Type
                         _______ _______ _______ _____ _____    ______ ____

>  <TORSDO>
F 12

$$$$
=
 OpenBabel11072411483D

 53 56  0  0  1  0  0  0  0  0999 V2000
  161.5010  206.0990  153.8080 C   0  0  0  0  0  2  0  0  0  0  0  0
  162.8520  211.4300  150.0300 O   0  0  0  0  0  0  0  0  0  0  0  0
  162.2320  208.1220  154.9530 C   0  0  0  0  0  2  0  0  0  0  0  0
  162.5050  208.7650  147.8230 O   0  0  0  0  0  0  0  0  0  0  0  0
  160.7920  209.9800  154.0150 C   0  0  2  0  0  3  0  0  0  0  0  0
  160.5370  207.2850  151.3450 P   0  0  2  0  0  0  0  0  0  0  0  0
  162.8030  210.5530  151.1590 C   0  0  0  0  0  2  0  0  0  0  0  0
  162.0530  209.6010  154.7060 C   0  0  0  0  0  2  0  0  0  0  0  0
  162.3940  210.9910  148.7800 C   0  0  1  0  0  0  0  0  0  0  0  0
  162.0250  209.4860  148.6950 C   0  0  0  0  0  0  0  0  0  0  0  0
  159.6320  209.5510  154.7210 O   0  0  0  0  0  1  0  0  0  0  0  0
  161.0880  208.7540  149.4600 C   0  0  0  0  0  2  0  0  0  0  0  0
  159.2040  206.9150  150.6310 O   0  0  0  0  0  0  0  0  0  0  0  0
  161.3850  210.6950  151.7050 C   0  0  1  0  0  3  0  0  0  0  0  0
  159.8430  204.8970  152.6480 C   0  0  0  0  0  1  0  0  0  0  0  0
  160.8960  209.4480  152.6320 C   0  0  2  0  0  3  0  0  0  0  0  0
  161.7910  207.8690  150.2720 O   0  0  0  0  0  0  0  0  0  0  0  0
  161.2530  211.7690  148.4080 F   0  0  0  0  0  0  0  0  0  0  0  0
  161.0460  205.7980  152.3070 C   0  0  2  0  0  0  0  0  0  0  0  0
  162.5280  207.2150  153.8150 C   0  0  0  0  0  2  0  0  0  0  0  0
  160.0480  208.3030  152.6230 O   0  0  0  0  0  0  0  0  0  0  0  0
  158.9130  213.4180  151.6520 C   0  0  0  0  0  2  0  0  0  0  0  0
  156.1760  210.6380  155.2990 O   0  0  0  0  0  0  0  0  0  0  0  0
  158.3530  213.4030  154.0820 C   0  0  0  0  0  2  0  0  0  0  0  0
  157.7090  210.4840  153.5260 C   0  0  0  0  0  2  0  0  0  0  0  0
  157.9360  211.4870  152.4220 C   0  0  0  0  0  2  0  0  0  0  0  0
  157.3420  212.6840  154.8340 O   0  0  0  0  0  0  0  0  0  0  0  0
  160.1090  212.0120  153.2320 O   0  0  0  0  0  0  0  0  0  0  0  0
  159.9730  212.7000  150.9320 C   0  0  2  0  0  3  0  0  0  0  0  0
  160.8470  212.1120  152.1150 C   0  0  2  0  0  3  0  0  0  0  0  0
  158.8890  212.5780  152.9230 C   0  0  1  0  0  0  0  0  0  0  0  0
  157.1160  211.2490  154.6520 C   0  0  0  0  0  0  0  0  0  0  0  0
  160.8060  213.5290  149.9800 C   0  0  0  0  0  2  0  0  0  0  0  0
  159.9600  214.4520  149.2900 O   0  0  0  0  0  0  0  0  0  0  0  0
  158.4270  213.4710  147.6750 N   0  0  0  0  0  1  0  0  0  0  0  0
  159.6910  214.1670  147.9430 C   0  0  0  0  0  0  0  0  0  0  0  0
  160.5530  214.4520  146.9450 N   0  0  0  0  0  2  0  0  0  0  0  0
  164.3510  210.4180  147.4240 F   0  0  0  0  0  0  0  0  0  0  0  0
  164.2960  212.4050  148.5150 F   0  0  0  0  0  0  0  0  0  0  0  0
  162.9130  212.1000  146.7120 F   0  0  0  0  0  0  0  0  0  0  0  0
  163.5200  211.4630  147.8130 C   0  0  0  0  0  0  0  0  0  0  0  0
  162.0970  204.8150  151.5710 C   0  0  1  0  0  3  0  0  0  0  0  0
  161.7150  203.3940  151.4370 C   0  0  0  0  0  0  0  0  0  0  0  0
  162.5960  202.4120  151.6280 O   0  0  0  0  0  1  0  0  0  0  0  0
  160.3710  203.0990  150.9260 O   0  0  0  0  0  0  0  0  0  0  0  0
  162.4370  205.3630  150.2370 O   0  0  0  0  0  0  0  0  0  0  0  0
  161.5900  204.7410  149.3130 C   0  0  1  0  0  3  0  0  0  0  0  0
  160.0910  206.0240  147.8760 O   0  0  0  0  0  0  0  0  0  0  0  0
  161.2430  205.5170  148.0380 C   0  0  0  0  0  0  0  0  0  0  0  0
  162.2470  205.3640  147.0220 O   0  0  0  0  0  0  0  0  0  0  0  0
  162.0230  205.9340  145.7550 C   0  0  0  0  0  1  0  0  0  0  0  0
  161.1890  202.7750  147.7310 C   0  0  0  0  0  1  0  0  0  0  0  0
  161.9920  203.2990  148.9490 C   0  0  0  0  0  2  0  0  0  0  0  0
  1 20  1  0  0  0  0
  2  7  1  0  0  0  0
  4 10  2  0  0  0  0
  5  8  1  0  0  0  0
  5 11  1  1  0  0  0
  6 13  2  6  0  0  0
  6 19  1  0  0  0  0
  6 21  1  0  0  0  0
  8  3  1  0  0  0  0
  9 18  1  6  0  0  0
  9  2  1  0  0  0  0
 10  9  1  0  0  0  0
 10 12  1  0  0  0  0
 12 17  1  0  0  0  0
 14  7  1  1  0  0  0
 14 30  1  0  0  0  0
 14 16  1  0  0  0  0
 16 21  1  6  0  0  0
 16  5  1  0  0  0  0
 17  6  1  0  0  0  0
 19 15  1  1  0  0  0
 19  1  1  0  0  0  0
 20  3  1  0  0  0  0
 24 27  1  0  0  0  0
 25 32  1  0  0  0  0
 26 31  1  0  0  0  0
 26 25  1  0  0  0  0
 29 33  1  6  0  0  0
 29 22  1  0  0  0  0
 29 30  1  0  0  0  0
 30 28  1  1  0  0  0
 31 22  1  6  0  0  0
 31 28  1  0  0  0  0
 31 24  1  0  0  0  0
 32 27  1  0  0  0  0
 32 23  2  0  0  0  0
 34 33  1  0  0  0  0
 35 36  1  0  0  0  0
 36 34  1  0  0  0  0
 37 36  2  0  0  0  0
 38 41  1  0  0  0  0
 40 41  1  0  0  0  0
 41 39  1  0  0  0  0
 41  9  1  0  0  0  0
 42 46  1  6  0  0  0
 42 19  1  0  0  0  0
 43 42  1  0  0  0  0
 43 44  1  0  0  0  0
 45 43  2  0  0  0  0
 47 53  1  6  0  0  0
 47 46  1  0  0  0  0
 48 49  2  0  0  0  0
 49 47  1  0  0  0  0
 50 49  1  0  0  0  0
 51 50  1  0  0  0  0
 52 53  1  0  0  0  0
M  END
>  <MODEL>
7

>  <REMARK>
 VINA RESULT:       6.2      3.061      7.858
  Name = 
  12 active torsions:
  status: ('A' for Active; 'I' for Inactive)
    1  A    between atoms: C_2  and  C_30
    2  A    between atoms: C_2  and  O_31
    3  A    between atoms: C_5  and  C_15
    4  A    between atoms: O_6  and  C_44
    5  A    between atoms: C_15  and  O_26
    6  A    between atoms: C_15  and  C_51
    7  A    between atoms: C_18  and  O_31
    8  A    between atoms: C_22  and  C_32
    9  A    between atoms: O_26  and  C_39
   10  A    between atoms: C_36  and  C_45
   11  A    between atoms: C_39  and  C_44
   12  A    between atoms: C_39  and  C_49
                            x       y       z     vdW  Elec       q    Type
                         _______ _______ _______ _____ _____    ______ ____

>  <TORSDO>
F 12

$$$$
=
 OpenBabel11072411483D

 53 56  0  0  1  0  0  0  0  0999 V2000
  161.3040  206.5750  145.6780 C   0  0  0  0  0  2  0  0  0  0  0  0
  160.8350  206.9630  152.3220 O   0  0  0  0  0  0  0  0  0  0  0  0
  160.4570  208.6570  146.6170 C   0  0  0  0  0  2  0  0  0  0  0  0
  161.4680  203.6190  151.6090 O   0  0  0  0  0  0  0  0  0  0  0  0
  162.1060  209.2960  148.4270 C   0  0  2  0  0  3  0  0  0  0  0  0
  162.7290  205.5700  147.9940 P   0  0  2  0  0  0  0  0  0  0  0  0
  160.6520  207.2660  150.9370 C   0  0  0  0  0  2  0  0  0  0  0  0
  160.7310  209.4370  147.8820 C   0  0  0  0  0  2  0  0  0  0  0  0
  161.4890  205.7840  152.7030 C   0  0  1  0  0  0  0  0  0  0  0  0
  161.8130  204.7970  151.5490 C   0  0  0  0  0  0  0  0  0  0  0  0
  163.1070  209.6880  147.4940 O   0  0  0  0  0  1  0  0  0  0  0  0
  162.5730  205.0160  150.3780 C   0  0  0  0  0  2  0  0  0  0  0  0
  164.1530  204.9410  147.9680 O   0  0  0  0  0  0  0  0  0  0  0  0
  161.9560  207.9310  150.5040 C   0  0  1  0  0  3  0  0  0  0  0  0
  163.0950  205.1100  145.2480 C   0  0  0  0  0  1  0  0  0  0  0  0
  162.2280  207.8930  148.8990 C   0  0  2  0  0  3  0  0  0  0  0  0
  161.7060  204.9870  149.2890 O   0  0  0  0  0  0  0  0  0  0  0  0
  162.7060  206.1280  153.3730 F   0  0  0  0  0  0  0  0  0  0  0  0
  162.0050  205.2930  146.3220 C   0  0  2  0  0  0  0  0  0  0  0  0
  160.3330  207.1790  146.6750 C   0  0  0  0  0  2  0  0  0  0  0  0
  163.0220  207.2480  147.9070 O   0  0  0  0  0  0  0  0  0  0  0  0
  161.4780  211.1630  152.1940 C   0  0  0  0  0  2  0  0  0  0  0  0
  160.1110  208.3770  156.5410 O   0  0  0  0  0  0  0  0  0  0  0  0
  162.3380  210.4920  154.4370 C   0  0  0  0  0  2  0  0  0  0  0  0
  160.2000  208.3450  154.1950 C   0  0  0  0  0  2  0  0  0  0  0  0
  160.2650  209.5310  153.2640 C   0  0  0  0  0  2  0  0  0  0  0  0
  161.6710  209.9400  155.6010 O   0  0  0  0  0  0  0  0  0  0  0  0
  162.4750  208.9810  152.5830 O   0  0  0  0  0  0  0  0  0  0  0  0
  161.5110  210.4290  150.9230 C   0  0  2  0  0  3  0  0  0  0  0  0
  162.4640  209.2100  151.2600 C   0  0  2  0  0  3  0  0  0  0  0  0
  161.7210  209.9930  153.1410 C   0  0  1  0  0  0  0  0  0  0  0  0
  160.7310  208.8220  155.4970 C   0  0  0  0  0  0  0  0  0  0  0  0
  162.0010  211.2060  149.7220 C   0  0  0  0  0  2  0  0  0  0  0  0
  161.2250  212.3990  149.5800 O   0  0  0  0  0  0  0  0  0  0  0  0
  162.8550  213.0340  147.8890 N   0  0  0  0  0  2  0  0  0  0  0  0
  161.5210  213.2100  148.4750 C   0  0  0  0  0  0  0  0  0  0  0  0
  160.6700  214.1430  147.9980 N   0  0  0  0  0  1  0  0  0  0  0  0
  159.3390  205.8690  153.8710 F   0  0  0  0  0  0  0  0  0  0  0  0
  161.2310  205.4510  155.0500 F   0  0  0  0  0  0  0  0  0  0  0  0
  160.4360  203.8340  153.6320 F   0  0  0  0  0  0  0  0  0  0  0  0
  160.5700  205.2240  153.8280 C   0  0  0  0  0  0  0  0  0  0  0  0
  161.0650  203.9860  146.1760 C   0  0  1  0  0  3  0  0  0  0  0  0
  160.3740  203.7910  144.8840 C   0  0  0  0  0  0  0  0  0  0  0  0
  159.7040  202.6700  144.6120 O   0  0  0  0  0  1  0  0  0  0  0  0
  160.5820  204.8040  143.8440 O   0  0  0  0  0  0  0  0  0  0  0  0
  161.8480  202.7720  146.5040 O   0  0  0  0  0  0  0  0  0  0  0  0
  160.9900  201.9070  147.1920 C   0  0  1  0  0  3  0  0  0  0  0  0
  161.8170  199.7160  147.8810 O   0  0  0  0  0  0  0  0  0  0  0  0
  161.2050  200.4010  147.0050 C   0  0  0  0  0  0  0  0  0  0  0  0
  160.8780  199.9690  145.6750 O   0  0  0  0  0  0  0  0  0  0  0  0
  161.2060  198.6560  145.2870 C   0  0  0  0  0  1  0  0  0  0  0  0
  159.5280  201.6170  149.2680 C   0  0  0  0  0  1  0  0  0  0  0  0
  160.8320  202.2250  148.6910 C   0  0  0  0  0  2  0  0  0  0  0  0
  1 19  1  0  0  0  0
  1 20  1  0  0  0  0
  2  9  1  0  0  0  0
  3 20  1  0  0  0  0
  3  8  1  0  0  0  0
  5 11  1  6  0  0  0
  5 16  1  0  0  0  0
  6 13  2  1  0  0  0
  6 17  1  0  0  0  0
  7  2  1  0  0  0  0
  8  5  1  0  0  0  0
  9 18  1  1  0  0  0
  9 41  1  0  0  0  0
 10  4  2  0  0  0  0
 10  9  1  0  0  0  0
 12 10  1  0  0  0  0
 14  7  1  6  0  0  0
 14 30  1  0  0  0  0
 16 21  1  1  0  0  0
 16 14  1  0  0  0  0
 17 12  1  0  0  0  0
 19 15  1  6  0  0  0
 19  6  1  0  0  0  0
 21  6  1  0  0  0  0
 24 27  1  0  0  0  0
 25 32  1  0  0  0  0
 26 25  1  0  0  0  0
 28 31  1  0  0  0  0
 29 33  1  6  0  0  0
 29 30  1  0  0  0  0
 29 22  1  0  0  0  0
 30 28  1  1  0  0  0
 31 22  1  6  0  0  0
 31 26  1  0  0  0  0
 31 24  1  0  0  0  0
 32 27  1  0  0  0  0
 32 23  2  0  0  0  0
 34 33  1  0  0  0  0
 35 36  2  0  0  0  0
 36 34  1  0  0  0  0
 37 36  1  0  0  0  0
 40 41  1  0  0  0  0
 41 38  1  0  0  0  0
 41 39  1  0  0  0  0
 42 43  1  6  0  0  0
 42 19  1  0  0  0  0
 42 46  1  0  0  0  0
 44 43  1  0  0  0  0
 45 43  2  0  0  0  0
 46 47  1  0  0  0  0
 47 53  1  1  0  0  0
 49 47  1  0  0  0  0
 49 48  2  0  0  0  0
 50 49  1  0  0  0  0
 51 50  1  0  0  0  0
 53 52  1  0  0  0  0
M  END
>  <MODEL>
8

>  <REMARK>
 VINA RESULT:       6.4      4.051      9.725
  Name = 
  12 active torsions:
  status: ('A' for Active; 'I' for Inactive)
    1  A    between atoms: C_2  and  C_30
    2  A    between atoms: C_2  and  O_31
    3  A    between atoms: C_5  and  C_15
    4  A    between atoms: O_6  and  C_44
    5  A    between atoms: C_15  and  O_26
    6  A    between atoms: C_15  and  C_51
    7  A    between atoms: C_18  and  O_31
    8  A    between atoms: C_22  and  C_32
    9  A    between atoms: O_26  and  C_39
   10  A    between atoms: C_36  and  C_45
   11  A    between atoms: C_39  and  C_44
   12  A    between atoms: C_39  and  C_49
                            x       y       z     vdW  Elec       q    Type
                         _______ _______ _______ _____ _____    ______ ____

>  <TORSDO>
F 12

$$$$
