=
 OpenBabel11072413423D

 44 49  0  0  1  0  0  0  0  0999 V2000
  161.4920  205.8010  149.3940 C   0  0  0  0  0  0  0  0  0  0  0  0
  160.4660  202.6700  147.0350 C   0  0  0  0  0  0  0  0  0  0  0  0
  160.9320  205.6090  153.6860 C   0  0  0  0  0  2  0  0  0  0  0  0
  161.5560  207.1000  150.1620 C   0  0  0  0  0  2  0  0  0  0  0  0
  161.2800  208.2550  152.4060 C   0  0  2  0  0  3  0  0  0  0  0  0
  163.5440  204.7760  145.5820 O   0  0  0  0  0  0  0  0  0  0  0  0
  159.2840  205.0380  149.8630 O   0  0  0  0  0  1  0  0  0  0  0  0
  161.1780  203.3740  147.9370 C   0  0  0  0  0  0  0  0  0  0  0  0
  162.4800  204.4120  146.0580 C   0  0  0  0  0  0  0  0  0  0  0  0
  161.3020  206.8370  154.5080 C   0  0  0  0  0  2  0  0  0  0  0  0
  160.9950  206.9830  151.5860 C   0  0  2  0  0  3  0  0  0  0  0  0
  160.6290  204.6860  149.9940 C   0  0  1  0  0  0  0  0  0  0  0  0
  161.8990  202.6180  150.2080 C   0  0  0  0  0  2  0  0  0  0  0  0
  163.0290  205.6740  152.3250 C   0  0  0  0  0  1  0  0  0  0  0  0
  161.3390  204.0740  145.1570 C   0  0  0  0  0  2  0  0  0  0  0  0
  162.1810  205.6560  148.2270 C   0  0  0  0  0  0  0  0  0  0  0  0
  159.4250  201.8490  147.4520 O   0  0  0  0  0  1  0  0  0  0  0  0
  160.8290  203.3040  149.3840 C   0  0  2  0  0  3  0  0  0  0  0  0
  160.9460  204.4690  151.4820 C   0  0  2  0  0  3  0  0  0  0  0  0
  161.4950  205.6880  152.2660 C   0  0  1  0  0  0  0  0  0  0  0  0
  160.7650  208.1080  153.8580 C   0  0  1  0  0  3  0  0  0  0  0  0
  161.0800  202.2770  152.4180 O   0  0  0  0  0  1  0  0  0  0  0  0
  162.3070  204.3010  147.5540 C   0  0  1  0  0  3  0  0  0  0  0  0
  160.7890  202.7140  145.5670 C   0  0  0  0  0  2  0  0  0  0  0  0
  161.7640  203.1840  151.6100 C   0  0  1  0  0  3  0  0  0  0  0  0
  161.0980  209.2990  154.7760 C   0  0  1  0  0  3  0  0  0  0  0  0
  161.9330  210.3610  154.0630 C   0  0  0  0  0  1  0  0  0  0  0  0
  159.8550  209.8940  155.4530 C   0  0  1  0  0  3  0  0  0  0  0  0
  160.6840  208.9070  157.2600 C   0  0  0  0  0  1  0  0  0  0  0  0
  160.0940  210.0920  156.8170 O   0  0  0  0  0  0  0  0  0  0  0  0
  159.4570  211.1970  154.8190 C   0  0  0  0  0  0  0  0  0  0  0  0
  160.0740  212.2130  155.1040 O   0  0  0  0  0  0  0  0  0  0  0  0
  157.8590  213.4620  152.8600 C   0  0  0  0  0  0  0  0  0  0  0  0
  156.8310  212.8370  155.0240 N   0  0  0  0  0  2  0  0  0  0  0  0
  158.5230  212.3090  152.8070 C   0  0  0  0  0  3  0  0  0  0  0  0
  156.9670  211.4490  154.5780 C   0  0  0  0  0  2  0  0  0  0  0  0
  156.8920  213.6770  153.8950 N   0  0  0  0  0  2  0  0  0  0  0  0
  158.0420  214.4380  151.8410 N   0  0  0  0  0  1  0  0  0  0  0  0
  158.3060  211.2500  153.8530 C   0  0  2  0  0  3  0  0  0  0  0  0
  162.7300  208.0850  147.9000 N   0  0  0  0  0  1  0  0  0  0  0  0
  162.9750  206.7230  147.6740 N   0  0  0  0  0  2  0  0  0  0  0  0
  160.6220  209.4480  151.7250 C   0  0  0  0  0  2  0  0  0  0  0  0
  161.6340  210.1620  150.8520 C   0  0  0  0  0  2  0  0  0  0  0  0
  161.1390  211.5610  150.5530 C   0  0  0  0  0  1  0  0  0  0  0  0
  1 12  1  0  0  0  0
  1  4  1  0  0  0  0
  2 17  1  0  0  0  0
  2  8  2  0  0  0  0
  3 10  1  0  0  0  0
  5 42  1  6  0  0  0
  5 21  1  0  0  0  0
  6  9  2  0  0  0  0
  8 18  1  0  0  0  0
  9 23  1  0  0  0  0
 11  4  1  6  0  0  0
 11 20  1  0  0  0  0
 11  5  1  0  0  0  0
 12  7  1  6  0  0  0
 12 19  1  0  0  0  0
 13 25  1  0  0  0  0
 15 24  1  0  0  0  0
 15  9  1  0  0  0  0
 16  1  2  0  0  0  0
 18 12  1  0  0  0  0
 18 13  1  1  0  0  0
 19 25  1  0  0  0  0
 19 20  1  0  0  0  0
 20 14  1  0  0  0  0
 20  3  1  0  0  0  0
 21 10  1  0  0  0  0
 21 26  1  0  0  0  0
 23  8  1  0  0  0  0
 23 16  1  0  0  0  0
 24  2  1  0  0  0  0
 25 22  1  0  0  0  0
 26 28  1  0  0  0  0
 27 26  1  0  0  0  0
 28 30  1  0  0  0  0
 30 29  1  0  0  0  0
 31 32  2  0  0  0  0
 31 28  1  0  0  0  0
 33 37  1  0  0  0  0
 35 33  2  0  0  0  0
 35 39  1  0  0  0  0
 36 34  1  0  0  0  0
 37 34  1  0  0  0  0
 38 33  1  0  0  0  0
 39 36  1  0  0  0  0
 39 31  1  0  0  0  0
 41 40  1  0  0  0  0
 41 16  1  0  0  0  0
 43 42  1  0  0  0  0
 44 43  1  0  0  0  0
M  END
>  <MODEL>
1

>  <REMARK>
 VINA RESULT:      -5.7      0.000      0.000
  Name = 
  8 active torsions:
  status: ('A' for Active; 'I' for Inactive)
    1  A    between atoms: C_6  and  C_15
    2  A    between atoms: C_7  and  C_15
    3  A    between atoms: C_8  and  C_33
    4  A    between atoms: C_8  and  C_37
    5  A    between atoms: O_17  and  C_33
    6  A    between atoms: C_26  and  C_33
    7  A    between atoms: C_26  and  C_41
    8  A    between atoms: N_27  and  C_31
                            x       y       z     vdW  Elec       q    Type
                         _______ _______ _______ _____ _____    ______ ____

>  <TORSDO>
F 8

$$$$
=
 OpenBabel11072413423D

 44 49  0  0  1  0  0  0  0  0999 V2000
  160.0420  210.6840  153.8560 C   0  0  0  0  0  0  0  0  0  0  0  0
  157.6000  213.8940  154.2520 C   0  0  0  0  0  0  0  0  0  0  0  0
  161.1650  209.2340  149.9310 C   0  0  0  0  0  2  0  0  0  0  0  0
  160.6470  209.3030  153.7730 C   0  0  0  0  0  2  0  0  0  0  0  0
  161.4910  207.4430  152.2650 C   0  0  2  0  0  3  0  0  0  0  0  0
  160.2160  213.5430  157.2610 O   0  0  0  0  0  0  0  0  0  0  0  0
  158.0870  210.4680  152.5110 O   0  0  0  0  0  1  0  0  0  0  0  0
  158.7270  213.2080  153.9770 C   0  0  0  0  0  0  0  0  0  0  0  0
  159.3710  213.3520  156.4000 C   0  0  0  0  0  0  0  0  0  0  0  0
  162.0540  207.9990  149.8560 C   0  0  0  0  0  2  0  0  0  0  0  0
  160.6710  208.7440  152.3430 C   0  0  2  0  0  3  0  0  0  0  0  0
  159.2820  211.1810  152.6220 C   0  0  1  0  0  0  0  0  0  0  0  0
  160.1130  213.3560  151.9020 C   0  0  0  0  0  2  0  0  0  0  0  0
  162.5410  210.3270  151.7120 C   0  0  0  0  0  1  0  0  0  0  0  0
  157.9280  213.5730  156.7110 C   0  0  0  0  0  2  0  0  0  0  0  0
  160.1820  211.4310  154.9880 C   0  0  0  0  0  0  0  0  0  0  0  0
  156.6650  214.1340  153.2500 O   0  0  0  0  0  1  0  0  0  0  0  0
  158.9600  212.6700  152.6080 C   0  0  2  0  0  3  0  0  0  0  0  0
  160.1040  210.9810  151.3380 C   0  0  2  0  0  3  0  0  0  0  0  0
  161.1370  209.8250  151.3420 C   0  0  1  0  0  0  0  0  0  0  0  0
  161.5610  206.9160  150.8120 C   0  0  1  0  0  3  0  0  0  0  0  0
  160.1670  212.6460  149.6300 O   0  0  0  0  0  1  0  0  0  0  0  0
  159.7750  212.8930  155.0190 C   0  0  1  0  0  3  0  0  0  0  0  0
  157.3300  214.4530  155.6210 C   0  0  0  0  0  2  0  0  0  0  0  0
  160.6440  212.3430  150.9040 C   0  0  1  0  0  3  0  0  0  0  0  0
  162.4470  205.6700  150.6280 C   0  0  1  0  0  3  0  0  0  0  0  0
  163.1070  205.2330  151.9340 C   0  0  0  0  0  1  0  0  0  0  0  0
  161.7110  204.5150  149.9330 C   0  0  1  0  0  3  0  0  0  0  0  0
  160.8090  203.1220  151.4080 C   0  0  0  0  0  1  0  0  0  0  0  0
  160.5180  204.2260  150.6050 O   0  0  0  0  0  0  0  0  0  0  0  0
  161.4110  204.8420  148.4980 C   0  0  0  0  0  0  0  0  0  0  0  0
  160.4570  205.5580  148.2340 O   0  0  0  0  0  0  0  0  0  0  0  0
  161.4570  204.6900  145.1070 C   0  0  0  0  0  0  0  0  0  0  0  0
  160.6880  202.7030  146.3690 N   0  0  0  0  0  2  0  0  0  0  0  0
  162.1660  205.1160  146.1490 C   0  0  0  0  0  2  0  0  0  0  0  0
  161.9440  202.8110  147.1140 C   0  0  0  0  0  2  0  0  0  0  0  0
  160.8290  203.4040  145.1550 N   0  0  0  0  0  0  0  0  0  0  0  0
  161.3990  205.4670  143.9170 N   0  0  0  0  0  1  0  0  0  0  0  0
  162.2730  204.2840  147.3980 C   0  0  2  0  0  3  0  0  0  0  0  0
  162.2620  211.1150  156.3610 N   0  0  0  0  0  1  0  0  0  0  0  0
  160.8880  210.9380  156.1430 N   0  0  0  0  0  2  0  0  0  0  0  0
  160.8630  206.4000  153.1800 C   0  0  0  0  0  2  0  0  0  0  0  0
  161.3210  206.6260  154.6060 C   0  0  0  0  0  2  0  0  0  0  0  0
  160.1140  206.6980  155.5160 C   0  0  0  0  0  1  0  0  0  0  0  0
  1 16  2  0  0  0  0
  2 24  1  0  0  0  0
  3 20  1  0  0  0  0
  4  1  1  0  0  0  0
  5 11  1  0  0  0  0
  5 42  1  1  0  0  0
  8  2  2  0  0  0  0
  8 23  1  0  0  0  0
  9 15  1  0  0  0  0
  9  6  2  0  0  0  0
 10  3  1  0  0  0  0
 10 21  1  0  0  0  0
 11  4  1  1  0  0  0
 12  7  1  6  0  0  0
 12  1  1  0  0  0  0
 16 23  1  0  0  0  0
 16 41  1  0  0  0  0
 17  2  1  0  0  0  0
 18 13  1  1  0  0  0
 18 12  1  0  0  0  0
 18  8  1  0  0  0  0
 19 20  1  0  0  0  0
 19 12  1  0  0  0  0
 20 14  1  0  0  0  0
 20 11  1  0  0  0  0
 21  5  1  0  0  0  0
 22 25  1  0  0  0  0
 23  9  1  0  0  0  0
 24 15  1  0  0  0  0
 25 19  1  0  0  0  0
 25 13  1  0  0  0  0
 26 21  1  0  0  0  0
 26 27  1  0  0  0  0
 28 30  1  0  0  0  0
 28 26  1  0  0  0  0
 30 29  1  0  0  0  0
 31 28  1  0  0  0  0
 32 31  2  0  0  0  0
 33 37  2  0  0  0  0
 33 35  1  0  0  0  0
 34 36  1  0  0  0  0
 35 39  1  0  0  0  0
 36 39  1  0  0  0  0
 37 34  1  0  0  0  0
 38 33  1  0  0  0  0
 39 31  1  0  0  0  0
 41 40  1  0  0  0  0
 42 43  1  0  0  0  0
 43 44  1  0  0  0  0
M  END
>  <MODEL>
2

>  <REMARK>
 VINA RESULT:      -4.0      2.433      9.704
  Name = 
  8 active torsions:
  status: ('A' for Active; 'I' for Inactive)
    1  A    between atoms: C_6  and  C_15
    2  A    between atoms: C_7  and  C_15
    3  A    between atoms: C_8  and  C_33
    4  A    between atoms: C_8  and  C_37
    5  A    between atoms: O_17  and  C_33
    6  A    between atoms: C_26  and  C_33
    7  A    between atoms: C_26  and  C_41
    8  A    between atoms: N_27  and  C_31
                            x       y       z     vdW  Elec       q    Type
                         _______ _______ _______ _____ _____    ______ ____

>  <TORSDO>
F 8

$$$$
=
 OpenBabel11072413423D

 44 49  0  0  1  0  0  0  0  0999 V2000
  161.3930  205.5170  149.0750 C   0  0  0  0  0  0  0  0  0  0  0  0
  159.9680  202.0860  147.4570 C   0  0  0  0  0  0  0  0  0  0  0  0
  161.0940  206.2410  153.3360 C   0  0  0  0  0  2  0  0  0  0  0  0
  161.6120  206.9320  149.5560 C   0  0  0  0  0  2  0  0  0  0  0  0
  161.5740  208.5330  151.5270 C   0  0  2  0  0  3  0  0  0  0  0  0
  163.1090  203.5650  145.4640 O   0  0  0  0  0  0  0  0  0  0  0  0
  159.1650  205.0710  149.7910 O   0  0  0  0  0  1  0  0  0  0  0  0
  160.7910  202.8870  148.1620 C   0  0  0  0  0  0  0  0  0  0  0  0
  162.0510  203.4030  146.0530 C   0  0  0  0  0  0  0  0  0  0  0  0
  161.6150  207.5690  153.8710 C   0  0  0  0  0  2  0  0  0  0  0  0
  161.1350  207.1550  150.9990 C   0  0  2  0  0  3  0  0  0  0  0  0
  160.4820  204.6300  149.9290 C   0  0  1  0  0  0  0  0  0  0  0  0
  161.5910  202.5380  150.5050 C   0  0  0  0  0  2  0  0  0  0  0  0
  163.0990  205.8380  151.8960 C   0  0  0  0  0  1  0  0  0  0  0  0
  160.8320  202.9990  145.2930 C   0  0  0  0  0  2  0  0  0  0  0  0
  161.9930  205.0790  147.9320 C   0  0  0  0  0  0  0  0  0  0  0  0
  158.8920  201.4650  148.0810 O   0  0  0  0  0  1  0  0  0  0  0  0
  160.5300  203.1420  149.6070 C   0  0  2  0  0  3  0  0  0  0  0  0
  160.8750  204.6860  151.4140 C   0  0  2  0  0  3  0  0  0  0  0  0
  161.5700  205.9820  151.9060 C   0  0  1  0  0  0  0  0  0  0  0  0
  161.1420  208.7290  152.9990 C   0  0  1  0  0  3  0  0  0  0  0  0
  160.8900  202.7240  152.7720 O   0  0  0  0  0  1  0  0  0  0  0  0
  161.9660  203.6110  147.5460 C   0  0  1  0  0  3  0  0  0  0  0  0
  160.2000  201.8050  145.9980 C   0  0  0  0  0  2  0  0  0  0  0  0
  161.5930  203.3830  151.7650 C   0  0  1  0  0  3  0  0  0  0  0  0
  161.6290  210.0430  153.6370 C   0  0  1  0  0  3  0  0  0  0  0  0
  162.8660  210.6020  152.9360 C   0  0  0  0  0  1  0  0  0  0  0  0
  160.5130  211.0890  153.7700 C   0  0  1  0  0  3  0  0  0  0  0  0
  159.1260  211.7820  152.1810 C   0  0  0  0  0  1  0  0  0  0  0  0
  159.3940  210.7020  153.0230 O   0  0  0  0  0  0  0  0  0  0  0  0
  160.1140  211.2860  155.2050 C   0  0  0  0  0  0  0  0  0  0  0  0
  160.9540  211.6520  156.0130 O   0  0  0  0  0  0  0  0  0  0  0  0
  157.0920  212.8320  155.1580 C   0  0  0  0  0  0  0  0  0  0  0  0
  158.4000  212.8560  157.2610 N   0  0  0  0  0  2  0  0  0  0  0  0
  157.7160  211.7300  154.7460 C   0  0  0  0  0  3  0  0  0  0  0  0
  158.4810  211.4020  157.1130 C   0  0  0  0  0  2  0  0  0  0  0  0
  157.3220  213.3230  156.4830 N   0  0  0  0  0  2  0  0  0  0  0  0
  156.1340  213.4650  154.3190 N   0  0  0  0  0  1  0  0  0  0  0  0
  158.6980  211.0240  155.6410 C   0  0  2  0  0  3  0  0  0  0  0  0
  162.3980  206.6270  145.9970 N   0  0  0  0  0  1  0  0  0  0  0  0
  162.8340  205.9350  147.1360 N   0  0  0  0  0  2  0  0  0  0  0  0
  160.9740  209.6210  150.6460 C   0  0  0  0  0  2  0  0  0  0  0  0
  162.0800  210.4100  149.9780 C   0  0  0  0  0  2  0  0  0  0  0  0
  161.4970  211.2460  148.8590 C   0  0  0  0  0  1  0  0  0  0  0  0
  1  4  1  0  0  0  0
  1 12  1  0  0  0  0
  2 17  1  0  0  0  0
  2  8  2  0  0  0  0
  3 10  1  0  0  0  0
  5 42  1  6  0  0  0
  5 21  1  0  0  0  0
  6  9  2  0  0  0  0
  8 18  1  0  0  0  0
  9 23  1  0  0  0  0
 11  4  1  6  0  0  0
 11  5  1  0  0  0  0
 11 20  1  0  0  0  0
 12  7  1  6  0  0  0
 12 19  1  0  0  0  0
 13 25  1  0  0  0  0
 14 20  1  0  0  0  0
 15 24  1  0  0  0  0
 15  9  1  0  0  0  0
 16  1  2  0  0  0  0
 18 12  1  0  0  0  0
 18 13  1  1  0  0  0
 19 25  1  0  0  0  0
 19 20  1  0  0  0  0
 20  3  1  0  0  0  0
 21 26  1  0  0  0  0
 21 10  1  0  0  0  0
 23 16  1  0  0  0  0
 23  8  1  0  0  0  0
 24  2  1  0  0  0  0
 25 22  1  0  0  0  0
 26 28  1  0  0  0  0
 27 26  1  0  0  0  0
 28 31  1  0  0  0  0
 29 30  1  0  0  0  0
 30 28  1  0  0  0  0
 31 39  1  0  0  0  0
 31 32  2  0  0  0  0
 33 37  1  0  0  0  0
 35 33  2  0  0  0  0
 35 39  1  0  0  0  0
 36 34  1  0  0  0  0
 37 34  1  0  0  0  0
 38 33  1  0  0  0  0
 39 36  1  0  0  0  0
 40 41  1  0  0  0  0
 41 16  1  0  0  0  0
 43 42  1  0  0  0  0
 44 43  1  0  0  0  0
M  END
>  <MODEL>
3

>  <REMARK>
 VINA RESULT:      -3.1      1.223      1.775
  Name = 
  8 active torsions:
  status: ('A' for Active; 'I' for Inactive)
    1  A    between atoms: C_6  and  C_15
    2  A    between atoms: C_7  and  C_15
    3  A    between atoms: C_8  and  C_33
    4  A    between atoms: C_8  and  C_37
    5  A    between atoms: O_17  and  C_33
    6  A    between atoms: C_26  and  C_33
    7  A    between atoms: C_26  and  C_41
    8  A    between atoms: N_27  and  C_31
                            x       y       z     vdW  Elec       q    Type
                         _______ _______ _______ _____ _____    ______ ____

>  <TORSDO>
F 8

$$$$
