=
 OpenBabel11072411373D

 61 72  0  0  1  0  0  0  0  0999 V2000
  162.3160  206.4780  152.8000 C   0  0  1  0  0  3  0  0  0  0  0  0
  163.4750  208.7080  148.4880 C   0  0  0  0  0  3  0  0  0  0  0  0
  159.6370  212.2910  150.9060 C   0  0  0  0  0  2  0  0  0  0  0  0
  161.3150  207.3850  150.5820 C   0  0  1  0  0  3  0  0  0  0  0  0
  161.2560  211.1540  149.3480 C   0  0  0  0  0  0  0  0  0  0  0  0
  163.0620  209.0360  155.0170 C   0  0  0  0  0  2  0  0  0  0  0  0
  161.1950  212.1180  148.1780 C   0  0  0  0  0  2  0  0  0  0  0  0
  162.1510  211.5340  147.2090 N   0  0  0  0  0  0  0  0  0  0  0  0
  160.2070  208.6910  152.3450 O   0  0  0  0  0  0  0  0  0  0  0  0
  162.7570  208.5120  156.4230 C   0  0  0  0  0  2  0  0  0  0  0  0
  160.7550  206.8100  154.8200 C   0  0  1  0  0  3  0  0  0  0  0  0
  159.8370  203.1340  150.5210 C   0  0  0  0  0  3  0  0  0  0  0  0
  161.1020  206.9900  157.2560 O   0  0  0  0  0  0  0  0  0  0  0  0
  161.3070  208.3430  156.9280 C   0  0  2  0  0  0  0  0  0  0  0  0
  160.0860  207.5920  151.4870 C   0  0  2  0  0  3  0  0  0  0  0  0
  160.0090  212.9400  153.9080 C   0  0  0  0  0  0  0  0  0  0  0  0
  160.4200  213.3670  151.5050 N   0  0  0  0  0  0  0  0  0  0  0  0
  162.1150  210.2420  148.9870 C   0  0  0  0  0  0  0  0  0  0  0  0
  158.6710  208.9040  153.0490 P   0  0  1  0  0  0  0  0  0  0  0  0
  158.0730  207.5710  153.4410 O   0  0  0  0  0  1  0  0  0  0  0  0
  160.7380  211.7720  153.8300 O   0  0  0  0  0  0  0  0  0  0  0  0
  159.8010  213.8670  152.7460 C   0  0  1  0  0  3  0  0  0  0  0  0
  162.5970  210.4820  147.8020 C   0  0  0  0  0  0  0  0  0  0  0  0
  163.4720  209.5470  147.4010 N   0  0  0  0  0  0  0  0  0  0  0  0
  158.7620  209.8800  154.4390 O   0  0  0  0  0  0  0  0  0  0  0  0
  162.2410  208.5210  154.0050 O   0  0  0  0  0  0  0  0  0  0  0  0
  160.5870  205.4250  154.9160 O   0  0  0  0  0  1  0  0  0  0  0  0
  162.3700  208.4800  150.7570 C   0  0  0  0  0  2  0  0  0  0  0  0
  161.7340  204.3220  152.1630 C   0  0  0  0  0  0  0  0  0  0  0  0
  159.5360  213.1760  155.0810 N   0  0  0  0  0  0  0  0  0  0  0  0
  162.5960  205.0820  152.9440 O   0  0  0  0  0  0  0  0  0  0  0  0
  158.9610  209.2730  157.2610 C   0  0  0  0  0  1  0  0  0  0  0  0
  160.3350  207.4550  156.1750 C   0  0  1  0  0  0  0  0  0  0  0  0
  159.8630  204.5330  150.6470 C   0  0  0  0  0  3  0  0  0  0  0  0
  160.0680  208.9580  156.2680 C   0  0  2  0  0  0  0  0  0  0  0  0
  160.5110  211.1820  150.5640 N   0  0  0  0  0  2  0  0  0  0  0  0
  162.6410  209.1250  149.4850 N   0  0  0  0  0  0  0  0  0  0  0  0
  157.6530  209.6560  151.9270 O   0  0  0  0  0  0  0  0  0  0  0  0
  160.7670  202.3370  151.2190 C   0  0  0  0  0  0  0  0  0  0  0  0
  161.7270  202.9340  152.0540 C   0  0  0  0  0  3  0  0  0  0  0  0
  160.0630  209.7510  154.9490 C   0  0  2  0  0  3  0  0  0  0  0  0
  161.1090  206.5090  151.8200 C   0  0  2  0  0  0  0  0  0  0  0  0
  162.1140  207.1420  154.1700 C   0  0  2  0  0  3  0  0  0  0  0  0
  160.8320  205.0970  151.4780 C   0  0  0  0  0  0  0  0  0  0  0  0
  159.9070  212.0830  155.9690 C   0  0  0  0  0  2  0  0  0  0  0  0
  160.7220  211.1260  155.0900 C   0  0  2  0  0  3  0  0  0  0  0  0
  160.7270  200.9110  151.0810 C   0  0  0  0  0  0  0  0  0  0  0  0
  160.6940  199.7590  150.9680 N   0  0  0  0  0  0  0  0  0  0  0  0
  160.5170  214.4530  150.5340 C   0  0  0  0  0  2  0  0  0  0  0  0
  157.7100  213.7760  147.3520 C   0  0  0  0  0  0  0  0  0  0  0  0
  158.2140  213.8810  149.7240 C   0  0  0  0  0  3  0  0  0  0  0  0
  159.9490  214.3560  148.1000 C   0  0  0  0  0  3  0  0  0  0  0  0
  159.5350  214.2390  149.4320 C   0  0  0  0  0  0  0  0  0  0  0  0
  157.3040  213.6520  148.6860 C   0  0  0  0  0  3  0  0  0  0  0  0
  159.0390  214.1280  147.0640 C   0  0  0  0  0  3  0  0  0  0  0  0
  156.9160  214.0970  145.0340 C   0  0  0  0  0  1  0  0  0  0  0  0
  156.7770  213.5480  146.3370 O   0  0  0  0  0  0  0  0  0  0  0  0
  158.3630  214.4250  152.6090 C   0  0  0  0  0  2  0  0  0  0  0  0
  156.8720  213.5630  154.3440 N   0  0  0  0  0  1  0  0  0  0  0  0
  156.0440  213.7440  152.0810 C   0  0  0  0  0  1  0  0  0  0  0  0
  157.2490  213.4400  152.9450 C   0  0  1  0  0  3  0  0  0  0  0  0
  1 31  1  1  0  0  0
  1 43  1  0  0  0  0
  2 37  1  0  0  0  0
  3 17  1  0  0  0  0
  4 28  1  1  0  0  0
  4 15  1  0  0  0  0
  4 42  1  0  0  0  0
  5 36  1  0  0  0  0
  6 10  1  0  0  0  0
  7  5  1  0  0  0  0
  8 23  2  0  0  0  0
  8  7  1  0  0  0  0
  9 19  1  0  0  0  0
 11 27  1  1  0  0  0
 11 33  1  0  0  0  0
 12 34  2  0  0  0  0
 12 39  1  0  0  0  0
 14 10  1  6  0  0  0
 14 13  1  0  0  0  0
 15 42  1  0  0  0  0
 15  9  1  1  0  0  0
 16 30  2  0  0  0  0
 17 22  1  0  0  0  0
 18  5  2  0  0  0  0
 18 37  1  0  0  0  0
 19 38  2  6  0  0  0
 19 20  1  0  0  0  0
 19 25  1  0  0  0  0
 21 16  1  0  0  0  0
 21 46  1  0  0  0  0
 22 58  1  6  0  0  0
 22 16  1  0  0  0  0
 23 18  1  0  0  0  0
 24 23  1  0  0  0  0
 24  2  2  0  0  0  0
 26  6  1  0  0  0  0
 29 31  1  0  0  0  0
 30 45  1  0  0  0  0
 33 35  1  0  0  0  0
 33 14  1  0  0  0  0
 33 13  1  1  0  0  0
 34 44  1  0  0  0  0
 35 14  1  0  0  0  0
 35 32  1  1  0  0  0
 36  3  1  0  0  0  0
 37 28  1  0  0  0  0
 39 40  2  0  0  0  0
 40 29  1  0  0  0  0
 41 25  1  1  0  0  0
 41 46  1  0  0  0  0
 41 35  1  0  0  0  0
 42 44  1  6  0  0  0
 42  1  1  0  0  0  0
 43 26  1  6  0  0  0
 43 11  1  0  0  0  0
 44 29  2  0  0  0  0
 46 45  1  1  0  0  0
 47 39  1  0  0  0  0
 48 47  3  0  0  0  0
 49 17  1  0  0  0  0
 50 54  1  0  0  0  0
 52 53  2  0  0  0  0
 53 51  1  0  0  0  0
 53 49  1  0  0  0  0
 54 51  2  0  0  0  0
 55 50  2  0  0  0  0
 55 52  1  0  0  0  0
 56 57  1  0  0  0  0
 57 50  1  0  0  0  0
 58 61  1  0  0  0  0
 61 60  1  6  0  0  0
 61 59  1  0  0  0  0
M  END
>  <MODEL>
1

>  <REMARK>
 VINA RESULT:      36.7      0.000      0.000
  Name = 
  6 active torsions:
  status: ('A' for Active; 'I' for Inactive)
    1  A    between atoms: C_6  and  C_53
    2  A    between atoms: C_9  and  O_17
    3  A    between atoms: N_24  and  C_42
    4  A    between atoms: C_31  and  C_50
    5  A    between atoms: C_33  and  C_42
    6  A    between atoms: C_50  and  C_59
                            x       y       z     vdW  Elec       q    Type
                         _______ _______ _______ _____ _____    ______ ____

>  <TORSDO>
F 6

$$$$
=
 OpenBabel11072411373D

 61 72  0  0  1  0  0  0  0  0999 V2000
  160.2900  211.1570  147.7970 C   0  0  1  0  0  3  0  0  0  0  0  0
  161.1230  206.2950  147.0360 C   0  0  0  0  0  3  0  0  0  0  0  0
  162.1760  207.0090  152.6750 C   0  0  0  0  0  2  0  0  0  0  0  0
  162.0790  209.2870  148.0070 C   0  0  1  0  0  3  0  0  0  0  0  0
  161.9320  206.0860  150.3450 C   0  0  0  0  0  0  0  0  0  0  0  0
  157.9310  210.9720  150.3300 C   0  0  0  0  0  2  0  0  0  0  0  0
  162.3840  204.6590  150.5940 C   0  0  0  0  0  2  0  0  0  0  0  0
  162.2470  204.0250  149.2620 N   0  0  0  0  0  0  0  0  0  0  0  0
  161.7580  210.1000  150.3040 O   0  0  0  0  0  0  0  0  0  0  0  0
  157.5540  212.4090  150.6950 C   0  0  0  0  0  2  0  0  0  0  0  0
  160.4230  212.8950  149.6920 C   0  0  1  0  0  3  0  0  0  0  0  0
  164.2770  212.3040  145.4920 C   0  0  0  0  0  3  0  0  0  0  0  0
  158.8090  214.4520  150.7190 O   0  0  0  0  0  0  0  0  0  0  0  0
  158.5100  213.3190  151.4980 C   0  0  2  0  0  0  0  0  0  0  0  0
  162.5590  210.1880  149.1590 C   0  0  2  0  0  3  0  0  0  0  0  0
  160.1360  208.6830  154.2900 C   0  0  0  0  0  0  0  0  0  0  0  0
  160.9770  206.5460  153.3650 N   0  0  0  0  0  0  0  0  0  0  0  0
  161.6260  206.1240  149.0780 C   0  0  0  0  0  0  0  0  0  0  0  0
  162.5940  210.9460  151.5230 P   0  0  1  0  0  0  0  0  0  0  0  0
  163.1760  212.2320  150.9790 O   0  0  0  0  0  0  0  0  0  0  0  0
  159.8450  209.1250  153.0170 O   0  0  0  0  0  0  0  0  0  0  0  0
  160.7140  207.3290  154.5870 C   0  0  1  0  0  3  0  0  0  0  0  0
  161.8050  204.9680  148.5070 C   0  0  0  0  0  0  0  0  0  0  0  0
  161.5120  204.9880  147.1980 N   0  0  0  0  0  0  0  0  0  0  0  0
  161.5650  211.3290  152.8210 O   0  0  0  0  0  0  0  0  0  0  0  0
  159.2540  210.7990  149.9020 O   0  0  0  0  0  0  0  0  0  0  0  0
  160.8220  213.8680  148.7700 O   0  0  0  0  0  1  0  0  0  0  0  0
  160.8770  208.4210  148.3930 C   0  0  0  0  0  2  0  0  0  0  0  0
  161.5890  212.1950  146.1770 C   0  0  0  0  0  0  0  0  0  0  0  0
  159.8490  209.5350  155.2110 N   0  0  0  0  0  0  0  0  0  0  0  0
  160.2990  212.0360  146.6680 O   0  0  0  0  0  0  0  0  0  0  0  0
  160.0440  213.6970  153.4940 C   0  0  0  0  0  1  0  0  0  0  0  0
  159.9040  213.6110  150.9740 C   0  0  1  0  0  0  0  0  0  0  0  0
  163.8740  211.5260  146.5920 C   0  0  0  0  0  3  0  0  0  0  0  0
  159.7350  212.8340  152.2810 C   0  0  2  0  0  0  0  0  0  0  0  0
  161.8920  207.1780  151.2600 N   0  0  0  0  0  2  0  0  0  0  0  0
  161.1840  207.0160  148.1940 N   0  0  0  0  0  0  0  0  0  0  0  0
  163.8520  209.9730  152.1010 O   0  0  0  0  0  1  0  0  0  0  0  0
  163.3270  213.0220  144.7390 C   0  0  0  0  0  0  0  0  0  0  0  0
  161.9640  212.9730  145.0830 C   0  0  0  0  0  3  0  0  0  0  0  0
  160.2590  211.3870  152.3080 C   0  0  2  0  0  3  0  0  0  0  0  0
  161.7900  210.7890  147.9850 C   0  0  2  0  0  0  0  0  0  0  0  0
  159.5820  211.8070  148.9940 C   0  0  2  0  0  3  0  0  0  0  0  0
  162.5150  211.4920  146.9040 C   0  0  0  0  0  0  0  0  0  0  0  0
  159.3220  210.7420  154.5910 C   0  0  0  0  0  2  0  0  0  0  0  0
  159.3360  210.4450  153.0860 C   0  0  2  0  0  3  0  0  0  0  0  0
  163.7520  213.8110  143.6210 C   0  0  0  0  0  0  0  0  0  0  0  0
  164.0950  214.4510  142.7190 N   0  0  0  0  0  0  0  0  0  0  0  0
  161.1670  205.1420  153.7160 C   0  0  0  0  0  2  0  0  0  0  0  0
  159.7860  202.6550  150.4950 C   0  0  0  0  0  0  0  0  0  0  0  0
  161.1340  202.9550  152.4920 C   0  0  0  0  0  3  0  0  0  0  0  0
  159.7750  204.7850  151.6690 C   0  0  0  0  0  3  0  0  0  0  0  0
  160.6720  204.2700  152.6110 C   0  0  0  0  0  0  0  0  0  0  0  0
  160.6910  202.1500  151.4370 C   0  0  0  0  0  3  0  0  0  0  0  0
  159.3310  203.9790  150.6160 C   0  0  0  0  0  3  0  0  0  0  0  0
  158.6370  200.6210  149.6910 C   0  0  0  0  0  1  0  0  0  0  0  0
  159.3550  201.8250  149.4570 O   0  0  0  0  0  0  0  0  0  0  0  0
  161.8370  207.3200  155.6530 C   0  0  0  0  0  2  0  0  0  0  0  0
  161.5140  209.1480  157.2430 N   0  0  0  0  0  1  0  0  0  0  0  0
  159.9550  207.3020  157.2590 C   0  0  0  0  0  1  0  0  0  0  0  0
  161.3990  207.7110  157.0600 C   0  0  1  0  0  3  0  0  0  0  0  0
  1 31  1  6  0  0  0
  1 42  1  0  0  0  0
  1 43  1  0  0  0  0
  2 24  2  0  0  0  0
  2 37  1  0  0  0  0
  3 17  1  0  0  0  0
  4 28  1  1  0  0  0
  4 15  1  0  0  0  0
  5  7  1  0  0  0  0
  5 36  1  0  0  0  0
  6 10  1  0  0  0  0
  8  7  1  0  0  0  0
  9 19  1  0  0  0  0
 11 27  1  6  0  0  0
 11 33  1  0  0  0  0
 12 34  1  0  0  0  0
 13 14  1  0  0  0  0
 14 10  1  6  0  0  0
 14 35  1  0  0  0  0
 15  9  1  1  0  0  0
 16 22  1  0  0  0  0
 16 30  2  0  0  0  0
 17 49  1  0  0  0  0
 17 22  1  0  0  0  0
 18  5  2  0  0  0  0
 19 20  2  6  0  0  0
 19 38  1  0  0  0  0
 19 25  1  0  0  0  0
 21 46  1  0  0  0  0
 21 16  1  0  0  0  0
 22 58  1  6  0  0  0
 23 18  1  0  0  0  0
 23  8  2  0  0  0  0
 24 23  1  0  0  0  0
 26  6  1  0  0  0  0
 29 31  1  0  0  0  0
 29 44  1  0  0  0  0
 33 13  1  1  0  0  0
 33 14  1  0  0  0  0
 33 35  1  0  0  0  0
 34 44  2  0  0  0  0
 35 41  1  0  0  0  0
 35 32  1  1  0  0  0
 36  3  1  0  0  0  0
 37 28  1  0  0  0  0
 37 18  1  0  0  0  0
 39 40  1  0  0  0  0
 39 12  2  0  0  0  0
 40 29  2  0  0  0  0
 41 25  1  1  0  0  0
 41 46  1  0  0  0  0
 42 44  1  6  0  0  0
 42  4  1  0  0  0  0
 42 15  1  0  0  0  0
 43 11  1  0  0  0  0
 43 26  1  1  0  0  0
 45 30  1  0  0  0  0
 46 45  1  1  0  0  0
 47 39  1  0  0  0  0
 48 47  3  0  0  0  0
 50 55  2  0  0  0  0
 50 54  1  0  0  0  0
 51 53  1  0  0  0  0
 52 53  2  0  0  0  0
 53 49  1  0  0  0  0
 54 51  2  0  0  0  0
 55 52  1  0  0  0  0
 57 56  1  0  0  0  0
 57 50  1  0  0  0  0
 58 61  1  0  0  0  0
 61 59  1  0  0  0  0
 61 60  1  6  0  0  0
M  END
>  <MODEL>
2

>  <REMARK>
 VINA RESULT:      37.2      2.810      8.286
  Name = 
  6 active torsions:
  status: ('A' for Active; 'I' for Inactive)
    1  A    between atoms: C_6  and  C_53
    2  A    between atoms: C_9  and  O_17
    3  A    between atoms: N_24  and  C_42
    4  A    between atoms: C_31  and  C_50
    5  A    between atoms: C_33  and  C_42
    6  A    between atoms: C_50  and  C_59
                            x       y       z     vdW  Elec       q    Type
                         _______ _______ _______ _____ _____    ______ ____

>  <TORSDO>
F 6

$$$$
