=
 OpenBabel11072411083D

 46 48  0  0  1  0  0  0  0  0999 V2000
  160.8160  207.1990  151.0920 C   0  0  2  0  0  3  0  0  0  0  0  0
  160.3810  203.7710  149.1840 C   0  0  1  0  0  3  0  0  0  0  0  0
  160.4840  203.0330  150.3940 O   0  0  0  0  0  0  0  0  0  0  0  0
  160.7580  205.6970  150.7760 C   0  0  2  0  0  3  0  0  0  0  0  0
  161.6870  203.3710  151.0500 C   0  0  1  0  0  3  0  0  0  0  0  0
  161.5990  204.7720  151.6720 C   0  0  1  0  0  3  0  0  0  0  0  0
  160.7370  205.2840  149.2960 C   0  0  1  0  0  3  0  0  0  0  0  0
  161.9870  202.3450  152.1250 C   0  0  0  0  0  1  0  0  0  0  0  0
  162.8890  205.2790  151.8500 O   0  0  0  0  0  1  0  0  0  0  0  0
  160.9400  203.0200  148.0100 C   0  0  0  0  0  3  0  0  0  0  0  0
  160.8450  201.6910  147.9460 C   0  0  0  0  0  2  0  0  0  0  0  0
  161.9640  205.7570  148.4950 C   0  0  0  0  0  2  0  0  0  0  0  0
  161.5990  206.5080  147.2220 C   0  0  0  0  0  2  0  0  0  0  0  0
  162.1380  205.7960  145.9770 C   0  0  1  0  0  3  0  0  0  0  0  0
  163.6650  203.9980  145.0960 C   0  0  0  0  0  1  0  0  0  0  0  0
  164.2750  205.1340  147.2110 C   0  0  0  0  0  1  0  0  0  0  0  0
  163.1190  204.6670  146.3410 C   0  0  0  0  0  3  0  0  0  0  0  0
  161.3690  205.8670  143.7100 O   0  0  0  0  0  1  0  0  0  0  0  0
  159.6830  205.9260  145.4020 C   0  0  0  0  0  1  0  0  0  0  0  0
  161.0400  205.3600  144.9760 C   0  0  2  0  0  0  0  0  0  0  0  0
  161.0040  203.9430  144.9420 O   0  0  0  0  0  0  0  0  0  0  0  0
  159.7490  203.5060  144.4710 C   0  0  0  0  0  2  0  0  0  0  0  0
  159.6350  202.1280  144.6510 O   0  0  0  0  0  1  0  0  0  0  0  0
  162.0600  208.9900  149.8830 C   0  0  0  0  0  1  0  0  0  0  0  0
  162.1870  207.7860  150.7880 C   0  0  0  0  0  2  0  0  0  0  0  0
  160.4670  207.4590  152.4170 O   0  0  0  0  0  0  0  0  0  0  0  0
  161.4370  208.3620  152.8540 C   0  0  0  0  0  2  0  0  0  0  0  0
  161.0100  209.0130  154.1560 C   0  0  0  0  0  2  0  0  0  0  0  0
  161.4720  210.4370  154.2440 C   0  0  0  0  0  0  0  0  0  0  0  0
  162.5860  210.6880  154.6800 O   0  0  0  0  0  0  0  0  0  0  0  0
  160.5670  211.5710  153.8570 C   0  0  2  0  0  3  0  0  0  0  0  0
  158.4660  213.2870  153.1650 C   0  0  0  0  0  2  0  0  0  0  0  0
  159.1450  212.5570  151.9910 C   0  0  2  0  0  3  0  0  0  0  0  0
  159.3630  211.7140  154.7520 C   0  0  0  0  0  0  0  0  0  0  0  0
  159.2640  211.0210  155.9920 N   0  0  0  0  0  1  0  0  0  0  0  0
  158.3870  212.4760  154.3800 N   0  0  0  0  0  0  0  0  0  0  0  0
  160.0890  211.4210  152.4160 C   0  0  0  0  0  2  0  0  0  0  0  0
  159.8640  213.4990  151.2020 O   0  0  0  0  0  0  0  0  0  0  0  0
  160.0170  213.3780  149.8140 C   0  0  0  0  0  0  0  0  0  0  0  0
  162.4300  212.1520  147.3410 F   0  0  0  0  0  0  0  0  0  0  0  0
  161.1820  212.8340  149.2540 C   0  0  0  0  0  3  0  0  0  0  0  0
  160.2770  213.1200  147.0310 C   0  0  0  0  0  3  0  0  0  0  0  0
  159.1150  213.6680  147.5780 C   0  0  0  0  0  3  0  0  0  0  0  0
  158.9800  213.7970  148.9650 C   0  0  0  0  0  0  0  0  0  0  0  0
  161.3090  212.7020  147.8680 C   0  0  0  0  0  0  0  0  0  0  0  0
  157.4930  214.4510  149.6200 Cl  0  0  0  0  0  0  0  0  0  0  0  0
  1 25  1  1  0  0  0
  1 26  1  0  0  0  0
  2 10  1  6  0  0  0
  2  7  1  0  0  0  0
  2  3  1  0  0  0  0
  3  5  1  0  0  0  0
  4  1  1  6  0  0  0
  4  6  1  0  0  0  0
  5  6  1  0  0  0  0
  5  8  1  1  0  0  0
  6  9  1  6  0  0  0
  7 12  1  1  0  0  0
  7  4  1  0  0  0  0
 11 10  2  0  0  0  0
 13 12  1  0  0  0  0
 14 17  1  0  0  0  0
 14 13  1  1  0  0  0
 15 17  1  0  0  0  0
 17 16  1  0  0  0  0
 18 20  1  0  0  0  0
 20 19  1  1  0  0  0
 20 14  1  0  0  0  0
 21 20  1  0  0  0  0
 22 23  1  0  0  0  0
 22 21  1  0  0  0  0
 24 25  1  0  0  0  0
 26 27  1  0  0  0  0
 27 28  1  0  0  0  0
 28 29  1  0  0  0  0
 29 30  2  0  0  0  0
 31 29  1  1  0  0  0
 31 34  1  0  0  0  0
 32 36  1  0  0  0  0
 33 38  1  1  0  0  0
 33 37  1  0  0  0  0
 33 32  1  0  0  0  0
 34 35  1  0  0  0  0
 36 34  2  0  0  0  0
 37 31  1  0  0  0  0
 39 38  1  0  0  0  0
 40 45  1  0  0  0  0
 41 39  1  0  0  0  0
 42 43  2  0  0  0  0
 42 45  1  0  0  0  0
 43 44  1  0  0  0  0
 44 46  1  0  0  0  0
 44 39  2  0  0  0  0
 45 41  2  0  0  0  0
M  END
>  <MODEL>
1

>  <REMARK>
 VINA RESULT:      -5.4      0.000      0.000
  Name = 
  17 active torsions:
  status: ('A' for Active; 'I' for Inactive)
    1  A    between atoms: C_1  and  C_10
    2  A    between atoms: C_2  and  C_37
    3  A    between atoms: C_3  and  O_36
    4  A    between atoms: C_4  and  C_22
    5  A    between atoms: C_4  and  C_38
    6  A    between atoms: C_7  and  C_24
    7  A    between atoms: C_7  and  C_37
    8  A    between atoms: C_11  and  O_36
    9  A    between atoms: C_15  and  C_29
   10  A    between atoms: O_23  and  C_24
   11  A    between atoms: O_23  and  C_29
   12  A    between atoms: C_27  and  C_38
   13  A    between atoms: C_27  and  C_43
   14  A    between atoms: C_27  and  C_44
   15  A    between atoms: C_29  and  C_35
   16  A    between atoms: O_30  and  C_34
   17  A    between atoms: O_30  and  C_43
                            x       y       z     vdW  Elec       q    Type
                         _______ _______ _______ _____ _____    ______ ____

>  <TORSDO>
F 17

$$$$
=
 OpenBabel11072411083D

 46 48  0  0  1  0  0  0  0  0999 V2000
  161.2790  208.2120  149.6710 C   0  0  2  0  0  3  0  0  0  0  0  0
  163.0540  205.9430  146.9730 C   0  0  1  0  0  3  0  0  0  0  0  0
  162.1370  206.3450  145.9650 O   0  0  0  0  0  0  0  0  0  0  0  0
  161.5910  207.4570  148.3700 C   0  0  2  0  0  3  0  0  0  0  0  0
  160.8190  206.0900  146.4000 C   0  0  1  0  0  3  0  0  0  0  0  0
  160.3910  207.0940  147.4780 C   0  0  1  0  0  3  0  0  0  0  0  0
  162.6810  206.3740  148.4220 C   0  0  1  0  0  3  0  0  0  0  0  0
  159.8700  206.1620  145.2200 C   0  0  0  0  0  1  0  0  0  0  0  0
  159.3500  206.5460  148.2330 O   0  0  0  0  0  1  0  0  0  0  0  0
  163.5310  204.5320  146.7770 C   0  0  0  0  0  3  0  0  0  0  0  0
  163.4050  203.9300  145.5940 C   0  0  0  0  0  2  0  0  0  0  0  0
  162.3880  205.2370  149.4180 C   0  0  0  0  0  2  0  0  0  0  0  0
  161.1650  204.4110  149.0460 C   0  0  0  0  0  2  0  0  0  0  0  0
  161.3050  202.9590  149.5130 C   0  0  1  0  0  3  0  0  0  0  0  0
  161.9590  202.1530  151.8070 C   0  0  0  0  0  1  0  0  0  0  0  0
  160.4120  204.0790  151.6280 C   0  0  0  0  0  1  0  0  0  0  0  0
  160.8590  202.7810  150.9750 C   0  0  0  0  0  3  0  0  0  0  0  0
  159.4080  201.5780  149.0320 O   0  0  0  0  0  1  0  0  0  0  0  0
  161.5480  200.6650  148.4870 C   0  0  0  0  0  1  0  0  0  0  0  0
  160.6780  201.9240  148.5470 C   0  0  2  0  0  0  0  0  0  0  0  0
  160.5680  202.5180  147.2640 O   0  0  0  0  0  0  0  0  0  0  0  0
  160.7060  201.5340  146.2650 C   0  0  0  0  0  2  0  0  0  0  0  0
  160.2910  202.0500  145.0380 O   0  0  0  0  0  1  0  0  0  0  0  0
  162.0350  210.2900  148.5200 C   0  0  0  0  0  1  0  0  0  0  0  0
  162.1060  209.4840  149.7960 C   0  0  0  0  0  2  0  0  0  0  0  0
  161.4700  207.4040  150.7910 O   0  0  0  0  0  0  0  0  0  0  0  0
  161.9630  208.2780  151.7610 C   0  0  0  0  0  2  0  0  0  0  0  0
  160.8720  208.6440  152.7510 C   0  0  0  0  0  2  0  0  0  0  0  0
  161.1960  209.9060  153.4930 C   0  0  0  0  0  0  0  0  0  0  0  0
  162.2890  210.0360  154.0220 O   0  0  0  0  0  0  0  0  0  0  0  0
  160.1750  210.9970  153.6480 C   0  0  2  0  0  3  0  0  0  0  0  0
  157.8960  212.5970  153.9350 C   0  0  0  0  0  2  0  0  0  0  0  0
  158.3180  212.2920  152.4850 C   0  0  2  0  0  3  0  0  0  0  0  0
  159.2050  210.7590  154.7760 C   0  0  0  0  0  0  0  0  0  0  0  0
  159.4260  209.7490  155.7550 N   0  0  0  0  0  1  0  0  0  0  0  0
  158.1360  211.4830  154.8520 N   0  0  0  0  0  0  0  0  0  0  0  0
  159.3850  211.1930  152.3570 C   0  0  0  0  0  2  0  0  0  0  0  0
  158.7920  213.4850  151.8710 O   0  0  0  0  0  0  0  0  0  0  0  0
  159.0230  213.5980  150.4940 C   0  0  0  0  0  0  0  0  0  0  0  0
  161.7900  213.5470  148.0870 F   0  0  0  0  0  0  0  0  0  0  0  0
  160.3210  213.5370  149.9660 C   0  0  0  0  0  3  0  0  0  0  0  0
  159.4500  213.7950  147.7260 C   0  0  0  0  0  3  0  0  0  0  0  0
  158.1540  213.8610  148.2410 C   0  0  0  0  0  3  0  0  0  0  0  0
  157.9370  213.7630  149.6200 C   0  0  0  0  0  0  0  0  0  0  0  0
  160.5330  213.6320  148.5870 C   0  0  0  0  0  0  0  0  0  0  0  0
  156.2950  213.8090  150.2310 Cl  0  0  0  0  0  0  0  0  0  0  0  0
  1 25  1  1  0  0  0
  1 26  1  0  0  0  0
  2 10  1  1  0  0  0
  2  7  1  0  0  0  0
  3  5  1  0  0  0  0
  3  2  1  0  0  0  0
  4  7  1  0  0  0  0
  4  1  1  1  0  0  0
  5  8  1  6  0  0  0
  5  6  1  0  0  0  0
  6  9  1  1  0  0  0
  6  4  1  0  0  0  0
  7 12  1  1  0  0  0
 11 10  2  0  0  0  0
 13 12  1  0  0  0  0
 14 13  1  6  0  0  0
 14 17  1  0  0  0  0
 17 16  1  0  0  0  0
 17 15  1  0  0  0  0
 20 19  1  6  0  0  0
 20 18  1  0  0  0  0
 20 14  1  0  0  0  0
 21 20  1  0  0  0  0
 22 21  1  0  0  0  0
 23 22  1  0  0  0  0
 24 25  1  0  0  0  0
 26 27  1  0  0  0  0
 27 28  1  0  0  0  0
 28 29  1  0  0  0  0
 29 30  2  0  0  0  0
 31 29  1  6  0  0  0
 31 34  1  0  0  0  0
 32 36  1  0  0  0  0
 33 38  1  1  0  0  0
 33 32  1  0  0  0  0
 34 36  2  0  0  0  0
 34 35  1  0  0  0  0
 37 33  1  0  0  0  0
 37 31  1  0  0  0  0
 39 38  1  0  0  0  0
 40 45  1  0  0  0  0
 41 39  1  0  0  0  0
 42 43  2  0  0  0  0
 42 45  1  0  0  0  0
 43 44  1  0  0  0  0
 44 46  1  0  0  0  0
 44 39  2  0  0  0  0
 45 41  2  0  0  0  0
M  END
>  <MODEL>
2

>  <REMARK>
 VINA RESULT:      -5.3      1.408      3.503
  Name = 
  17 active torsions:
  status: ('A' for Active; 'I' for Inactive)
    1  A    between atoms: C_1  and  C_10
    2  A    between atoms: C_2  and  C_37
    3  A    between atoms: C_3  and  O_36
    4  A    between atoms: C_4  and  C_22
    5  A    between atoms: C_4  and  C_38
    6  A    between atoms: C_7  and  C_24
    7  A    between atoms: C_7  and  C_37
    8  A    between atoms: C_11  and  O_36
    9  A    between atoms: C_15  and  C_29
   10  A    between atoms: O_23  and  C_24
   11  A    between atoms: O_23  and  C_29
   12  A    between atoms: C_27  and  C_38
   13  A    between atoms: C_27  and  C_43
   14  A    between atoms: C_27  and  C_44
   15  A    between atoms: C_29  and  C_35
   16  A    between atoms: O_30  and  C_34
   17  A    between atoms: O_30  and  C_43
                            x       y       z     vdW  Elec       q    Type
                         _______ _______ _______ _____ _____    ______ ____

>  <TORSDO>
F 17

$$$$
=
 OpenBabel11072411083D

 46 48  0  0  1  0  0  0  0  0999 V2000
  161.4450  208.3930  150.1600 C   0  0  2  0  0  3  0  0  0  0  0  0
  160.1990  204.6560  149.9240 C   0  0  1  0  0  3  0  0  0  0  0  0
  160.0150  204.5810  151.3310 O   0  0  0  0  0  0  0  0  0  0  0  0
  160.9930  206.9750  150.5380 C   0  0  2  0  0  3  0  0  0  0  0  0
  161.2190  204.9230  151.9820 C   0  0  1  0  0  3  0  0  0  0  0  0
  161.4840  206.4320  151.8910 C   0  0  1  0  0  3  0  0  0  0  0  0
  160.9530  205.9220  149.4190 C   0  0  1  0  0  3  0  0  0  0  0  0
  161.1520  204.4970  153.4350 C   0  0  0  0  0  1  0  0  0  0  0  0
  162.8500  206.6720  152.0640 O   0  0  0  0  0  1  0  0  0  0  0  0
  160.6010  203.3350  149.3320 C   0  0  0  0  0  3  0  0  0  0  0  0
  160.5200  202.2150  150.0520 C   0  0  0  0  0  2  0  0  0  0  0  0
  162.3120  205.6800  148.7370 C   0  0  0  0  0  2  0  0  0  0  0  0
  162.2800  205.9100  147.2330 C   0  0  0  0  0  2  0  0  0  0  0  0
  161.3880  204.8830  146.5270 C   0  0  1  0  0  3  0  0  0  0  0  0
  159.9010  206.8120  145.8920 C   0  0  0  0  0  1  0  0  0  0  0  0
  161.3330  205.8000  144.1430 C   0  0  0  0  0  1  0  0  0  0  0  0
  160.5430  205.5270  145.4130 C   0  0  0  0  0  3  0  0  0  0  0  0
  162.3570  202.7990  147.2000 O   0  0  0  0  0  1  0  0  0  0  0  0
  163.4860  203.9760  145.4540 C   0  0  0  0  0  1  0  0  0  0  0  0
  162.1360  203.6050  146.0740 C   0  0  2  0  0  0  0  0  0  0  0  0
  161.3230  202.9210  145.1330 O   0  0  0  0  0  0  0  0  0  0  0  0
  160.5280  201.9630  145.7930 C   0  0  0  0  0  2  0  0  0  0  0  0
  160.1830  200.9470  144.9030 O   0  0  0  0  0  1  0  0  0  0  0  0
  161.9110  209.9020  148.2310 C   0  0  0  0  0  1  0  0  0  0  0  0
  161.9070  208.4700  148.7120 C   0  0  0  0  0  2  0  0  0  0  0  0
  162.4510  208.8540  151.0090 O   0  0  0  0  0  0  0  0  0  0  0  0
  161.9690  210.0780  151.4750 C   0  0  0  0  0  2  0  0  0  0  0  0
  162.1450  210.1820  152.9780 C   0  0  0  0  0  2  0  0  0  0  0  0
  160.8320  210.3610  153.6810 C   0  0  0  0  0  0  0  0  0  0  0  0
  160.1430  209.3850  153.9370 O   0  0  0  0  0  0  0  0  0  0  0  0
  160.3190  211.7280  154.0270 C   0  0  2  0  0  3  0  0  0  0  0  0
  159.0190  213.9940  155.0360 C   0  0  0  0  0  2  0  0  0  0  0  0
  158.3510  213.3290  153.8170 C   0  0  2  0  0  3  0  0  0  0  0  0
  160.2950  212.0070  155.5080 C   0  0  0  0  0  0  0  0  0  0  0  0
  160.9590  211.1610  156.4410 N   0  0  0  0  0  1  0  0  0  0  0  0
  159.6430  213.0350  155.9460 N   0  0  0  0  0  0  0  0  0  0  0  0
  158.9160  211.9430  153.4670 C   0  0  0  0  0  2  0  0  0  0  0  0
  158.4680  214.1870  152.6880 O   0  0  0  0  0  0  0  0  0  0  0  0
  157.7540  213.9910  151.4990 C   0  0  0  0  0  0  0  0  0  0  0  0
  154.3460  214.2830  150.1750 F   0  0  0  0  0  0  0  0  0  0  0  0
  156.3720  214.2180  151.4330 C   0  0  0  0  0  3  0  0  0  0  0  0
  156.3590  213.6190  149.0900 C   0  0  0  0  0  3  0  0  0  0  0  0
  157.7350  213.3850  149.1470 C   0  0  0  0  0  3  0  0  0  0  0  0
  158.4340  213.5700  150.3450 C   0  0  0  0  0  0  0  0  0  0  0  0
  155.6780  214.0360  150.2330 C   0  0  0  0  0  0  0  0  0  0  0  0
  160.1660  213.3080  150.3710 Cl  0  0  0  0  0  0  0  0  0  0  0  0
  1 25  1  6  0  0  0
  1 26  1  0  0  0  0
  2 10  1  1  0  0  0
  2  3  1  0  0  0  0
  3  5  1  0  0  0  0
  4  1  1  6  0  0  0
  4  6  1  0  0  0  0
  5  8  1  1  0  0  0
  6  5  1  0  0  0  0
  6  9  1  6  0  0  0
  7 12  1  1  0  0  0
  7  2  1  0  0  0  0
  7  4  1  0  0  0  0
 10 11  2  0  0  0  0
 13 12  1  0  0  0  0
 14 13  1  6  0  0  0
 16 17  1  0  0  0  0
 17 15  1  0  0  0  0
 17 14  1  0  0  0  0
 20 19  1  6  0  0  0
 20 14  1  0  0  0  0
 20 18  1  0  0  0  0
 21 22  1  0  0  0  0
 21 20  1  0  0  0  0
 23 22  1  0  0  0  0
 24 25  1  0  0  0  0
 26 27  1  0  0  0  0
 27 28  1  0  0  0  0
 28 29  1  0  0  0  0
 29 30  2  0  0  0  0
 31 29  1  1  0  0  0
 31 34  1  0  0  0  0
 32 36  1  0  0  0  0
 33 38  1  6  0  0  0
 33 32  1  0  0  0  0
 34 36  2  0  0  0  0
 34 35  1  0  0  0  0
 37 33  1  0  0  0  0
 37 31  1  0  0  0  0
 39 38  1  0  0  0  0
 40 45  1  0  0  0  0
 41 39  1  0  0  0  0
 42 43  2  0  0  0  0
 42 45  1  0  0  0  0
 43 44  1  0  0  0  0
 44 46  1  0  0  0  0
 44 39  2  0  0  0  0
 45 41  2  0  0  0  0
M  END
>  <MODEL>
3

>  <REMARK>
 VINA RESULT:      -5.2      2.191      2.906
  Name = 
  17 active torsions:
  status: ('A' for Active; 'I' for Inactive)
    1  A    between atoms: C_1  and  C_10
    2  A    between atoms: C_2  and  C_37
    3  A    between atoms: C_3  and  O_36
    4  A    between atoms: C_4  and  C_22
    5  A    between atoms: C_4  and  C_38
    6  A    between atoms: C_7  and  C_24
    7  A    between atoms: C_7  and  C_37
    8  A    between atoms: C_11  and  O_36
    9  A    between atoms: C_15  and  C_29
   10  A    between atoms: O_23  and  C_24
   11  A    between atoms: O_23  and  C_29
   12  A    between atoms: C_27  and  C_38
   13  A    between atoms: C_27  and  C_43
   14  A    between atoms: C_27  and  C_44
   15  A    between atoms: C_29  and  C_35
   16  A    between atoms: O_30  and  C_34
   17  A    between atoms: O_30  and  C_43
                            x       y       z     vdW  Elec       q    Type
                         _______ _______ _______ _____ _____    ______ ____

>  <TORSDO>
F 17

$$$$
=
 OpenBabel11072411083D

 46 48  0  0  1  0  0  0  0  0999 V2000
  162.1820  206.9450  152.0890 C   0  0  2  0  0  3  0  0  0  0  0  0
  162.5100  206.8910  148.1560 C   0  0  1  0  0  3  0  0  0  0  0  0
  162.8930  208.2590  148.1240 O   0  0  0  0  0  0  0  0  0  0  0  0
  162.3610  207.3880  150.6290 C   0  0  2  0  0  3  0  0  0  0  0  0
  161.9150  209.0370  148.7780 C   0  0  1  0  0  3  0  0  0  0  0  0
  161.9820  208.8420  150.2990 C   0  0  1  0  0  3  0  0  0  0  0  0
  161.9870  206.3790  149.5310 C   0  0  1  0  0  3  0  0  0  0  0  0
  162.1140  210.5000  148.4350 C   0  0  0  0  0  1  0  0  0  0  0  0
  160.7490  209.1820  150.8620 O   0  0  0  0  0  1  0  0  0  0  0  0
  161.7350  206.4890  146.9340 C   0  0  0  0  0  3  0  0  0  0  0  0
  162.3660  206.1810  145.8000 C   0  0  0  0  0  2  0  0  0  0  0  0
  160.5180  205.9210  149.5750 C   0  0  0  0  0  2  0  0  0  0  0  0
  160.2170  204.7710  148.6230 C   0  0  0  0  0  2  0  0  0  0  0  0
  161.0470  203.5290  148.9650 C   0  0  1  0  0  3  0  0  0  0  0  0
  159.6240  201.5380  149.5570 C   0  0  0  0  0  1  0  0  0  0  0  0
  161.4270  202.2080  151.1180 C   0  0  0  0  0  1  0  0  0  0  0  0
  160.4130  202.7110  150.1040 C   0  0  0  0  0  3  0  0  0  0  0  0
  161.7220  201.3730  148.1720 O   0  0  0  0  0  1  0  0  0  0  0  0
  162.6790  203.2570  147.0580 C   0  0  0  0  0  1  0  0  0  0  0  0
  161.4360  202.6740  147.7340 C   0  0  2  0  0  0  0  0  0  0  0  0
  160.3380  202.6580  146.8360 O   0  0  0  0  0  0  0  0  0  0  0  0
  160.7650  202.2280  145.5630 C   0  0  0  0  0  2  0  0  0  0  0  0
  159.7560  201.4790  144.9590 O   0  0  0  0  0  1  0  0  0  0  0  0
  161.2080  204.8480  153.0210 C   0  0  0  0  0  1  0  0  0  0  0  0
  160.9100  206.1300  152.2790 C   0  0  0  0  0  2  0  0  0  0  0  0
  162.1870  208.0340  152.9600 O   0  0  0  0  0  0  0  0  0  0  0  0
  160.8810  208.0860  153.4480 C   0  0  0  0  0  2  0  0  0  0  0  0
  160.8240  208.8940  154.7310 C   0  0  0  0  0  2  0  0  0  0  0  0
  161.2070  210.3260  154.5050 C   0  0  0  0  0  0  0  0  0  0  0  0
  162.3870  210.6340  154.4310 O   0  0  0  0  0  0  0  0  0  0  0  0
  160.1650  211.4040  154.4230 C   0  0  2  0  0  3  0  0  0  0  0  0
  157.8580  212.9900  154.4030 C   0  0  0  0  0  2  0  0  0  0  0  0
  158.2210  212.3220  153.0630 C   0  0  2  0  0  3  0  0  0  0  0  0
  159.2560  211.4550  155.6240 C   0  0  0  0  0  0  0  0  0  0  0  0
  159.5510  210.7400  156.8200 N   0  0  0  0  0  1  0  0  0  0  0  0
  158.1720  212.1580  155.5650 N   0  0  0  0  0  0  0  0  0  0  0  0
  159.3100  211.2440  153.1700 C   0  0  0  0  0  2  0  0  0  0  0  0
  158.6310  213.3200  152.1350 O   0  0  0  0  0  0  0  0  0  0  0  0
  157.9470  213.5850  150.9410 C   0  0  0  0  0  0  0  0  0  0  0  0
  154.5640  214.3280  149.7360 F   0  0  0  0  0  0  0  0  0  0  0  0
  156.5630  213.8080  150.9290 C   0  0  0  0  0  3  0  0  0  0  0  0
  156.6120  214.1450  148.5350 C   0  0  0  0  0  3  0  0  0  0  0  0
  157.9900  213.9190  148.5360 C   0  0  0  0  0  3  0  0  0  0  0  0
  158.6600  213.6410  149.7330 C   0  0  0  0  0  0  0  0  0  0  0  0
  155.8990  214.0900  149.7310 C   0  0  0  0  0  0  0  0  0  0  0  0
  160.3960  213.4030  149.7040 Cl  0  0  0  0  0  0  0  0  0  0  0  0
  1 25  1  6  0  0  0
  1 26  1  0  0  0  0
  2 10  1  6  0  0  0
  2  7  1  0  0  0  0
  3  2  1  0  0  0  0
  3  5  1  0  0  0  0
  4  1  1  1  0  0  0
  5  8  1  1  0  0  0
  5  6  1  0  0  0  0
  6  4  1  0  0  0  0
  6  9  1  1  0  0  0
  7 12  1  6  0  0  0
  7  4  1  0  0  0  0
 11 10  2  0  0  0  0
 13 12  1  0  0  0  0
 14 13  1  6  0  0  0
 14 17  1  0  0  0  0
 15 17  1  0  0  0  0
 17 16  1  0  0  0  0
 20 19  1  6  0  0  0
 20 18  1  0  0  0  0
 20 14  1  0  0  0  0
 21 20  1  0  0  0  0
 22 21  1  0  0  0  0
 23 22  1  0  0  0  0
 25 24  1  0  0  0  0
 26 27  1  0  0  0  0
 27 28  1  0  0  0  0
 29 28  1  0  0  0  0
 30 29  2  0  0  0  0
 31 29  1  1  0  0  0
 31 34  1  0  0  0  0
 32 36  1  0  0  0  0
 33 38  1  6  0  0  0
 33 37  1  0  0  0  0
 33 32  1  0  0  0  0
 34 35  1  0  0  0  0
 36 34  2  0  0  0  0
 37 31  1  0  0  0  0
 39 38  1  0  0  0  0
 41 39  1  0  0  0  0
 42 43  2  0  0  0  0
 42 45  1  0  0  0  0
 43 44  1  0  0  0  0
 44 39  2  0  0  0  0
 45 40  1  0  0  0  0
 45 41  2  0  0  0  0
 46 44  1  0  0  0  0
M  END
>  <MODEL>
4

>  <REMARK>
 VINA RESULT:      -5.0      2.141      3.871
  Name = 
  17 active torsions:
  status: ('A' for Active; 'I' for Inactive)
    1  A    between atoms: C_1  and  C_10
    2  A    between atoms: C_2  and  C_37
    3  A    between atoms: C_3  and  O_36
    4  A    between atoms: C_4  and  C_22
    5  A    between atoms: C_4  and  C_38
    6  A    between atoms: C_7  and  C_24
    7  A    between atoms: C_7  and  C_37
    8  A    between atoms: C_11  and  O_36
    9  A    between atoms: C_15  and  C_29
   10  A    between atoms: O_23  and  C_24
   11  A    between atoms: O_23  and  C_29
   12  A    between atoms: C_27  and  C_38
   13  A    between atoms: C_27  and  C_43
   14  A    between atoms: C_27  and  C_44
   15  A    between atoms: C_29  and  C_35
   16  A    between atoms: O_30  and  C_34
   17  A    between atoms: O_30  and  C_43
                            x       y       z     vdW  Elec       q    Type
                         _______ _______ _______ _____ _____    ______ ____

>  <TORSDO>
F 17

$$$$
=
 OpenBabel11072411083D

 46 48  0  0  1  0  0  0  0  0999 V2000
  160.7250  208.7020  152.7430 C   0  0  2  0  0  3  0  0  0  0  0  0
  159.5110  212.2040  151.3840 C   0  0  1  0  0  3  0  0  0  0  0  0
  160.1440  211.9870  150.1310 O   0  0  0  0  0  0  0  0  0  0  0  0
  160.5430  209.9460  151.8610 C   0  0  2  0  0  3  0  0  0  0  0  0
  161.5110  211.7040  150.3370 C   0  0  1  0  0  3  0  0  0  0  0  0
  161.7000  210.2910  150.9070 C   0  0  1  0  0  3  0  0  0  0  0  0
  159.8700  211.1740  152.4970 C   0  0  1  0  0  3  0  0  0  0  0  0
  162.2630  211.8370  149.0270 C   0  0  0  0  0  1  0  0  0  0  0  0
  162.9320  210.2190  151.5630 O   0  0  0  0  0  1  0  0  0  0  0  0
  159.4960  213.6550  151.7710 C   0  0  0  0  0  3  0  0  0  0  0  0
  158.3590  214.2480  152.1380 C   0  0  0  0  0  2  0  0  0  0  0  0
  160.6120  211.7290  153.7260 C   0  0  0  0  0  2  0  0  0  0  0  0
  159.7490  212.6400  154.5890 C   0  0  0  0  0  2  0  0  0  0  0  0
  158.8690  211.8340  155.5500 C   0  0  1  0  0  3  0  0  0  0  0  0
  159.9630  210.3460  157.2610 C   0  0  0  0  0  1  0  0  0  0  0  0
  160.6240  212.7310  157.1740 C   0  0  0  0  0  1  0  0  0  0  0  0
  159.4830  211.7510  156.9580 C   0  0  0  0  0  3  0  0  0  0  0  0
  156.7980  211.8370  154.3470 O   0  0  0  0  0  1  0  0  0  0  0  0
  157.2710  213.7870  155.6440 C   0  0  0  0  0  1  0  0  0  0  0  0
  157.3810  212.2620  155.5490 C   0  0  2  0  0  0  0  0  0  0  0  0
  156.7370  211.6440  156.6520 O   0  0  0  0  0  0  0  0  0  0  0  0
  155.3440  211.8360  156.5640 C   0  0  0  0  0  2  0  0  0  0  0  0
  154.6850  210.7910  157.2090 O   0  0  0  0  0  1  0  0  0  0  0  0
  160.2670  208.1220  155.1240 C   0  0  0  0  0  1  0  0  0  0  0  0
  160.9850  209.0750  154.1960 C   0  0  0  0  0  2  0  0  0  0  0  0
  161.7490  207.8830  152.2690 O   0  0  0  0  0  0  0  0  0  0  0  0
  161.2080  206.5980  152.3170 C   0  0  0  0  0  2  0  0  0  0  0  0
  161.8270  205.7180  151.2480 C   0  0  0  0  0  2  0  0  0  0  0  0
  160.8280  205.3290  150.1990 C   0  0  0  0  0  0  0  0  0  0  0  0
  160.0950  206.1780  149.7150 O   0  0  0  0  0  0  0  0  0  0  0  0
  160.6720  203.8990  149.7710 C   0  0  2  0  0  3  0  0  0  0  0  0
  160.8250  201.1390  149.3230 C   0  0  0  0  0  2  0  0  0  0  0  0
  161.6840  202.0150  148.3910 C   0  0  2  0  0  3  0  0  0  0  0  0
  160.6140  202.9270  150.9220 C   0  0  0  0  0  0  0  0  0  0  0  0
  160.4390  203.3660  152.2650 N   0  0  0  0  0  1  0  0  0  0  0  0
  160.7380  201.6620  150.6860 N   0  0  0  0  0  0  0  0  0  0  0  0
  161.8030  203.4810  148.8360 C   0  0  0  0  0  2  0  0  0  0  0  0
  161.1520  201.9630  147.0720 O   0  0  0  0  0  0  0  0  0  0  0  0
  161.1160  203.0710  146.2160 C   0  0  0  0  0  0  0  0  0  0  0  0
  162.6360  206.3860  145.8300 F   0  0  0  0  0  0  0  0  0  0  0  0
  161.8940  204.2110  146.4660 C   0  0  0  0  0  3  0  0  0  0  0  0
  161.0450  205.2620  144.4610 C   0  0  0  0  0  3  0  0  0  0  0  0
  160.2630  204.1340  144.2050 C   0  0  0  0  0  3  0  0  0  0  0  0
  160.2960  203.0390  145.0770 C   0  0  0  0  0  0  0  0  0  0  0  0
  161.8610  205.3000  145.5910 C   0  0  0  0  0  0  0  0  0  0  0  0
  159.3340  201.6230  144.7040 Cl  0  0  0  0  0  0  0  0  0  0  0  0
  1 25  1  1  0  0  0
  2 10  1  1  0  0  0
  2  7  1  0  0  0  0
  3  5  1  0  0  0  0
  3  2  1  0  0  0  0
  4  7  1  0  0  0  0
  4  1  1  1  0  0  0
  5  8  1  6  0  0  0
  5  6  1  0  0  0  0
  6  9  1  1  0  0  0
  6  4  1  0  0  0  0
  7 12  1  1  0  0  0
 10 11  2  0  0  0  0
 12 13  1  0  0  0  0
 14 13  1  6  0  0  0
 14 17  1  0  0  0  0
 17 16  1  0  0  0  0
 17 15  1  0  0  0  0
 18 20  1  0  0  0  0
 20 14  1  0  0  0  0
 20 19  1  1  0  0  0
 20 21  1  0  0  0  0
 22 21  1  0  0  0  0
 22 23  1  0  0  0  0
 25 24  1  0  0  0  0
 26 27  1  0  0  0  0
 26  1  1  0  0  0  0
 28 27  1  0  0  0  0
 29 28  1  0  0  0  0
 30 29  2  0  0  0  0
 31 29  1  1  0  0  0
 31 34  1  0  0  0  0
 32 36  1  0  0  0  0
 33 38  1  6  0  0  0
 33 37  1  0  0  0  0
 33 32  1  0  0  0  0
 34 35  1  0  0  0  0
 36 34  2  0  0  0  0
 37 31  1  0  0  0  0
 39 41  1  0  0  0  0
 39 38  1  0  0  0  0
 42 45  1  0  0  0  0
 43 42  2  0  0  0  0
 43 44  1  0  0  0  0
 44 39  2  0  0  0  0
 45 40  1  0  0  0  0
 45 41  2  0  0  0  0
 46 44  1  0  0  0  0
M  END
>  <MODEL>
5

>  <REMARK>
 VINA RESULT:      -4.7      3.821     10.110
  Name = 
  17 active torsions:
  status: ('A' for Active; 'I' for Inactive)
    1  A    between atoms: C_1  and  C_10
    2  A    between atoms: C_2  and  C_37
    3  A    between atoms: C_3  and  O_36
    4  A    between atoms: C_4  and  C_22
    5  A    between atoms: C_4  and  C_38
    6  A    between atoms: C_7  and  C_24
    7  A    between atoms: C_7  and  C_37
    8  A    between atoms: C_11  and  O_36
    9  A    between atoms: C_15  and  C_29
   10  A    between atoms: O_23  and  C_24
   11  A    between atoms: O_23  and  C_29
   12  A    between atoms: C_27  and  C_38
   13  A    between atoms: C_27  and  C_43
   14  A    between atoms: C_27  and  C_44
   15  A    between atoms: C_29  and  C_35
   16  A    between atoms: O_30  and  C_34
   17  A    between atoms: O_30  and  C_43
                            x       y       z     vdW  Elec       q    Type
                         _______ _______ _______ _____ _____    ______ ____

>  <TORSDO>
F 17

$$$$
=
 OpenBabel11072411083D

 46 48  0  0  1  0  0  0  0  0999 V2000
  161.5820  207.9990  149.6730 C   0  0  2  0  0  3  0  0  0  0  0  0
  163.0350  205.7920  146.7410 C   0  0  1  0  0  3  0  0  0  0  0  0
  162.0630  206.2840  145.8290 O   0  0  0  0  0  0  0  0  0  0  0  0
  161.7570  207.2980  148.3180 C   0  0  2  0  0  3  0  0  0  0  0  0
  160.7720  206.0650  146.3540 C   0  0  1  0  0  3  0  0  0  0  0  0
  160.4760  207.0330  147.5080 C   0  0  1  0  0  3  0  0  0  0  0  0
  162.7950  206.1670  148.2340 C   0  0  1  0  0  3  0  0  0  0  0  0
  159.7400  206.2370  145.2570 C   0  0  0  0  0  1  0  0  0  0  0  0
  159.4720  206.4930  148.3170 O   0  0  0  0  0  1  0  0  0  0  0  0
  163.4280  204.3740  146.4440 C   0  0  0  0  0  3  0  0  0  0  0  0
  163.1520  203.8260  145.2590 C   0  0  0  0  0  2  0  0  0  0  0  0
  162.5260  204.9960  149.1960 C   0  0  0  0  0  2  0  0  0  0  0  0
  161.2570  204.2230  148.8640 C   0  0  0  0  0  2  0  0  0  0  0  0
  161.3260  202.7820  149.3800 C   0  0  1  0  0  3  0  0  0  0  0  0
  161.9650  202.0840  151.7130 C   0  0  0  0  0  1  0  0  0  0  0  0
  160.4260  204.0040  151.4340 C   0  0  0  0  0  1  0  0  0  0  0  0
  160.8720  202.6750  150.8460 C   0  0  0  0  0  3  0  0  0  0  0  0
  159.4260  201.3700  149.0190 O   0  0  0  0  0  1  0  0  0  0  0  0
  161.5370  200.5060  148.3080 C   0  0  0  0  0  1  0  0  0  0  0  0
  160.6510  201.7470  148.4480 C   0  0  2  0  0  0  0  0  0  0  0  0
  160.4360  202.3550  147.1850 O   0  0  0  0  0  0  0  0  0  0  0  0
  160.5620  201.3940  146.1610 C   0  0  0  0  0  2  0  0  0  0  0  0
  160.1740  201.9510  144.9440 O   0  0  0  0  0  1  0  0  0  0  0  0
  162.4580  209.9590  148.4060 C   0  0  0  0  0  1  0  0  0  0  0  0
  161.5420  209.5140  149.5220 C   0  0  0  0  0  2  0  0  0  0  0  0
  162.5830  207.6350  150.5730 O   0  0  0  0  0  0  0  0  0  0  0  0
  162.1910  208.2230  151.7760 C   0  0  0  0  0  2  0  0  0  0  0  0
  161.0390  207.4530  152.3940 C   0  0  0  0  0  2  0  0  0  0  0  0
  160.9100  207.7280  153.8620 C   0  0  0  0  0  0  0  0  0  0  0  0
  160.6120  206.8220  154.6260 O   0  0  0  0  0  0  0  0  0  0  0  0
  161.0850  209.1160  154.4090 C   0  0  2  0  0  3  0  0  0  0  0  0
  161.0680  211.5170  155.8480 C   0  0  0  0  0  2  0  0  0  0  0  0
  159.9470  211.3580  154.8030 C   0  0  2  0  0  3  0  0  0  0  0  0
  161.4870  209.1460  155.8610 C   0  0  0  0  0  0  0  0  0  0  0  0
  161.9270  207.9750  156.5420 N   0  0  0  0  0  1  0  0  0  0  0  0
  161.4200  210.2620  156.5110 N   0  0  0  0  0  0  0  0  0  0  0  0
  159.8090  209.9350  154.2380 C   0  0  0  0  0  2  0  0  0  0  0  0
  160.1660  212.2720  153.7340 O   0  0  0  0  0  0  0  0  0  0  0  0
  159.1250  212.8820  153.0220 C   0  0  0  0  0  0  0  0  0  0  0  0
  157.9890  213.3920  149.5720 F   0  0  0  0  0  0  0  0  0  0  0  0
  159.0860  212.8520  151.6200 C   0  0  0  0  0  3  0  0  0  0  0  0
  157.0060  214.0860  151.6270 C   0  0  0  0  0  3  0  0  0  0  0  0
  157.0380  214.1250  153.0230 C   0  0  0  0  0  3  0  0  0  0  0  0
  158.0920  213.5260  153.7220 C   0  0  0  0  0  0  0  0  0  0  0  0
  158.0290  213.4490  150.9260 C   0  0  0  0  0  0  0  0  0  0  0  0
  158.0810  213.5580  155.4740 Cl  0  0  0  0  0  0  0  0  0  0  0  0
  1 25  1  6  0  0  0
  1 26  1  0  0  0  0
  2 10  1  1  0  0  0
  2  7  1  0  0  0  0
  3  5  1  0  0  0  0
  3  2  1  0  0  0  0
  4  1  1  1  0  0  0
  5  8  1  6  0  0  0
  5  6  1  0  0  0  0
  6  9  1  1  0  0  0
  6  4  1  0  0  0  0
  7  4  1  0  0  0  0
  7 12  1  1  0  0  0
 11 10  2  0  0  0  0
 13 12  1  0  0  0  0
 14 13  1  6  0  0  0
 14 17  1  0  0  0  0
 17 16  1  0  0  0  0
 17 15  1  0  0  0  0
 20 19  1  6  0  0  0
 20 18  1  0  0  0  0
 20 14  1  0  0  0  0
 21 20  1  0  0  0  0
 22 21  1  0  0  0  0
 23 22  1  0  0  0  0
 24 25  1  0  0  0  0
 26 27  1  0  0  0  0
 27 28  1  0  0  0  0
 28 29  1  0  0  0  0
 29 30  2  0  0  0  0
 31 29  1  1  0  0  0
 31 34  1  0  0  0  0
 32 36  1  0  0  0  0
 33 38  1  6  0  0  0
 33 32  1  0  0  0  0
 34 36  2  0  0  0  0
 34 35  1  0  0  0  0
 37 31  1  0  0  0  0
 37 33  1  0  0  0  0
 39 44  1  0  0  0  0
 39 38  1  0  0  0  0
 40 45  1  0  0  0  0
 41 39  2  0  0  0  0
 42 43  1  0  0  0  0
 43 44  2  0  0  0  0
 44 46  1  0  0  0  0
 45 41  1  0  0  0  0
 45 42  2  0  0  0  0
M  END
>  <MODEL>
6

>  <REMARK>
 VINA RESULT:      -4.7      2.239      4.331
  Name = 
  17 active torsions:
  status: ('A' for Active; 'I' for Inactive)
    1  A    between atoms: C_1  and  C_10
    2  A    between atoms: C_2  and  C_37
    3  A    between atoms: C_3  and  O_36
    4  A    between atoms: C_4  and  C_22
    5  A    between atoms: C_4  and  C_38
    6  A    between atoms: C_7  and  C_24
    7  A    between atoms: C_7  and  C_37
    8  A    between atoms: C_11  and  O_36
    9  A    between atoms: C_15  and  C_29
   10  A    between atoms: O_23  and  C_24
   11  A    between atoms: O_23  and  C_29
   12  A    between atoms: C_27  and  C_38
   13  A    between atoms: C_27  and  C_43
   14  A    between atoms: C_27  and  C_44
   15  A    between atoms: C_29  and  C_35
   16  A    between atoms: O_30  and  C_34
   17  A    between atoms: O_30  and  C_43
                            x       y       z     vdW  Elec       q    Type
                         _______ _______ _______ _____ _____    ______ ____

>  <TORSDO>
F 17

$$$$
=
 OpenBabel11072411083D

 46 48  0  0  1  0  0  0  0  0999 V2000
  160.7420  206.2790  151.4720 C   0  0  2  0  0  3  0  0  0  0  0  0
  160.2120  202.7260  149.8380 C   0  0  1  0  0  3  0  0  0  0  0  0
  160.7260  202.0700  150.9890 O   0  0  0  0  0  0  0  0  0  0  0  0
  160.7780  204.7650  151.2200 C   0  0  2  0  0  3  0  0  0  0  0  0
  162.0130  202.5700  151.2800 C   0  0  1  0  0  3  0  0  0  0  0  0
  161.9330  203.9850  151.8700 C   0  0  1  0  0  3  0  0  0  0  0  0
  160.4040  204.2720  149.8130 C   0  0  1  0  0  3  0  0  0  0  0  0
  162.7120  201.6420  152.2550 C   0  0  0  0  0  1  0  0  0  0  0  0
  163.1550  204.6360  151.6730 O   0  0  0  0  0  1  0  0  0  0  0  0
  160.5150  201.9750  148.5730 C   0  0  0  0  0  3  0  0  0  0  0  0
  160.9610  200.7190  148.6190 C   0  0  0  0  0  2  0  0  0  0  0  0
  161.3030  204.8290  148.6940 C   0  0  0  0  0  2  0  0  0  0  0  0
  161.3060  203.9670  147.4390 C   0  0  0  0  0  2  0  0  0  0  0  0
  161.1480  204.8170  146.1740 C   0  0  1  0  0  3  0  0  0  0  0  0
  162.3550  206.9320  146.8140 C   0  0  0  0  0  1  0  0  0  0  0  0
  163.6970  204.9730  146.1090 C   0  0  0  0  0  1  0  0  0  0  0  0
  162.3790  205.7070  145.9230 C   0  0  0  0  0  3  0  0  0  0  0  0
  161.4320  204.4750  143.8210 O   0  0  0  0  0  1  0  0  0  0  0  0
  159.2100  204.2290  144.6660 C   0  0  0  0  0  1  0  0  0  0  0  0
  160.7040  204.0140  144.9270 C   0  0  2  0  0  0  0  0  0  0  0  0
  160.9790  202.6420  145.1580 O   0  0  0  0  0  0  0  0  0  0  0  0
  159.8110  201.8770  144.9590 C   0  0  0  0  0  2  0  0  0  0  0  0
  160.1550  200.5450  144.7350 O   0  0  0  0  0  1  0  0  0  0  0  0
  162.0720  208.1750  150.5490 C   0  0  0  0  0  1  0  0  0  0  0  0
  161.0970  207.0680  150.2190 C   0  0  0  0  0  2  0  0  0  0  0  0
  161.5840  206.6450  152.5230 O   0  0  0  0  0  0  0  0  0  0  0  0
  160.7470  207.3180  153.4120 C   0  0  0  0  0  2  0  0  0  0  0  0
  161.1840  207.0730  154.8440 C   0  0  0  0  0  2  0  0  0  0  0  0
  160.3770  207.8790  155.8180 C   0  0  0  0  0  0  0  0  0  0  0  0
  159.7510  207.3130  156.7020 O   0  0  0  0  0  0  0  0  0  0  0  0
  160.2750  209.3710  155.6930 C   0  0  2  0  0  3  0  0  0  0  0  0
  160.1220  212.1460  156.0320 C   0  0  0  0  0  2  0  0  0  0  0  0
  158.7760  211.3950  156.0600 C   0  0  2  0  0  3  0  0  0  0  0  0
  161.3430  210.1140  156.4530 C   0  0  0  0  0  0  0  0  0  0  0  0
  162.4830  209.4500  156.9900 N   0  0  0  0  0  1  0  0  0  0  0  0
  161.2170  211.3890  156.6360 N   0  0  0  0  0  0  0  0  0  0  0  0
  158.9090  209.8670  156.1580 C   0  0  0  0  0  2  0  0  0  0  0  0
  158.0250  211.7310  154.8980 O   0  0  0  0  0  0  0  0  0  0  0  0
  158.6080  212.2290  153.7260 C   0  0  0  0  0  0  0  0  0  0  0  0
  161.0120  211.2460  151.1360 F   0  0  0  0  0  0  0  0  0  0  0  0
  159.5570  211.4830  153.0110 C   0  0  0  0  0  3  0  0  0  0  0  0
  159.7330  213.2420  151.3610 C   0  0  0  0  0  3  0  0  0  0  0  0
  158.7920  213.9940  152.0680 C   0  0  0  0  0  3  0  0  0  0  0  0
  158.2280  213.4920  153.2460 C   0  0  0  0  0  0  0  0  0  0  0  0
  160.1140  211.9870  151.8320 C   0  0  0  0  0  0  0  0  0  0  0  0
  157.0210  214.4440  154.0860 Cl  0  0  0  0  0  0  0  0  0  0  0  0
  1 25  1  6  0  0  0
  1 26  1  0  0  0  0
  2 10  1  6  0  0  0
  2  3  1  0  0  0  0
  3  5  1  0  0  0  0
  4  1  1  6  0  0  0
  4  6  1  0  0  0  0
  5  6  1  0  0  0  0
  5  8  1  1  0  0  0
  6  9  1  6  0  0  0
  7 12  1  6  0  0  0
  7  2  1  0  0  0  0
  7  4  1  0  0  0  0
 10 11  2  0  0  0  0
 13 12  1  0  0  0  0
 14 13  1  1  0  0  0
 17 16  1  0  0  0  0
 17 14  1  0  0  0  0
 17 15  1  0  0  0  0
 18 20  1  0  0  0  0
 20 19  1  6  0  0  0
 20 21  1  0  0  0  0
 20 14  1  0  0  0  0
 22 21  1  0  0  0  0
 23 22  1  0  0  0  0
 25 24  1  0  0  0  0
 26 27  1  0  0  0  0
 27 28  1  0  0  0  0
 28 29  1  0  0  0  0
 29 30  2  0  0  0  0
 31 29  1  1  0  0  0
 31 37  1  0  0  0  0
 31 34  1  0  0  0  0
 32 33  1  0  0  0  0
 32 36  1  0  0  0  0
 33 38  1  6  0  0  0
 33 37  1  0  0  0  0
 34 36  2  0  0  0  0
 34 35  1  0  0  0  0
 39 38  1  0  0  0  0
 40 45  1  0  0  0  0
 41 39  2  0  0  0  0
 42 45  2  0  0  0  0
 42 43  1  0  0  0  0
 43 44  2  0  0  0  0
 44 39  1  0  0  0  0
 44 46  1  0  0  0  0
 45 41  1  0  0  0  0
M  END
>  <MODEL>
7

>  <REMARK>
 VINA RESULT:      -4.4      2.133      2.811
  Name = 
  17 active torsions:
  status: ('A' for Active; 'I' for Inactive)
    1  A    between atoms: C_1  and  C_10
    2  A    between atoms: C_2  and  C_37
    3  A    between atoms: C_3  and  O_36
    4  A    between atoms: C_4  and  C_22
    5  A    between atoms: C_4  and  C_38
    6  A    between atoms: C_7  and  C_24
    7  A    between atoms: C_7  and  C_37
    8  A    between atoms: C_11  and  O_36
    9  A    between atoms: C_15  and  C_29
   10  A    between atoms: O_23  and  C_24
   11  A    between atoms: O_23  and  C_29
   12  A    between atoms: C_27  and  C_38
   13  A    between atoms: C_27  and  C_43
   14  A    between atoms: C_27  and  C_44
   15  A    between atoms: C_29  and  C_35
   16  A    between atoms: O_30  and  C_34
   17  A    between atoms: O_30  and  C_43
                            x       y       z     vdW  Elec       q    Type
                         _______ _______ _______ _____ _____    ______ ____

>  <TORSDO>
F 17

$$$$
=
 OpenBabel11072411083D

 46 48  0  0  1  0  0  0  0  0999 V2000
  161.7630  209.3370  152.6880 C   0  0  2  0  0  3  0  0  0  0  0  0
  161.1610  211.0220  156.2060 C   0  0  1  0  0  3  0  0  0  0  0  0
  161.2940  209.7760  156.8750 O   0  0  0  0  0  0  0  0  0  0  0  0
  161.5180  209.5400  154.1900 C   0  0  2  0  0  3  0  0  0  0  0  0
  160.3810  208.8490  156.3300 C   0  0  1  0  0  3  0  0  0  0  0  0
  160.8360  208.3820  154.9400 C   0  0  1  0  0  3  0  0  0  0  0  0
  161.0690  210.9350  154.6530 C   0  0  1  0  0  3  0  0  0  0  0  0
  160.2490  207.6570  157.2570 C   0  0  0  0  0  1  0  0  0  0  0  0
  159.7310  207.9040  154.2300 O   0  0  0  0  0  1  0  0  0  0  0  0
  160.1990  211.9420  156.9010 C   0  0  0  0  0  3  0  0  0  0  0  0
  160.4540  213.2480  156.9940 C   0  0  0  0  0  2  0  0  0  0  0  0
  159.7480  211.4110  154.0210 C   0  0  0  0  0  2  0  0  0  0  0  0
  158.5210  211.0470  154.8440 C   0  0  0  0  0  2  0  0  0  0  0  0
  157.2390  211.6050  154.2180 C   0  0  1  0  0  3  0  0  0  0  0  0
  155.2510  210.2840  155.0200 C   0  0  0  0  0  1  0  0  0  0  0  0
  156.4730  211.6900  156.6530 C   0  0  0  0  0  1  0  0  0  0  0  0
  156.0540  211.5570  155.1980 C   0  0  0  0  0  3  0  0  0  0  0  0
  158.3210  213.7390  154.2980 O   0  0  0  0  0  1  0  0  0  0  0  0
  156.0790  213.7200  153.4720 C   0  0  0  0  0  1  0  0  0  0  0  0
  157.4200  212.9820  153.5350 C   0  0  2  0  0  0  0  0  0  0  0  0
  157.9380  212.7710  152.2320 O   0  0  0  0  0  0  0  0  0  0  0  0
  158.5630  213.9460  151.7670 C   0  0  0  0  0  2  0  0  0  0  0  0
  158.1330  214.2250  150.4710 O   0  0  0  0  0  1  0  0  0  0  0  0
  161.9950  210.5550  150.5250 C   0  0  0  0  0  1  0  0  0  0  0  0
  161.3180  210.5460  151.8760 C   0  0  0  0  0  2  0  0  0  0  0  0
  161.1340  208.1850  152.2160 O   0  0  0  0  0  0  0  0  0  0  0  0
  162.1270  207.5260  151.4910 C   0  0  0  0  0  2  0  0  0  0  0  0
  161.6160  206.1930  150.9770 C   0  0  0  0  0  2  0  0  0  0  0  0
  161.0270  206.3160  149.6030 C   0  0  0  0  0  0  0  0  0  0  0  0
  159.9750  206.9160  149.4450 O   0  0  0  0  0  0  0  0  0  0  0  0
  161.6790  205.6620  148.4190 C   0  0  2  0  0  3  0  0  0  0  0  0
  162.6100  204.8390  145.9100 C   0  0  0  0  0  2  0  0  0  0  0  0
  161.2950  204.1880  146.3810 C   0  0  2  0  0  3  0  0  0  0  0  0
  162.3690  206.6340  147.4970 C   0  0  0  0  0  0  0  0  0  0  0  0
  162.6090  207.9850  147.8760 N   0  0  0  0  0  1  0  0  0  0  0  0
  162.7420  206.2350  146.3250 N   0  0  0  0  0  0  0  0  0  0  0  0
  160.6650  204.8580  147.6110 C   0  0  0  0  0  2  0  0  0  0  0  0
  161.5240  202.8100  146.6570 O   0  0  0  0  0  0  0  0  0  0  0  0
  161.2750  202.2270  147.9060 C   0  0  0  0  0  0  0  0  0  0  0  0
  160.5930  203.1880  151.3790 F   0  0  0  0  0  0  0  0  0  0  0  0
  161.0760  203.0140  149.0500 C   0  0  0  0  0  3  0  0  0  0  0  0
  160.7460  201.0280  150.3890 C   0  0  0  0  0  3  0  0  0  0  0  0
  160.9480  200.2360  149.2570 C   0  0  0  0  0  3  0  0  0  0  0  0
  161.2110  200.8290  148.0170 C   0  0  0  0  0  0  0  0  0  0  0  0
  160.8090  202.4160  150.2850 C   0  0  0  0  0  0  0  0  0  0  0  0
  161.4190  199.8070  146.6100 Cl  0  0  0  0  0  0  0  0  0  0  0  0
  1 25  1  6  0  0  0
  2  3  1  0  0  0  0
  2 10  1  1  0  0  0
  4  1  1  6  0  0  0
  4  7  1  0  0  0  0
  4  6  1  0  0  0  0
  5  3  1  0  0  0  0
  5  8  1  1  0  0  0
  6  9  1  6  0  0  0
  6  5  1  0  0  0  0
  7 12  1  1  0  0  0
  7  2  1  0  0  0  0
 10 11  2  0  0  0  0
 12 13  1  0  0  0  0
 14 13  1  1  0  0  0
 14 17  1  0  0  0  0
 15 17  1  0  0  0  0
 17 16  1  0  0  0  0
 20 19  1  6  0  0  0
 20 14  1  0  0  0  0
 20 18  1  0  0  0  0
 21 20  1  0  0  0  0
 22 21  1  0  0  0  0
 23 22  1  0  0  0  0
 24 25  1  0  0  0  0
 26  1  1  0  0  0  0
 27 26  1  0  0  0  0
 28 27  1  0  0  0  0
 29 28  1  0  0  0  0
 30 29  2  0  0  0  0
 31 29  1  1  0  0  0
 32 36  1  0  0  0  0
 32 33  1  0  0  0  0
 33 38  1  1  0  0  0
 33 37  1  0  0  0  0
 34 35  1  0  0  0  0
 34 31  1  0  0  0  0
 36 34  2  0  0  0  0
 37 31  1  0  0  0  0
 38 39  1  0  0  0  0
 39 44  2  0  0  0  0
 39 41  1  0  0  0  0
 41 45  2  0  0  0  0
 43 42  2  0  0  0  0
 44 43  1  0  0  0  0
 45 42  1  0  0  0  0
 45 40  1  0  0  0  0
 46 44  1  0  0  0  0
M  END
>  <MODEL>
8

>  <REMARK>
 VINA RESULT:      -4.2      3.950     10.181
  Name = 
  17 active torsions:
  status: ('A' for Active; 'I' for Inactive)
    1  A    between atoms: C_1  and  C_10
    2  A    between atoms: C_2  and  C_37
    3  A    between atoms: C_3  and  O_36
    4  A    between atoms: C_4  and  C_22
    5  A    between atoms: C_4  and  C_38
    6  A    between atoms: C_7  and  C_24
    7  A    between atoms: C_7  and  C_37
    8  A    between atoms: C_11  and  O_36
    9  A    between atoms: C_15  and  C_29
   10  A    between atoms: O_23  and  C_24
   11  A    between atoms: O_23  and  C_29
   12  A    between atoms: C_27  and  C_38
   13  A    between atoms: C_27  and  C_43
   14  A    between atoms: C_27  and  C_44
   15  A    between atoms: C_29  and  C_35
   16  A    between atoms: O_30  and  C_34
   17  A    between atoms: O_30  and  C_43
                            x       y       z     vdW  Elec       q    Type
                         _______ _______ _______ _____ _____    ______ ____

>  <TORSDO>
F 17

$$$$
=
 OpenBabel11072411083D

 46 48  0  0  1  0  0  0  0  0999 V2000
  161.2180  206.4870  152.7180 C   0  0  2  0  0  3  0  0  0  0  0  0
  160.0830  203.2180  150.8200 C   0  0  1  0  0  3  0  0  0  0  0  0
  160.9510  202.4090  151.6000 O   0  0  0  0  0  0  0  0  0  0  0  0
  161.1340  205.0340  152.2290 C   0  0  2  0  0  3  0  0  0  0  0  0
  162.2690  202.9050  151.5030 C   0  0  1  0  0  3  0  0  0  0  0  0
  162.4280  204.2050  152.3040 C   0  0  1  0  0  3  0  0  0  0  0  0
  160.2840  204.7550  150.9780 C   0  0  1  0  0  3  0  0  0  0  0  0
  163.2450  201.8620  152.0120 C   0  0  0  0  0  1  0  0  0  0  0  0
  163.5170  204.9240  151.8040 O   0  0  0  0  0  1  0  0  0  0  0  0
  159.9110  202.6880  149.4250 C   0  0  0  0  0  3  0  0  0  0  0  0
  159.9290  201.3750  149.1900 C   0  0  0  0  0  2  0  0  0  0  0  0
  160.7480  205.5150  149.7230 C   0  0  0  0  0  2  0  0  0  0  0  0
  161.6680  204.6950  148.8280 C   0  0  0  0  0  2  0  0  0  0  0  0
  161.2850  204.8350  147.3510 C   0  0  1  0  0  3  0  0  0  0  0  0
  160.4090  206.5850  145.7670 C   0  0  0  0  0  1  0  0  0  0  0  0
  161.2690  207.3130  147.9730 C   0  0  0  0  0  1  0  0  0  0  0  0
  161.4150  206.2880  146.8600 C   0  0  0  0  0  3  0  0  0  0  0  0
  162.3720  202.7070  147.1980 O   0  0  0  0  0  1  0  0  0  0  0  0
  163.2110  204.4290  145.7700 C   0  0  0  0  0  1  0  0  0  0  0  0
  161.9740  203.8060  146.4220 C   0  0  2  0  0  0  0  0  0  0  0  0
  161.0400  203.3970  145.4370 O   0  0  0  0  0  0  0  0  0  0  0  0
  160.6380  202.0680  145.6770 C   0  0  0  0  0  2  0  0  0  0  0  0
  159.7070  201.6780  144.7160 O   0  0  0  0  0  1  0  0  0  0  0  0
  161.2650  207.3480  155.0570 C   0  0  0  0  0  1  0  0  0  0  0  0
  160.4120  206.7000  153.9920 C   0  0  0  0  0  2  0  0  0  0  0  0
  160.8050  207.3850  151.7340 O   0  0  0  0  0  0  0  0  0  0  0  0
  161.4410  208.5790  152.0740 C   0  0  0  0  0  2  0  0  0  0  0  0
  160.4360  209.7130  152.1590 C   0  0  0  0  0  2  0  0  0  0  0  0
  160.8850  210.7850  153.1050 C   0  0  0  0  0  0  0  0  0  0  0  0
  161.8600  210.5970  153.8170 O   0  0  0  0  0  0  0  0  0  0  0  0
  160.1220  212.0720  153.2370 C   0  0  2  0  0  3  0  0  0  0  0  0
  158.2820  214.1330  153.6850 C   0  0  0  0  0  2  0  0  0  0  0  0
  158.2110  213.4650  152.2980 C   0  0  2  0  0  3  0  0  0  0  0  0
  159.5040  212.2700  154.5970 C   0  0  0  0  0  0  0  0  0  0  0  0
  159.8570  211.4520  155.7080 N   0  0  0  0  0  1  0  0  0  0  0  0
  158.6190  213.2000  154.7580 N   0  0  0  0  0  0  0  0  0  0  0  0
  159.0240  212.1660  152.1820 C   0  0  0  0  0  2  0  0  0  0  0  0
  158.6480  214.3880  151.3060 O   0  0  0  0  0  0  0  0  0  0  0  0
  159.0240  214.0020  150.0130 C   0  0  0  0  0  0  0  0  0  0  0  0
  162.0410  213.3990  148.0170 F   0  0  0  0  0  0  0  0  0  0  0  0
  160.3740  213.9120  149.6440 C   0  0  0  0  0  3  0  0  0  0  0  0
  159.7440  213.1930  147.4230 C   0  0  0  0  0  3  0  0  0  0  0  0
  158.3970  213.2840  147.7790 C   0  0  0  0  0  3  0  0  0  0  0  0
  158.0340  213.6860  149.0700 C   0  0  0  0  0  0  0  0  0  0  0  0
  160.7320  213.5060  148.3550 C   0  0  0  0  0  0  0  0  0  0  0  0
  156.3360  213.7510  149.4970 Cl  0  0  0  0  0  0  0  0  0  0  0  0
  1 25  1  1  0  0  0
  2 10  1  6  0  0  0
  2  7  1  0  0  0  0
  2  3  1  0  0  0  0
  4  6  1  0  0  0  0
  4  1  1  6  0  0  0
  5  3  1  0  0  0  0
  5  8  1  1  0  0  0
  5  6  1  0  0  0  0
  6  9  1  6  0  0  0
  7 12  1  6  0  0  0
  7  4  1  0  0  0  0
 11 10  2  0  0  0  0
 13 12  1  0  0  0  0
 14 13  1  1  0  0  0
 15 17  1  0  0  0  0
 17 14  1  0  0  0  0
 17 16  1  0  0  0  0
 20 19  1  6  0  0  0
 20 18  1  0  0  0  0
 20 14  1  0  0  0  0
 21 22  1  0  0  0  0
 21 20  1  0  0  0  0
 23 22  1  0  0  0  0
 25 24  1  0  0  0  0
 26 27  1  0  0  0  0
 26  1  1  0  0  0  0
 27 28  1  0  0  0  0
 28 29  1  0  0  0  0
 29 30  2  0  0  0  0
 31 29  1  1  0  0  0
 31 34  1  0  0  0  0
 32 36  1  0  0  0  0
 33 38  1  6  0  0  0
 33 32  1  0  0  0  0
 34 36  2  0  0  0  0
 34 35  1  0  0  0  0
 37 33  1  0  0  0  0
 37 31  1  0  0  0  0
 39 38  1  0  0  0  0
 40 45  1  0  0  0  0
 41 39  1  0  0  0  0
 42 43  2  0  0  0  0
 42 45  1  0  0  0  0
 43 44  1  0  0  0  0
 44 46  1  0  0  0  0
 44 39  2  0  0  0  0
 45 41  2  0  0  0  0
M  END
>  <MODEL>
9

>  <REMARK>
 VINA RESULT:      -4.0      1.273      2.071
  Name = 
  17 active torsions:
  status: ('A' for Active; 'I' for Inactive)
    1  A    between atoms: C_1  and  C_10
    2  A    between atoms: C_2  and  C_37
    3  A    between atoms: C_3  and  O_36
    4  A    between atoms: C_4  and  C_22
    5  A    between atoms: C_4  and  C_38
    6  A    between atoms: C_7  and  C_24
    7  A    between atoms: C_7  and  C_37
    8  A    between atoms: C_11  and  O_36
    9  A    between atoms: C_15  and  C_29
   10  A    between atoms: O_23  and  C_24
   11  A    between atoms: O_23  and  C_29
   12  A    between atoms: C_27  and  C_38
   13  A    between atoms: C_27  and  C_43
   14  A    between atoms: C_27  and  C_44
   15  A    between atoms: C_29  and  C_35
   16  A    between atoms: O_30  and  C_34
   17  A    between atoms: O_30  and  C_43
                            x       y       z     vdW  Elec       q    Type
                         _______ _______ _______ _____ _____    ______ ____

>  <TORSDO>
F 17

$$$$
