=
 OpenBabel11072410133D

 37 42  0  0  1  0  0  0  0  0999 V2000
  160.7600  203.7510  151.0180 C   0  0  0  0  0  3  0  0  0  0  0  0
  162.3940  206.5850  146.0000 O   0  0  0  0  0  0  0  0  0  0  0  0
  161.5750  207.6680  148.7870 C   0  0  0  0  0  3  0  0  0  0  0  0
  161.3110  205.5460  149.0600 C   0  0  0  0  0  0  0  0  0  0  0  0
  162.0130  205.9210  147.0000 C   0  0  0  0  0  0  0  0  0  0  0  0
  161.0190  206.0340  150.2700 C   0  0  0  0  0  0  0  0  0  0  0  0
  161.6460  206.4630  148.1800 N   0  0  0  0  0  0  0  0  0  0  0  0
  161.9130  204.2090  147.1000 S   0  0  0  0  0  0  0  0  0  0  0  0
  160.7280  205.1480  151.3150 C   0  0  0  0  0  3  0  0  0  0  0  0
  161.0790  203.2700  149.7060 C   0  0  0  0  0  0  0  0  0  0  0  0
  161.3700  204.2340  148.7200 C   0  0  0  0  0  0  0  0  0  0  0  0
  161.1660  207.4140  150.1210 C   0  0  0  0  0  0  0  0  0  0  0  0
  161.1410  201.8610  149.4330 N   0  0  0  0  0  0  0  0  0  0  0  0
  161.1700  200.9270  150.5490 C   0  0  0  0  0  1  0  0  0  0  0  0
  161.0760  201.3470  148.0940 C   0  0  0  0  0  0  0  0  0  0  0  0
  160.7490  201.2730  145.9840 N   0  0  0  0  0  0  0  0  0  0  0  0
  160.7270  202.0870  147.0240 N   0  0  0  0  0  0  0  0  0  0  0  0
  161.1020  200.0630  146.4520 C   0  0  0  0  0  0  0  0  0  0  0  0
  161.2390  198.8570  145.5920 C   0  0  0  0  0  1  0  0  0  0  0  0
  161.3140  200.0570  147.7810 N   0  0  0  0  0  2  0  0  0  0  0  0
  160.8450  209.2330  152.0090 C   0  0  0  0  0  0  0  0  0  0  0  0
  160.9920  208.4010  151.1480 C   0  0  0  0  0  0  0  0  0  0  0  0
  158.6560  212.8180  155.8170 C   0  0  1  0  0  3  0  0  0  0  0  0
  160.6630  210.2440  153.0560 C   0  0  2  0  0  3  0  0  0  0  0  0
  158.4440  211.8140  156.9610 C   0  0  0  0  0  2  0  0  0  0  0  0
  159.9510  209.6280  154.2770 C   0  0  2  0  0  3  0  0  0  0  0  0
  158.9770  210.5220  156.4210 C   0  0  0  0  0  3  0  0  0  0  0  0
  159.4020  210.7010  155.1820 C   0  0  0  0  0  0  0  0  0  0  0  0
  159.1680  212.0160  154.7210 N   0  0  0  0  0  0  0  0  0  0  0  0
  159.7710  212.5450  153.5060 C   0  0  0  0  0  2  0  0  0  0  0  0
  159.8950  211.4320  152.4710 C   0  0  0  0  0  2  0  0  0  0  0  0
  156.9110  214.3600  156.4610 O   0  0  0  0  0  1  0  0  0  0  0  0
  157.3720  213.5560  155.4150 C   0  0  2  0  0  3  0  0  0  0  0  0
  155.4040  213.3630  153.9440 N   0  0  0  0  0  1  0  0  0  0  0  0
  156.2560  212.6520  154.8840 C   0  0  0  0  0  2  0  0  0  0  0  0
  160.8860  208.7550  155.0080 C   0  0  0  0  0  0  0  0  0  0  0  0
  161.6210  208.0710  155.5820 N   0  0  0  0  0  0  0  0  0  0  0  0
  1  9  1  0  0  0  0
  2  5  2  0  0  0  0
  3 12  2  0  0  0  0
  4  6  1  0  0  0  0
  5  8  1  0  0  0  0
  5  7  1  0  0  0  0
  6  9  2  0  0  0  0
  7  3  1  0  0  0  0
  7  4  1  0  0  0  0
  8 11  1  0  0  0  0
 10  1  2  0  0  0  0
 11  4  2  0  0  0  0
 11 10  1  0  0  0  0
 12  6  1  0  0  0  0
 12 22  1  0  0  0  0
 13 10  1  0  0  0  0
 13 14  1  0  0  0  0
 15 13  1  0  0  0  0
 16 18  2  0  0  0  0
 16 17  1  0  0  0  0
 17 15  2  0  0  0  0
 18 20  1  0  0  0  0
 19 18  1  0  0  0  0
 20 15  1  0  0  0  0
 22 21  3  0  0  0  0
 23 33  1  6  0  0  0
 23 25  1  0  0  0  0
 24 21  1  6  0  0  0
 24 26  1  0  0  0  0
 26 36  1  1  0  0  0
 26 28  1  0  0  0  0
 27 25  1  0  0  0  0
 28 27  2  0  0  0  0
 29 28  1  0  0  0  0
 29 23  1  0  0  0  0
 30 29  1  0  0  0  0
 31 24  1  0  0  0  0
 31 30  1  0  0  0  0
 33 32  1  1  0  0  0
 34 35  1  0  0  0  0
 35 33  1  0  0  0  0
 36 37  3  0  0  0  0
M  END
>  <MODEL>
1

>  <REMARK>
 VINA RESULT:      -8.8      0.000      0.000
  Name = 
  6 active torsions:
  status: ('A' for Active; 'I' for Inactive)
    1  A    between atoms: C_3  and  C_21
    2  A    between atoms: N_4  and  C_31
    3  A    between atoms: C_5  and  C_13
    4  A    between atoms: C_7  and  C_11
    5  A    between atoms: C_21  and  C_24
    6  A    between atoms: C_34  and  C_35
                            x       y       z     vdW  Elec       q    Type
                         _______ _______ _______ _____ _____    ______ ____

>  <TORSDO>
F 6

$$$$
=
 OpenBabel11072410133D

 37 42  0  0  1  0  0  0  0  0999 V2000
  161.4990  206.9750  148.8090 C   0  0  0  0  0  3  0  0  0  0  0  0
  161.8380  210.3300  153.7600 O   0  0  0  0  0  0  0  0  0  0  0  0
  161.9920  211.0920  150.7590 C   0  0  0  0  0  3  0  0  0  0  0  0
  161.8230  208.9450  150.6460 C   0  0  0  0  0  0  0  0  0  0  0  0
  161.8060  209.5540  152.7680 C   0  0  0  0  0  0  0  0  0  0  0  0
  161.8330  209.3050  149.3580 C   0  0  0  0  0  0  0  0  0  0  0  0
  161.9050  209.9550  151.4840 N   0  0  0  0  0  0  0  0  0  0  0  0
  161.5980  207.8490  152.8240 S   0  0  0  0  0  0  0  0  0  0  0  0
  161.6690  208.3250  148.3710 C   0  0  0  0  0  3  0  0  0  0  0  0
  161.4950  206.6330  150.2010 C   0  0  0  0  0  0  0  0  0  0  0  0
  161.6550  207.6870  151.1230 C   0  0  0  0  0  0  0  0  0  0  0  0
  161.9580  210.6940  149.3980 C   0  0  0  0  0  0  0  0  0  0  0  0
  161.2880  205.2770  150.6240 N   0  0  0  0  0  0  0  0  0  0  0  0
  161.0150  205.0080  152.0290 C   0  0  0  0  0  1  0  0  0  0  0  0
  161.2460  204.1910  149.6850 C   0  0  0  0  0  0  0  0  0  0  0  0
  161.1140  203.1460  147.8270 N   0  0  0  0  0  0  0  0  0  0  0  0
  161.1630  204.3570  148.3510 N   0  0  0  0  0  0  0  0  0  0  0  0
  161.1610  202.2800  148.8550 C   0  0  0  0  0  0  0  0  0  0  0  0
  161.1260  200.8030  148.6880 C   0  0  0  0  0  1  0  0  0  0  0  0
  161.2390  202.8920  150.0520 N   0  0  0  0  0  2  0  0  0  0  0  0
  162.0130  212.3140  147.3110 C   0  0  0  0  0  0  0  0  0  0  0  0
  161.9880  211.5760  148.2650 C   0  0  0  0  0  0  0  0  0  0  0  0
  162.0530  214.4530  142.0620 C   0  0  1  0  0  3  0  0  0  0  0  0
  162.0400  213.2120  146.1520 C   0  0  2  0  0  3  0  0  0  0  0  0
  160.5400  214.4050  141.7970 C   0  0  0  0  0  2  0  0  0  0  0  0
  160.7610  213.0360  145.3090 C   0  0  2  0  0  3  0  0  0  0  0  0
  159.9590  213.8800  143.0750 C   0  0  0  0  0  3  0  0  0  0  0  0
  160.9320  213.6310  143.9350 C   0  0  0  0  0  0  0  0  0  0  0  0
  162.2100  213.8650  143.3780 N   0  0  0  0  0  0  0  0  0  0  0  0
  163.4220  213.9240  144.1840 C   0  0  0  0  0  2  0  0  0  0  0  0
  163.3120  212.9420  145.3460 C   0  0  0  0  0  2  0  0  0  0  0  0
  162.9620  214.4250  139.8230 O   0  0  0  0  0  1  0  0  0  0  0  0
  162.8740  213.6940  141.0100 C   0  0  2  0  0  3  0  0  0  0  0  0
  162.0240  212.0850  139.3470 N   0  0  0  0  0  1  0  0  0  0  0  0
  162.4000  212.2640  140.7410 C   0  0  0  0  0  2  0  0  0  0  0  0
  159.6190  213.6520  146.0060 C   0  0  0  0  0  0  0  0  0  0  0  0
  158.7230  214.1360  146.5550 N   0  0  0  0  0  0  0  0  0  0  0  0
  1 10  1  0  0  0  0
  3  7  1  0  0  0  0
  4 11  1  0  0  0  0
  4  7  1  0  0  0  0
  5  8  1  0  0  0  0
  5  2  2  0  0  0  0
  6 12  1  0  0  0  0
  6  4  2  0  0  0  0
  7  5  1  0  0  0  0
  9  1  2  0  0  0  0
  9  6  1  0  0  0  0
 10 13  1  0  0  0  0
 10 11  2  0  0  0  0
 11  8  1  0  0  0  0
 12  3  2  0  0  0  0
 13 14  1  0  0  0  0
 15 20  1  0  0  0  0
 15 13  1  0  0  0  0
 16 17  1  0  0  0  0
 16 18  2  0  0  0  0
 17 15  2  0  0  0  0
 18 20  1  0  0  0  0
 19 18  1  0  0  0  0
 21 22  3  0  0  0  0
 22 12  1  0  0  0  0
 23 33  1  6  0  0  0
 23 29  1  0  0  0  0
 24 21  1  1  0  0  0
 25 23  1  0  0  0  0
 25 27  1  0  0  0  0
 26 36  1  1  0  0  0
 26 24  1  0  0  0  0
 27 28  2  0  0  0  0
 28 26  1  0  0  0  0
 29 28  1  0  0  0  0
 29 30  1  0  0  0  0
 30 31  1  0  0  0  0
 31 24  1  0  0  0  0
 33 32  1  6  0  0  0
 34 35  1  0  0  0  0
 35 33  1  0  0  0  0
 36 37  3  0  0  0  0
M  END
>  <MODEL>
2

>  <REMARK>
 VINA RESULT:      -8.4      5.884      8.957
  Name = 
  6 active torsions:
  status: ('A' for Active; 'I' for Inactive)
    1  A    between atoms: C_3  and  C_21
    2  A    between atoms: N_4  and  C_31
    3  A    between atoms: C_5  and  C_13
    4  A    between atoms: C_7  and  C_11
    5  A    between atoms: C_21  and  C_24
    6  A    between atoms: C_34  and  C_35
                            x       y       z     vdW  Elec       q    Type
                         _______ _______ _______ _____ _____    ______ ____

>  <TORSDO>
F 6

$$$$
=
 OpenBabel11072410133D

 37 42  0  0  1  0  0  0  0  0999 V2000
  161.4900  206.8900  147.9340 C   0  0  0  0  0  3  0  0  0  0  0  0
  161.2140  202.8730  152.3680 O   0  0  0  0  0  0  0  0  0  0  0  0
  161.0500  205.9680  152.4000 C   0  0  0  0  0  3  0  0  0  0  0  0
  161.4040  205.5810  150.3090 C   0  0  0  0  0  0  0  0  0  0  0  0
  161.3300  203.6570  151.3900 C   0  0  0  0  0  0  0  0  0  0  0  0
  161.2710  206.9110  150.3400 C   0  0  0  0  0  0  0  0  0  0  0  0
  161.2730  205.0020  151.4820 N   0  0  0  0  0  0  0  0  0  0  0  0
  161.5450  203.2020  149.7470 S   0  0  0  0  0  0  0  0  0  0  0  0
  161.3080  207.6330  149.1410 C   0  0  0  0  0  3  0  0  0  0  0  0
  161.6280  205.4630  147.9450 C   0  0  0  0  0  0  0  0  0  0  0  0
  161.5670  204.8210  149.1970 C   0  0  0  0  0  0  0  0  0  0  0  0
  161.0560  207.1950  151.6890 C   0  0  0  0  0  0  0  0  0  0  0  0
  161.7760  204.7290  146.7190 N   0  0  0  0  0  0  0  0  0  0  0  0
  162.6860  205.2310  145.7000 C   0  0  0  0  0  1  0  0  0  0  0  0
  161.1260  203.4650  146.5130 C   0  0  0  0  0  0  0  0  0  0  0  0
  160.0790  201.6510  146.9370 N   0  0  0  0  0  0  0  0  0  0  0  0
  160.5310  202.7600  147.4940 N   0  0  0  0  0  0  0  0  0  0  0  0
  160.4190  201.7110  145.6370 C   0  0  0  0  0  0  0  0  0  0  0  0
  160.0950  200.6430  144.6540 C   0  0  0  0  0  1  0  0  0  0  0  0
  161.0880  202.8360  145.3210 N   0  0  0  0  0  2  0  0  0  0  0  0
  160.6300  209.5860  152.7310 C   0  0  0  0  0  0  0  0  0  0  0  0
  160.8220  208.4940  152.2560 C   0  0  0  0  0  0  0  0  0  0  0  0
  158.5550  213.9870  155.6400 C   0  0  1  0  0  3  0  0  0  0  0  0
  160.3950  210.9140  153.3060 C   0  0  2  0  0  3  0  0  0  0  0  0
  159.2240  213.6880  156.9900 C   0  0  0  0  0  2  0  0  0  0  0  0
  160.5050  210.8590  154.8430 C   0  0  2  0  0  3  0  0  0  0  0  0
  160.0510  212.4660  156.7290 C   0  0  0  0  0  3  0  0  0  0  0  0
  159.8900  212.0820  155.4740 C   0  0  0  0  0  0  0  0  0  0  0  0
  158.9520  212.8840  154.7860 N   0  0  0  0  0  0  0  0  0  0  0  0
  158.7920  212.8440  153.3390 C   0  0  0  0  0  2  0  0  0  0  0  0
  159.0290  211.4230  152.8380 C   0  0  0  0  0  2  0  0  0  0  0  0
  156.6310  214.4520  157.0260 O   0  0  0  0  0  1  0  0  0  0  0  0
  157.0260  214.0970  155.7340 C   0  0  2  0  0  3  0  0  0  0  0  0
  156.0760  211.9000  156.3220 N   0  0  0  0  0  1  0  0  0  0  0  0
  156.2670  212.8610  155.2470 C   0  0  0  0  0  2  0  0  0  0  0  0
  161.9190  210.7250  155.2340 C   0  0  0  0  0  0  0  0  0  0  0  0
  163.0300  210.6200  155.5410 N   0  0  0  0  0  0  0  0  0  0  0  0
  1 10  2  0  0  0  0
  1  9  1  0  0  0  0
  4  6  1  0  0  0  0
  4  7  1  0  0  0  0
  5  7  1  0  0  0  0
  5  2  2  0  0  0  0
  6 12  1  0  0  0  0
  7  3  1  0  0  0  0
  8  5  1  0  0  0  0
  9  6  2  0  0  0  0
 10 11  1  0  0  0  0
 11  8  1  0  0  0  0
 11  4  2  0  0  0  0
 12 22  1  0  0  0  0
 12  3  2  0  0  0  0
 13 10  1  0  0  0  0
 14 13  1  0  0  0  0
 15 13  1  0  0  0  0
 15 17  2  0  0  0  0
 16 17  1  0  0  0  0
 18 16  2  0  0  0  0
 19 18  1  0  0  0  0
 20 18  1  0  0  0  0
 20 15  1  0  0  0  0
 22 21  3  0  0  0  0
 23 33  1  1  0  0  0
 23 25  1  0  0  0  0
 24 21  1  6  0  0  0
 24 26  1  0  0  0  0
 26 36  1  6  0  0  0
 26 28  1  0  0  0  0
 27 25  1  0  0  0  0
 28 27  2  0  0  0  0
 29 28  1  0  0  0  0
 29 23  1  0  0  0  0
 30 29  1  0  0  0  0
 31 24  1  0  0  0  0
 31 30  1  0  0  0  0
 33 32  1  1  0  0  0
 35 33  1  0  0  0  0
 35 34  1  0  0  0  0
 36 37  3  0  0  0  0
M  END
>  <MODEL>
3

>  <REMARK>
 VINA RESULT:      -8.0      2.033      2.841
  Name = 
  6 active torsions:
  status: ('A' for Active; 'I' for Inactive)
    1  A    between atoms: C_3  and  C_21
    2  A    between atoms: N_4  and  C_31
    3  A    between atoms: C_5  and  C_13
    4  A    between atoms: C_7  and  C_11
    5  A    between atoms: C_21  and  C_24
    6  A    between atoms: C_34  and  C_35
                            x       y       z     vdW  Elec       q    Type
                         _______ _______ _______ _____ _____    ______ ____

>  <TORSDO>
F 6

$$$$
=
 OpenBabel11072410133D

 37 42  0  0  1  0  0  0  0  0999 V2000
  161.5150  205.7760  148.1160 C   0  0  0  0  0  3  0  0  0  0  0  0
  160.4170  200.9760  151.5270 O   0  0  0  0  0  0  0  0  0  0  0  0
  160.8730  203.9510  152.2690 C   0  0  0  0  0  3  0  0  0  0  0  0
  161.1550  203.9970  150.1320 C   0  0  0  0  0  0  0  0  0  0  0  0
  160.6930  201.9270  150.7500 C   0  0  0  0  0  0  0  0  0  0  0  0
  161.2900  205.2830  150.4710 C   0  0  0  0  0  0  0  0  0  0  0  0
  160.9050  203.1990  151.1470 N   0  0  0  0  0  0  0  0  0  0  0  0
  160.8230  201.8310  149.0390 S   0  0  0  0  0  0  0  0  0  0  0  0
  161.4770  206.2410  149.4670 C   0  0  0  0  0  3  0  0  0  0  0  0
  161.3660  204.3860  147.7960 C   0  0  0  0  0  0  0  0  0  0  0  0
  161.1700  203.4970  148.8710 C   0  0  0  0  0  0  0  0  0  0  0  0
  161.1270  205.2840  151.8570 C   0  0  0  0  0  0  0  0  0  0  0  0
  161.3720  203.9410  146.4320 N   0  0  0  0  0  0  0  0  0  0  0  0
  161.2750  202.5150  146.1530 C   0  0  0  0  0  1  0  0  0  0  0  0
  161.3730  204.8680  145.3340 C   0  0  0  0  0  0  0  0  0  0  0  0
  161.1900  206.7010  144.2530 N   0  0  0  0  0  0  0  0  0  0  0  0
  161.1390  206.1870  145.4690 N   0  0  0  0  0  0  0  0  0  0  0  0
  161.4450  205.6800  143.4160 C   0  0  0  0  0  0  0  0  0  0  0  0
  161.5760  205.8390  141.9430 C   0  0  0  0  0  1  0  0  0  0  0  0
  161.5630  204.4990  144.0510 N   0  0  0  0  0  2  0  0  0  0  0  0
  161.1780  207.4030  153.4340 C   0  0  0  0  0  0  0  0  0  0  0  0
  161.1530  206.4370  152.7130 C   0  0  0  0  0  0  0  0  0  0  0  0
  159.9460  212.2290  156.1420 C   0  0  1  0  0  3  0  0  0  0  0  0
  161.2100  208.5800  154.3090 C   0  0  2  0  0  3  0  0  0  0  0  0
  159.0220  211.6420  157.2200 C   0  0  0  0  0  2  0  0  0  0  0  0
  160.0120  208.5580  155.2790 C   0  0  2  0  0  3  0  0  0  0  0  0
  159.0350  210.1670  156.9530 C   0  0  0  0  0  3  0  0  0  0  0  0
  159.7940  209.9140  155.9010 C   0  0  0  0  0  0  0  0  0  0  0  0
  160.3030  211.0940  155.3120 N   0  0  0  0  0  0  0  0  0  0  0  0
  161.3670  211.0840  154.3180 C   0  0  0  0  0  2  0  0  0  0  0  0
  161.2360  209.8410  153.4420 C   0  0  0  0  0  2  0  0  0  0  0  0
  158.7080  214.3030  156.1450 O   0  0  0  0  0  1  0  0  0  0  0  0
  159.2810  213.3380  155.3150 C   0  0  2  0  0  3  0  0  0  0  0  0
  158.4510  213.5210  153.0010 N   0  0  0  0  0  1  0  0  0  0  0  0
  158.2750  212.8400  154.2740 C   0  0  0  0  0  2  0  0  0  0  0  0
  160.2340  207.5370  156.3170 C   0  0  0  0  0  0  0  0  0  0  0  0
  160.4090  206.7340  157.1320 N   0  0  0  0  0  0  0  0  0  0  0  0
  1  9  1  0  0  0  0
  4  6  1  0  0  0  0
  4  7  1  0  0  0  0
  5  7  1  0  0  0  0
  5  2  2  0  0  0  0
  6 12  1  0  0  0  0
  7  3  1  0  0  0  0
  8  5  1  0  0  0  0
  9  6  2  0  0  0  0
 10  1  2  0  0  0  0
 10 11  1  0  0  0  0
 11  8  1  0  0  0  0
 11  4  2  0  0  0  0
 12  3  2  0  0  0  0
 12 22  1  0  0  0  0
 13 10  1  0  0  0  0
 14 13  1  0  0  0  0
 15 17  2  0  0  0  0
 15 13  1  0  0  0  0
 16 17  1  0  0  0  0
 18 20  1  0  0  0  0
 18 16  2  0  0  0  0
 19 18  1  0  0  0  0
 20 15  1  0  0  0  0
 22 21  3  0  0  0  0
 23 33  1  6  0  0  0
 23 25  1  0  0  0  0
 24 21  1  6  0  0  0
 24 26  1  0  0  0  0
 26 28  1  0  0  0  0
 26 36  1  1  0  0  0
 27 25  1  0  0  0  0
 28 27  2  0  0  0  0
 29 28  1  0  0  0  0
 29 23  1  0  0  0  0
 30 29  1  0  0  0  0
 31 24  1  0  0  0  0
 31 30  1  0  0  0  0
 33 32  1  1  0  0  0
 34 35  1  0  0  0  0
 35 33  1  0  0  0  0
 36 37  3  0  0  0  0
M  END
>  <MODEL>
4

>  <REMARK>
 VINA RESULT:      -6.7      2.448      3.682
  Name = 
  6 active torsions:
  status: ('A' for Active; 'I' for Inactive)
    1  A    between atoms: C_3  and  C_21
    2  A    between atoms: N_4  and  C_31
    3  A    between atoms: C_5  and  C_13
    4  A    between atoms: C_7  and  C_11
    5  A    between atoms: C_21  and  C_24
    6  A    between atoms: C_34  and  C_35
                            x       y       z     vdW  Elec       q    Type
                         _______ _______ _______ _____ _____    ______ ____

>  <TORSDO>
F 6

$$$$
=
 OpenBabel11072410133D

 37 43  0  0  1  0  0  0  0  0999 V2000
  161.2170  206.2690  147.8050 C   0  0  0  0  0  3  0  0  0  0  0  0
  160.9820  201.9570  151.9570 O   0  0  0  0  0  0  0  0  0  0  0  0
  161.0760  205.0450  152.2180 C   0  0  0  0  0  3  0  0  0  0  0  0
  161.2220  204.7930  150.0820 C   0  0  0  0  0  0  0  0  0  0  0  0
  161.0800  202.8030  151.0290 C   0  0  0  0  0  0  0  0  0  0  0  0
  161.2010  206.1220  150.2170 C   0  0  0  0  0  0  0  0  0  0  0  0
  161.1420  204.1370  151.2190 N   0  0  0  0  0  0  0  0  0  0  0  0
  161.1210  202.4600  149.3460 S   0  0  2  0  0  0  0  0  0  0  0  0
  161.1970  206.9290  149.0720 C   0  0  0  0  0  3  0  0  0  0  0  0
  161.2390  204.8380  147.7050 C   0  0  1  0  0  3  0  0  0  0  0  0
  161.2290  204.1090  148.9100 C   0  0  0  0  0  0  0  0  0  0  0  0
  161.1220  206.3190  151.5970 C   0  0  0  0  0  0  0  0  0  0  0  0
  161.2230  204.1910  146.4230 N   0  0  0  0  0  0  0  0  0  0  0  0
  161.6470  204.9390  145.2480 C   0  0  0  0  0  1  0  0  0  0  0  0
  160.8960  202.7990  146.2840 C   0  0  0  0  0  0  0  0  0  0  0  0
  160.5220  200.7610  146.8050 N   0  0  0  0  0  0  0  0  0  0  0  0
  160.8060  201.9440  147.3200 N   0  0  0  0  0  0  0  0  0  0  0  0
  160.4560  200.9300  145.4720 C   0  0  0  0  0  0  0  0  0  0  0  0
  160.1600  199.8290  144.5180 C   0  0  0  0  0  1  0  0  0  0  0  0
  160.6910  202.2010  145.0930 N   0  0  0  0  0  0  0  0  0  0  0  0
  160.9810  208.6470  152.8380 C   0  0  0  0  0  0  0  0  0  0  0  0
  161.0440  207.5840  152.2700 C   0  0  0  0  0  0  0  0  0  0  0  0
  159.1940  213.2900  155.5550 C   0  0  1  0  0  3  0  0  0  0  0  0
  160.9060  209.9400  153.5260 C   0  0  2  0  0  3  0  0  0  0  0  0
  159.1460  212.7040  156.9750 C   0  0  0  0  0  2  0  0  0  0  0  0
  160.3620  209.7540  154.9560 C   0  0  2  0  0  3  0  0  0  0  0  0
  159.6380  211.2980  156.8100 C   0  0  0  0  0  3  0  0  0  0  0  0
  159.9040  211.0680  155.5360 C   0  0  0  0  0  0  0  0  0  0  0  0
  159.5860  212.1740  154.7160 N   0  0  0  0  0  0  0  0  0  0  0  0
  160.0250  212.2810  153.3310 C   0  0  0  0  0  2  0  0  0  0  0  0
  160.0460  210.8950  152.6940 C   0  0  0  0  0  2  0  0  0  0  0  0
  156.8030  213.0050  155.3660 O   0  0  0  0  0  1  0  0  0  0  0  0
  157.8540  213.8860  155.1020 C   0  0  2  0  0  3  0  0  0  0  0  0
  156.5490  214.0510  153.0170 N   0  0  0  0  0  1  0  0  0  0  0  0
  157.8250  214.3560  153.6450 C   0  0  0  0  0  2  0  0  0  0  0  0
  161.3980  209.1420  155.8050 C   0  0  0  0  0  0  0  0  0  0  0  0
  162.2110  208.6610  156.4730 N   0  0  0  0  0  0  0  0  0  0  0  0
  1  9  2  0  0  0  0
  4  6  2  0  0  0  0
  4  7  1  0  0  0  0
  5  7  1  0  0  0  0
  5  2  2  0  0  0  0
  6 12  1  0  0  0  0
  7  3  1  0  0  0  0
  8 11  2  6  0  0  0
  8  5  1  0  0  0  0
  9  6  1  0  0  0  0
 10  1  1  1  0  0  0
 10 11  1  0  0  0  0
 11  4  1  0  0  0  0
 12  3  2  0  0  0  0
 12 22  1  0  0  0  0
 13 10  1  0  0  0  0
 14 13  1  0  0  0  0
 15 13  1  0  0  0  0
 15 17  1  0  0  0  0
 16 17  1  0  0  0  0
 17  8  1  0  0  0  0
 18 16  2  0  0  0  0
 19 18  1  0  0  0  0
 20 18  1  0  0  0  0
 20 15  2  0  0  0  0
 22 21  3  0  0  0  0
 23 33  1  6  0  0  0
 23 25  1  0  0  0  0
 24 21  1  6  0  0  0
 24 26  1  0  0  0  0
 26 28  1  0  0  0  0
 26 36  1  1  0  0  0
 27 25  1  0  0  0  0
 28 27  2  0  0  0  0
 29 28  1  0  0  0  0
 29 23  1  0  0  0  0
 30 29  1  0  0  0  0
 31 30  1  0  0  0  0
 31 24  1  0  0  0  0
 33 32  1  6  0  0  0
 34 35  1  0  0  0  0
 35 33  1  0  0  0  0
 36 37  3  0  0  0  0
M  END
>  <MODEL>
5

>  <REMARK>
 VINA RESULT:      -6.5      1.864      2.712
  Name = 
  6 active torsions:
  status: ('A' for Active; 'I' for Inactive)
    1  A    between atoms: C_3  and  C_21
    2  A    between atoms: N_4  and  C_31
    3  A    between atoms: C_5  and  C_13
    4  A    between atoms: C_7  and  C_11
    5  A    between atoms: C_21  and  C_24
    6  A    between atoms: C_34  and  C_35
                            x       y       z     vdW  Elec       q    Type
                         _______ _______ _______ _____ _____    ______ ____

>  <TORSDO>
F 6

$$$$
=
 OpenBabel11072410133D

 37 42  0  0  1  0  0  0  0  0999 V2000
  161.4260  206.8620  148.2640 C   0  0  0  0  0  3  0  0  0  0  0  0
  160.7640  202.8790  152.6890 O   0  0  0  0  0  0  0  0  0  0  0  0
  160.8400  205.9780  152.7210 C   0  0  0  0  0  3  0  0  0  0  0  0
  161.1980  205.5640  150.6360 C   0  0  0  0  0  0  0  0  0  0  0  0
  160.9570  203.6520  151.7140 C   0  0  0  0  0  0  0  0  0  0  0  0
  161.1680  206.9000  150.6660 C   0  0  0  0  0  0  0  0  0  0  0  0
  161.0030  204.9970  151.8060 N   0  0  0  0  0  0  0  0  0  0  0  0
  161.1640  203.1810  150.0750 S   0  0  0  0  0  0  0  0  0  0  0  0
  161.2810  207.6170  149.4680 C   0  0  0  0  0  3  0  0  0  0  0  0
  161.4530  205.4280  148.2760 C   0  0  0  0  0  0  0  0  0  0  0  0
  161.3200  204.7930  149.5260 C   0  0  0  0  0  0  0  0  0  0  0  0
  160.9530  207.2010  152.0120 C   0  0  0  0  0  0  0  0  0  0  0  0
  161.5640  204.6850  147.0520 N   0  0  0  0  0  0  0  0  0  0  0  0
  161.8050  203.2510  147.1170 C   0  0  0  0  0  1  0  0  0  0  0  0
  161.3460  205.2990  145.7730 C   0  0  0  0  0  0  0  0  0  0  0  0
  160.7360  206.7310  144.3090 N   0  0  0  0  0  0  0  0  0  0  0  0
  160.8070  206.5230  145.6110 N   0  0  0  0  0  0  0  0  0  0  0  0
  161.2240  205.6260  143.7170 C   0  0  0  0  0  0  0  0  0  0  0  0
  161.3150  205.4560  142.2430 C   0  0  0  0  0  1  0  0  0  0  0  0
  161.6180  204.6900  144.6000 N   0  0  0  0  0  2  0  0  0  0  0  0
  160.6950  209.6170  153.0510 C   0  0  0  0  0  0  0  0  0  0  0  0
  160.8110  208.5140  152.5760 C   0  0  0  0  0  0  0  0  0  0  0  0
  158.8780  214.1870  155.8700 C   0  0  1  0  0  3  0  0  0  0  0  0
  160.5550  210.9590  153.6250 C   0  0  2  0  0  3  0  0  0  0  0  0
  159.4220  213.8150  157.2580 C   0  0  0  0  0  2  0  0  0  0  0  0
  160.5570  210.8840  155.1650 C   0  0  2  0  0  3  0  0  0  0  0  0
  160.1390  212.5170  157.0370 C   0  0  0  0  0  3  0  0  0  0  0  0
  160.0250  212.1580  155.7700 C   0  0  0  0  0  0  0  0  0  0  0  0
  159.2200  213.0540  155.0310 N   0  0  0  0  0  0  0  0  0  0  0  0
  159.1540  213.0390  153.5750 C   0  0  0  0  0  2  0  0  0  0  0  0
  159.2820  211.6040  153.0740 C   0  0  0  0  0  2  0  0  0  0  0  0
  156.8550  214.4510  157.1650 O   0  0  0  0  0  1  0  0  0  0  0  0
  157.3650  214.4490  155.8640 C   0  0  2  0  0  3  0  0  0  0  0  0
  155.5410  214.2420  154.2190 N   0  0  0  0  0  1  0  0  0  0  0  0
  156.5600  213.5140  154.9590 C   0  0  0  0  0  2  0  0  0  0  0  0
  161.9210  210.6060  155.6470 C   0  0  0  0  0  0  0  0  0  0  0  0
  162.9920  210.3880  156.0270 N   0  0  0  0  0  0  0  0  0  0  0  0
  1 10  2  0  0  0  0
  1  9  1  0  0  0  0
  4  6  1  0  0  0  0
  4  7  1  0  0  0  0
  5  7  1  0  0  0  0
  5  2  2  0  0  0  0
  6 12  1  0  0  0  0
  7  3  1  0  0  0  0
  8  5  1  0  0  0  0
  9  6  2  0  0  0  0
 10 11  1  0  0  0  0
 11  8  1  0  0  0  0
 11  4  2  0  0  0  0
 12 22  1  0  0  0  0
 12  3  2  0  0  0  0
 13 14  1  0  0  0  0
 13 10  1  0  0  0  0
 15 13  1  0  0  0  0
 16 17  1  0  0  0  0
 17 15  2  0  0  0  0
 18 16  2  0  0  0  0
 18 20  1  0  0  0  0
 19 18  1  0  0  0  0
 20 15  1  0  0  0  0
 22 21  3  0  0  0  0
 23 33  1  1  0  0  0
 23 25  1  0  0  0  0
 24 21  1  6  0  0  0
 24 26  1  0  0  0  0
 26 36  1  1  0  0  0
 26 28  1  0  0  0  0
 27 25  1  0  0  0  0
 28 27  2  0  0  0  0
 29 28  1  0  0  0  0
 29 23  1  0  0  0  0
 30 29  1  0  0  0  0
 31 30  1  0  0  0  0
 31 24  1  0  0  0  0
 33 32  1  1  0  0  0
 34 35  1  0  0  0  0
 35 33  1  0  0  0  0
 36 37  3  0  0  0  0
M  END
>  <MODEL>
6

>  <REMARK>
 VINA RESULT:      -6.5      2.453      3.485
  Name = 
  6 active torsions:
  status: ('A' for Active; 'I' for Inactive)
    1  A    between atoms: C_3  and  C_21
    2  A    between atoms: N_4  and  C_31
    3  A    between atoms: C_5  and  C_13
    4  A    between atoms: C_7  and  C_11
    5  A    between atoms: C_21  and  C_24
    6  A    between atoms: C_34  and  C_35
                            x       y       z     vdW  Elec       q    Type
                         _______ _______ _______ _____ _____    ______ ____

>  <TORSDO>
F 6

$$$$
