=
 OpenBabel11072412413D

 31 34  0  0  1  0  0  0  0  0999 V2000
  161.5510  206.5730  149.2240 C   0  0  0  0  0  0  0  0  0  0  0  0
  161.9790  207.9740  149.1260 C   0  0  0  0  0  0  0  0  0  0  0  0
  161.6870  205.7600  148.0980 N   0  0  0  0  0  0  0  0  0  0  0  0
  161.3460  208.1570  151.5890 C   0  0  0  0  0  0  0  0  0  0  0  0
  160.9950  206.8510  151.5870 C   0  0  0  0  0  3  0  0  0  0  0  0
  161.9540  208.8280  150.3630 C   0  0  0  0  0  3  0  0  0  0  0  0
  161.0830  206.0020  150.3760 C   0  0  0  0  0  0  0  0  0  0  0  0
  160.7070  204.6100  150.3570 C   0  0  0  0  0  3  0  0  0  0  0  0
  161.3190  204.5010  148.0360 C   0  0  0  0  0  3  0  0  0  0  0  0
  160.8310  203.8510  149.1760 C   0  0  0  0  0  0  0  0  0  0  0  0
  162.4250  208.4690  148.0000 O   0  0  0  0  0  1  0  0  0  0  0  0
  159.3060  212.8830  153.0560 C   0  0  0  0  0  1  0  0  0  0  0  0
  158.7450  211.8370  154.0290 C   0  0  2  0  0  3  0  0  0  0  0  0
  161.0930  209.0580  152.7340 C   0  0  0  0  0  0  0  0  0  0  0  0
  158.7350  212.4720  155.2770 O   0  0  0  0  0  0  0  0  0  0  0  0
  160.1450  209.9660  152.6980 N   0  0  0  0  0  0  0  0  0  0  0  0
  160.8030  208.7150  155.2600 C   0  0  1  0  0  3  0  0  0  0  0  0
  160.4310  210.6720  157.2610 O   0  0  0  0  0  1  0  0  0  0  0  0
  158.3600  211.4800  156.2580 C   0  0  0  0  0  2  0  0  0  0  0  0
  159.7140  209.6770  155.2100 C   0  0  2  0  0  3  0  0  0  0  0  0
  160.2280  207.3120  155.4700 C   0  0  0  0  0  1  0  0  0  0  0  0
  159.6730  210.5740  153.9610 C   0  0  2  0  0  3  0  0  0  0  0  0
  159.3560  210.3590  156.4240 C   0  0  1  0  0  3  0  0  0  0  0  0
  161.5000  208.6190  154.0370 O   0  0  0  0  0  0  0  0  0  0  0  0
  160.4620  202.4710  149.0370 N   0  0  0  0  0  2  0  0  0  0  0  0
  161.4220  201.6360  148.3010 C   0  0  0  0  0  2  0  0  0  0  0  0
  161.5940  199.5520  146.7320 C   0  0  0  0  0  1  0  0  0  0  0  0
  160.8500  200.8260  147.0780 C   0  0  2  0  0  3  0  0  0  0  0  0
  160.5240  201.6910  145.9250 C   0  0  0  0  0  0  0  0  0  0  0  0
  161.2600  202.6600  145.7170 O   0  0  0  0  0  1  0  0  0  0  0  0
  159.6230  201.2790  144.8480 O   0  0  0  0  0  0  0  0  0  0  0  0
  1  7  1  0  0  0  0
  2  1  2  0  0  0  0
  2  6  1  0  0  0  0
  3  1  1  0  0  0  0
  4 14  1  0  0  0  0
  5  4  1  0  0  0  0
  6  4  2  0  0  0  0
  7  5  2  0  0  0  0
  8  7  1  0  0  0  0
  9  3  2  0  0  0  0
  9 10  1  0  0  0  0
 10  8  2  0  0  0  0
 11  2  1  0  0  0  0
 13 12  1  6  0  0  0
 13 15  1  0  0  0  0
 14 24  1  0  0  0  0
 15 19  1  0  0  0  0
 16 14  2  0  0  0  0
 16 22  1  0  0  0  0
 17 21  1  6  0  0  0
 19 23  1  0  0  0  0
 20 17  1  0  0  0  0
 20 23  1  0  0  0  0
 22 13  1  0  0  0  0
 22 20  1  0  0  0  0
 23 18  1  0  0  0  0
 24 17  1  0  0  0  0
 25 10  1  0  0  0  0
 26 25  1  0  0  0  0
 27 28  1  0  0  0  0
 28 26  1  0  0  0  0
 29 28  1  0  0  0  0
 30 29  1  0  0  0  0
 31 29  2  0  0  0  0
M  END
>  <MODEL>
1

>  <REMARK>
 VINA RESULT:      -8.8      0.000      0.000
  Name = 
  5 active torsions:
  status: ('A' for Active; 'I' for Inactive)
    1  A    between atoms: C_3  and  C_14
    2  A    between atoms: C_7  and  C_28
    3  A    between atoms: C_26  and  N_29
    4  A    between atoms: C_28  and  C_31
    5  A    between atoms: N_29  and  C_31
                            x       y       z     vdW  Elec       q    Type
                         _______ _______ _______ _____ _____    ______ ____

>  <TORSDO>
F 5

$$$$
=
 OpenBabel11072412413D

 31 34  0  0  1  0  0  0  0  0999 V2000
  161.1910  205.6970  151.1170 C   0  0  0  0  0  0  0  0  0  0  0  0
  161.1060  205.5950  152.5790 C   0  0  0  0  0  0  0  0  0  0  0  0
  161.2990  204.5200  150.3760 N   0  0  0  0  0  0  0  0  0  0  0  0
  160.8650  208.1320  152.5680 C   0  0  0  0  0  0  0  0  0  0  0  0
  160.9340  208.1250  151.2180 C   0  0  0  0  0  3  0  0  0  0  0  0
  160.8650  206.8440  153.3800 C   0  0  0  0  0  3  0  0  0  0  0  0
  161.1080  206.8800  150.4340 C   0  0  0  0  0  0  0  0  0  0  0  0
  161.1880  206.8570  148.9940 C   0  0  0  0  0  3  0  0  0  0  0  0
  161.4130  204.4660  149.0690 C   0  0  0  0  0  3  0  0  0  0  0  0
  161.3370  205.6370  148.3050 C   0  0  0  0  0  0  0  0  0  0  0  0
  161.1850  204.4360  153.1820 O   0  0  0  0  0  1  0  0  0  0  0  0
  159.3900  213.2770  152.6580 C   0  0  0  0  0  1  0  0  0  0  0  0
  158.9590  212.6690  154.0000 C   0  0  2  0  0  3  0  0  0  0  0  0
  160.8750  209.3760  153.3690 C   0  0  0  0  0  0  0  0  0  0  0  0
  159.2110  213.6680  154.9480 O   0  0  0  0  0  0  0  0  0  0  0  0
  159.9870  210.3250  153.1760 N   0  0  0  0  0  0  0  0  0  0  0  0
  161.0310  209.8980  155.8750 C   0  0  1  0  0  3  0  0  0  0  0  0
  161.1390  212.4220  157.1350 O   0  0  0  0  0  1  0  0  0  0  0  0
  158.9670  213.0930  156.2500 C   0  0  0  0  0  2  0  0  0  0  0  0
  160.0060  210.9090  155.6730 C   0  0  2  0  0  3  0  0  0  0  0  0
  160.4280  208.7110  156.6300 C   0  0  0  0  0  1  0  0  0  0  0  0
  159.7880  211.3550  154.2190 C   0  0  2  0  0  3  0  0  0  0  0  0
  159.9140  211.9790  156.6280 C   0  0  1  0  0  3  0  0  0  0  0  0
  161.4870  209.3360  154.6640 O   0  0  0  0  0  0  0  0  0  0  0  0
  161.4550  205.5000  146.8820 N   0  0  0  0  0  2  0  0  0  0  0  0
  162.0630  204.2420  146.4210 C   0  0  0  0  0  2  0  0  0  0  0  0
  160.3260  204.3140  144.4680 C   0  0  0  0  0  1  0  0  0  0  0  0
  161.3030  203.4800  145.2720 C   0  0  2  0  0  3  0  0  0  0  0  0
  160.7900  202.1630  145.7050 C   0  0  0  0  0  0  0  0  0  0  0  0
  160.8140  201.9150  146.9150 O   0  0  0  0  0  1  0  0  0  0  0  0
  159.9600  201.3110  144.8530 O   0  0  0  0  0  0  0  0  0  0  0  0
  1  2  2  0  0  0  0
  2 11  1  0  0  0  0
  2  6  1  0  0  0  0
  3  1  1  0  0  0  0
  4 14  1  0  0  0  0
  4  6  2  0  0  0  0
  5  4  1  0  0  0  0
  7  1  1  0  0  0  0
  7  5  2  0  0  0  0
  8  7  1  0  0  0  0
  9  3  2  0  0  0  0
 10  8  2  0  0  0  0
 10  9  1  0  0  0  0
 13 12  1  6  0  0  0
 13 22  1  0  0  0  0
 13 15  1  0  0  0  0
 14 24  1  0  0  0  0
 15 19  1  0  0  0  0
 16 14  2  0  0  0  0
 16 22  1  0  0  0  0
 17 21  1  1  0  0  0
 19 23  1  0  0  0  0
 20 17  1  0  0  0  0
 20 23  1  0  0  0  0
 22 20  1  0  0  0  0
 23 18  1  0  0  0  0
 24 17  1  0  0  0  0
 25 10  1  0  0  0  0
 26 25  1  0  0  0  0
 27 28  1  0  0  0  0
 28 29  1  0  0  0  0
 28 26  1  0  0  0  0
 29 30  1  0  0  0  0
 31 29  2  0  0  0  0
M  END
>  <MODEL>
2

>  <REMARK>
 VINA RESULT:      -8.7      1.847      2.506
  Name = 
  5 active torsions:
  status: ('A' for Active; 'I' for Inactive)
    1  A    between atoms: C_3  and  C_14
    2  A    between atoms: C_7  and  C_28
    3  A    between atoms: C_26  and  N_29
    4  A    between atoms: C_28  and  C_31
    5  A    between atoms: N_29  and  C_31
                            x       y       z     vdW  Elec       q    Type
                         _______ _______ _______ _____ _____    ______ ____

>  <TORSDO>
F 5

$$$$
=
 OpenBabel11072412413D

 31 34  0  0  1  0  0  0  0  0999 V2000
  160.3180  208.7930  154.5750 C   0  0  0  0  0  0  0  0  0  0  0  0
  160.6670  207.3890  154.8280 C   0  0  0  0  0  0  0  0  0  0  0  0
  159.8520  209.5610  155.6430 N   0  0  0  0  0  0  0  0  0  0  0  0
  161.3650  207.3020  152.3790 C   0  0  0  0  0  0  0  0  0  0  0  0
  161.0340  208.6070  152.2460 C   0  0  0  0  0  3  0  0  0  0  0  0
  161.2860  206.5840  153.7200 C   0  0  0  0  0  3  0  0  0  0  0  0
  160.4830  209.4080  153.3640 C   0  0  0  0  0  0  0  0  0  0  0  0
  160.1210  210.7980  153.2380 C   0  0  0  0  0  3  0  0  0  0  0  0
  159.4790  210.8170  155.5520 C   0  0  0  0  0  3  0  0  0  0  0  0
  159.6180  211.5100  154.3440 C   0  0  0  0  0  0  0  0  0  0  0  0
  160.4950  206.8510  156.0090 O   0  0  0  0  0  1  0  0  0  0  0  0
  161.1120  202.3510  150.3600 C   0  0  0  0  0  1  0  0  0  0  0  0
  160.6990  203.3100  149.2340 C   0  0  2  0  0  3  0  0  0  0  0  0
  161.7410  206.4460  151.2320 C   0  0  0  0  0  0  0  0  0  0  0  0
  161.2700  202.7730  148.0740 O   0  0  0  0  0  0  0  0  0  0  0  0
  161.0760  205.3510  150.9450 N   0  0  0  0  0  0  0  0  0  0  0  0
  162.2770  206.8850  148.7620 C   0  0  1  0  0  3  0  0  0  0  0  0
  163.0870  205.0330  146.7910 O   0  0  0  0  0  1  0  0  0  0  0  0
  161.0420  203.7210  147.0090 C   0  0  0  0  0  2  0  0  0  0  0  0
  161.4920  205.7040  148.4390 C   0  0  2  0  0  3  0  0  0  0  0  0
  161.5040  208.1370  148.3400 C   0  0  0  0  0  1  0  0  0  0  0  0
  161.2280  204.7400  149.6060 C   0  0  2  0  0  3  0  0  0  0  0  0
  161.7470  205.0440  147.1870 C   0  0  1  0  0  3  0  0  0  0  0  0
  162.4630  207.0510  150.1510 O   0  0  0  0  0  0  0  0  0  0  0  0
  159.2020  212.8830  154.3240 N   0  0  0  0  0  2  0  0  0  0  0  0
  157.9590  213.1720  155.0550 C   0  0  0  0  0  2  0  0  0  0  0  0
  155.7360  213.7110  153.7880 C   0  0  0  0  0  1  0  0  0  0  0  0
  156.6260  212.6480  154.4010 C   0  0  2  0  0  3  0  0  0  0  0  0
  155.9250  211.6620  155.2510 C   0  0  0  0  0  0  0  0  0  0  0  0
  155.5140  210.6330  154.7050 O   0  0  0  0  0  0  0  0  0  0  0  0
  155.9970  211.6740  156.7120 O   0  0  0  0  0  1  0  0  0  0  0  0
  1  2  1  0  0  0  0
  1  3  1  0  0  0  0
  2 11  1  0  0  0  0
  4  6  1  0  0  0  0
  5  4  2  0  0  0  0
  5  7  1  0  0  0  0
  6  2  2  0  0  0  0
  7  1  2  0  0  0  0
  8  7  1  0  0  0  0
  8 10  2  0  0  0  0
  9  3  2  0  0  0  0
 10  9  1  0  0  0  0
 13 22  1  0  0  0  0
 13 12  1  1  0  0  0
 14  4  1  0  0  0  0
 15 13  1  0  0  0  0
 16 14  2  0  0  0  0
 17 21  1  1  0  0  0
 17 24  1  0  0  0  0
 18 23  1  0  0  0  0
 19 23  1  0  0  0  0
 19 15  1  0  0  0  0
 20 17  1  0  0  0  0
 20 22  1  0  0  0  0
 22 16  1  0  0  0  0
 23 20  1  0  0  0  0
 24 14  1  0  0  0  0
 25 10  1  0  0  0  0
 25 26  1  0  0  0  0
 27 28  1  0  0  0  0
 28 26  1  0  0  0  0
 28 29  1  0  0  0  0
 29 31  1  0  0  0  0
 30 29  2  0  0  0  0
M  END
>  <MODEL>
3

>  <REMARK>
 VINA RESULT:      -8.6      2.207      9.887
  Name = 
  5 active torsions:
  status: ('A' for Active; 'I' for Inactive)
    1  A    between atoms: C_3  and  C_14
    2  A    between atoms: C_7  and  C_28
    3  A    between atoms: C_26  and  N_29
    4  A    between atoms: C_28  and  C_31
    5  A    between atoms: N_29  and  C_31
                            x       y       z     vdW  Elec       q    Type
                         _______ _______ _______ _____ _____    ______ ____

>  <TORSDO>
F 5

$$$$
=
 OpenBabel11072412413D

 31 34  0  0  1  0  0  0  0  0999 V2000
  160.9500  203.0840  150.3980 C   0  0  0  0  0  0  0  0  0  0  0  0
  160.8270  203.1580  151.8590 C   0  0  0  0  0  0  0  0  0  0  0  0
  160.8300  201.8360  149.7860 N   0  0  0  0  0  0  0  0  0  0  0  0
  161.1000  205.6770  151.5810 C   0  0  0  0  0  0  0  0  0  0  0  0
  161.1830  205.5120  150.2420 C   0  0  0  0  0  3  0  0  0  0  0  0
  160.8300  204.5080  152.5200 C   0  0  0  0  0  3  0  0  0  0  0  0
  161.1150  204.1800  149.5960 C   0  0  0  0  0  0  0  0  0  0  0  0
  161.2080  203.9880  148.1700 C   0  0  0  0  0  3  0  0  0  0  0  0
  160.9470  201.6220  148.4960 C   0  0  0  0  0  3  0  0  0  0  0  0
  161.1180  202.6960  147.6140 C   0  0  0  0  0  0  0  0  0  0  0  0
  160.6630  202.0780  152.5800 O   0  0  0  0  0  1  0  0  0  0  0  0
  161.2890  210.9810  150.8900 C   0  0  0  0  0  1  0  0  0  0  0  0
  160.4580  210.7290  152.1570 C   0  0  2  0  0  3  0  0  0  0  0  0
  161.3480  206.9720  152.2500 C   0  0  0  0  0  0  0  0  0  0  0  0
  160.8320  211.7460  153.0430 O   0  0  0  0  0  0  0  0  0  0  0  0
  160.8450  208.0940  151.7870 N   0  0  0  0  0  0  0  0  0  0  0  0
  161.2060  207.7980  154.6750 C   0  0  1  0  0  3  0  0  0  0  0  0
  161.8580  210.3480  155.6970 O   0  0  0  0  0  1  0  0  0  0  0  0
  160.1940  211.4650  154.3080 C   0  0  0  0  0  2  0  0  0  0  0  0
  160.5950  209.0160  154.1670 C   0  0  2  0  0  3  0  0  0  0  0  0
  160.1410  206.9580  155.3840 C   0  0  0  0  0  1  0  0  0  0  0  0
  160.7900  209.2820  152.6650 C   0  0  2  0  0  3  0  0  0  0  0  0
  160.6680  210.2000  154.9800 C   0  0  1  0  0  3  0  0  0  0  0  0
  161.6760  206.9550  153.6460 O   0  0  0  0  0  0  0  0  0  0  0  0
  161.2250  202.3870  146.2170 N   0  0  0  0  0  2  0  0  0  0  0  0
  160.7380  203.4320  145.3040 C   0  0  0  0  0  2  0  0  0  0  0  0
  163.1950  204.3280  145.2810 C   0  0  0  0  0  1  0  0  0  0  0  0
  161.7320  204.6170  145.0060 C   0  0  2  0  0  3  0  0  0  0  0  0
  161.2450  205.9120  145.5250 C   0  0  0  0  0  0  0  0  0  0  0  0
  160.0800  206.2270  145.2610 O   0  0  0  0  0  0  0  0  0  0  0  0
  161.9240  206.6530  146.5880 O   0  0  0  0  0  1  0  0  0  0  0  0
  1  2  2  0  0  0  0
  2  6  1  0  0  0  0
  2 11  1  0  0  0  0
  3  1  1  0  0  0  0
  4 14  1  0  0  0  0
  4  6  2  0  0  0  0
  5  4  1  0  0  0  0
  7  5  2  0  0  0  0
  7  1  1  0  0  0  0
  8  7  1  0  0  0  0
  9  3  2  0  0  0  0
 10  8  2  0  0  0  0
 10  9  1  0  0  0  0
 13 12  1  6  0  0  0
 13 22  1  0  0  0  0
 13 15  1  0  0  0  0
 14 24  1  0  0  0  0
 15 19  1  0  0  0  0
 16 14  2  0  0  0  0
 16 22  1  0  0  0  0
 17 21  1  6  0  0  0
 19 23  1  0  0  0  0
 20 17  1  0  0  0  0
 20 23  1  0  0  0  0
 22 20  1  0  0  0  0
 23 18  1  0  0  0  0
 24 17  1  0  0  0  0
 25 10  1  0  0  0  0
 26 25  1  0  0  0  0
 28 27  1  0  0  0  0
 28 26  1  0  0  0  0
 28 29  1  0  0  0  0
 29 31  1  0  0  0  0
 30 29  2  0  0  0  0
M  END
>  <MODEL>
4

>  <REMARK>
 VINA RESULT:      -8.6      2.272      3.549
  Name = 
  5 active torsions:
  status: ('A' for Active; 'I' for Inactive)
    1  A    between atoms: C_3  and  C_14
    2  A    between atoms: C_7  and  C_28
    3  A    between atoms: C_26  and  N_29
    4  A    between atoms: C_28  and  C_31
    5  A    between atoms: N_29  and  C_31
                            x       y       z     vdW  Elec       q    Type
                         _______ _______ _______ _____ _____    ______ ____

>  <TORSDO>
F 5

$$$$
=
 OpenBabel11072412413D

 31 34  0  0  1  0  0  0  0  0999 V2000
  160.2950  208.8580  154.3890 C   0  0  0  0  0  0  0  0  0  0  0  0
  160.6040  207.4670  154.7430 C   0  0  0  0  0  0  0  0  0  0  0  0
  159.8430  209.7120  155.3950 N   0  0  0  0  0  0  0  0  0  0  0  0
  161.3170  207.1890  152.3120 C   0  0  0  0  0  0  0  0  0  0  0  0
  161.0220  208.4890  152.0850 C   0  0  0  0  0  3  0  0  0  0  0  0
  161.2080  206.5700  153.7000 C   0  0  0  0  0  3  0  0  0  0  0  0
  160.4860  209.3810  153.1390 C   0  0  0  0  0  0  0  0  0  0  0  0
  160.1620  210.7680  152.9110 C   0  0  0  0  0  3  0  0  0  0  0  0
  159.5040  210.9680  155.2130 C   0  0  0  0  0  3  0  0  0  0  0  0
  159.6710  211.5700  153.9600 C   0  0  0  0  0  0  0  0  0  0  0  0
  160.4090  207.0190  155.9570 O   0  0  0  0  0  1  0  0  0  0  0  0
  161.2170  202.0590  150.7870 C   0  0  0  0  0  1  0  0  0  0  0  0
  160.6990  202.8830  149.6000 C   0  0  2  0  0  3  0  0  0  0  0  0
  161.6780  206.2440  151.2320 C   0  0  0  0  0  0  0  0  0  0  0  0
  161.2370  202.2640  148.4660 O   0  0  0  0  0  0  0  0  0  0  0  0
  161.0560  205.0960  151.0870 N   0  0  0  0  0  0  0  0  0  0  0  0
  162.0630  206.4650  148.7060 C   0  0  1  0  0  3  0  0  0  0  0  0
  162.8660  204.4710  146.8760 O   0  0  0  0  0  1  0  0  0  0  0  0
  160.9060  203.0930  147.3300 C   0  0  0  0  0  2  0  0  0  0  0  0
  161.3250  205.2240  148.5400 C   0  0  2  0  0  3  0  0  0  0  0  0
  161.2060  207.6330  148.2110 C   0  0  0  0  0  1  0  0  0  0  0  0
  161.1710  204.3660  149.8060 C   0  0  2  0  0  3  0  0  0  0  0  0
  161.5490  204.4580  147.3440 C   0  0  1  0  0  3  0  0  0  0  0  0
  162.3110  206.7740  150.0600 O   0  0  0  0  0  0  0  0  0  0  0  0
  159.2920  212.9490  153.8400 N   0  0  0  0  0  2  0  0  0  0  0  0
  158.1320  213.2070  152.9740 C   0  0  0  0  0  2  0  0  0  0  0  0
  159.7010  214.1570  151.1110 C   0  0  0  0  0  1  0  0  0  0  0  0
  158.4330  213.3950  151.4400 C   0  0  2  0  0  3  0  0  0  0  0  0
  157.2400  213.8100  150.6730 C   0  0  0  0  0  0  0  0  0  0  0  0
  157.0980  213.3340  149.5420 O   0  0  0  0  0  0  0  0  0  0  0  0
  156.0790  214.4530  151.2890 O   0  0  0  0  0  1  0  0  0  0  0  0
  1  2  1  0  0  0  0
  1  3  1  0  0  0  0
  2 11  1  0  0  0  0
  4  6  1  0  0  0  0
  5  4  2  0  0  0  0
  5  7  1  0  0  0  0
  6  2  2  0  0  0  0
  7  1  2  0  0  0  0
  8  7  1  0  0  0  0
  8 10  2  0  0  0  0
  9  3  2  0  0  0  0
 10  9  1  0  0  0  0
 13 22  1  0  0  0  0
 13 12  1  1  0  0  0
 14  4  1  0  0  0  0
 15 13  1  0  0  0  0
 16 14  2  0  0  0  0
 17 21  1  1  0  0  0
 17 24  1  0  0  0  0
 18 23  1  0  0  0  0
 19 23  1  0  0  0  0
 19 15  1  0  0  0  0
 20 17  1  0  0  0  0
 20 22  1  0  0  0  0
 22 16  1  0  0  0  0
 23 20  1  0  0  0  0
 24 14  1  0  0  0  0
 25 10  1  0  0  0  0
 26 25  1  0  0  0  0
 27 28  1  0  0  0  0
 28 26  1  0  0  0  0
 29 31  1  0  0  0  0
 29 28  1  0  0  0  0
 30 29  2  0  0  0  0
M  END
>  <MODEL>
5

>  <REMARK>
 VINA RESULT:      -8.4      2.336      9.590
  Name = 
  5 active torsions:
  status: ('A' for Active; 'I' for Inactive)
    1  A    between atoms: C_3  and  C_14
    2  A    between atoms: C_7  and  C_28
    3  A    between atoms: C_26  and  N_29
    4  A    between atoms: C_28  and  C_31
    5  A    between atoms: N_29  and  C_31
                            x       y       z     vdW  Elec       q    Type
                         _______ _______ _______ _____ _____    ______ ____

>  <TORSDO>
F 5

$$$$
=
 OpenBabel11072412413D

 31 34  0  0  1  0  0  0  0  0999 V2000
  161.5970  205.7440  149.1140 C   0  0  0  0  0  0  0  0  0  0  0  0
  161.9530  207.1690  149.1100 C   0  0  0  0  0  0  0  0  0  0  0  0
  161.8720  204.9920  147.9720 N   0  0  0  0  0  0  0  0  0  0  0  0
  161.1090  207.2060  151.5150 C   0  0  0  0  0  0  0  0  0  0  0  0
  160.8320  205.8860  151.4300 C   0  0  0  0  0  3  0  0  0  0  0  0
  161.7780  207.9630  150.3750 C   0  0  0  0  0  3  0  0  0  0  0  0
  161.0680  205.0990  150.1970 C   0  0  0  0  0  0  0  0  0  0  0  0
  160.7730  203.6910  150.0890 C   0  0  0  0  0  3  0  0  0  0  0  0
  161.5820  203.7190  147.8270 C   0  0  0  0  0  3  0  0  0  0  0  0
  161.0380  202.9940  148.8940 C   0  0  0  0  0  0  0  0  0  0  0  0
  162.4630  207.7370  148.0470 O   0  0  0  0  0  1  0  0  0  0  0  0
  161.0490  207.5190  156.8580 C   0  0  0  0  0  1  0  0  0  0  0  0
  161.5790  208.8640  156.3420 C   0  0  2  0  0  3  0  0  0  0  0  0
  160.7110  208.0400  152.6700 C   0  0  0  0  0  0  0  0  0  0  0  0
  161.0130  209.8250  157.1880 O   0  0  0  0  0  0  0  0  0  0  0  0
  161.2980  207.9210  153.8390 N   0  0  0  0  0  0  0  0  0  0  0  0
  160.3070  210.5490  153.0200 C   0  0  1  0  0  3  0  0  0  0  0  0
  159.4310  211.8730  155.3560 O   0  0  0  0  0  1  0  0  0  0  0  0
  161.3550  211.1210  156.6510 C   0  0  0  0  0  2  0  0  0  0  0  0
  161.0090  210.4300  154.2880 C   0  0  2  0  0  3  0  0  0  0  0  0
  161.1920  211.3000  152.0230 C   0  0  0  0  0  1  0  0  0  0  0  0
  161.1510  209.0010  154.8390 C   0  0  2  0  0  3  0  0  0  0  0  0
  160.7510  211.4180  155.3000 C   0  0  1  0  0  3  0  0  0  0  0  0
  160.0810  209.3010  152.4040 O   0  0  0  0  0  0  0  0  0  0  0  0
  160.7590  201.6040  148.6680 N   0  0  0  0  0  2  0  0  0  0  0  0
  161.5750  200.9630  147.6260 C   0  0  0  0  0  2  0  0  0  0  0  0
  161.3500  199.0780  145.8270 C   0  0  0  0  0  1  0  0  0  0  0  0
  160.7940  200.3690  146.3940 C   0  0  2  0  0  3  0  0  0  0  0  0
  160.4540  201.3960  145.3870 C   0  0  0  0  0  0  0  0  0  0  0  0
  159.3510  201.3110  144.8390 O   0  0  0  0  0  0  0  0  0  0  0  0
  161.1780  202.6620  145.2630 O   0  0  0  0  0  1  0  0  0  0  0  0
  1  7  1  0  0  0  0
  2  1  2  0  0  0  0
  2  6  1  0  0  0  0
  3  1  1  0  0  0  0
  4 14  1  0  0  0  0
  5  4  1  0  0  0  0
  6  4  2  0  0  0  0
  7  5  2  0  0  0  0
  8  7  1  0  0  0  0
  9  3  2  0  0  0  0
  9 10  1  0  0  0  0
 10  8  2  0  0  0  0
 11  2  1  0  0  0  0
 13 12  1  1  0  0  0
 13 15  1  0  0  0  0
 14 16  2  0  0  0  0
 16 22  1  0  0  0  0
 17 21  1  6  0  0  0
 17 20  1  0  0  0  0
 19 15  1  0  0  0  0
 20 22  1  0  0  0  0
 20 23  1  0  0  0  0
 22 13  1  0  0  0  0
 23 18  1  0  0  0  0
 23 19  1  0  0  0  0
 24 14  1  0  0  0  0
 24 17  1  0  0  0  0
 25 10  1  0  0  0  0
 26 25  1  0  0  0  0
 27 28  1  0  0  0  0
 28 26  1  0  0  0  0
 29 28  1  0  0  0  0
 30 29  2  0  0  0  0
 31 29  1  0  0  0  0
M  END
>  <MODEL>
6

>  <REMARK>
 VINA RESULT:      -8.2      1.344      2.452
  Name = 
  5 active torsions:
  status: ('A' for Active; 'I' for Inactive)
    1  A    between atoms: C_3  and  C_14
    2  A    between atoms: C_7  and  C_28
    3  A    between atoms: C_26  and  N_29
    4  A    between atoms: C_28  and  C_31
    5  A    between atoms: N_29  and  C_31
                            x       y       z     vdW  Elec       q    Type
                         _______ _______ _______ _____ _____    ______ ____

>  <TORSDO>
F 5

$$$$
=
 OpenBabel11072412413D

 31 34  0  0  1  0  0  0  0  0999 V2000
  161.7840  208.1340  149.1960 C   0  0  0  0  0  0  0  0  0  0  0  0
  162.0670  209.5530  149.4520 C   0  0  0  0  0  0  0  0  0  0  0  0
  162.1810  207.5910  147.9740 N   0  0  0  0  0  0  0  0  0  0  0  0
  161.0440  209.1610  151.7540 C   0  0  0  0  0  0  0  0  0  0  0  0
  160.8410  207.8630  151.4350 C   0  0  0  0  0  3  0  0  0  0  0  0
  161.7580  210.1200  150.8090 C   0  0  0  0  0  3  0  0  0  0  0  0
  161.2090  207.2990  150.1150 C   0  0  0  0  0  0  0  0  0  0  0  0
  160.9940  205.9190  149.7580 C   0  0  0  0  0  3  0  0  0  0  0  0
  161.9670  206.3490  147.6040 C   0  0  0  0  0  3  0  0  0  0  0  0
  161.3820  205.4390  148.4910 C   0  0  0  0  0  0  0  0  0  0  0  0
  162.6260  210.3060  148.5400 O   0  0  0  0  0  1  0  0  0  0  0  0
  162.1140  210.2360  156.8870 C   0  0  0  0  0  1  0  0  0  0  0  0
  161.5740  211.5320  156.2670 C   0  0  2  0  0  3  0  0  0  0  0  0
  160.5200  209.7780  152.9920 C   0  0  0  0  0  0  0  0  0  0  0  0
  160.7690  212.1020  157.2610 O   0  0  0  0  0  0  0  0  0  0  0  0
  161.3220  210.2150  153.9360 N   0  0  0  0  0  0  0  0  0  0  0  0
  158.7790  211.5930  153.4960 C   0  0  1  0  0  3  0  0  0  0  0  0
  157.8830  212.5090  156.0130 O   0  0  0  0  0  1  0  0  0  0  0  0
  160.1120  213.2460  156.6740 C   0  0  0  0  0  2  0  0  0  0  0  0
  159.6920  212.1130  154.5020 C   0  0  2  0  0  3  0  0  0  0  0  0
  158.7500  212.5470  152.3000 C   0  0  0  0  0  1  0  0  0  0  0  0
  160.7990  211.1490  154.9570 C   0  0  2  0  0  3  0  0  0  0  0  0
  159.1450  212.9110  155.5650 C   0  0  1  0  0  3  0  0  0  0  0  0
  159.2140  210.3690  152.9470 O   0  0  0  0  0  0  0  0  0  0  0  0
  161.1910  204.0960  148.0210 N   0  0  0  0  0  2  0  0  0  0  0  0
  162.1400  203.6520  146.9890 C   0  0  0  0  0  2  0  0  0  0  0  0
  160.8350  204.3400  144.8300 C   0  0  0  0  0  1  0  0  0  0  0  0
  161.5190  203.2310  145.6050 C   0  0  2  0  0  3  0  0  0  0  0  0
  160.7590  201.9660  145.6830 C   0  0  0  0  0  0  0  0  0  0  0  0
  160.9250  201.2650  146.6870 O   0  0  0  0  0  1  0  0  0  0  0  0
  159.6000  201.6770  144.8380 O   0  0  0  0  0  0  0  0  0  0  0  0
  1  2  2  0  0  0  0
  1  7  1  0  0  0  0
  2  6  1  0  0  0  0
  3  1  1  0  0  0  0
  4 14  1  0  0  0  0
  5  4  1  0  0  0  0
  6  4  2  0  0  0  0
  7  5  2  0  0  0  0
  8  7  1  0  0  0  0
  9  3  2  0  0  0  0
  9 10  1  0  0  0  0
 10  8  2  0  0  0  0
 11  2  1  0  0  0  0
 13 12  1  1  0  0  0
 13 15  1  0  0  0  0
 14 16  2  0  0  0  0
 16 22  1  0  0  0  0
 17 21  1  6  0  0  0
 17 20  1  0  0  0  0
 19 15  1  0  0  0  0
 20 22  1  0  0  0  0
 20 23  1  0  0  0  0
 22 13  1  0  0  0  0
 23 18  1  0  0  0  0
 23 19  1  0  0  0  0
 24 14  1  0  0  0  0
 24 17  1  0  0  0  0
 25 10  1  0  0  0  0
 26 25  1  0  0  0  0
 27 28  1  0  0  0  0
 28 29  1  0  0  0  0
 28 26  1  0  0  0  0
 29 30  1  0  0  0  0
 31 29  2  0  0  0  0
M  END
>  <MODEL>
7

>  <REMARK>
 VINA RESULT:      -8.2      1.725      2.728
  Name = 
  5 active torsions:
  status: ('A' for Active; 'I' for Inactive)
    1  A    between atoms: C_3  and  C_14
    2  A    between atoms: C_7  and  C_28
    3  A    between atoms: C_26  and  N_29
    4  A    between atoms: C_28  and  C_31
    5  A    between atoms: N_29  and  C_31
                            x       y       z     vdW  Elec       q    Type
                         _______ _______ _______ _____ _____    ______ ____

>  <TORSDO>
F 5

$$$$
=
 OpenBabel11072412413D

 31 34  0  0  1  0  0  0  0  0999 V2000
  161.8620  209.2420  152.3240 C   0  0  0  0  0  0  0  0  0  0  0  0
  162.0940  209.3080  150.8750 C   0  0  0  0  0  0  0  0  0  0  0  0
  162.2560  210.3280  153.1070 N   0  0  0  0  0  0  0  0  0  0  0  0
  160.9400  207.0380  150.7640 C   0  0  0  0  0  0  0  0  0  0  0  0
  160.7550  207.0750  152.1030 C   0  0  0  0  0  3  0  0  0  0  0  0
  161.5640  208.2020  150.0060 C   0  0  0  0  0  3  0  0  0  0  0  0
  161.2260  208.2010  152.9430 C   0  0  0  0  0  0  0  0  0  0  0  0
  161.0400  208.2530  154.3720 C   0  0  0  0  0  3  0  0  0  0  0  0
  162.1360  210.3900  154.4130 C   0  0  0  0  0  3  0  0  0  0  0  0
  161.4960  209.3610  155.1130 C   0  0  0  0  0  0  0  0  0  0  0  0
  162.7030  210.3320  150.3330 O   0  0  0  0  0  1  0  0  0  0  0  0
  161.0390  205.0140  145.8100 C   0  0  0  0  0  1  0  0  0  0  0  0
  161.6650  203.9580  146.7310 C   0  0  2  0  0  3  0  0  0  0  0  0
  160.6410  205.8450  149.9420 C   0  0  0  0  0  0  0  0  0  0  0  0
  161.2000  202.7310  146.2440 O   0  0  0  0  0  0  0  0  0  0  0  0
  161.2450  205.6310  148.7960 N   0  0  0  0  0  0  0  0  0  0  0  0
  160.4540  203.3320  150.4240 C   0  0  1  0  0  3  0  0  0  0  0  0
  159.7470  201.2560  148.6450 O   0  0  0  0  0  1  0  0  0  0  0  0
  161.6350  201.7120  147.1710 C   0  0  0  0  0  2  0  0  0  0  0  0
  161.1740  203.0960  149.1830 C   0  0  2  0  0  3  0  0  0  0  0  0
  161.3730  203.0220  151.6080 C   0  0  0  0  0  1  0  0  0  0  0  0
  161.2120  204.2770  148.2000 C   0  0  2  0  0  3  0  0  0  0  0  0
  161.0240  201.8160  148.5470 C   0  0  1  0  0  3  0  0  0  0  0  0
  160.1110  204.6890  150.6040 O   0  0  0  0  0  0  0  0  0  0  0  0
  161.3890  209.5040  156.5370 N   0  0  0  0  0  2  0  0  0  0  0  0
  160.0760  209.9500  157.0260 C   0  0  0  0  0  2  0  0  0  0  0  0
  160.2630  212.5560  157.1330 C   0  0  0  0  0  1  0  0  0  0  0  0
  159.5790  211.3530  156.5130 C   0  0  2  0  0  3  0  0  0  0  0  0
  158.1060  211.4430  156.4400 C   0  0  0  0  0  0  0  0  0  0  0  0
  157.5610  212.3600  157.0650 O   0  0  0  0  0  1  0  0  0  0  0  0
  157.3130  210.7490  155.4250 O   0  0  0  0  0  0  0  0  0  0  0  0
  1  7  2  0  0  0  0
  1  3  1  0  0  0  0
  2  1  1  0  0  0  0
  3  9  2  0  0  0  0
  4  5  2  0  0  0  0
  5  7  1  0  0  0  0
  6  4  1  0  0  0  0
  6  2  2  0  0  0  0
  7  8  1  0  0  0  0
  8 10  2  0  0  0  0
  9 10  1  0  0  0  0
 10 25  1  0  0  0  0
 11  2  1  0  0  0  0
 13 12  1  6  0  0  0
 13 22  1  0  0  0  0
 14 24  1  0  0  0  0
 14  4  1  0  0  0  0
 15 13  1  0  0  0  0
 15 19  1  0  0  0  0
 16 14  2  0  0  0  0
 17 24  1  0  0  0  0
 17 21  1  1  0  0  0
 19 23  1  0  0  0  0
 20 17  1  0  0  0  0
 22 16  1  0  0  0  0
 22 20  1  0  0  0  0
 23 18  1  0  0  0  0
 23 20  1  0  0  0  0
 25 26  1  0  0  0  0
 28 26  1  0  0  0  0
 28 27  1  0  0  0  0
 29 28  1  0  0  0  0
 29 30  1  0  0  0  0
 31 29  2  0  0  0  0
M  END
>  <MODEL>
8

>  <REMARK>
 VINA RESULT:      -8.0      1.961      9.660
  Name = 
  5 active torsions:
  status: ('A' for Active; 'I' for Inactive)
    1  A    between atoms: C_3  and  C_14
    2  A    between atoms: C_7  and  C_28
    3  A    between atoms: C_26  and  N_29
    4  A    between atoms: C_28  and  C_31
    5  A    between atoms: N_29  and  C_31
                            x       y       z     vdW  Elec       q    Type
                         _______ _______ _______ _____ _____    ______ ____

>  <TORSDO>
F 5

$$$$
=
 OpenBabel11072412413D

 31 34  0  0  1  0  0  0  0  0999 V2000
  161.7300  208.3050  149.4740 C   0  0  0  0  0  0  0  0  0  0  0  0
  162.0040  209.7440  149.3710 C   0  0  0  0  0  0  0  0  0  0  0  0
  162.0250  207.4950  148.3770 N   0  0  0  0  0  0  0  0  0  0  0  0
  161.2040  209.8920  151.7860 C   0  0  0  0  0  0  0  0  0  0  0  0
  161.0000  208.5550  151.7930 C   0  0  0  0  0  3  0  0  0  0  0  0
  161.8080  210.6080  150.5850 C   0  0  0  0  0  3  0  0  0  0  0  0
  161.2580  207.7030  150.6080 C   0  0  0  0  0  0  0  0  0  0  0  0
  161.0410  206.2780  150.5980 C   0  0  0  0  0  3  0  0  0  0  0  0
  161.8050  206.2020  148.3220 C   0  0  0  0  0  3  0  0  0  0  0  0
  161.3220  205.5190  149.4440 C   0  0  0  0  0  0  0  0  0  0  0  0
  162.4620  210.2680  148.2630 O   0  0  0  0  0  1  0  0  0  0  0  0
  157.2610  213.0180  153.6140 C   0  0  0  0  0  1  0  0  0  0  0  0
  157.6890  212.1170  154.7810 C   0  0  2  0  0  3  0  0  0  0  0  0
  160.7810  210.7770  152.8940 C   0  0  0  0  0  0  0  0  0  0  0  0
  157.6350  212.9390  155.9120 O   0  0  0  0  0  0  0  0  0  0  0  0
  159.5120  211.0040  153.1460 N   0  0  0  0  0  0  0  0  0  0  0  0
  161.4110  210.9790  155.3720 C   0  0  1  0  0  3  0  0  0  0  0  0
  160.5040  212.8720  157.2610 O   0  0  0  0  0  1  0  0  0  0  0  0
  158.1770  212.1830  157.0170 C   0  0  0  0  0  2  0  0  0  0  0  0
  159.9980  211.1720  155.6590 C   0  0  2  0  0  3  0  0  0  0  0  0
  161.8380  209.5900  155.8520 C   0  0  0  0  0  1  0  0  0  0  0  0
  159.1220  211.5650  154.4590 C   0  0  2  0  0  3  0  0  0  0  0  0
  159.6410  211.8410  156.8810 C   0  0  1  0  0  3  0  0  0  0  0  0
  161.6870  210.9620  153.9890 O   0  0  0  0  0  0  0  0  0  0  0  0
  161.1170  204.1050  149.3140 N   0  0  0  0  0  0  0  0  0  0  0  0
  161.0670  203.6030  147.9330 C   0  0  0  0  0  3  0  0  0  0  0  0
  160.8520  201.5210  146.3650 C   0  0  0  0  0  1  0  0  0  0  0  0
  161.1720  202.0420  147.7520 C   0  0  2  0  0  3  0  0  0  0  0  0
  160.5370  201.2980  148.8600 C   0  0  0  0  0  0  0  0  0  0  0  0
  161.2730  200.8780  149.7580 O   0  0  0  0  0  1  0  0  0  0  0  0
  159.0980  201.3330  149.1230 O   0  0  0  0  0  0  0  0  0  0  0  0
  1  7  1  0  0  0  0
  2  1  2  0  0  0  0
  2  6  1  0  0  0  0
  3  1  1  0  0  0  0
  4  5  1  0  0  0  0
  4 14  1  0  0  0  0
  6  4  2  0  0  0  0
  7  5  2  0  0  0  0
  8  7  1  0  0  0  0
  9  3  2  0  0  0  0
  9 10  1  0  0  0  0
 10  8  2  0  0  0  0
 11  2  1  0  0  0  0
 13 12  1  6  0  0  0
 13 15  1  0  0  0  0
 14 16  2  0  0  0  0
 14 24  1  0  0  0  0
 15 19  1  0  0  0  0
 16 22  1  0  0  0  0
 17 20  1  0  0  0  0
 17 21  1  6  0  0  0
 20 23  1  0  0  0  0
 22 13  1  0  0  0  0
 22 20  1  0  0  0  0
 23 19  1  0  0  0  0
 23 18  1  0  0  0  0
 24 17  1  0  0  0  0
 25 10  1  0  0  0  0
 26 25  2  0  0  0  0
 27 28  1  0  0  0  0
 28 26  1  0  0  0  0
 28 29  1  0  0  0  0
 29 31  2  0  0  0  0
 29 30  1  0  0  0  0
M  END
>  <MODEL>
9

>  <REMARK>
 VINA RESULT:      -7.9      1.774      2.120
  Name = 
  5 active torsions:
  status: ('A' for Active; 'I' for Inactive)
    1  A    between atoms: C_3  and  C_14
    2  A    between atoms: C_7  and  C_28
    3  A    between atoms: C_26  and  N_29
    4  A    between atoms: C_28  and  C_31
    5  A    between atoms: N_29  and  C_31
                            x       y       z     vdW  Elec       q    Type
                         _______ _______ _______ _____ _____    ______ ____

>  <TORSDO>
F 5

$$$$
