=
 OpenBabel11072412303D

 33 36  0  0  1  0  0  0  0  0999 V2000
  161.2090  204.1880  148.7470 C   0  0  0  0  0  0  0  0  0  0  0  0
  160.6430  200.7900  150.1160 N   0  0  0  0  0  1  0  0  0  0  0  0
  161.3420  203.3520  146.7810 C   0  0  0  0  0  3  0  0  0  0  0  0
  161.0530  202.8380  148.8240 C   0  0  0  0  0  0  0  0  0  0  0  0
  160.9370  204.4030  151.1210 C   0  0  0  0  0  0  0  0  0  0  0  0
  160.7720  202.9960  151.2000 C   0  0  0  0  0  3  0  0  0  0  0  0
  160.8290  202.1990  150.0420 C   0  0  0  0  0  0  0  0  0  0  0  0
  161.1570  205.0120  149.8700 C   0  0  0  0  0  3  0  0  0  0  0  0
  161.1350  202.2850  147.5990 N   0  0  0  0  0  0  0  0  0  0  0  0
  161.3910  204.5210  147.4640 N   0  0  0  0  0  0  0  0  0  0  0  0
  160.3130  206.7310  146.4950 O   0  0  0  0  0  0  0  0  0  0  0  0
  161.6430  206.1010  146.8010 S   0  0  0  0  0  0  0  0  0  0  0  0
  162.4290  205.9900  145.5260 O   0  0  0  0  0  0  0  0  0  0  0  0
  162.5200  207.1160  147.9690 C   0  0  0  0  0  2  0  0  0  0  0  0
  161.6820  208.1280  148.4330 O   0  0  0  0  0  0  0  0  0  0  0  0
  162.3160  208.6110  149.5760 C   0  0  0  0  0  2  0  0  0  0  0  0
  161.5890  210.2050  150.0510 S   0  0  0  0  0  0  0  0  0  0  0  0
  162.3080  211.0560  148.6090 C   0  0  1  0  0  3  0  0  0  0  0  0
  161.2260  211.4540  147.6880 N   0  0  0  0  0  2  0  0  0  0  0  0
  161.0390  212.9950  149.4690 O   0  0  0  0  0  1  0  0  0  0  0  0
  161.9030  212.4590  148.5110 C   0  0  1  0  0  0  0  0  0  0  0  0
  162.7300  213.4120  147.6750 C   0  0  0  0  0  1  0  0  0  0  0  0
  161.8940  206.1270  152.7570 C   0  0  0  0  0  0  0  0  0  0  0  0
  160.8750  205.2370  152.2860 N   0  0  0  0  0  2  0  0  0  0  0  0
  162.9860  206.2450  152.1380 O   0  0  0  0  0  0  0  0  0  0  0  0
  161.6640  206.8580  153.9250 O   0  0  0  0  0  0  0  0  0  0  0  0
  160.1130  207.6160  155.6460 C   0  0  0  0  0  2  0  0  0  0  0  0
  159.7450  209.8380  156.7500 C   0  0  0  0  0  1  0  0  0  0  0  0
  161.9670  209.3770  155.6710 C   0  0  0  0  0  2  0  0  0  0  0  0
  160.4520  207.5720  154.1480 C   0  0  1  0  0  3  0  0  0  0  0  0
  161.6080  209.8470  154.2540 C   0  0  0  0  0  2  0  0  0  0  0  0
  160.5480  208.9790  153.5610 C   0  0  0  0  0  2  0  0  0  0  0  0
  160.7730  208.7730  156.4150 C   0  0  2  0  0  3  0  0  0  0  0  0
  1  4  2  0  0  0  0
  1  8  1  0  0  0  0
  3 10  1  0  0  0  0
  3  9  2  0  0  0  0
  4  7  1  0  0  0  0
  5  6  1  0  0  0  0
  5 24  1  0  0  0  0
  7  2  1  0  0  0  0
  7  6  2  0  0  0  0
  8  5  2  0  0  0  0
  9  4  1  0  0  0  0
 10  1  1  0  0  0  0
 11 12  2  0  0  0  0
 12 10  1  0  0  0  0
 12 14  1  0  0  0  0
 13 12  2  0  0  0  0
 14 15  1  0  0  0  0
 15 16  1  0  0  0  0
 16 17  1  0  0  0  0
 18 17  1  1  0  0  0
 19 21  1  0  0  0  0
 19 18  1  0  0  0  0
 21 22  1  6  0  0  0
 21 18  1  0  0  0  0
 21 20  1  0  0  0  0
 23 26  1  0  0  0  0
 24 23  1  0  0  0  0
 25 23  2  0  0  0  0
 27 33  1  0  0  0  0
 29 33  1  0  0  0  0
 30 26  1  1  0  0  0
 30 27  1  0  0  0  0
 31 29  1  0  0  0  0
 32 30  1  0  0  0  0
 32 31  1  0  0  0  0
 33 28  1  6  0  0  0
M  END
>  <MODEL>
1

>  <REMARK>
 VINA RESULT:      -7.6      0.000      0.000
  Name = 
  9 active torsions:
  status: ('A' for Active; 'I' for Inactive)
    1  A    between atoms: C_2  and  S_25
    2  A    between atoms: S_8  and  C_18
    3  A    between atoms: S_8  and  N_32
    4  A    between atoms: C_11  and  O_16
    5  A    between atoms: O_13  and  C_18
    6  A    between atoms: O_13  and  C_23
    7  A    between atoms: C_14  and  N_22
    8  A    between atoms: O_16  and  C_19
    9  A    between atoms: C_23  and  S_25
                            x       y       z     vdW  Elec       q    Type
                         _______ _______ _______ _____ _____    ______ ____

>  <TORSDO>
F 9

$$$$
=
 OpenBabel11072412303D

 33 36  0  0  1  0  0  0  0  0999 V2000
  160.4700  210.2480  153.7150 C   0  0  0  0  0  0  0  0  0  0  0  0
  161.6770  208.4210  156.7050 N   0  0  0  0  0  1  0  0  0  0  0  0
  160.2440  212.0110  154.9080 C   0  0  0  0  0  3  0  0  0  0  0  0
  160.8300  209.9690  154.9970 C   0  0  0  0  0  0  0  0  0  0  0  0
  160.9690  208.0020  153.0350 C   0  0  0  0  0  0  0  0  0  0  0  0
  161.3460  207.7130  154.3720 C   0  0  0  0  0  3  0  0  0  0  0  0
  161.2790  208.7030  155.3690 C   0  0  0  0  0  0  0  0  0  0  0  0
  160.5240  209.2960  152.6990 C   0  0  0  0  0  3  0  0  0  0  0  0
  160.6950  211.0620  155.7720 N   0  0  0  0  0  0  0  0  0  0  0  0
  160.1000  211.5330  153.6490 N   0  0  0  0  0  0  0  0  0  0  0  0
  159.3160  213.8460  152.6390 O   0  0  0  0  0  0  0  0  0  0  0  0
  159.5470  212.4100  152.2620 S   0  0  0  0  0  0  0  0  0  0  0  0
  158.2510  211.8220  151.7820 O   0  0  0  0  0  0  0  0  0  0  0  0
  160.7660  212.3310  150.9690 C   0  0  0  0  0  2  0  0  0  0  0  0
  160.2550  212.9060  149.8070 O   0  0  0  0  0  0  0  0  0  0  0  0
  161.3810  213.2420  149.0580 C   0  0  0  0  0  2  0  0  0  0  0  0
  161.1460  212.7230  147.3340 S   0  0  0  0  0  0  0  0  0  0  0  0
  159.3560  213.0630  147.3890 C   0  0  1  0  0  3  0  0  0  0  0  0
  159.0220  214.0830  146.3770 N   0  0  0  0  0  2  0  0  0  0  0  0
  159.3890  212.1280  145.1010 O   0  0  0  0  0  1  0  0  0  0  0  0
  158.6620  212.6800  146.1590 C   0  0  1  0  0  0  0  0  0  0  0  0
  157.1630  212.4690  146.1900 C   0  0  0  0  0  1  0  0  0  0  0  0
  161.9500  206.9850  150.8970 C   0  0  0  0  0  0  0  0  0  0  0  0
  161.0360  207.0120  152.0000 N   0  0  0  0  0  2  0  0  0  0  0  0
  162.8150  207.8920  150.7520 O   0  0  0  0  0  0  0  0  0  0  0  0
  161.8620  205.9410  149.9740 O   0  0  0  0  0  0  0  0  0  0  0  0
  160.6300  206.7890  148.0490 C   0  0  0  0  0  2  0  0  0  0  0  0
  160.4590  206.0310  145.6640 C   0  0  0  0  0  1  0  0  0  0  0  0
  162.4630  205.3390  147.0130 C   0  0  0  0  0  2  0  0  0  0  0  0
  160.7070  205.7370  149.1650 C   0  0  1  0  0  3  0  0  0  0  0  0
  161.8680  204.0630  147.6250 C   0  0  0  0  0  2  0  0  0  0  0  0
  160.7030  204.3210  148.5920 C   0  0  0  0  0  2  0  0  0  0  0  0
  161.4130  206.4280  146.7760 C   0  0  2  0  0  3  0  0  0  0  0  0
  1  4  1  0  0  0  0
  3  9  2  0  0  0  0
  4  7  2  0  0  0  0
  4  9  1  0  0  0  0
  5  6  2  0  0  0  0
  6  7  1  0  0  0  0
  7  2  1  0  0  0  0
  8  5  1  0  0  0  0
  8  1  2  0  0  0  0
 10  1  1  0  0  0  0
 10  3  1  0  0  0  0
 12 11  2  0  0  0  0
 12 10  1  0  0  0  0
 13 12  2  0  0  0  0
 14 12  1  0  0  0  0
 15 14  1  0  0  0  0
 16 15  1  0  0  0  0
 17 16  1  0  0  0  0
 18 17  1  6  0  0  0
 19 18  1  0  0  0  0
 20 21  1  0  0  0  0
 21 22  1  1  0  0  0
 21 19  1  0  0  0  0
 21 18  1  0  0  0  0
 23 24  1  0  0  0  0
 24  5  1  0  0  0  0
 25 23  2  0  0  0  0
 26 23  1  0  0  0  0
 27 30  1  0  0  0  0
 29 31  1  0  0  0  0
 30 26  1  6  0  0  0
 31 32  1  0  0  0  0
 32 30  1  0  0  0  0
 33 28  1  6  0  0  0
 33 29  1  0  0  0  0
 33 27  1  0  0  0  0
M  END
>  <MODEL>
2

>  <REMARK>
 VINA RESULT:      -6.8      3.123      7.386
  Name = 
  9 active torsions:
  status: ('A' for Active; 'I' for Inactive)
    1  A    between atoms: C_2  and  S_25
    2  A    between atoms: S_8  and  C_18
    3  A    between atoms: S_8  and  N_32
    4  A    between atoms: C_11  and  O_16
    5  A    between atoms: O_13  and  C_18
    6  A    between atoms: O_13  and  C_23
    7  A    between atoms: C_14  and  N_22
    8  A    between atoms: O_16  and  C_19
    9  A    between atoms: C_23  and  S_25
                            x       y       z     vdW  Elec       q    Type
                         _______ _______ _______ _____ _____    ______ ____

>  <TORSDO>
F 9

$$$$
=
 OpenBabel11072412303D

 33 36  0  0  1  0  0  0  0  0999 V2000
  159.6770  210.8470  154.6490 C   0  0  0  0  0  0  0  0  0  0  0  0
  161.3140  208.2880  156.7720 N   0  0  0  0  0  1  0  0  0  0  0  0
  159.1550  211.9460  156.4110 C   0  0  0  0  0  3  0  0  0  0  0  0
  160.1270  210.1760  155.7440 C   0  0  0  0  0  0  0  0  0  0  0  0
  160.5760  209.1690  153.1900 C   0  0  0  0  0  0  0  0  0  0  0  0
  161.0470  208.4710  154.3320 C   0  0  0  0  0  3  0  0  0  0  0  0
  160.8240  208.9750  155.6270 C   0  0  0  0  0  0  0  0  0  0  0  0
  159.8790  210.3820  153.3510 C   0  0  0  0  0  3  0  0  0  0  0  0
  159.8100  210.8450  156.8680 N   0  0  0  0  0  0  0  0  0  0  0  0
  159.0640  211.9640  155.0590 N   0  0  0  0  0  0  0  0  0  0  0  0
  158.1950  214.4530  154.8750 O   0  0  0  0  0  0  0  0  0  0  0  0
  158.3050  213.1790  154.0860 S   0  0  0  0  0  0  0  0  0  0  0  0
  156.9250  212.7260  153.7050 O   0  0  0  0  0  0  0  0  0  0  0  0
  159.2720  213.4760  152.6240 C   0  0  0  0  0  2  0  0  0  0  0  0
  158.5740  213.0340  151.5020 O   0  0  0  0  0  0  0  0  0  0  0  0
  158.4440  214.1670  150.7020 C   0  0  0  0  0  2  0  0  0  0  0  0
  158.7860  213.7370  148.9710 S   0  0  0  0  0  0  0  0  0  0  0  0
  160.5810  213.9700  149.1820 C   0  0  1  0  0  3  0  0  0  0  0  0
  161.2400  212.6520  149.2430 N   0  0  0  0  0  2  0  0  0  0  0  0
  160.7020  212.9030  146.9560 O   0  0  0  0  0  1  0  0  0  0  0  0
  161.3600  213.4830  148.0430 C   0  0  1  0  0  0  0  0  0  0  0  0
  162.7730  213.9880  147.8420 C   0  0  0  0  0  1  0  0  0  0  0  0
  161.8110  209.1110  150.9460 C   0  0  0  0  0  0  0  0  0  0  0  0
  160.7980  208.6780  151.8610 N   0  0  0  0  0  2  0  0  0  0  0  0
  162.6310  210.0130  151.2680 O   0  0  0  0  0  0  0  0  0  0  0  0
  161.8710  208.5250  149.6790 O   0  0  0  0  0  0  0  0  0  0  0  0
  161.9680  206.1760  150.3230 C   0  0  0  0  0  2  0  0  0  0  0  0
  161.1350  204.0740  149.2370 C   0  0  0  0  0  1  0  0  0  0  0  0
  160.0760  206.2630  148.6060 C   0  0  0  0  0  2  0  0  0  0  0  0
  162.5480  207.2940  149.4430 C   0  0  1  0  0  3  0  0  0  0  0  0
  161.0480  206.6450  147.4810 C   0  0  0  0  0  2  0  0  0  0  0  0
  162.4780  206.9250  147.9630 C   0  0  0  0  0  2  0  0  0  0  0  0
  160.7480  205.4590  149.7220 C   0  0  2  0  0  3  0  0  0  0  0  0
  1 10  1  0  0  0  0
  1  4  1  0  0  0  0
  3  9  2  0  0  0  0
  4  9  1  0  0  0  0
  5  8  1  0  0  0  0
  5  6  2  0  0  0  0
  6  7  1  0  0  0  0
  7  4  2  0  0  0  0
  7  2  1  0  0  0  0
  8  1  2  0  0  0  0
 10  3  1  0  0  0  0
 12 11  2  0  0  0  0
 12 10  1  0  0  0  0
 13 12  2  0  0  0  0
 14 12  1  0  0  0  0
 15 14  1  0  0  0  0
 16 15  1  0  0  0  0
 17 16  1  0  0  0  0
 18 17  1  6  0  0  0
 18 19  1  0  0  0  0
 20 21  1  0  0  0  0
 21 22  1  6  0  0  0
 21 18  1  0  0  0  0
 21 19  1  0  0  0  0
 23 25  2  0  0  0  0
 23 24  1  0  0  0  0
 24  5  1  0  0  0  0
 26 23  1  0  0  0  0
 29 33  1  0  0  0  0
 30 26  1  6  0  0  0
 30 27  1  0  0  0  0
 31 32  1  0  0  0  0
 31 29  1  0  0  0  0
 32 30  1  0  0  0  0
 33 28  1  6  0  0  0
 33 27  1  0  0  0  0
M  END
>  <MODEL>
3

>  <REMARK>
 VINA RESULT:      -6.5      3.464      7.685
  Name = 
  9 active torsions:
  status: ('A' for Active; 'I' for Inactive)
    1  A    between atoms: C_2  and  S_25
    2  A    between atoms: S_8  and  C_18
    3  A    between atoms: S_8  and  N_32
    4  A    between atoms: C_11  and  O_16
    5  A    between atoms: O_13  and  C_18
    6  A    between atoms: O_13  and  C_23
    7  A    between atoms: C_14  and  N_22
    8  A    between atoms: O_16  and  C_19
    9  A    between atoms: C_23  and  S_25
                            x       y       z     vdW  Elec       q    Type
                         _______ _______ _______ _____ _____    ______ ____

>  <TORSDO>
F 9

$$$$
=
 OpenBabel11072412303D

 33 36  0  0  1  0  0  0  0  0999 V2000
  160.8710  208.5330  153.3710 C   0  0  0  0  0  0  0  0  0  0  0  0
  159.7830  210.9110  155.9980 N   0  0  0  0  0  1  0  0  0  0  0  0
  160.6410  206.9220  154.7620 C   0  0  0  0  0  3  0  0  0  0  0  0
  160.4590  209.0320  154.5690 C   0  0  0  0  0  0  0  0  0  0  0  0
  160.8830  210.7290  152.4050 C   0  0  0  0  0  0  0  0  0  0  0  0
  160.4520  211.2480  153.6540 C   0  0  0  0  0  3  0  0  0  0  0  0
  160.2350  210.3950  154.7520 C   0  0  0  0  0  0  0  0  0  0  0  0
  161.0940  209.3440  152.2600 C   0  0  0  0  0  3  0  0  0  0  0  0
  160.3090  208.0390  155.4650 N   0  0  0  0  0  0  0  0  0  0  0  0
  160.9870  207.2040  153.4840 N   0  0  0  0  0  0  0  0  0  0  0  0
  161.1880  204.6770  152.7380 O   0  0  0  0  0  0  0  0  0  0  0  0
  161.4790  206.0740  152.2680 S   0  0  0  0  0  0  0  0  0  0  0  0
  162.9560  206.2050  152.0300 O   0  0  0  0  0  0  0  0  0  0  0  0
  160.5910  206.3820  150.7580 C   0  0  0  0  0  2  0  0  0  0  0  0
  161.4750  206.8290  149.7780 O   0  0  0  0  0  0  0  0  0  0  0  0
  161.3490  205.9030  148.7440 C   0  0  0  0  0  2  0  0  0  0  0  0
  162.0080  206.6090  147.2060 S   0  0  0  0  0  0  0  0  0  0  0  0
  160.9170  205.5810  146.1700 C   0  0  1  0  0  3  0  0  0  0  0  0
  161.3140  205.7230  144.7560 N   0  0  0  0  0  2  0  0  0  0  0  0
  163.0050  204.3530  145.6760 O   0  0  0  0  0  1  0  0  0  0  0  0
  161.6270  204.4960  145.4920 C   0  0  1  0  0  0  0  0  0  0  0  0
  160.8440  203.3080  144.9750 C   0  0  0  0  0  1  0  0  0  0  0  0
  160.2150  212.5830  150.7670 C   0  0  0  0  0  0  0  0  0  0  0  0
  161.1030  211.5770  151.2710 N   0  0  0  0  0  2  0  0  0  0  0  0
  159.1060  212.8050  151.3260 O   0  0  0  0  0  0  0  0  0  0  0  0
  160.5930  213.3110  149.6370 O   0  0  0  0  0  0  0  0  0  0  0  0
  160.3770  213.9180  147.2860 C   0  0  0  0  0  2  0  0  0  0  0  0
  162.0090  213.9780  145.3830 C   0  0  0  0  0  1  0  0  0  0  0  0
  162.8870  214.0880  147.7350 C   0  0  0  0  0  2  0  0  0  0  0  0
  160.4720  212.7850  148.3190 C   0  0  1  0  0  3  0  0  0  0  0  0
  162.9960  212.5770  147.9840 C   0  0  0  0  0  2  0  0  0  0  0  0
  161.6430  211.8530  148.0100 C   0  0  0  0  0  2  0  0  0  0  0  0
  161.7330  214.4530  146.7980 C   0  0  2  0  0  3  0  0  0  0  0  0
  1 10  1  0  0  0  0
  1  4  1  0  0  0  0
  3  9  2  0  0  0  0
  4  7  2  0  0  0  0
  4  9  1  0  0  0  0
  5  6  2  0  0  0  0
  6  7  1  0  0  0  0
  7  2  1  0  0  0  0
  8  5  1  0  0  0  0
  8  1  2  0  0  0  0
 10  3  1  0  0  0  0
 12 11  2  0  0  0  0
 12 10  1  0  0  0  0
 13 12  2  0  0  0  0
 14 12  1  0  0  0  0
 15 14  1  0  0  0  0
 16 15  1  0  0  0  0
 17 16  1  0  0  0  0
 18 17  1  1  0  0  0
 19 21  1  0  0  0  0
 19 18  1  0  0  0  0
 21 22  1  6  0  0  0
 21 20  1  0  0  0  0
 21 18  1  0  0  0  0
 23 24  1  0  0  0  0
 23 25  2  0  0  0  0
 24  5  1  0  0  0  0
 26 23  1  0  0  0  0
 27 30  1  0  0  0  0
 29 31  1  0  0  0  0
 30 26  1  1  0  0  0
 31 32  1  0  0  0  0
 32 30  1  0  0  0  0
 33 28  1  6  0  0  0
 33 27  1  0  0  0  0
 33 29  1  0  0  0  0
M  END
>  <MODEL>
4

>  <REMARK>
 VINA RESULT:      -6.4      2.654      7.879
  Name = 
  9 active torsions:
  status: ('A' for Active; 'I' for Inactive)
    1  A    between atoms: C_2  and  S_25
    2  A    between atoms: S_8  and  C_18
    3  A    between atoms: S_8  and  N_32
    4  A    between atoms: C_11  and  O_16
    5  A    between atoms: O_13  and  C_18
    6  A    between atoms: O_13  and  C_23
    7  A    between atoms: C_14  and  N_22
    8  A    between atoms: O_16  and  C_19
    9  A    between atoms: C_23  and  S_25
                            x       y       z     vdW  Elec       q    Type
                         _______ _______ _______ _____ _____    ______ ____

>  <TORSDO>
F 9

$$$$
=
 OpenBabel11072412303D

 33 36  0  0  1  0  0  0  0  0999 V2000
  161.4120  205.8320  149.6470 C   0  0  0  0  0  0  0  0  0  0  0  0
  161.0290  204.8930  146.0820 N   0  0  0  0  0  1  0  0  0  0  0  0
  161.1110  203.7850  150.1980 C   0  0  0  0  0  3  0  0  0  0  0  0
  161.2050  205.0930  148.5230 C   0  0  0  0  0  0  0  0  0  0  0  0
  161.6740  207.8290  148.3430 C   0  0  0  0  0  0  0  0  0  0  0  0
  161.4590  207.0570  147.1720 C   0  0  0  0  0  3  0  0  0  0  0  0
  161.2220  205.6720  147.2560 C   0  0  0  0  0  0  0  0  0  0  0  0
  161.6520  207.2040  149.6060 C   0  0  0  0  0  3  0  0  0  0  0  0
  161.0100  203.7990  148.8410 N   0  0  0  0  0  0  0  0  0  0  0  0
  161.3560  205.0170  150.7060 N   0  0  0  0  0  0  0  0  0  0  0  0
  163.0060  205.6010  152.6860 O   0  0  0  0  0  0  0  0  0  0  0  0
  161.5460  205.4300  152.3770 S   0  0  0  0  0  0  0  0  0  0  0  0
  160.9970  204.3240  153.2330 O   0  0  0  0  0  0  0  0  0  0  0  0
  160.6900  206.9500  152.7270 C   0  0  0  0  0  2  0  0  0  0  0  0
  161.3630  207.6470  153.7290 O   0  0  0  0  0  0  0  0  0  0  0  0
  160.5860  207.4560  154.8700 C   0  0  0  0  0  2  0  0  0  0  0  0
  161.0070  208.7110  156.1130 S   0  0  0  0  0  0  0  0  0  0  0  0
  160.0750  210.0100  155.2370 C   0  0  1  0  0  3  0  0  0  0  0  0
  160.4480  211.3290  155.7830 N   0  0  0  0  0  2  0  0  0  0  0  0
  162.3180  210.7170  154.4740 O   0  0  0  0  0  1  0  0  0  0  0  0
  160.9340  210.9100  154.4660 C   0  0  1  0  0  0  0  0  0  0  0  0
  160.3290  211.7340  153.3500 C   0  0  0  0  0  1  0  0  0  0  0  0
  162.0250  210.1400  149.3910 C   0  0  0  0  0  0  0  0  0  0  0  0
  161.9240  209.2390  148.2820 N   0  0  0  0  0  2  0  0  0  0  0  0
  161.8920  209.7260  150.5750 O   0  0  0  0  0  0  0  0  0  0  0  0
  162.2640  211.4930  149.1410 O   0  0  0  0  0  0  0  0  0  0  0  0
  160.7300  212.0520  147.3310 C   0  0  0  0  0  2  0  0  0  0  0  0
  159.7020  214.2100  146.5720 C   0  0  0  0  0  1  0  0  0  0  0  0
  160.5290  214.0300  148.9380 C   0  0  0  0  0  2  0  0  0  0  0  0
  162.1820  212.0510  147.8330 C   0  0  1  0  0  3  0  0  0  0  0  0
  161.9830  214.4520  148.6800 C   0  0  0  0  0  2  0  0  0  0  0  0
  162.7740  213.4590  147.8170 C   0  0  0  0  0  2  0  0  0  0  0  0
  159.9100  213.2810  147.7550 C   0  0  2  0  0  3  0  0  0  0  0  0
  1 10  1  0  0  0  0
  2  7  1  0  0  0  0
  3 10  1  0  0  0  0
  4  9  1  0  0  0  0
  4  1  2  0  0  0  0
  5  8  2  0  0  0  0
  6  7  2  0  0  0  0
  6  5  1  0  0  0  0
  7  4  1  0  0  0  0
  8  1  1  0  0  0  0
  9  3  2  0  0  0  0
 10 12  1  0  0  0  0
 12 11  2  0  0  0  0
 12 14  1  0  0  0  0
 12 13  2  0  0  0  0
 14 15  1  0  0  0  0
 15 16  1  0  0  0  0
 16 17  1  0  0  0  0
 18 19  1  0  0  0  0
 18 17  1  1  0  0  0
 21 22  1  6  0  0  0
 21 20  1  0  0  0  0
 21 18  1  0  0  0  0
 21 19  1  0  0  0  0
 23 25  2  0  0  0  0
 24  5  1  0  0  0  0
 24 23  1  0  0  0  0
 26 23  1  0  0  0  0
 27 33  1  0  0  0  0
 27 30  1  0  0  0  0
 30 26  1  1  0  0  0
 31 29  1  0  0  0  0
 32 30  1  0  0  0  0
 32 31  1  0  0  0  0
 33 28  1  6  0  0  0
 33 29  1  0  0  0  0
M  END
>  <MODEL>
5

>  <REMARK>
 VINA RESULT:      -6.2      2.582      6.312
  Name = 
  9 active torsions:
  status: ('A' for Active; 'I' for Inactive)
    1  A    between atoms: C_2  and  S_25
    2  A    between atoms: S_8  and  C_18
    3  A    between atoms: S_8  and  N_32
    4  A    between atoms: C_11  and  O_16
    5  A    between atoms: O_13  and  C_18
    6  A    between atoms: O_13  and  C_23
    7  A    between atoms: C_14  and  N_22
    8  A    between atoms: O_16  and  C_19
    9  A    between atoms: C_23  and  S_25
                            x       y       z     vdW  Elec       q    Type
                         _______ _______ _______ _____ _____    ______ ____

>  <TORSDO>
F 9

$$$$
=
 OpenBabel11072412303D

 33 36  0  0  1  0  0  0  0  0999 V2000
  161.1820  204.1400  147.9020 C   0  0  0  0  0  0  0  0  0  0  0  0
  160.8170  201.0820  149.9640 N   0  0  0  0  0  1  0  0  0  0  0  0
  161.1610  202.9280  146.1370 C   0  0  0  0  0  3  0  0  0  0  0  0
  161.0650  202.8320  148.2600 C   0  0  0  0  0  0  0  0  0  0  0  0
  161.1150  204.8240  150.2010 C   0  0  0  0  0  0  0  0  0  0  0  0
  160.9910  203.4600  150.5720 C   0  0  0  0  0  3  0  0  0  0  0  0
  160.9640  202.4480  149.5950 C   0  0  0  0  0  0  0  0  0  0  0  0
  161.2110  205.1720  148.8390 C   0  0  0  0  0  3  0  0  0  0  0  0
  161.0510  202.0450  147.1670 N   0  0  0  0  0  0  0  0  0  0  0  0
  161.2430  204.2100  146.5670 N   0  0  0  0  0  0  0  0  0  0  0  0
  162.7060  206.3040  145.8880 O   0  0  0  0  0  0  0  0  0  0  0  0
  161.3990  205.6270  145.5830 S   0  0  0  0  0  0  0  0  0  0  0  0
  160.2790  206.5780  145.8930 O   0  0  0  0  0  0  0  0  0  0  0  0
  161.3560  205.1780  143.8630 C   0  0  0  0  0  2  0  0  0  0  0  0
  161.6340  206.2970  143.0800 O   0  0  0  0  0  0  0  0  0  0  0  0
  161.5810  205.8280  141.7690 C   0  0  0  0  0  2  0  0  0  0  0  0
  162.7190  206.7890  140.7290 S   0  0  0  0  0  0  0  0  0  0  0  0
  161.3860  207.8790  140.1340 C   0  0  1  0  0  3  0  0  0  0  0  0
  161.9780  209.0450  139.4510 N   0  0  0  0  0  2  0  0  0  0  0  0
  162.2720  207.2830  137.9050 O   0  0  0  0  0  1  0  0  0  0  0  0
  161.3380  207.9810  138.6750 C   0  0  1  0  0  0  0  0  0  0  0  0
  160.0650  208.4540  138.0070 C   0  0  0  0  0  1  0  0  0  0  0  0
  162.0310  206.9930  151.2120 C   0  0  0  0  0  0  0  0  0  0  0  0
  161.1380  205.8730  151.1770 N   0  0  0  0  0  2  0  0  0  0  0  0
  162.9170  207.1410  150.3270 O   0  0  0  0  0  0  0  0  0  0  0  0
  161.9130  207.9180  152.2520 O   0  0  0  0  0  0  0  0  0  0  0  0
  160.8300  208.0030  154.4340 C   0  0  0  0  0  2  0  0  0  0  0  0
  160.1680  209.8990  155.9360 C   0  0  0  0  0  1  0  0  0  0  0  0
  161.9670  210.2830  154.2240 C   0  0  0  0  0  2  0  0  0  0  0  0
  160.6770  208.1640  152.9140 C   0  0  1  0  0  3  0  0  0  0  0  0
  161.0560  210.6860  153.0560 C   0  0  0  0  0  2  0  0  0  0  0  0
  160.1490  209.5520  152.5550 C   0  0  0  0  0  2  0  0  0  0  0  0
  161.3120  209.2670  155.1640 C   0  0  2  0  0  3  0  0  0  0  0  0
  1  4  2  0  0  0  0
  1  8  1  0  0  0  0
  3 10  1  0  0  0  0
  3  9  2  0  0  0  0
  4  7  1  0  0  0  0
  5  6  1  0  0  0  0
  5 24  1  0  0  0  0
  7  2  1  0  0  0  0
  7  6  2  0  0  0  0
  8  5  2  0  0  0  0
  9  4  1  0  0  0  0
 10  1  1  0  0  0  0
 12 11  2  0  0  0  0
 12 13  2  0  0  0  0
 12 10  1  0  0  0  0
 14 12  1  0  0  0  0
 15 14  1  0  0  0  0
 16 15  1  0  0  0  0
 17 16  1  0  0  0  0
 18 17  1  6  0  0  0
 19 18  1  0  0  0  0
 20 21  1  0  0  0  0
 21 22  1  6  0  0  0
 21 19  1  0  0  0  0
 21 18  1  0  0  0  0
 23 26  1  0  0  0  0
 24 23  1  0  0  0  0
 25 23  2  0  0  0  0
 27 33  1  0  0  0  0
 29 33  1  0  0  0  0
 30 26  1  6  0  0  0
 30 27  1  0  0  0  0
 31 29  1  0  0  0  0
 32 30  1  0  0  0  0
 32 31  1  0  0  0  0
 33 28  1  6  0  0  0
M  END
>  <MODEL>
6

>  <REMARK>
 VINA RESULT:      -6.1      3.912      5.034
  Name = 
  9 active torsions:
  status: ('A' for Active; 'I' for Inactive)
    1  A    between atoms: C_2  and  S_25
    2  A    between atoms: S_8  and  C_18
    3  A    between atoms: S_8  and  N_32
    4  A    between atoms: C_11  and  O_16
    5  A    between atoms: O_13  and  C_18
    6  A    between atoms: O_13  and  C_23
    7  A    between atoms: C_14  and  N_22
    8  A    between atoms: O_16  and  C_19
    9  A    between atoms: C_23  and  S_25
                            x       y       z     vdW  Elec       q    Type
                         _______ _______ _______ _____ _____    ______ ____

>  <TORSDO>
F 9

$$$$
=
 OpenBabel11072412303D

 33 36  0  0  1  0  0  0  0  0999 V2000
  161.2610  208.6750  153.0120 C   0  0  0  0  0  0  0  0  0  0  0  0
  162.1560  210.4400  149.8780 N   0  0  0  0  0  1  0  0  0  0  0  0
  161.4990  210.5090  154.0900 C   0  0  0  0  0  3  0  0  0  0  0  0
  161.6330  209.6570  152.1460 C   0  0  0  0  0  0  0  0  0  0  0  0
  161.1700  207.0710  151.2300 C   0  0  0  0  0  0  0  0  0  0  0  0
  161.5560  208.0960  150.3280 C   0  0  0  0  0  3  0  0  0  0  0  0
  161.7900  209.4060  150.7850 C   0  0  0  0  0  0  0  0  0  0  0  0
  161.0180  207.3660  152.5990 C   0  0  0  0  0  3  0  0  0  0  0  0
  161.7920  210.8240  152.7990 N   0  0  0  0  0  0  0  0  0  0  0  0
  161.1740  209.2030  154.2380 N   0  0  0  0  0  0  0  0  0  0  0  0
  161.9930  208.0490  156.4710 O   0  0  0  0  0  0  0  0  0  0  0  0
  160.7450  208.4020  155.7130 S   0  0  0  0  0  0  0  0  0  0  0  0
  159.9980  207.1370  155.3960 O   0  0  0  0  0  0  0  0  0  0  0  0
  159.7330  209.4700  156.7120 C   0  0  0  0  0  2  0  0  0  0  0  0
  158.7890  210.1070  155.9090 O   0  0  0  0  0  0  0  0  0  0  0  0
  158.6430  211.3710  156.4750 C   0  0  0  0  0  2  0  0  0  0  0  0
  157.4470  212.3390  155.5120 S   0  0  0  0  0  0  0  0  0  0  0  0
  158.6600  212.6830  154.1960 C   0  0  1  0  0  3  0  0  0  0  0  0
  158.3050  211.9080  152.9920 N   0  0  0  0  0  2  0  0  0  0  0  0
  156.7060  213.6470  153.0290 O   0  0  0  0  0  1  0  0  0  0  0  0
  158.0720  213.3530  153.0360 C   0  0  1  0  0  0  0  0  0  0  0  0
  158.9730  214.1020  152.0770 C   0  0  0  0  0  1  0  0  0  0  0  0
  161.6160  204.5480  151.1970 C   0  0  0  0  0  0  0  0  0  0  0  0
  160.9190  205.7310  150.7870 N   0  0  0  0  0  2  0  0  0  0  0  0
  162.5600  204.6100  152.0300 O   0  0  0  0  0  0  0  0  0  0  0  0
  161.2390  203.3200  150.6490 O   0  0  0  0  0  0  0  0  0  0  0  0
  160.9560  203.4500  148.2320 C   0  0  0  0  0  2  0  0  0  0  0  0
  160.7280  201.7060  146.4440 C   0  0  0  0  0  1  0  0  0  0  0  0
  161.8130  201.0740  148.6210 C   0  0  0  0  0  2  0  0  0  0  0  0
  160.2870  203.2170  149.5950 C   0  0  1  0  0  3  0  0  0  0  0  0
  160.5370  200.6850  149.3810 C   0  0  0  0  0  2  0  0  0  0  0  0
  159.5860  201.8610  149.6420 C   0  0  0  0  0  2  0  0  0  0  0  0
  161.5790  202.1930  147.6030 C   0  0  2  0  0  3  0  0  0  0  0  0
  1 10  1  0  0  0  0
  2  7  1  0  0  0  0
  3 10  1  0  0  0  0
  4  9  1  0  0  0  0
  4  1  2  0  0  0  0
  5  8  2  0  0  0  0
  6  7  2  0  0  0  0
  6  5  1  0  0  0  0
  7  4  1  0  0  0  0
  8  1  1  0  0  0  0
  9  3  2  0  0  0  0
 10 12  1  0  0  0  0
 12 11  2  0  0  0  0
 12 14  1  0  0  0  0
 13 12  2  0  0  0  0
 15 16  1  0  0  0  0
 15 14  1  0  0  0  0
 17 16  1  0  0  0  0
 18 17  1  1  0  0  0
 19 21  1  0  0  0  0
 19 18  1  0  0  0  0
 20 21  1  0  0  0  0
 21 22  1  6  0  0  0
 21 18  1  0  0  0  0
 23 25  2  0  0  0  0
 24 23  1  0  0  0  0
 24  5  1  0  0  0  0
 26 23  1  0  0  0  0
 27 30  1  0  0  0  0
 29 31  1  0  0  0  0
 30 32  1  0  0  0  0
 30 26  1  1  0  0  0
 31 32  1  0  0  0  0
 33 28  1  6  0  0  0
 33 27  1  0  0  0  0
 33 29  1  0  0  0  0
M  END
>  <MODEL>
7

>  <REMARK>
 VINA RESULT:      -6.1      3.509      7.900
  Name = 
  9 active torsions:
  status: ('A' for Active; 'I' for Inactive)
    1  A    between atoms: C_2  and  S_25
    2  A    between atoms: S_8  and  C_18
    3  A    between atoms: S_8  and  N_32
    4  A    between atoms: C_11  and  O_16
    5  A    between atoms: O_13  and  C_18
    6  A    between atoms: O_13  and  C_23
    7  A    between atoms: C_14  and  N_22
    8  A    between atoms: O_16  and  C_19
    9  A    between atoms: C_23  and  S_25
                            x       y       z     vdW  Elec       q    Type
                         _______ _______ _______ _____ _____    ______ ____

>  <TORSDO>
F 9

$$$$
=
 OpenBabel11072412303D

 33 36  0  0  1  0  0  0  0  0999 V2000
  161.3810  208.5580  152.7090 C   0  0  0  0  0  0  0  0  0  0  0  0
  162.3270  210.5510  149.7310 N   0  0  0  0  0  1  0  0  0  0  0  0
  161.5650  210.3150  153.9190 C   0  0  0  0  0  3  0  0  0  0  0  0
  161.7590  209.6030  151.9240 C   0  0  0  0  0  0  0  0  0  0  0  0
  161.3560  207.0830  150.8170 C   0  0  0  0  0  0  0  0  0  0  0  0
  161.7490  208.1740  149.9990 C   0  0  0  0  0  3  0  0  0  0  0  0
  161.9540  209.4510  150.5530 C   0  0  0  0  0  0  0  0  0  0  0  0
  161.1660  207.2790  152.1990 C   0  0  0  0  0  3  0  0  0  0  0  0
  161.8860  210.7230  152.6610 N   0  0  0  0  0  0  0  0  0  0  0  0
  161.2550  208.9970  153.9670 N   0  0  0  0  0  0  0  0  0  0  0  0
  161.9590  208.0360  156.3270 O   0  0  0  0  0  0  0  0  0  0  0  0
  160.8020  208.0880  155.3700 S   0  0  0  0  0  0  0  0  0  0  0  0
  160.4460  206.6860  154.9650 O   0  0  0  0  0  0  0  0  0  0  0  0
  159.4130  208.8600  156.1690 C   0  0  0  0  0  2  0  0  0  0  0  0
  159.8620  209.6790  157.2030 O   0  0  0  0  0  0  0  0  0  0  0  0
  159.6850  210.9760  156.7240 C   0  0  0  0  0  2  0  0  0  0  0  0
  158.0320  211.1340  155.9880 S   0  0  0  0  0  0  0  0  0  0  0  0
  158.6480  212.1870  154.6330 C   0  0  1  0  0  3  0  0  0  0  0  0
  158.1980  211.6320  153.3420 N   0  0  0  0  0  2  0  0  0  0  0  0
  156.2440  212.6100  154.2420 O   0  0  0  0  0  1  0  0  0  0  0  0
  157.5750  212.8420  153.8840 C   0  0  1  0  0  0  0  0  0  0  0  0
  157.8930  214.0650  153.0510 C   0  0  0  0  0  1  0  0  0  0  0  0
  160.6390  205.4610  148.9680 C   0  0  0  0  0  0  0  0  0  0  0  0
  161.1350  205.7750  150.2750 N   0  0  0  0  0  2  0  0  0  0  0  0
  160.3440  206.3770  148.1520 O   0  0  0  0  0  0  0  0  0  0  0  0
  160.4750  204.1210  148.6120 O   0  0  0  0  0  0  0  0  0  0  0  0
  161.1660  201.7840  148.6620 C   0  0  0  0  0  2  0  0  0  0  0  0
  161.5770  200.0870  146.8620 C   0  0  0  0  0  1  0  0  0  0  0  0
  160.1050  202.0590  146.3530 C   0  0  0  0  0  2  0  0  0  0  0  0
  161.5820  203.2440  148.4240 C   0  0  1  0  0  3  0  0  0  0  0  0
  161.2080  203.0290  145.9070 C   0  0  0  0  0  2  0  0  0  0  0  0
  162.1760  203.4290  147.0290 C   0  0  0  0  0  2  0  0  0  0  0  0
  160.5780  201.0790  147.4300 C   0  0  2  0  0  3  0  0  0  0  0  0
  1 10  1  0  0  0  0
  2  7  1  0  0  0  0
  3 10  1  0  0  0  0
  4  9  1  0  0  0  0
  4  1  2  0  0  0  0
  5  8  2  0  0  0  0
  6  7  2  0  0  0  0
  6  5  1  0  0  0  0
  7  4  1  0  0  0  0
  8  1  1  0  0  0  0
  9  3  2  0  0  0  0
 10 12  1  0  0  0  0
 12 14  1  0  0  0  0
 12 11  2  0  0  0  0
 13 12  2  0  0  0  0
 14 15  1  0  0  0  0
 16 15  1  0  0  0  0
 17 16  1  0  0  0  0
 18 17  1  1  0  0  0
 19 21  1  0  0  0  0
 19 18  1  0  0  0  0
 21 22  1  6  0  0  0
 21 20  1  0  0  0  0
 21 18  1  0  0  0  0
 23 24  1  0  0  0  0
 24  5  1  0  0  0  0
 25 23  2  0  0  0  0
 26 23  1  0  0  0  0
 29 33  1  0  0  0  0
 30 26  1  6  0  0  0
 30 27  1  0  0  0  0
 31 29  1  0  0  0  0
 31 32  1  0  0  0  0
 32 30  1  0  0  0  0
 33 28  1  6  0  0  0
 33 27  1  0  0  0  0
M  END
>  <MODEL>
8

>  <REMARK>
 VINA RESULT:      -6.0      3.382      8.212
  Name = 
  9 active torsions:
  status: ('A' for Active; 'I' for Inactive)
    1  A    between atoms: C_2  and  S_25
    2  A    between atoms: S_8  and  C_18
    3  A    between atoms: S_8  and  N_32
    4  A    between atoms: C_11  and  O_16
    5  A    between atoms: O_13  and  C_18
    6  A    between atoms: O_13  and  C_23
    7  A    between atoms: C_14  and  N_22
    8  A    between atoms: O_16  and  C_19
    9  A    between atoms: C_23  and  S_25
                            x       y       z     vdW  Elec       q    Type
                         _______ _______ _______ _____ _____    ______ ____

>  <TORSDO>
F 9

$$$$
=
 OpenBabel11072412303D

 33 36  0  0  1  0  0  0  0  0999 V2000
  161.6060  208.6380  150.8120 C   0  0  0  0  0  0  0  0  0  0  0  0
  162.2700  211.4430  148.4820 N   0  0  0  0  0  1  0  0  0  0  0  0
  162.3000  207.2640  149.3240 C   0  0  0  0  0  3  0  0  0  0  0  0
  161.9650  209.3310  149.6970 C   0  0  0  0  0  0  0  0  0  0  0  0
  161.0140  210.6690  151.9420 C   0  0  0  0  0  0  0  0  0  0  0  0
  161.3900  211.3910  150.7800 C   0  0  0  0  0  3  0  0  0  0  0  0
  161.8720  210.7200  149.6410 C   0  0  0  0  0  0  0  0  0  0  0  0
  161.1260  209.2650  151.9600 C   0  0  0  0  0  3  0  0  0  0  0  0
  162.4030  208.4890  148.7410 N   0  0  0  0  0  0  0  0  0  0  0  0
  161.8150  207.3360  150.5860 N   0  0  0  0  0  0  0  0  0  0  0  0
  160.8670  206.5190  152.9150 O   0  0  0  0  0  0  0  0  0  0  0  0
  161.5250  206.0110  151.6640 S   0  0  0  0  0  0  0  0  0  0  0  0
  162.8330  205.3700  152.0320 O   0  0  0  0  0  0  0  0  0  0  0  0
  160.4630  204.8160  150.8850 C   0  0  0  0  0  2  0  0  0  0  0  0
  161.2340  203.8670  150.2170 O   0  0  0  0  0  0  0  0  0  0  0  0
  160.4810  203.5310  149.0940 C   0  0  0  0  0  2  0  0  0  0  0  0
  161.5810  202.9470  147.7730 S   0  0  0  0  0  0  0  0  0  0  0  0
  161.6190  204.5820  146.9690 C   0  0  1  0  0  3  0  0  0  0  0  0
  162.6250  204.5710  145.8900 N   0  0  0  0  0  2  0  0  0  0  0  0
  160.8310  203.3220  144.9940 O   0  0  0  0  0  1  0  0  0  0  0  0
  161.1970  204.5420  145.5690 C   0  0  1  0  0  0  0  0  0  0  0  0
  160.7410  205.8190  144.8960 C   0  0  0  0  0  1  0  0  0  0  0  0
  160.9970  211.1530  154.4590 C   0  0  0  0  0  0  0  0  0  0  0  0
  160.5270  211.3310  153.1170 N   0  0  0  0  0  2  0  0  0  0  0  0
  161.9330  210.3470  154.7140 O   0  0  0  0  0  0  0  0  0  0  0  0
  160.3920  211.8790  155.4870 O   0  0  0  0  0  0  0  0  0  0  0  0
  158.7980  212.3890  157.2600 C   0  0  0  0  0  2  0  0  0  0  0  0
  156.3280  212.8200  157.2600 C   0  0  0  0  0  1  0  0  0  0  0  0
  157.6170  213.1660  155.1300 C   0  0  0  0  0  2  0  0  0  0  0  0
  159.3730  211.3240  156.3120 C   0  0  1  0  0  3  0  0  0  0  0  0
  157.5230  211.7290  154.5980 C   0  0  0  0  0  2  0  0  0  0  0  0
  158.2750  210.6990  155.4530 C   0  0  0  0  0  2  0  0  0  0  0  0
  157.6610  213.2300  156.6590 C   0  0  2  0  0  3  0  0  0  0  0  0
  1  8  1  0  0  0  0
  2  7  1  0  0  0  0
  3 10  1  0  0  0  0
  4  1  2  0  0  0  0
  5  8  2  0  0  0  0
  5 24  1  0  0  0  0
  6  5  1  0  0  0  0
  7  4  1  0  0  0  0
  7  6  2  0  0  0  0
  9  3  2  0  0  0  0
  9  4  1  0  0  0  0
 10  1  1  0  0  0  0
 10 12  1  0  0  0  0
 12 13  2  0  0  0  0
 12 11  2  0  0  0  0
 14 12  1  0  0  0  0
 15 14  1  0  0  0  0
 16 15  1  0  0  0  0
 17 16  1  0  0  0  0
 18 17  1  1  0  0  0
 19 18  1  0  0  0  0
 20 21  1  0  0  0  0
 21 22  1  6  0  0  0
 21 19  1  0  0  0  0
 21 18  1  0  0  0  0
 23 25  2  0  0  0  0
 23 26  1  0  0  0  0
 24 23  1  0  0  0  0
 29 33  1  0  0  0  0
 30 26  1  6  0  0  0
 30 27  1  0  0  0  0
 31 29  1  0  0  0  0
 31 32  1  0  0  0  0
 32 30  1  0  0  0  0
 33 27  1  0  0  0  0
 33 28  1  1  0  0  0
M  END
>  <MODEL>
9

>  <REMARK>
 VINA RESULT:      -5.7      2.884      6.389
  Name = 
  9 active torsions:
  status: ('A' for Active; 'I' for Inactive)
    1  A    between atoms: C_2  and  S_25
    2  A    between atoms: S_8  and  C_18
    3  A    between atoms: S_8  and  N_32
    4  A    between atoms: C_11  and  O_16
    5  A    between atoms: O_13  and  C_18
    6  A    between atoms: O_13  and  C_23
    7  A    between atoms: C_14  and  N_22
    8  A    between atoms: O_16  and  C_19
    9  A    between atoms: C_23  and  S_25
                            x       y       z     vdW  Elec       q    Type
                         _______ _______ _______ _____ _____    ______ ____

>  <TORSDO>
F 9

$$$$
