=
 OpenBabel11072409593D

 54 60  0  0  1  0  0  0  0  0999 V2000
  162.2380  206.5490  149.7460 C   0  0  1  0  0  3  0  0  0  0  0  0
  160.8500  211.4050  150.4370 C   0  0  1  0  0  3  0  0  0  0  0  0
  159.0370  211.6880  155.6140 O   0  0  0  0  0  1  0  0  0  0  0  0
  158.7270  212.2750  154.3860 C   0  0  2  0  0  3  0  0  0  0  0  0
  161.0120  212.9590  148.6300 C   0  0  2  0  0  3  0  0  0  0  0  0
  160.6740  213.7580  149.8880 C   0  0  2  0  0  3  0  0  0  0  0  0
  161.5760  208.1540  147.9700 C   0  0  0  0  0  2  0  0  0  0  0  0
  158.9580  209.9080  152.8690 O   0  0  0  0  0  0  0  0  0  0  0  0
  159.9640  210.5910  152.9970 C   0  0  0  0  0  0  0  0  0  0  0  0
  159.8660  212.0370  153.3820 C   0  0  1  0  0  3  0  0  0  0  0  0
  161.2260  210.4400  148.2580 C   0  0  0  0  0  2  0  0  0  0  0  0
  162.1940  207.7220  150.7540 C   0  0  1  0  0  3  0  0  0  0  0  0
  158.4050  214.4520  153.2290 C   0  0  0  0  0  2  0  0  0  0  0  0
  161.4380  208.9760  150.2120 C   0  0  1  0  0  3  0  0  0  0  0  0
  161.5290  211.6370  149.1280 C   0  0  2  0  0  3  0  0  0  0  0  0
  161.6110  210.2490  151.1090 C   0  0  2  0  0  3  0  0  0  0  0  0
  162.5040  206.9990  148.3040 C   0  0  2  0  0  3  0  0  0  0  0  0
  160.8130  212.7830  151.0930 C   0  0  1  0  0  3  0  0  0  0  0  0
  158.4660  213.7660  154.5890 C   0  0  0  0  0  2  0  0  0  0  0  0
  159.6870  212.9390  152.1460 C   0  0  2  0  0  3  0  0  0  0  0  0
  161.3020  210.0330  152.6020 C   0  0  1  0  0  3  0  0  0  0  0  0
  159.6340  214.2820  152.5690 O   0  0  0  0  0  0  0  0  0  0  0  0
  161.9030  209.2750  148.8320 N   0  0  1  0  0  0  0  0  0  0  0  0
  159.6960  207.1740  153.6620 C   0  0  0  0  0  2  0  0  0  0  0  0
  161.8720  206.1560  154.2310 C   0  0  0  0  0  3  0  0  0  0  0  0
  160.1100  207.0610  152.1910 C   0  0  0  0  0  2  0  0  0  0  0  0
  162.4180  206.7070  152.9760 C   0  0  0  0  0  3  0  0  0  0  0  0
  160.5840  206.3350  154.5410 C   0  0  0  0  0  3  0  0  0  0  0  0
  161.6060  207.2020  152.0350 C   0  0  0  0  0  0  0  0  0  0  0  0
  161.4130  204.9280  147.7690 F   0  0  0  0  0  0  0  0  0  0  0  0
  162.3160  205.8630  147.2900 C   0  0  0  0  0  0  0  0  0  0  0  0
  161.8390  206.3770  146.0970 F   0  0  0  0  0  0  0  0  0  0  0  0
  163.5270  205.2410  147.0400 F   0  0  0  0  0  0  0  0  0  0  0  0
  162.0520  213.6610  147.8070 C   0  0  0  0  0  0  0  0  0  0  0  0
  163.2050  213.7340  148.2040 O   0  0  0  0  0  0  0  0  0  0  0  0
  162.3040  213.7200  145.3110 C   0  0  1  0  0  3  0  0  0  0  0  0
  163.1080  212.6290  145.5950 F   0  0  0  0  0  0  0  0  0  0  0  0
  160.9810  213.4230  145.6830 O   0  0  0  0  0  0  0  0  0  0  0  0
  161.6680  214.3290  146.5170 C   0  0  1  0  0  3  0  0  0  0  0  0
  162.5040  204.5770  150.7330 C   0  0  0  0  0  1  0  0  0  0  0  0
  163.2120  205.6270  150.1430 O   0  0  0  0  0  0  0  0  0  0  0  0
  162.4340  210.5620  153.4960 C   0  0  2  0  0  3  0  0  0  0  0  0
  163.7810  210.5040  152.7880 C   0  0  0  0  0  1  0  0  0  0  0  0
  162.2090  211.6280  156.1310 O   0  0  0  0  0  0  0  0  0  0  0  0
  162.4110  210.3880  156.0170 C   0  0  0  0  0  0  0  0  0  0  0  0
  162.5060  209.7860  154.7260 N   0  0  0  0  0  2  0  0  0  0  0  0
  161.5480  208.3810  157.1450 C   0  0  0  0  0  1  0  0  0  0  0  0
  162.5200  209.5410  157.2330 C   0  0  0  0  0  2  0  0  0  0  0  0
  159.2770  214.3540  149.7070 C   0  0  0  0  0  2  0  0  0  0  0  0
  159.1020  212.7500  147.9650 O   0  0  0  0  0  0  0  0  0  0  0  0
  158.4950  213.5670  148.7070 C   0  0  0  0  0  0  0  0  0  0  0  0
  156.1860  213.8070  149.8060 C   0  0  0  0  0  1  0  0  0  0  0  0
  156.4780  213.8090  147.4260 N   0  0  0  0  0  2  0  0  0  0  0  0
  157.0390  213.7300  148.5860 C   0  0  0  0  0  0  0  0  0  0  0  0
  1 41  1  1  0  0  0
  1 12  1  0  0  0  0
  2 18  1  0  0  0  0
  2 16  1  0  0  0  0
  4 19  1  0  0  0  0
  4  3  1  0  0  0  0
  5 15  1  0  0  0  0
  5  6  1  0  0  0  0
  6 18  1  0  0  0  0
  7 17  1  0  0  0  0
  7 23  1  0  0  0  0
  8  9  2  0  0  0  0
  9 10  1  0  0  0  0
 10  4  1  0  0  0  0
 11 23  1  0  0  0  0
 11 15  1  0  0  0  0
 12 29  1  0  0  0  0
 13 19  1  0  0  0  0
 14 12  1  0  0  0  0
 14 16  1  0  0  0  0
 15  2  1  0  0  0  0
 16 21  1  0  0  0  0
 17  1  1  0  0  0  0
 18 20  1  0  0  0  0
 20 22  1  0  0  0  0
 20 10  1  0  0  0  0
 21  9  1  0  0  0  0
 21 42  1  0  0  0  0
 22 13  1  0  0  0  0
 23 14  1  0  0  0  0
 24 28  1  0  0  0  0
 25 28  2  0  0  0  0
 26 24  1  0  0  0  0
 27 25  1  0  0  0  0
 29 26  1  0  0  0  0
 29 27  2  0  0  0  0
 31 30  1  0  0  0  0
 31 17  1  0  0  0  0
 32 31  1  0  0  0  0
 33 31  1  0  0  0  0
 34 35  2  0  0  0  0
 34  5  1  0  0  0  0
 36 37  1  0  0  0  0
 36 38  1  0  0  0  0
 36 39  1  0  0  0  0
 38 39  1  0  0  0  0
 39 34  1  0  0  0  0
 41 40  1  0  0  0  0
 42 46  1  0  0  0  0
 43 42  1  0  0  0  0
 45 44  2  0  0  0  0
 45 48  1  0  0  0  0
 46 45  1  0  0  0  0
 47 48  1  0  0  0  0
 49  6  1  0  0  0  0
 50 51  2  0  0  0  0
 51 49  1  0  0  0  0
 53 54  2  0  0  0  0
 54 51  1  0  0  0  0
 54 52  1  0  0  0  0
M  END
>  <MODEL>
1

>  <REMARK>
 VINA RESULT:       2.1      0.000      0.000
  Name = 
  11 active torsions:
  status: ('A' for Active; 'I' for Inactive)
    1  A    between atoms: C_2  and  O_32
    2  A    between atoms: C_5  and  C_12
    3  A    between atoms: C_5  and  C_53
    4  A    between atoms: C_11  and  N_39
    5  A    between atoms: C_11  and  C_49
    6  A    between atoms: C_13  and  C_18
    7  A    between atoms: C_18  and  C_37
    8  A    between atoms: C_21  and  C_44
    9  A    between atoms: C_29  and  C_38
   10  A    between atoms: C_34  and  C_40
   11  A    between atoms: C_37  and  C_45
                            x       y       z     vdW  Elec       q    Type
                         _______ _______ _______ _____ _____    ______ ____

>  <TORSDO>
F 11

$$$$
