=
 OpenBabel11072414543D

 47 53  0  0  1  0  0  0  0  0999 V2000
  160.1300  206.5320  154.7480 C   0  0  0  0  0  2  0  0  0  0  0  0
  160.7710  200.3210  144.6810 C   0  0  0  0  0  2  0  0  0  0  0  0
  160.6000  202.3410  148.4320 C   0  0  1  0  0  3  0  0  0  0  0  0
  160.2240  208.6470  153.4370 C   0  0  0  0  0  0  0  0  0  0  0  0
  160.8470  201.9110  146.9920 C   0  0  1  0  0  3  0  0  0  0  0  0
  161.0980  201.1480  149.1730 C   0  0  0  0  0  0  0  0  0  0  0  0
  160.1830  206.8660  157.0800 O   0  0  0  0  0  0  0  0  0  0  0  0
  159.5290  201.2020  144.8770 C   0  0  0  0  0  2  0  0  0  0  0  0
  161.4420  206.7160  152.4820 C   0  0  1  0  0  0  0  0  0  0  0  0
  159.1750  210.7540  154.3800 C   0  0  0  0  0  1  0  0  0  0  0  0
  161.3310  205.2010  152.3710 C   0  0  0  0  0  2  0  0  0  0  0  0
  159.2900  209.2420  154.4730 C   0  0  2  0  0  3  0  0  0  0  0  0
  161.7460  202.4470  152.3510 O   0  0  0  0  0  0  0  0  0  0  0  0
  161.5110  201.1930  150.4030 N   0  0  0  0  0  0  0  0  0  0  0  0
  161.3170  204.9330  150.8920 C   0  0  0  0  0  0  0  0  0  0  0  0
  161.4020  203.5760  148.8280 C   0  0  0  0  0  2  0  0  0  0  0  0
  159.7010  208.8460  155.8930 C   0  0  0  0  0  2  0  0  0  0  0  0
  162.9100  207.0950  152.6470 C   0  0  0  0  0  1  0  0  0  0  0  0
  161.5500  202.4450  151.1070 C   0  0  0  0  0  0  0  0  0  0  0  0
  160.9120  208.7270  150.9220 C   0  0  1  0  0  3  0  0  0  0  0  0
  161.2780  200.0210  148.3380 N   0  0  0  0  0  2  0  0  0  0  0  0
  161.1180  200.4400  147.1270 C   0  0  1  0  0  3  0  0  0  0  0  0
  161.0970  199.5240  145.9470 C   0  0  0  0  0  2  0  0  0  0  0  0
  161.1720  206.1840  150.0890 C   0  0  0  0  0  2  0  0  0  0  0  0
  160.0230  207.3790  155.9860 C   0  0  0  0  0  0  0  0  0  0  0  0
  160.8810  207.2050  151.1620 C   0  0  1  0  0  3  0  0  0  0  0  0
  160.6140  207.3500  153.5740 C   0  0  0  0  0  0  0  0  0  0  0  0
  161.4040  203.7130  150.3310 C   0  0  0  0  0  0  0  0  0  0  0  0
  160.7330  209.4850  152.2670 C   0  0  0  0  0  2  0  0  0  0  0  0
  159.6150  202.1390  146.1040 C   0  0  2  0  0  3  0  0  0  0  0  0
  162.5830  210.6050  150.6820 C   0  0  0  0  0  2  0  0  0  0  0  0
  162.8930  208.5090  148.0400 O   0  0  0  0  0  1  0  0  0  0  0  0
  162.9850  211.3880  149.4520 C   0  0  0  0  0  2  0  0  0  0  0  0
  162.2170  210.7710  148.3000 C   0  0  1  0  0  3  0  0  0  0  0  0
  161.9730  209.3280  148.6950 C   0  0  2  0  0  3  0  0  0  0  0  0
  162.1830  209.2150  150.2020 C   0  0  2  0  0  3  0  0  0  0  0  0
  160.8790  211.4720  148.1120 C   0  0  0  0  0  2  0  0  0  0  0  0
  161.8560  212.9180  146.4890 O   0  0  0  0  0  1  0  0  0  0  0  0
  159.7460  212.1650  146.0020 O   0  0  0  0  0  0  0  0  0  0  0  0
  160.8570  212.2330  146.8320 C   0  0  0  0  0  0  0  0  0  0  0  0
  159.4700  203.6040  145.7020 C   0  0  0  0  0  2  0  0  0  0  0  0
  160.4500  203.9970  144.6030 C   0  0  0  0  0  2  0  0  0  0  0  0
  160.6630  205.5020  144.5910 C   0  0  0  0  0  2  0  0  0  0  0  0
  160.5970  206.3710  146.8060 O   0  0  0  0  0  0  0  0  0  0  0  0
  161.3110  205.9540  145.8540 C   0  0  0  0  0  0  0  0  0  0  0  0
  162.6990  205.8860  145.9770 O   0  0  0  0  0  0  0  0  0  0  0  0
  163.3770  204.6490  146.1370 C   0  0  0  0  0  1  0  0  0  0  0  0
  1 25  1  0  0  0  0
  2  8  1  0  0  0  0
  2 23  1  0  0  0  0
  3 16  1  1  0  0  0
  3  6  1  0  0  0  0
  4 27  2  0  0  0  0
  4 12  1  0  0  0  0
  5 22  1  0  0  0  0
  5  3  1  0  0  0  0
  6 14  2  0  0  0  0
  8 30  1  0  0  0  0
  9 18  1  0  0  0  0
  9 27  1  0  0  0  0
 10 12  1  0  0  0  0
 11  9  1  0  0  0  0
 12 17  1  0  0  0  0
 14 19  1  0  0  0  0
 15 11  1  0  0  0  0
 16 28  1  0  0  0  0
 17 25  1  0  0  0  0
 19 13  2  0  0  0  0
 20 26  1  0  0  0  0
 20 29  1  0  0  0  0
 21  6  1  0  0  0  0
 22 21  1  0  0  0  0
 23 22  1  0  0  0  0
 24 15  1  0  0  0  0
 24 26  1  0  0  0  0
 25  7  2  0  0  0  0
 26  9  1  0  0  0  0
 27  1  1  0  0  0  0
 28 15  2  0  0  0  0
 28 19  1  0  0  0  0
 29  4  1  0  0  0  0
 30  5  1  0  0  0  0
 32 35  1  0  0  0  0
 33 31  1  0  0  0  0
 34 35  1  0  0  0  0
 34 33  1  0  0  0  0
 35 36  1  0  0  0  0
 36 31  1  0  0  0  0
 36 20  1  0  0  0  0
 37 34  1  0  0  0  0
 38 40  1  0  0  0  0
 39 40  2  0  0  0  0
 40 37  1  0  0  0  0
 41 30  1  0  0  0  0
 42 41  1  0  0  0  0
 43 42  1  0  0  0  0
 43 45  1  0  0  0  0
 45 46  1  0  0  0  0
 45 44  2  0  0  0  0
 46 47  1  0  0  0  0
M  END
>  <MODEL>
1

>  <REMARK>
 VINA RESULT:      -3.8      0.000      0.000
  Name = 
  8 active torsions:
  status: ('A' for Active; 'I' for Inactive)
    1  A    between atoms: O_4  and  C_24
    2  A    between atoms: C_11  and  C_15
    3  A    between atoms: C_11  and  C_36
    4  A    between atoms: C_15  and  C_24
    5  A    between atoms: C_21  and  C_38
    6  A    between atoms: C_21  and  C_41
    7  A    between atoms: C_31  and  C_43
    8  A    between atoms: C_36  and  C_47
                            x       y       z     vdW  Elec       q    Type
                         _______ _______ _______ _____ _____    ______ ____

>  <TORSDO>
F 8

$$$$
=
 OpenBabel11072414543D

 47 53  0  0  1  0  0  0  0  0999 V2000
  158.1950  210.8300  155.2590 C   0  0  0  0  0  2  0  0  0  0  0  0
  162.1420  201.9110  148.5360 C   0  0  0  0  0  2  0  0  0  0  0  0
  160.7640  204.9740  151.1630 C   0  0  1  0  0  3  0  0  0  0  0  0
  158.4470  212.3830  153.3280 C   0  0  0  0  0  0  0  0  0  0  0  0
  161.4340  204.1520  150.0700 C   0  0  1  0  0  3  0  0  0  0  0  0
  161.1480  204.1990  152.3750 C   0  0  0  0  0  0  0  0  0  0  0  0
  157.5750  211.9090  157.2610 O   0  0  0  0  0  0  0  0  0  0  0  0
  160.8180  202.5650  148.1160 C   0  0  0  0  0  2  0  0  0  0  0  0
  160.0540  210.5050  153.4350 C   0  0  1  0  0  0  0  0  0  0  0  0
  156.9890  214.4530  153.1850 C   0  0  0  0  0  1  0  0  0  0  0  0
  160.1190  209.0420  153.8570 C   0  0  0  0  0  2  0  0  0  0  0  0
  157.2140  213.1020  153.8420 C   0  0  2  0  0  3  0  0  0  0  0  0
  160.7770  206.5560  154.9270 O   0  0  0  0  0  0  0  0  0  0  0  0
  161.2010  204.7170  153.5650 N   0  0  0  0  0  0  0  0  0  0  0  0
  160.5360  208.3100  152.6130 C   0  0  0  0  0  0  0  0  0  0  0  0
  161.3080  206.3950  151.2540 C   0  0  0  0  0  2  0  0  0  0  0  0
  157.2560  213.2720  155.3630 C   0  0  0  0  0  2  0  0  0  0  0  0
  161.3790  211.1780  153.7770 C   0  0  0  0  0  1  0  0  0  0  0  0
  160.9300  206.1140  153.7580 C   0  0  0  0  0  0  0  0  0  0  0  0
  159.7870  211.7660  151.1780 C   0  0  1  0  0  3  0  0  0  0  0  0
  161.6530  202.9150  152.0670 N   0  0  0  0  0  2  0  0  0  0  0  0
  161.7930  202.8800  150.7850 C   0  0  1  0  0  3  0  0  0  0  0  0
  162.1810  201.6430  150.0430 C   0  0  0  0  0  2  0  0  0  0  0  0
  160.5000  209.1830  151.4010 C   0  0  0  0  0  2  0  0  0  0  0  0
  157.6740  211.9990  156.0490 C   0  0  0  0  0  0  0  0  0  0  0  0
  159.8330  210.4260  151.9380 C   0  0  1  0  0  3  0  0  0  0  0  0
  158.9030  211.2960  154.0080 C   0  0  0  0  0  0  0  0  0  0  0  0
  160.8850  207.0120  152.5660 C   0  0  0  0  0  0  0  0  0  0  0  0
  159.1770  212.8730  152.0810 C   0  0  0  0  0  2  0  0  0  0  0  0
  160.4760  203.8490  148.9080 C   0  0  2  0  0  3  0  0  0  0  0  0
  161.1360  213.6940  150.2610 C   0  0  0  0  0  2  0  0  0  0  0  0
  162.7480  210.7970  149.5730 O   0  0  0  0  0  1  0  0  0  0  0  0
  161.8720  213.8180  148.9450 C   0  0  0  0  0  2  0  0  0  0  0  0
  161.7120  212.4780  148.2550 C   0  0  1  0  0  3  0  0  0  0  0  0
  161.5390  211.4620  149.3650 C   0  0  2  0  0  3  0  0  0  0  0  0
  161.1560  212.2160  150.6340 C   0  0  2  0  0  3  0  0  0  0  0  0
  160.4690  212.4750  147.3750 C   0  0  0  0  0  2  0  0  0  0  0  0
  160.0190  212.2960  145.0410 O   0  0  0  0  0  0  0  0  0  0  0  0
  162.0790  213.1380  145.5900 O   0  0  0  0  0  1  0  0  0  0  0  0
  160.8400  212.6200  145.9390 C   0  0  0  0  0  0  0  0  0  0  0  0
  160.3120  205.0510  147.9810 C   0  0  0  0  0  2  0  0  0  0  0  0
  161.5450  205.9470  147.9790 C   0  0  0  0  0  2  0  0  0  0  0  0
  161.9370  206.3090  146.5560 C   0  0  0  0  0  2  0  0  0  0  0  0
  163.5650  204.6100  146.1970 O   0  0  0  0  0  0  0  0  0  0  0  0
  162.4700  205.1200  145.8340 C   0  0  0  0  0  0  0  0  0  0  0  0
  161.7370  204.5680  144.7830 O   0  0  0  0  0  0  0  0  0  0  0  0
  161.2140  205.3680  143.7340 C   0  0  0  0  0  1  0  0  0  0  0  0
  1 25  1  0  0  0  0
  2 23  1  0  0  0  0
  3 16  1  1  0  0  0
  3  6  1  0  0  0  0
  4 12  1  0  0  0  0
  4 27  2  0  0  0  0
  5 22  1  0  0  0  0
  5  3  1  0  0  0  0
  6 14  2  0  0  0  0
  8  2  1  0  0  0  0
  8 30  1  0  0  0  0
  9 18  1  0  0  0  0
  9 11  1  0  0  0  0
  9 27  1  0  0  0  0
 10 12  1  0  0  0  0
 12 17  1  0  0  0  0
 14 19  1  0  0  0  0
 15 11  1  0  0  0  0
 16 28  1  0  0  0  0
 17 25  1  0  0  0  0
 19 13  2  0  0  0  0
 20 26  1  0  0  0  0
 20 29  1  0  0  0  0
 21  6  1  0  0  0  0
 22 21  1  0  0  0  0
 23 22  1  0  0  0  0
 24 26  1  0  0  0  0
 24 15  1  0  0  0  0
 25  7  2  0  0  0  0
 26  9  1  0  0  0  0
 27  1  1  0  0  0  0
 28 15  2  0  0  0  0
 28 19  1  0  0  0  0
 29  4  1  0  0  0  0
 30  5  1  0  0  0  0
 31 36  1  0  0  0  0
 33 31  1  0  0  0  0
 34 33  1  0  0  0  0
 34 35  1  0  0  0  0
 35 32  1  0  0  0  0
 35 36  1  0  0  0  0
 36 20  1  0  0  0  0
 37 34  1  0  0  0  0
 38 40  2  0  0  0  0
 39 40  1  0  0  0  0
 40 37  1  0  0  0  0
 41 30  1  0  0  0  0
 42 41  1  0  0  0  0
 43 42  1  0  0  0  0
 45 44  2  0  0  0  0
 45 43  1  0  0  0  0
 46 45  1  0  0  0  0
 47 46  1  0  0  0  0
M  END
>  <MODEL>
2

>  <REMARK>
 VINA RESULT:      -3.4      2.122      3.798
  Name = 
  8 active torsions:
  status: ('A' for Active; 'I' for Inactive)
    1  A    between atoms: O_4  and  C_24
    2  A    between atoms: C_11  and  C_15
    3  A    between atoms: C_11  and  C_36
    4  A    between atoms: C_15  and  C_24
    5  A    between atoms: C_21  and  C_38
    6  A    between atoms: C_21  and  C_41
    7  A    between atoms: C_31  and  C_43
    8  A    between atoms: C_36  and  C_47
                            x       y       z     vdW  Elec       q    Type
                         _______ _______ _______ _____ _____    ______ ____

>  <TORSDO>
F 8

$$$$
=
 OpenBabel11072414543D

 47 53  0  0  1  0  0  0  0  0999 V2000
  159.0830  210.9190  154.4940 C   0  0  0  0  0  2  0  0  0  0  0  0
  161.7490  201.0160  148.5650 C   0  0  0  0  0  2  0  0  0  0  0  0
  160.8210  204.4480  150.9180 C   0  0  1  0  0  3  0  0  0  0  0  0
  159.4510  212.2470  152.4200 C   0  0  0  0  0  0  0  0  0  0  0  0
  161.3560  203.4560  149.8940 C   0  0  1  0  0  3  0  0  0  0  0  0
  161.1520  203.7480  152.1900 C   0  0  0  0  0  0  0  0  0  0  0  0
  158.6580  212.2420  156.3970 O   0  0  0  0  0  0  0  0  0  0  0  0
  160.4970  201.7810  148.1130 C   0  0  0  0  0  2  0  0  0  0  0  0
  160.8320  210.2090  152.6700 C   0  0  1  0  0  0  0  0  0  0  0  0
  158.2390  214.4530  152.1120 C   0  0  0  0  0  1  0  0  0  0  0  0
  160.7400  208.7940  153.2280 C   0  0  0  0  0  2  0  0  0  0  0  0
  158.3270  213.1500  152.8900 C   0  0  2  0  0  3  0  0  0  0  0  0
  161.1400  206.3560  154.5150 O   0  0  0  0  0  0  0  0  0  0  0  0
  161.3040  204.3620  153.3240 N   0  0  0  0  0  0  0  0  0  0  0  0
  161.0290  207.9070  152.0500 C   0  0  0  0  0  0  0  0  0  0  0  0
  161.5290  205.7970  150.8620 C   0  0  0  0  0  2  0  0  0  0  0  0
  158.4370  213.4530  154.3860 C   0  0  0  0  0  2  0  0  0  0  0  0
  162.2360  210.7490  152.9180 C   0  0  0  0  0  1  0  0  0  0  0  0
  161.2030  205.7930  153.3900 C   0  0  0  0  0  0  0  0  0  0  0  0
  160.6400  211.2810  150.3090 C   0  0  1  0  0  3  0  0  0  0  0  0
  161.4940  202.3900  151.9950 N   0  0  0  0  0  2  0  0  0  0  0  0
  161.5880  202.2210  150.7180 C   0  0  1  0  0  3  0  0  0  0  0  0
  161.8050  200.8840  150.0890 C   0  0  0  0  0  2  0  0  0  0  0  0
  161.0550  208.6630  150.7620 C   0  0  0  0  0  2  0  0  0  0  0  0
  158.7280  212.2080  155.1810 C   0  0  0  0  0  0  0  0  0  0  0  0
  160.5550  210.0200  151.1920 C   0  0  1  0  0  3  0  0  0  0  0  0
  159.8000  211.1800  153.1900 C   0  0  0  0  0  0  0  0  0  0  0  0
  161.2230  206.5770  152.1180 C   0  0  0  0  0  0  0  0  0  0  0  0
  160.1920  212.5300  151.1170 C   0  0  0  0  0  2  0  0  0  0  0  0
  160.3320  203.1640  148.7870 C   0  0  2  0  0  3  0  0  0  0  0  0
  162.3290  213.0030  149.5630 C   0  0  0  0  0  2  0  0  0  0  0  0
  163.1730  209.9950  148.2570 O   0  0  0  0  0  1  0  0  0  0  0  0
  162.9770  213.1960  148.2110 C   0  0  0  0  0  2  0  0  0  0  0  0
  162.4630  212.0670  147.3410 C   0  0  1  0  0  3  0  0  0  0  0  0
  162.1400  210.9320  148.2900 C   0  0  2  0  0  3  0  0  0  0  0  0
  162.0330  211.5140  149.6960 C   0  0  2  0  0  3  0  0  0  0  0  0
  161.1940  212.4880  146.6130 C   0  0  0  0  0  2  0  0  0  0  0  0
  160.6010  213.5440  144.5590 O   0  0  0  0  0  0  0  0  0  0  0  0
  162.8480  213.4180  144.9950 O   0  0  0  0  0  1  0  0  0  0  0  0
  161.5230  213.1700  145.3290 C   0  0  0  0  0  0  0  0  0  0  0  0
  160.2780  204.2860  147.7540 C   0  0  0  0  0  2  0  0  0  0  0  0
  161.6680  204.7030  147.2870 C   0  0  0  0  0  2  0  0  0  0  0  0
  161.9410  204.1740  145.8890 C   0  0  0  0  0  2  0  0  0  0  0  0
  160.7570  205.7740  144.5840 O   0  0  0  0  0  0  0  0  0  0  0  0
  160.8540  204.5710  144.9510 C   0  0  0  0  0  0  0  0  0  0  0  0
  159.9740  203.6020  144.4680 O   0  0  0  0  0  0  0  0  0  0  0  0
  160.0880  202.2370  144.8360 C   0  0  0  0  0  1  0  0  0  0  0  0
  1 25  1  0  0  0  0
  2 23  1  0  0  0  0
  3 16  1  1  0  0  0
  3  6  1  0  0  0  0
  4 12  1  0  0  0  0
  4 27  2  0  0  0  0
  5 22  1  0  0  0  0
  5  3  1  0  0  0  0
  6 14  2  0  0  0  0
  8  2  1  0  0  0  0
  8 30  1  0  0  0  0
  9 18  1  0  0  0  0
  9 27  1  0  0  0  0
  9 11  1  0  0  0  0
 10 12  1  0  0  0  0
 12 17  1  0  0  0  0
 14 19  1  0  0  0  0
 15 28  2  0  0  0  0
 15 11  1  0  0  0  0
 16 28  1  0  0  0  0
 17 25  1  0  0  0  0
 19 13  2  0  0  0  0
 20 29  1  0  0  0  0
 20 26  1  0  0  0  0
 21  6  1  0  0  0  0
 22 21  1  0  0  0  0
 23 22  1  0  0  0  0
 24 26  1  0  0  0  0
 24 15  1  0  0  0  0
 25  7  2  0  0  0  0
 26  9  1  0  0  0  0
 27  1  1  0  0  0  0
 28 19  1  0  0  0  0
 29  4  1  0  0  0  0
 30  5  1  0  0  0  0
 31 36  1  0  0  0  0
 32 35  1  0  0  0  0
 33 31  1  0  0  0  0
 34 33  1  0  0  0  0
 34 35  1  0  0  0  0
 35 36  1  0  0  0  0
 36 20  1  0  0  0  0
 37 34  1  0  0  0  0
 38 40  2  0  0  0  0
 39 40  1  0  0  0  0
 40 37  1  0  0  0  0
 41 30  1  0  0  0  0
 42 41  1  0  0  0  0
 43 42  1  0  0  0  0
 44 45  2  0  0  0  0
 45 43  1  0  0  0  0
 46 47  1  0  0  0  0
 46 45  1  0  0  0  0
M  END
>  <MODEL>
3

>  <REMARK>
 VINA RESULT:      -3.2      2.043      3.486
  Name = 
  8 active torsions:
  status: ('A' for Active; 'I' for Inactive)
    1  A    between atoms: O_4  and  C_24
    2  A    between atoms: C_11  and  C_15
    3  A    between atoms: C_11  and  C_36
    4  A    between atoms: C_15  and  C_24
    5  A    between atoms: C_21  and  C_38
    6  A    between atoms: C_21  and  C_41
    7  A    between atoms: C_31  and  C_43
    8  A    between atoms: C_36  and  C_47
                            x       y       z     vdW  Elec       q    Type
                         _______ _______ _______ _____ _____    ______ ____

>  <TORSDO>
F 8

$$$$
