=
 OpenBabel11072410543D

 40 41  0  0  1  0  0  0  0  0999 V2000
  161.2310  210.6430  153.3710 C   0  0  0  0  0  2  0  0  0  0  0  0
  160.1170  211.3860  154.1170 C   0  0  1  0  0  3  0  0  0  0  0  0
  159.2020  212.0450  153.0920 C   0  0  0  0  0  2  0  0  0  0  0  0
  158.9530  213.5080  153.4350 C   0  0  0  0  0  2  0  0  0  0  0  0
  158.9370  214.3770  152.1880 C   0  0  0  0  0  2  0  0  0  0  0  0
  159.8220  213.5540  150.8290 S   0  0  0  0  0  0  0  0  0  0  0  0
  158.4340  213.6560  149.7030 C   0  0  0  0  0  0  0  0  0  0  0  0
  157.3650  214.0800  150.1030 O   0  0  0  0  0  0  0  0  0  0  0  0
  158.5720  213.1660  148.2950 C   0  0  0  0  0  2  0  0  0  0  0  0
  157.2200  212.9770  147.6260 C   0  0  0  0  0  2  0  0  0  0  0  0
  157.3860  212.5160  146.1910 C   0  0  0  0  0  1  0  0  0  0  0  0
  159.3550  210.4740  155.1020 C   0  0  1  0  0  3  0  0  0  0  0  0
  160.0360  210.2540  156.4730 C   0  0  1  0  0  3  0  0  0  0  0  0
  161.9920  208.8080  156.5510 C   0  0  0  0  0  2  0  0  0  0  0  0
  162.4440  210.2040  156.9080 C   0  0  0  0  0  2  0  0  0  0  0  0
  160.5030  208.8340  156.7800 C   0  0  2  0  0  3  0  0  0  0  0  0
  161.2600  211.1300  156.6740 C   0  0  0  0  0  2  0  0  0  0  0  0
  159.7360  207.6800  156.1380 C   0  0  0  0  0  2  0  0  0  0  0  0
  160.4860  207.0590  155.1400 O   0  0  0  0  0  1  0  0  0  0  0  0
  157.8810  210.8650  155.2530 C   0  0  0  0  0  2  0  0  0  0  0  0
  157.6750  211.6330  156.5470 C   0  0  0  0  0  1  0  0  0  0  0  0
  160.7180  209.3990  152.6590 C   0  0  0  0  0  2  0  0  0  0  0  0
  161.4020  209.2710  151.3040 C   0  0  1  0  0  3  0  0  0  0  0  0
  162.3870  210.2500  151.1820 O   0  0  0  0  0  1  0  0  0  0  0  0
  162.0160  207.8850  151.1130 C   0  0  1  0  0  3  0  0  0  0  0  0
  161.5160  205.6400  151.1380 C   0  0  2  0  0  3  0  0  0  0  0  0
  161.1410  206.8930  151.6380 O   0  0  0  0  0  0  0  0  0  0  0  0
  161.1550  205.5500  149.6530 C   0  0  0  0  0  2  0  0  0  0  0  0
  161.2690  206.9310  149.0210 C   0  0  1  0  0  3  0  0  0  0  0  0
  162.3330  207.6890  149.6810 N   0  0  0  0  0  2  0  0  0  0  0  0
  160.8210  204.5480  151.9340 C   0  0  0  0  0  2  0  0  0  0  0  0
  161.4980  203.2090  151.7020 C   0  0  0  0  0  2  0  0  0  0  0  0
  161.1210  201.7350  149.9040 O   0  0  0  0  0  0  0  0  0  0  0  0
  160.6390  202.3400  150.8520 C   0  0  0  0  0  3  0  0  0  0  0  0
  161.5720  206.7900  147.5460 C   0  0  0  0  0  2  0  0  0  0  0  0
  160.6350  205.8610  146.9400 N   0  0  0  0  0  2  0  0  0  0  0  0
  160.4750  206.2730  145.5570 C   0  0  0  0  0  2  0  0  0  0  0  0
  161.0760  205.2420  144.6660 C   0  0  0  0  0  0  0  0  0  0  0  0
  161.4070  205.5600  143.3550 O   0  0  0  0  0  0  0  0  0  0  0  0
  161.3290  204.0950  145.1170 O   0  0  0  0  0  1  0  0  0  0  0  0
  1  2  1  0  0  0  0
  2  3  1  6  0  0  0
  2 12  1  0  0  0  0
  3  4  1  0  0  0  0
  5  4  1  0  0  0  0
  6  5  1  0  0  0  0
  7  8  2  0  0  0  0
  7  6  1  0  0  0  0
  9  7  1  0  0  0  0
 10  9  1  0  0  0  0
 11 10  1  0  0  0  0
 12 20  1  1  0  0  0
 13 12  1  6  0  0  0
 13 17  1  0  0  0  0
 13 16  1  0  0  0  0
 14 16  1  0  0  0  0
 14 15  1  0  0  0  0
 16 18  1  6  0  0  0
 17 15  1  0  0  0  0
 19 18  1  0  0  0  0
 20 21  1  0  0  0  0
 22  1  1  0  0  0  0
 23 24  1  1  0  0  0
 23 22  1  0  0  0  0
 25 23  1  6  0  0  0
 25 27  1  0  0  0  0
 26 27  1  0  0  0  0
 26 31  1  1  0  0  0
 28 26  1  0  0  0  0
 29 35  1  6  0  0  0
 29 28  1  0  0  0  0
 29 30  1  0  0  0  0
 30 25  1  0  0  0  0
 32 31  1  0  0  0  0
 33 34  2  0  0  0  0
 34 32  1  0  0  0  0
 36 35  1  0  0  0  0
 37 36  1  0  0  0  0
 38 40  1  0  0  0  0
 38 37  1  0  0  0  0
 39 38  2  0  0  0  0
M  END
>  <MODEL>
1

>  <REMARK>
 VINA RESULT:      -6.1      0.000      0.000
  Name = 
  22 active torsions:
  status: ('A' for Active; 'I' for Inactive)
    1  A    between atoms: C_1  and  C_11
    2  A    between atoms: C_2  and  C_14
    3  A    between atoms: C_2  and  C_19
    4  A    between atoms: C_2  and  C_25
    5  A    between atoms: C_3  and  C_26
    6  A    between atoms: C_4  and  C_15
    7  A    between atoms: C_4  and  N_38
    8  A    between atoms: C_5  and  C_26
    9  A    between atoms: C_5  and  C_36
   10  A    between atoms: C_7  and  C_9
   11  A    between atoms: C_7  and  C_14
   12  A    between atoms: C_8  and  C_28
   13  A    between atoms: C_9  and  C_11
   14  A    between atoms: S_10  and  C_29
   15  A    between atoms: S_10  and  C_35
   16  A    between atoms: C_12  and  C_21
   17  A    between atoms: C_12  and  C_35
   18  A    between atoms: C_14  and  C_21
   19  A    between atoms: C_16  and  C_32
   20  A    between atoms: C_27  and  C_29
   21  A    between atoms: C_27  and  C_33
   22  A    between atoms: C_28  and  N_38
                            x       y       z     vdW  Elec       q    Type
                         _______ _______ _______ _____ _____    ______ ____

>  <TORSDO>
F 22

$$$$
=
 OpenBabel11072410543D

 40 41  0  0  1  0  0  0  0  0999 V2000
  161.5240  209.7940  153.1450 C   0  0  0  0  0  2  0  0  0  0  0  0
  160.5630  210.8690  153.6670 C   0  0  1  0  0  3  0  0  0  0  0  0
  159.7310  211.3840  152.5000 C   0  0  0  0  0  2  0  0  0  0  0  0
  159.7900  212.9030  152.4090 C   0  0  0  0  0  2  0  0  0  0  0  0
  160.1060  213.3640  150.9960 C   0  0  0  0  0  2  0  0  0  0  0  0
  158.5860  213.8790  150.1410 S   0  0  0  0  0  0  0  0  0  0  0  0
  159.2240  213.4840  148.5150 C   0  0  0  0  0  0  0  0  0  0  0  0
  158.4530  213.1680  147.6270 O   0  0  0  0  0  0  0  0  0  0  0  0
  160.7000  213.4850  148.2680 C   0  0  0  0  0  2  0  0  0  0  0  0
  161.1640  212.1950  147.6110 C   0  0  0  0  0  2  0  0  0  0  0  0
  162.1120  211.4340  148.5190 C   0  0  0  0  0  1  0  0  0  0  0  0
  159.7000  210.3670  154.8440 C   0  0  1  0  0  3  0  0  0  0  0  0
  160.3680  210.4310  156.2390 C   0  0  1  0  0  3  0  0  0  0  0  0
  162.1690  208.8640  156.7100 C   0  0  0  0  0  2  0  0  0  0  0  0
  162.7630  210.2520  156.7130 C   0  0  0  0  0  2  0  0  0  0  0  0
  160.6920  209.0950  156.9000 C   0  0  2  0  0  3  0  0  0  0  0  0
  161.6760  211.2030  156.2340 C   0  0  0  0  0  2  0  0  0  0  0  0
  159.8070  207.8990  156.5560 C   0  0  0  0  0  2  0  0  0  0  0  0
  160.5650  206.7570  156.2980 O   0  0  0  0  0  1  0  0  0  0  0  0
  158.2970  210.9810  154.8560 C   0  0  0  0  0  2  0  0  0  0  0  0
  158.0660  211.7320  156.1550 C   0  0  0  0  0  1  0  0  0  0  0  0
  160.8580  208.4300  153.0320 C   0  0  0  0  0  2  0  0  0  0  0  0
  161.6610  207.5490  152.0840 C   0  0  1  0  0  3  0  0  0  0  0  0
  162.2130  206.4820  152.7910 O   0  0  0  0  0  1  0  0  0  0  0  0
  160.8000  207.0260  150.9360 C   0  0  1  0  0  3  0  0  0  0  0  0
  160.8790  206.4030  148.7240 C   0  0  2  0  0  3  0  0  0  0  0  0
  161.4850  207.2010  149.7010 O   0  0  0  0  0  0  0  0  0  0  0  0
  161.1940  204.9290  148.9950 C   0  0  0  0  0  2  0  0  0  0  0  0
  161.3260  204.7090  150.4960 C   0  0  1  0  0  3  0  0  0  0  0  0
  160.4300  205.6210  151.2080 N   0  0  0  0  0  2  0  0  0  0  0  0
  161.3740  206.8210  147.3490 C   0  0  0  0  0  2  0  0  0  0  0  0
  161.0370  205.7580  146.3180 C   0  0  0  0  0  2  0  0  0  0  0  0
  163.1600  204.8210  145.9150 O   0  0  0  0  0  0  0  0  0  0  0  0
  162.2260  205.4730  145.4680 C   0  0  0  0  0  3  0  0  0  0  0  0
  160.9790  203.2750  150.8300 C   0  0  0  0  0  2  0  0  0  0  0  0
  160.3590  202.6400  149.6800 N   0  0  0  0  0  2  0  0  0  0  0  0
  161.0360  201.3690  149.4900 C   0  0  0  0  0  2  0  0  0  0  0  0
  161.1630  201.0940  148.0320 C   0  0  0  0  0  0  0  0  0  0  0  0
  161.5290  199.8300  147.5900 O   0  0  0  0  0  1  0  0  0  0  0  0
  160.8880  201.9960  147.1990 O   0  0  0  0  0  0  0  0  0  0  0  0
  1  2  1  0  0  0  0
  2  3  1  6  0  0  0
  2 12  1  0  0  0  0
  4  3  1  0  0  0  0
  5  4  1  0  0  0  0
  6  5  1  0  0  0  0
  7  6  1  0  0  0  0
  8  7  2  0  0  0  0
  9  7  1  0  0  0  0
 10  9  1  0  0  0  0
 10 11  1  0  0  0  0
 12 20  1  1  0  0  0
 13 12  1  6  0  0  0
 13 16  1  0  0  0  0
 14 15  1  0  0  0  0
 14 16  1  0  0  0  0
 16 18  1  6  0  0  0
 17 13  1  0  0  0  0
 17 15  1  0  0  0  0
 19 18  1  0  0  0  0
 20 21  1  0  0  0  0
 22  1  1  0  0  0  0
 23 24  1  1  0  0  0
 23 22  1  0  0  0  0
 25 30  1  0  0  0  0
 25 23  1  1  0  0  0
 26 31  1  6  0  0  0
 26 28  1  0  0  0  0
 26 27  1  0  0  0  0
 27 25  1  0  0  0  0
 28 29  1  0  0  0  0
 29 35  1  6  0  0  0
 29 30  1  0  0  0  0
 32 31  1  0  0  0  0
 34 33  2  0  0  0  0
 34 32  1  0  0  0  0
 36 35  1  0  0  0  0
 37 36  1  0  0  0  0
 38 37  1  0  0  0  0
 39 38  1  0  0  0  0
 40 38  2  0  0  0  0
M  END
>  <MODEL>
2

>  <REMARK>
 VINA RESULT:      -5.9      1.788      3.276
  Name = 
  22 active torsions:
  status: ('A' for Active; 'I' for Inactive)
    1  A    between atoms: C_1  and  C_11
    2  A    between atoms: C_2  and  C_14
    3  A    between atoms: C_2  and  C_19
    4  A    between atoms: C_2  and  C_25
    5  A    between atoms: C_3  and  C_26
    6  A    between atoms: C_4  and  C_15
    7  A    between atoms: C_4  and  N_38
    8  A    between atoms: C_5  and  C_26
    9  A    between atoms: C_5  and  C_36
   10  A    between atoms: C_7  and  C_9
   11  A    between atoms: C_7  and  C_14
   12  A    between atoms: C_8  and  C_28
   13  A    between atoms: C_9  and  C_11
   14  A    between atoms: S_10  and  C_29
   15  A    between atoms: S_10  and  C_35
   16  A    between atoms: C_12  and  C_21
   17  A    between atoms: C_12  and  C_35
   18  A    between atoms: C_14  and  C_21
   19  A    between atoms: C_16  and  C_32
   20  A    between atoms: C_27  and  C_29
   21  A    between atoms: C_27  and  C_33
   22  A    between atoms: C_28  and  N_38
                            x       y       z     vdW  Elec       q    Type
                         _______ _______ _______ _____ _____    ______ ____

>  <TORSDO>
F 22

$$$$
=
 OpenBabel11072410543D

 40 41  0  0  1  0  0  0  0  0999 V2000
  160.8710  209.5190  151.6920 C   0  0  0  0  0  2  0  0  0  0  0  0
  161.1010  211.0080  151.9750 C   0  0  1  0  0  3  0  0  0  0  0  0
  161.1500  211.7520  150.6460 C   0  0  0  0  0  2  0  0  0  0  0  0
  161.7750  210.8920  149.5550 C   0  0  0  0  0  2  0  0  0  0  0  0
  162.4320  211.7450  148.4830 C   0  0  0  0  0  2  0  0  0  0  0  0
  161.6060  213.3610  148.3610 S   0  0  0  0  0  0  0  0  0  0  0  0
  160.6730  212.9080  146.9010 C   0  0  0  0  0  0  0  0  0  0  0  0
  159.6890  212.2000  147.0120 O   0  0  0  0  0  0  0  0  0  0  0  0
  161.1370  213.3500  145.5480 C   0  0  0  0  0  2  0  0  0  0  0  0
  162.6290  213.6380  145.5280 C   0  0  0  0  0  2  0  0  0  0  0  0
  163.2320  213.2840  144.1820 C   0  0  0  0  0  1  0  0  0  0  0  0
  160.0580  211.5920  152.9510 C   0  0  1  0  0  3  0  0  0  0  0  0
  160.4350  211.5290  154.4500 C   0  0  1  0  0  3  0  0  0  0  0  0
  159.9190  209.4860  155.6670 C   0  0  0  0  0  2  0  0  0  0  0  0
  161.4220  209.6190  155.6200 C   0  0  0  0  0  2  0  0  0  0  0  0
  159.4170  210.8770  155.3810 C   0  0  2  0  0  3  0  0  0  0  0  0
  161.7380  210.7900  154.7020 C   0  0  0  0  0  2  0  0  0  0  0  0
  157.9430  210.9590  154.9890 C   0  0  0  0  0  2  0  0  0  0  0  0
  157.3830  212.1830  155.3540 O   0  0  0  0  0  1  0  0  0  0  0  0
  159.5800  212.9890  152.5420 C   0  0  0  0  0  2  0  0  0  0  0  0
  158.1750  212.9140  151.9710 C   0  0  0  0  0  1  0  0  0  0  0  0
  162.1510  208.7050  151.8150 C   0  0  0  0  0  2  0  0  0  0  0  0
  161.8420  207.3720  152.4840 C   0  0  1  0  0  3  0  0  0  0  0  0
  160.5020  207.3380  152.8670 O   0  0  0  0  0  1  0  0  0  0  0  0
  162.1520  206.1930  151.5630 C   0  0  1  0  0  3  0  0  0  0  0  0
  161.2260  204.3110  150.6200 C   0  0  2  0  0  3  0  0  0  0  0  0
  161.1510  205.1930  151.7050 O   0  0  0  0  0  0  0  0  0  0  0  0
  160.7230  205.0100  149.3540 C   0  0  0  0  0  2  0  0  0  0  0  0
  161.0500  206.4950  149.4340 C   0  0  1  0  0  3  0  0  0  0  0  0
  162.2960  206.6870  150.1760 N   0  0  0  0  0  2  0  0  0  0  0  0
  160.4030  203.0690  150.9190 C   0  0  0  0  0  2  0  0  0  0  0  0
  161.1430  201.8220  150.4690 C   0  0  0  0  0  2  0  0  0  0  0  0
  161.2490  200.5040  148.5200 O   0  0  0  0  0  0  0  0  0  0  0  0
  160.6900  201.4190  149.1080 C   0  0  0  0  0  3  0  0  0  0  0  0
  161.1860  207.0590  148.0370 C   0  0  0  0  0  2  0  0  0  0  0  0
  162.1440  206.2720  147.2820 N   0  0  0  0  0  2  0  0  0  0  0  0
  161.5960  206.1180  145.9450 C   0  0  0  0  0  2  0  0  0  0  0  0
  161.3970  204.6700  145.6610 C   0  0  0  0  0  0  0  0  0  0  0  0
  161.8080  203.7150  146.5820 O   0  0  0  0  0  1  0  0  0  0  0  0
  160.8090  204.3130  144.6080 O   0  0  0  0  0  0  0  0  0  0  0  0
  1 22  1  0  0  0  0
  1  2  1  0  0  0  0
  2  3  1  6  0  0  0
  2 12  1  0  0  0  0
  4  3  1  0  0  0  0
  5  4  1  0  0  0  0
  6  5  1  0  0  0  0
  7  8  2  0  0  0  0
  7  6  1  0  0  0  0
  9  7  1  0  0  0  0
 10  9  1  0  0  0  0
 11 10  1  0  0  0  0
 12 20  1  6  0  0  0
 13 12  1  6  0  0  0
 13 17  1  0  0  0  0
 13 16  1  0  0  0  0
 15 14  1  0  0  0  0
 16 18  1  6  0  0  0
 16 14  1  0  0  0  0
 17 15  1  0  0  0  0
 18 19  1  0  0  0  0
 21 20  1  0  0  0  0
 22 23  1  0  0  0  0
 23 24  1  6  0  0  0
 25 27  1  0  0  0  0
 25 23  1  1  0  0  0
 26 31  1  1  0  0  0
 26 27  1  0  0  0  0
 28 29  1  0  0  0  0
 28 26  1  0  0  0  0
 29 35  1  6  0  0  0
 29 30  1  0  0  0  0
 30 25  1  0  0  0  0
 32 31  1  0  0  0  0
 33 34  2  0  0  0  0
 34 32  1  0  0  0  0
 36 35  1  0  0  0  0
 37 36  1  0  0  0  0
 38 37  1  0  0  0  0
 38 39  1  0  0  0  0
 40 38  2  0  0  0  0
M  END
>  <MODEL>
3

>  <REMARK>
 VINA RESULT:      -5.4      2.316      3.164
  Name = 
  22 active torsions:
  status: ('A' for Active; 'I' for Inactive)
    1  A    between atoms: C_1  and  C_11
    2  A    between atoms: C_2  and  C_14
    3  A    between atoms: C_2  and  C_19
    4  A    between atoms: C_2  and  C_25
    5  A    between atoms: C_3  and  C_26
    6  A    between atoms: C_4  and  C_15
    7  A    between atoms: C_4  and  N_38
    8  A    between atoms: C_5  and  C_26
    9  A    between atoms: C_5  and  C_36
   10  A    between atoms: C_7  and  C_9
   11  A    between atoms: C_7  and  C_14
   12  A    between atoms: C_8  and  C_28
   13  A    between atoms: C_9  and  C_11
   14  A    between atoms: S_10  and  C_29
   15  A    between atoms: S_10  and  C_35
   16  A    between atoms: C_12  and  C_21
   17  A    between atoms: C_12  and  C_35
   18  A    between atoms: C_14  and  C_21
   19  A    between atoms: C_16  and  C_32
   20  A    between atoms: C_27  and  C_29
   21  A    between atoms: C_27  and  C_33
   22  A    between atoms: C_28  and  N_38
                            x       y       z     vdW  Elec       q    Type
                         _______ _______ _______ _____ _____    ______ ____

>  <TORSDO>
F 22

$$$$
=
 OpenBabel11072410543D

 40 41  0  0  1  0  0  0  0  0999 V2000
  160.1110  209.8410  152.4050 C   0  0  0  0  0  2  0  0  0  0  0  0
  160.2770  211.3550  152.5790 C   0  0  1  0  0  3  0  0  0  0  0  0
  159.8970  212.0390  151.2710 C   0  0  0  0  0  2  0  0  0  0  0  0
  161.1240  212.3050  150.4100 C   0  0  0  0  0  2  0  0  0  0  0  0
  160.8330  213.3310  149.3270 C   0  0  0  0  0  2  0  0  0  0  0  0
  160.7630  212.5300  147.6960 S   0  0  0  0  0  0  0  0  0  0  0  0
  159.0910  213.0790  147.3650 C   0  0  0  0  0  0  0  0  0  0  0  0
  158.6060  212.8970  146.2640 O   0  0  0  0  0  0  0  0  0  0  0  0
  158.3200  213.8130  148.4170 C   0  0  0  0  0  2  0  0  0  0  0  0
  157.1030  213.0270  148.8790 C   0  0  0  0  0  2  0  0  0  0  0  0
  156.0570  213.9490  149.4750 C   0  0  0  0  0  1  0  0  0  0  0  0
  159.4920  211.9000  153.7910 C   0  0  1  0  0  3  0  0  0  0  0  0
  160.1970  211.7620  155.1610 C   0  0  1  0  0  3  0  0  0  0  0  0
  160.1960  209.5740  156.2260 C   0  0  0  0  0  2  0  0  0  0  0  0
  161.6270  209.9110  155.8800 C   0  0  0  0  0  2  0  0  0  0  0  0
  159.4900  210.9050  156.2070 C   0  0  2  0  0  3  0  0  0  0  0  0
  161.5970  211.1860  155.0520 C   0  0  0  0  0  2  0  0  0  0  0  0
  157.9660  210.8220  156.1440 C   0  0  0  0  0  2  0  0  0  0  0  0
  157.3660  211.8200  156.9110 O   0  0  0  0  0  1  0  0  0  0  0  0
  158.9590  213.3190  153.5640 C   0  0  0  0  0  2  0  0  0  0  0  0
  159.0120  214.1100  154.8580 C   0  0  0  0  0  1  0  0  0  0  0  0
  161.3950  209.1710  151.9360 C   0  0  0  0  0  2  0  0  0  0  0  0
  161.6640  207.9370  152.7880 C   0  0  1  0  0  3  0  0  0  0  0  0
  160.5250  207.6210  153.5280 O   0  0  0  0  0  1  0  0  0  0  0  0
  162.0800  206.7420  151.9330 C   0  0  1  0  0  3  0  0  0  0  0  0
  161.3030  204.7720  151.0350 C   0  0  2  0  0  3  0  0  0  0  0  0
  161.1310  205.6920  152.0760 O   0  0  0  0  0  0  0  0  0  0  0  0
  160.8200  205.3880  149.7200 C   0  0  0  0  0  2  0  0  0  0  0  0
  161.0590  206.8910  149.7480 C   0  0  1  0  0  3  0  0  0  0  0  0
  162.2580  207.1850  150.5330 N   0  0  0  0  0  2  0  0  0  0  0  0
  160.5390  203.4980  151.3520 C   0  0  0  0  0  2  0  0  0  0  0  0
  161.3250  202.2800  150.8980 C   0  0  0  0  0  2  0  0  0  0  0  0
  160.3330  202.0530  148.7740 O   0  0  0  0  0  0  0  0  0  0  0  0
  160.5620  201.5360  149.8580 C   0  0  0  0  0  3  0  0  0  0  0  0
  161.2260  207.4040  148.3350 C   0  0  0  0  0  2  0  0  0  0  0  0
  162.2710  206.6540  147.6610 N   0  0  0  0  0  2  0  0  0  0  0  0
  161.7070  206.1890  146.4060 C   0  0  0  0  0  2  0  0  0  0  0  0
  162.2940  204.8630  146.0660 C   0  0  0  0  0  0  0  0  0  0  0  0
  161.4650  203.7900  145.7650 O   0  0  0  0  0  0  0  0  0  0  0  0
  163.5430  204.7280  146.0030 O   0  0  0  0  0  1  0  0  0  0  0  0
  1  2  1  0  0  0  0
  2  3  1  6  0  0  0
  2 12  1  0  0  0  0
  4  3  1  0  0  0  0
  5  4  1  0  0  0  0
  6  5  1  0  0  0  0
  7  6  1  0  0  0  0
  7  9  1  0  0  0  0
  8  7  2  0  0  0  0
  9 10  1  0  0  0  0
 10 11  1  0  0  0  0
 12 20  1  6  0  0  0
 13 12  1  6  0  0  0
 13 16  1  0  0  0  0
 15 14  1  0  0  0  0
 16 18  1  6  0  0  0
 16 14  1  0  0  0  0
 17 13  1  0  0  0  0
 17 15  1  0  0  0  0
 18 19  1  0  0  0  0
 20 21  1  0  0  0  0
 22  1  1  0  0  0  0
 22 23  1  0  0  0  0
 23 24  1  6  0  0  0
 25 27  1  0  0  0  0
 25 23  1  1  0  0  0
 26 31  1  1  0  0  0
 26 27  1  0  0  0  0
 28 29  1  0  0  0  0
 28 26  1  0  0  0  0
 29 35  1  6  0  0  0
 29 30  1  0  0  0  0
 30 25  1  0  0  0  0
 32 31  1  0  0  0  0
 33 34  2  0  0  0  0
 34 32  1  0  0  0  0
 36 35  1  0  0  0  0
 37 36  1  0  0  0  0
 38 37  1  0  0  0  0
 39 38  2  0  0  0  0
 40 38  1  0  0  0  0
M  END
>  <MODEL>
4

>  <REMARK>
 VINA RESULT:      -5.4      1.876      2.452
  Name = 
  22 active torsions:
  status: ('A' for Active; 'I' for Inactive)
    1  A    between atoms: C_1  and  C_11
    2  A    between atoms: C_2  and  C_14
    3  A    between atoms: C_2  and  C_19
    4  A    between atoms: C_2  and  C_25
    5  A    between atoms: C_3  and  C_26
    6  A    between atoms: C_4  and  C_15
    7  A    between atoms: C_4  and  N_38
    8  A    between atoms: C_5  and  C_26
    9  A    between atoms: C_5  and  C_36
   10  A    between atoms: C_7  and  C_9
   11  A    between atoms: C_7  and  C_14
   12  A    between atoms: C_8  and  C_28
   13  A    between atoms: C_9  and  C_11
   14  A    between atoms: S_10  and  C_29
   15  A    between atoms: S_10  and  C_35
   16  A    between atoms: C_12  and  C_21
   17  A    between atoms: C_12  and  C_35
   18  A    between atoms: C_14  and  C_21
   19  A    between atoms: C_16  and  C_32
   20  A    between atoms: C_27  and  C_29
   21  A    between atoms: C_27  and  C_33
   22  A    between atoms: C_28  and  N_38
                            x       y       z     vdW  Elec       q    Type
                         _______ _______ _______ _____ _____    ______ ____

>  <TORSDO>
F 22

$$$$
=
 OpenBabel11072410543D

 40 41  0  0  1  0  0  0  0  0999 V2000
  160.1060  209.4060  153.1870 C   0  0  0  0  0  2  0  0  0  0  0  0
  160.3890  210.9030  153.3600 C   0  0  1  0  0  3  0  0  0  0  0  0
  159.2060  211.6870  152.8070 C   0  0  0  0  0  2  0  0  0  0  0  0
  159.4270  213.1880  152.9430 C   0  0  0  0  0  2  0  0  0  0  0  0
  159.7740  213.8230  151.6060 C   0  0  0  0  0  2  0  0  0  0  0  0
  158.4250  213.5680  150.4140 S   0  0  0  0  0  0  0  0  0  0  0  0
  159.5300  213.4230  149.0120 C   0  0  0  0  0  0  0  0  0  0  0  0
  159.0730  213.2040  147.9060 O   0  0  0  0  0  0  0  0  0  0  0  0
  161.0110  213.5120  149.2130 C   0  0  0  0  0  2  0  0  0  0  0  0
  161.7090  212.2100  148.8520 C   0  0  0  0  0  2  0  0  0  0  0  0
  162.9080  212.4680  147.9590 C   0  0  0  0  0  1  0  0  0  0  0  0
  160.7270  211.2750  154.8190 C   0  0  1  0  0  3  0  0  0  0  0  0
  159.6460  210.9190  155.8670 C   0  0  1  0  0  3  0  0  0  0  0  0
  157.9590  212.5970  156.3770 C   0  0  0  0  0  2  0  0  0  0  0  0
  157.2570  211.4310  155.7230 C   0  0  0  0  0  2  0  0  0  0  0  0
  159.2660  212.0190  156.8540 C   0  0  2  0  0  3  0  0  0  0  0  0
  158.3370  210.4740  155.2400 C   0  0  0  0  0  2  0  0  0  0  0  0
  160.3320  213.0530  157.2090 C   0  0  0  0  0  2  0  0  0  0  0  0
  160.1490  214.2420  156.5030 O   0  0  0  0  0  1  0  0  0  0  0  0
  162.1170  210.7960  155.2480 C   0  0  0  0  0  2  0  0  0  0  0  0
  161.9940  209.6000  156.1750 C   0  0  0  0  0  1  0  0  0  0  0  0
  161.1850  208.7050  152.3740 C   0  0  0  0  0  2  0  0  0  0  0  0
  161.6210  207.4360  153.0960 C   0  0  1  0  0  3  0  0  0  0  0  0
  160.5450  206.9090  153.8090 O   0  0  0  0  0  1  0  0  0  0  0  0
  162.1640  206.3920  152.1210 C   0  0  1  0  0  3  0  0  0  0  0  0
  161.6510  204.3940  151.1040 C   0  0  2  0  0  3  0  0  0  0  0  0
  161.4050  205.1940  152.2270 O   0  0  0  0  0  0  0  0  0  0  0  0
  160.9880  205.0190  149.8730 C   0  0  0  0  0  2  0  0  0  0  0  0
  160.9860  206.5350  150.0150 C   0  0  1  0  0  3  0  0  0  0  0  0
  162.1740  206.9620  150.7560 N   0  0  0  0  0  2  0  0  0  0  0  0
  161.1220  202.9920  151.3530 C   0  0  0  0  0  2  0  0  0  0  0  0
  160.4940  202.4290  150.0900 C   0  0  0  0  0  2  0  0  0  0  0  0
  161.2740  200.6830  148.7150 O   0  0  0  0  0  0  0  0  0  0  0  0
  160.9840  201.0440  149.8480 C   0  0  0  0  0  3  0  0  0  0  0  0
  160.9740  207.1720  148.6430 C   0  0  0  0  0  2  0  0  0  0  0  0
  160.7170  206.1600  147.6350 N   0  0  0  0  0  2  0  0  0  0  0  0
  161.8170  206.2240  146.6890 C   0  0  0  0  0  2  0  0  0  0  0  0
  161.6260  205.1820  145.6430 C   0  0  0  0  0  0  0  0  0  0  0  0
  161.3710  203.8660  146.0070 O   0  0  0  0  0  1  0  0  0  0  0  0
  161.6460  205.5040  144.4270 O   0  0  0  0  0  0  0  0  0  0  0  0
  1  2  1  0  0  0  0
  2  3  1  1  0  0  0
  2 12  1  0  0  0  0
  3  4  1  0  0  0  0
  5  4  1  0  0  0  0
  6  5  1  0  0  0  0
  7  9  1  0  0  0  0
  7  6  1  0  0  0  0
  8  7  2  0  0  0  0
 10  9  1  0  0  0  0
 11 10  1  0  0  0  0
 12 20  1  1  0  0  0
 13 12  1  6  0  0  0
 13 16  1  0  0  0  0
 14 16  1  0  0  0  0
 15 14  1  0  0  0  0
 16 18  1  6  0  0  0
 17 15  1  0  0  0  0
 17 13  1  0  0  0  0
 19 18  1  0  0  0  0
 20 21  1  0  0  0  0
 22 23  1  0  0  0  0
 22  1  1  0  0  0  0
 23 24  1  6  0  0  0
 25 27  1  0  0  0  0
 25 23  1  1  0  0  0
 26 31  1  1  0  0  0
 26 27  1  0  0  0  0
 28 29  1  0  0  0  0
 28 26  1  0  0  0  0
 29 35  1  6  0  0  0
 29 30  1  0  0  0  0
 30 25  1  0  0  0  0
 32 31  1  0  0  0  0
 33 34  2  0  0  0  0
 34 32  1  0  0  0  0
 36 35  1  0  0  0  0
 37 36  1  0  0  0  0
 38 39  1  0  0  0  0
 38 37  1  0  0  0  0
 40 38  2  0  0  0  0
M  END
>  <MODEL>
5

>  <REMARK>
 VINA RESULT:      -5.4      1.906      3.018
  Name = 
  22 active torsions:
  status: ('A' for Active; 'I' for Inactive)
    1  A    between atoms: C_1  and  C_11
    2  A    between atoms: C_2  and  C_14
    3  A    between atoms: C_2  and  C_19
    4  A    between atoms: C_2  and  C_25
    5  A    between atoms: C_3  and  C_26
    6  A    between atoms: C_4  and  C_15
    7  A    between atoms: C_4  and  N_38
    8  A    between atoms: C_5  and  C_26
    9  A    between atoms: C_5  and  C_36
   10  A    between atoms: C_7  and  C_9
   11  A    between atoms: C_7  and  C_14
   12  A    between atoms: C_8  and  C_28
   13  A    between atoms: C_9  and  C_11
   14  A    between atoms: S_10  and  C_29
   15  A    between atoms: S_10  and  C_35
   16  A    between atoms: C_12  and  C_21
   17  A    between atoms: C_12  and  C_35
   18  A    between atoms: C_14  and  C_21
   19  A    between atoms: C_16  and  C_32
   20  A    between atoms: C_27  and  C_29
   21  A    between atoms: C_27  and  C_33
   22  A    between atoms: C_28  and  N_38
                            x       y       z     vdW  Elec       q    Type
                         _______ _______ _______ _____ _____    ______ ____

>  <TORSDO>
F 22

$$$$
=
 OpenBabel11072410543D

 40 41  0  0  1  0  0  0  0  0999 V2000
  162.3270  210.4140  151.3080 C   0  0  0  0  0  2  0  0  0  0  0  0
  161.4960  209.2040  151.7510 C   0  0  1  0  0  3  0  0  0  0  0  0
  162.1080  207.9470  151.1450 C   0  0  0  0  0  2  0  0  0  0  0  0
  161.1430  207.2760  150.1760 C   0  0  0  0  0  2  0  0  0  0  0  0
  161.7860  207.0500  148.8180 C   0  0  0  0  0  2  0  0  0  0  0  0
  160.6320  206.1930  147.7040 S   0  0  0  0  0  0  0  0  0  0  0  0
  161.5070  204.6330  147.8030 C   0  0  0  0  0  0  0  0  0  0  0  0
  162.3070  204.3360  146.9350 O   0  0  0  0  0  0  0  0  0  0  0  0
  161.2100  203.6750  148.9140 C   0  0  0  0  0  2  0  0  0  0  0  0
  160.6580  202.3580  148.3940 C   0  0  0  0  0  2  0  0  0  0  0  0
  160.2760  201.4400  149.5390 C   0  0  0  0  0  1  0  0  0  0  0  0
  161.3480  209.1190  153.2850 C   0  0  1  0  0  3  0  0  0  0  0  0
  160.1050  209.8250  153.8770 C   0  0  1  0  0  3  0  0  0  0  0  0
  160.1080  212.2570  153.9560 C   0  0  0  0  0  2  0  0  0  0  0  0
  159.0200  211.8360  152.9990 C   0  0  0  0  0  2  0  0  0  0  0  0
  160.3700  211.0250  154.7820 C   0  0  2  0  0  3  0  0  0  0  0  0
  159.1480  210.3310  152.8120 C   0  0  0  0  0  2  0  0  0  0  0  0
  161.6800  211.0450  155.5680 C   0  0  0  0  0  2  0  0  0  0  0  0
  161.4640  210.8380  156.9300 O   0  0  0  0  0  1  0  0  0  0  0  0
  161.5000  207.6910  153.8180 C   0  0  0  0  0  2  0  0  0  0  0  0
  160.4420  207.4100  154.8690 C   0  0  0  0  0  1  0  0  0  0  0  0
  161.5570  211.3300  150.3680 C   0  0  0  0  0  2  0  0  0  0  0  0
  162.3090  211.4530  149.0500 C   0  0  1  0  0  3  0  0  0  0  0  0
  161.9740  210.3870  148.2170 O   0  0  0  0  0  1  0  0  0  0  0  0
  162.0070  212.7780  148.3500 C   0  0  1  0  0  3  0  0  0  0  0  0
  161.9680  213.7930  146.2870 C   0  0  2  0  0  3  0  0  0  0  0  0
  162.5530  212.7650  147.0370 O   0  0  0  0  0  0  0  0  0  0  0  0
  160.5130  213.4360  145.9720 C   0  0  0  0  0  2  0  0  0  0  0  0
  159.9380  212.6070  147.1130 C   0  0  1  0  0  3  0  0  0  0  0  0
  160.5480  213.0180  148.3780 N   0  0  0  0  0  2  0  0  0  0  0  0
  162.7640  214.0060  145.0110 C   0  0  0  0  0  2  0  0  0  0  0  0
  162.4290  212.9330  143.9900 C   0  0  0  0  0  2  0  0  0  0  0  0
  161.6570  214.3230  142.2520 O   0  0  0  0  0  0  0  0  0  0  0  0
  162.4860  213.4980  142.6140 C   0  0  0  0  0  3  0  0  0  0  0  0
  158.4390  212.7980  147.1720 C   0  0  0  0  0  2  0  0  0  0  0  0
  158.1170  213.8580  148.1110 N   0  0  0  0  0  2  0  0  0  0  0  0
  157.1420  213.3120  149.0380 C   0  0  0  0  0  2  0  0  0  0  0  0
  157.2500  214.0270  150.3400 C   0  0  0  0  0  0  0  0  0  0  0  0
  156.1310  214.1760  151.1490 O   0  0  0  0  0  1  0  0  0  0  0  0
  158.3670  214.4530  150.7300 O   0  0  0  0  0  0  0  0  0  0  0  0
  1  2  1  0  0  0  0
  2  3  1  1  0  0  0
  2 12  1  0  0  0  0
  4  3  1  0  0  0  0
  5  4  1  0  0  0  0
  6  7  1  0  0  0  0
  6  5  1  0  0  0  0
  7  9  1  0  0  0  0
  8  7  2  0  0  0  0
 10  9  1  0  0  0  0
 10 11  1  0  0  0  0
 12 20  1  6  0  0  0
 13 12  1  6  0  0  0
 13 16  1  0  0  0  0
 14 16  1  0  0  0  0
 15 14  1  0  0  0  0
 16 18  1  6  0  0  0
 17 15  1  0  0  0  0
 17 13  1  0  0  0  0
 18 19  1  0  0  0  0
 20 21  1  0  0  0  0
 22  1  1  0  0  0  0
 23 24  1  6  0  0  0
 23 22  1  0  0  0  0
 25 30  1  0  0  0  0
 25 23  1  6  0  0  0
 26 31  1  6  0  0  0
 26 27  1  0  0  0  0
 27 25  1  0  0  0  0
 28 26  1  0  0  0  0
 28 29  1  0  0  0  0
 29 35  1  1  0  0  0
 29 30  1  0  0  0  0
 32 31  1  0  0  0  0
 33 34  2  0  0  0  0
 34 32  1  0  0  0  0
 35 36  1  0  0  0  0
 36 37  1  0  0  0  0
 37 38  1  0  0  0  0
 38 40  2  0  0  0  0
 38 39  1  0  0  0  0
M  END
>  <MODEL>
6

>  <REMARK>
 VINA RESULT:      -5.4      3.508      8.218
  Name = 
  22 active torsions:
  status: ('A' for Active; 'I' for Inactive)
    1  A    between atoms: C_1  and  C_11
    2  A    between atoms: C_2  and  C_14
    3  A    between atoms: C_2  and  C_19
    4  A    between atoms: C_2  and  C_25
    5  A    between atoms: C_3  and  C_26
    6  A    between atoms: C_4  and  C_15
    7  A    between atoms: C_4  and  N_38
    8  A    between atoms: C_5  and  C_26
    9  A    between atoms: C_5  and  C_36
   10  A    between atoms: C_7  and  C_9
   11  A    between atoms: C_7  and  C_14
   12  A    between atoms: C_8  and  C_28
   13  A    between atoms: C_9  and  C_11
   14  A    between atoms: S_10  and  C_29
   15  A    between atoms: S_10  and  C_35
   16  A    between atoms: C_12  and  C_21
   17  A    between atoms: C_12  and  C_35
   18  A    between atoms: C_14  and  C_21
   19  A    between atoms: C_16  and  C_32
   20  A    between atoms: C_27  and  C_29
   21  A    between atoms: C_27  and  C_33
   22  A    between atoms: C_28  and  N_38
                            x       y       z     vdW  Elec       q    Type
                         _______ _______ _______ _____ _____    ______ ____

>  <TORSDO>
F 22

$$$$
=
 OpenBabel11072410543D

 40 41  0  0  1  0  0  0  0  0999 V2000
  161.9000  209.9180  153.3550 C   0  0  0  0  0  2  0  0  0  0  0  0
  160.8450  210.9410  153.7910 C   0  0  1  0  0  3  0  0  0  0  0  0
  160.0380  211.3580  152.5680 C   0  0  0  0  0  2  0  0  0  0  0  0
  159.6430  212.8270  152.6420 C   0  0  0  0  0  2  0  0  0  0  0  0
  158.9440  213.2790  151.3710 C   0  0  0  0  0  2  0  0  0  0  0  0
  160.1660  213.7140  150.0950 S   0  0  0  0  0  0  0  0  0  0  0  0
  159.0270  213.4410  148.7410 C   0  0  0  0  0  0  0  0  0  0  0  0
  157.8280  213.4970  148.9430 O   0  0  0  0  0  0  0  0  0  0  0  0
  159.5480  213.0870  147.3830 C   0  0  0  0  0  2  0  0  0  0  0  0
  160.9760  212.5680  147.4420 C   0  0  0  0  0  2  0  0  0  0  0  0
  161.7700  213.0260  146.2340 C   0  0  0  0  0  1  0  0  0  0  0  0
  159.9600  210.4230  154.9450 C   0  0  1  0  0  3  0  0  0  0  0  0
  160.4460  210.7750  156.3710 C   0  0  1  0  0  3  0  0  0  0  0  0
  162.3580  209.5570  157.2550 C   0  0  0  0  0  2  0  0  0  0  0  0
  162.7720  211.0010  157.1000 C   0  0  0  0  0  2  0  0  0  0  0  0
  160.8520  209.6050  157.2610 C   0  0  2  0  0  3  0  0  0  0  0  0
  161.6400  211.7140  156.3750 C   0  0  0  0  0  2  0  0  0  0  0  0
  160.1670  208.2600  157.0210 C   0  0  0  0  0  2  0  0  0  0  0  0
  161.0730  207.2030  157.0990 O   0  0  0  0  0  1  0  0  0  0  0  0
  158.4770  210.7530  154.7500 C   0  0  0  0  0  2  0  0  0  0  0  0
  158.0130  211.7250  155.8190 C   0  0  0  0  0  1  0  0  0  0  0  0
  161.2930  208.7620  152.5730 C   0  0  0  0  0  2  0  0  0  0  0  0
  161.5500  207.4560  153.3150 C   0  0  1  0  0  3  0  0  0  0  0  0
  160.3710  207.0170  153.9140 O   0  0  0  0  0  1  0  0  0  0  0  0
  162.0960  206.3770  152.3820 C   0  0  1  0  0  3  0  0  0  0  0  0
  161.5320  204.4150  151.3230 C   0  0  2  0  0  3  0  0  0  0  0  0
  161.2540  205.2310  152.4250 O   0  0  0  0  0  0  0  0  0  0  0  0
  161.0080  205.0790  150.0470 C   0  0  0  0  0  2  0  0  0  0  0  0
  161.0960  206.5920  150.1920 C   0  0  1  0  0  3  0  0  0  0  0  0
  162.2490  206.9410  151.0230 N   0  0  0  0  0  2  0  0  0  0  0  0
  160.8950  203.0510  151.5270 C   0  0  0  0  0  2  0  0  0  0  0  0
  161.6710  201.9840  150.7760 C   0  0  0  0  0  2  0  0  0  0  0  0
  161.0380  200.5260  149.0380 O   0  0  0  0  0  0  0  0  0  0  0  0
  160.9900  201.6610  149.4920 C   0  0  0  0  0  3  0  0  0  0  0  0
  161.2310  207.2260  148.8250 C   0  0  0  0  0  2  0  0  0  0  0  0
  160.4660  206.4640  147.8540 N   0  0  0  0  0  2  0  0  0  0  0  0
  161.2980  206.3420  146.6710 C   0  0  0  0  0  2  0  0  0  0  0  0
  162.0060  205.0320  146.7020 C   0  0  0  0  0  0  0  0  0  0  0  0
  161.2840  203.8470  146.6480 O   0  0  0  0  0  0  0  0  0  0  0  0
  163.2640  205.0010  146.7270 O   0  0  0  0  0  1  0  0  0  0  0  0
  1  2  1  0  0  0  0
  2  3  1  6  0  0  0
  2 12  1  0  0  0  0
  3  4  1  0  0  0  0
  5  4  1  0  0  0  0
  6  5  1  0  0  0  0
  7  8  2  0  0  0  0
  7  6  1  0  0  0  0
  9 10  1  0  0  0  0
  9  7  1  0  0  0  0
 11 10  1  0  0  0  0
 12 20  1  6  0  0  0
 13 12  1  6  0  0  0
 13 17  1  0  0  0  0
 13 16  1  0  0  0  0
 14 16  1  0  0  0  0
 15 14  1  0  0  0  0
 16 18  1  6  0  0  0
 17 15  1  0  0  0  0
 18 19  1  0  0  0  0
 20 21  1  0  0  0  0
 22 23  1  0  0  0  0
 22  1  1  0  0  0  0
 23 24  1  6  0  0  0
 25 27  1  0  0  0  0
 25 23  1  1  0  0  0
 26 31  1  1  0  0  0
 26 27  1  0  0  0  0
 28 29  1  0  0  0  0
 28 26  1  0  0  0  0
 29 35  1  6  0  0  0
 29 30  1  0  0  0  0
 30 25  1  0  0  0  0
 32 31  1  0  0  0  0
 33 34  2  0  0  0  0
 34 32  1  0  0  0  0
 36 35  1  0  0  0  0
 37 38  1  0  0  0  0
 37 36  1  0  0  0  0
 38 40  1  0  0  0  0
 39 38  2  0  0  0  0
M  END
>  <MODEL>
7

>  <REMARK>
 VINA RESULT:      -5.2      1.539      1.878
  Name = 
  22 active torsions:
  status: ('A' for Active; 'I' for Inactive)
    1  A    between atoms: C_1  and  C_11
    2  A    between atoms: C_2  and  C_14
    3  A    between atoms: C_2  and  C_19
    4  A    between atoms: C_2  and  C_25
    5  A    between atoms: C_3  and  C_26
    6  A    between atoms: C_4  and  C_15
    7  A    between atoms: C_4  and  N_38
    8  A    between atoms: C_5  and  C_26
    9  A    between atoms: C_5  and  C_36
   10  A    between atoms: C_7  and  C_9
   11  A    between atoms: C_7  and  C_14
   12  A    between atoms: C_8  and  C_28
   13  A    between atoms: C_9  and  C_11
   14  A    between atoms: S_10  and  C_29
   15  A    between atoms: S_10  and  C_35
   16  A    between atoms: C_12  and  C_21
   17  A    between atoms: C_12  and  C_35
   18  A    between atoms: C_14  and  C_21
   19  A    between atoms: C_16  and  C_32
   20  A    between atoms: C_27  and  C_29
   21  A    between atoms: C_27  and  C_33
   22  A    between atoms: C_28  and  N_38
                            x       y       z     vdW  Elec       q    Type
                         _______ _______ _______ _____ _____    ______ ____

>  <TORSDO>
F 22

$$$$
=
 OpenBabel11072410543D

 40 41  0  0  1  0  0  0  0  0999 V2000
  159.3440  211.1000  152.7720 C   0  0  0  0  0  2  0  0  0  0  0  0
  158.8380  212.5470  152.7520 C   0  0  1  0  0  3  0  0  0  0  0  0
  158.6000  212.9580  151.3040 C   0  0  0  0  0  2  0  0  0  0  0  0
  159.8790  213.4810  150.6620 C   0  0  0  0  0  2  0  0  0  0  0  0
  159.5770  214.4000  149.4900 C   0  0  0  0  0  2  0  0  0  0  0  0
  158.7610  213.4760  148.1530 S   0  0  0  0  0  0  0  0  0  0  0  0
  160.2680  213.2850  147.2040 C   0  0  0  0  0  0  0  0  0  0  0  0
  160.3050  212.4800  146.2920 O   0  0  0  0  0  0  0  0  0  0  0  0
  161.4900  214.0680  147.5710 C   0  0  0  0  0  2  0  0  0  0  0  0
  162.6670  213.1610  147.8910 C   0  0  0  0  0  2  0  0  0  0  0  0
  162.1900  211.8100  148.3890 C   0  0  0  0  0  1  0  0  0  0  0  0
  157.5960  212.7510  153.6450 C   0  0  1  0  0  3  0  0  0  0  0  0
  157.8840  213.0070  155.1440 C   0  0  1  0  0  3  0  0  0  0  0  0
  158.9370  211.2240  156.4200 C   0  0  0  0  0  2  0  0  0  0  0  0
  159.9110  212.3770  156.3620 C   0  0  0  0  0  2  0  0  0  0  0  0
  157.6050  211.8500  156.0980 C   0  0  2  0  0  3  0  0  0  0  0  0
  159.3240  213.4070  155.4100 C   0  0  0  0  0  2  0  0  0  0  0  0
  156.5080  210.8600  155.7120 C   0  0  0  0  0  2  0  0  0  0  0  0
  155.2960  211.1720  156.3280 O   0  0  0  0  0  1  0  0  0  0  0  0
  156.6130  213.7760  153.0700 C   0  0  0  0  0  2  0  0  0  0  0  0
  155.6220  214.2050  154.1370 C   0  0  0  0  0  1  0  0  0  0  0  0
  160.8430  211.0160  153.0190 C   0  0  0  0  0  2  0  0  0  0  0  0
  161.2530  209.5560  153.1650 C   0  0  1  0  0  3  0  0  0  0  0  0
  160.7210  209.0360  154.3440 O   0  0  0  0  0  1  0  0  0  0  0  0
  160.7940  208.7210  151.9710 C   0  0  1  0  0  3  0  0  0  0  0  0
  161.4960  207.8710  149.9530 C   0  0  2  0  0  3  0  0  0  0  0  0
  161.6970  208.8950  150.8860 O   0  0  0  0  0  0  0  0  0  0  0  0
  162.0180  206.5490  150.5210 C   0  0  0  0  0  2  0  0  0  0  0  0
  161.8430  206.5440  152.0330 C   0  0  1  0  0  3  0  0  0  0  0  0
  160.6500  207.3110  152.3930 N   0  0  0  0  0  2  0  0  0  0  0  0
  162.2020  208.2210  148.6540 C   0  0  0  0  0  2  0  0  0  0  0  0
  161.5370  207.5220  147.4820 C   0  0  0  0  0  2  0  0  0  0  0  0
  161.5100  205.1810  147.2190 O   0  0  0  0  0  0  0  0  0  0  0  0
  162.1830  206.2030  147.2370 C   0  0  0  0  0  3  0  0  0  0  0  0
  161.7120  205.1190  152.5240 C   0  0  0  0  0  2  0  0  0  0  0  0
  161.9200  204.2000  151.4200 N   0  0  0  0  0  2  0  0  0  0  0  0
  161.1880  202.9880  151.7430 C   0  0  0  0  0  2  0  0  0  0  0  0
  160.8210  202.2860  150.4820 C   0  0  0  0  0  0  0  0  0  0  0  0
  160.0080  201.1600  150.5210 O   0  0  0  0  0  1  0  0  0  0  0  0
  161.2080  202.7420  149.3750 O   0  0  0  0  0  0  0  0  0  0  0  0
  1 22  1  0  0  0  0
  2  3  1  6  0  0  0
  2  1  1  0  0  0  0
  2 12  1  0  0  0  0
  4  3  1  0  0  0  0
  5  4  1  0  0  0  0
  6  5  1  0  0  0  0
  7  9  1  0  0  0  0
  7  6  1  0  0  0  0
  8  7  2  0  0  0  0
  9 10  1  0  0  0  0
 10 11  1  0  0  0  0
 12 20  1  6  0  0  0
 13 12  1  6  0  0  0
 13 17  1  0  0  0  0
 13 16  1  0  0  0  0
 15 14  1  0  0  0  0
 16 18  1  6  0  0  0
 16 14  1  0  0  0  0
 17 15  1  0  0  0  0
 18 19  1  0  0  0  0
 20 21  1  0  0  0  0
 22 23  1  0  0  0  0
 23 24  1  1  0  0  0
 25 30  1  0  0  0  0
 25 23  1  1  0  0  0
 26 31  1  6  0  0  0
 26 28  1  0  0  0  0
 26 27  1  0  0  0  0
 27 25  1  0  0  0  0
 28 29  1  0  0  0  0
 29 30  1  0  0  0  0
 29 35  1  6  0  0  0
 32 31  1  0  0  0  0
 33 34  2  0  0  0  0
 34 32  1  0  0  0  0
 36 37  1  0  0  0  0
 36 35  1  0  0  0  0
 38 39  1  0  0  0  0
 38 37  1  0  0  0  0
 40 38  2  0  0  0  0
M  END
>  <MODEL>
8

>  <REMARK>
 VINA RESULT:      -5.0      2.368      4.256
  Name = 
  22 active torsions:
  status: ('A' for Active; 'I' for Inactive)
    1  A    between atoms: C_1  and  C_11
    2  A    between atoms: C_2  and  C_14
    3  A    between atoms: C_2  and  C_19
    4  A    between atoms: C_2  and  C_25
    5  A    between atoms: C_3  and  C_26
    6  A    between atoms: C_4  and  C_15
    7  A    between atoms: C_4  and  N_38
    8  A    between atoms: C_5  and  C_26
    9  A    between atoms: C_5  and  C_36
   10  A    between atoms: C_7  and  C_9
   11  A    between atoms: C_7  and  C_14
   12  A    between atoms: C_8  and  C_28
   13  A    between atoms: C_9  and  C_11
   14  A    between atoms: S_10  and  C_29
   15  A    between atoms: S_10  and  C_35
   16  A    between atoms: C_12  and  C_21
   17  A    between atoms: C_12  and  C_35
   18  A    between atoms: C_14  and  C_21
   19  A    between atoms: C_16  and  C_32
   20  A    between atoms: C_27  and  C_29
   21  A    between atoms: C_27  and  C_33
   22  A    between atoms: C_28  and  N_38
                            x       y       z     vdW  Elec       q    Type
                         _______ _______ _______ _____ _____    ______ ____

>  <TORSDO>
F 22

$$$$
=
 OpenBabel11072410543D

 40 41  0  0  1  0  0  0  0  0999 V2000
  162.3650  208.9250  150.9680 C   0  0  0  0  0  2  0  0  0  0  0  0
  161.8310  210.1550  151.7110 C   0  0  1  0  0  3  0  0  0  0  0  0
  161.2290  211.1140  150.6920 C   0  0  0  0  0  2  0  0  0  0  0  0
  162.1840  211.3560  149.5300 C   0  0  0  0  0  2  0  0  0  0  0  0
  161.8020  212.6010  148.7470 C   0  0  0  0  0  2  0  0  0  0  0  0
  160.6400  212.1810  147.4130 S   0  0  0  0  0  0  0  0  0  0  0  0
  161.5510  213.0900  146.1690 C   0  0  0  0  0  0  0  0  0  0  0  0
  162.7380  213.3070  146.3310 O   0  0  0  0  0  0  0  0  0  0  0  0
  160.8430  213.6320  144.9660 C   0  0  0  0  0  2  0  0  0  0  0  0
  160.6540  212.5710  143.8950 C   0  0  0  0  0  2  0  0  0  0  0  0
  159.5030  212.9300  142.9740 C   0  0  0  0  0  1  0  0  0  0  0  0
  160.8460  209.7820  152.8390 C   0  0  1  0  0  3  0  0  0  0  0  0
  161.3690  208.7560  153.8720 C   0  0  1  0  0  3  0  0  0  0  0  0
  160.4960  208.8780  156.1400 C   0  0  0  0  0  2  0  0  0  0  0  0
  160.0350  207.5690  155.5460 C   0  0  0  0  0  2  0  0  0  0  0  0
  161.6590  209.2860  155.2720 C   0  0  2  0  0  3  0  0  0  0  0  0
  160.4230  207.5850  154.0750 C   0  0  0  0  0  2  0  0  0  0  0  0
  162.0740  210.7510  155.4050 C   0  0  0  0  0  2  0  0  0  0  0  0
  163.0000  210.9300  156.4320 O   0  0  0  0  0  1  0  0  0  0  0  0
  160.2290  211.0090  153.5170 C   0  0  0  0  0  2  0  0  0  0  0  0
  158.7490  211.0970  153.1920 C   0  0  0  0  0  1  0  0  0  0  0  0
  161.2550  208.1350  150.2890 C   0  0  0  0  0  2  0  0  0  0  0  0
  161.5310  208.0520  148.7940 C   0  0  1  0  0  3  0  0  0  0  0  0
  162.9070  208.0180  148.5720 O   0  0  0  0  0  1  0  0  0  0  0  0
  160.8710  206.8250  148.1660 C   0  0  1  0  0  3  0  0  0  0  0  0
  161.3290  204.8700  147.0470 C   0  0  2  0  0  3  0  0  0  0  0  0
  161.7970  206.1610  147.3160 O   0  0  0  0  0  0  0  0  0  0  0  0
  161.4550  204.0040  148.3030 C   0  0  0  0  0  2  0  0  0  0  0  0
  161.2700  204.8770  149.5380 C   0  0  1  0  0  3  0  0  0  0  0  0
  160.3340  205.9610  149.2390 N   0  0  0  0  0  2  0  0  0  0  0  0
  162.1180  204.2730  145.8940 C   0  0  0  0  0  2  0  0  0  0  0  0
  161.1790  203.7660  144.8130 C   0  0  0  0  0  2  0  0  0  0  0  0
  160.9330  201.5750  145.6400 O   0  0  0  0  0  0  0  0  0  0  0  0
  160.3790  202.6190  145.3250 C   0  0  0  0  0  3  0  0  0  0  0  0
  160.7420  204.0350  150.6780 C   0  0  0  0  0  2  0  0  0  0  0  0
  161.6360  202.9160  150.9160 N   0  0  0  0  0  2  0  0  0  0  0  0
  160.8030  201.7310  151.0210 C   0  0  0  0  0  2  0  0  0  0  0  0
  160.4600  201.2500  149.6540 C   0  0  0  0  0  0  0  0  0  0  0  0
  161.4220  200.6230  148.8730 O   0  0  0  0  0  0  0  0  0  0  0  0
  159.2830  201.3690  149.2250 O   0  0  0  0  0  1  0  0  0  0  0  0
  1  2  1  0  0  0  0
  2  3  1  6  0  0  0
  2 12  1  0  0  0  0
  4  3  1  0  0  0  0
  5  4  1  0  0  0  0
  6  5  1  0  0  0  0
  7  8  2  0  0  0  0
  7  6  1  0  0  0  0
  9  7  1  0  0  0  0
 10  9  1  0  0  0  0
 11 10  1  0  0  0  0
 12 20  1  1  0  0  0
 13 12  1  6  0  0  0
 13 17  1  0  0  0  0
 13 16  1  0  0  0  0
 15 14  1  0  0  0  0
 16 18  1  6  0  0  0
 16 14  1  0  0  0  0
 17 15  1  0  0  0  0
 18 19  1  0  0  0  0
 21 20  1  0  0  0  0
 22  1  1  0  0  0  0
 23 24  1  1  0  0  0
 23 22  1  0  0  0  0
 25 23  1  1  0  0  0
 25 30  1  0  0  0  0
 26 31  1  6  0  0  0
 26 27  1  0  0  0  0
 26 28  1  0  0  0  0
 27 25  1  0  0  0  0
 28 29  1  0  0  0  0
 29 35  1  1  0  0  0
 30 29  1  0  0  0  0
 32 34  1  0  0  0  0
 32 31  1  0  0  0  0
 34 33  2  0  0  0  0
 35 36  1  0  0  0  0
 36 37  1  0  0  0  0
 38 37  1  0  0  0  0
 39 38  2  0  0  0  0
 40 38  1  0  0  0  0
M  END
>  <MODEL>
9

>  <REMARK>
 VINA RESULT:      -4.8      2.627      4.434
  Name = 
  22 active torsions:
  status: ('A' for Active; 'I' for Inactive)
    1  A    between atoms: C_1  and  C_11
    2  A    between atoms: C_2  and  C_14
    3  A    between atoms: C_2  and  C_19
    4  A    between atoms: C_2  and  C_25
    5  A    between atoms: C_3  and  C_26
    6  A    between atoms: C_4  and  C_15
    7  A    between atoms: C_4  and  N_38
    8  A    between atoms: C_5  and  C_26
    9  A    between atoms: C_5  and  C_36
   10  A    between atoms: C_7  and  C_9
   11  A    between atoms: C_7  and  C_14
   12  A    between atoms: C_8  and  C_28
   13  A    between atoms: C_9  and  C_11
   14  A    between atoms: S_10  and  C_29
   15  A    between atoms: S_10  and  C_35
   16  A    between atoms: C_12  and  C_21
   17  A    between atoms: C_12  and  C_35
   18  A    between atoms: C_14  and  C_21
   19  A    between atoms: C_16  and  C_32
   20  A    between atoms: C_27  and  C_29
   21  A    between atoms: C_27  and  C_33
   22  A    between atoms: C_28  and  N_38
                            x       y       z     vdW  Elec       q    Type
                         _______ _______ _______ _____ _____    ______ ____

>  <TORSDO>
F 22

$$$$
