=
 OpenBabel11072414003D

 29 32  0  0  1  0  0  0  0  0999 V2000
  161.0390  210.0520  153.8890 C   0  0  2  0  0  3  0  0  0  0  0  0
  159.1590  211.6010  154.8100 C   0  0  2  0  0  3  0  0  0  0  0  0
  161.5410  210.0980  155.2490 N   0  0  0  0  0  0  0  0  0  0  0  0
  161.2670  211.0920  156.0200 C   0  0  0  0  0  3  0  0  0  0  0  0
  159.5630  210.4960  153.7940 C   0  0  1  0  0  3  0  0  0  0  0  0
  160.3900  212.1990  155.5190 C   0  0  0  0  0  2  0  0  0  0  0  0
  161.2650  208.6940  153.2810 C   0  0  0  0  0  0  0  0  0  0  0  0
  161.8280  204.8840  151.6440 N   0  0  0  0  0  1  0  0  0  0  0  0
  160.3720  207.6280  155.1320 O   0  0  0  0  0  0  0  0  0  0  0  0
  161.6400  206.1800  152.2020 C   0  0  0  0  0  0  0  0  0  0  0  0
  161.8440  208.5280  152.0080 C   0  0  0  0  0  0  0  0  0  0  0  0
  162.2460  209.6550  151.2340 N   0  0  0  0  0  1  0  0  0  0  0  0
  162.0190  207.2790  151.5040 N   0  0  0  0  0  0  0  0  0  0  0  0
  160.8880  207.5400  153.9840 C   0  0  0  0  0  0  0  0  0  0  0  0
  161.0790  206.3150  153.4310 N   0  0  0  0  0  2  0  0  0  0  0  0
  158.1830  211.0930  155.7900 N   0  0  0  0  0  0  0  0  0  0  0  0
  155.8210  211.6020  156.0150 C   0  0  0  0  0  2  0  0  0  0  0  0
  156.8770  210.9510  155.1420 C   0  0  0  0  0  2  0  0  0  0  0  0
  157.9890  212.1040  156.8260 C   0  0  0  0  0  2  0  0  0  0  0  0
  156.5480  212.0340  157.2570 C   0  0  0  0  0  2  0  0  0  0  0  0
  159.2840  210.9320  152.4970 O   0  0  0  0  0  0  0  0  0  0  0  0
  159.2800  212.3270  152.5760 C   0  0  0  0  0  2  0  0  0  0  0  0
  159.9690  212.9180  151.3610 C   0  0  0  0  0  2  0  0  0  0  0  0
  159.0730  213.9280  150.6600 C   0  0  1  0  0  3  0  0  0  0  0  0
  159.3320  213.9430  149.2190 C   0  0  0  0  0  0  0  0  0  0  0  0
  160.4110  214.2970  148.6740 O   0  0  0  0  0  0  0  0  0  0  0  0
  157.7230  213.5330  150.8020 O   0  0  0  0  0  0  0  0  0  0  0  0
  158.2080  213.5400  148.5000 N   0  0  0  0  0  0  0  0  0  0  0  0
  157.2150  213.2170  149.5080 C   0  0  0  0  0  3  0  0  0  0  0  0
  1  7  1  1  0  0  0
  1  3  1  0  0  0  0
  2  6  1  1  0  0  0
  2 16  1  0  0  0  0
  3  4  2  0  0  0  0
  5 21  1  6  0  0  0
  5  1  1  0  0  0  0
  5  2  1  0  0  0  0
  6  4  1  0  0  0  0
  7 14  1  0  0  0  0
  8 10  1  0  0  0  0
 10 15  1  0  0  0  0
 11  7  2  0  0  0  0
 12 11  1  0  0  0  0
 13 11  1  0  0  0  0
 13 10  2  0  0  0  0
 14  9  2  0  0  0  0
 15 14  1  0  0  0  0
 16 19  1  0  0  0  0
 17 20  1  0  0  0  0
 18 16  1  0  0  0  0
 18 17  1  0  0  0  0
 19 20  1  0  0  0  0
 21 22  1  0  0  0  0
 23 22  1  0  0  0  0
 24 27  1  0  0  0  0
 24 23  1  1  0  0  0
 25 24  1  0  0  0  0
 26 25  2  0  0  0  0
 28 25  1  0  0  0  0
 28 29  2  0  0  0  0
 29 27  1  0  0  0  0
M  END
>  <MODEL>
1

>  <REMARK>
 VINA RESULT:      -5.7      0.000      0.000
  Name = 
  6 active torsions:
  status: ('A' for Active; 'I' for Inactive)
    1  A    between atoms: C_1  and  C_4
    2  A    between atoms: C_2  and  C_18
    3  A    between atoms: C_2  and  O_20
    4  A    between atoms: N_3  and  C_11
    5  A    between atoms: C_15  and  C_18
    6  A    between atoms: O_20  and  C_26
                            x       y       z     vdW  Elec       q    Type
                         _______ _______ _______ _____ _____    ______ ____

>  <TORSDO>
F 6

$$$$
=
 OpenBabel11072414003D

 29 32  0  0  1  0  0  0  0  0999 V2000
  161.0120  210.0460  153.9090 C   0  0  2  0  0  3  0  0  0  0  0  0
  159.1470  211.6130  154.8280 C   0  0  2  0  0  3  0  0  0  0  0  0
  161.5260  210.1050  155.2630 N   0  0  0  0  0  0  0  0  0  0  0  0
  161.2630  211.1100  156.0250 C   0  0  0  0  0  3  0  0  0  0  0  0
  159.5370  210.4940  153.8220 C   0  0  1  0  0  3  0  0  0  0  0  0
  160.3870  212.2150  155.5190 C   0  0  0  0  0  2  0  0  0  0  0  0
  161.2270  208.6800  153.3150 C   0  0  0  0  0  0  0  0  0  0  0  0
  161.8890  204.9150  151.6110 N   0  0  0  0  0  1  0  0  0  0  0  0
  162.1410  209.5730  151.3850 O   0  0  0  0  0  0  0  0  0  0  0  0
  161.6610  206.1950  152.1900 C   0  0  0  0  0  0  0  0  0  0  0  0
  160.8690  207.5000  153.9960 C   0  0  0  0  0  0  0  0  0  0  0  0
  160.2800  207.5540  155.2930 N   0  0  0  0  0  1  0  0  0  0  0  0
  161.0920  206.2920  153.4170 N   0  0  0  0  0  0  0  0  0  0  0  0
  161.8080  208.5510  152.0440 C   0  0  0  0  0  0  0  0  0  0  0  0
  162.0140  207.3180  151.5140 N   0  0  0  0  0  2  0  0  0  0  0  0
  158.1780  211.1210  155.8220 N   0  0  0  0  0  0  0  0  0  0  0  0
  155.8080  211.6020  156.0310 C   0  0  0  0  0  2  0  0  0  0  0  0
  156.8740  210.9400  155.1790 C   0  0  0  0  0  2  0  0  0  0  0  0
  157.9680  212.1590  156.8280 C   0  0  0  0  0  2  0  0  0  0  0  0
  156.5280  212.0820  157.2600 C   0  0  0  0  0  2  0  0  0  0  0  0
  159.2480  210.9160  152.5220 O   0  0  0  0  0  0  0  0  0  0  0  0
  159.2400  212.3120  152.5870 C   0  0  0  0  0  2  0  0  0  0  0  0
  159.9710  212.8910  151.3910 C   0  0  0  0  0  2  0  0  0  0  0  0
  159.1070  213.9090  150.6610 C   0  0  1  0  0  3  0  0  0  0  0  0
  159.3810  213.8880  149.2220 C   0  0  0  0  0  0  0  0  0  0  0  0
  160.4740  214.2050  148.6820 O   0  0  0  0  0  0  0  0  0  0  0  0
  157.7470  213.5480  150.7950 O   0  0  0  0  0  0  0  0  0  0  0  0
  158.2560  213.4980  148.4990 N   0  0  0  0  0  0  0  0  0  0  0  0
  157.2450  213.2190  149.5030 C   0  0  0  0  0  3  0  0  0  0  0  0
  1  7  1  1  0  0  0
  1  3  1  0  0  0  0
  2  6  1  1  0  0  0
  2 16  1  0  0  0  0
  3  4  2  0  0  0  0
  5 21  1  6  0  0  0
  5  1  1  0  0  0  0
  5  2  1  0  0  0  0
  6  4  1  0  0  0  0
  7 11  2  0  0  0  0
  8 10  1  0  0  0  0
  9 14  2  0  0  0  0
 10 13  2  0  0  0  0
 11 12  1  0  0  0  0
 13 11  1  0  0  0  0
 14  7  1  0  0  0  0
 15 14  1  0  0  0  0
 15 10  1  0  0  0  0
 16 19  1  0  0  0  0
 17 20  1  0  0  0  0
 18 16  1  0  0  0  0
 18 17  1  0  0  0  0
 19 20  1  0  0  0  0
 21 22  1  0  0  0  0
 23 22  1  0  0  0  0
 24 27  1  0  0  0  0
 24 23  1  1  0  0  0
 25 24  1  0  0  0  0
 26 25  2  0  0  0  0
 28 25  1  0  0  0  0
 28 29  2  0  0  0  0
 29 27  1  0  0  0  0
M  END
>  <MODEL>
2

>  <REMARK>
 VINA RESULT:      -5.7      0.920      1.536
  Name = 
  6 active torsions:
  status: ('A' for Active; 'I' for Inactive)
    1  A    between atoms: C_1  and  C_4
    2  A    between atoms: C_2  and  C_18
    3  A    between atoms: C_2  and  O_20
    4  A    between atoms: N_3  and  C_11
    5  A    between atoms: C_15  and  C_18
    6  A    between atoms: O_20  and  C_26
                            x       y       z     vdW  Elec       q    Type
                         _______ _______ _______ _____ _____    ______ ____

>  <TORSDO>
F 6

$$$$
=
 OpenBabel11072414003D

 29 32  0  0  1  0  0  0  0  0999 V2000
  161.0330  210.0920  154.1040 C   0  0  2  0  0  3  0  0  0  0  0  0
  159.1840  211.6620  155.0510 C   0  0  2  0  0  3  0  0  0  0  0  0
  161.5310  210.0990  155.4650 N   0  0  0  0  0  0  0  0  0  0  0  0
  161.2750  211.0830  156.2560 C   0  0  0  0  0  3  0  0  0  0  0  0
  159.5670  210.5690  154.0130 C   0  0  1  0  0  3  0  0  0  0  0  0
  160.4250  212.2180  155.7760 C   0  0  0  0  0  2  0  0  0  0  0  0
  161.2320  208.7420  153.4680 C   0  0  0  0  0  0  0  0  0  0  0  0
  161.8500  205.0240  151.6500 N   0  0  0  0  0  1  0  0  0  0  0  0
  162.1840  209.6820  151.5790 O   0  0  0  0  0  0  0  0  0  0  0  0
  161.6370  206.2880  152.2680 C   0  0  0  0  0  0  0  0  0  0  0  0
  160.8460  207.5480  154.1060 C   0  0  0  0  0  0  0  0  0  0  0  0
  160.2420  207.5700  155.3980 N   0  0  0  0  0  1  0  0  0  0  0  0
  161.0550  206.3550  153.4910 N   0  0  0  0  0  0  0  0  0  0  0  0
  161.8260  208.6450  152.2010 C   0  0  0  0  0  0  0  0  0  0  0  0
  162.0180  207.4260  151.6330 N   0  0  0  0  0  2  0  0  0  0  0  0
  158.1940  211.1540  156.0170 N   0  0  0  0  0  0  0  0  0  0  0  0
  155.7810  211.4190  156.0310 C   0  0  0  0  0  2  0  0  0  0  0  0
  156.9620  210.8010  155.3060 C   0  0  0  0  0  2  0  0  0  0  0  0
  157.8180  212.2410  156.9180 C   0  0  0  0  0  2  0  0  0  0  0  0
  156.3630  212.0580  157.2610 C   0  0  0  0  0  2  0  0  0  0  0  0
  159.3020  211.0380  152.7250 O   0  0  0  0  0  0  0  0  0  0  0  0
  160.0420  212.2180  152.6080 C   0  0  0  0  0  2  0  0  0  0  0  0
  159.6720  212.9370  151.3250 C   0  0  0  0  0  2  0  0  0  0  0  0
  158.8650  214.1940  151.6160 C   0  0  1  0  0  3  0  0  0  0  0  0
  157.5950  214.1770  150.8870 C   0  0  0  0  0  0  0  0  0  0  0  0
  157.4720  214.2070  149.6340 O   0  0  0  0  0  0  0  0  0  0  0  0
  158.5180  214.2190  152.9860 O   0  0  0  0  0  0  0  0  0  0  0  0
  156.5110  214.1560  151.7610 N   0  0  0  0  0  0  0  0  0  0  0  0
  157.1000  214.1140  153.0870 C   0  0  0  0  0  3  0  0  0  0  0  0
  1  7  1  1  0  0  0
  1  3  1  0  0  0  0
  2  6  1  1  0  0  0
  2 16  1  0  0  0  0
  3  4  2  0  0  0  0
  5 21  1  6  0  0  0
  5  1  1  0  0  0  0
  5  2  1  0  0  0  0
  6  4  1  0  0  0  0
  7 11  2  0  0  0  0
  8 10  1  0  0  0  0
  9 14  2  0  0  0  0
 10 13  2  0  0  0  0
 11 12  1  0  0  0  0
 13 11  1  0  0  0  0
 14  7  1  0  0  0  0
 15 14  1  0  0  0  0
 15 10  1  0  0  0  0
 16 19  1  0  0  0  0
 17 20  1  0  0  0  0
 18 16  1  0  0  0  0
 18 17  1  0  0  0  0
 19 20  1  0  0  0  0
 22 21  1  0  0  0  0
 23 22  1  0  0  0  0
 24 23  1  1  0  0  0
 24 27  1  0  0  0  0
 25 24  1  0  0  0  0
 25 28  1  0  0  0  0
 26 25  2  0  0  0  0
 27 29  1  0  0  0  0
 28 29  2  0  0  0  0
M  END
>  <MODEL>
3

>  <REMARK>
 VINA RESULT:      -5.6      1.440      2.032
  Name = 
  6 active torsions:
  status: ('A' for Active; 'I' for Inactive)
    1  A    between atoms: C_1  and  C_4
    2  A    between atoms: C_2  and  C_18
    3  A    between atoms: C_2  and  O_20
    4  A    between atoms: N_3  and  C_11
    5  A    between atoms: C_15  and  C_18
    6  A    between atoms: O_20  and  C_26
                            x       y       z     vdW  Elec       q    Type
                         _______ _______ _______ _____ _____    ______ ____

>  <TORSDO>
F 6

$$$$
=
 OpenBabel11072414003D

 29 32  0  0  1  0  0  0  0  0999 V2000
  161.1630  210.1900  153.5600 C   0  0  2  0  0  3  0  0  0  0  0  0
  159.4520  211.6940  154.8210 C   0  0  2  0  0  3  0  0  0  0  0  0
  161.6600  209.8930  154.8900 N   0  0  0  0  0  0  0  0  0  0  0  0
  161.4890  210.7240  155.8580 C   0  0  0  0  0  3  0  0  0  0  0  0
  159.7420  210.7940  153.5870 C   0  0  1  0  0  3  0  0  0  0  0  0
  160.7360  211.9970  155.6190 C   0  0  0  0  0  2  0  0  0  0  0  0
  161.2480  208.9760  152.6750 C   0  0  0  0  0  0  0  0  0  0  0  0
  161.4230  205.5580  150.2650 N   0  0  0  0  0  1  0  0  0  0  0  0
  160.4820  207.5910  154.3640 O   0  0  0  0  0  0  0  0  0  0  0  0
  161.3670  206.7200  151.0850 C   0  0  0  0  0  0  0  0  0  0  0  0
  161.6880  209.0490  151.3390 C   0  0  0  0  0  0  0  0  0  0  0  0
  162.0770  210.2950  150.7640 N   0  0  0  0  0  1  0  0  0  0  0  0
  161.7390  207.9240  150.5810 N   0  0  0  0  0  0  0  0  0  0  0  0
  160.8750  207.7180  153.1730 C   0  0  0  0  0  0  0  0  0  0  0  0
  160.9390  206.6240  152.3700 N   0  0  0  0  0  2  0  0  0  0  0  0
  158.4240  211.0930  155.6880 N   0  0  0  0  0  0  0  0  0  0  0  0
  156.0870  211.6950  155.9500 C   0  0  0  0  0  2  0  0  0  0  0  0
  157.1290  211.1320  155.0030 C   0  0  0  0  0  2  0  0  0  0  0  0
  158.2570  211.9340  156.8700 C   0  0  0  0  0  2  0  0  0  0  0  0
  156.8030  211.8810  157.2590 C   0  0  0  0  0  2  0  0  0  0  0  0
  159.5160  211.5210  152.4170 O   0  0  0  0  0  0  0  0  0  0  0  0
  159.3260  212.8400  152.8400 C   0  0  0  0  0  2  0  0  0  0  0  0
  159.6520  213.7990  151.7120 C   0  0  0  0  0  2  0  0  0  0  0  0
  159.5390  213.1120  150.3590 C   0  0  1  0  0  3  0  0  0  0  0  0
  158.4070  213.6460  149.5980 C   0  0  0  0  0  0  0  0  0  0  0  0
  157.1940  213.5400  149.9210 O   0  0  0  0  0  0  0  0  0  0  0  0
  160.6880  213.4030  149.5890 O   0  0  0  0  0  0  0  0  0  0  0  0
  158.8350  214.2710  148.4290 N   0  0  0  0  0  0  0  0  0  0  0  0
  160.2830  214.1750  148.4620 C   0  0  0  0  0  3  0  0  0  0  0  0
  1  7  1  6  0  0  0
  1  5  1  0  0  0  0
  1  3  1  0  0  0  0
  2  6  1  1  0  0  0
  2 16  1  0  0  0  0
  3  4  2  0  0  0  0
  5 21  1  6  0  0  0
  5  2  1  0  0  0  0
  6  4  1  0  0  0  0
  7 14  1  0  0  0  0
  8 10  1  0  0  0  0
 10 15  1  0  0  0  0
 11  7  2  0  0  0  0
 12 11  1  0  0  0  0
 13 10  2  0  0  0  0
 13 11  1  0  0  0  0
 14  9  2  0  0  0  0
 15 14  1  0  0  0  0
 16 19  1  0  0  0  0
 17 20  1  0  0  0  0
 18 16  1  0  0  0  0
 18 17  1  0  0  0  0
 19 20  1  0  0  0  0
 21 22  1  0  0  0  0
 23 22  1  0  0  0  0
 24 23  1  1  0  0  0
 25 26  2  0  0  0  0
 25 24  1  0  0  0  0
 27 24  1  0  0  0  0
 28 29  2  0  0  0  0
 28 25  1  0  0  0  0
 29 27  1  0  0  0  0
M  END
>  <MODEL>
4

>  <REMARK>
 VINA RESULT:      -5.3      0.839      1.316
  Name = 
  6 active torsions:
  status: ('A' for Active; 'I' for Inactive)
    1  A    between atoms: C_1  and  C_4
    2  A    between atoms: C_2  and  C_18
    3  A    between atoms: C_2  and  O_20
    4  A    between atoms: N_3  and  C_11
    5  A    between atoms: C_15  and  C_18
    6  A    between atoms: O_20  and  C_26
                            x       y       z     vdW  Elec       q    Type
                         _______ _______ _______ _____ _____    ______ ____

>  <TORSDO>
F 6

$$$$
=
 OpenBabel11072414003D

 29 32  0  0  1  0  0  0  0  0999 V2000
  161.1180  210.1290  153.5890 C   0  0  2  0  0  3  0  0  0  0  0  0
  159.3840  211.6350  154.8180 C   0  0  2  0  0  3  0  0  0  0  0  0
  161.6040  209.8500  154.9260 N   0  0  0  0  0  0  0  0  0  0  0  0
  161.4180  210.6910  155.8850 C   0  0  0  0  0  3  0  0  0  0  0  0
  159.6920  210.7230  153.5960 C   0  0  1  0  0  3  0  0  0  0  0  0
  160.6580  211.9550  155.6240 C   0  0  0  0  0  2  0  0  0  0  0  0
  161.2190  208.9060  152.7180 C   0  0  0  0  0  0  0  0  0  0  0  0
  161.5620  205.5490  150.2430 N   0  0  0  0  0  1  0  0  0  0  0  0
  161.9560  210.1540  150.9130 O   0  0  0  0  0  0  0  0  0  0  0  0
  161.4420  206.6900  151.0840 C   0  0  0  0  0  0  0  0  0  0  0  0
  160.8930  207.6190  153.1880 C   0  0  0  0  0  0  0  0  0  0  0  0
  160.4460  207.4210  154.5280 N   0  0  0  0  0  1  0  0  0  0  0  0
  161.0090  206.5480  152.3620 N   0  0  0  0  0  0  0  0  0  0  0  0
  161.6580  209.0260  151.3900 C   0  0  0  0  0  0  0  0  0  0  0  0
  161.7630  207.9200  150.6080 N   0  0  0  0  0  2  0  0  0  0  0  0
  158.3520  211.0360  155.6820 N   0  0  0  0  0  0  0  0  0  0  0  0
  156.0150  211.6430  155.9340 C   0  0  0  0  0  2  0  0  0  0  0  0
  157.0600  211.0770  154.9910 C   0  0  0  0  0  2  0  0  0  0  0  0
  158.1820  211.8790  156.8620 C   0  0  0  0  0  2  0  0  0  0  0  0
  156.7260  211.8280  157.2450 C   0  0  0  0  0  2  0  0  0  0  0  0
  159.4730  211.4370  152.4160 O   0  0  0  0  0  0  0  0  0  0  0  0
  159.3200  212.7670  152.8190 C   0  0  0  0  0  2  0  0  0  0  0  0
  159.7060  213.6990  151.6870 C   0  0  0  0  0  2  0  0  0  0  0  0
  159.4630  213.0470  150.3340 C   0  0  1  0  0  3  0  0  0  0  0  0
  158.3590  213.7030  149.6300 C   0  0  0  0  0  0  0  0  0  0  0  0
  157.1570  213.7160  150.0080 O   0  0  0  0  0  0  0  0  0  0  0  0
  160.6010  213.2320  149.5150 O   0  0  0  0  0  0  0  0  0  0  0  0
  158.7960  214.2990  148.4490 N   0  0  0  0  0  0  0  0  0  0  0  0
  160.2270  214.0570  148.4150 C   0  0  0  0  0  3  0  0  0  0  0  0
  1  7  1  6  0  0  0
  1  5  1  0  0  0  0
  1  3  1  0  0  0  0
  2  6  1  1  0  0  0
  2 16  1  0  0  0  0
  3  4  2  0  0  0  0
  5 21  1  6  0  0  0
  5  2  1  0  0  0  0
  6  4  1  0  0  0  0
  7 11  2  0  0  0  0
  8 10  1  0  0  0  0
  9 14  2  0  0  0  0
 10 13  2  0  0  0  0
 11 12  1  0  0  0  0
 13 11  1  0  0  0  0
 14  7  1  0  0  0  0
 15 10  1  0  0  0  0
 15 14  1  0  0  0  0
 16 19  1  0  0  0  0
 17 20  1  0  0  0  0
 18 16  1  0  0  0  0
 18 17  1  0  0  0  0
 19 20  1  0  0  0  0
 21 22  1  0  0  0  0
 23 22  1  0  0  0  0
 24 23  1  1  0  0  0
 25 26  2  0  0  0  0
 25 24  1  0  0  0  0
 27 24  1  0  0  0  0
 28 25  1  0  0  0  0
 29 28  2  0  0  0  0
 29 27  1  0  0  0  0
M  END
>  <MODEL>
5

>  <REMARK>
 VINA RESULT:      -5.2      1.238      1.995
  Name = 
  6 active torsions:
  status: ('A' for Active; 'I' for Inactive)
    1  A    between atoms: C_1  and  C_4
    2  A    between atoms: C_2  and  C_18
    3  A    between atoms: C_2  and  O_20
    4  A    between atoms: N_3  and  C_11
    5  A    between atoms: C_15  and  C_18
    6  A    between atoms: O_20  and  C_26
                            x       y       z     vdW  Elec       q    Type
                         _______ _______ _______ _____ _____    ______ ____

>  <TORSDO>
F 6

$$$$
=
 OpenBabel11072414003D

 29 32  0  0  1  0  0  0  0  0999 V2000
  161.1200  213.1440  148.9870 C   0  0  2  0  0  3  0  0  0  0  0  0
  162.2950  212.6070  146.7260 C   0  0  2  0  0  3  0  0  0  0  0  0
  161.8680  214.3840  148.9130 N   0  0  0  0  0  0  0  0  0  0  0  0
  162.9670  214.4530  148.2450 C   0  0  0  0  0  3  0  0  0  0  0  0
  161.0370  212.4280  147.6210 C   0  0  1  0  0  3  0  0  0  0  0  0
  163.4610  213.2480  147.5050 C   0  0  0  0  0  2  0  0  0  0  0  0
  159.7610  213.3750  149.5910 C   0  0  0  0  0  0  0  0  0  0  0  0
  156.0200  214.0120  151.3550 N   0  0  0  0  0  1  0  0  0  0  0  0
  160.3930  212.3880  151.5880 O   0  0  0  0  0  0  0  0  0  0  0  0
  157.2910  213.7930  150.7540 C   0  0  0  0  0  0  0  0  0  0  0  0
  158.7200  214.0040  148.8810 C   0  0  0  0  0  0  0  0  0  0  0  0
  158.9140  214.4530  147.5420 N   0  0  0  0  0  1  0  0  0  0  0  0
  157.5150  214.1940  149.4770 N   0  0  0  0  0  0  0  0  0  0  0  0
  159.5010  212.9640  150.9080 C   0  0  0  0  0  0  0  0  0  0  0  0
  158.2790  213.1840  151.4580 N   0  0  0  0  0  2  0  0  0  0  0  0
  161.9810  213.3860  145.5150 N   0  0  0  0  0  0  0  0  0  0  0  0
  161.3140  212.6080  143.3150 C   0  0  0  0  0  2  0  0  0  0  0  0
  160.9100  212.7150  144.7730 C   0  0  0  0  0  2  0  0  0  0  0  0
  163.1390  213.3580  144.6260 C   0  0  0  0  0  2  0  0  0  0  0  0
  162.6200  213.3450  143.2120 C   0  0  0  0  0  2  0  0  0  0  0  0
  160.7940  211.0670  147.8160 O   0  0  0  0  0  0  0  0  0  0  0  0
  162.0150  210.5380  148.2420 C   0  0  0  0  0  2  0  0  0  0  0  0
  161.7910  209.5780  149.3950 C   0  0  0  0  0  2  0  0  0  0  0  0
  162.2970  208.1850  149.0530 C   0  0  1  0  0  3  0  0  0  0  0  0
  162.0180  207.2480  150.1440 C   0  0  0  0  0  0  0  0  0  0  0  0
  162.5110  207.3060  151.3010 O   0  0  0  0  0  0  0  0  0  0  0  0
  161.5870  207.6910  147.9350 O   0  0  0  0  0  0  0  0  0  0  0  0
  161.1460  206.2410  149.7340 N   0  0  0  0  0  0  0  0  0  0  0  0
  160.8230  206.5640  148.3560 C   0  0  0  0  0  3  0  0  0  0  0  0
  1  7  1  6  0  0  0
  2 16  1  6  0  0  0
  2  6  1  0  0  0  0
  2  5  1  0  0  0  0
  3  1  1  0  0  0  0
  4  3  2  0  0  0  0
  5 21  1  1  0  0  0
  5  1  1  0  0  0  0
  6  4  1  0  0  0  0
  7 14  1  0  0  0  0
 10  8  1  0  0  0  0
 10 15  1  0  0  0  0
 11 13  1  0  0  0  0
 11  7  2  0  0  0  0
 12 11  1  0  0  0  0
 13 10  2  0  0  0  0
 14 15  1  0  0  0  0
 14  9  2  0  0  0  0
 17 18  1  0  0  0  0
 18 16  1  0  0  0  0
 19 16  1  0  0  0  0
 20 17  1  0  0  0  0
 20 19  1  0  0  0  0
 21 22  1  0  0  0  0
 22 23  1  0  0  0  0
 24 23  1  1  0  0  0
 24 25  1  0  0  0  0
 25 26  2  0  0  0  0
 27 29  1  0  0  0  0
 27 24  1  0  0  0  0
 28 25  1  0  0  0  0
 29 28  2  0  0  0  0
M  END
>  <MODEL>
6

>  <REMARK>
 VINA RESULT:      -4.7      3.907      8.646
  Name = 
  6 active torsions:
  status: ('A' for Active; 'I' for Inactive)
    1  A    between atoms: C_1  and  C_4
    2  A    between atoms: C_2  and  C_18
    3  A    between atoms: C_2  and  O_20
    4  A    between atoms: N_3  and  C_11
    5  A    between atoms: C_15  and  C_18
    6  A    between atoms: O_20  and  C_26
                            x       y       z     vdW  Elec       q    Type
                         _______ _______ _______ _____ _____    ______ ____

>  <TORSDO>
F 6

$$$$
=
 OpenBabel11072414003D

 29 32  0  0  1  0  0  0  0  0999 V2000
  160.4320  211.5410  138.8210 C   0  0  2  0  0  3  0  0  0  0  0  0
  159.2510  213.3950  140.2170 C   0  0  2  0  0  3  0  0  0  0  0  0
  161.5330  212.4830  138.7730 N   0  0  0  0  0  0  0  0  0  0  0  0
  161.3250  213.7480  138.8980 C   0  0  0  0  0  3  0  0  0  0  0  0
  159.4240  211.8740  139.9420 C   0  0  1  0  0  3  0  0  0  0  0  0
  159.9330  214.2500  139.1310 C   0  0  0  0  0  2  0  0  0  0  0  0
  160.9410  210.1280  138.9160 C   0  0  0  0  0  0  0  0  0  0  0  0
  162.3790  206.2140  139.2690 N   0  0  0  0  0  1  0  0  0  0  0  0
  162.3110  210.6570  140.7050 O   0  0  0  0  0  0  0  0  0  0  0  0
  161.8920  207.5450  139.1460 C   0  0  0  0  0  0  0  0  0  0  0  0
  160.5050  209.1110  138.0450 C   0  0  0  0  0  0  0  0  0  0  0  0
  159.5490  209.3840  137.0220 N   0  0  0  0  0  1  0  0  0  0  0  0
  160.9910  207.8510  138.1790 N   0  0  0  0  0  0  0  0  0  0  0  0
  161.8780  209.7860  139.9030 C   0  0  0  0  0  0  0  0  0  0  0  0
  162.3280  208.5080  139.9980 N   0  0  0  0  0  2  0  0  0  0  0  0
  159.7470  213.7530  141.5570 N   0  0  0  0  0  0  0  0  0  0  0  0
  159.3420  212.6670  143.6890 C   0  0  0  0  0  2  0  0  0  0  0  0
  159.9910  212.5300  142.3260 C   0  0  0  0  0  2  0  0  0  0  0  0
  158.6870  214.4530  142.2780 C   0  0  0  0  0  2  0  0  0  0  0  0
  158.8010  214.0690  143.7290 C   0  0  0  0  0  2  0  0  0  0  0  0
  158.1810  211.3120  139.6420 O   0  0  0  0  0  0  0  0  0  0  0  0
  157.7090  212.0370  138.5450 C   0  0  0  0  0  2  0  0  0  0  0  0
  156.3540  211.5080  138.1160 C   0  0  0  0  0  2  0  0  0  0  0  0
  155.9850  210.2540  138.8950 C   0  0  1  0  0  3  0  0  0  0  0  0
  154.5440  210.2040  139.1480 C   0  0  0  0  0  0  0  0  0  0  0  0
  153.8980  211.0170  139.8610 O   0  0  0  0  0  0  0  0  0  0  0  0
  156.2750  209.1150  138.1090 O   0  0  0  0  0  0  0  0  0  0  0  0
  153.9590  209.1060  138.5200 N   0  0  0  0  0  0  0  0  0  0  0  0
  155.0460  208.4590  137.8080 C   0  0  0  0  0  3  0  0  0  0  0  0
  1  7  1  1  0  0  0
  1  5  1  0  0  0  0
  2  6  1  6  0  0  0
  2 16  1  0  0  0  0
  3  1  1  0  0  0  0
  3  4  2  0  0  0  0
  4  6  1  0  0  0  0
  5 21  1  6  0  0  0
  5  2  1  0  0  0  0
  7 14  1  0  0  0  0
 10  8  1  0  0  0  0
 10 15  1  0  0  0  0
 11 13  1  0  0  0  0
 11  7  2  0  0  0  0
 12 11  1  0  0  0  0
 13 10  2  0  0  0  0
 14 15  1  0  0  0  0
 14  9  2  0  0  0  0
 16 19  1  0  0  0  0
 16 18  1  0  0  0  0
 17 20  1  0  0  0  0
 18 17  1  0  0  0  0
 19 20  1  0  0  0  0
 22 21  1  0  0  0  0
 23 22  1  0  0  0  0
 24 23  1  6  0  0  0
 24 25  1  0  0  0  0
 25 26  2  0  0  0  0
 27 24  1  0  0  0  0
 28 25  1  0  0  0  0
 29 27  1  0  0  0  0
 29 28  2  0  0  0  0
M  END
>  <MODEL>
7

>  <REMARK>
 VINA RESULT:      -4.6     11.238     13.969
  Name = 
  6 active torsions:
  status: ('A' for Active; 'I' for Inactive)
    1  A    between atoms: C_1  and  C_4
    2  A    between atoms: C_2  and  C_18
    3  A    between atoms: C_2  and  O_20
    4  A    between atoms: N_3  and  C_11
    5  A    between atoms: C_15  and  C_18
    6  A    between atoms: O_20  and  C_26
                            x       y       z     vdW  Elec       q    Type
                         _______ _______ _______ _____ _____    ______ ____

>  <TORSDO>
F 6

$$$$
=
 OpenBabel11072414003D

 29 32  0  0  1  0  0  0  0  0999 V2000
  160.1590  212.0050  154.8440 C   0  0  2  0  0  3  0  0  0  0  0  0
  159.2450  213.2760  152.7630 C   0  0  2  0  0  3  0  0  0  0  0  0
  159.2060  212.8170  155.5760 N   0  0  0  0  0  0  0  0  0  0  0  0
  158.8150  213.9530  155.1130 C   0  0  0  0  0  3  0  0  0  0  0  0
  159.8520  211.9620  153.3310 C   0  0  1  0  0  3  0  0  0  0  0  0
  159.3220  214.4270  153.7850 C   0  0  0  0  0  2  0  0  0  0  0  0
  160.2590  210.6280  155.4430 C   0  0  0  0  0  0  0  0  0  0  0  0
  160.4550  206.7790  157.0750 N   0  0  0  0  0  1  0  0  0  0  0  0
  157.9570  210.3920  155.4880 O   0  0  0  0  0  0  0  0  0  0  0  0
  160.3890  208.0890  156.5230 C   0  0  0  0  0  0  0  0  0  0  0  0
  161.4970  210.0240  155.7350 C   0  0  0  0  0  0  0  0  0  0  0  0
  162.7230  210.7030  155.4730 N   0  0  0  0  0  1  0  0  0  0  0  0
  161.5310  208.7760  156.2690 N   0  0  0  0  0  0  0  0  0  0  0  0
  159.0940  209.8980  155.7210 C   0  0  0  0  0  0  0  0  0  0  0  0
  159.1840  208.6500  156.2490 N   0  0  0  0  0  2  0  0  0  0  0  0
  157.8590  213.0690  152.3080 N   0  0  0  0  0  0  0  0  0  0  0  0
  156.6930  214.0610  150.4250 C   0  0  0  0  0  2  0  0  0  0  0  0
  157.8160  213.1320  150.8450 C   0  0  0  0  0  2  0  0  0  0  0  0
  157.0430  214.1910  152.7640 C   0  0  0  0  0  2  0  0  0  0  0  0
  156.0070  214.4530  151.7040 C   0  0  0  0  0  2  0  0  0  0  0  0
  161.0130  211.6420  152.6230 O   0  0  0  0  0  0  0  0  0  0  0  0
  160.6200  210.6630  151.7060 C   0  0  0  0  0  2  0  0  0  0  0  0
  161.1820  209.3150  152.1140 C   0  0  0  0  0  2  0  0  0  0  0  0
  162.3310  208.9030  151.2060 C   0  0  1  0  0  3  0  0  0  0  0  0
  162.3040  207.4610  150.9520 C   0  0  0  0  0  0  0  0  0  0  0  0
  162.4710  206.5640  151.8200 O   0  0  0  0  0  0  0  0  0  0  0  0
  162.1700  209.5160  149.9420 O   0  0  0  0  0  0  0  0  0  0  0  0
  162.0990  207.1900  149.6010 N   0  0  0  0  0  0  0  0  0  0  0  0
  161.9470  208.4920  148.9770 C   0  0  0  0  0  3  0  0  0  0  0  0
  1  7  1  1  0  0  0
  1  3  1  0  0  0  0
  2 16  1  1  0  0  0
  2  5  1  0  0  0  0
  2  6  1  0  0  0  0
  4  3  2  0  0  0  0
  5 21  1  6  0  0  0
  5  1  1  0  0  0  0
  6  4  1  0  0  0  0
  7 14  1  0  0  0  0
  7 11  2  0  0  0  0
  9 14  2  0  0  0  0
 10  8  1  0  0  0  0
 11 13  1  0  0  0  0
 12 11  1  0  0  0  0
 13 10  2  0  0  0  0
 14 15  1  0  0  0  0
 15 10  1  0  0  0  0
 16 19  1  0  0  0  0
 17 18  1  0  0  0  0
 17 20  1  0  0  0  0
 18 16  1  0  0  0  0
 20 19  1  0  0  0  0
 22 23  1  0  0  0  0
 22 21  1  0  0  0  0
 24 23  1  1  0  0  0
 25 24  1  0  0  0  0
 25 26  2  0  0  0  0
 27 24  1  0  0  0  0
 28 25  1  0  0  0  0
 29 28  2  0  0  0  0
 29 27  1  0  0  0  0
M  END
>  <MODEL>
8

>  <REMARK>
 VINA RESULT:      -4.6      2.560      4.866
  Name = 
  6 active torsions:
  status: ('A' for Active; 'I' for Inactive)
    1  A    between atoms: C_1  and  C_4
    2  A    between atoms: C_2  and  C_18
    3  A    between atoms: C_2  and  O_20
    4  A    between atoms: N_3  and  C_11
    5  A    between atoms: C_15  and  C_18
    6  A    between atoms: O_20  and  C_26
                            x       y       z     vdW  Elec       q    Type
                         _______ _______ _______ _____ _____    ______ ____

>  <TORSDO>
F 6

$$$$
=
 OpenBabel11072414003D

 29 32  0  0  1  0  0  0  0  0999 V2000
  160.8350  207.3320  149.8770 C   0  0  2  0  0  3  0  0  0  0  0  0
  162.0530  206.8920  147.6170 C   0  0  2  0  0  3  0  0  0  0  0  0
  159.8930  206.3400  149.3940 N   0  0  0  0  0  0  0  0  0  0  0  0
  159.7470  206.1300  148.1320 C   0  0  0  0  0  3  0  0  0  0  0  0
  162.1790  207.2820  149.1170 C   0  0  1  0  0  3  0  0  0  0  0  0
  160.5840  206.8920  147.1510 C   0  0  0  0  0  2  0  0  0  0  0  0
  161.0190  207.2130  151.3660 C   0  0  0  0  0  0  0  0  0  0  0  0
  161.4780  206.9550  155.5170 N   0  0  0  0  0  1  0  0  0  0  0  0
  160.5210  209.4500  151.6870 O   0  0  0  0  0  0  0  0  0  0  0  0
  161.3250  207.0430  154.1050 C   0  0  0  0  0  0  0  0  0  0  0  0
  161.3730  205.9980  151.9840 C   0  0  0  0  0  0  0  0  0  0  0  0
  161.5750  204.8160  151.2140 N   0  0  0  0  0  1  0  0  0  0  0  0
  161.5200  205.9450  153.3330 N   0  0  0  0  0  0  0  0  0  0  0  0
  160.8310  208.3350  152.1870 C   0  0  0  0  0  0  0  0  0  0  0  0
  160.9840  208.2250  153.5320 N   0  0  0  0  0  2  0  0  0  0  0  0
  162.6890  205.5910  147.3500 N   0  0  0  0  0  0  0  0  0  0  0  0
  162.1830  203.9530  145.6320 C   0  0  0  0  0  2  0  0  0  0  0  0
  162.7090  205.3490  145.9050 C   0  0  0  0  0  2  0  0  0  0  0  0
  161.8460  204.5340  147.9040 C   0  0  0  0  0  2  0  0  0  0  0  0
  161.9580  203.3440  146.9880 C   0  0  0  0  0  2  0  0  0  0  0  0
  162.8270  208.5140  149.2250 O   0  0  0  0  0  0  0  0  0  0  0  0
  161.9560  209.4360  148.6360 C   0  0  0  0  0  2  0  0  0  0  0  0
  162.3310  210.8440  149.0540 C   0  0  0  0  0  2  0  0  0  0  0  0
  161.6100  211.8780  148.2020 C   0  0  1  0  0  3  0  0  0  0  0  0
  161.1910  213.0230  149.0150 C   0  0  0  0  0  0  0  0  0  0  0  0
  160.3490  212.9850  149.9500 O   0  0  0  0  0  0  0  0  0  0  0  0
  162.5060  212.4000  147.2420 O   0  0  0  0  0  0  0  0  0  0  0  0
  161.8250  214.1930  148.6040 N   0  0  0  0  0  0  0  0  0  0  0  0
  162.7070  213.7820  147.5260 C   0  0  0  0  0  3  0  0  0  0  0  0
  1  7  1  1  0  0  0
  2  6  1  1  0  0  0
  2  5  1  0  0  0  0
  3  1  1  0  0  0  0
  4  3  2  0  0  0  0
  5 21  1  6  0  0  0
  5  1  1  0  0  0  0
  6  4  1  0  0  0  0
  7 11  2  0  0  0  0
  7 14  1  0  0  0  0
  9 14  2  0  0  0  0
 10  8  1  0  0  0  0
 11 13  1  0  0  0  0
 12 11  1  0  0  0  0
 13 10  2  0  0  0  0
 14 15  1  0  0  0  0
 15 10  1  0  0  0  0
 16  2  1  0  0  0  0
 16 19  1  0  0  0  0
 17 18  1  0  0  0  0
 17 20  1  0  0  0  0
 18 16  1  0  0  0  0
 20 19  1  0  0  0  0
 22 23  1  0  0  0  0
 22 21  1  0  0  0  0
 24 25  1  0  0  0  0
 24 23  1  1  0  0  0
 25 26  2  0  0  0  0
 27 29  1  0  0  0  0
 27 24  1  0  0  0  0
 28 25  1  0  0  0  0
 29 28  2  0  0  0  0
M  END
>  <MODEL>
9

>  <REMARK>
 VINA RESULT:      -4.4      3.747      7.186
  Name = 
  6 active torsions:
  status: ('A' for Active; 'I' for Inactive)
    1  A    between atoms: C_1  and  C_4
    2  A    between atoms: C_2  and  C_18
    3  A    between atoms: C_2  and  O_20
    4  A    between atoms: N_3  and  C_11
    5  A    between atoms: C_15  and  C_18
    6  A    between atoms: O_20  and  C_26
                            x       y       z     vdW  Elec       q    Type
                         _______ _______ _______ _____ _____    ______ ____

>  <TORSDO>
F 6

$$$$
