=
 OpenBabel11072412503D

 52 58  0  0  1  0  0  0  0  0999 V2000
  161.2170  207.1220  152.6110 C   0  0  1  0  0  0  0  0  0  0  0  0
  160.3150  208.1880  152.5640 O   0  0  0  0  0  1  0  0  0  0  0  0
  161.5070  206.4420  151.3210 C   0  0  2  0  0  0  0  0  0  0  0  0
  162.3830  207.4040  151.8710 O   0  0  0  0  0  0  0  0  0  0  0  0
  161.4920  206.4230  153.9550 C   0  0  1  0  0  3  0  0  0  0  0  0
  162.2610  207.2620  154.8320 O   0  0  0  0  0  0  0  0  0  0  0  0
  161.0220  209.7630  157.0430 C   0  0  2  0  0  3  0  0  0  0  0  0
  161.6240  208.0420  155.7950 C   0  0  0  0  0  0  0  0  0  0  0  0
  162.0330  209.1970  156.1610 N   0  0  0  0  0  0  0  0  0  0  0  0
  159.4500  207.0870  155.3070 C   0  0  0  0  0  2  0  0  0  0  0  0
  160.1890  205.9300  154.6220 C   0  0  0  0  0  2  0  0  0  0  0  0
  159.8320  208.9020  156.9520 N   0  0  0  0  0  2  0  0  0  0  0  0
  160.3460  207.6570  156.3950 C   0  0  2  0  0  3  0  0  0  0  0  0
  158.3760  210.9270  155.6220 C   0  0  0  0  0  2  0  0  0  0  0  0
  159.5580  212.8900  155.7790 N   0  0  0  0  0  0  0  0  0  0  0  0
  160.5270  213.4040  156.7350 C   0  0  0  0  0  2  0  0  0  0  0  0
  158.2080  213.2360  155.8160 N   0  0  0  0  0  0  0  0  0  0  0  0
  160.6990  211.1710  156.6380 C   0  0  0  0  0  0  0  0  0  0  0  0
  161.1780  212.2020  157.2610 N   0  0  0  0  0  0  0  0  0  0  0  0
  157.5050  212.1530  155.7120 C   0  0  0  0  0  0  0  0  0  0  0  0
  159.7010  211.5170  155.6940 N   0  0  0  0  0  0  0  0  0  0  0  0
  155.9980  212.1670  155.7160 C   0  0  2  0  0  3  0  0  0  0  0  0
  155.5430  209.9250  155.1250 O   0  0  0  0  0  0  0  0  0  0  0  0
  155.4800  211.1000  154.8030 C   0  0  0  0  0  3  0  0  0  0  0  0
  155.4320  213.5200  155.2880 C   0  0  0  0  0  2  0  0  0  0  0  0
  156.3390  214.1410  153.1140 N   0  0  0  0  0  1  0  0  0  0  0  0
  155.1870  213.5700  153.7880 C   0  0  0  0  0  2  0  0  0  0  0  0
  160.8470  206.9410  150.0240 C   0  0  0  0  0  2  0  0  0  0  0  0
  163.2270  207.4300  149.3770 C   0  0  0  0  0  1  0  0  0  0  0  0
  161.7640  207.7060  149.0480 C   0  0  2  0  0  0  0  0  0  0  0  0
  161.9380  209.8860  147.9890 O   0  0  0  0  0  1  0  0  0  0  0  0
  162.0900  209.8770  150.3680 C   0  0  0  0  0  1  0  0  0  0  0  0
  161.4860  209.2230  149.1320 C   0  0  2  0  0  3  0  0  0  0  0  0
  161.5140  207.1870  147.6590 C   0  0  0  0  0  3  0  0  0  0  0  0
  160.3890  206.9170  147.2680 O   0  0  0  0  0  0  0  0  0  0  0  0
  162.0920  205.1570  151.3600 O   0  0  0  0  0  0  0  0  0  0  0  0
  161.5810  202.8390  151.6200 C   0  0  0  0  0  2  0  0  0  0  0  0
  161.1000  204.1820  151.1080 C   0  0  0  0  0  0  0  0  0  0  0  0
  160.3520  203.4730  152.2340 C   0  0  0  0  0  2  0  0  0  0  0  0
  160.6690  204.0340  149.7780 O   0  0  0  0  0  0  0  0  0  0  0  0
  159.3700  202.1900  149.3920 O   0  0  0  0  0  1  0  0  0  0  0  0
  160.6810  202.6630  149.4950 C   0  0  1  0  0  3  0  0  0  0  0  0
  161.2810  202.8800  145.9220 C   0  0  1  0  0  3  0  0  0  0  0  0
  161.4760  202.3740  148.2210 C   0  0  1  0  0  3  0  0  0  0  0  0
  161.7340  200.1620  147.3960 O   0  0  0  0  0  1  0  0  0  0  0  0
  160.8560  201.2440  147.4300 C   0  0  2  0  0  3  0  0  0  0  0  0
  161.4900  203.5310  147.2670 C   0  0  1  0  0  3  0  0  0  0  0  0
  160.5800  201.6760  146.1180 O   0  0  0  0  0  0  0  0  0  0  0  0
  160.4840  203.8050  145.0220 C   0  0  0  0  0  2  0  0  0  0  0  0
  159.5130  203.0780  144.3350 O   0  0  0  0  0  1  0  0  0  0  0  0
  162.7940  204.3300  147.3370 C   0  0  0  0  0  2  0  0  0  0  0  0
  163.4400  204.5340  145.9720 C   0  0  0  0  0  1  0  0  0  0  0  0
  1  2  1  6  0  0  0
  1  5  1  0  0  0  0
  3 28  1  6  0  0  0
  3 36  1  0  0  0  0
  3  4  1  0  0  0  0
  3  1  1  0  0  0  0
  4  1  1  0  0  0  0
  5 11  1  1  0  0  0
  5  6  1  0  0  0  0
  6  8  1  0  0  0  0
  7 18  1  6  0  0  0
  8  9  2  0  0  0  0
  8 13  1  0  0  0  0
  9  7  1  0  0  0  0
 11 10  1  0  0  0  0
 12  7  1  0  0  0  0
 13 10  1  6  0  0  0
 13 12  1  0  0  0  0
 14 21  1  0  0  0  0
 14 20  1  0  0  0  0
 15 17  1  0  0  0  0
 15 16  1  0  0  0  0
 16 19  1  0  0  0  0
 18 19  2  0  0  0  0
 20 22  1  0  0  0  0
 20 17  2  0  0  0  0
 21 15  1  0  0  0  0
 21 18  1  0  0  0  0
 22 24  1  6  0  0  0
 24 23  2  0  0  0  0
 25 22  1  0  0  0  0
 26 27  1  0  0  0  0
 27 25  1  0  0  0  0
 30 33  1  0  0  0  0
 30 29  1  1  0  0  0
 30 28  1  0  0  0  0
 31 33  1  0  0  0  0
 33 32  1  1  0  0  0
 34 30  1  0  0  0  0
 35 34  2  0  0  0  0
 37 39  1  0  0  0  0
 38 36  1  0  0  0  0
 38 37  1  0  0  0  0
 38 39  1  0  0  0  0
 40 38  1  0  0  0  0
 42 41  1  6  0  0  0
 42 40  1  0  0  0  0
 43 49  1  6  0  0  0
 43 48  1  0  0  0  0
 43 47  1  0  0  0  0
 44 42  1  1  0  0  0
 46 45  1  6  0  0  0
 46 44  1  0  0  0  0
 47 51  1  6  0  0  0
 47 44  1  0  0  0  0
 48 46  1  0  0  0  0
 50 49  1  0  0  0  0
 52 51  1  0  0  0  0
M  END
>  <MODEL>
1

>  <REMARK>
 VINA RESULT:      -5.4      0.000      0.000
  Name = 
  17 active torsions:
  status: ('A' for Active; 'I' for Inactive)
    1  A    between atoms: C_2  and  C_25
    2  A    between atoms: C_3  and  C_51
    3  A    between atoms: C_4  and  C_24
    4  A    between atoms: C_5  and  O_8
    5  A    between atoms: C_5  and  O_42
    6  A    between atoms: C_6  and  C_13
    7  A    between atoms: C_6  and  C_22
    8  A    between atoms: C_6  and  C_29
    9  A    between atoms: O_8  and  C_12
   10  A    between atoms: C_12  and  C_35
   11  A    between atoms: C_19  and  C_31
   12  A    between atoms: C_20  and  C_48
   13  A    between atoms: C_22  and  C_45
   14  A    between atoms: C_23  and  C_34
   15  A    between atoms: C_35  and  C_48
   16  A    between atoms: O_42  and  C_51
   17  A    between atoms: C_48  and  C_50
                            x       y       z     vdW  Elec       q    Type
                         _______ _______ _______ _____ _____    ______ ____

>  <TORSDO>
F 17

$$$$
=
 OpenBabel11072412503D

 52 58  0  0  1  0  0  0  0  0999 V2000
  161.8970  209.3380  148.6850 C   0  0  1  0  0  0  0  0  0  0  0  0
  160.8520  209.5520  147.7830 O   0  0  0  0  0  1  0  0  0  0  0  0
  161.9210  208.0200  149.3720 C   0  0  2  0  0  0  0  0  0  0  0  0
  162.7410  208.2950  148.2550 O   0  0  0  0  0  0  0  0  0  0  0  0
  162.6540  210.5470  149.2640 C   0  0  1  0  0  3  0  0  0  0  0  0
  163.1890  211.3760  148.2200 O   0  0  0  0  0  0  0  0  0  0  0  0
  161.5110  213.9910  146.4810 C   0  0  2  0  0  3  0  0  0  0  0  0
  162.4870  212.4990  147.7850 C   0  0  0  0  0  0  0  0  0  0  0  0
  162.4840  212.9130  146.5750 N   0  0  0  0  0  0  0  0  0  0  0  0
  160.7920  212.2550  149.5000 C   0  0  0  0  0  2  0  0  0  0  0  0
  161.7810  211.3530  150.2500 C   0  0  0  0  0  2  0  0  0  0  0  0
  160.7430  213.9970  147.7370 N   0  0  0  0  0  2  0  0  0  0  0  0
  161.5830  213.2460  148.6600 C   0  0  2  0  0  3  0  0  0  0  0  0
  162.2360  213.8750  143.3440 C   0  0  0  0  0  2  0  0  0  0  0  0
  159.9660  213.5690  143.1700 N   0  0  0  0  0  0  0  0  0  0  0  0
  158.9710  212.9380  144.0230 C   0  0  0  0  0  2  0  0  0  0  0  0
  160.5390  212.9220  142.0760 N   0  0  0  0  0  0  0  0  0  0  0  0
  160.6070  213.7840  145.3000 C   0  0  0  0  0  0  0  0  0  0  0  0
  159.5100  213.0990  145.3750 N   0  0  0  0  0  0  0  0  0  0  0  0
  161.8230  213.0860  142.1290 C   0  0  0  0  0  0  0  0  0  0  0  0
  160.9490  214.1250  143.9690 N   0  0  0  0  0  0  0  0  0  0  0  0
  162.7520  212.5130  141.0900 C   0  0  2  0  0  3  0  0  0  0  0  0
  164.0140  213.5900  139.4070 O   0  0  0  0  0  0  0  0  0  0  0  0
  162.9410  213.4990  139.9800 C   0  0  0  0  0  3  0  0  0  0  0  0
  162.2340  211.1950  140.5160 C   0  0  0  0  0  2  0  0  0  0  0  0
  161.0740  210.1360  138.6530 N   0  0  0  0  0  1  0  0  0  0  0  0
  161.5390  211.4070  139.1800 C   0  0  0  0  0  2  0  0  0  0  0  0
  160.8470  206.9660  149.0490 C   0  0  0  0  0  2  0  0  0  0  0  0
  160.4920  206.2130  146.6770 C   0  0  0  0  0  1  0  0  0  0  0  0
  161.2230  205.9190  147.9830 C   0  0  2  0  0  0  0  0  0  0  0  0
  161.5000  204.2040  149.6830 O   0  0  0  0  0  1  0  0  0  0  0  0
  161.1780  203.4130  147.4570 C   0  0  0  0  0  1  0  0  0  0  0  0
  160.8630  204.5000  148.4750 C   0  0  2  0  0  3  0  0  0  0  0  0
  162.6970  206.0360  147.7040 C   0  0  0  0  0  3  0  0  0  0  0  0
  163.2380  205.3770  146.8300 O   0  0  0  0  0  0  0  0  0  0  0  0
  162.7010  207.8900  150.5410 O   0  0  0  0  0  0  0  0  0  0  0  0
  160.9680  206.5150  151.4430 C   0  0  0  0  0  2  0  0  0  0  0  0
  161.8490  207.7310  151.6580 C   0  0  0  0  0  0  0  0  0  0  0  0
  161.9510  206.5280  152.5930 C   0  0  0  0  0  2  0  0  0  0  0  0
  161.0380  208.8230  152.0090 O   0  0  0  0  0  0  0  0  0  0  0  0
  162.2940  210.3850  153.1130 O   0  0  0  0  0  1  0  0  0  0  0  0
  161.4700  209.2670  153.2650 C   0  0  1  0  0  3  0  0  0  0  0  0
  159.7620  211.1580  155.8490 C   0  0  1  0  0  3  0  0  0  0  0  0
  160.2810  209.5730  154.1770 C   0  0  1  0  0  3  0  0  0  0  0  0
  159.5710  208.0390  155.8450 O   0  0  0  0  0  1  0  0  0  0  0  0
  160.5060  209.0360  155.5720 C   0  0  2  0  0  3  0  0  0  0  0  0
  160.0610  211.0440  154.3750 C   0  0  1  0  0  3  0  0  0  0  0  0
  160.3770  210.0790  156.5110 O   0  0  0  0  0  0  0  0  0  0  0  0
  160.3030  212.4710  156.3830 C   0  0  0  0  0  2  0  0  0  0  0  0
  159.7720  213.5340  155.6550 O   0  0  0  0  0  1  0  0  0  0  0  0
  158.9280  211.5880  153.5010 C   0  0  0  0  0  2  0  0  0  0  0  0
  157.5540  211.4190  154.1380 C   0  0  0  0  0  1  0  0  0  0  0  0
  1  2  1  6  0  0  0
  1  5  1  0  0  0  0
  1  3  1  0  0  0  0
  3 28  1  6  0  0  0
  3 36  1  0  0  0  0
  4  1  1  0  0  0  0
  4  3  1  0  0  0  0
  5 11  1  6  0  0  0
  6  5  1  0  0  0  0
  7 18  1  6  0  0  0
  7  9  1  0  0  0  0
  7 12  1  0  0  0  0
  8  6  1  0  0  0  0
  8 13  1  0  0  0  0
  9  8  2  0  0  0  0
 10 11  1  0  0  0  0
 12 13  1  0  0  0  0
 13 10  1  6  0  0  0
 14 21  1  0  0  0  0
 15 21  1  0  0  0  0
 15 16  1  0  0  0  0
 16 19  1  0  0  0  0
 17 20  2  0  0  0  0
 17 15  1  0  0  0  0
 18 19  2  0  0  0  0
 20 14  1  0  0  0  0
 21 18  1  0  0  0  0
 22 24  1  6  0  0  0
 22 20  1  0  0  0  0
 23 24  2  0  0  0  0
 25 22  1  0  0  0  0
 26 27  1  0  0  0  0
 27 25  1  0  0  0  0
 30 29  1  6  0  0  0
 30 33  1  0  0  0  0
 30 28  1  0  0  0  0
 33 32  1  6  0  0  0
 33 31  1  0  0  0  0
 34 30  1  0  0  0  0
 35 34  2  0  0  0  0
 36 38  1  0  0  0  0
 37 38  1  0  0  0  0
 37 39  1  0  0  0  0
 38 40  1  0  0  0  0
 38 39  1  0  0  0  0
 40 42  1  0  0  0  0
 42 41  1  6  0  0  0
 43 49  1  1  0  0  0
 43 48  1  0  0  0  0
 44 42  1  6  0  0  0
 44 47  1  0  0  0  0
 44 46  1  0  0  0  0
 46 45  1  1  0  0  0
 46 48  1  0  0  0  0
 47 51  1  6  0  0  0
 47 43  1  0  0  0  0
 50 49  1  0  0  0  0
 51 52  1  0  0  0  0
M  END
>  <MODEL>
2

>  <REMARK>
 VINA RESULT:      -5.1      5.604     10.427
  Name = 
  17 active torsions:
  status: ('A' for Active; 'I' for Inactive)
    1  A    between atoms: C_2  and  C_25
    2  A    between atoms: C_3  and  C_51
    3  A    between atoms: C_4  and  C_24
    4  A    between atoms: C_5  and  O_8
    5  A    between atoms: C_5  and  O_42
    6  A    between atoms: C_6  and  C_13
    7  A    between atoms: C_6  and  C_22
    8  A    between atoms: C_6  and  C_29
    9  A    between atoms: O_8  and  C_12
   10  A    between atoms: C_12  and  C_35
   11  A    between atoms: C_19  and  C_31
   12  A    between atoms: C_20  and  C_48
   13  A    between atoms: C_22  and  C_45
   14  A    between atoms: C_23  and  C_34
   15  A    between atoms: C_35  and  C_48
   16  A    between atoms: O_42  and  C_51
   17  A    between atoms: C_48  and  C_50
                            x       y       z     vdW  Elec       q    Type
                         _______ _______ _______ _____ _____    ______ ____

>  <TORSDO>
F 17

$$$$
=
 OpenBabel11072412503D

 52 58  0  0  1  0  0  0  0  0999 V2000
  161.8560  209.8570  148.4720 C   0  0  1  0  0  0  0  0  0  0  0  0
  160.8750  209.9050  147.4780 O   0  0  0  0  0  1  0  0  0  0  0  0
  161.9040  208.6220  149.2970 C   0  0  2  0  0  0  0  0  0  0  0  0
  162.7930  208.8360  148.2200 O   0  0  0  0  0  0  0  0  0  0  0  0
  162.4910  211.1680  148.9710 C   0  0  1  0  0  3  0  0  0  0  0  0
  163.0910  211.9020  147.8910 O   0  0  0  0  0  0  0  0  0  0  0  0
  161.4780  214.1930  145.6930 C   0  0  2  0  0  3  0  0  0  0  0  0
  162.3850  212.9230  147.2570 C   0  0  0  0  0  0  0  0  0  0  0  0
  162.4870  213.1920  146.0110 N   0  0  0  0  0  0  0  0  0  0  0  0
  160.5350  212.7780  148.8170 C   0  0  0  0  0  2  0  0  0  0  0  0
  161.4830  212.0290  149.7630 C   0  0  0  0  0  2  0  0  0  0  0  0
  160.5850  214.2980  146.8590 N   0  0  0  0  0  2  0  0  0  0  0  0
  161.3610  213.7100  147.9440 C   0  0  2  0  0  3  0  0  0  0  0  0
  162.3100  214.4510  142.5910 C   0  0  0  0  0  2  0  0  0  0  0  0
  160.2320  213.5180  142.3000 N   0  0  0  0  0  0  0  0  0  0  0  0
  159.4330  212.5850  143.0790 C   0  0  0  0  0  2  0  0  0  0  0  0
  161.0020  213.1190  141.2080 N   0  0  0  0  0  0  0  0  0  0  0  0
  160.7130  213.7970  144.4640 C   0  0  0  0  0  0  0  0  0  0  0  0
  159.8580  212.8230  144.4610 N   0  0  0  0  0  0  0  0  0  0  0  0
  162.1820  213.6420  141.3270 C   0  0  0  0  0  0  0  0  0  0  0  0
  160.9850  214.2900  143.1650 N   0  0  0  0  0  0  0  0  0  0  0  0
  163.2700  213.4130  140.3110 C   0  0  2  0  0  3  0  0  0  0  0  0
  163.9410  214.4400  138.2910 O   0  0  0  0  0  0  0  0  0  0  0  0
  163.0770  214.3320  139.1460 C   0  0  0  0  0  3  0  0  0  0  0  0
  163.3050  211.9680  139.8170 C   0  0  0  0  0  2  0  0  0  0  0  0
  162.8400  211.0680  137.6010 N   0  0  0  0  0  1  0  0  0  0  0  0
  162.2450  211.7180  138.7550 C   0  0  0  0  0  2  0  0  0  0  0  0
  160.9240  207.4700  149.0130 C   0  0  0  0  0  2  0  0  0  0  0  0
  162.9780  206.1250  148.4710 C   0  0  0  0  0  1  0  0  0  0  0  0
  161.4860  206.2870  148.2000 C   0  0  2  0  0  0  0  0  0  0  0  0
  159.9170  206.2910  146.3440 O   0  0  0  0  0  1  0  0  0  0  0  0
  162.1540  205.6660  145.8060 C   0  0  0  0  0  1  0  0  0  0  0  0
  161.2510  206.5160  146.6910 C   0  0  2  0  0  3  0  0  0  0  0  0
  160.8100  205.0270  148.6680 C   0  0  0  0  0  3  0  0  0  0  0  0
  161.3390  204.2760  149.4720 O   0  0  0  0  0  0  0  0  0  0  0  0
  162.5940  208.6670  150.5280 O   0  0  0  0  0  0  0  0  0  0  0  0
  160.7940  207.3130  151.3220 C   0  0  0  0  0  2  0  0  0  0  0  0
  161.6720  208.5200  151.5890 C   0  0  0  0  0  0  0  0  0  0  0  0
  161.7020  207.3200  152.5320 C   0  0  0  0  0  2  0  0  0  0  0  0
  160.8520  209.6220  151.8840 O   0  0  0  0  0  0  0  0  0  0  0  0
  162.5990  210.4310  153.1210 O   0  0  0  0  0  1  0  0  0  0  0  0
  161.2420  210.0980  153.1420 C   0  0  1  0  0  3  0  0  0  0  0  0
  158.3320  211.6140  154.6930 C   0  0  1  0  0  3  0  0  0  0  0  0
  160.3840  211.2900  153.5680 C   0  0  1  0  0  3  0  0  0  0  0  0
  159.3790  212.7270  151.9670 O   0  0  0  0  0  1  0  0  0  0  0  0
  159.2280  211.5020  152.6150 C   0  0  2  0  0  3  0  0  0  0  0  0
  159.7310  211.0910  154.9040 C   0  0  1  0  0  3  0  0  0  0  0  0
  158.0130  211.4870  153.3280 O   0  0  0  0  0  0  0  0  0  0  0  0
  157.3530  210.8140  155.5310 C   0  0  0  0  0  2  0  0  0  0  0  0
  156.0780  210.8920  154.9760 O   0  0  0  0  0  1  0  0  0  0  0  0
  160.4690  211.8230  156.0280 C   0  0  0  0  0  2  0  0  0  0  0  0
  161.6620  211.0400  156.5630 C   0  0  0  0  0  1  0  0  0  0  0  0
  1  2  1  6  0  0  0
  1  5  1  0  0  0  0
  1  3  1  0  0  0  0
  3 28  1  6  0  0  0
  3 36  1  0  0  0  0
  4  1  1  0  0  0  0
  4  3  1  0  0  0  0
  5 11  1  6  0  0  0
  6  5  1  0  0  0  0
  7 18  1  6  0  0  0
  7  9  1  0  0  0  0
  7 12  1  0  0  0  0
  8  6  1  0  0  0  0
  8 13  1  0  0  0  0
  9  8  2  0  0  0  0
 10 11  1  0  0  0  0
 12 13  1  0  0  0  0
 13 10  1  1  0  0  0
 14 21  1  0  0  0  0
 15 16  1  0  0  0  0
 15 21  1  0  0  0  0
 16 19  1  0  0  0  0
 17 20  2  0  0  0  0
 17 15  1  0  0  0  0
 19 18  2  0  0  0  0
 20 14  1  0  0  0  0
 21 18  1  0  0  0  0
 22 24  1  6  0  0  0
 22 20  1  0  0  0  0
 23 24  2  0  0  0  0
 25 22  1  0  0  0  0
 26 27  1  0  0  0  0
 27 25  1  0  0  0  0
 30 29  1  1  0  0  0
 30 34  1  0  0  0  0
 30 28  1  0  0  0  0
 31 33  1  0  0  0  0
 33 32  1  6  0  0  0
 33 30  1  0  0  0  0
 34 35  2  0  0  0  0
 36 38  1  0  0  0  0
 37 38  1  0  0  0  0
 37 39  1  0  0  0  0
 38 40  1  0  0  0  0
 38 39  1  0  0  0  0
 40 42  1  0  0  0  0
 42 41  1  6  0  0  0
 43 47  1  0  0  0  0
 43 49  1  1  0  0  0
 44 42  1  6  0  0  0
 44 47  1  0  0  0  0
 46 45  1  1  0  0  0
 46 48  1  0  0  0  0
 46 44  1  0  0  0  0
 47 51  1  1  0  0  0
 48 43  1  0  0  0  0
 50 49  1  0  0  0  0
 51 52  1  0  0  0  0
M  END
>  <MODEL>
3

>  <REMARK>
 VINA RESULT:      -5.1      6.100     10.904
  Name = 
  17 active torsions:
  status: ('A' for Active; 'I' for Inactive)
    1  A    between atoms: C_2  and  C_25
    2  A    between atoms: C_3  and  C_51
    3  A    between atoms: C_4  and  C_24
    4  A    between atoms: C_5  and  O_8
    5  A    between atoms: C_5  and  O_42
    6  A    between atoms: C_6  and  C_13
    7  A    between atoms: C_6  and  C_22
    8  A    between atoms: C_6  and  C_29
    9  A    between atoms: O_8  and  C_12
   10  A    between atoms: C_12  and  C_35
   11  A    between atoms: C_19  and  C_31
   12  A    between atoms: C_20  and  C_48
   13  A    between atoms: C_22  and  C_45
   14  A    between atoms: C_23  and  C_34
   15  A    between atoms: C_35  and  C_48
   16  A    between atoms: O_42  and  C_51
   17  A    between atoms: C_48  and  C_50
                            x       y       z     vdW  Elec       q    Type
                         _______ _______ _______ _____ _____    ______ ____

>  <TORSDO>
F 17

$$$$
=
 OpenBabel11072412503D

 52 58  0  0  1  0  0  0  0  0999 V2000
  161.7930  210.5710  148.7170 C   0  0  1  0  0  0  0  0  0  0  0  0
  160.8650  210.3140  147.7050 O   0  0  0  0  0  1  0  0  0  0  0  0
  161.8720  209.5700  149.8130 C   0  0  2  0  0  0  0  0  0  0  0  0
  162.8020  209.5900  148.7500 O   0  0  0  0  0  0  0  0  0  0  0  0
  162.3170  212.0050  148.9140 C   0  0  1  0  0  3  0  0  0  0  0  0
  162.9650  212.4910  147.7280 O   0  0  0  0  0  0  0  0  0  0  0  0
  161.4220  214.0570  144.9270 C   0  0  2  0  0  3  0  0  0  0  0  0
  162.2620  213.2740  146.8140 C   0  0  0  0  0  0  0  0  0  0  0  0
  162.4510  213.2370  145.5500 N   0  0  0  0  0  0  0  0  0  0  0  0
  160.3020  213.3890  148.2350 C   0  0  0  0  0  2  0  0  0  0  0  0
  161.2070  212.9620  149.3990 C   0  0  0  0  0  2  0  0  0  0  0  0
  160.4330  214.3820  145.9680 N   0  0  0  0  0  2  0  0  0  0  0  0
  161.1470  214.1340  147.2130 C   0  0  2  0  0  3  0  0  0  0  0  0
  162.1540  214.0980  141.7890 C   0  0  0  0  0  2  0  0  0  0  0  0
  160.3800  212.6410  141.6960 N   0  0  0  0  0  0  0  0  0  0  0  0
  159.8460  211.6510  142.6180 C   0  0  0  0  0  2  0  0  0  0  0  0
  161.2240  212.3070  140.6380 N   0  0  0  0  0  0  0  0  0  0  0  0
  160.7790  213.3200  143.7880 C   0  0  0  0  0  0  0  0  0  0  0  0
  160.2000  212.1710  143.9410 N   0  0  0  0  0  0  0  0  0  0  0  0
  162.2330  213.1200  140.6460 C   0  0  0  0  0  0  0  0  0  0  0  0
  160.9150  213.6870  142.4270 N   0  0  0  0  0  0  0  0  0  0  0  0
  163.3420  213.0380  139.6290 C   0  0  2  0  0  3  0  0  0  0  0  0
  165.2630  214.4060  139.7830 O   0  0  0  0  0  0  0  0  0  0  0  0
  164.0640  214.3470  139.5620 C   0  0  0  0  0  3  0  0  0  0  0  0
  162.8250  212.6710  138.2390 C   0  0  0  0  0  2  0  0  0  0  0  0
  162.0970  210.3930  137.7740 N   0  0  0  0  0  1  0  0  0  0  0  0
  163.2540  211.2680  137.8400 C   0  0  0  0  0  2  0  0  0  0  0  0
  160.9820  208.3150  149.7740 C   0  0  0  0  0  2  0  0  0  0  0  0
  162.7750  206.9680  148.6390 C   0  0  0  0  0  1  0  0  0  0  0  0
  161.7190  206.9620  149.7390 C   0  0  2  0  0  0  0  0  0  0  0  0
  160.2890  205.2480  150.7000 O   0  0  0  0  0  1  0  0  0  0  0  0
  161.2650  204.7190  148.5900 C   0  0  0  0  0  1  0  0  0  0  0  0
  160.7160  205.8130  149.4960 C   0  0  2  0  0  3  0  0  0  0  0  0
  162.4410  206.7820  151.0470 C   0  0  0  0  0  3  0  0  0  0  0  0
  163.5310  206.2340  151.1070 O   0  0  0  0  0  0  0  0  0  0  0  0
  162.4920  209.9520  151.0230 O   0  0  0  0  0  0  0  0  0  0  0  0
  161.2220  211.3630  152.4720 C   0  0  0  0  0  2  0  0  0  0  0  0
  161.5370  209.9370  152.0650 C   0  0  0  0  0  0  0  0  0  0  0  0
  160.1290  210.4980  151.8840 C   0  0  0  0  0  2  0  0  0  0  0  0
  161.8520  209.1940  153.2160 O   0  0  0  0  0  0  0  0  0  0  0  0
  160.6920  207.2270  153.3510 O   0  0  0  0  0  1  0  0  0  0  0  0
  160.6660  208.5910  153.6510 C   0  0  1  0  0  3  0  0  0  0  0  0
  161.7280  209.6320  156.9620 C   0  0  1  0  0  3  0  0  0  0  0  0
  160.4490  208.8260  155.1470 C   0  0  1  0  0  3  0  0  0  0  0  0
  160.0350  207.0250  156.6380 O   0  0  0  0  0  1  0  0  0  0  0  0
  161.0500  207.7100  155.9710 C   0  0  2  0  0  3  0  0  0  0  0  0
  161.1300  210.0660  155.6460 C   0  0  1  0  0  3  0  0  0  0  0  0
  161.9580  208.2450  156.9070 O   0  0  0  0  0  0  0  0  0  0  0  0
  163.0350  210.3650  157.1990 C   0  0  0  0  0  2  0  0  0  0  0  0
  163.5790  210.7710  155.9830 O   0  0  0  0  0  1  0  0  0  0  0  0
  160.1620  211.2420  155.8000 C   0  0  0  0  0  2  0  0  0  0  0  0
  158.7570  210.8060  156.1950 C   0  0  0  0  0  1  0  0  0  0  0  0
  1  2  1  6  0  0  0
  1  4  1  0  0  0  0
  1  5  1  0  0  0  0
  1  3  1  0  0  0  0
  3 28  1  1  0  0  0
  3 36  1  0  0  0  0
  4  3  1  0  0  0  0
  5 11  1  6  0  0  0
  6  5  1  0  0  0  0
  7 18  1  6  0  0  0
  7  9  1  0  0  0  0
  7 12  1  0  0  0  0
  8 13  1  0  0  0  0
  8  6  1  0  0  0  0
  9  8  2  0  0  0  0
 10 11  1  0  0  0  0
 12 13  1  0  0  0  0
 13 10  1  1  0  0  0
 14 21  1  0  0  0  0
 15 21  1  0  0  0  0
 15 16  1  0  0  0  0
 16 19  1  0  0  0  0
 17 20  2  0  0  0  0
 17 15  1  0  0  0  0
 18 19  2  0  0  0  0
 20 14  1  0  0  0  0
 21 18  1  0  0  0  0
 22 25  1  6  0  0  0
 22 20  1  0  0  0  0
 24 22  1  0  0  0  0
 24 23  2  0  0  0  0
 26 27  1  0  0  0  0
 27 25  1  0  0  0  0
 30 29  1  6  0  0  0
 30 28  1  0  0  0  0
 30 34  1  0  0  0  0
 33 32  1  6  0  0  0
 33 30  1  0  0  0  0
 33 31  1  0  0  0  0
 34 35  2  0  0  0  0
 36 38  1  0  0  0  0
 38 37  1  0  0  0  0
 38 40  1  0  0  0  0
 39 38  1  0  0  0  0
 39 37  1  0  0  0  0
 40 42  1  0  0  0  0
 42 41  1  1  0  0  0
 43 49  1  6  0  0  0
 44 42  1  6  0  0  0
 44 47  1  0  0  0  0
 44 46  1  0  0  0  0
 46 45  1  1  0  0  0
 46 48  1  0  0  0  0
 47 51  1  1  0  0  0
 47 43  1  0  0  0  0
 48 43  1  0  0  0  0
 50 49  1  0  0  0  0
 51 52  1  0  0  0  0
M  END
>  <MODEL>
4

>  <REMARK>
 VINA RESULT:      -5.0      6.294     11.227
  Name = 
  17 active torsions:
  status: ('A' for Active; 'I' for Inactive)
    1  A    between atoms: C_2  and  C_25
    2  A    between atoms: C_3  and  C_51
    3  A    between atoms: C_4  and  C_24
    4  A    between atoms: C_5  and  O_8
    5  A    between atoms: C_5  and  O_42
    6  A    between atoms: C_6  and  C_13
    7  A    between atoms: C_6  and  C_22
    8  A    between atoms: C_6  and  C_29
    9  A    between atoms: O_8  and  C_12
   10  A    between atoms: C_12  and  C_35
   11  A    between atoms: C_19  and  C_31
   12  A    between atoms: C_20  and  C_48
   13  A    between atoms: C_22  and  C_45
   14  A    between atoms: C_23  and  C_34
   15  A    between atoms: C_35  and  C_48
   16  A    between atoms: O_42  and  C_51
   17  A    between atoms: C_48  and  C_50
                            x       y       z     vdW  Elec       q    Type
                         _______ _______ _______ _____ _____    ______ ____

>  <TORSDO>
F 17

$$$$
=
 OpenBabel11072412503D

 52 58  0  0  1  0  0  0  0  0999 V2000
  161.4910  209.3030  152.2750 C   0  0  1  0  0  0  0  0  0  0  0  0
  160.4420  210.1770  151.9800 O   0  0  0  0  0  1  0  0  0  0  0  0
  161.7820  208.2520  151.2650 C   0  0  2  0  0  0  0  0  0  0  0  0
  162.5460  209.4360  151.3520 O   0  0  0  0  0  0  0  0  0  0  0  0
  161.9620  209.1530  153.7340 C   0  0  1  0  0  3  0  0  0  0  0  0
  161.8010  210.3800  154.4630 O   0  0  0  0  0  0  0  0  0  0  0  0
  158.8700  211.5180  156.1330 C   0  0  2  0  0  3  0  0  0  0  0  0
  160.6670  210.5890  155.2440 C   0  0  0  0  0  0  0  0  0  0  0  0
  160.1110  211.7310  155.4020 N   0  0  0  0  0  0  0  0  0  0  0  0
  159.8470  208.3380  154.8760 C   0  0  0  0  0  2  0  0  0  0  0  0
  161.2710  207.9660  154.4410 C   0  0  0  0  0  2  0  0  0  0  0  0
  158.6260  210.0660  156.1660 N   0  0  0  0  0  2  0  0  0  0  0  0
  159.9300  209.4890  155.8660 C   0  0  2  0  0  3  0  0  0  0  0  0
  158.9430  213.6910  153.7550 C   0  0  0  0  0  2  0  0  0  0  0  0
  156.6700  213.6340  154.0810 N   0  0  0  0  0  0  0  0  0  0  0  0
  155.7420  212.5940  154.5000 C   0  0  0  0  0  2  0  0  0  0  0  0
  156.8700  213.9680  152.7430 N   0  0  0  0  0  0  0  0  0  0  0  0
  157.7350  212.2380  155.4630 C   0  0  0  0  0  0  0  0  0  0  0  0
  156.5510  211.7230  155.3570 N   0  0  0  0  0  0  0  0  0  0  0  0
  158.1450  214.0270  152.5220 C   0  0  0  0  0  0  0  0  0  0  0  0
  157.8830  213.4300  154.7130 N   0  0  0  0  0  0  0  0  0  0  0  0
  158.7140  214.3680  151.1690 C   0  0  2  0  0  3  0  0  0  0  0  0
  157.7200  213.3740  149.2690 O   0  0  0  0  0  0  0  0  0  0  0  0
  157.6490  214.2410  150.1250 C   0  0  0  0  0  3  0  0  0  0  0  0
  159.8970  213.4750  150.7980 C   0  0  0  0  0  2  0  0  0  0  0  0
  161.0170  213.8950  148.6750 N   0  0  0  0  0  1  0  0  0  0  0  0
  160.9830  214.2620  150.0790 C   0  0  0  0  0  2  0  0  0  0  0  0
  160.9640  208.1890  149.9640 C   0  0  0  0  0  2  0  0  0  0  0  0
  163.1280  208.2800  148.6890 C   0  0  0  0  0  1  0  0  0  0  0  0
  161.6660  208.7130  148.6960 C   0  0  2  0  0  0  0  0  0  0  0  0
  160.8450  210.6750  147.5190 O   0  0  0  0  0  1  0  0  0  0  0  0
  162.9390  210.9340  148.6300 C   0  0  0  0  0  1  0  0  0  0  0  0
  161.5770  210.2530  148.6320 C   0  0  2  0  0  3  0  0  0  0  0  0
  161.0110  208.0830  147.4970 C   0  0  0  0  0  3  0  0  0  0  0  0
  161.4520  207.0650  146.9860 O   0  0  0  0  0  0  0  0  0  0  0  0
  162.5490  207.1350  151.6650 O   0  0  0  0  0  0  0  0  0  0  0  0
  162.3050  204.8200  152.2000 C   0  0  0  0  0  2  0  0  0  0  0  0
  161.8870  205.9480  151.2770 C   0  0  0  0  0  0  0  0  0  0  0  0
  160.8590  205.2610  152.1730 C   0  0  0  0  0  2  0  0  0  0  0  0
  162.0460  205.5290  149.9450 O   0  0  0  0  0  0  0  0  0  0  0  0
  159.9950  205.2150  148.9810 O   0  0  0  0  0  1  0  0  0  0  0  0
  161.0320  204.5990  149.6840 C   0  0  1  0  0  3  0  0  0  0  0  0
  161.1210  202.2980  146.8790 C   0  0  1  0  0  3  0  0  0  0  0  0
  161.5800  203.3910  148.9220 C   0  0  1  0  0  3  0  0  0  0  0  0
  161.3890  201.1880  149.7870 O   0  0  0  0  0  1  0  0  0  0  0  0
  160.6920  202.1800  149.1000 C   0  0  2  0  0  3  0  0  0  0  0  0
  161.6190  203.6080  147.4380 C   0  0  1  0  0  3  0  0  0  0  0  0
  160.2900  201.6940  147.8400 O   0  0  0  0  0  0  0  0  0  0  0  0
  160.3410  202.5490  145.6020 C   0  0  0  0  0  2  0  0  0  0  0  0
  160.0020  201.3360  145.0070 O   0  0  0  0  0  1  0  0  0  0  0  0
  163.0220  203.9660  146.9380 C   0  0  0  0  0  2  0  0  0  0  0  0
  163.0060  204.7100  145.6080 C   0  0  0  0  0  1  0  0  0  0  0  0
  1  2  1  6  0  0  0
  1  5  1  0  0  0  0
  3 28  1  6  0  0  0
  3  4  1  0  0  0  0
  3 36  1  0  0  0  0
  3  1  1  0  0  0  0
  4  1  1  0  0  0  0
  5 11  1  1  0  0  0
  5  6  1  0  0  0  0
  6  8  1  0  0  0  0
  7 18  1  6  0  0  0
  7 12  1  0  0  0  0
  8  9  2  0  0  0  0
  8 13  1  0  0  0  0
  9  7  1  0  0  0  0
 11 10  1  0  0  0  0
 13 10  1  6  0  0  0
 13 12  1  0  0  0  0
 14 21  1  0  0  0  0
 15 16  1  0  0  0  0
 15 21  1  0  0  0  0
 16 19  1  0  0  0  0
 17 15  1  0  0  0  0
 19 18  2  0  0  0  0
 20 17  2  0  0  0  0
 20 14  1  0  0  0  0
 21 18  1  0  0  0  0
 22 24  1  6  0  0  0
 22 20  1  0  0  0  0
 23 24  2  0  0  0  0
 25 22  1  0  0  0  0
 26 27  1  0  0  0  0
 27 25  1  0  0  0  0
 30 29  1  1  0  0  0
 30 28  1  0  0  0  0
 31 33  1  0  0  0  0
 33 32  1  6  0  0  0
 33 30  1  0  0  0  0
 34 30  1  0  0  0  0
 35 34  2  0  0  0  0
 38 36  1  0  0  0  0
 38 39  1  0  0  0  0
 38 37  1  0  0  0  0
 39 37  1  0  0  0  0
 40 38  1  0  0  0  0
 42 41  1  6  0  0  0
 42 40  1  0  0  0  0
 43 49  1  6  0  0  0
 43 47  1  0  0  0  0
 43 48  1  0  0  0  0
 44 46  1  0  0  0  0
 44 42  1  1  0  0  0
 46 45  1  6  0  0  0
 47 51  1  6  0  0  0
 47 44  1  0  0  0  0
 48 46  1  0  0  0  0
 50 49  1  0  0  0  0
 52 51  1  0  0  0  0
M  END
>  <MODEL>
5

>  <REMARK>
 VINA RESULT:      -4.3      2.268      3.161
  Name = 
  17 active torsions:
  status: ('A' for Active; 'I' for Inactive)
    1  A    between atoms: C_2  and  C_25
    2  A    between atoms: C_3  and  C_51
    3  A    between atoms: C_4  and  C_24
    4  A    between atoms: C_5  and  O_8
    5  A    between atoms: C_5  and  O_42
    6  A    between atoms: C_6  and  C_13
    7  A    between atoms: C_6  and  C_22
    8  A    between atoms: C_6  and  C_29
    9  A    between atoms: O_8  and  C_12
   10  A    between atoms: C_12  and  C_35
   11  A    between atoms: C_19  and  C_31
   12  A    between atoms: C_20  and  C_48
   13  A    between atoms: C_22  and  C_45
   14  A    between atoms: C_23  and  C_34
   15  A    between atoms: C_35  and  C_48
   16  A    between atoms: O_42  and  C_51
   17  A    between atoms: C_48  and  C_50
                            x       y       z     vdW  Elec       q    Type
                         _______ _______ _______ _____ _____    ______ ____

>  <TORSDO>
F 17

$$$$
=
 OpenBabel11072412503D

 52 58  0  0  1  0  0  0  0  0999 V2000
  161.4310  207.9410  152.0310 C   0  0  1  0  0  0  0  0  0  0  0  0
  160.4560  208.9210  151.8320 O   0  0  0  0  0  1  0  0  0  0  0  0
  161.5410  206.8930  150.9820 C   0  0  2  0  0  0  0  0  0  0  0  0
  162.4240  207.9950  151.0330 O   0  0  0  0  0  0  0  0  0  0  0  0
  161.9900  207.7070  153.4460 C   0  0  1  0  0  3  0  0  0  0  0  0
  162.0130  208.9250  154.2060 O   0  0  0  0  0  0  0  0  0  0  0  0
  159.3490  210.3180  156.1130 C   0  0  2  0  0  3  0  0  0  0  0  0
  160.9680  209.2320  155.0750 C   0  0  0  0  0  0  0  0  0  0  0  0
  160.5480  210.4200  155.2940 N   0  0  0  0  0  0  0  0  0  0  0  0
  159.8920  207.0870  154.7320 C   0  0  0  0  0  2  0  0  0  0  0  0
  161.2330  206.5810  154.1830 C   0  0  0  0  0  2  0  0  0  0  0  0
  158.9570  208.8990  156.1410 N   0  0  0  0  0  2  0  0  0  0  0  0
  160.1680  208.1980  155.7330 C   0  0  2  0  0  3  0  0  0  0  0  0
  159.5290  212.7950  154.0610 C   0  0  0  0  0  2  0  0  0  0  0  0
  157.2520  212.7820  154.3640 N   0  0  0  0  0  0  0  0  0  0  0  0
  156.2820  211.7320  154.6300 C   0  0  0  0  0  2  0  0  0  0  0  0
  157.4790  213.2910  153.0860 N   0  0  0  0  0  0  0  0  0  0  0  0
  158.2490  211.1680  155.5450 C   0  0  0  0  0  0  0  0  0  0  0  0
  157.0480  210.7200  155.3620 N   0  0  0  0  0  0  0  0  0  0  0  0
  158.7580  213.3300  152.8820 C   0  0  0  0  0  0  0  0  0  0  0  0
  158.4500  212.4460  154.9680 N   0  0  0  0  0  0  0  0  0  0  0  0
  159.3530  213.8320  151.5920 C   0  0  2  0  0  3  0  0  0  0  0  0
  157.8830  213.7880  149.7430 O   0  0  0  0  0  0  0  0  0  0  0  0
  158.2750  214.3990  150.7240 C   0  0  0  0  0  3  0  0  0  0  0  0
  160.0930  212.7330  150.8310 C   0  0  0  0  0  2  0  0  0  0  0  0
  161.2560  212.4270  148.7120 N   0  0  0  0  0  1  0  0  0  0  0  0
  161.0950  213.3180  149.8470 C   0  0  0  0  0  2  0  0  0  0  0  0
  160.6280  206.9460  149.7440 C   0  0  0  0  0  2  0  0  0  0  0  0
  161.3860  208.9560  148.4390 C   0  0  0  0  0  1  0  0  0  0  0  0
  161.2830  207.4350  148.4380 C   0  0  2  0  0  0  0  0  0  0  0  0
  159.7050  205.8310  147.5200 O   0  0  0  0  0  1  0  0  0  0  0  0
  161.3120  206.6970  145.9860 C   0  0  0  0  0  1  0  0  0  0  0  0
  160.4590  206.9670  147.2180 C   0  0  2  0  0  3  0  0  0  0  0  0
  162.6860  206.8950  148.3820 C   0  0  0  0  0  3  0  0  0  0  0  0
  163.6470  207.6260  148.1980 O   0  0  0  0  0  0  0  0  0  0  0  0
  162.2200  205.6970  151.3010 O   0  0  0  0  0  0  0  0  0  0  0  0
  161.9630  203.3560  151.6970 C   0  0  0  0  0  2  0  0  0  0  0  0
  161.3690  204.5950  151.0570 C   0  0  0  0  0  0  0  0  0  0  0  0
  160.6280  203.8760  152.1810 C   0  0  0  0  0  2  0  0  0  0  0  0
  161.0560  204.3090  149.7170 O   0  0  0  0  0  0  0  0  0  0  0  0
  159.5600  202.5790  149.6630 O   0  0  0  0  0  1  0  0  0  0  0  0
  160.9140  202.9190  149.6170 C   0  0  1  0  0  3  0  0  0  0  0  0
  161.2050  202.5570  146.0180 C   0  0  1  0  0  3  0  0  0  0  0  0
  161.5770  202.3910  148.3450 C   0  0  1  0  0  3  0  0  0  0  0  0
  161.6440  200.0680  147.8550 O   0  0  0  0  0  1  0  0  0  0  0  0
  160.8300  201.1980  147.7910 C   0  0  2  0  0  3  0  0  0  0  0  0
  161.5660  203.3890  147.2240 C   0  0  1  0  0  3  0  0  0  0  0  0
  160.4620  201.4440  146.4540 O   0  0  0  0  0  0  0  0  0  0  0  0
  160.3790  203.3860  145.0520 C   0  0  0  0  0  2  0  0  0  0  0  0
  159.3620  202.6060  144.5060 O   0  0  0  0  0  1  0  0  0  0  0  0
  162.9110  204.1020  147.0650 C   0  0  0  0  0  2  0  0  0  0  0  0
  163.4380  204.0620  145.6360 C   0  0  0  0  0  1  0  0  0  0  0  0
  1  2  1  6  0  0  0
  1  5  1  0  0  0  0
  3 28  1  6  0  0  0
  3  4  1  0  0  0  0
  3 36  1  0  0  0  0
  3  1  1  0  0  0  0
  4  1  1  0  0  0  0
  5 11  1  1  0  0  0
  5  6  1  0  0  0  0
  6  8  1  0  0  0  0
  7 18  1  6  0  0  0
  7 12  1  0  0  0  0
  8  9  2  0  0  0  0
  8 13  1  0  0  0  0
  9  7  1  0  0  0  0
 11 10  1  0  0  0  0
 13 10  1  6  0  0  0
 13 12  1  0  0  0  0
 14 21  1  0  0  0  0
 15 16  1  0  0  0  0
 15 21  1  0  0  0  0
 16 19  1  0  0  0  0
 17 15  1  0  0  0  0
 19 18  2  0  0  0  0
 20 17  2  0  0  0  0
 20 14  1  0  0  0  0
 21 18  1  0  0  0  0
 22 24  1  6  0  0  0
 22 20  1  0  0  0  0
 23 24  2  0  0  0  0
 25 22  1  0  0  0  0
 26 27  1  0  0  0  0
 27 25  1  0  0  0  0
 30 29  1  1  0  0  0
 30 28  1  0  0  0  0
 33 32  1  6  0  0  0
 33 31  1  0  0  0  0
 33 30  1  0  0  0  0
 34 30  1  0  0  0  0
 35 34  2  0  0  0  0
 37 39  1  0  0  0  0
 38 36  1  0  0  0  0
 38 37  1  0  0  0  0
 38 39  1  0  0  0  0
 40 38  1  0  0  0  0
 42 41  1  6  0  0  0
 42 40  1  0  0  0  0
 43 49  1  6  0  0  0
 43 48  1  0  0  0  0
 43 47  1  0  0  0  0
 44 42  1  1  0  0  0
 46 45  1  6  0  0  0
 46 44  1  0  0  0  0
 47 51  1  6  0  0  0
 47 44  1  0  0  0  0
 48 46  1  0  0  0  0
 50 49  1  0  0  0  0
 52 51  1  0  0  0  0
M  END
>  <MODEL>
6

>  <REMARK>
 VINA RESULT:      -4.1      2.058      2.965
  Name = 
  17 active torsions:
  status: ('A' for Active; 'I' for Inactive)
    1  A    between atoms: C_2  and  C_25
    2  A    between atoms: C_3  and  C_51
    3  A    between atoms: C_4  and  C_24
    4  A    between atoms: C_5  and  O_8
    5  A    between atoms: C_5  and  O_42
    6  A    between atoms: C_6  and  C_13
    7  A    between atoms: C_6  and  C_22
    8  A    between atoms: C_6  and  C_29
    9  A    between atoms: O_8  and  C_12
   10  A    between atoms: C_12  and  C_35
   11  A    between atoms: C_19  and  C_31
   12  A    between atoms: C_20  and  C_48
   13  A    between atoms: C_22  and  C_45
   14  A    between atoms: C_23  and  C_34
   15  A    between atoms: C_35  and  C_48
   16  A    between atoms: O_42  and  C_51
   17  A    between atoms: C_48  and  C_50
                            x       y       z     vdW  Elec       q    Type
                         _______ _______ _______ _____ _____    ______ ____

>  <TORSDO>
F 17

$$$$
=
 OpenBabel11072412503D

 52 58  0  0  1  0  0  0  0  0999 V2000
  161.8070  210.6140  148.6180 C   0  0  1  0  0  0  0  0  0  0  0  0
  160.8700  210.2800  147.6370 O   0  0  0  0  0  1  0  0  0  0  0  0
  161.9900  209.6350  149.7220 C   0  0  2  0  0  0  0  0  0  0  0  0
  162.8840  209.7060  148.6300 O   0  0  0  0  0  0  0  0  0  0  0  0
  162.2360  212.0840  148.7830 C   0  0  1  0  0  3  0  0  0  0  0  0
  162.9160  212.5630  147.6120 O   0  0  0  0  0  0  0  0  0  0  0  0
  161.4330  213.9280  144.6760 C   0  0  2  0  0  3  0  0  0  0  0  0
  162.2170  213.2680  146.6330 C   0  0  0  0  0  0  0  0  0  0  0  0
  162.4740  213.1950  145.3820 N   0  0  0  0  0  0  0  0  0  0  0  0
  160.1820  213.3170  147.9480 C   0  0  0  0  0  2  0  0  0  0  0  0
  161.0480  212.9890  149.1720 C   0  0  0  0  0  2  0  0  0  0  0  0
  160.3740  214.2310  145.6520 N   0  0  0  0  0  2  0  0  0  0  0  0
  161.0350  214.0730  146.9410 C   0  0  2  0  0  3  0  0  0  0  0  0
  161.6410  214.4530  141.5040 C   0  0  0  0  0  2  0  0  0  0  0  0
  160.4260  212.5040  141.4380 N   0  0  0  0  0  0  0  0  0  0  0  0
  160.3760  211.3240  142.2870 C   0  0  0  0  0  2  0  0  0  0  0  0
  161.1660  212.5500  140.2570 N   0  0  0  0  0  0  0  0  0  0  0  0
  160.8950  213.1110  143.5370 C   0  0  0  0  0  0  0  0  0  0  0  0
  160.7390  211.8270  143.6140 N   0  0  0  0  0  0  0  0  0  0  0  0
  161.8550  213.6480  140.2480 C   0  0  0  0  0  0  0  0  0  0  0  0
  160.7050  213.6080  142.2240 N   0  0  0  0  0  0  0  0  0  0  0  0
  162.7690  214.0170  139.1090 C   0  0  2  0  0  3  0  0  0  0  0  0
  161.6980  212.5940  137.5550 O   0  0  0  0  0  0  0  0  0  0  0  0
  162.7490  212.9360  138.0740 C   0  0  0  0  0  3  0  0  0  0  0  0
  164.2060  214.2480  139.5720 C   0  0  0  0  0  2  0  0  0  0  0  0
  166.5050  214.2940  138.7650 N   0  0  0  0  0  1  0  0  0  0  0  0
  165.2080  213.6650  138.5880 C   0  0  0  0  0  2  0  0  0  0  0  0
  161.1890  208.3210  149.7240 C   0  0  0  0  0  2  0  0  0  0  0  0
  163.2860  207.0840  150.3490 C   0  0  0  0  0  1  0  0  0  0  0  0
  162.0050  207.0300  149.5230 C   0  0  2  0  0  0  0  0  0  0  0  0
  161.2330  207.0370  147.2190 O   0  0  0  0  0  1  0  0  0  0  0  0
  162.9740  205.4870  147.7220 C   0  0  0  0  0  1  0  0  0  0  0  0
  162.3530  206.8440  148.0300 C   0  0  2  0  0  3  0  0  0  0  0  0
  161.1940  205.8720  150.0380 C   0  0  0  0  0  3  0  0  0  0  0  0
  161.6040  205.1500  150.9340 O   0  0  0  0  0  0  0  0  0  0  0  0
  162.6180  210.0750  150.9070 O   0  0  0  0  0  0  0  0  0  0  0  0
  160.9160  211.1370  152.2040 C   0  0  0  0  0  2  0  0  0  0  0  0
  161.7430  209.8830  152.0010 C   0  0  0  0  0  0  0  0  0  0  0  0
  160.2260  209.8440  151.8310 C   0  0  0  0  0  2  0  0  0  0  0  0
  162.3190  209.5140  153.2280 O   0  0  0  0  0  0  0  0  0  0  0  0
  161.9770  207.3050  153.7160 O   0  0  0  0  0  1  0  0  0  0  0  0
  161.4510  208.5940  153.8290 C   0  0  1  0  0  3  0  0  0  0  0  0
  159.8640  210.5330  156.4550 C   0  0  1  0  0  3  0  0  0  0  0  0
  161.1890  208.9610  155.2900 C   0  0  1  0  0  3  0  0  0  0  0  0
  162.9050  209.8470  156.6720 O   0  0  0  0  0  1  0  0  0  0  0  0
  161.9710  210.1910  155.6960 C   0  0  2  0  0  3  0  0  0  0  0  0
  159.7580  209.3290  155.5510 C   0  0  1  0  0  3  0  0  0  0  0  0
  161.0930  211.1700  156.2010 O   0  0  0  0  0  0  0  0  0  0  0  0
  158.7180  211.4860  156.1770 C   0  0  0  0  0  2  0  0  0  0  0  0
  158.3740  211.4340  154.8280 O   0  0  0  0  0  1  0  0  0  0  0  0
  158.9690  208.1830  156.1890 C   0  0  0  0  0  2  0  0  0  0  0  0
  159.8620  207.1600  156.8810 C   0  0  0  0  0  1  0  0  0  0  0  0
  1  2  1  6  0  0  0
  1  4  1  0  0  0  0
  1  5  1  0  0  0  0
  1  3  1  0  0  0  0
  3 28  1  1  0  0  0
  3 36  1  0  0  0  0
  4  3  1  0  0  0  0
  5 11  1  6  0  0  0
  6  5  1  0  0  0  0
  7 18  1  6  0  0  0
  7  9  1  0  0  0  0
  7 12  1  0  0  0  0
  8 13  1  0  0  0  0
  8  6  1  0  0  0  0
  9  8  2  0  0  0  0
 10 11  1  0  0  0  0
 12 13  1  0  0  0  0
 13 10  1  1  0  0  0
 14 21  1  0  0  0  0
 15 21  1  0  0  0  0
 15 16  1  0  0  0  0
 16 19  1  0  0  0  0
 17 15  1  0  0  0  0
 18 19  2  0  0  0  0
 20 17  2  0  0  0  0
 20 14  1  0  0  0  0
 21 18  1  0  0  0  0
 22 24  1  6  0  0  0
 22 25  1  0  0  0  0
 22 20  1  0  0  0  0
 23 24  2  0  0  0  0
 27 26  1  0  0  0  0
 27 25  1  0  0  0  0
 30 28  1  0  0  0  0
 30 34  1  0  0  0  0
 30 29  1  1  0  0  0
 31 33  1  0  0  0  0
 33 32  1  1  0  0  0
 33 30  1  0  0  0  0
 34 35  2  0  0  0  0
 36 38  1  0  0  0  0
 38 37  1  0  0  0  0
 38 40  1  0  0  0  0
 39 38  1  0  0  0  0
 39 37  1  0  0  0  0
 40 42  1  0  0  0  0
 42 41  1  1  0  0  0
 43 49  1  6  0  0  0
 44 42  1  6  0  0  0
 44 47  1  0  0  0  0
 44 46  1  0  0  0  0
 46 48  1  0  0  0  0
 46 45  1  1  0  0  0
 47 51  1  1  0  0  0
 47 43  1  0  0  0  0
 48 43  1  0  0  0  0
 50 49  1  0  0  0  0
 51 52  1  0  0  0  0
M  END
>  <MODEL>
7

>  <REMARK>
 VINA RESULT:      -3.8      6.536     11.338
  Name = 
  17 active torsions:
  status: ('A' for Active; 'I' for Inactive)
    1  A    between atoms: C_2  and  C_25
    2  A    between atoms: C_3  and  C_51
    3  A    between atoms: C_4  and  C_24
    4  A    between atoms: C_5  and  O_8
    5  A    between atoms: C_5  and  O_42
    6  A    between atoms: C_6  and  C_13
    7  A    between atoms: C_6  and  C_22
    8  A    between atoms: C_6  and  C_29
    9  A    between atoms: O_8  and  C_12
   10  A    between atoms: C_12  and  C_35
   11  A    between atoms: C_19  and  C_31
   12  A    between atoms: C_20  and  C_48
   13  A    between atoms: C_22  and  C_45
   14  A    between atoms: C_23  and  C_34
   15  A    between atoms: C_35  and  C_48
   16  A    between atoms: O_42  and  C_51
   17  A    between atoms: C_48  and  C_50
                            x       y       z     vdW  Elec       q    Type
                         _______ _______ _______ _____ _____    ______ ____

>  <TORSDO>
F 17

$$$$
=
 OpenBabel11072412503D

 52 58  0  0  1  0  0  0  0  0999 V2000
  161.9500  209.2200  148.8540 C   0  0  1  0  0  0  0  0  0  0  0  0
  160.8960  209.3590  147.9480 O   0  0  0  0  0  1  0  0  0  0  0  0
  161.9930  207.9550  149.6330 C   0  0  2  0  0  0  0  0  0  0  0  0
  162.8020  208.1580  148.4930 O   0  0  0  0  0  0  0  0  0  0  0  0
  162.7000  210.4750  149.3390 C   0  0  1  0  0  3  0  0  0  0  0  0
  162.9860  211.3650  148.2480 O   0  0  0  0  0  0  0  0  0  0  0  0
  160.8430  213.8700  146.9020 C   0  0  2  0  0  3  0  0  0  0  0  0
  162.1370  212.4360  147.9740 C   0  0  0  0  0  0  0  0  0  0  0  0
  161.8980  212.8720  146.7960 N   0  0  0  0  0  0  0  0  0  0  0  0
  160.7800  212.0210  149.9390 C   0  0  0  0  0  2  0  0  0  0  0  0
  161.9470  211.1870  150.4830 C   0  0  0  0  0  2  0  0  0  0  0  0
  160.3000  213.7880  148.2680 N   0  0  0  0  0  2  0  0  0  0  0  0
  161.3400  213.0890  149.0130 C   0  0  2  0  0  3  0  0  0  0  0  0
  160.9190  214.2770  143.7070 C   0  0  0  0  0  2  0  0  0  0  0  0
  158.7590  213.5170  143.8920 N   0  0  0  0  0  0  0  0  0  0  0  0
  158.0950  212.5930  144.7990 C   0  0  0  0  0  2  0  0  0  0  0  0
  159.2050  213.1390  142.6270 N   0  0  0  0  0  0  0  0  0  0  0  0
  159.7720  213.6140  145.8820 C   0  0  0  0  0  0  0  0  0  0  0  0
  158.8610  212.7070  146.0430 N   0  0  0  0  0  0  0  0  0  0  0  0
  160.4200  213.5660  142.4760 C   0  0  0  0  0  0  0  0  0  0  0  0
  159.7640  214.1730  144.5810 N   0  0  0  0  0  0  0  0  0  0  0  0
  161.2060  213.3290  141.2130 C   0  0  2  0  0  3  0  0  0  0  0  0
  161.4530  211.1140  140.4270 O   0  0  0  0  0  0  0  0  0  0  0  0
  160.7200  212.0830  140.5410 C   0  0  0  0  0  3  0  0  0  0  0  0
  162.7060  213.2090  141.4810 C   0  0  0  0  0  2  0  0  0  0  0  0
  163.4500  214.0820  139.3310 N   0  0  0  0  0  1  0  0  0  0  0  0
  163.4860  214.3020  140.7660 C   0  0  0  0  0  2  0  0  0  0  0  0
  160.9270  206.8700  149.3960 C   0  0  0  0  0  2  0  0  0  0  0  0
  160.2130  205.9180  147.1820 C   0  0  0  0  0  1  0  0  0  0  0  0
  161.2470  205.8340  148.3010 C   0  0  2  0  0  0  0  0  0  0  0  0
  160.8730  203.4590  147.9500 O   0  0  0  0  0  1  0  0  0  0  0  0
  160.3830  204.2720  150.1370 C   0  0  0  0  0  1  0  0  0  0  0  0
  161.2570  204.4100  148.8980 C   0  0  2  0  0  3  0  0  0  0  0  0
  162.5820  206.1780  147.6990 C   0  0  0  0  0  3  0  0  0  0  0  0
  163.0930  205.4830  146.8340 O   0  0  0  0  0  0  0  0  0  0  0  0
  162.7840  207.9170  150.8020 O   0  0  0  0  0  0  0  0  0  0  0  0
  160.8240  206.8290  151.6290 C   0  0  0  0  0  2  0  0  0  0  0  0
  161.9430  207.8060  151.9330 C   0  0  0  0  0  0  0  0  0  0  0  0
  161.8140  206.5080  152.7260 C   0  0  0  0  0  2  0  0  0  0  0  0
  161.3850  208.9930  152.4380 O   0  0  0  0  0  0  0  0  0  0  0  0
  163.1000  210.4620  152.8110 O   0  0  0  0  0  1  0  0  0  0  0  0
  162.2800  209.4920  153.3930 C   0  0  1  0  0  3  0  0  0  0  0  0
  160.1060  209.2010  156.2850 C   0  0  1  0  0  3  0  0  0  0  0  0
  161.5320  210.0510  154.6050 C   0  0  1  0  0  3  0  0  0  0  0  0
  159.7840  211.6390  154.3570 O   0  0  0  0  0  1  0  0  0  0  0  0
  160.0700  210.2760  154.2910 C   0  0  2  0  0  3  0  0  0  0  0  0
  161.5210  209.1060  155.7700 C   0  0  1  0  0  3  0  0  0  0  0  0
  159.2710  209.5770  155.2170 O   0  0  0  0  0  0  0  0  0  0  0  0
  159.6700  207.8570  156.8370 C   0  0  0  0  0  2  0  0  0  0  0  0
  159.4810  206.9530  155.7940 O   0  0  0  0  0  1  0  0  0  0  0  0
  162.5600  209.4770  156.8320 C   0  0  0  0  0  2  0  0  0  0  0  0
  163.3000  210.7700  156.5120 C   0  0  0  0  0  1  0  0  0  0  0  0
  1  2  1  6  0  0  0
  1  5  1  0  0  0  0
  1  3  1  0  0  0  0
  3 28  1  6  0  0  0
  3 36  1  0  0  0  0
  4  1  1  0  0  0  0
  4  3  1  0  0  0  0
  5 11  1  1  0  0  0
  6  5  1  0  0  0  0
  7 18  1  6  0  0  0
  7 12  1  0  0  0  0
  8  6  1  0  0  0  0
  8 13  1  0  0  0  0
  9  7  1  0  0  0  0
  9  8  2  0  0  0  0
 10 11  1  0  0  0  0
 12 13  1  0  0  0  0
 13 10  1  1  0  0  0
 14 21  1  0  0  0  0
 15 21  1  0  0  0  0
 15 16  1  0  0  0  0
 16 19  1  0  0  0  0
 17 15  1  0  0  0  0
 18 19  2  0  0  0  0
 20 17  2  0  0  0  0
 20 14  1  0  0  0  0
 21 18  1  0  0  0  0
 22 24  1  1  0  0  0
 22 25  1  0  0  0  0
 22 20  1  0  0  0  0
 23 24  2  0  0  0  0
 26 27  1  0  0  0  0
 27 25  1  0  0  0  0
 30 29  1  6  0  0  0
 30 33  1  0  0  0  0
 30 28  1  0  0  0  0
 31 33  1  0  0  0  0
 33 32  1  1  0  0  0
 34 30  1  0  0  0  0
 35 34  2  0  0  0  0
 36 38  1  0  0  0  0
 37 38  1  0  0  0  0
 37 39  1  0  0  0  0
 38 40  1  0  0  0  0
 38 39  1  0  0  0  0
 40 42  1  0  0  0  0
 42 41  1  6  0  0  0
 43 49  1  6  0  0  0
 44 42  1  6  0  0  0
 44 47  1  0  0  0  0
 46 45  1  1  0  0  0
 46 44  1  0  0  0  0
 46 48  1  0  0  0  0
 47 43  1  0  0  0  0
 47 51  1  1  0  0  0
 48 43  1  0  0  0  0
 50 49  1  0  0  0  0
 52 51  1  0  0  0  0
M  END
>  <MODEL>
8

>  <REMARK>
 VINA RESULT:      -3.6      5.314      9.949
  Name = 
  17 active torsions:
  status: ('A' for Active; 'I' for Inactive)
    1  A    between atoms: C_2  and  C_25
    2  A    between atoms: C_3  and  C_51
    3  A    between atoms: C_4  and  C_24
    4  A    between atoms: C_5  and  O_8
    5  A    between atoms: C_5  and  O_42
    6  A    between atoms: C_6  and  C_13
    7  A    between atoms: C_6  and  C_22
    8  A    between atoms: C_6  and  C_29
    9  A    between atoms: O_8  and  C_12
   10  A    between atoms: C_12  and  C_35
   11  A    between atoms: C_19  and  C_31
   12  A    between atoms: C_20  and  C_48
   13  A    between atoms: C_22  and  C_45
   14  A    between atoms: C_23  and  C_34
   15  A    between atoms: C_35  and  C_48
   16  A    between atoms: O_42  and  C_51
   17  A    between atoms: C_48  and  C_50
                            x       y       z     vdW  Elec       q    Type
                         _______ _______ _______ _____ _____    ______ ____

>  <TORSDO>
F 17

$$$$
=
 OpenBabel11072412503D

 52 58  0  0  1  0  0  0  0  0999 V2000
  161.9780  209.1050  148.7170 C   0  0  1  0  0  0  0  0  0  0  0  0
  160.9850  209.3650  147.7700 O   0  0  0  0  0  1  0  0  0  0  0  0
  162.0150  207.7290  149.2790 C   0  0  2  0  0  0  0  0  0  0  0  0
  162.8920  208.1400  148.2510 O   0  0  0  0  0  0  0  0  0  0  0  0
  162.6430  210.2810  149.4560 C   0  0  1  0  0  3  0  0  0  0  0  0
  162.7550  211.4340  148.6070 O   0  0  0  0  0  0  0  0  0  0  0  0
  160.2830  213.9360  148.0490 C   0  0  2  0  0  3  0  0  0  0  0  0
  161.7890  212.4380  148.6560 C   0  0  0  0  0  0  0  0  0  0  0  0
  161.4150  213.1170  147.6390 N   0  0  0  0  0  0  0  0  0  0  0  0
  160.6420  211.4140  150.5290 C   0  0  0  0  0  2  0  0  0  0  0  0
  161.9230  210.6070  150.7820 C   0  0  0  0  0  2  0  0  0  0  0  0
  159.8640  213.4670  149.3800 N   0  0  0  0  0  2  0  0  0  0  0  0
  161.0220  212.7290  149.8670 C   0  0  2  0  0  3  0  0  0  0  0  0
  160.3230  214.3270  144.8510 C   0  0  0  0  0  2  0  0  0  0  0  0
  158.0910  213.8460  145.0980 N   0  0  0  0  0  0  0  0  0  0  0  0
  157.3400  213.0150  146.0260 C   0  0  0  0  0  2  0  0  0  0  0  0
  158.4510  213.4130  143.8220 N   0  0  0  0  0  0  0  0  0  0  0  0
  159.1610  213.8160  147.0590 C   0  0  0  0  0  0  0  0  0  0  0  0
  158.1470  213.0320  147.2480 N   0  0  0  0  0  0  0  0  0  0  0  0
  159.7050  213.6840  143.6370 C   0  0  0  0  0  0  0  0  0  0  0  0
  159.1880  214.3710  145.7560 N   0  0  0  0  0  0  0  0  0  0  0  0
  160.4210  213.3480  142.3550 C   0  0  2  0  0  3  0  0  0  0  0  0
  158.9730  213.6980  140.5190 O   0  0  0  0  0  0  0  0  0  0  0  0
  159.4310  212.9020  141.3240 C   0  0  0  0  0  3  0  0  0  0  0  0
  161.4760  212.2600  142.5490 C   0  0  0  0  0  2  0  0  0  0  0  0
  162.6580  213.8690  141.1530 N   0  0  0  0  0  1  0  0  0  0  0  0
  162.7100  212.5250  141.7010 C   0  0  0  0  0  2  0  0  0  0  0  0
  161.0110  206.6720  148.7890 C   0  0  0  0  0  2  0  0  0  0  0  0
  163.0220  205.4470  147.9110 C   0  0  0  0  0  1  0  0  0  0  0  0
  161.5290  205.6890  147.7210 C   0  0  2  0  0  0  0  0  0  0  0  0
  159.9060  206.2070  145.9870 O   0  0  0  0  0  1  0  0  0  0  0  0
  162.0630  205.5380  145.2200 C   0  0  0  0  0  1  0  0  0  0  0  0
  161.2660  206.2490  146.3060 C   0  0  2  0  0  3  0  0  0  0  0  0
  160.8360  204.3680  147.9170 C   0  0  0  0  0  3  0  0  0  0  0  0
  161.4500  203.3660  148.2500 O   0  0  0  0  0  0  0  0  0  0  0  0
  162.7240  207.5180  150.4820 O   0  0  0  0  0  0  0  0  0  0  0  0
  160.7990  206.1480  150.8360 C   0  0  0  0  0  2  0  0  0  0  0  0
  161.8320  207.0550  151.4760 C   0  0  0  0  0  0  0  0  0  0  0  0
  161.7480  205.5820  151.8700 C   0  0  0  0  0  2  0  0  0  0  0  0
  161.1690  208.0250  152.2480 O   0  0  0  0  0  0  0  0  0  0  0  0
  162.1860  206.6500  153.7690 O   0  0  0  0  0  1  0  0  0  0  0  0
  161.1350  207.5480  153.5640 C   0  0  1  0  0  3  0  0  0  0  0  0
  159.6830  210.3200  155.4010 C   0  0  1  0  0  3  0  0  0  0  0  0
  161.1880  208.7020  154.5660 C   0  0  1  0  0  3  0  0  0  0  0  0
  162.5480  210.6110  154.1880 O   0  0  0  0  0  1  0  0  0  0  0  0
  161.3210  210.0340  153.8630 C   0  0  2  0  0  3  0  0  0  0  0  0
  159.9280  208.8320  155.3710 C   0  0  1  0  0  3  0  0  0  0  0  0
  160.2740  210.8890  154.2580 O   0  0  0  0  0  0  0  0  0  0  0  0
  158.1910  210.5950  155.4060 C   0  0  0  0  0  2  0  0  0  0  0  0
  157.9290  211.7810  156.0880 O   0  0  0  0  0  1  0  0  0  0  0  0
  160.0670  208.2310  156.7730 C   0  0  0  0  0  2  0  0  0  0  0  0
  161.5190  208.0690  157.2080 C   0  0  0  0  0  1  0  0  0  0  0  0
  1  2  1  6  0  0  0
  1  3  1  0  0  0  0
  1  5  1  0  0  0  0
  3 28  1  6  0  0  0
  3 36  1  0  0  0  0
  4  1  1  0  0  0  0
  4  3  1  0  0  0  0
  5 11  1  1  0  0  0
  6  8  1  0  0  0  0
  6  5  1  0  0  0  0
  7 18  1  6  0  0  0
  7 12  1  0  0  0  0
  8 13  1  0  0  0  0
  9  7  1  0  0  0  0
  9  8  2  0  0  0  0
 10 11  1  0  0  0  0
 12 13  1  0  0  0  0
 13 10  1  6  0  0  0
 14 21  1  0  0  0  0
 15 21  1  0  0  0  0
 15 16  1  0  0  0  0
 16 19  1  0  0  0  0
 17 15  1  0  0  0  0
 18 19  2  0  0  0  0
 20 17  2  0  0  0  0
 20 14  1  0  0  0  0
 21 18  1  0  0  0  0
 22 24  1  6  0  0  0
 22 25  1  0  0  0  0
 22 20  1  0  0  0  0
 23 24  2  0  0  0  0
 26 27  1  0  0  0  0
 27 25  1  0  0  0  0
 30 29  1  1  0  0  0
 30 34  1  0  0  0  0
 30 28  1  0  0  0  0
 31 33  1  0  0  0  0
 33 32  1  6  0  0  0
 33 30  1  0  0  0  0
 34 35  2  0  0  0  0
 36 38  1  0  0  0  0
 37 38  1  0  0  0  0
 37 39  1  0  0  0  0
 38 39  1  0  0  0  0
 38 40  1  0  0  0  0
 40 42  1  0  0  0  0
 42 41  1  1  0  0  0
 43 49  1  6  0  0  0
 44 42  1  6  0  0  0
 44 47  1  0  0  0  0
 46 45  1  1  0  0  0
 46 48  1  0  0  0  0
 46 44  1  0  0  0  0
 47 43  1  0  0  0  0
 47 51  1  1  0  0  0
 48 43  1  0  0  0  0
 49 50  1  0  0  0  0
 51 52  1  0  0  0  0
M  END
>  <MODEL>
9

>  <REMARK>
 VINA RESULT:      -3.5      4.746      9.308
  Name = 
  17 active torsions:
  status: ('A' for Active; 'I' for Inactive)
    1  A    between atoms: C_2  and  C_25
    2  A    between atoms: C_3  and  C_51
    3  A    between atoms: C_4  and  C_24
    4  A    between atoms: C_5  and  O_8
    5  A    between atoms: C_5  and  O_42
    6  A    between atoms: C_6  and  C_13
    7  A    between atoms: C_6  and  C_22
    8  A    between atoms: C_6  and  C_29
    9  A    between atoms: O_8  and  C_12
   10  A    between atoms: C_12  and  C_35
   11  A    between atoms: C_19  and  C_31
   12  A    between atoms: C_20  and  C_48
   13  A    between atoms: C_22  and  C_45
   14  A    between atoms: C_23  and  C_34
   15  A    between atoms: C_35  and  C_48
   16  A    between atoms: O_42  and  C_51
   17  A    between atoms: C_48  and  C_50
                            x       y       z     vdW  Elec       q    Type
                         _______ _______ _______ _____ _____    ______ ____

>  <TORSDO>
F 17

$$$$
