=
 OpenBabel11072412103D

 31 32  0  0  1  0  0  0  0  0999 V2000
  161.7390  205.4040  149.6680 C   0  0  2  0  0  3  0  0  0  0  0  0
  161.0100  206.7050  149.9780 C   0  0  2  0  0  3  0  0  0  0  0  0
  160.9320  207.5430  148.7660 N   0  0  0  0  0  0  0  0  0  0  0  0
  161.9660  208.5710  148.7180 C   0  0  0  0  0  1  0  0  0  0  0  0
  162.0970  205.5200  148.2020 C   0  0  0  0  0  2  0  0  0  0  0  0
  161.2160  206.6340  147.6660 C   0  0  0  0  0  2  0  0  0  0  0  0
  160.8910  203.3170  148.7160 N   0  0  0  0  0  2  0  0  0  0  0  0
  160.8100  204.2030  149.8660 C   0  0  1  0  0  3  0  0  0  0  0  0
  161.2250  203.2450  151.3620 S   0  0  0  0  0  0  0  0  0  0  0  0
  160.2710  202.0700  149.1350 C   0  0  2  0  0  3  0  0  0  0  0  0
  160.8090  201.7050  150.5030 C   0  0  0  0  0  2  0  0  0  0  0  0
  160.5910  200.9570  148.1460 C   0  0  0  0  0  2  0  0  0  0  0  0
  161.2430  201.5060  146.8840 C   0  0  0  0  0  2  0  0  0  0  0  0
  160.3830  201.2030  145.6710 C   0  0  0  0  0  2  0  0  0  0  0  0
  160.1750  202.3670  144.9330 O   0  0  0  0  0  0  0  0  0  0  0  0
  161.2100  203.2150  145.3270 C   0  0  0  0  0  1  0  0  0  0  0  0
  162.5440  207.0410  151.7350 O   0  0  0  0  0  0  0  0  0  0  0  0
  161.4850  207.3900  151.2390 C   0  0  0  0  0  0  0  0  0  0  0  0
  160.6480  208.4390  151.9190 C   0  0  0  0  0  2  0  0  0  0  0  0
  160.7250  207.6190  154.1890 N   0  0  0  0  0  0  0  0  0  0  0  0
  160.9790  208.6060  153.3700 C   0  0  0  0  0  0  0  0  0  0  0  0
  160.8670  207.5450  155.6160 C   0  0  0  0  0  0  0  0  0  0  0  0
  159.7170  207.0660  156.4270 C   0  0  0  0  0  1  0  0  0  0  0  0
  161.9340  207.8730  156.2020 O   0  0  0  0  0  0  0  0  0  0  0  0
  162.3520  210.4940  152.8910 O   0  0  0  0  0  1  0  0  0  0  0  0
  161.4290  209.9770  153.8030 C   0  0  1  0  0  3  0  0  0  0  0  0
  160.2840  210.9630  154.0610 C   0  0  0  0  0  3  0  0  0  0  0  0
  160.1320  211.8990  152.8650 C   0  0  0  0  0  2  0  0  0  0  0  0
  158.7900  211.9880  152.4920 O   0  0  0  0  0  1  0  0  0  0  0  0
  161.5330  211.1620  156.0970 O   0  0  0  0  0  1  0  0  0  0  0  0
  160.5550  211.7820  155.3190 C   0  0  0  0  0  2  0  0  0  0  0  0
  1  5  1  6  0  0  0
  1  8  1  0  0  0  0
  1  2  1  0  0  0  0
  2 18  1  1  0  0  0
  3  2  1  0  0  0  0
  4  3  1  0  0  0  0
  6  5  1  0  0  0  0
  6  3  1  0  0  0  0
  7 10  1  0  0  0  0
  8  7  1  6  0  0  0
  8  9  1  0  0  0  0
 10 12  1  6  0  0  0
 10 11  1  0  0  0  0
 11  9  1  0  0  0  0
 13 12  1  0  0  0  0
 14 13  1  0  0  0  0
 15 16  1  0  0  0  0
 15 14  1  0  0  0  0
 18 17  2  0  0  0  0
 18 19  1  0  0  0  0
 19 21  1  0  0  0  0
 20 22  1  0  0  0  0
 21 26  1  0  0  0  0
 21 20  2  0  0  0  0
 22 24  2  0  0  0  0
 22 23  1  0  0  0  0
 26 25  1  6  0  0  0
 26 27  1  0  0  0  0
 27 31  1  0  0  0  0
 28 27  1  0  0  0  0
 29 28  1  0  0  0  0
 31 30  1  0  0  0  0
M  END
>  <MODEL>
1

>  <REMARK>
 VINA RESULT:      -6.4      0.000      0.000
  Name = 
  13 active torsions:
  status: ('A' for Active; 'I' for Inactive)
    1  A    between atoms: C_1  and  O_11
    2  A    between atoms: C_1  and  C_15
    3  A    between atoms: C_2  and  N_13
    4  A    between atoms: C_4  and  C_14
    5  A    between atoms: C_5  and  C_15
    6  A    between atoms: C_5  and  C_20
    7  A    between atoms: C_6  and  C_30
    8  A    between atoms: C_7  and  C_17
    9  A    between atoms: C_17  and  C_31
   10  A    between atoms: C_19  and  C_22
   11  A    between atoms: C_19  and  C_31
   12  A    between atoms: C_22  and  C_30
   13  A    between atoms: C_29  and  C_30
                            x       y       z     vdW  Elec       q    Type
                         _______ _______ _______ _____ _____    ______ ____

>  <TORSDO>
F 13

$$$$
=
 OpenBabel11072412103D

 31 32  0  0  1  0  0  0  0  0999 V2000
  162.0490  207.4620  150.8780 C   0  0  2  0  0  3  0  0  0  0  0  0
  161.2720  208.7650  150.7480 C   0  0  2  0  0  3  0  0  0  0  0  0
  161.3600  209.2710  149.3650 N   0  0  0  0  0  0  0  0  0  0  0  0
  162.3820  210.3000  149.1990 C   0  0  0  0  0  1  0  0  0  0  0  0
  162.6110  207.2250  149.4930 C   0  0  0  0  0  2  0  0  0  0  0  0
  161.8050  208.1300  148.5790 C   0  0  0  0  0  2  0  0  0  0  0  0
  161.1440  205.2910  150.2060 N   0  0  0  0  0  2  0  0  0  0  0  0
  161.1110  206.3080  151.2450 C   0  0  1  0  0  3  0  0  0  0  0  0
  161.5620  205.5250  152.8300 S   0  0  0  0  0  0  0  0  0  0  0  0
  160.5210  204.1130  150.7870 C   0  0  2  0  0  3  0  0  0  0  0  0
  161.0990  203.9020  152.1710 C   0  0  0  0  0  2  0  0  0  0  0  0
  160.7950  202.8860  149.9270 C   0  0  0  0  0  2  0  0  0  0  0  0
  161.1530  203.2770  148.4990 C   0  0  0  0  0  2  0  0  0  0  0  0
  161.0060  202.0840  147.5740 C   0  0  0  0  0  2  0  0  0  0  0  0
  161.1000  202.4990  146.2460 O   0  0  0  0  0  0  0  0  0  0  0  0
  161.5920  203.8020  146.3250 C   0  0  0  0  0  1  0  0  0  0  0  0
  162.7160  210.0310  152.1130 O   0  0  0  0  0  0  0  0  0  0  0  0
  161.5560  209.7620  151.8470 C   0  0  0  0  0  0  0  0  0  0  0  0
  160.4420  210.3740  152.6530 C   0  0  0  0  0  2  0  0  0  0  0  0
  160.8950  208.7630  154.3940 N   0  0  0  0  0  0  0  0  0  0  0  0
  160.4590  209.9570  154.0920 C   0  0  0  0  0  0  0  0  0  0  0  0
  160.9440  208.0920  155.6620 C   0  0  0  0  0  0  0  0  0  0  0  0
  159.7800  207.2690  156.0840 C   0  0  0  0  0  1  0  0  0  0  0  0
  161.9390  208.1800  156.4300 O   0  0  0  0  0  0  0  0  0  0  0  0
  160.7310  211.8530  155.5100 O   0  0  0  0  0  1  0  0  0  0  0  0
  159.8090  210.9000  155.0710 C   0  0  1  0  0  3  0  0  0  0  0  0
  158.5250  211.5580  154.5540 C   0  0  0  0  0  3  0  0  0  0  0  0
  158.6830  213.0760  154.5690 C   0  0  0  0  0  2  0  0  0  0  0  0
  158.8710  213.5530  153.2710 O   0  0  0  0  0  1  0  0  0  0  0  0
  156.1450  211.3230  154.7040 O   0  0  0  0  0  1  0  0  0  0  0  0
  157.3330  211.1610  155.4180 C   0  0  0  0  0  2  0  0  0  0  0  0
  1  5  1  6  0  0  0
  1  8  1  0  0  0  0
  2  1  1  0  0  0  0
  2 18  1  1  0  0  0
  3  2  1  0  0  0  0
  4  3  1  0  0  0  0
  6  3  1  0  0  0  0
  6  5  1  0  0  0  0
  7 10  1  0  0  0  0
  8  7  1  6  0  0  0
  8  9  1  0  0  0  0
 10 12  1  6  0  0  0
 10 11  1  0  0  0  0
 11  9  1  0  0  0  0
 13 12  1  0  0  0  0
 14 13  1  0  0  0  0
 15 16  1  0  0  0  0
 15 14  1  0  0  0  0
 18 17  2  0  0  0  0
 18 19  1  0  0  0  0
 19 21  1  0  0  0  0
 20 22  1  0  0  0  0
 21 20  2  0  0  0  0
 21 26  1  0  0  0  0
 22 23  1  0  0  0  0
 22 24  2  0  0  0  0
 26 25  1  6  0  0  0
 27 28  1  0  0  0  0
 27 26  1  0  0  0  0
 27 31  1  0  0  0  0
 29 28  1  0  0  0  0
 30 31  1  0  0  0  0
M  END
>  <MODEL>
2

>  <REMARK>
 VINA RESULT:      -5.9      1.703      2.393
  Name = 
  13 active torsions:
  status: ('A' for Active; 'I' for Inactive)
    1  A    between atoms: C_1  and  O_11
    2  A    between atoms: C_1  and  C_15
    3  A    between atoms: C_2  and  N_13
    4  A    between atoms: C_4  and  C_14
    5  A    between atoms: C_5  and  C_15
    6  A    between atoms: C_5  and  C_20
    7  A    between atoms: C_6  and  C_30
    8  A    between atoms: C_7  and  C_17
    9  A    between atoms: C_17  and  C_31
   10  A    between atoms: C_19  and  C_22
   11  A    between atoms: C_19  and  C_31
   12  A    between atoms: C_22  and  C_30
   13  A    between atoms: C_29  and  C_30
                            x       y       z     vdW  Elec       q    Type
                         _______ _______ _______ _____ _____    ______ ____

>  <TORSDO>
F 13

$$$$
=
 OpenBabel11072412103D

 31 32  0  0  1  0  0  0  0  0999 V2000
  160.8370  208.2130  152.1330 C   0  0  2  0  0  3  0  0  0  0  0  0
  161.8130  207.4690  151.2300 C   0  0  2  0  0  3  0  0  0  0  0  0
  162.4820  208.4170  150.3180 N   0  0  0  0  0  0  0  0  0  0  0  0
  161.8710  208.4600  148.9940 C   0  0  0  0  0  1  0  0  0  0  0  0
  160.9590  209.6580  151.7010 C   0  0  0  0  0  2  0  0  0  0  0  0
  162.2540  209.7260  150.9110 C   0  0  0  0  0  2  0  0  0  0  0  0
  160.7190  209.2000  154.3670 N   0  0  0  0  0  2  0  0  0  0  0  0
  161.2580  208.0880  153.6010 C   0  0  1  0  0  3  0  0  0  0  0  0
  160.6780  206.5330  154.3580 S   0  0  0  0  0  0  0  0  0  0  0  0
  160.8620  208.8230  155.7640 C   0  0  2  0  0  3  0  0  0  0  0  0
  160.3810  207.3950  155.9240 C   0  0  0  0  0  2  0  0  0  0  0  0
  160.0360  209.7430  156.6520 C   0  0  0  0  0  2  0  0  0  0  0  0
  159.5070  210.9400  155.8740 C   0  0  0  0  0  2  0  0  0  0  0  0
  158.1890  211.4100  156.4590 C   0  0  0  0  0  2  0  0  0  0  0  0
  157.1940  211.3680  155.4840 O   0  0  0  0  0  0  0  0  0  0  0  0
  157.8820  211.5320  154.2820 C   0  0  0  0  0  1  0  0  0  0  0  0
  160.0730  205.9340  150.8210 O   0  0  0  0  0  0  0  0  0  0  0  0
  161.2380  206.2230  150.5990 C   0  0  0  0  0  0  0  0  0  0  0  0
  162.0890  205.3080  149.7610 C   0  0  0  0  0  2  0  0  0  0  0  0
  161.1330  203.0930  149.6680 N   0  0  0  0  0  0  0  0  0  0  0  0
  161.3000  204.2410  149.0660 C   0  0  0  0  0  0  0  0  0  0  0  0
  160.4980  201.8920  149.2030 C   0  0  0  0  0  0  0  0  0  0  0  0
  161.3320  200.8440  148.5570 C   0  0  0  0  0  1  0  0  0  0  0  0
  159.2590  201.6980  149.3230 O   0  0  0  0  0  0  0  0  0  0  0  0
  160.6270  205.8820  147.4740 O   0  0  0  0  0  1  0  0  0  0  0  0
  160.9000  204.5230  147.6410 C   0  0  1  0  0  3  0  0  0  0  0  0
  161.9010  204.0190  146.5950 C   0  0  0  0  0  3  0  0  0  0  0  0
  162.9010  205.1240  146.2670 C   0  0  0  0  0  2  0  0  0  0  0  0
  162.5710  205.7260  145.0520 O   0  0  0  0  0  1  0  0  0  0  0  0
  160.7520  202.2680  145.4300 O   0  0  0  0  0  1  0  0  0  0  0  0
  161.1770  203.5920  145.3220 C   0  0  0  0  0  2  0  0  0  0  0  0
  1  5  1  6  0  0  0
  1  8  1  0  0  0  0
  2 18  1  6  0  0  0
  2  1  1  0  0  0  0
  3  6  1  0  0  0  0
  3  2  1  0  0  0  0
  4  3  1  0  0  0  0
  6  5  1  0  0  0  0
  7 10  1  0  0  0  0
  8  9  1  1  0  0  0
  8  7  1  0  0  0  0
  9 11  1  0  0  0  0
 10 11  1  0  0  0  0
 10 12  1  1  0  0  0
 13 14  1  0  0  0  0
 13 12  1  0  0  0  0
 15 14  1  0  0  0  0
 16 15  1  0  0  0  0
 18 17  2  0  0  0  0
 19 18  1  0  0  0  0
 21 20  2  0  0  0  0
 21 19  1  0  0  0  0
 22 24  2  0  0  0  0
 22 20  1  0  0  0  0
 23 22  1  0  0  0  0
 26 25  1  1  0  0  0
 26 21  1  0  0  0  0
 27 26  1  0  0  0  0
 28 27  1  0  0  0  0
 29 28  1  0  0  0  0
 31 30  1  0  0  0  0
 31 27  1  0  0  0  0
M  END
>  <MODEL>
3

>  <REMARK>
 VINA RESULT:      -5.8      2.372      8.839
  Name = 
  13 active torsions:
  status: ('A' for Active; 'I' for Inactive)
    1  A    between atoms: C_1  and  O_11
    2  A    between atoms: C_1  and  C_15
    3  A    between atoms: C_2  and  N_13
    4  A    between atoms: C_4  and  C_14
    5  A    between atoms: C_5  and  C_15
    6  A    between atoms: C_5  and  C_20
    7  A    between atoms: C_6  and  C_30
    8  A    between atoms: C_7  and  C_17
    9  A    between atoms: C_17  and  C_31
   10  A    between atoms: C_19  and  C_22
   11  A    between atoms: C_19  and  C_31
   12  A    between atoms: C_22  and  C_30
   13  A    between atoms: C_29  and  C_30
                            x       y       z     vdW  Elec       q    Type
                         _______ _______ _______ _____ _____    ______ ____

>  <TORSDO>
F 13

$$$$
=
 OpenBabel11072412103D

 31 32  0  0  1  0  0  0  0  0999 V2000
  160.9230  205.2390  149.8020 C   0  0  2  0  0  3  0  0  0  0  0  0
  161.9260  204.9930  150.9210 C   0  0  2  0  0  3  0  0  0  0  0  0
  161.6810  203.6760  151.5390 N   0  0  0  0  0  0  0  0  0  0  0  0
  160.8970  203.7590  152.7670 C   0  0  0  0  0  1  0  0  0  0  0  0
  160.0620  203.9950  149.7940 C   0  0  0  0  0  2  0  0  0  0  0  0
  160.8520  202.9630  150.5790 C   0  0  0  0  0  2  0  0  0  0  0  0
  161.3940  204.1800  147.6480 N   0  0  0  0  0  2  0  0  0  0  0  0
  161.6390  205.3660  148.4530 C   0  0  1  0  0  3  0  0  0  0  0  0
  161.0860  206.8270  147.5090 S   0  0  0  0  0  0  0  0  0  0  0  0
  161.8000  204.5300  146.2960 C   0  0  2  0  0  3  0  0  0  0  0  0
  161.2250  205.8920  145.9640 C   0  0  0  0  0  2  0  0  0  0  0  0
  161.2840  203.5000  145.3010 C   0  0  0  0  0  2  0  0  0  0  0  0
  160.9010  202.2000  145.9950 C   0  0  0  0  0  2  0  0  0  0  0  0
  160.0670  201.3340  145.0690 C   0  0  0  0  0  2  0  0  0  0  0  0
  160.4260  199.9950  145.2200 O   0  0  0  0  0  0  0  0  0  0  0  0
  161.1750  199.9690  146.3960 C   0  0  0  0  0  1  0  0  0  0  0  0
  163.1040  206.2340  152.5400 O   0  0  0  0  0  0  0  0  0  0  0  0
  162.0880  206.1590  151.8680 C   0  0  0  0  0  0  0  0  0  0  0  0
  160.9990  207.1820  152.0410 C   0  0  0  0  0  2  0  0  0  0  0  0
  160.6430  207.2340  154.4280 N   0  0  0  0  0  0  0  0  0  0  0  0
  161.0490  207.8780  153.3660 C   0  0  0  0  0  0  0  0  0  0  0  0
  160.5120  207.6850  155.7850 C   0  0  0  0  0  0  0  0  0  0  0  0
  161.7400  208.0370  156.5460 C   0  0  0  0  0  1  0  0  0  0  0  0
  159.3910  207.7890  156.3530 O   0  0  0  0  0  0  0  0  0  0  0  0
  162.0350  209.6660  152.1360 O   0  0  0  0  0  1  0  0  0  0  0  0
  161.4120  209.3400  153.3430 C   0  0  1  0  0  3  0  0  0  0  0  0
  160.2420  210.2840  153.6420 C   0  0  0  0  0  3  0  0  0  0  0  0
  159.8730  211.0630  152.3820 C   0  0  0  0  0  2  0  0  0  0  0  0
  158.5840  211.5840  152.5000 O   0  0  0  0  0  1  0  0  0  0  0  0
  159.7040  211.1550  155.8090 O   0  0  0  0  0  1  0  0  0  0  0  0
  160.6110  211.2600  154.7540 C   0  0  0  0  0  2  0  0  0  0  0  0
  1  5  1  6  0  0  0
  1  2  1  0  0  0  0
  2  3  1  0  0  0  0
  2 18  1  1  0  0  0
  3  4  1  0  0  0  0
  5  6  1  0  0  0  0
  6  3  1  0  0  0  0
  7  8  1  0  0  0  0
  8  9  1  6  0  0  0
  8  1  1  0  0  0  0
 10 12  1  6  0  0  0
 10  7  1  0  0  0  0
 11 10  1  0  0  0  0
 11  9  1  0  0  0  0
 12 13  1  0  0  0  0
 14 15  1  0  0  0  0
 14 13  1  0  0  0  0
 15 16  1  0  0  0  0
 18 19  1  0  0  0  0
 18 17  2  0  0  0  0
 19 21  1  0  0  0  0
 20 22  1  0  0  0  0
 21 20  2  0  0  0  0
 22 24  2  0  0  0  0
 22 23  1  0  0  0  0
 26 25  1  6  0  0  0
 26 21  1  0  0  0  0
 26 27  1  0  0  0  0
 27 31  1  0  0  0  0
 28 29  1  0  0  0  0
 28 27  1  0  0  0  0
 31 30  1  0  0  0  0
M  END
>  <MODEL>
4

>  <REMARK>
 VINA RESULT:      -5.8      1.770      2.836
  Name = 
  13 active torsions:
  status: ('A' for Active; 'I' for Inactive)
    1  A    between atoms: C_1  and  O_11
    2  A    between atoms: C_1  and  C_15
    3  A    between atoms: C_2  and  N_13
    4  A    between atoms: C_4  and  C_14
    5  A    between atoms: C_5  and  C_15
    6  A    between atoms: C_5  and  C_20
    7  A    between atoms: C_6  and  C_30
    8  A    between atoms: C_7  and  C_17
    9  A    between atoms: C_17  and  C_31
   10  A    between atoms: C_19  and  C_22
   11  A    between atoms: C_19  and  C_31
   12  A    between atoms: C_22  and  C_30
   13  A    between atoms: C_29  and  C_30
                            x       y       z     vdW  Elec       q    Type
                         _______ _______ _______ _____ _____    ______ ____

>  <TORSDO>
F 13

$$$$
=
 OpenBabel11072412103D

 31 32  0  0  1  0  0  0  0  0999 V2000
  161.7920  205.7420  149.7950 C   0  0  2  0  0  3  0  0  0  0  0  0
  161.1170  207.0670  150.1240 C   0  0  2  0  0  3  0  0  0  0  0  0
  160.9650  207.8750  148.8990 N   0  0  0  0  0  0  0  0  0  0  0  0
  162.0140  208.8770  148.7440 C   0  0  0  0  0  1  0  0  0  0  0  0
  162.0390  205.8120  148.3030 C   0  0  0  0  0  2  0  0  0  0  0  0
  161.1430  206.9320  147.8060 C   0  0  0  0  0  2  0  0  0  0  0  0
  160.9650  203.5640  149.0510 N   0  0  0  0  0  2  0  0  0  0  0  0
  160.8540  204.5690  150.0960 C   0  0  1  0  0  3  0  0  0  0  0  0
  161.2260  203.7770  151.6970 S   0  0  0  0  0  0  0  0  0  0  0  0
  160.3300  202.3690  149.5840 C   0  0  2  0  0  3  0  0  0  0  0  0
  160.8300  202.1530  150.9970 C   0  0  0  0  0  2  0  0  0  0  0  0
  160.6750  201.1560  148.7300 C   0  0  0  0  0  2  0  0  0  0  0  0
  161.4470  201.5580  147.4800 C   0  0  0  0  0  2  0  0  0  0  0  0
  160.8190  200.9330  146.2490 C   0  0  0  0  0  2  0  0  0  0  0  0
  160.2030  201.9180  145.4780 O   0  0  0  0  0  0  0  0  0  0  0  0
  161.1060  202.9810  145.4910 C   0  0  0  0  0  1  0  0  0  0  0  0
  162.7470  208.3880  151.1960 O   0  0  0  0  0  0  0  0  0  0  0  0
  161.7010  207.7720  151.3250 C   0  0  0  0  0  0  0  0  0  0  0  0
  161.0530  207.6740  152.6800 C   0  0  0  0  0  2  0  0  0  0  0  0
  160.0100  209.8470  152.5330 N   0  0  0  0  0  0  0  0  0  0  0  0
  160.6990  209.0080  153.2610 C   0  0  0  0  0  0  0  0  0  0  0  0
  159.6120  211.1980  152.8120 C   0  0  0  0  0  0  0  0  0  0  0  0
  158.2690  211.4430  153.4000 C   0  0  0  0  0  1  0  0  0  0  0  0
  160.3630  212.1820  152.5730 O   0  0  0  0  0  0  0  0  0  0  0  0
  162.1460  210.4620  154.4760 O   0  0  0  0  0  1  0  0  0  0  0  0
  161.3170  209.3440  154.5940 C   0  0  1  0  0  3  0  0  0  0  0  0
  160.3040  209.5150  155.7320 C   0  0  0  0  0  3  0  0  0  0  0  0
  160.5870  210.8140  156.4820 C   0  0  0  0  0  2  0  0  0  0  0  0
  159.4030  211.5260  156.6750 O   0  0  0  0  0  1  0  0  0  0  0  0
  159.6070  207.2780  156.2320 O   0  0  0  0  0  1  0  0  0  0  0  0
  160.3810  208.3400  156.7000 C   0  0  0  0  0  2  0  0  0  0  0  0
  1  5  1  6  0  0  0
  1  8  1  0  0  0  0
  1  2  1  0  0  0  0
  2 18  1  1  0  0  0
  3  2  1  0  0  0  0
  4  3  1  0  0  0  0
  6  5  1  0  0  0  0
  6  3  1  0  0  0  0
  7 10  1  0  0  0  0
  8  7  1  6  0  0  0
  8  9  1  0  0  0  0
 10 12  1  6  0  0  0
 10 11  1  0  0  0  0
 11  9  1  0  0  0  0
 13 12  1  0  0  0  0
 14 13  1  0  0  0  0
 15 16  1  0  0  0  0
 15 14  1  0  0  0  0
 17 18  2  0  0  0  0
 18 19  1  0  0  0  0
 19 21  1  0  0  0  0
 20 22  1  0  0  0  0
 20 21  2  0  0  0  0
 21 26  1  0  0  0  0
 22 23  1  0  0  0  0
 24 22  2  0  0  0  0
 26 25  1  6  0  0  0
 26 27  1  0  0  0  0
 27 28  1  0  0  0  0
 27 31  1  0  0  0  0
 28 29  1  0  0  0  0
 30 31  1  0  0  0  0
M  END
>  <MODEL>
5

>  <REMARK>
 VINA RESULT:      -5.8      1.225      2.392
  Name = 
  13 active torsions:
  status: ('A' for Active; 'I' for Inactive)
    1  A    between atoms: C_1  and  O_11
    2  A    between atoms: C_1  and  C_15
    3  A    between atoms: C_2  and  N_13
    4  A    between atoms: C_4  and  C_14
    5  A    between atoms: C_5  and  C_15
    6  A    between atoms: C_5  and  C_20
    7  A    between atoms: C_6  and  C_30
    8  A    between atoms: C_7  and  C_17
    9  A    between atoms: C_17  and  C_31
   10  A    between atoms: C_19  and  C_22
   11  A    between atoms: C_19  and  C_31
   12  A    between atoms: C_22  and  C_30
   13  A    between atoms: C_29  and  C_30
                            x       y       z     vdW  Elec       q    Type
                         _______ _______ _______ _____ _____    ______ ____

>  <TORSDO>
F 13

$$$$
=
 OpenBabel11072412103D

 31 32  0  0  1  0  0  0  0  0999 V2000
  160.6740  208.5350  152.9930 C   0  0  2  0  0  3  0  0  0  0  0  0
  161.1440  209.6110  153.9620 C   0  0  2  0  0  3  0  0  0  0  0  0
  161.3170  209.0380  155.3110 N   0  0  0  0  0  0  0  0  0  0  0  0
  160.1730  209.2800  156.1830 C   0  0  0  0  0  1  0  0  0  0  0  0
  160.5700  207.2880  153.8450 C   0  0  0  0  0  2  0  0  0  0  0  0
  161.3660  207.5990  155.1000 C   0  0  0  0  0  2  0  0  0  0  0  0
  161.2970  207.2100  151.0340 N   0  0  0  0  0  2  0  0  0  0  0  0
  161.7140  208.3070  151.8920 C   0  0  1  0  0  3  0  0  0  0  0  0
  161.9610  209.7880  150.8540 S   0  0  0  0  0  0  0  0  0  0  0  0
  162.1360  207.2950  149.8490 C   0  0  2  0  0  3  0  0  0  0  0  0
  162.1690  208.7390  149.3910 C   0  0  0  0  0  2  0  0  0  0  0  0
  161.5760  206.4200  148.7360 C   0  0  0  0  0  2  0  0  0  0  0  0
  160.7460  205.2720  149.2950 C   0  0  0  0  0  2  0  0  0  0  0  0
  161.1950  203.9540  148.6920 C   0  0  0  0  0  2  0  0  0  0  0  0
  160.9290  202.9110  149.5780 O   0  0  0  0  0  0  0  0  0  0  0  0
  160.8390  203.5310  150.8240 C   0  0  0  0  0  1  0  0  0  0  0  0
  160.7050  211.8460  154.5660 O   0  0  0  0  0  0  0  0  0  0  0  0
  160.3610  210.9000  153.8760 C   0  0  0  0  0  0  0  0  0  0  0  0
  159.1370  211.0130  153.0080 C   0  0  0  0  0  2  0  0  0  0  0  0
  157.3410  211.5840  154.5180 N   0  0  0  0  0  0  0  0  0  0  0  0
  158.1210  211.9740  153.5440 C   0  0  0  0  0  0  0  0  0  0  0  0
  156.2480  212.2650  155.1540 C   0  0  0  0  0  0  0  0  0  0  0  0
  155.8980  211.9080  156.5540 C   0  0  0  0  0  1  0  0  0  0  0  0
  155.5760  213.1530  154.5630 O   0  0  0  0  0  0  0  0  0  0  0  0
  158.7160  214.2780  153.4110 O   0  0  0  0  0  1  0  0  0  0  0  0
  157.9650  213.2730  152.7970 C   0  0  1  0  0  3  0  0  0  0  0  0
  158.2750  213.1780  151.2990 C   0  0  0  0  0  3  0  0  0  0  0  0
  159.5670  213.9310  150.9920 C   0  0  0  0  0  2  0  0  0  0  0  0
  160.4580  213.1010  150.3110 O   0  0  0  0  0  1  0  0  0  0  0  0
  157.2660  213.3990  149.1370 O   0  0  0  0  0  1  0  0  0  0  0  0
  157.1340  213.7670  150.4760 C   0  0  0  0  0  2  0  0  0  0  0  0
  1  5  1  1  0  0  0
  1  2  1  0  0  0  0
  2 18  1  1  0  0  0
  2  3  1  0  0  0  0
  3  4  1  0  0  0  0
  5  6  1  0  0  0  0
  6  3  1  0  0  0  0
  7  8  1  0  0  0  0
  8  9  1  6  0  0  0
  8  1  1  0  0  0  0
 10 12  1  6  0  0  0
 10  7  1  0  0  0  0
 11 10  1  0  0  0  0
 11  9  1  0  0  0  0
 12 13  1  0  0  0  0
 14 13  1  0  0  0  0
 14 15  1  0  0  0  0
 15 16  1  0  0  0  0
 18 17  2  0  0  0  0
 19 21  1  0  0  0  0
 19 18  1  0  0  0  0
 20 22  1  0  0  0  0
 21 20  2  0  0  0  0
 22 23  1  0  0  0  0
 24 22  2  0  0  0  0
 26 25  1  1  0  0  0
 26 21  1  0  0  0  0
 27 26  1  0  0  0  0
 28 27  1  0  0  0  0
 29 28  1  0  0  0  0
 30 31  1  0  0  0  0
 31 27  1  0  0  0  0
M  END
>  <MODEL>
6

>  <REMARK>
 VINA RESULT:      -5.5      2.877      5.670
  Name = 
  13 active torsions:
  status: ('A' for Active; 'I' for Inactive)
    1  A    between atoms: C_1  and  O_11
    2  A    between atoms: C_1  and  C_15
    3  A    between atoms: C_2  and  N_13
    4  A    between atoms: C_4  and  C_14
    5  A    between atoms: C_5  and  C_15
    6  A    between atoms: C_5  and  C_20
    7  A    between atoms: C_6  and  C_30
    8  A    between atoms: C_7  and  C_17
    9  A    between atoms: C_17  and  C_31
   10  A    between atoms: C_19  and  C_22
   11  A    between atoms: C_19  and  C_31
   12  A    between atoms: C_22  and  C_30
   13  A    between atoms: C_29  and  C_30
                            x       y       z     vdW  Elec       q    Type
                         _______ _______ _______ _____ _____    ______ ____

>  <TORSDO>
F 13

$$$$
=
 OpenBabel11072412103D

 31 32  0  0  1  0  0  0  0  0999 V2000
  161.1220  208.3690  151.3050 C   0  0  2  0  0  3  0  0  0  0  0  0
  162.2710  208.5090  150.3150 C   0  0  2  0  0  3  0  0  0  0  0  0
  162.5790  209.9350  150.0950 N   0  0  0  0  0  0  0  0  0  0  0  0
  161.9650  210.4700  148.8840 C   0  0  0  0  0  1  0  0  0  0  0  0
  160.7590  209.7960  151.6560 C   0  0  0  0  0  2  0  0  0  0  0  0
  161.9470  210.6270  151.2070 C   0  0  0  0  0  2  0  0  0  0  0  0
  160.8260  208.1100  153.7190 N   0  0  0  0  0  2  0  0  0  0  0  0
  161.5840  207.6410  152.5700 C   0  0  1  0  0  3  0  0  0  0  0  0
  161.3770  205.8320  152.4440 S   0  0  0  0  0  0  0  0  0  0  0  0
  161.0740  207.1430  154.7760 C   0  0  2  0  0  3  0  0  0  0  0  0
  160.9230  205.7520  154.1960 C   0  0  0  0  0  2  0  0  0  0  0  0
  160.0790  207.3320  155.9140 C   0  0  0  0  0  2  0  0  0  0  0  0
  160.7900  207.5390  157.2450 C   0  0  0  0  0  2  0  0  0  0  0  0
  161.7590  208.7020  157.1490 C   0  0  0  0  0  2  0  0  0  0  0  0
  161.0630  209.8800  156.8840 O   0  0  0  0  0  0  0  0  0  0  0  0
  162.0110  210.8880  157.0590 C   0  0  0  0  0  1  0  0  0  0  0  0
  163.0560  207.5860  148.2940 O   0  0  0  0  0  0  0  0  0  0  0  0
  162.1220  207.6550  149.0770 C   0  0  0  0  0  0  0  0  0  0  0  0
  160.8300  206.9490  148.7660 C   0  0  0  0  0  2  0  0  0  0  0  0
  160.6890  204.6070  149.3370 N   0  0  0  0  0  0  0  0  0  0  0  0
  161.0160  205.4990  148.4390 C   0  0  0  0  0  0  0  0  0  0  0  0
  160.8360  203.1790  149.3140 C   0  0  0  0  0  0  0  0  0  0  0  0
  161.4370  202.5010  150.4920 C   0  0  0  0  0  1  0  0  0  0  0  0
  160.4740  202.4830  148.3280 O   0  0  0  0  0  0  0  0  0  0  0  0
  162.7670  204.2820  147.3750 O   0  0  0  0  0  1  0  0  0  0  0  0
  161.7290  205.1880  147.1490 C   0  0  1  0  0  3  0  0  0  0  0  0
  160.8070  204.7140  146.0190 C   0  0  0  0  0  3  0  0  0  0  0  0
  161.4570  203.5480  145.2800 C   0  0  0  0  0  2  0  0  0  0  0  0
  160.4870  202.6210  144.8970 O   0  0  0  0  0  1  0  0  0  0  0  0
  161.3420  205.7170  143.9090 O   0  0  0  0  0  1  0  0  0  0  0  0
  160.5330  205.8500  145.0380 C   0  0  0  0  0  2  0  0  0  0  0  0
  1  5  1  1  0  0  0
  1  8  1  0  0  0  0
  2 18  1  6  0  0  0
  2  1  1  0  0  0  0
  3  2  1  0  0  0  0
  3  6  1  0  0  0  0
  4  3  1  0  0  0  0
  6  5  1  0  0  0  0
  7 10  1  0  0  0  0
  8  9  1  6  0  0  0
  8  7  1  0  0  0  0
  9 11  1  0  0  0  0
 10 12  1  1  0  0  0
 11 10  1  0  0  0  0
 12 13  1  0  0  0  0
 14 13  1  0  0  0  0
 15 16  1  0  0  0  0
 15 14  1  0  0  0  0
 17 18  2  0  0  0  0
 19 18  1  0  0  0  0
 21 19  1  0  0  0  0
 21 20  2  0  0  0  0
 22 20  1  0  0  0  0
 22 23  1  0  0  0  0
 24 22  2  0  0  0  0
 26 25  1  1  0  0  0
 26 21  1  0  0  0  0
 27 26  1  0  0  0  0
 28 27  1  0  0  0  0
 29 28  1  0  0  0  0
 30 31  1  0  0  0  0
 31 27  1  0  0  0  0
M  END
>  <MODEL>
7

>  <REMARK>
 VINA RESULT:      -5.4      2.182      8.485
  Name = 
  13 active torsions:
  status: ('A' for Active; 'I' for Inactive)
    1  A    between atoms: C_1  and  O_11
    2  A    between atoms: C_1  and  C_15
    3  A    between atoms: C_2  and  N_13
    4  A    between atoms: C_4  and  C_14
    5  A    between atoms: C_5  and  C_15
    6  A    between atoms: C_5  and  C_20
    7  A    between atoms: C_6  and  C_30
    8  A    between atoms: C_7  and  C_17
    9  A    between atoms: C_17  and  C_31
   10  A    between atoms: C_19  and  C_22
   11  A    between atoms: C_19  and  C_31
   12  A    between atoms: C_22  and  C_30
   13  A    between atoms: C_29  and  C_30
                            x       y       z     vdW  Elec       q    Type
                         _______ _______ _______ _____ _____    ______ ____

>  <TORSDO>
F 13

$$$$
=
 OpenBabel11072412103D

 31 32  0  0  1  0  0  0  0  0999 V2000
  161.3530  210.6910  153.5830 C   0  0  2  0  0  3  0  0  0  0  0  0
  160.6450  209.3630  153.3450 C   0  0  2  0  0  3  0  0  0  0  0  0
  160.5110  208.6260  154.6160 N   0  0  0  0  0  0  0  0  0  0  0  0
  161.5450  207.6140  154.7990 C   0  0  0  0  0  1  0  0  0  0  0  0
  161.6390  210.6980  155.0690 C   0  0  0  0  0  2  0  0  0  0  0  0
  160.7360  209.6250  155.6500 C   0  0  0  0  0  2  0  0  0  0  0  0
  160.6620  212.2970  151.8730 N   0  0  0  0  0  2  0  0  0  0  0  0
  160.4290  211.8640  153.2420 C   0  0  1  0  0  3  0  0  0  0  0  0
  158.6650  211.4310  153.4160 S   0  0  0  0  0  0  0  0  0  0  0  0
  159.5330  213.1480  151.5320 C   0  0  2  0  0  3  0  0  0  0  0  0
  158.2620  212.4560  151.9770 C   0  0  0  0  0  2  0  0  0  0  0  0
  159.4830  213.3900  150.0290 C   0  0  0  0  0  2  0  0  0  0  0  0
  160.8530  213.2040  149.3910 C   0  0  0  0  0  2  0  0  0  0  0  0
  160.7070  212.8330  147.9270 C   0  0  0  0  0  2  0  0  0  0  0  0
  161.8720  212.2160  147.4740 O   0  0  0  0  0  0  0  0  0  0  0  0
  162.1480  211.2480  148.4390 C   0  0  0  0  0  1  0  0  0  0  0  0
  162.2100  208.9630  151.6300 O   0  0  0  0  0  0  0  0  0  0  0  0
  161.1830  208.5820  152.1690 C   0  0  0  0  0  0  0  0  0  0  0  0
  160.4460  207.3910  151.6200 C   0  0  0  0  0  2  0  0  0  0  0  0
  161.0420  207.3700  149.2800 N   0  0  0  0  0  0  0  0  0  0  0  0
  161.1260  206.7710  150.4380 C   0  0  0  0  0  0  0  0  0  0  0  0
  161.5240  206.9590  147.9920 C   0  0  0  0  0  0  0  0  0  0  0  0
  160.5610  206.3860  147.0150 C   0  0  0  0  0  1  0  0  0  0  0  0
  162.7360  207.0670  147.6630 O   0  0  0  0  0  0  0  0  0  0  0  0
  162.6620  205.4350  151.6780 O   0  0  0  0  0  1  0  0  0  0  0  0
  161.7200  205.4020  150.6480 C   0  0  1  0  0  3  0  0  0  0  0  0
  160.6840  204.2940  150.8710 C   0  0  0  0  0  3  0  0  0  0  0  0
  161.0810  203.4560  152.0840 C   0  0  0  0  0  2  0  0  0  0  0  0
  161.6070  202.2320  151.6710 O   0  0  0  0  0  1  0  0  0  0  0  0
  161.6390  203.6610  148.7670 O   0  0  0  0  0  1  0  0  0  0  0  0
  160.5850  203.3960  149.6420 C   0  0  0  0  0  2  0  0  0  0  0  0
  1  5  1  1  0  0  0
  2 18  1  6  0  0  0
  2  1  1  0  0  0  0
  2  3  1  0  0  0  0
  3  4  1  0  0  0  0
  3  6  1  0  0  0  0
  5  6  1  0  0  0  0
  8  7  1  6  0  0  0
  8  9  1  0  0  0  0
  8  1  1  0  0  0  0
 10 12  1  6  0  0  0
 10  7  1  0  0  0  0
 10 11  1  0  0  0  0
 11  9  1  0  0  0  0
 13 12  1  0  0  0  0
 14 13  1  0  0  0  0
 15 14  1  0  0  0  0
 15 16  1  0  0  0  0
 17 18  2  0  0  0  0
 19 18  1  0  0  0  0
 20 21  2  0  0  0  0
 21 26  1  0  0  0  0
 21 19  1  0  0  0  0
 22 20  1  0  0  0  0
 23 22  1  0  0  0  0
 24 22  2  0  0  0  0
 26 27  1  0  0  0  0
 26 25  1  1  0  0  0
 27 28  1  0  0  0  0
 29 28  1  0  0  0  0
 30 31  1  0  0  0  0
 31 27  1  0  0  0  0
M  END
>  <MODEL>
8

>  <REMARK>
 VINA RESULT:      -5.4      3.036      8.362
  Name = 
  13 active torsions:
  status: ('A' for Active; 'I' for Inactive)
    1  A    between atoms: C_1  and  O_11
    2  A    between atoms: C_1  and  C_15
    3  A    between atoms: C_2  and  N_13
    4  A    between atoms: C_4  and  C_14
    5  A    between atoms: C_5  and  C_15
    6  A    between atoms: C_5  and  C_20
    7  A    between atoms: C_6  and  C_30
    8  A    between atoms: C_7  and  C_17
    9  A    between atoms: C_17  and  C_31
   10  A    between atoms: C_19  and  C_22
   11  A    between atoms: C_19  and  C_31
   12  A    between atoms: C_22  and  C_30
   13  A    between atoms: C_29  and  C_30
                            x       y       z     vdW  Elec       q    Type
                         _______ _______ _______ _____ _____    ______ ____

>  <TORSDO>
F 13

$$$$
=
 OpenBabel11072412103D

 31 32  0  0  1  0  0  0  0  0999 V2000
  160.9180  208.4370  152.2190 C   0  0  2  0  0  3  0  0  0  0  0  0
  162.1330  208.3620  151.3030 C   0  0  2  0  0  3  0  0  0  0  0  0
  162.3540  209.6650  150.6470 N   0  0  0  0  0  0  0  0  0  0  0  0
  161.8060  209.7220  149.2960 C   0  0  0  0  0  1  0  0  0  0  0  0
  160.4240  209.8590  152.0640 C   0  0  0  0  0  2  0  0  0  0  0  0
  161.5820  210.6130  151.4360 C   0  0  0  0  0  2  0  0  0  0  0  0
  160.7750  209.2480  154.5220 N   0  0  0  0  0  2  0  0  0  0  0  0
  161.3250  208.2000  153.6760 C   0  0  1  0  0  3  0  0  0  0  0  0
  160.7430  206.5890  154.3060 S   0  0  0  0  0  0  0  0  0  0  0  0
  160.9070  208.7640  155.8860 C   0  0  2  0  0  3  0  0  0  0  0  0
  160.4280  207.3270  155.9300 C   0  0  0  0  0  2  0  0  0  0  0  0
  160.0690  209.6100  156.8350 C   0  0  0  0  0  2  0  0  0  0  0  0
  158.9750  210.3620  156.0900 C   0  0  0  0  0  2  0  0  0  0  0  0
  158.8960  211.7970  156.5760 C   0  0  0  0  0  2  0  0  0  0  0  0
  158.2300  212.5820  155.6350 O   0  0  0  0  0  0  0  0  0  0  0  0
  159.0810  212.5910  154.5300 C   0  0  0  0  0  1  0  0  0  0  0  0
  163.2190  206.7640  149.9540 O   0  0  0  0  0  0  0  0  0  0  0  0
  162.1510  207.1460  150.4050 C   0  0  0  0  0  0  0  0  0  0  0  0
  160.8780  206.4470  150.0130 C   0  0  0  0  0  2  0  0  0  0  0  0
  160.9460  206.5610  147.6020 N   0  0  0  0  0  0  0  0  0  0  0  0
  160.9540  205.7990  148.6640 C   0  0  0  0  0  0  0  0  0  0  0  0
  160.9280  206.2030  146.2110 C   0  0  0  0  0  0  0  0  0  0  0  0
  162.2060  205.8270  145.5520 C   0  0  0  0  0  1  0  0  0  0  0  0
  159.8660  206.1990  145.5330 O   0  0  0  0  0  0  0  0  0  0  0  0
  162.0680  203.7470  148.1850 O   0  0  0  0  0  1  0  0  0  0  0  0
  160.8650  204.2960  148.6350 C   0  0  1  0  0  3  0  0  0  0  0  0
  160.4240  203.6660  149.9620 C   0  0  0  0  0  3  0  0  0  0  0  0
  161.5770  203.7090  150.9610 C   0  0  0  0  0  2  0  0  0  0  0  0
  161.0840  203.6640  152.2650 O   0  0  0  0  0  1  0  0  0  0  0  0
  161.0710  201.3580  149.9290 O   0  0  0  0  0  1  0  0  0  0  0  0
  159.9880  202.2200  149.7500 C   0  0  0  0  0  2  0  0  0  0  0  0
  1  5  1  1  0  0  0
  1  8  1  0  0  0  0
  2 18  1  6  0  0  0
  2  1  1  0  0  0  0
  3  2  1  0  0  0  0
  3  6  1  0  0  0  0
  4  3  1  0  0  0  0
  6  5  1  0  0  0  0
  7 10  1  0  0  0  0
  8  9  1  1  0  0  0
  8  7  1  0  0  0  0
  9 11  1  0  0  0  0
 10 11  1  0  0  0  0
 10 12  1  1  0  0  0
 13 14  1  0  0  0  0
 13 12  1  0  0  0  0
 15 14  1  0  0  0  0
 16 15  1  0  0  0  0
 17 18  2  0  0  0  0
 19 18  1  0  0  0  0
 20 21  2  0  0  0  0
 21 19  1  0  0  0  0
 22 20  1  0  0  0  0
 23 22  1  0  0  0  0
 24 22  2  0  0  0  0
 26 25  1  1  0  0  0
 26 21  1  0  0  0  0
 26 27  1  0  0  0  0
 27 28  1  0  0  0  0
 28 29  1  0  0  0  0
 31 30  1  0  0  0  0
 31 27  1  0  0  0  0
M  END
>  <MODEL>
9

>  <REMARK>
 VINA RESULT:      -5.4      2.570      8.707
  Name = 
  13 active torsions:
  status: ('A' for Active; 'I' for Inactive)
    1  A    between atoms: C_1  and  O_11
    2  A    between atoms: C_1  and  C_15
    3  A    between atoms: C_2  and  N_13
    4  A    between atoms: C_4  and  C_14
    5  A    between atoms: C_5  and  C_15
    6  A    between atoms: C_5  and  C_20
    7  A    between atoms: C_6  and  C_30
    8  A    between atoms: C_7  and  C_17
    9  A    between atoms: C_17  and  C_31
   10  A    between atoms: C_19  and  C_22
   11  A    between atoms: C_19  and  C_31
   12  A    between atoms: C_22  and  C_30
   13  A    between atoms: C_29  and  C_30
                            x       y       z     vdW  Elec       q    Type
                         _______ _______ _______ _____ _____    ______ ____

>  <TORSDO>
F 13

$$$$
