=
 OpenBabel11072412333D

 51 57  0  0  1  0  0  0  0  0999 V2000
  161.3310  212.4300  148.0020 C   0  0  1  0  0  3  0  0  0  0  0  0
  160.7740  213.5810  150.0800 O   0  0  0  0  0  0  0  0  0  0  0  0
  162.0270  211.5140  150.2040 C   0  0  2  0  0  3  0  0  0  0  0  0
  160.9180  212.3740  150.8050 C   0  0  0  0  0  2  0  0  0  0  0  0
  160.3190  213.2990  148.7670 C   0  0  2  0  0  3  0  0  0  0  0  0
  161.6410  211.1560  148.7730 C   0  0  0  0  0  2  0  0  0  0  0  0
  158.8850  212.7580  148.7440 C   0  0  0  0  0  3  0  0  0  0  0  0
  158.0140  213.5930  149.6690 C   0  0  0  0  0  2  0  0  0  0  0  0
  157.9560  213.8180  148.1730 C   0  0  0  0  0  2  0  0  0  0  0  0
  162.1840  210.3510  150.9660 O   0  0  0  0  0  0  0  0  0  0  0  0
  161.0230  210.2670  151.7480 C   0  0  2  0  0  3  0  0  0  0  0  0
  159.1410  211.4490  153.4700 O   0  0  0  0  0  0  0  0  0  0  0  0
  162.5810  210.5230  153.6050 O   0  0  0  0  0  1  0  0  0  0  0  0
  160.3260  211.3600  153.8960 C   0  0  0  0  0  0  0  0  0  0  0  0
  161.3240  210.6840  153.1140 N   0  0  0  0  0  0  0  0  0  0  0  0
  160.6720  211.9010  155.1700 N   0  0  0  0  0  2  0  0  0  0  0  0
  159.7180  212.6060  156.0130 C   0  0  0  0  0  2  0  0  0  0  0  0
  159.5850  210.3920  156.9500 O   0  0  0  0  0  1  0  0  0  0  0  0
  157.5300  211.5560  156.6510 C   0  0  0  0  0  1  0  0  0  0  0  0
  159.0060  211.6600  156.9770 C   0  0  2  0  0  3  0  0  0  0  0  0
  160.4860  208.8390  151.7170 C   0  0  0  0  0  2  0  0  0  0  0  0
  161.5060  207.8240  152.2460 C   0  0  1  0  0  3  0  0  0  0  0  0
  161.0110  207.2230  153.4030 O   0  0  0  0  0  0  0  0  0  0  0  0
  161.3240  205.8650  153.2740 C   0  0  0  0  0  1  0  0  0  0  0  0
  161.8680  206.7530  151.2060 C   0  0  0  0  0  2  0  0  0  0  0  0
  162.4210  207.4230  148.8670 C   0  0  0  0  0  2  0  0  0  0  0  0
  161.0990  205.2820  146.0960 N   0  0  0  0  0  1  0  0  0  0  0  0
  161.2810  207.0190  149.8130 C   0  0  1  0  0  3  0  0  0  0  0  0
  161.3220  204.8570  148.4990 C   0  0  0  0  0  2  0  0  0  0  0  0
  162.1010  207.0600  147.4130 C   0  0  0  0  0  2  0  0  0  0  0  0
  161.9240  205.5440  147.2580 C   0  0  2  0  0  3  0  0  0  0  0  0
  160.4660  205.8200  149.3180 C   0  0  0  0  0  2  0  0  0  0  0  0
  160.8780  212.1130  146.6930 O   0  0  0  0  0  0  0  0  0  0  0  0
  160.9300  213.0570  145.6640 C   0  0  0  0  0  0  0  0  0  0  0  0
  162.0320  213.5390  145.2930 O   0  0  0  0  0  0  0  0  0  0  0  0
  159.5110  212.7790  143.6950 N   0  0  2  0  0  0  0  0  0  0  0  0
  159.6620  213.5080  144.9980 C   0  0  1  0  0  3  0  0  0  0  0  0
  158.7560  212.4660  144.9450 C   0  0  0  0  0  2  0  0  0  0  0  0
  160.9980  211.3980  140.6240 C   0  0  1  0  0  3  0  0  0  0  0  0
  159.7160  213.4350  141.3970 C   0  0  0  0  0  2  0  0  0  0  0  0
  160.2720  212.8630  139.8030 S   0  0  0  0  0  0  0  0  0  0  0  0
  160.4840  211.3610  141.9430 O   0  0  0  0  0  0  0  0  0  0  0  0
  159.8760  212.5330  142.3410 C   0  0  1  0  0  3  0  0  0  0  0  0
  160.6540  210.2290  139.9250 O   0  0  0  0  0  0  0  0  0  0  0  0
  161.7820  209.8700  139.1500 C   0  0  1  0  0  0  0  0  0  0  0  0
  162.3690  208.4560  139.3850 C   0  0  2  0  0  0  0  0  0  0  0  0
  161.9390  207.0190  139.4530 C   0  0  0  0  0  2  0  0  0  0  0  0
  161.6470  208.8790  138.0400 C   0  0  1  0  0  3  0  0  0  0  0  0
  162.7660  210.8380  138.9950 O   0  0  0  0  0  1  0  0  0  0  0  0
  160.1780  208.4620  137.8580 C   0  0  0  0  0  1  0  0  0  0  0  0
  161.5460  207.9210  140.4200 O   0  0  0  0  0  0  0  0  0  0  0  0
  1 33  1  6  0  0  0
  1  5  1  0  0  0  0
  1  6  1  0  0  0  0
  2  4  1  0  0  0  0
  3  4  1  0  0  0  0
  3 10  1  1  0  0  0
  5  7  1  1  0  0  0
  5  2  1  0  0  0  0
  6  3  1  0  0  0  0
  7  8  1  0  0  0  0
  9  7  1  0  0  0  0
  9  8  1  0  0  0  0
 10 11  1  0  0  0  0
 11 21  1  1  0  0  0
 11 15  1  0  0  0  0
 12 14  2  0  0  0  0
 14 16  1  0  0  0  0
 15 13  1  0  0  0  0
 15 14  1  0  0  0  0
 16 17  1  0  0  0  0
 17 20  1  0  0  0  0
 18 20  1  0  0  0  0
 20 19  1  6  0  0  0
 21 22  1  0  0  0  0
 22 25  1  6  0  0  0
 22 23  1  0  0  0  0
 24 23  1  0  0  0  0
 26 28  1  0  0  0  0
 28 25  1  1  0  0  0
 29 32  1  0  0  0  0
 30 26  1  0  0  0  0
 31 27  1  6  0  0  0
 31 30  1  0  0  0  0
 31 29  1  0  0  0  0
 32 28  1  0  0  0  0
 34 33  1  0  0  0  0
 35 34  2  0  0  0  0
 36 38  1  1  0  0  0
 36 37  1  0  0  0  0
 37 34  1  1  0  0  0
 38 37  1  0  0  0  0
 39 44  1  6  0  0  0
 39 42  1  0  0  0  0
 41 39  1  0  0  0  0
 41 40  1  0  0  0  0
 42 43  1  0  0  0  0
 43 40  1  1  0  0  0
 43 36  1  0  0  0  0
 45 49  1  6  0  0  0
 45 46  1  0  0  0  0
 45 44  1  0  0  0  0
 46 47  1  1  0  0  0
 46 51  1  0  0  0  0
 47 51  1  0  0  0  0
 48 50  1  1  0  0  0
 48 45  1  0  0  0  0
 48 46  1  0  0  0  0
M  END
>  <MODEL>
1

>  <REMARK>
 VINA RESULT:      -5.9      0.000      0.000
  Name = 
  17 active torsions:
  status: ('A' for Active; 'I' for Inactive)
    1  A    between atoms: O_2  and  C_8
    2  A    between atoms: O_2  and  C_28
    3  A    between atoms: C_4  and  O_49
    4  A    between atoms: C_6  and  C_38
    5  A    between atoms: C_7  and  O_49
    6  A    between atoms: N_10  and  C_47
    7  A    between atoms: N_12  and  C_24
    8  A    between atoms: C_13  and  C_28
    9  A    between atoms: N_14  and  C_20
   10  A    between atoms: C_20  and  C_37
   11  A    between atoms: C_24  and  C_40
   12  A    between atoms: C_24  and  O_48
   13  A    between atoms: C_25  and  C_27
   14  A    between atoms: C_27  and  C_35
   15  A    between atoms: O_30  and  C_35
   16  A    between atoms: C_32  and  O_48
   17  A    between atoms: C_35  and  C_40
                            x       y       z     vdW  Elec       q    Type
                         _______ _______ _______ _____ _____    ______ ____

>  <TORSDO>
F 17

$$$$
=
 OpenBabel11072412333D

 51 57  0  0  1  0  0  0  0  0999 V2000
  161.8820  212.3290  148.4310 C   0  0  1  0  0  3  0  0  0  0  0  0
  162.0890  211.1940  150.5830 O   0  0  0  0  0  0  0  0  0  0  0  0
  161.8040  209.8510  148.5900 C   0  0  2  0  0  3  0  0  0  0  0  0
  161.4400  210.0510  150.0590 C   0  0  0  0  0  2  0  0  0  0  0  0
  161.5950  212.3590  149.9430 C   0  0  2  0  0  3  0  0  0  0  0  0
  161.3220  211.0630  147.8010 C   0  0  0  0  0  2  0  0  0  0  0  0
  160.1330  212.6510  150.2970 C   0  0  0  0  0  3  0  0  0  0  0  0
  159.9970  212.7980  151.8040 C   0  0  0  0  0  2  0  0  0  0  0  0
  160.0330  214.0320  150.9270 C   0  0  0  0  0  2  0  0  0  0  0  0
  161.1910  208.6880  148.1090 O   0  0  0  0  0  0  0  0  0  0  0  0
  161.7050  207.6500  148.8980 C   0  0  2  0  0  3  0  0  0  0  0  0
  160.5720  206.2560  146.7350 O   0  0  0  0  0  0  0  0  0  0  0  0
  163.7600  206.4730  148.3180 O   0  0  0  0  0  1  0  0  0  0  0  0
  161.7700  205.9820  147.0260 C   0  0  0  0  0  0  0  0  0  0  0  0
  162.4480  206.7180  148.0560 N   0  0  0  0  0  0  0  0  0  0  0  0
  162.4650  204.9620  146.3100 N   0  0  0  0  0  2  0  0  0  0  0  0
  161.8410  204.1700  145.2600 C   0  0  0  0  0  2  0  0  0  0  0  0
  160.3010  202.3270  145.0850 O   0  0  0  0  0  1  0  0  0  0  0  0
  161.1610  202.8060  147.2530 C   0  0  0  0  0  1  0  0  0  0  0  0
  161.4290  202.7880  145.7630 C   0  0  2  0  0  3  0  0  0  0  0  0
  160.5640  206.9430  149.6240 C   0  0  0  0  0  2  0  0  0  0  0  0
  161.0220  206.3010  150.9380 C   0  0  1  0  0  3  0  0  0  0  0  0
  161.9170  205.2660  150.6670 O   0  0  0  0  0  0  0  0  0  0  0  0
  161.3780  204.1400  151.3000 C   0  0  0  0  0  1  0  0  0  0  0  0
  161.6570  207.3140  151.9020 C   0  0  0  0  0  2  0  0  0  0  0  0
  161.3260  207.1420  154.3690 C   0  0  0  0  0  2  0  0  0  0  0  0
  160.6680  210.3110  156.2510 N   0  0  0  0  0  1  0  0  0  0  0  0
  160.7440  207.7150  153.0690 C   0  0  1  0  0  3  0  0  0  0  0  0
  161.5550  209.9240  153.9990 C   0  0  0  0  0  2  0  0  0  0  0  0
  160.9310  207.9900  155.5830 C   0  0  0  0  0  2  0  0  0  0  0  0
  161.4820  209.4160  155.4520 C   0  0  2  0  0  3  0  0  0  0  0  0
  160.5280  209.2310  153.1060 C   0  0  0  0  0  2  0  0  0  0  0  0
  161.3680  213.4760  147.7690 O   0  0  0  0  0  0  0  0  0  0  0  0
  161.2020  213.4930  146.3810 C   0  0  0  0  0  0  0  0  0  0  0  0
  162.1340  213.1190  145.6220 O   0  0  0  0  0  0  0  0  0  0  0  0
  159.5870  213.1330  144.5840 N   0  0  2  0  0  0  0  0  0  0  0  0
  159.9070  213.9690  145.7890 C   0  0  1  0  0  3  0  0  0  0  0  0
  158.9370  212.9950  145.9210 C   0  0  0  0  0  2  0  0  0  0  0  0
  160.9900  211.6930  141.5010 C   0  0  1  0  0  3  0  0  0  0  0  0
  159.1820  213.3030  142.2260 C   0  0  0  0  0  2  0  0  0  0  0  0
  159.6590  212.6160  140.6520 S   0  0  0  0  0  0  0  0  0  0  0  0
  160.7350  211.7740  142.8910 O   0  0  0  0  0  0  0  0  0  0  0  0
  159.8050  212.7330  143.2350 C   0  0  1  0  0  3  0  0  0  0  0  0
  161.0000  210.3540  141.0770 O   0  0  0  0  0  0  0  0  0  0  0  0
  161.8360  210.2920  139.9370 C   0  0  1  0  0  0  0  0  0  0  0  0
  162.2250  208.8800  139.4330 C   0  0  2  0  0  0  0  0  0  0  0  0
  161.5990  207.5670  139.0630 C   0  0  0  0  0  2  0  0  0  0  0  0
  161.2810  209.8570  138.6200 C   0  0  1  0  0  3  0  0  0  0  0  0
  162.8970  211.1870  139.8930 O   0  0  0  0  0  1  0  0  0  0  0  0
  159.7630  209.6270  138.7170 C   0  0  0  0  0  1  0  0  0  0  0  0
  161.5990  208.0060  140.3710 O   0  0  0  0  0  0  0  0  0  0  0  0
  1 33  1  6  0  0  0
  1  5  1  0  0  0  0
  3 10  1  6  0  0  0
  3  4  1  0  0  0  0
  4  2  1  0  0  0  0
  5  7  1  6  0  0  0
  5  2  1  0  0  0  0
  6  1  1  0  0  0  0
  6  3  1  0  0  0  0
  7  9  1  0  0  0  0
  7  8  1  0  0  0  0
  9  8  1  0  0  0  0
 10 11  1  0  0  0  0
 11 21  1  6  0  0  0
 12 14  2  0  0  0  0
 14 15  1  0  0  0  0
 15 13  1  0  0  0  0
 15 11  1  0  0  0  0
 16 14  1  0  0  0  0
 17 20  1  0  0  0  0
 17 16  1  0  0  0  0
 18 20  1  0  0  0  0
 20 19  1  1  0  0  0
 22 21  1  6  0  0  0
 22 25  1  0  0  0  0
 23 22  1  0  0  0  0
 23 24  1  0  0  0  0
 26 30  1  0  0  0  0
 28 25  1  6  0  0  0
 28 32  1  0  0  0  0
 28 26  1  0  0  0  0
 29 31  1  0  0  0  0
 31 30  1  0  0  0  0
 31 27  1  1  0  0  0
 32 29  1  0  0  0  0
 34 33  1  0  0  0  0
 35 34  2  0  0  0  0
 36 37  1  0  0  0  0
 36 38  1  1  0  0  0
 37 38  1  0  0  0  0
 37 34  1  1  0  0  0
 39 44  1  6  0  0  0
 39 42  1  0  0  0  0
 41 39  1  0  0  0  0
 41 40  1  0  0  0  0
 42 43  1  0  0  0  0
 43 40  1  6  0  0  0
 43 36  1  0  0  0  0
 45 49  1  6  0  0  0
 45 44  1  0  0  0  0
 46 47  1  6  0  0  0
 46 45  1  0  0  0  0
 46 51  1  0  0  0  0
 47 51  1  0  0  0  0
 48 50  1  1  0  0  0
 48 46  1  0  0  0  0
 48 45  1  0  0  0  0
M  END
>  <MODEL>
2

>  <REMARK>
 VINA RESULT:      -4.9      2.183      5.758
  Name = 
  17 active torsions:
  status: ('A' for Active; 'I' for Inactive)
    1  A    between atoms: O_2  and  C_8
    2  A    between atoms: O_2  and  C_28
    3  A    between atoms: C_4  and  O_49
    4  A    between atoms: C_6  and  C_38
    5  A    between atoms: C_7  and  O_49
    6  A    between atoms: N_10  and  C_47
    7  A    between atoms: N_12  and  C_24
    8  A    between atoms: C_13  and  C_28
    9  A    between atoms: N_14  and  C_20
   10  A    between atoms: C_20  and  C_37
   11  A    between atoms: C_24  and  C_40
   12  A    between atoms: C_24  and  O_48
   13  A    between atoms: C_25  and  C_27
   14  A    between atoms: C_27  and  C_35
   15  A    between atoms: O_30  and  C_35
   16  A    between atoms: C_32  and  O_48
   17  A    between atoms: C_35  and  C_40
                            x       y       z     vdW  Elec       q    Type
                         _______ _______ _______ _____ _____    ______ ____

>  <TORSDO>
F 17

$$$$
=
 OpenBabel11072412333D

 51 57  0  0  1  0  0  0  0  0999 V2000
  161.0970  212.5440  147.6100 C   0  0  1  0  0  3  0  0  0  0  0  0
  160.6380  213.6320  149.7460 O   0  0  0  0  0  0  0  0  0  0  0  0
  162.1210  211.7200  149.7180 C   0  0  2  0  0  3  0  0  0  0  0  0
  160.9930  212.4520  150.4410 C   0  0  0  0  0  2  0  0  0  0  0  0
  160.0810  213.2970  148.4860 C   0  0  2  0  0  3  0  0  0  0  0  0
  161.6280  211.3160  148.3330 C   0  0  0  0  0  2  0  0  0  0  0  0
  158.7230  212.5970  148.6110 C   0  0  0  0  0  3  0  0  0  0  0  0
  157.8110  213.4210  149.5060 C   0  0  0  0  0  2  0  0  0  0  0  0
  157.6440  213.4810  148.0020 C   0  0  0  0  0  2  0  0  0  0  0  0
  162.4880  210.5840  150.4490 O   0  0  0  0  0  0  0  0  0  0  0  0
  161.2870  209.9050  150.6960 C   0  0  2  0  0  3  0  0  0  0  0  0
  162.9340  210.1100  152.9660 O   0  0  0  0  0  0  0  0  0  0  0  0
  159.4670  210.4710  152.2150 O   0  0  0  0  0  1  0  0  0  0  0  0
  161.6910  210.2470  153.1480 C   0  0  0  0  0  0  0  0  0  0  0  0
  160.7950  210.2500  152.0260 N   0  0  0  0  0  0  0  0  0  0  0  0
  161.1780  210.4330  154.4660 N   0  0  0  0  0  2  0  0  0  0  0  0
  162.0230  210.4330  155.6500 C   0  0  0  0  0  2  0  0  0  0  0  0
  162.3230  208.3350  156.7940 O   0  0  0  0  0  1  0  0  0  0  0  0
  160.0810  209.0490  156.4300 C   0  0  0  0  0  1  0  0  0  0  0  0
  161.5100  209.4650  156.7140 C   0  0  2  0  0  3  0  0  0  0  0  0
  161.5120  208.4010  150.5680 C   0  0  0  0  0  2  0  0  0  0  0  0
  161.1840  207.8820  149.1640 C   0  0  1  0  0  3  0  0  0  0  0  0
  162.3490  207.8370  148.3980 O   0  0  0  0  0  0  0  0  0  0  0  0
  161.9970  207.1410  147.2360 C   0  0  0  0  0  1  0  0  0  0  0  0
  160.5100  206.5020  149.1850 C   0  0  0  0  0  2  0  0  0  0  0  0
  160.7390  205.0000  151.1640 C   0  0  0  0  0  2  0  0  0  0  0  0
  161.2920  201.3550  150.5150 N   0  0  0  0  0  1  0  0  0  0  0  0
  161.3710  205.4030  149.8240 C   0  0  1  0  0  3  0  0  0  0  0  0
  160.5040  203.1550  149.0500 C   0  0  0  0  0  2  0  0  0  0  0  0
  161.0760  203.5510  151.5320 C   0  0  0  0  0  2  0  0  0  0  0  0
  160.5200  202.5810  150.4800 C   0  0  2  0  0  3  0  0  0  0  0  0
  161.5720  204.2290  148.8610 C   0  0  0  0  0  2  0  0  0  0  0  0
  160.5460  212.1740  146.3540 O   0  0  0  0  0  0  0  0  0  0  0  0
  160.7970  212.9290  145.2050 C   0  0  0  0  0  0  0  0  0  0  0  0
  161.9430  212.9360  144.6840 O   0  0  0  0  0  0  0  0  0  0  0  0
  159.2430  213.0770  143.3270 N   0  0  2  0  0  0  0  0  0  0  0  0
  159.6970  213.7450  144.5910 C   0  0  1  0  0  3  0  0  0  0  0  0
  158.5080  213.0440  144.6260 C   0  0  0  0  0  2  0  0  0  0  0  0
  160.5660  211.6930  140.1830 C   0  0  1  0  0  3  0  0  0  0  0  0
  158.7730  213.2850  140.9840 C   0  0  0  0  0  2  0  0  0  0  0  0
  159.2100  212.6260  139.3860 S   0  0  0  0  0  0  0  0  0  0  0  0
  160.3480  211.7510  141.5810 O   0  0  0  0  0  0  0  0  0  0  0  0
  159.4260  212.7010  141.9660 C   0  0  1  0  0  3  0  0  0  0  0  0
  160.5690  210.3620  139.7370 O   0  0  0  0  0  0  0  0  0  0  0  0
  161.3620  210.3250  138.5660 C   0  0  1  0  0  0  0  0  0  0  0  0
  161.8760  208.9350  138.1140 C   0  0  2  0  0  0  0  0  0  0  0  0
  161.3760  207.5470  137.8370 C   0  0  0  0  0  2  0  0  0  0  0  0
  160.8040  209.7650  137.2970 C   0  0  1  0  0  3  0  0  0  0  0  0
  162.3210  211.3200  138.4310 O   0  0  0  0  0  1  0  0  0  0  0  0
  159.3230  209.3870  137.4730 C   0  0  0  0  0  1  0  0  0  0  0  0
  161.3820  208.0530  139.1210 O   0  0  0  0  0  0  0  0  0  0  0  0
  1 33  1  6  0  0  0
  1  6  1  0  0  0  0
  1  5  1  0  0  0  0
  2  4  1  0  0  0  0
  3  4  1  0  0  0  0
  3 10  1  1  0  0  0
  5  7  1  1  0  0  0
  5  2  1  0  0  0  0
  6  3  1  0  0  0  0
  7  8  1  0  0  0  0
  9  7  1  0  0  0  0
  9  8  1  0  0  0  0
 10 11  1  0  0  0  0
 11 21  1  1  0  0  0
 11 15  1  0  0  0  0
 12 14  2  0  0  0  0
 14 16  1  0  0  0  0
 15 13  1  0  0  0  0
 15 14  1  0  0  0  0
 16 17  1  0  0  0  0
 17 20  1  0  0  0  0
 20 19  1  6  0  0  0
 20 18  1  0  0  0  0
 22 25  1  1  0  0  0
 22 21  1  0  0  0  0
 23 22  1  0  0  0  0
 24 23  1  0  0  0  0
 26 30  1  0  0  0  0
 28 25  1  6  0  0  0
 28 26  1  0  0  0  0
 29 31  1  0  0  0  0
 31 27  1  6  0  0  0
 31 30  1  0  0  0  0
 32 29  1  0  0  0  0
 32 28  1  0  0  0  0
 34 33  1  0  0  0  0
 35 34  2  0  0  0  0
 36 37  1  0  0  0  0
 36 38  1  1  0  0  0
 37 38  1  0  0  0  0
 37 34  1  1  0  0  0
 39 44  1  6  0  0  0
 39 42  1  0  0  0  0
 41 39  1  0  0  0  0
 41 40  1  0  0  0  0
 42 43  1  0  0  0  0
 43 40  1  6  0  0  0
 43 36  1  0  0  0  0
 45 49  1  6  0  0  0
 45 44  1  0  0  0  0
 46 47  1  6  0  0  0
 46 45  1  0  0  0  0
 46 51  1  0  0  0  0
 47 51  1  0  0  0  0
 48 50  1  1  0  0  0
 48 46  1  0  0  0  0
 48 45  1  0  0  0  0
M  END
>  <MODEL>
3

>  <REMARK>
 VINA RESULT:      -4.9      1.690      2.419
  Name = 
  17 active torsions:
  status: ('A' for Active; 'I' for Inactive)
    1  A    between atoms: O_2  and  C_8
    2  A    between atoms: O_2  and  C_28
    3  A    between atoms: C_4  and  O_49
    4  A    between atoms: C_6  and  C_38
    5  A    between atoms: C_7  and  O_49
    6  A    between atoms: N_10  and  C_47
    7  A    between atoms: N_12  and  C_24
    8  A    between atoms: C_13  and  C_28
    9  A    between atoms: N_14  and  C_20
   10  A    between atoms: C_20  and  C_37
   11  A    between atoms: C_24  and  C_40
   12  A    between atoms: C_24  and  O_48
   13  A    between atoms: C_25  and  C_27
   14  A    between atoms: C_27  and  C_35
   15  A    between atoms: O_30  and  C_35
   16  A    between atoms: C_32  and  O_48
   17  A    between atoms: C_35  and  C_40
                            x       y       z     vdW  Elec       q    Type
                         _______ _______ _______ _____ _____    ______ ____

>  <TORSDO>
F 17

$$$$
=
 OpenBabel11072412333D

 51 57  0  0  1  0  0  0  0  0999 V2000
  161.5160  210.8510  151.2910 C   0  0  1  0  0  3  0  0  0  0  0  0
  161.6230  209.4790  153.3070 O   0  0  0  0  0  0  0  0  0  0  0  0
  161.2260  208.3860  151.1850 C   0  0  2  0  0  3  0  0  0  0  0  0
  160.8790  208.4580  152.6700 C   0  0  0  0  0  2  0  0  0  0  0  0
  161.2320  210.7440  152.8000 C   0  0  2  0  0  3  0  0  0  0  0  0
  160.8500  209.7130  150.5340 C   0  0  0  0  0  2  0  0  0  0  0  0
  159.8000  211.1200  153.1950 C   0  0  0  0  0  3  0  0  0  0  0  0
  159.6440  211.0030  154.7020 C   0  0  0  0  0  2  0  0  0  0  0  0
  159.8290  212.3650  154.0690 C   0  0  0  0  0  2  0  0  0  0  0  0
  160.5150  207.3380  150.5880 O   0  0  0  0  0  0  0  0  0  0  0  0
  161.4950  206.4620  150.1030 C   0  0  2  0  0  3  0  0  0  0  0  0
  159.9010  205.8130  147.8780 O   0  0  0  0  0  0  0  0  0  0  0  0
  162.9900  207.4920  148.4760 O   0  0  0  0  0  1  0  0  0  0  0  0
  161.0080  206.3750  147.6430 C   0  0  0  0  0  0  0  0  0  0  0  0
  161.8350  206.8210  148.7290 N   0  0  0  0  0  0  0  0  0  0  0  0
  161.4260  206.5960  146.2970 N   0  0  0  0  0  2  0  0  0  0  0  0
  160.6470  206.1640  145.1470 C   0  0  0  0  0  2  0  0  0  0  0  0
  160.2650  203.8540  144.5830 O   0  0  0  0  0  1  0  0  0  0  0  0
  162.4760  204.4490  145.2340 C   0  0  0  0  0  1  0  0  0  0  0  0
  161.2050  204.8820  144.5330 C   0  0  2  0  0  3  0  0  0  0  0  0
  160.9850  205.0260  150.1820 C   0  0  0  0  0  2  0  0  0  0  0  0
  161.7680  204.1870  151.1990 C   0  0  1  0  0  3  0  0  0  0  0  0
  162.1270  204.9840  152.2850 O   0  0  0  0  0  0  0  0  0  0  0  0
  161.0880  204.8300  153.2120 C   0  0  0  0  0  1  0  0  0  0  0  0
  160.9850  202.9560  151.6790 C   0  0  0  0  0  2  0  0  0  0  0  0
  159.5600  201.7460  150.0280 C   0  0  0  0  0  2  0  0  0  0  0  0
  160.9650  201.2030  146.6000 N   0  0  0  0  0  1  0  0  0  0  0  0
  160.9560  201.8060  150.6630 C   0  0  1  0  0  3  0  0  0  0  0  0
  161.6470  202.7150  148.4050 C   0  0  0  0  0  2  0  0  0  0  0  0
  159.6100  201.1510  148.6160 C   0  0  0  0  0  2  0  0  0  0  0  0
  160.4710  202.0200  147.6910 C   0  0  2  0  0  3  0  0  0  0  0  0
  162.0920  201.9410  149.6440 C   0  0  0  0  0  2  0  0  0  0  0  0
  161.1040  212.1020  150.7590 O   0  0  0  0  0  0  0  0  0  0  0  0
  161.5000  212.5090  149.4820 C   0  0  0  0  0  0  0  0  0  0  0  0
  162.3890  211.8730  148.8570 O   0  0  0  0  0  0  0  0  0  0  0  0
  160.7710  213.4980  147.3710 N   0  0  2  0  0  0  0  0  0  0  0  0
  160.8690  213.7170  148.8530 C   0  0  1  0  0  3  0  0  0  0  0  0
  159.6330  213.3910  148.3310 C   0  0  0  0  0  2  0  0  0  0  0  0
  161.3450  212.8390  143.7950 C   0  0  1  0  0  3  0  0  0  0  0  0
  162.6470  213.4390  145.8770 C   0  0  0  0  0  2  0  0  0  0  0  0
  163.0860  213.2660  144.1590 S   0  0  0  0  0  0  0  0  0  0  0  0
  160.5860  213.1650  144.9460 O   0  0  0  0  0  0  0  0  0  0  0  0
  161.3470  213.3920  146.0730 C   0  0  1  0  0  3  0  0  0  0  0  0
  160.8890  213.5620  142.6810 O   0  0  0  0  0  0  0  0  0  0  0  0
  160.6660  212.6210  141.6480 C   0  0  1  0  0  0  0  0  0  0  0  0
  159.8350  213.1030  140.4320 C   0  0  2  0  0  0  0  0  0  0  0  0
  159.7760  214.2290  139.4410 C   0  0  0  0  0  2  0  0  0  0  0  0
  161.3770  212.7570  140.3400 C   0  0  1  0  0  3  0  0  0  0  0  0
  160.3400  211.3300  142.0400 O   0  0  0  0  0  1  0  0  0  0  0  0
  162.3750  213.9270  140.3820 C   0  0  0  0  0  1  0  0  0  0  0  0
  159.4920  214.4450  140.7740 O   0  0  0  0  0  0  0  0  0  0  0  0
  1 33  1  6  0  0  0
  1  5  1  0  0  0  0
  3 10  1  6  0  0  0
  3  4  1  0  0  0  0
  4  2  1  0  0  0  0
  5  7  1  6  0  0  0
  5  2  1  0  0  0  0
  6  3  1  0  0  0  0
  6  1  1  0  0  0  0
  7  9  1  0  0  0  0
  7  8  1  0  0  0  0
  9  8  1  0  0  0  0
 11 21  1  6  0  0  0
 11 10  1  0  0  0  0
 13 15  1  0  0  0  0
 14 12  2  0  0  0  0
 14 15  1  0  0  0  0
 15 11  1  0  0  0  0
 16 14  1  0  0  0  0
 17 16  1  0  0  0  0
 20 18  1  0  0  0  0
 20 17  1  0  0  0  0
 20 19  1  1  0  0  0
 22 21  1  6  0  0  0
 22 25  1  0  0  0  0
 22 23  1  0  0  0  0
 23 24  1  0  0  0  0
 26 28  1  0  0  0  0
 28 25  1  1  0  0  0
 29 32  1  0  0  0  0
 30 26  1  0  0  0  0
 31 27  1  6  0  0  0
 31 29  1  0  0  0  0
 31 30  1  0  0  0  0
 32 28  1  0  0  0  0
 34 33  1  0  0  0  0
 35 34  2  0  0  0  0
 36 38  1  1  0  0  0
 36 37  1  0  0  0  0
 37 34  1  1  0  0  0
 38 37  1  0  0  0  0
 39 44  1  6  0  0  0
 39 41  1  0  0  0  0
 39 42  1  0  0  0  0
 41 40  1  0  0  0  0
 42 43  1  0  0  0  0
 43 40  1  1  0  0  0
 43 36  1  0  0  0  0
 45 49  1  1  0  0  0
 45 44  1  0  0  0  0
 46 47  1  6  0  0  0
 46 51  1  0  0  0  0
 46 45  1  0  0  0  0
 47 51  1  0  0  0  0
 48 50  1  1  0  0  0
 48 46  1  0  0  0  0
 48 45  1  0  0  0  0
M  END
>  <MODEL>
4

>  <REMARK>
 VINA RESULT:      -4.4      2.826      6.194
  Name = 
  17 active torsions:
  status: ('A' for Active; 'I' for Inactive)
    1  A    between atoms: O_2  and  C_8
    2  A    between atoms: O_2  and  C_28
    3  A    between atoms: C_4  and  O_49
    4  A    between atoms: C_6  and  C_38
    5  A    between atoms: C_7  and  O_49
    6  A    between atoms: N_10  and  C_47
    7  A    between atoms: N_12  and  C_24
    8  A    between atoms: C_13  and  C_28
    9  A    between atoms: N_14  and  C_20
   10  A    between atoms: C_20  and  C_37
   11  A    between atoms: C_24  and  C_40
   12  A    between atoms: C_24  and  O_48
   13  A    between atoms: C_25  and  C_27
   14  A    between atoms: C_27  and  C_35
   15  A    between atoms: O_30  and  C_35
   16  A    between atoms: C_32  and  O_48
   17  A    between atoms: C_35  and  C_40
                            x       y       z     vdW  Elec       q    Type
                         _______ _______ _______ _____ _____    ______ ____

>  <TORSDO>
F 17

$$$$
=
 OpenBabel11072412333D

 51 57  0  0  1  0  0  0  0  0999 V2000
  161.0550  206.7780  147.3910 C   0  0  1  0  0  3  0  0  0  0  0  0
  160.1120  206.0970  149.5370 O   0  0  0  0  0  0  0  0  0  0  0  0
  161.4740  208.0960  149.4550 C   0  0  2  0  0  3  0  0  0  0  0  0
  161.1090  206.8290  150.2250 C   0  0  0  0  0  2  0  0  0  0  0  0
  160.6320  205.6170  148.3080 C   0  0  2  0  0  3  0  0  0  0  0  0
  162.0420  207.6930  148.0990 C   0  0  0  0  0  2  0  0  0  0  0  0
  161.7130  204.5490  148.5040 C   0  0  0  0  0  3  0  0  0  0  0  0
  161.1000  203.3250  149.1660 C   0  0  0  0  0  2  0  0  0  0  0  0
  161.3630  203.3210  147.6750 C   0  0  0  0  0  2  0  0  0  0  0  0
  162.4240  208.8260  150.1790 O   0  0  0  0  0  0  0  0  0  0  0  0
  161.7480  209.9720  150.6180 C   0  0  2  0  0  3  0  0  0  0  0  0
  160.3200  212.3950  150.6410 O   0  0  0  0  0  0  0  0  0  0  0  0
  162.9750  210.9470  148.7500 O   0  0  0  0  0  1  0  0  0  0  0  0
  161.1720  212.2440  149.7210 C   0  0  0  0  0  0  0  0  0  0  0  0
  162.0070  211.0750  149.6970 N   0  0  0  0  0  0  0  0  0  0  0  0
  161.3320  213.2480  148.7200 N   0  0  0  0  0  2  0  0  0  0  0  0
  160.5170  214.4530  148.6750 C   0  0  0  0  0  2  0  0  0  0  0  0
  158.1830  213.9000  148.4710 O   0  0  0  0  0  1  0  0  0  0  0  0
  159.5960  213.2800  146.6570 C   0  0  0  0  0  1  0  0  0  0  0  0
  159.3120  214.2890  147.7510 C   0  0  2  0  0  3  0  0  0  0  0  0
  162.1980  210.3240  152.0330 C   0  0  0  0  0  2  0  0  0  0  0  0
  161.0700  210.1630  153.0580 C   0  0  1  0  0  3  0  0  0  0  0  0
  160.5480  208.8720  152.9800 O   0  0  0  0  0  0  0  0  0  0  0  0
  161.1420  208.1720  154.0370 C   0  0  0  0  0  1  0  0  0  0  0  0
  161.5260  210.4660  154.4930 C   0  0  0  0  0  2  0  0  0  0  0  0
  159.8680  212.2970  154.1450 C   0  0  0  0  0  2  0  0  0  0  0  0
  156.7620  212.2400  156.2350 N   0  0  0  0  0  1  0  0  0  0  0  0
  160.6730  211.5280  155.2020 C   0  0  1  0  0  3  0  0  0  0  0  0
  158.4300  210.5050  155.7720 C   0  0  0  0  0  2  0  0  0  0  0  0
  158.5650  212.8570  154.7280 C   0  0  0  0  0  2  0  0  0  0  0  0
  157.6600  211.7210  155.2220 C   0  0  2  0  0  3  0  0  0  0  0  0
  159.8080  210.9000  156.2990 C   0  0  0  0  0  2  0  0  0  0  0  0
  161.6070  206.3150  146.1670 O   0  0  0  0  0  0  0  0  0  0  0  0
  160.7850  205.9750  145.0890 C   0  0  0  0  0  0  0  0  0  0  0  0
  159.6930  206.5750  144.9030 O   0  0  0  0  0  0  0  0  0  0  0  0
  161.9280  205.4910  142.9850 N   0  0  2  0  0  0  0  0  0  0  0  0
  161.2000  204.8820  144.1480 C   0  0  1  0  0  3  0  0  0  0  0  0
  162.5770  204.7730  144.1220 C   0  0  0  0  0  2  0  0  0  0  0  0
  161.3970  208.0450  140.3880 C   0  0  1  0  0  3  0  0  0  0  0  0
  162.3590  205.7210  140.6370 C   0  0  0  0  0  2  0  0  0  0  0  0
  162.2870  206.8860  139.2890 S   0  0  0  0  0  0  0  0  0  0  0  0
  161.5200  207.5480  141.7090 O   0  0  0  0  0  0  0  0  0  0  0  0
  161.9640  206.2440  141.7770 C   0  0  1  0  0  3  0  0  0  0  0  0
  161.9510  209.3320  140.2900 O   0  0  0  0  0  0  0  0  0  0  0  0
  160.9800  210.1480  139.6630 C   0  0  1  0  0  0  0  0  0  0  0  0
  160.6580  211.5000  140.3460 C   0  0  2  0  0  0  0  0  0  0  0  0
  161.3470  212.7160  140.8940 C   0  0  0  0  0  2  0  0  0  0  0  0
  161.3930  211.3930  138.9480 C   0  0  1  0  0  3  0  0  0  0  0  0
  159.8450  209.5080  139.1810 O   0  0  0  0  0  1  0  0  0  0  0  0
  162.9250  211.5320  138.9350 C   0  0  0  0  0  1  0  0  0  0  0  0
  161.4800  211.4890  141.5120 O   0  0  0  0  0  0  0  0  0  0  0  0
  1 33  1  6  0  0  0
  1  6  1  0  0  0  0
  1  5  1  0  0  0  0
  2  4  1  0  0  0  0
  3 10  1  1  0  0  0
  3  4  1  0  0  0  0
  5  7  1  1  0  0  0
  5  2  1  0  0  0  0
  6  3  1  0  0  0  0
  7  8  1  0  0  0  0
  9  7  1  0  0  0  0
  9  8  1  0  0  0  0
 10 11  1  0  0  0  0
 11 21  1  1  0  0  0
 13 15  1  0  0  0  0
 14 12  2  0  0  0  0
 15 14  1  0  0  0  0
 15 11  1  0  0  0  0
 16 14  1  0  0  0  0
 17 16  1  0  0  0  0
 20 19  1  6  0  0  0
 20 18  1  0  0  0  0
 20 17  1  0  0  0  0
 22 21  1  6  0  0  0
 22 25  1  0  0  0  0
 23 22  1  0  0  0  0
 23 24  1  0  0  0  0
 26 30  1  0  0  0  0
 26 28  1  0  0  0  0
 28 25  1  6  0  0  0
 28 32  1  0  0  0  0
 29 32  1  0  0  0  0
 30 31  1  0  0  0  0
 31 29  1  0  0  0  0
 31 27  1  1  0  0  0
 34 33  1  0  0  0  0
 35 34  2  0  0  0  0
 36 38  1  1  0  0  0
 36 37  1  0  0  0  0
 37 34  1  1  0  0  0
 38 37  1  0  0  0  0
 39 44  1  1  0  0  0
 39 42  1  0  0  0  0
 41 39  1  0  0  0  0
 41 40  1  0  0  0  0
 42 43  1  0  0  0  0
 43 40  1  6  0  0  0
 43 36  1  0  0  0  0
 45 49  1  6  0  0  0
 45 44  1  0  0  0  0
 45 46  1  0  0  0  0
 46 47  1  1  0  0  0
 46 51  1  0  0  0  0
 47 51  1  0  0  0  0
 48 50  1  1  0  0  0
 48 45  1  0  0  0  0
 48 46  1  0  0  0  0
M  END
>  <MODEL>
5

>  <REMARK>
 VINA RESULT:      -4.1      2.438      6.738
  Name = 
  17 active torsions:
  status: ('A' for Active; 'I' for Inactive)
    1  A    between atoms: O_2  and  C_8
    2  A    between atoms: O_2  and  C_28
    3  A    between atoms: C_4  and  O_49
    4  A    between atoms: C_6  and  C_38
    5  A    between atoms: C_7  and  O_49
    6  A    between atoms: N_10  and  C_47
    7  A    between atoms: N_12  and  C_24
    8  A    between atoms: C_13  and  C_28
    9  A    between atoms: N_14  and  C_20
   10  A    between atoms: C_20  and  C_37
   11  A    between atoms: C_24  and  C_40
   12  A    between atoms: C_24  and  O_48
   13  A    between atoms: C_25  and  C_27
   14  A    between atoms: C_27  and  C_35
   15  A    between atoms: O_30  and  C_35
   16  A    between atoms: C_32  and  O_48
   17  A    between atoms: C_35  and  C_40
                            x       y       z     vdW  Elec       q    Type
                         _______ _______ _______ _____ _____    ______ ____

>  <TORSDO>
F 17

$$$$
=
 OpenBabel11072412333D

 51 57  0  0  1  0  0  0  0  0999 V2000
  161.8240  212.8310  147.0690 C   0  0  1  0  0  3  0  0  0  0  0  0
  161.4680  214.2620  149.0140 O   0  0  0  0  0  0  0  0  0  0  0  0
  161.5720  211.8670  149.3450 C   0  0  2  0  0  3  0  0  0  0  0  0
  160.8930  213.1810  149.7230 C   0  0  0  0  0  2  0  0  0  0  0  0
  161.2010  214.1220  147.6280 C   0  0  2  0  0  3  0  0  0  0  0  0
  161.3530  211.6190  147.8570 C   0  0  0  0  0  2  0  0  0  0  0  0
  159.7150  214.2950  147.2950 C   0  0  0  0  0  3  0  0  0  0  0  0
  158.9300  213.1230  147.8630 C   0  0  0  0  0  2  0  0  0  0  0  0
  158.9240  214.4530  148.5850 C   0  0  0  0  0  2  0  0  0  0  0  0
  161.0210  210.8210  150.0940 O   0  0  0  0  0  0  0  0  0  0  0  0
  162.1110  210.0210  150.4620 C   0  0  2  0  0  3  0  0  0  0  0  0
  162.6610  208.6530  148.0670 O   0  0  0  0  0  0  0  0  0  0  0  0
  161.1600  207.9060  151.2140 O   0  0  0  0  0  1  0  0  0  0  0  0
  162.0210  208.0190  148.9520 C   0  0  0  0  0  0  0  0  0  0  0  0
  161.7840  208.6160  150.2360 N   0  0  0  0  0  0  0  0  0  0  0  0
  161.5590  206.6950  148.6900 N   0  0  0  0  0  2  0  0  0  0  0  0
  161.7540  206.0290  147.4110 C   0  0  0  0  0  2  0  0  0  0  0  0
  161.7640  203.8530  146.3800 O   0  0  0  0  0  1  0  0  0  0  0  0
  161.0730  203.9600  148.6560 C   0  0  0  0  0  1  0  0  0  0  0  0
  161.9770  204.5280  147.5820 C   0  0  2  0  0  3  0  0  0  0  0  0
  162.4630  210.2730  151.9260 C   0  0  0  0  0  2  0  0  0  0  0  0
  161.2350  210.1890  152.8400 C   0  0  1  0  0  3  0  0  0  0  0  0
  161.6160  209.7030  154.0900 O   0  0  0  0  0  0  0  0  0  0  0  0
  160.9010  208.5100  154.2530 C   0  0  0  0  0  1  0  0  0  0  0  0
  160.5170  211.5380  152.9910 C   0  0  0  0  0  2  0  0  0  0  0  0
  158.4780  211.5790  154.4290 C   0  0  0  0  0  2  0  0  0  0  0  0
  155.6630  213.8100  153.3760 N   0  0  0  0  0  1  0  0  0  0  0  0
  158.9860  211.4270  152.9880 C   0  0  1  0  0  3  0  0  0  0  0  0
  158.0150  213.7450  152.6920 C   0  0  0  0  0  2  0  0  0  0  0  0
  157.0540  212.1440  154.4670 C   0  0  0  0  0  2  0  0  0  0  0  0
  157.0090  213.5440  153.8410 C   0  0  2  0  0  3  0  0  0  0  0  0
  158.3620  212.4250  152.0070 C   0  0  0  0  0  2  0  0  0  0  0  0
  161.5420  212.6590  145.6870 O   0  0  0  0  0  0  0  0  0  0  0  0
  162.3340  213.2640  144.7080 C   0  0  0  0  0  0  0  0  0  0  0  0
  163.5720  213.0370  144.6570 O   0  0  0  0  0  0  0  0  0  0  0  0
  161.6150  213.5060  142.3860 N   0  0  2  0  0  0  0  0  0  0  0  0
  161.7100  214.1990  143.7140 C   0  0  1  0  0  3  0  0  0  0  0  0
  160.4740  213.7240  143.3240 C   0  0  0  0  0  2  0  0  0  0  0  0
  162.7870  211.2650  139.7120 C   0  0  1  0  0  3  0  0  0  0  0  0
  163.0660  213.6560  140.4820 C   0  0  0  0  0  2  0  0  0  0  0  0
  163.6360  212.7470  139.0590 S   0  0  0  0  0  0  0  0  0  0  0  0
  161.9350  211.6970  140.7570 O   0  0  0  0  0  0  0  0  0  0  0  0
  162.1950  212.9780  141.1980 C   0  0  1  0  0  3  0  0  0  0  0  0
  162.0450  210.6410  138.6950 O   0  0  0  0  0  0  0  0  0  0  0  0
  161.5310  209.4420  139.2410 C   0  0  1  0  0  0  0  0  0  0  0  0
  160.1210  209.0070  138.7670 C   0  0  2  0  0  0  0  0  0  0  0  0
  159.3390  208.7860  137.5060 C   0  0  0  0  0  2  0  0  0  0  0  0
  161.4390  208.2100  138.4000 C   0  0  1  0  0  3  0  0  0  0  0  0
  161.7210  209.2440  140.6020 O   0  0  0  0  0  1  0  0  0  0  0  0
  162.0550  208.4520  137.0110 C   0  0  0  0  0  1  0  0  0  0  0  0
  159.7300  210.0550  137.8820 O   0  0  0  0  0  0  0  0  0  0  0  0
  1 33  1  6  0  0  0
  1  5  1  0  0  0  0
  1  6  1  0  0  0  0
  2  4  1  0  0  0  0
  3  4  1  0  0  0  0
  3 10  1  1  0  0  0
  5  7  1  1  0  0  0
  5  2  1  0  0  0  0
  6  3  1  0  0  0  0
  7  8  1  0  0  0  0
  7  9  1  0  0  0  0
  8  9  1  0  0  0  0
 10 11  1  0  0  0  0
 11 21  1  1  0  0  0
 12 14  2  0  0  0  0
 14 15  1  0  0  0  0
 15 11  1  0  0  0  0
 15 13  1  0  0  0  0
 16 14  1  0  0  0  0
 17 20  1  0  0  0  0
 17 16  1  0  0  0  0
 18 20  1  0  0  0  0
 20 19  1  1  0  0  0
 22 21  1  6  0  0  0
 22 25  1  0  0  0  0
 22 23  1  0  0  0  0
 23 24  1  0  0  0  0
 26 30  1  0  0  0  0
 28 25  1  1  0  0  0
 28 26  1  0  0  0  0
 29 31  1  0  0  0  0
 31 27  1  6  0  0  0
 31 30  1  0  0  0  0
 32 29  1  0  0  0  0
 32 28  1  0  0  0  0
 34 33  1  0  0  0  0
 35 34  2  0  0  0  0
 36 38  1  1  0  0  0
 36 37  1  0  0  0  0
 37 34  1  1  0  0  0
 38 37  1  0  0  0  0
 39 44  1  6  0  0  0
 39 42  1  0  0  0  0
 41 39  1  0  0  0  0
 41 40  1  0  0  0  0
 42 43  1  0  0  0  0
 43 40  1  1  0  0  0
 43 36  1  0  0  0  0
 44 45  1  0  0  0  0
 45 49  1  1  0  0  0
 46 47  1  1  0  0  0
 46 45  1  0  0  0  0
 47 51  1  0  0  0  0
 48 50  1  6  0  0  0
 48 46  1  0  0  0  0
 48 45  1  0  0  0  0
 51 46  1  0  0  0  0
M  END
>  <MODEL>
6

>  <REMARK>
 VINA RESULT:      -3.8      2.268      5.590
  Name = 
  17 active torsions:
  status: ('A' for Active; 'I' for Inactive)
    1  A    between atoms: O_2  and  C_8
    2  A    between atoms: O_2  and  C_28
    3  A    between atoms: C_4  and  O_49
    4  A    between atoms: C_6  and  C_38
    5  A    between atoms: C_7  and  O_49
    6  A    between atoms: N_10  and  C_47
    7  A    between atoms: N_12  and  C_24
    8  A    between atoms: C_13  and  C_28
    9  A    between atoms: N_14  and  C_20
   10  A    between atoms: C_20  and  C_37
   11  A    between atoms: C_24  and  C_40
   12  A    between atoms: C_24  and  O_48
   13  A    between atoms: C_25  and  C_27
   14  A    between atoms: C_27  and  C_35
   15  A    between atoms: O_30  and  C_35
   16  A    between atoms: C_32  and  O_48
   17  A    between atoms: C_35  and  C_40
                            x       y       z     vdW  Elec       q    Type
                         _______ _______ _______ _____ _____    ______ ____

>  <TORSDO>
F 17

$$$$
=
 OpenBabel11072412333D

 51 57  0  0  1  0  0  0  0  0999 V2000
  161.8620  207.7460  151.8980 C   0  0  1  0  0  3  0  0  0  0  0  0
  162.5040  209.8650  150.8700 O   0  0  0  0  0  0  0  0  0  0  0  0
  160.6500  209.8490  152.4250 C   0  0  2  0  0  3  0  0  0  0  0  0
  161.2130  210.3920  151.1140 C   0  0  0  0  0  2  0  0  0  0  0  0
  162.4170  208.4660  150.6560 C   0  0  2  0  0  3  0  0  0  0  0  0
  160.5210  208.3350  152.3090 C   0  0  0  0  0  2  0  0  0  0  0  0
  161.6930  208.1130  149.3520 C   0  0  0  0  0  3  0  0  0  0  0  0
  162.5920  208.4390  148.1710 C   0  0  0  0  0  2  0  0  0  0  0  0
  162.4540  207.0060  148.6380 C   0  0  0  0  0  2  0  0  0  0  0  0
  159.3960  210.4220  152.6690 O   0  0  0  0  0  0  0  0  0  0  0  0
  159.6330  211.8000  152.7520 C   0  0  2  0  0  3  0  0  0  0  0  0
  157.2200  212.6940  153.8860 O   0  0  0  0  0  0  0  0  0  0  0  0
  160.5930  212.2410  154.9490 O   0  0  0  0  0  1  0  0  0  0  0  0
  158.2510  212.7610  154.6120 C   0  0  0  0  0  0  0  0  0  0  0  0
  159.5010  212.2370  154.1390 N   0  0  0  0  0  0  0  0  0  0  0  0
  158.1700  213.3280  155.9190 N   0  0  0  0  0  2  0  0  0  0  0  0
  156.9410  213.8860  156.4630 C   0  0  0  0  0  2  0  0  0  0  0  0
  154.5520  213.6080  156.5860 O   0  0  0  0  0  1  0  0  0  0  0  0
  155.8740  211.6380  156.7900 C   0  0  0  0  0  1  0  0  0  0  0  0
  155.7320  213.0050  156.1520 C   0  0  2  0  0  3  0  0  0  0  0  0
  158.6540  212.5450  151.8480 C   0  0  0  0  0  2  0  0  0  0  0  0
  159.3140  213.7260  151.1260 C   0  0  1  0  0  3  0  0  0  0  0  0
  160.4800  213.2950  150.4940 O   0  0  0  0  0  0  0  0  0  0  0  0
  161.0400  214.4480  149.9320 C   0  0  0  0  0  1  0  0  0  0  0  0
  158.3770  214.3970  150.1110 C   0  0  0  0  0  2  0  0  0  0  0  0
  156.8420  214.2050  148.1540 C   0  0  0  0  0  2  0  0  0  0  0  0
  158.1810  212.5830  145.0570 N   0  0  0  0  0  1  0  0  0  0  0  0
  157.8130  213.4320  149.0580 C   0  0  1  0  0  3  0  0  0  0  0  0
  159.3210  213.4890  147.0280 C   0  0  0  0  0  2  0  0  0  0  0  0
  156.7610  213.5830  146.7550 C   0  0  0  0  0  2  0  0  0  0  0  0
  158.1290  213.6260  146.0620 C   0  0  2  0  0  3  0  0  0  0  0  0
  158.9380  212.7280  148.2950 C   0  0  0  0  0  2  0  0  0  0  0  0
  161.7400  206.3450  151.6910 O   0  0  0  0  0  0  0  0  0  0  0  0
  161.3390  205.4960  152.7260 C   0  0  0  0  0  0  0  0  0  0  0  0
  161.9770  205.4650  153.8110 O   0  0  0  0  0  0  0  0  0  0  0  0
  160.4970  203.5110  151.5780 N   0  0  2  0  0  0  0  0  0  0  0  0
  160.1440  204.6060  152.5420 C   0  0  1  0  0  3  0  0  0  0  0  0
  160.4010  203.3510  153.0590 C   0  0  0  0  0  2  0  0  0  0  0  0
  160.8690  203.1820  147.9310 C   0  0  1  0  0  3  0  0  0  0  0  0
  160.9550  201.7520  150.0130 C   0  0  0  0  0  2  0  0  0  0  0  0
  161.2820  201.4370  148.2900 S   0  0  0  0  0  0  0  0  0  0  0  0
  160.8250  203.8650  149.1710 O   0  0  0  0  0  0  0  0  0  0  0  0
  160.7820  203.0310  150.2680 C   0  0  1  0  0  3  0  0  0  0  0  0
  161.8400  203.7480  147.0880 O   0  0  0  0  0  0  0  0  0  0  0  0
  161.3180  203.7000  145.7740 C   0  0  1  0  0  0  0  0  0  0  0  0
  160.4540  204.9040  145.3210 C   0  0  2  0  0  0  0  0  0  0  0  0
  160.4920  206.4030  145.2680 C   0  0  0  0  0  2  0  0  0  0  0  0
  161.8790  204.5860  144.7090 C   0  0  1  0  0  3  0  0  0  0  0  0
  160.8010  202.4820  145.3530 O   0  0  0  0  0  1  0  0  0  0  0  0
  163.0790  205.3870  145.2430 C   0  0  0  0  0  1  0  0  0  0  0  0
  160.4170  205.7410  146.4760 O   0  0  0  0  0  0  0  0  0  0  0  0
  1 33  1  6  0  0  0
  1  6  1  0  0  0  0
  2  4  1  0  0  0  0
  3 10  1  6  0  0  0
  4  3  1  0  0  0  0
  5  7  1  6  0  0  0
  5  2  1  0  0  0  0
  5  1  1  0  0  0  0
  6  3  1  0  0  0  0
  8  9  1  0  0  0  0
  8  7  1  0  0  0  0
  9  7  1  0  0  0  0
 10 11  1  0  0  0  0
 11 21  1  6  0  0  0
 11 15  1  0  0  0  0
 12 14  2  0  0  0  0
 14 16  1  0  0  0  0
 15 14  1  0  0  0  0
 15 13  1  0  0  0  0
 16 17  1  0  0  0  0
 20 17  1  0  0  0  0
 20 18  1  0  0  0  0
 20 19  1  1  0  0  0
 22 25  1  6  0  0  0
 22 21  1  0  0  0  0
 23 22  1  0  0  0  0
 24 23  1  0  0  0  0
 26 28  1  0  0  0  0
 28 25  1  1  0  0  0
 29 32  1  0  0  0  0
 30 26  1  0  0  0  0
 31 27  1  6  0  0  0
 31 30  1  0  0  0  0
 31 29  1  0  0  0  0
 32 28  1  0  0  0  0
 33 34  1  0  0  0  0
 34 35  2  0  0  0  0
 36 37  1  0  0  0  0
 36 38  1  1  0  0  0
 37 34  1  1  0  0  0
 37 38  1  0  0  0  0
 39 44  1  6  0  0  0
 39 41  1  0  0  0  0
 39 42  1  0  0  0  0
 41 40  1  0  0  0  0
 42 43  1  0  0  0  0
 43 40  1  6  0  0  0
 43 36  1  0  0  0  0
 45 49  1  6  0  0  0
 45 44  1  0  0  0  0
 46 47  1  6  0  0  0
 46 45  1  0  0  0  0
 46 51  1  0  0  0  0
 47 51  1  0  0  0  0
 48 50  1  1  0  0  0
 48 46  1  0  0  0  0
 48 45  1  0  0  0  0
M  END
>  <MODEL>
7

>  <REMARK>
 VINA RESULT:      -3.7      4.352      7.943
  Name = 
  17 active torsions:
  status: ('A' for Active; 'I' for Inactive)
    1  A    between atoms: O_2  and  C_8
    2  A    between atoms: O_2  and  C_28
    3  A    between atoms: C_4  and  O_49
    4  A    between atoms: C_6  and  C_38
    5  A    between atoms: C_7  and  O_49
    6  A    between atoms: N_10  and  C_47
    7  A    between atoms: N_12  and  C_24
    8  A    between atoms: C_13  and  C_28
    9  A    between atoms: N_14  and  C_20
   10  A    between atoms: C_20  and  C_37
   11  A    between atoms: C_24  and  C_40
   12  A    between atoms: C_24  and  O_48
   13  A    between atoms: C_25  and  C_27
   14  A    between atoms: C_27  and  C_35
   15  A    between atoms: O_30  and  C_35
   16  A    between atoms: C_32  and  O_48
   17  A    between atoms: C_35  and  C_40
                            x       y       z     vdW  Elec       q    Type
                         _______ _______ _______ _____ _____    ______ ____

>  <TORSDO>
F 17

$$$$
=
 OpenBabel11072412333D

 51 57  0  0  1  0  0  0  0  0999 V2000
  160.4360  208.0710  153.4690 C   0  0  1  0  0  3  0  0  0  0  0  0
  159.4640  209.4760  155.2130 O   0  0  0  0  0  0  0  0  0  0  0  0
  159.8190  210.4350  153.0200 C   0  0  2  0  0  3  0  0  0  0  0  0
  159.8870  210.6420  154.5310 C   0  0  0  0  0  2  0  0  0  0  0  0
  160.3770  208.4190  154.9670 C   0  0  2  0  0  3  0  0  0  0  0  0
  160.7680  209.3030  152.6410 C   0  0  0  0  0  2  0  0  0  0  0  0
  161.7480  208.6650  155.6070 C   0  0  0  0  0  3  0  0  0  0  0  0
  161.5790  208.8530  157.1060 C   0  0  0  0  0  2  0  0  0  0  0  0
  162.0680  207.5270  156.5640 C   0  0  0  0  0  2  0  0  0  0  0  0
  160.1950  211.6160  152.3680 O   0  0  0  0  0  0  0  0  0  0  0  0
  159.0430  212.4150  152.3680 C   0  0  2  0  0  3  0  0  0  0  0  0
  161.0370  212.7600  150.4150 O   0  0  0  0  0  0  0  0  0  0  0  0
  157.5080  213.2120  150.6500 O   0  0  0  0  0  1  0  0  0  0  0  0
  159.8670  213.1210  150.1060 C   0  0  0  0  0  0  0  0  0  0  0  0
  158.7780  212.8910  151.0130 N   0  0  0  0  0  0  0  0  0  0  0  0
  159.6170  213.7300  148.8400 N   0  0  0  0  0  2  0  0  0  0  0  0
  160.6700  214.0040  147.8740 C   0  0  0  0  0  2  0  0  0  0  0  0
  161.7940  213.1710  145.9140 O   0  0  0  0  0  1  0  0  0  0  0  0
  159.5250  212.5150  146.2110 C   0  0  0  0  0  1  0  0  0  0  0  0
  160.8400  212.8560  146.8800 C   0  0  2  0  0  3  0  0  0  0  0  0
  159.2300  213.5840  153.3320 C   0  0  0  0  0  2  0  0  0  0  0  0
  158.1500  213.6190  154.4180 C   0  0  1  0  0  3  0  0  0  0  0  0
  158.5740  214.4270  155.4740 O   0  0  0  0  0  0  0  0  0  0  0  0
  158.9160  213.5380  156.5000 C   0  0  0  0  0  1  0  0  0  0  0  0
  156.7930  214.1070  153.8890 C   0  0  0  0  0  2  0  0  0  0  0  0
  156.2160  211.7240  154.3450 C   0  0  0  0  0  2  0  0  0  0  0  0
  153.9750  211.0130  157.2590 N   0  0  0  0  0  1  0  0  0  0  0  0
  155.6370  213.1340  154.1580 C   0  0  1  0  0  3  0  0  0  0  0  0
  155.2580  213.0130  156.6570 C   0  0  0  0  0  2  0  0  0  0  0  0
  155.3190  210.8620  155.2400 C   0  0  0  0  0  2  0  0  0  0  0  0
  155.2040  211.4730  156.6430 C   0  0  2  0  0  3  0  0  0  0  0  0
  154.7790  213.6070  155.3350 C   0  0  0  0  0  2  0  0  0  0  0  0
  161.3690  207.0340  153.2000 O   0  0  0  0  0  0  0  0  0  0  0  0
  161.2000  206.1780  152.1090 C   0  0  0  0  0  0  0  0  0  0  0  0
  161.7330  206.4440  151.0000 O   0  0  0  0  0  0  0  0  0  0  0  0
  160.8090  203.9350  151.2240 N   0  0  2  0  0  0  0  0  0  0  0  0
  160.3710  204.9350  152.2540 C   0  0  1  0  0  3  0  0  0  0  0  0
  161.1610  203.8820  152.6740 C   0  0  0  0  0  2  0  0  0  0  0  0
  160.8760  203.6960  147.5520 C   0  0  1  0  0  3  0  0  0  0  0  0
  160.7250  202.1920  149.5780 C   0  0  0  0  0  2  0  0  0  0  0  0
  160.8620  201.8880  147.8270 S   0  0  0  0  0  0  0  0  0  0  0  0
  161.0750  204.3090  148.8120 O   0  0  0  0  0  0  0  0  0  0  0  0
  160.8900  203.4610  149.8840 C   0  0  1  0  0  3  0  0  0  0  0  0
  161.9060  204.0440  146.6630 O   0  0  0  0  0  0  0  0  0  0  0  0
  161.7390  205.4170  146.3630 C   0  0  1  0  0  0  0  0  0  0  0  0
  162.0870  205.8630  144.9210 C   0  0  2  0  0  0  0  0  0  0  0  0
  161.7980  205.5000  143.4930 C   0  0  0  0  0  2  0  0  0  0  0  0
  160.6100  205.8640  145.4920 C   0  0  1  0  0  3  0  0  0  0  0  0
  162.1730  206.3230  147.3220 O   0  0  0  0  0  1  0  0  0  0  0  0
  159.7020  204.6780  145.1250 C   0  0  0  0  0  1  0  0  0  0  0  0
  162.5390  204.6610  144.3000 O   0  0  0  0  0  0  0  0  0  0  0  0
  1 33  1  1  0  0  0
  1  5  1  0  0  0  0
  3 10  1  6  0  0  0
  3  4  1  0  0  0  0
  4  2  1  0  0  0  0
  5  2  1  0  0  0  0
  5  7  1  6  0  0  0
  6  3  1  0  0  0  0
  6  1  1  0  0  0  0
  7  9  1  0  0  0  0
  7  8  1  0  0  0  0
  9  8  1  0  0  0  0
 10 11  1  0  0  0  0
 11 21  1  1  0  0  0
 13 15  1  0  0  0  0
 14 12  2  0  0  0  0
 14 15  1  0  0  0  0
 15 11  1  0  0  0  0
 16 14  1  0  0  0  0
 17 16  1  0  0  0  0
 18 20  1  0  0  0  0
 20 19  1  6  0  0  0
 20 17  1  0  0  0  0
 22 21  1  6  0  0  0
 22 23  1  0  0  0  0
 23 24  1  0  0  0  0
 25 22  1  0  0  0  0
 26 30  1  0  0  0  0
 28 25  1  1  0  0  0
 28 26  1  0  0  0  0
 28 32  1  0  0  0  0
 30 31  1  0  0  0  0
 31 29  1  0  0  0  0
 31 27  1  6  0  0  0
 32 29  1  0  0  0  0
 34 33  1  0  0  0  0
 35 34  2  0  0  0  0
 36 37  1  0  0  0  0
 36 38  1  6  0  0  0
 37 34  1  6  0  0  0
 37 38  1  0  0  0  0
 39 44  1  6  0  0  0
 39 41  1  0  0  0  0
 39 42  1  0  0  0  0
 41 40  1  0  0  0  0
 42 43  1  0  0  0  0
 43 40  1  6  0  0  0
 43 36  1  0  0  0  0
 45 44  1  0  0  0  0
 45 49  1  1  0  0  0
 46 47  1  6  0  0  0
 46 48  1  0  0  0  0
 46 45  1  0  0  0  0
 47 51  1  0  0  0  0
 48 50  1  6  0  0  0
 48 45  1  0  0  0  0
 51 46  1  0  0  0  0
M  END
>  <MODEL>
8

>  <REMARK>
 VINA RESULT:      -3.4      3.920      9.048
  Name = 
  17 active torsions:
  status: ('A' for Active; 'I' for Inactive)
    1  A    between atoms: O_2  and  C_8
    2  A    between atoms: O_2  and  C_28
    3  A    between atoms: C_4  and  O_49
    4  A    between atoms: C_6  and  C_38
    5  A    between atoms: C_7  and  O_49
    6  A    between atoms: N_10  and  C_47
    7  A    between atoms: N_12  and  C_24
    8  A    between atoms: C_13  and  C_28
    9  A    between atoms: N_14  and  C_20
   10  A    between atoms: C_20  and  C_37
   11  A    between atoms: C_24  and  C_40
   12  A    between atoms: C_24  and  O_48
   13  A    between atoms: C_25  and  C_27
   14  A    between atoms: C_27  and  C_35
   15  A    between atoms: O_30  and  C_35
   16  A    between atoms: C_32  and  O_48
   17  A    between atoms: C_35  and  C_40
                            x       y       z     vdW  Elec       q    Type
                         _______ _______ _______ _____ _____    ______ ____

>  <TORSDO>
F 17

$$$$
=
 OpenBabel11072412333D

 51 57  0  0  1  0  0  0  0  0999 V2000
  161.1720  207.0600  153.2700 C   0  0  1  0  0  3  0  0  0  0  0  0
  162.6980  205.5850  152.0650 O   0  0  0  0  0  0  0  0  0  0  0  0
  161.5910  207.3540  150.8390 C   0  0  2  0  0  3  0  0  0  0  0  0
  162.0620  205.9010  150.8410 C   0  0  0  0  0  2  0  0  0  0  0  0
  161.7560  205.6440  153.1230 C   0  0  2  0  0  3  0  0  0  0  0  0
  160.5700  207.5340  151.9570 C   0  0  0  0  0  2  0  0  0  0  0  0
  160.7000  204.5370  153.0340 C   0  0  0  0  0  3  0  0  0  0  0  0
  160.4840  204.1610  151.5770 C   0  0  0  0  0  2  0  0  0  0  0  0
  161.3370  203.2780  152.4640 C   0  0  0  0  0  2  0  0  0  0  0  0
  161.0100  207.6570  149.6020 O   0  0  0  0  0  0  0  0  0  0  0  0
  162.0630  208.1380  148.8120 C   0  0  2  0  0  3  0  0  0  0  0  0
  162.6760  210.7090  149.7740 O   0  0  0  0  0  0  0  0  0  0  0  0
  160.9130  209.3080  147.0090 O   0  0  0  0  0  1  0  0  0  0  0  0
  161.9320  210.6430  148.7550 C   0  0  0  0  0  0  0  0  0  0  0  0
  161.6520  209.3720  148.1490 N   0  0  0  0  0  0  0  0  0  0  0  0
  161.3950  211.8350  148.1830 N   0  0  0  0  0  2  0  0  0  0  0  0
  161.6280  213.1560  148.7460 C   0  0  0  0  0  2  0  0  0  0  0  0
  159.6310  214.3060  149.4450 O   0  0  0  0  0  1  0  0  0  0  0  0
  159.7550  213.6630  147.1560 C   0  0  0  0  0  1  0  0  0  0  0  0
  160.5140  214.1340  148.3800 C   0  0  2  0  0  3  0  0  0  0  0  0
  162.4670  207.0770  147.7930 C   0  0  0  0  0  2  0  0  0  0  0  0
  161.2580  206.3170  147.2370 C   0  0  1  0  0  3  0  0  0  0  0  0
  161.5370  205.8760  145.9430 O   0  0  0  0  0  0  0  0  0  0  0  0
  160.4220  206.2450  145.1810 C   0  0  0  0  0  1  0  0  0  0  0  0
  160.8430  205.1330  148.1230 C   0  0  0  0  0  2  0  0  0  0  0  0
  161.0220  202.7070  148.6760 C   0  0  0  0  0  2  0  0  0  0  0  0
  161.1930  200.2900  145.8220 N   0  0  0  0  0  1  0  0  0  0  0  0
  161.6250  203.8430  147.8370 C   0  0  1  0  0  3  0  0  0  0  0  0
  160.5110  202.6430  145.9080 C   0  0  0  0  0  2  0  0  0  0  0  0
  161.2360  201.3420  148.0110 C   0  0  0  0  0  2  0  0  0  0  0  0
  160.5410  201.2900  146.6440 C   0  0  2  0  0  3  0  0  0  0  0  0
  161.6670  203.5440  146.3360 C   0  0  0  0  0  2  0  0  0  0  0  0
  160.2040  207.1310  154.3080 O   0  0  0  0  0  0  0  0  0  0  0  0
  160.4360  207.8860  155.4600 C   0  0  0  0  0  0  0  0  0  0  0  0
  159.6150  207.8640  156.4150 O   0  0  0  0  0  0  0  0  0  0  0  0
  161.3350  209.9870  156.3220 N   0  0  2  0  0  0  0  0  0  0  0  0
  161.6680  208.7370  155.5610 C   0  0  1  0  0  3  0  0  0  0  0  0
  162.0840  208.8200  156.8750 C   0  0  0  0  0  2  0  0  0  0  0  0
  159.2940  212.9950  155.7470 C   0  0  1  0  0  3  0  0  0  0  0  0
  161.1800  212.2020  157.2300 C   0  0  0  0  0  2  0  0  0  0  0  0
  160.2110  213.6960  157.1650 S   0  0  0  0  0  0  0  0  0  0  0  0
  159.6160  211.6180  155.6790 O   0  0  0  0  0  0  0  0  0  0  0  0
  160.7110  211.2610  156.4390 C   0  0  1  0  0  3  0  0  0  0  0  0
  157.9120  213.1720  155.9260 O   0  0  0  0  0  0  0  0  0  0  0  0
  157.3100  212.9990  154.6570 C   0  0  1  0  0  0  0  0  0  0  0  0
  156.4520  211.7250  154.4580 C   0  0  2  0  0  0  0  0  0  0  0  0
  155.3300  210.9700  155.1090 C   0  0  0  0  0  2  0  0  0  0  0  0
  155.8360  213.1840  154.4920 C   0  0  1  0  0  3  0  0  0  0  0  0
  158.0950  213.2930  153.5490 O   0  0  0  0  0  1  0  0  0  0  0  0
  155.1960  213.6580  155.8080 C   0  0  0  0  0  1  0  0  0  0  0  0
  156.5720  211.0450  155.7060 O   0  0  0  0  0  0  0  0  0  0  0  0
  1 33  1  1  0  0  0
  2  5  1  0  0  0  0
  3 10  1  6  0  0  0
  3  4  1  0  0  0  0
  3  6  1  0  0  0  0
  4  2  1  0  0  0  0
  5  7  1  6  0  0  0
  5  1  1  0  0  0  0
  6  1  1  0  0  0  0
  8  9  1  0  0  0  0
  8  7  1  0  0  0  0
  9  7  1  0  0  0  0
 11 21  1  6  0  0  0
 11 10  1  0  0  0  0
 13 15  1  0  0  0  0
 14 12  2  0  0  0  0
 15 14  1  0  0  0  0
 15 11  1  0  0  0  0
 16 17  1  0  0  0  0
 16 14  1  0  0  0  0
 20 19  1  6  0  0  0
 20 17  1  0  0  0  0
 20 18  1  0  0  0  0
 22 21  1  1  0  0  0
 22 25  1  0  0  0  0
 23 22  1  0  0  0  0
 24 23  1  0  0  0  0
 28 25  1  6  0  0  0
 28 26  1  0  0  0  0
 29 32  1  0  0  0  0
 29 31  1  0  0  0  0
 30 26  1  0  0  0  0
 31 27  1  6  0  0  0
 31 30  1  0  0  0  0
 32 28  1  0  0  0  0
 33 34  1  0  0  0  0
 34 35  2  0  0  0  0
 36 43  1  0  0  0  0
 36 38  1  1  0  0  0
 37 34  1  1  0  0  0
 37 36  1  0  0  0  0
 37 38  1  0  0  0  0
 39 44  1  1  0  0  0
 39 41  1  0  0  0  0
 41 40  1  0  0  0  0
 42 39  1  0  0  0  0
 42 43  1  0  0  0  0
 43 40  1  6  0  0  0
 45 49  1  6  0  0  0
 45 44  1  0  0  0  0
 46 48  1  0  0  0  0
 46 45  1  0  0  0  0
 46 47  1  6  0  0  0
 46 51  1  0  0  0  0
 47 51  1  0  0  0  0
 48 45  1  0  0  0  0
 48 50  1  1  0  0  0
M  END
>  <MODEL>
9

>  <REMARK>
 VINA RESULT:      -3.4      4.509     10.682
  Name = 
  17 active torsions:
  status: ('A' for Active; 'I' for Inactive)
    1  A    between atoms: O_2  and  C_8
    2  A    between atoms: O_2  and  C_28
    3  A    between atoms: C_4  and  O_49
    4  A    between atoms: C_6  and  C_38
    5  A    between atoms: C_7  and  O_49
    6  A    between atoms: N_10  and  C_47
    7  A    between atoms: N_12  and  C_24
    8  A    between atoms: C_13  and  C_28
    9  A    between atoms: N_14  and  C_20
   10  A    between atoms: C_20  and  C_37
   11  A    between atoms: C_24  and  C_40
   12  A    between atoms: C_24  and  O_48
   13  A    between atoms: C_25  and  C_27
   14  A    between atoms: C_27  and  C_35
   15  A    between atoms: O_30  and  C_35
   16  A    between atoms: C_32  and  O_48
   17  A    between atoms: C_35  and  C_40
                            x       y       z     vdW  Elec       q    Type
                         _______ _______ _______ _____ _____    ______ ____

>  <TORSDO>
F 17

$$$$
