=
 OpenBabel11072410373D

 50 55  0  0  1  0  0  0  0  0999 V2000
  161.3970  208.6000  153.3650 C   0  0  1  0  0  3  0  0  0  0  0  0
  163.1740  205.6950  152.5030 F   0  0  0  0  0  0  0  0  0  0  0  0
  161.4170  209.8600  150.7770 O   0  0  0  0  0  0  0  0  0  0  0  0
  160.4290  204.1590  150.6340 C   0  0  0  0  0  2  0  0  0  0  0  0
  160.2850  205.3500  149.8470 O   0  0  0  0  0  0  0  0  0  0  0  0
  161.8260  205.3910  152.4620 C   0  0  2  0  0  0  0  0  0  0  0  0
  161.3280  208.6060  150.8560 C   0  0  0  0  0  0  0  0  0  0  0  0
  161.3620  205.1790  153.7600 O   0  0  0  0  0  1  0  0  0  0  0  0
  160.9400  207.7380  149.7110 C   0  0  2  0  0  3  0  0  0  0  0  0
  161.4850  207.8970  152.0800 N   0  0  0  0  0  0  0  0  0  0  0  0
  161.1550  206.3590  150.3100 C   0  0  1  0  0  3  0  0  0  0  0  0
  161.6420  204.1040  151.6160 C   0  0  1  0  0  3  0  0  0  0  0  0
  161.5800  202.9650  152.4030 F   0  0  0  0  0  0  0  0  0  0  0  0
  161.0350  206.5350  151.8170 C   0  0  1  0  0  3  0  0  0  0  0  0
  161.8060  208.0180  148.5130 C   0  0  0  0  0  0  0  0  0  0  0  0
  162.6790  207.0470  147.9290 N   0  0  0  0  0  2  0  0  0  0  0  0
  161.8490  209.1970  148.0800 O   0  0  0  0  0  0  0  0  0  0  0  0
  161.8920  205.3700  146.4140 C   0  0  2  0  0  3  0  0  0  0  0  0
  163.2950  204.9630  146.8250 C   0  0  0  0  0  2  0  0  0  0  0  0
  162.3730  205.6320  147.8310 C   0  0  1  0  0  3  0  0  0  0  0  0
  160.7770  201.8360  146.7020 C   0  0  0  0  0  2  0  0  0  0  0  0
  160.9310  204.1740  146.3050 C   0  0  1  0  0  3  0  0  0  0  0  0
  160.8910  203.5340  144.9920 N   0  0  0  0  0  2  0  0  0  0  0  0
  161.3190  203.1110  147.3000 C   0  0  0  0  0  2  0  0  0  0  0  0
  160.4550  202.1650  145.2530 C   0  0  0  0  0  2  0  0  0  0  0  0
  163.0440  210.5540  153.2140 C   0  0  0  0  0  2  0  0  0  0  0  0
  162.1840  210.8210  154.4420 C   0  0  0  0  0  2  0  0  0  0  0  0
  161.5910  210.1260  153.2310 C   0  0  0  0  0  0  0  0  0  0  0  0
  160.7340  210.9810  152.2970 C   0  0  0  0  0  2  0  0  0  0  0  0
  160.2170  212.2400  152.9800 C   0  0  0  0  0  2  0  0  0  0  0  0
  159.1890  212.9340  152.1080 C   0  0  0  0  0  2  0  0  0  0  0  0
  159.8970  213.8940  151.1690 C   0  0  0  0  0  2  0  0  0  0  0  0
  159.7260  213.4540  149.7190 C   0  0  0  0  0  2  0  0  0  0  0  0
  161.0530  213.1410  149.0240 C   0  0  2  0  0  3  0  0  0  0  0  0
  161.7840  214.3090  148.8010 O   0  0  0  0  0  1  0  0  0  0  0  0
  160.8230  212.4500  147.7640 N   0  0  0  0  0  2  0  0  0  0  0  0
  159.6610  213.0690  147.1480 C   0  0  0  0  0  1  0  0  0  0  0  0
  160.2000  208.1540  154.2160 C   0  0  1  0  0  3  0  0  0  0  0  0
  159.7190  206.8730  156.3100 C   0  0  0  0  0  1  0  0  0  0  0  0
  160.6500  207.8620  155.6420 C   0  0  0  0  0  2  0  0  0  0  0  0
  159.1780  209.2810  154.2580 C   0  0  0  0  0  2  0  0  0  0  0  0
  159.0390  209.8520  155.6560 C   0  0  0  0  0  2  0  0  0  0  0  0
  158.4080  211.2420  155.5830 C   0  0  0  0  0  2  0  0  0  0  0  0
  156.2920  212.4280  155.6150 N   0  0  0  0  0  0  0  0  0  0  0  0
  155.9690  210.9410  155.4220 C   0  0  0  0  0  0  0  0  0  0  0  0
  155.2870  210.0210  154.9040 O   0  0  0  0  0  0  0  0  0  0  0  0
  157.0110  211.3970  156.2230 C   0  0  1  0  0  3  0  0  0  0  0  0
  156.0420  213.8290  155.3290 C   0  0  0  0  0  2  0  0  0  0  0  0
  154.7760  213.9590  153.1680 C   0  0  0  0  0  1  0  0  0  0  0  0
  156.1330  214.0930  153.8300 C   0  0  0  0  0  2  0  0  0  0  0  0
  1 38  1  6  0  0  0
  3  7  2  0  0  0  0
  4 12  1  0  0  0  0
  5  4  1  0  0  0  0
  6  2  1  1  0  0  0
  6  8  1  0  0  0  0
  7 10  1  0  0  0  0
  9 15  1  6  0  0  0
  9 11  1  0  0  0  0
  9  7  1  0  0  0  0
 10  1  1  0  0  0  0
 11  5  1  6  0  0  0
 11 14  1  0  0  0  0
 12 13  1  1  0  0  0
 12  6  1  0  0  0  0
 14 10  1  6  0  0  0
 14  6  1  0  0  0  0
 16 15  1  0  0  0  0
 17 15  2  0  0  0  0
 18 19  1  6  0  0  0
 18 20  1  0  0  0  0
 19 20  1  0  0  0  0
 20 16  1  6  0  0  0
 21 24  1  0  0  0  0
 22 18  1  0  0  0  0
 22 24  1  1  0  0  0
 23 25  1  0  0  0  0
 23 22  1  0  0  0  0
 25 21  1  0  0  0  0
 26 28  1  0  0  0  0
 26 27  1  0  0  0  0
 28  1  1  0  0  0  0
 28 27  1  0  0  0  0
 29 30  1  0  0  0  0
 29 28  1  0  0  0  0
 31 30  1  0  0  0  0
 32 31  1  0  0  0  0
 33 32  1  0  0  0  0
 34 35  1  6  0  0  0
 34 33  1  0  0  0  0
 36 34  1  0  0  0  0
 37 36  1  0  0  0  0
 38 41  1  1  0  0  0
 38 40  1  0  0  0  0
 40 39  1  0  0  0  0
 41 42  1  0  0  0  0
 43 42  1  0  0  0  0
 44 47  1  0  0  0  0
 45 44  1  0  0  0  0
 45 47  1  0  0  0  0
 46 45  2  0  0  0  0
 47 43  1  6  0  0  0
 48 44  1  0  0  0  0
 49 50  1  0  0  0  0
 50 48  1  0  0  0  0
M  END
>  <MODEL>
1

>  <REMARK>
 VINA RESULT:      -5.4      0.000      0.000
  Name = 
  20 active torsions:
  status: ('A' for Active; 'I' for Inactive)
    1  A    between atoms: C_1  and  C_9
    2  A    between atoms: N_4  and  C_11
    3  A    between atoms: C_6  and  C_39
    4  A    between atoms: C_6  and  C_45
    5  A    between atoms: N_10  and  C_36
    6  A    between atoms: C_11  and  C_14
    7  A    between atoms: C_12  and  C_31
    8  A    between atoms: C_12  and  C_37
    9  A    between atoms: C_12  and  N_40
   10  A    between atoms: C_13  and  C_35
   11  A    between atoms: C_14  and  C_39
   12  A    between atoms: C_18  and  C_25
   13  A    between atoms: C_18  and  CA_48
   14  A    between atoms: C_22  and  C_31
   15  A    between atoms: C_22  and  C_45
   16  A    between atoms: C_23  and  C_25
   17  A    between atoms: C_23  and  C_37
   18  A    between atoms: C_29  and  C_36
   19  A    between atoms: C_34  and  N_38
   20  A    between atoms: C_37  and  C_50
                            x       y       z     vdW  Elec       q    Type
                         _______ _______ _______ _____ _____    ______ ____

>  <TORSDO>
F 20

$$$$
=
 OpenBabel11072410373D

 50 55  0  0  1  0  0  0  0  0999 V2000
  161.6610  207.7380  150.6740 C   0  0  1  0  0  3  0  0  0  0  0  0
  163.1560  210.9180  150.6510 F   0  0  0  0  0  0  0  0  0  0  0  0
  160.8570  207.6980  153.4380 O   0  0  0  0  0  0  0  0  0  0  0  0
  160.0070  212.7750  150.7920 C   0  0  0  0  0  2  0  0  0  0  0  0
  159.6000  212.0190  151.9420 O   0  0  0  0  0  0  0  0  0  0  0  0
  161.8680  211.0550  150.1690 C   0  0  2  0  0  0  0  0  0  0  0  0
  160.8260  208.7830  152.7980 C   0  0  0  0  0  0  0  0  0  0  0  0
  161.8290  210.6460  148.8350 O   0  0  0  0  0  1  0  0  0  0  0  0
  160.1270  210.0020  153.2860 C   0  0  2  0  0  3  0  0  0  0  0  0
  161.3670  208.9220  151.4890 N   0  0  0  0  0  0  0  0  0  0  0  0
  160.5460  211.0150  152.2350 C   0  0  1  0  0  3  0  0  0  0  0  0
  161.4640  212.5490  150.2770 C   0  0  1  0  0  3  0  0  0  0  0  0
  161.6720  213.2340  149.0910 F   0  0  0  0  0  0  0  0  0  0  0  0
  160.8900  210.2080  150.9910 C   0  0  1  0  0  3  0  0  0  0  0  0
  160.5760  210.3530  154.6780 C   0  0  0  0  0  0  0  0  0  0  0  0
  160.5060  211.6760  155.2170 N   0  0  0  0  0  2  0  0  0  0  0  0
  161.1500  209.4630  155.3540 O   0  0  0  0  0  0  0  0  0  0  0  0
  158.4910  212.5930  156.1260 C   0  0  2  0  0  3  0  0  0  0  0  0
  159.4530  213.7510  155.9440 C   0  0  0  0  0  2  0  0  0  0  0  0
  159.4340  212.6140  154.9360 C   0  0  1  0  0  3  0  0  0  0  0  0
  155.5400  213.1260  153.9300 C   0  0  0  0  0  2  0  0  0  0  0  0
  157.0410  212.9580  155.7640 C   0  0  1  0  0  3  0  0  0  0  0  0
  156.7980  214.3840  155.5590 N   0  0  0  0  0  2  0  0  0  0  0  0
  156.6370  212.2560  154.4940 C   0  0  0  0  0  2  0  0  0  0  0  0
  155.6340  214.4440  154.6790 C   0  0  0  0  0  2  0  0  0  0  0  0
  162.7670  206.6230  152.6940 C   0  0  0  0  0  2  0  0  0  0  0  0
  163.2090  205.8220  151.4760 C   0  0  0  0  0  2  0  0  0  0  0  0
  161.8310  206.4550  151.5150 C   0  0  0  0  0  0  0  0  0  0  0  0
  160.6580  205.5310  151.8460 C   0  0  0  0  0  2  0  0  0  0  0  0
  160.9640  204.6060  153.0160 C   0  0  0  0  0  2  0  0  0  0  0  0
  160.8490  203.1560  152.5920 C   0  0  0  0  0  2  0  0  0  0  0  0
  160.8030  203.0810  151.0770 C   0  0  0  0  0  2  0  0  0  0  0  0
  161.5640  201.8580  150.5730 C   0  0  0  0  0  2  0  0  0  0  0  0
  160.7470  200.9950  149.6100 C   0  0  2  0  0  3  0  0  0  0  0  0
  161.5610  200.4630  148.6080 O   0  0  0  0  0  1  0  0  0  0  0  0
  159.6670  201.7680  149.0160 N   0  0  0  0  0  2  0  0  0  0  0  0
  158.4430  201.0120  149.2230 C   0  0  0  0  0  1  0  0  0  0  0  0
  160.7500  207.6120  149.4440 C   0  0  1  0  0  3  0  0  0  0  0  0
  163.0140  207.8120  148.3990 C   0  0  0  0  0  1  0  0  0  0  0  0
  161.5240  207.9650  148.1810 C   0  0  0  0  0  2  0  0  0  0  0  0
  160.2770  206.1700  149.3280 C   0  0  0  0  0  2  0  0  0  0  0  0
  160.5490  205.6070  147.9450 C   0  0  0  0  0  2  0  0  0  0  0  0
  161.4990  204.4140  148.0540 C   0  0  0  0  0  2  0  0  0  0  0  0
  161.4570  203.7480  145.7230 N   0  0  0  0  0  0  0  0  0  0  0  0
  162.2740  205.0440  145.8020 C   0  0  0  0  0  0  0  0  0  0  0  0
  162.6190  206.1590  145.3340 O   0  0  0  0  0  0  0  0  0  0  0  0
  162.3060  204.0610  146.7860 C   0  0  1  0  0  3  0  0  0  0  0  0
  160.4980  202.8910  145.0490 C   0  0  0  0  0  2  0  0  0  0  0  0
  159.8790  200.4830  144.7200 C   0  0  0  0  0  1  0  0  0  0  0  0
  160.5150  201.4910  145.6560 C   0  0  0  0  0  2  0  0  0  0  0  0
  1 38  1  6  0  0  0
  1 10  1  0  0  0  0
  1 28  1  0  0  0  0
  4  5  1  0  0  0  0
  6  8  1  6  0  0  0
  6 12  1  0  0  0  0
  6  2  1  0  0  0  0
  6 14  1  0  0  0  0
  7  9  1  0  0  0  0
  7  3  2  0  0  0  0
  9 15  1  1  0  0  0
 10  7  1  0  0  0  0
 11  5  1  6  0  0  0
 11  9  1  0  0  0  0
 12 13  1  6  0  0  0
 12  4  1  0  0  0  0
 14 10  1  1  0  0  0
 14 11  1  0  0  0  0
 15 16  1  0  0  0  0
 15 17  2  0  0  0  0
 18 19  1  1  0  0  0
 20 16  1  1  0  0  0
 20 19  1  0  0  0  0
 20 18  1  0  0  0  0
 21 24  1  0  0  0  0
 21 25  1  0  0  0  0
 22 24  1  6  0  0  0
 22 18  1  0  0  0  0
 23 22  1  0  0  0  0
 25 23  1  0  0  0  0
 27 28  1  0  0  0  0
 27 26  1  0  0  0  0
 28 29  1  0  0  0  0
 28 26  1  0  0  0  0
 29 30  1  0  0  0  0
 31 30  1  0  0  0  0
 32 31  1  0  0  0  0
 33 32  1  0  0  0  0
 34 35  1  6  0  0  0
 34 33  1  0  0  0  0
 36 37  1  0  0  0  0
 36 34  1  0  0  0  0
 38 40  1  6  0  0  0
 40 39  1  0  0  0  0
 41 38  1  0  0  0  0
 42 43  1  0  0  0  0
 42 41  1  0  0  0  0
 44 45  1  0  0  0  0
 44 47  1  0  0  0  0
 45 47  1  0  0  0  0
 46 45  2  0  0  0  0
 47 43  1  1  0  0  0
 48 50  1  0  0  0  0
 48 44  1  0  0  0  0
 49 50  1  0  0  0  0
M  END
>  <MODEL>
2

>  <REMARK>
 VINA RESULT:      -4.6      2.557     10.160
  Name = 
  20 active torsions:
  status: ('A' for Active; 'I' for Inactive)
    1  A    between atoms: C_1  and  C_9
    2  A    between atoms: N_4  and  C_11
    3  A    between atoms: C_6  and  C_39
    4  A    between atoms: C_6  and  C_45
    5  A    between atoms: N_10  and  C_36
    6  A    between atoms: C_11  and  C_14
    7  A    between atoms: C_12  and  C_31
    8  A    between atoms: C_12  and  C_37
    9  A    between atoms: C_12  and  N_40
   10  A    between atoms: C_13  and  C_35
   11  A    between atoms: C_14  and  C_39
   12  A    between atoms: C_18  and  C_25
   13  A    between atoms: C_18  and  CA_48
   14  A    between atoms: C_22  and  C_31
   15  A    between atoms: C_22  and  C_45
   16  A    between atoms: C_23  and  C_25
   17  A    between atoms: C_23  and  C_37
   18  A    between atoms: C_29  and  C_36
   19  A    between atoms: C_34  and  N_38
   20  A    between atoms: C_37  and  C_50
                            x       y       z     vdW  Elec       q    Type
                         _______ _______ _______ _____ _____    ______ ____

>  <TORSDO>
F 20

$$$$
=
 OpenBabel11072410373D

 50 55  0  0  1  0  0  0  0  0999 V2000
  160.3020  209.3390  153.2540 C   0  0  1  0  0  3  0  0  0  0  0  0
  161.7500  209.0040  156.4380 F   0  0  0  0  0  0  0  0  0  0  0  0
  157.7360  210.3440  154.0890 O   0  0  0  0  0  0  0  0  0  0  0  0
  162.2200  212.5930  156.9780 C   0  0  0  0  0  2  0  0  0  0  0  0
  160.8360  212.8300  156.6770 O   0  0  0  0  0  0  0  0  0  0  0  0
  162.1680  210.2120  155.9110 C   0  0  2  0  0  0  0  0  0  0  0  0
  158.7700  210.6760  154.7270 C   0  0  0  0  0  0  0  0  0  0  0  0
  163.2000  209.9830  155.0000 O   0  0  0  0  0  1  0  0  0  0  0  0
  158.8010  211.7880  155.7160 C   0  0  2  0  0  3  0  0  0  0  0  0
  160.0450  210.0910  154.4890 N   0  0  0  0  0  0  0  0  0  0  0  0
  160.2040  211.6340  156.2780 C   0  0  1  0  0  3  0  0  0  0  0  0
  162.6760  211.1020  157.0750 C   0  0  1  0  0  3  0  0  0  0  0  0
  164.0500  211.0230  157.2330 F   0  0  0  0  0  0  0  0  0  0  0  0
  161.0100  210.9220  155.2010 C   0  0  1  0  0  3  0  0  0  0  0  0
  157.7160  211.6180  156.7430 C   0  0  0  0  0  0  0  0  0  0  0  0
  156.9440  212.7060  157.2610 N   0  0  0  0  0  2  0  0  0  0  0  0
  157.5630  210.4810  157.2560 O   0  0  0  0  0  0  0  0  0  0  0  0
  155.6360  213.3280  155.3560 C   0  0  2  0  0  3  0  0  0  0  0  0
  155.0140  214.0160  156.5550 C   0  0  0  0  0  2  0  0  0  0  0  0
  156.5230  213.8500  156.4730 C   0  0  1  0  0  3  0  0  0  0  0  0
  154.8520  214.3290  151.8630 C   0  0  0  0  0  2  0  0  0  0  0  0
  155.6500  214.2150  154.0980 C   0  0  1  0  0  3  0  0  0  0  0  0
  156.8150  214.0390  153.2350 N   0  0  0  0  0  2  0  0  0  0  0  0
  154.4330  213.9310  153.2570 C   0  0  0  0  0  2  0  0  0  0  0  0
  156.3660  214.4530  151.9080 C   0  0  0  0  0  2  0  0  0  0  0  0
  161.0720  211.6600  152.4980 C   0  0  0  0  0  2  0  0  0  0  0  0
  159.7920  211.3680  151.7270 C   0  0  0  0  0  2  0  0  0  0  0  0
  160.7430  210.2410  152.0820 C   0  0  0  0  0  0  0  0  0  0  0  0
  161.6680  209.7440  150.9690 C   0  0  0  0  0  2  0  0  0  0  0  0
  162.4340  210.8800  150.3060 C   0  0  0  0  0  2  0  0  0  0  0  0
  161.8420  211.2000  148.9480 C   0  0  0  0  0  2  0  0  0  0  0  0
  161.4080  212.6540  148.9230 C   0  0  0  0  0  2  0  0  0  0  0  0
  160.2960  212.8670  147.9000 C   0  0  0  0  0  2  0  0  0  0  0  0
  160.7140  212.5050  146.4730 C   0  0  2  0  0  3  0  0  0  0  0  0
  161.6920  213.3830  146.0040 O   0  0  0  0  0  1  0  0  0  0  0  0
  159.5640  212.5190  145.5810 N   0  0  0  0  0  2  0  0  0  0  0  0
  158.4640  213.1160  146.3200 C   0  0  0  0  0  1  0  0  0  0  0  0
  161.1500  208.0800  153.4810 C   0  0  1  0  0  3  0  0  0  0  0  0
  159.8800  206.2480  154.6150 C   0  0  0  0  0  1  0  0  0  0  0  0
  160.7910  207.4400  154.8160 C   0  0  0  0  0  2  0  0  0  0  0  0
  160.8520  207.0790  152.3740 C   0  0  0  0  0  2  0  0  0  0  0  0
  162.0750  206.2460  152.0350 C   0  0  0  0  0  2  0  0  0  0  0  0
  161.6360  204.8710  151.5330 C   0  0  0  0  0  2  0  0  0  0  0  0
  161.0710  205.6600  149.3100 N   0  0  0  0  0  0  0  0  0  0  0  0
  161.0550  204.1280  149.2570 C   0  0  0  0  0  0  0  0  0  0  0  0
  161.2850  203.0440  148.6630 O   0  0  0  0  0  0  0  0  0  0  0  0
  160.6290  204.8570  150.3620 C   0  0  1  0  0  3  0  0  0  0  0  0
  161.3690  206.9490  148.7100 C   0  0  0  0  0  2  0  0  0  0  0  0
  161.2910  205.8390  146.4620 C   0  0  0  0  0  1  0  0  0  0  0  0
  162.0770  206.7630  147.3710 C   0  0  0  0  0  2  0  0  0  0  0  0
  1 38  1  1  0  0  0
  1 10  1  0  0  0  0
  3  7  2  0  0  0  0
  4 12  1  0  0  0  0
  5  4  1  0  0  0  0
  6  8  1  6  0  0  0
  6  2  1  0  0  0  0
  6 12  1  0  0  0  0
  7  9  1  0  0  0  0
  9 11  1  0  0  0  0
  9 15  1  1  0  0  0
 10  7  1  0  0  0  0
 11  5  1  6  0  0  0
 12 13  1  6  0  0  0
 14 10  1  1  0  0  0
 14  6  1  0  0  0  0
 14 11  1  0  0  0  0
 15 17  2  0  0  0  0
 15 16  1  0  0  0  0
 18 20  1  0  0  0  0
 18 19  1  1  0  0  0
 20 19  1  0  0  0  0
 20 16  1  1  0  0  0
 21 25  1  0  0  0  0
 21 24  1  0  0  0  0
 22 24  1  6  0  0  0
 22 18  1  0  0  0  0
 23 22  1  0  0  0  0
 25 23  1  0  0  0  0
 27 28  1  0  0  0  0
 27 26  1  0  0  0  0
 28 26  1  0  0  0  0
 28  1  1  0  0  0  0
 29 28  1  0  0  0  0
 30 29  1  0  0  0  0
 31 30  1  0  0  0  0
 32 31  1  0  0  0  0
 33 32  1  0  0  0  0
 34 35  1  6  0  0  0
 34 33  1  0  0  0  0
 36 37  1  0  0  0  0
 36 34  1  0  0  0  0
 38 41  1  6  0  0  0
 38 40  1  0  0  0  0
 39 40  1  0  0  0  0
 42 41  1  0  0  0  0
 43 42  1  0  0  0  0
 44 47  1  0  0  0  0
 45 44  1  0  0  0  0
 45 47  1  0  0  0  0
 46 45  2  0  0  0  0
 47 43  1  1  0  0  0
 48 44  1  0  0  0  0
 49 50  1  0  0  0  0
 50 48  1  0  0  0  0
M  END
>  <MODEL>
3

>  <REMARK>
 VINA RESULT:      -4.6      2.542      8.630
  Name = 
  20 active torsions:
  status: ('A' for Active; 'I' for Inactive)
    1  A    between atoms: C_1  and  C_9
    2  A    between atoms: N_4  and  C_11
    3  A    between atoms: C_6  and  C_39
    4  A    between atoms: C_6  and  C_45
    5  A    between atoms: N_10  and  C_36
    6  A    between atoms: C_11  and  C_14
    7  A    between atoms: C_12  and  C_31
    8  A    between atoms: C_12  and  C_37
    9  A    between atoms: C_12  and  N_40
   10  A    between atoms: C_13  and  C_35
   11  A    between atoms: C_14  and  C_39
   12  A    between atoms: C_18  and  C_25
   13  A    between atoms: C_18  and  CA_48
   14  A    between atoms: C_22  and  C_31
   15  A    between atoms: C_22  and  C_45
   16  A    between atoms: C_23  and  C_25
   17  A    between atoms: C_23  and  C_37
   18  A    between atoms: C_29  and  C_36
   19  A    between atoms: C_34  and  N_38
   20  A    between atoms: C_37  and  C_50
                            x       y       z     vdW  Elec       q    Type
                         _______ _______ _______ _____ _____    ______ ____

>  <TORSDO>
F 20

$$$$
=
 OpenBabel11072410373D

 50 55  0  0  1  0  0  0  0  0999 V2000
  161.8270  207.5710  151.4800 C   0  0  1  0  0  3  0  0  0  0  0  0
  162.4640  210.9030  152.3970 F   0  0  0  0  0  0  0  0  0  0  0  0
  161.0550  206.5870  154.0730 O   0  0  0  0  0  0  0  0  0  0  0  0
  158.9460  211.8250  152.7980 C   0  0  0  0  0  2  0  0  0  0  0  0
  158.7430  210.7090  153.6780 O   0  0  0  0  0  0  0  0  0  0  0  0
  161.1840  210.8470  151.8780 C   0  0  2  0  0  0  0  0  0  0  0  0
  160.7500  207.7630  153.7400 C   0  0  0  0  0  0  0  0  0  0  0  0
  161.2530  210.8180  150.4850 O   0  0  0  0  0  1  0  0  0  0  0  0
  159.7630  208.5950  154.4800 C   0  0  2  0  0  3  0  0  0  0  0  0
  161.2400  208.3810  152.5550 N   0  0  0  0  0  0  0  0  0  0  0  0
  159.9130  209.9260  153.7640 C   0  0  1  0  0  3  0  0  0  0  0  0
  160.4130  212.1100  152.3460 C   0  0  1  0  0  3  0  0  0  0  0  0
  160.4430  213.1210  151.3990 F   0  0  0  0  0  0  0  0  0  0  0  0
  160.4530  209.5960  152.3790 C   0  0  1  0  0  3  0  0  0  0  0  0
  160.1060  208.6540  155.9430 C   0  0  0  0  0  0  0  0  0  0  0  0
  160.8340  209.7330  156.5380 N   0  0  0  0  0  2  0  0  0  0  0  0
  159.8430  207.6500  156.6510 O   0  0  0  0  0  0  0  0  0  0  0  0
  159.9190  211.8300  157.2380 C   0  0  2  0  0  3  0  0  0  0  0  0
  161.4190  212.0240  157.1300 C   0  0  0  0  0  2  0  0  0  0  0  0
  160.6970  211.1220  156.1420 C   0  0  1  0  0  3  0  0  0  0  0  0
  157.2990  213.6590  155.3400 C   0  0  0  0  0  2  0  0  0  0  0  0
  159.1210  213.0460  156.7350 C   0  0  1  0  0  3  0  0  0  0  0  0
  159.6990  213.7240  155.5760 N   0  0  0  0  0  2  0  0  0  0  0  0
  157.7290  212.6220  156.3470 C   0  0  0  0  0  2  0  0  0  0  0  0
  158.5700  214.3820  154.9250 C   0  0  0  0  0  2  0  0  0  0  0  0
  162.7160  205.8190  153.1190 C   0  0  0  0  0  2  0  0  0  0  0  0
  163.3320  205.4830  151.7680 C   0  0  0  0  0  2  0  0  0  0  0  0
  161.9380  206.0760  151.8450 C   0  0  0  0  0  0  0  0  0  0  0  0
  160.7670  205.1050  151.6870 C   0  0  0  0  0  2  0  0  0  0  0  0
  160.9820  203.8100  152.4580 C   0  0  0  0  0  2  0  0  0  0  0  0
  161.2030  202.6530  151.5050 C   0  0  0  0  0  2  0  0  0  0  0  0
  160.4420  202.9140  150.2180 C   0  0  0  0  0  2  0  0  0  0  0  0
  161.2680  202.4910  149.0080 C   0  0  0  0  0  2  0  0  0  0  0  0
  161.0320  201.0350  148.5980 C   0  0  2  0  0  3  0  0  0  0  0  0
  160.9820  200.2060  149.7200 O   0  0  0  0  0  1  0  0  0  0  0  0
  162.0750  200.5810  147.6900 N   0  0  0  0  0  2  0  0  0  0  0  0
  161.5840  199.3690  147.0550 C   0  0  0  0  0  1  0  0  0  0  0  0
  161.2270  207.8770  150.1000 C   0  0  1  0  0  3  0  0  0  0  0  0
  162.1200  209.5680  148.4880 C   0  0  0  0  0  1  0  0  0  0  0  0
  162.3360  208.2040  149.1080 C   0  0  0  0  0  2  0  0  0  0  0  0
  160.4870  206.6440  149.6010 C   0  0  0  0  0  2  0  0  0  0  0  0
  160.5600  206.5280  148.0900 C   0  0  0  0  0  2  0  0  0  0  0  0
  161.2680  205.2290  147.7080 C   0  0  0  0  0  2  0  0  0  0  0  0
  161.4930  204.1230  145.5610 N   0  0  0  0  0  0  0  0  0  0  0  0
  161.1180  205.5820  145.2740 C   0  0  0  0  0  0  0  0  0  0  0  0
  160.4990  206.4490  144.6070 O   0  0  0  0  0  0  0  0  0  0  0  0
  161.9500  205.2000  146.3220 C   0  0  1  0  0  3  0  0  0  0  0  0
  161.3950  202.7050  145.2650 C   0  0  0  0  0  2  0  0  0  0  0  0
  159.7310  200.9460  144.6100 C   0  0  0  0  0  1  0  0  0  0  0  0
  159.9480  202.2350  145.3780 C   0  0  0  0  0  2  0  0  0  0  0  0
  1 38  1  6  0  0  0
  1 28  1  0  0  0  0
  1 10  1  0  0  0  0
  4  5  1  0  0  0  0
  6  8  1  6  0  0  0
  6 12  1  0  0  0  0
  6 14  1  0  0  0  0
  6  2  1  0  0  0  0
  7  3  2  0  0  0  0
  7  9  1  0  0  0  0
  9 15  1  1  0  0  0
 10  7  1  0  0  0  0
 11  5  1  6  0  0  0
 11  9  1  0  0  0  0
 12 13  1  6  0  0  0
 12  4  1  0  0  0  0
 14 10  1  1  0  0  0
 14 11  1  0  0  0  0
 15 16  1  0  0  0  0
 15 17  2  0  0  0  0
 18 19  1  1  0  0  0
 20 16  1  1  0  0  0
 20 19  1  0  0  0  0
 20 18  1  0  0  0  0
 21 24  1  0  0  0  0
 22 24  1  6  0  0  0
 22 18  1  0  0  0  0
 23 22  1  0  0  0  0
 25 21  1  0  0  0  0
 25 23  1  0  0  0  0
 27 28  1  0  0  0  0
 27 26  1  0  0  0  0
 28 26  1  0  0  0  0
 29 28  1  0  0  0  0
 29 30  1  0  0  0  0
 31 30  1  0  0  0  0
 32 31  1  0  0  0  0
 33 32  1  0  0  0  0
 34 33  1  0  0  0  0
 34 35  1  1  0  0  0
 36 34  1  0  0  0  0
 37 36  1  0  0  0  0
 38 40  1  6  0  0  0
 39 40  1  0  0  0  0
 41 38  1  0  0  0  0
 42 41  1  0  0  0  0
 43 42  1  0  0  0  0
 44 47  1  0  0  0  0
 45 44  1  0  0  0  0
 45 47  1  0  0  0  0
 46 45  2  0  0  0  0
 47 43  1  1  0  0  0
 48 50  1  0  0  0  0
 48 44  1  0  0  0  0
 49 50  1  0  0  0  0
M  END
>  <MODEL>
4

>  <REMARK>
 VINA RESULT:      -3.9      2.617     10.169
  Name = 
  20 active torsions:
  status: ('A' for Active; 'I' for Inactive)
    1  A    between atoms: C_1  and  C_9
    2  A    between atoms: N_4  and  C_11
    3  A    between atoms: C_6  and  C_39
    4  A    between atoms: C_6  and  C_45
    5  A    between atoms: N_10  and  C_36
    6  A    between atoms: C_11  and  C_14
    7  A    between atoms: C_12  and  C_31
    8  A    between atoms: C_12  and  C_37
    9  A    between atoms: C_12  and  N_40
   10  A    between atoms: C_13  and  C_35
   11  A    between atoms: C_14  and  C_39
   12  A    between atoms: C_18  and  C_25
   13  A    between atoms: C_18  and  CA_48
   14  A    between atoms: C_22  and  C_31
   15  A    between atoms: C_22  and  C_45
   16  A    between atoms: C_23  and  C_25
   17  A    between atoms: C_23  and  C_37
   18  A    between atoms: C_29  and  C_36
   19  A    between atoms: C_34  and  N_38
   20  A    between atoms: C_37  and  C_50
                            x       y       z     vdW  Elec       q    Type
                         _______ _______ _______ _____ _____    ______ ____

>  <TORSDO>
F 20

$$$$
=
 OpenBabel11072410373D

 50 55  0  0  1  0  0  0  0  0999 V2000
  161.9560  211.0460  150.3280 C   0  0  1  0  0  3  0  0  0  0  0  0
  160.3860  213.9730  151.4730 F   0  0  0  0  0  0  0  0  0  0  0  0
  162.7930  210.0190  152.8840 O   0  0  0  0  0  0  0  0  0  0  0  0
  157.4600  212.2700  152.8610 C   0  0  0  0  0  2  0  0  0  0  0  0
  158.3140  211.3940  153.6130 O   0  0  0  0  0  0  0  0  0  0  0  0
  159.4070  213.0140  151.2900 C   0  0  2  0  0  0  0  0  0  0  0  0
  161.6980  210.6360  152.7910 C   0  0  0  0  0  0  0  0  0  0  0  0
  159.0970  212.9250  149.9330 O   0  0  0  0  0  1  0  0  0  0  0  0
  160.6590  210.6250  153.8560 C   0  0  2  0  0  3  0  0  0  0  0  0
  161.2970  211.3200  151.6100 N   0  0  0  0  0  0  0  0  0  0  0  0
  159.6680  211.6330  153.3010 C   0  0  1  0  0  3  0  0  0  0  0  0
  158.1510  213.4420  152.0940 C   0  0  1  0  0  3  0  0  0  0  0  0
  157.2310  214.1170  151.3070 F   0  0  0  0  0  0  0  0  0  0  0  0
  159.8870  211.6490  151.7940 C   0  0  1  0  0  3  0  0  0  0  0  0
  161.2490  211.0230  155.1800 C   0  0  0  0  0  0  0  0  0  0  0  0
  161.0220  212.2970  155.7930 N   0  0  0  0  0  2  0  0  0  0  0  0
  162.0760  210.2440  155.7160 O   0  0  0  0  0  0  0  0  0  0  0  0
  159.1760  213.0360  157.1250 C   0  0  2  0  0  3  0  0  0  0  0  0
  159.8380  214.2810  156.5670 C   0  0  0  0  0  2  0  0  0  0  0  0
  159.7650  213.0180  155.7250 C   0  0  1  0  0  3  0  0  0  0  0  0
  155.6760  212.0690  156.3320 C   0  0  0  0  0  2  0  0  0  0  0  0
  157.6410  213.1310  157.1430 C   0  0  1  0  0  3  0  0  0  0  0  0
  157.0690  214.0300  156.1430 N   0  0  0  0  0  2  0  0  0  0  0  0
  157.0390  211.7710  156.9060 C   0  0  0  0  0  2  0  0  0  0  0  0
  155.7140  213.5320  155.9210 C   0  0  0  0  0  2  0  0  0  0  0  0
  160.9000  208.7510  150.7380 C   0  0  0  0  0  2  0  0  0  0  0  0
  162.3950  208.5740  150.9650 C   0  0  0  0  0  2  0  0  0  0  0  0
  161.8920  209.5570  149.9250 C   0  0  0  0  0  0  0  0  0  0  0  0
  161.9390  209.1000  148.4660 C   0  0  0  0  0  2  0  0  0  0  0  0
  162.3230  207.6330  148.3330 C   0  0  0  0  0  2  0  0  0  0  0  0
  161.2670  206.8750  147.5540 C   0  0  0  0  0  2  0  0  0  0  0  0
  160.4690  206.0070  148.5090 C   0  0  0  0  0  2  0  0  0  0  0  0
  161.3190  204.8500  149.0250 C   0  0  0  0  0  2  0  0  0  0  0  0
  160.8480  204.3130  150.3780 C   0  0  2  0  0  3  0  0  0  0  0  0
  161.8900  204.3260  151.3070 O   0  0  0  0  0  1  0  0  0  0  0  0
  160.3210  202.9640  150.2410 N   0  0  0  0  0  2  0  0  0  0  0  0
  160.9020  202.4040  149.0330 C   0  0  0  0  0  1  0  0  0  0  0  0
  161.5780  212.0490  149.2290 C   0  0  1  0  0  3  0  0  0  0  0  0
  162.3570  214.2970  148.4560 C   0  0  0  0  0  1  0  0  0  0  0  0
  162.7850  212.9020  148.8610 C   0  0  0  0  0  2  0  0  0  0  0  0
  161.1390  211.2810  147.9910 C   0  0  0  0  0  2  0  0  0  0  0  0
  160.0620  212.0290  147.2280 C   0  0  0  0  0  2  0  0  0  0  0  0
  160.5710  212.3770  145.8290 C   0  0  0  0  0  2  0  0  0  0  0  0
  159.4140  213.1850  143.8560 N   0  0  0  0  0  0  0  0  0  0  0  0
  158.4900  213.4440  145.0530 C   0  0  0  0  0  0  0  0  0  0  0  0
  157.3450  213.4860  145.5720 O   0  0  0  0  0  0  0  0  0  0  0  0
  159.8750  213.5600  145.1200 C   0  0  1  0  0  3  0  0  0  0  0  0
  159.6200  212.8000  142.4720 C   0  0  0  0  0  2  0  0  0  0  0  0
  162.0560  212.2250  142.2980 C   0  0  0  0  0  1  0  0  0  0  0  0
  160.6450  211.6740  142.3780 C   0  0  0  0  0  2  0  0  0  0  0  0
  1 38  1  6  0  0  0
  1 10  1  0  0  0  0
  4  5  1  0  0  0  0
  6  8  1  6  0  0  0
  6  2  1  0  0  0  0
  6 14  1  0  0  0  0
  6 12  1  0  0  0  0
  7  3  2  0  0  0  0
  7  9  1  0  0  0  0
  9 15  1  1  0  0  0
 10  7  1  0  0  0  0
 11  5  1  6  0  0  0
 11  9  1  0  0  0  0
 12 13  1  6  0  0  0
 12  4  1  0  0  0  0
 14 10  1  1  0  0  0
 14 11  1  0  0  0  0
 15 17  2  0  0  0  0
 15 16  1  0  0  0  0
 18 19  1  1  0  0  0
 18 22  1  0  0  0  0
 20 16  1  1  0  0  0
 20 19  1  0  0  0  0
 20 18  1  0  0  0  0
 21 24  1  0  0  0  0
 22 24  1  6  0  0  0
 23 22  1  0  0  0  0
 25 23  1  0  0  0  0
 25 21  1  0  0  0  0
 26 27  1  0  0  0  0
 28  1  1  0  0  0  0
 28 26  1  0  0  0  0
 28 27  1  0  0  0  0
 29 28  1  0  0  0  0
 30 29  1  0  0  0  0
 31 30  1  0  0  0  0
 31 32  1  0  0  0  0
 32 33  1  0  0  0  0
 33 34  1  0  0  0  0
 34 35  1  1  0  0  0
 36 34  1  0  0  0  0
 37 36  1  0  0  0  0
 38 41  1  6  0  0  0
 39 40  1  0  0  0  0
 40 38  1  0  0  0  0
 42 41  1  0  0  0  0
 43 42  1  0  0  0  0
 44 45  1  0  0  0  0
 44 47  1  0  0  0  0
 45 47  1  0  0  0  0
 45 46  2  0  0  0  0
 47 43  1  1  0  0  0
 48 44  1  0  0  0  0
 49 50  1  0  0  0  0
 50 48  1  0  0  0  0
M  END
>  <MODEL>
5

>  <REMARK>
 VINA RESULT:      -3.8      3.258      9.772
  Name = 
  20 active torsions:
  status: ('A' for Active; 'I' for Inactive)
    1  A    between atoms: C_1  and  C_9
    2  A    between atoms: N_4  and  C_11
    3  A    between atoms: C_6  and  C_39
    4  A    between atoms: C_6  and  C_45
    5  A    between atoms: N_10  and  C_36
    6  A    between atoms: C_11  and  C_14
    7  A    between atoms: C_12  and  C_31
    8  A    between atoms: C_12  and  C_37
    9  A    between atoms: C_12  and  N_40
   10  A    between atoms: C_13  and  C_35
   11  A    between atoms: C_14  and  C_39
   12  A    between atoms: C_18  and  C_25
   13  A    between atoms: C_18  and  CA_48
   14  A    between atoms: C_22  and  C_31
   15  A    between atoms: C_22  and  C_45
   16  A    between atoms: C_23  and  C_25
   17  A    between atoms: C_23  and  C_37
   18  A    between atoms: C_29  and  C_36
   19  A    between atoms: C_34  and  N_38
   20  A    between atoms: C_37  and  C_50
                            x       y       z     vdW  Elec       q    Type
                         _______ _______ _______ _____ _____    ______ ____

>  <TORSDO>
F 20

$$$$
=
 OpenBabel11072410373D

 50 55  0  0  1  0  0  0  0  0999 V2000
  159.9490  210.1840  153.3110 C   0  0  1  0  0  3  0  0  0  0  0  0
  162.2480  207.6640  154.1520 F   0  0  0  0  0  0  0  0  0  0  0  0
  160.8120  210.6190  150.5990 O   0  0  0  0  0  0  0  0  0  0  0  0
  160.6300  205.0500  152.1680 C   0  0  0  0  0  2  0  0  0  0  0  0
  160.6600  205.8970  151.0090 O   0  0  0  0  0  0  0  0  0  0  0  0
  161.0650  207.0490  153.7880 C   0  0  2  0  0  0  0  0  0  0  0  0
  160.8470  209.4560  151.0830 C   0  0  0  0  0  0  0  0  0  0  0  0
  160.1660  207.1130  154.8540 O   0  0  0  0  0  1  0  0  0  0  0  0
  161.0320  208.2310  150.2590 C   0  0  2  0  0  3  0  0  0  0  0  0
  160.6040  209.1850  152.4590 N   0  0  0  0  0  0  0  0  0  0  0  0
  161.1610  207.1730  151.3400 C   0  0  1  0  0  3  0  0  0  0  0  0
  161.3720  205.5690  153.4410 C   0  0  1  0  0  3  0  0  0  0  0  0
  161.1460  204.7220  154.5140 F   0  0  0  0  0  0  0  0  0  0  0  0
  160.4530  207.7380  152.5640 C   0  0  1  0  0  3  0  0  0  0  0  0
  162.2510  208.3560  149.3860 C   0  0  0  0  0  0  0  0  0  0  0  0
  162.7130  207.3110  148.5240 N   0  0  0  0  0  2  0  0  0  0  0  0
  162.9640  209.3830  149.5120 O   0  0  0  0  0  0  0  0  0  0  0  0
  162.7190  205.4140  147.0650 C   0  0  2  0  0  3  0  0  0  0  0  0
  161.9850  204.9930  148.3230 C   0  0  0  0  0  2  0  0  0  0  0  0
  161.8370  206.4110  147.7970 C   0  0  1  0  0  3  0  0  0  0  0  0
  160.0120  204.7060  144.6190 C   0  0  0  0  0  2  0  0  0  0  0  0
  162.0770  204.8550  145.7830 C   0  0  1  0  0  3  0  0  0  0  0  0
  161.6570  203.4580  145.8650 N   0  0  0  0  0  2  0  0  0  0  0  0
  160.8550  205.6600  145.4270 C   0  0  0  0  0  2  0  0  0  0  0  0
  160.5950  203.3250  144.8720 C   0  0  0  0  0  2  0  0  0  0  0  0
  162.3520  210.4610  154.1460 C   0  0  0  0  0  2  0  0  0  0  0  0
  161.6000  209.7420  155.2580 C   0  0  0  0  0  2  0  0  0  0  0  0
  160.8880  210.7630  154.3900 C   0  0  0  0  0  0  0  0  0  0  0  0
  160.6860  212.1550  154.9910 C   0  0  0  0  0  2  0  0  0  0  0  0
  160.9670  212.1850  156.4870 C   0  0  0  0  0  2  0  0  0  0  0  0
  160.4950  213.4920  157.0910 C   0  0  0  0  0  2  0  0  0  0  0  0
  159.3830  214.0660  156.2330 C   0  0  0  0  0  2  0  0  0  0  0  0
  158.1840  214.4530  157.0930 C   0  0  0  0  0  2  0  0  0  0  0  0
  157.0570  213.4190  157.0560 C   0  0  2  0  0  3  0  0  0  0  0  0
  157.5730  212.1230  157.0280 O   0  0  0  0  0  1  0  0  0  0  0  0
  156.1970  213.6370  155.9020 N   0  0  0  0  0  2  0  0  0  0  0  0
  154.8580  213.2230  156.2890 C   0  0  0  0  0  1  0  0  0  0  0  0
  159.1350  211.2140  152.5160 C   0  0  1  0  0  3  0  0  0  0  0  0
  157.3990  210.3080  154.0730 C   0  0  0  0  0  1  0  0  0  0  0  0
  157.8080  211.4850  153.2140 C   0  0  0  0  0  2  0  0  0  0  0  0
  159.9170  212.5180  152.4520 C   0  0  0  0  0  2  0  0  0  0  0  0
  159.0480  213.6630  151.9670 C   0  0  0  0  0  2  0  0  0  0  0  0
  159.7270  214.3610  150.7890 C   0  0  0  0  0  2  0  0  0  0  0  0
  159.4500  213.4260  148.5690 N   0  0  0  0  0  0  0  0  0  0  0  0
  158.1000  213.2870  149.2840 C   0  0  0  0  0  0  0  0  0  0  0  0
  157.0470  212.6470  149.5340 O   0  0  0  0  0  0  0  0  0  0  0  0
  158.9460  214.3770  149.4570 C   0  0  1  0  0  3  0  0  0  0  0  0
  160.4720  212.9120  147.6750 C   0  0  0  0  0  2  0  0  0  0  0  0
  162.5800  213.5260  146.4610 C   0  0  0  0  0  1  0  0  0  0  0  0
  161.6600  213.8670  147.6170 C   0  0  0  0  0  2  0  0  0  0  0  0
  1 38  1  6  0  0  0
  1 28  1  0  0  0  0
  3  7  2  0  0  0  0
  4 12  1  0  0  0  0
  5  4  1  0  0  0  0
  6  2  1  1  0  0  0
  6  8  1  0  0  0  0
  7 10  1  0  0  0  0
  9 15  1  1  0  0  0
  9  7  1  0  0  0  0
  9 11  1  0  0  0  0
 10  1  1  0  0  0  0
 11  5  1  6  0  0  0
 11 14  1  0  0  0  0
 12  6  1  0  0  0  0
 12 13  1  1  0  0  0
 14 10  1  1  0  0  0
 14  6  1  0  0  0  0
 15 17  2  0  0  0  0
 16 15  1  0  0  0  0
 18 20  1  0  0  0  0
 18 19  1  1  0  0  0
 20 19  1  0  0  0  0
 20 16  1  1  0  0  0
 21 25  1  0  0  0  0
 21 24  1  0  0  0  0
 22 24  1  1  0  0  0
 22 23  1  0  0  0  0
 22 18  1  0  0  0  0
 25 23  1  0  0  0  0
 26 28  1  0  0  0  0
 26 27  1  0  0  0  0
 28 29  1  0  0  0  0
 28 27  1  0  0  0  0
 29 30  1  0  0  0  0
 30 31  1  0  0  0  0
 32 31  1  0  0  0  0
 32 33  1  0  0  0  0
 34 35  1  6  0  0  0
 34 33  1  0  0  0  0
 36 37  1  0  0  0  0
 36 34  1  0  0  0  0
 38 41  1  1  0  0  0
 38 40  1  0  0  0  0
 40 39  1  0  0  0  0
 42 41  1  0  0  0  0
 43 42  1  0  0  0  0
 44 45  1  0  0  0  0
 44 47  1  0  0  0  0
 45 47  1  0  0  0  0
 45 46  2  0  0  0  0
 47 43  1  1  0  0  0
 48 44  1  0  0  0  0
 49 50  1  0  0  0  0
 50 48  1  0  0  0  0
M  END
>  <MODEL>
6

>  <REMARK>
 VINA RESULT:      -3.4      1.912      4.886
  Name = 
  20 active torsions:
  status: ('A' for Active; 'I' for Inactive)
    1  A    between atoms: C_1  and  C_9
    2  A    between atoms: N_4  and  C_11
    3  A    between atoms: C_6  and  C_39
    4  A    between atoms: C_6  and  C_45
    5  A    between atoms: N_10  and  C_36
    6  A    between atoms: C_11  and  C_14
    7  A    between atoms: C_12  and  C_31
    8  A    between atoms: C_12  and  C_37
    9  A    between atoms: C_12  and  N_40
   10  A    between atoms: C_13  and  C_35
   11  A    between atoms: C_14  and  C_39
   12  A    between atoms: C_18  and  C_25
   13  A    between atoms: C_18  and  CA_48
   14  A    between atoms: C_22  and  C_31
   15  A    between atoms: C_22  and  C_45
   16  A    between atoms: C_23  and  C_25
   17  A    between atoms: C_23  and  C_37
   18  A    between atoms: C_29  and  C_36
   19  A    between atoms: C_34  and  N_38
   20  A    between atoms: C_37  and  C_50
                            x       y       z     vdW  Elec       q    Type
                         _______ _______ _______ _____ _____    ______ ____

>  <TORSDO>
F 20

$$$$
=
 OpenBabel11072410373D

 50 55  0  0  1  0  0  0  0  0999 V2000
  161.6250  209.1270  152.1380 C   0  0  1  0  0  3  0  0  0  0  0  0
  159.9280  206.7580  154.1010 F   0  0  0  0  0  0  0  0  0  0  0  0
  159.5600  211.1310  152.0610 O   0  0  0  0  0  0  0  0  0  0  0  0
  160.2420  208.6230  157.2330 C   0  0  0  0  0  2  0  0  0  0  0  0
  159.6830  209.7880  156.6070 O   0  0  0  0  0  0  0  0  0  0  0  0
  160.7510  207.4870  154.9390 C   0  0  2  0  0  0  0  0  0  0  0  0
  159.7150  210.4400  153.1030 C   0  0  0  0  0  0  0  0  0  0  0  0
  162.0590  207.0160  154.8250 O   0  0  0  0  0  1  0  0  0  0  0  0
  159.0940  210.7790  154.4120 C   0  0  2  0  0  3  0  0  0  0  0  0
  160.5910  209.3200  153.1620 N   0  0  0  0  0  0  0  0  0  0  0  0
  159.4670  209.5570  155.2330 C   0  0  1  0  0  3  0  0  0  0  0  0
  160.2470  207.3050  156.3960 C   0  0  1  0  0  3  0  0  0  0  0  0
  160.9330  206.3060  157.0660 F   0  0  0  0  0  0  0  0  0  0  0  0
  160.7110  208.9760  154.5750 C   0  0  1  0  0  3  0  0  0  0  0  0
  157.6100  210.9760  154.2620 C   0  0  0  0  0  0  0  0  0  0  0  0
  156.9750  212.2570  154.3310 N   0  0  0  0  0  2  0  0  0  0  0  0
  156.8840  209.9540  154.1900 O   0  0  0  0  0  0  0  0  0  0  0  0
  157.2110  213.5610  152.3390 C   0  0  2  0  0  3  0  0  0  0  0  0
  156.4640  214.4230  153.3380 C   0  0  0  0  0  2  0  0  0  0  0  0
  157.5580  213.4820  153.8150 C   0  0  1  0  0  3  0  0  0  0  0  0
  159.2620  214.4530  149.3700 C   0  0  0  0  0  2  0  0  0  0  0  0
  158.2350  214.3560  151.5110 C   0  0  1  0  0  3  0  0  0  0  0  0
  159.6270  213.9530  151.7020 N   0  0  0  0  0  2  0  0  0  0  0  0
  157.9330  214.2090  150.0420 C   0  0  0  0  0  2  0  0  0  0  0  0
  160.3050  214.3480  150.4700 C   0  0  0  0  0  2  0  0  0  0  0  0
  162.5630  207.4450  150.4520 C   0  0  0  0  0  2  0  0  0  0  0  0
  161.4450  208.1870  149.7310 C   0  0  0  0  0  2  0  0  0  0  0  0
  161.3460  207.9180  151.2210 C   0  0  0  0  0  0  0  0  0  0  0  0
  160.4560  206.7500  151.6520 C   0  0  0  0  0  2  0  0  0  0  0  0
  160.2020  205.7680  150.5170 C   0  0  0  0  0  2  0  0  0  0  0  0
  160.9800  204.4870  150.7380 C   0  0  0  0  0  2  0  0  0  0  0  0
  160.8050  203.5820  149.5330 C   0  0  0  0  0  2  0  0  0  0  0  0
  161.7050  204.0300  148.3860 C   0  0  0  0  0  2  0  0  0  0  0  0
  161.0690  203.8320  147.0080 C   0  0  2  0  0  3  0  0  0  0  0  0
  161.1210  202.4900  146.6270 O   0  0  0  0  0  1  0  0  0  0  0  0
  161.7330  204.6580  146.0110 N   0  0  0  0  0  2  0  0  0  0  0  0
  160.8800  204.6670  144.8340 C   0  0  0  0  0  1  0  0  0  0  0  0
  162.0150  210.4280  151.4230 C   0  0  1  0  0  3  0  0  0  0  0  0
  163.9910  210.5990  152.9470 C   0  0  0  0  0  1  0  0  0  0  0  0
  163.5210  210.6420  151.5090 C   0  0  0  0  0  2  0  0  0  0  0  0
  161.6300  210.3180  149.9550 C   0  0  0  0  0  2  0  0  0  0  0  0
  162.4420  211.2690  149.0960 C   0  0  0  0  0  2  0  0  0  0  0  0
  161.8610  211.3080  147.6830 C   0  0  0  0  0  2  0  0  0  0  0  0
  161.1720  212.7610  145.8670 N   0  0  0  0  0  0  0  0  0  0  0  0
  159.9180  212.4540  146.6940 C   0  0  0  0  0  0  0  0  0  0  0  0
  158.6870  212.2060  146.7790 O   0  0  0  0  0  0  0  0  0  0  0  0
  161.1780  212.6260  147.2560 C   0  0  1  0  0  3  0  0  0  0  0  0
  161.8300  212.9810  144.5910 C   0  0  0  0  0  2  0  0  0  0  0  0
  160.1490  212.0060  143.0050 C   0  0  0  0  0  1  0  0  0  0  0  0
  160.8010  213.2790  143.5050 C   0  0  0  0  0  2  0  0  0  0  0  0
  1 38  1  6  0  0  0
  1 10  1  0  0  0  0
  3  7  2  0  0  0  0
  5  4  1  0  0  0  0
  6  2  1  6  0  0  0
  6 12  1  0  0  0  0
  7 10  1  0  0  0  0
  7  9  1  0  0  0  0
  8  6  1  0  0  0  0
  9 15  1  6  0  0  0
  9 11  1  0  0  0  0
 11  5  1  1  0  0  0
 12 13  1  1  0  0  0
 12  4  1  0  0  0  0
 14 10  1  6  0  0  0
 14  6  1  0  0  0  0
 14 11  1  0  0  0  0
 15 16  1  0  0  0  0
 17 15  2  0  0  0  0
 18 19  1  1  0  0  0
 18 20  1  0  0  0  0
 19 20  1  0  0  0  0
 20 16  1  1  0  0  0
 21 24  1  0  0  0  0
 21 25  1  0  0  0  0
 22 24  1  6  0  0  0
 22 23  1  0  0  0  0
 22 18  1  0  0  0  0
 25 23  1  0  0  0  0
 26 28  1  0  0  0  0
 27 26  1  0  0  0  0
 27 28  1  0  0  0  0
 28 29  1  0  0  0  0
 28  1  1  0  0  0  0
 30 31  1  0  0  0  0
 30 29  1  0  0  0  0
 32 31  1  0  0  0  0
 33 32  1  0  0  0  0
 34 35  1  6  0  0  0
 34 33  1  0  0  0  0
 36 34  1  0  0  0  0
 37 36  1  0  0  0  0
 38 41  1  6  0  0  0
 38 40  1  0  0  0  0
 40 39  1  0  0  0  0
 42 41  1  0  0  0  0
 43 42  1  0  0  0  0
 44 45  1  0  0  0  0
 44 47  1  0  0  0  0
 45 46  2  0  0  0  0
 45 47  1  0  0  0  0
 47 43  1  6  0  0  0
 48 44  1  0  0  0  0
 49 50  1  0  0  0  0
 50 48  1  0  0  0  0
M  END
>  <MODEL>
7

>  <REMARK>
 VINA RESULT:      -3.0      2.278      8.489
  Name = 
  20 active torsions:
  status: ('A' for Active; 'I' for Inactive)
    1  A    between atoms: C_1  and  C_9
    2  A    between atoms: N_4  and  C_11
    3  A    between atoms: C_6  and  C_39
    4  A    between atoms: C_6  and  C_45
    5  A    between atoms: N_10  and  C_36
    6  A    between atoms: C_11  and  C_14
    7  A    between atoms: C_12  and  C_31
    8  A    between atoms: C_12  and  C_37
    9  A    between atoms: C_12  and  N_40
   10  A    between atoms: C_13  and  C_35
   11  A    between atoms: C_14  and  C_39
   12  A    between atoms: C_18  and  C_25
   13  A    between atoms: C_18  and  CA_48
   14  A    between atoms: C_22  and  C_31
   15  A    between atoms: C_22  and  C_45
   16  A    between atoms: C_23  and  C_25
   17  A    between atoms: C_23  and  C_37
   18  A    between atoms: C_29  and  C_36
   19  A    between atoms: C_34  and  N_38
   20  A    between atoms: C_37  and  C_50
                            x       y       z     vdW  Elec       q    Type
                         _______ _______ _______ _____ _____    ______ ____

>  <TORSDO>
F 20

$$$$
=
 OpenBabel11072410373D

 50 55  0  0  1  0  0  0  0  0999 V2000
  160.5200  209.0500  153.0120 C   0  0  1  0  0  3  0  0  0  0  0  0
  161.1990  209.4770  156.4320 F   0  0  0  0  0  0  0  0  0  0  0  0
  157.8280  210.0720  153.0120 O   0  0  0  0  0  0  0  0  0  0  0  0
  161.5220  213.1180  156.2640 C   0  0  0  0  0  2  0  0  0  0  0  0
  160.2440  213.2120  155.6170 O   0  0  0  0  0  0  0  0  0  0  0  0
  161.7240  210.5650  155.7600 C   0  0  2  0  0  0  0  0  0  0  0  0
  158.6870  210.5870  153.7760 C   0  0  0  0  0  0  0  0  0  0  0  0
  162.9380  210.2030  155.1760 O   0  0  0  0  0  1  0  0  0  0  0  0
  158.4870  211.8830  154.4780 C   0  0  2  0  0  3  0  0  0  0  0  0
  159.9840  210.0320  153.9620 N   0  0  0  0  0  0  0  0  0  0  0  0
  159.7230  211.9270  155.3600 C   0  0  1  0  0  3  0  0  0  0  0  0
  161.9490  211.7080  156.7850 C   0  0  1  0  0  3  0  0  0  0  0  0
  163.2500  211.7380  157.2590 F   0  0  0  0  0  0  0  0  0  0  0  0
  160.7570  211.0460  154.6720 C   0  0  1  0  0  3  0  0  0  0  0  0
  157.1960  211.8780  155.2490 C   0  0  0  0  0  0  0  0  0  0  0  0
  156.4200  213.0550  155.4940 N   0  0  0  0  0  2  0  0  0  0  0  0
  156.8450  210.8070  155.8040 O   0  0  0  0  0  0  0  0  0  0  0  0
  155.7610  213.5410  153.2450 C   0  0  2  0  0  3  0  0  0  0  0  0
  154.8110  214.3000  154.1510 C   0  0  0  0  0  2  0  0  0  0  0  0
  156.2710  214.1420  154.5440 C   0  0  1  0  0  3  0  0  0  0  0  0
  155.9600  214.3840  149.6310 C   0  0  0  0  0  2  0  0  0  0  0  0
  156.1670  214.3440  151.9970 C   0  0  1  0  0  3  0  0  0  0  0  0
  157.4880  214.0240  151.4620 N   0  0  0  0  0  2  0  0  0  0  0  0
  155.1750  214.1070  150.8890 C   0  0  0  0  0  2  0  0  0  0  0  0
  157.4210  214.3890  150.0500 C   0  0  0  0  0  2  0  0  0  0  0  0
  162.5890  210.0490  151.8840 C   0  0  0  0  0  2  0  0  0  0  0  0
  161.5400  211.1530  151.8940 C   0  0  0  0  0  2  0  0  0  0  0  0
  161.1200  209.7020  151.7480 C   0  0  0  0  0  0  0  0  0  0  0  0
  160.7760  209.2230  150.3370 C   0  0  0  0  0  2  0  0  0  0  0  0
  161.9760  209.2720  149.4020 C   0  0  0  0  0  2  0  0  0  0  0  0
  162.1740  207.9340  148.7190 C   0  0  0  0  0  2  0  0  0  0  0  0
  160.9520  207.6180  147.8770 C   0  0  0  0  0  2  0  0  0  0  0  0
  161.3390  206.7910  146.6550 C   0  0  0  0  0  2  0  0  0  0  0  0
  161.7470  205.3580  147.0020 C   0  0  2  0  0  3  0  0  0  0  0  0
  163.1350  205.2480  147.1040 O   0  0  0  0  0  1  0  0  0  0  0  0
  161.2470  204.4240  146.0040 N   0  0  0  0  0  2  0  0  0  0  0  0
  161.8050  204.8320  144.7260 C   0  0  0  0  0  1  0  0  0  0  0  0
  161.3860  207.9740  153.6810 C   0  0  1  0  0  3  0  0  0  0  0  0
  159.8200  206.6150  155.0800 C   0  0  0  0  0  1  0  0  0  0  0  0
  160.8800  207.6960  155.0900 C   0  0  0  0  0  2  0  0  0  0  0  0
  161.2850  206.6880  152.8740 C   0  0  0  0  0  2  0  0  0  0  0  0
  162.4550  206.5400  151.9180 C   0  0  0  0  0  2  0  0  0  0  0  0
  162.3100  205.2410  151.1270 C   0  0  0  0  0  2  0  0  0  0  0  0
  160.9160  203.3800  150.4360 N   0  0  0  0  0  0  0  0  0  0  0  0
  160.7330  203.5370  151.9500 C   0  0  0  0  0  0  0  0  0  0  0  0
  160.5800  203.0460  153.0980 O   0  0  0  0  0  0  0  0  0  0  0  0
  160.8990  204.6150  151.0870 C   0  0  1  0  0  3  0  0  0  0  0  0
  161.0460  202.5500  149.2510 C   0  0  0  0  0  2  0  0  0  0  0  0
  159.4290  200.7440  149.8960 C   0  0  0  0  0  1  0  0  0  0  0  0
  160.8800  201.0770  149.6110 C   0  0  0  0  0  2  0  0  0  0  0  0
  1 38  1  1  0  0  0
  1 10  1  0  0  0  0
  3  7  2  0  0  0  0
  4 12  1  0  0  0  0
  5  4  1  0  0  0  0
  6  8  1  6  0  0  0
  6  2  1  0  0  0  0
  6 12  1  0  0  0  0
  7 10  1  0  0  0  0
  7  9  1  0  0  0  0
  9 15  1  1  0  0  0
  9 11  1  0  0  0  0
 11  5  1  6  0  0  0
 12 13  1  6  0  0  0
 14 10  1  1  0  0  0
 14 11  1  0  0  0  0
 14  6  1  0  0  0  0
 15 16  1  0  0  0  0
 15 17  2  0  0  0  0
 18 19  1  1  0  0  0
 18 20  1  0  0  0  0
 19 20  1  0  0  0  0
 20 16  1  1  0  0  0
 21 25  1  0  0  0  0
 21 24  1  0  0  0  0
 22 24  1  6  0  0  0
 22 18  1  0  0  0  0
 23 22  1  0  0  0  0
 25 23  1  0  0  0  0
 26 27  1  0  0  0  0
 28 26  1  0  0  0  0
 28 27  1  0  0  0  0
 28  1  1  0  0  0  0
 29 28  1  0  0  0  0
 30 29  1  0  0  0  0
 31 30  1  0  0  0  0
 32 31  1  0  0  0  0
 33 34  1  0  0  0  0
 33 32  1  0  0  0  0
 34 35  1  6  0  0  0
 36 34  1  0  0  0  0
 37 36  1  0  0  0  0
 38 41  1  6  0  0  0
 38 40  1  0  0  0  0
 39 40  1  0  0  0  0
 42 41  1  0  0  0  0
 43 42  1  0  0  0  0
 44 47  1  0  0  0  0
 44 45  1  0  0  0  0
 45 46  2  0  0  0  0
 47 43  1  1  0  0  0
 47 45  1  0  0  0  0
 48 50  1  0  0  0  0
 48 44  1  0  0  0  0
 50 49  1  0  0  0  0
M  END
>  <MODEL>
8

>  <REMARK>
 VINA RESULT:      -2.9      2.734      8.917
  Name = 
  20 active torsions:
  status: ('A' for Active; 'I' for Inactive)
    1  A    between atoms: C_1  and  C_9
    2  A    between atoms: N_4  and  C_11
    3  A    between atoms: C_6  and  C_39
    4  A    between atoms: C_6  and  C_45
    5  A    between atoms: N_10  and  C_36
    6  A    between atoms: C_11  and  C_14
    7  A    between atoms: C_12  and  C_31
    8  A    between atoms: C_12  and  C_37
    9  A    between atoms: C_12  and  N_40
   10  A    between atoms: C_13  and  C_35
   11  A    between atoms: C_14  and  C_39
   12  A    between atoms: C_18  and  C_25
   13  A    between atoms: C_18  and  CA_48
   14  A    between atoms: C_22  and  C_31
   15  A    between atoms: C_22  and  C_45
   16  A    between atoms: C_23  and  C_25
   17  A    between atoms: C_23  and  C_37
   18  A    between atoms: C_29  and  C_36
   19  A    between atoms: C_34  and  N_38
   20  A    between atoms: C_37  and  C_50
                            x       y       z     vdW  Elec       q    Type
                         _______ _______ _______ _____ _____    ______ ____

>  <TORSDO>
F 20

$$$$
=
 OpenBabel11072410373D

 50 55  0  0  1  0  0  0  0  0999 V2000
  161.6000  211.2040  150.2550 C   0  0  1  0  0  3  0  0  0  0  0  0
  158.8120  210.7060  152.3340 F   0  0  0  0  0  0  0  0  0  0  0  0
  160.1830  211.9600  147.8660 O   0  0  0  0  0  0  0  0  0  0  0  0
  158.0390  214.2610  152.7250 C   0  0  0  0  0  2  0  0  0  0  0  0
  158.0370  214.4280  151.2990 O   0  0  0  0  0  0  0  0  0  0  0  0
  159.2950  211.9790  152.5760 C   0  0  2  0  0  0  0  0  0  0  0  0
  159.7340  212.3080  148.9900 C   0  0  0  0  0  0  0  0  0  0  0  0
  160.4100  211.8960  153.4120 O   0  0  0  0  0  1  0  0  0  0  0  0
  158.6710  213.3340  149.1660 C   0  0  2  0  0  3  0  0  0  0  0  0
  160.2740  211.8320  150.2180 N   0  0  0  0  0  0  0  0  0  0  0  0
  158.4130  213.2300  150.6590 C   0  0  1  0  0  3  0  0  0  0  0  0
  158.1750  212.8030  153.2650 C   0  0  1  0  0  3  0  0  0  0  0  0
  158.3010  212.8040  154.6450 F   0  0  0  0  0  0  0  0  0  0  0  0
  159.6910  212.6650  151.2640 C   0  0  1  0  0  3  0  0  0  0  0  0
  157.4700  213.0060  148.3210 C   0  0  0  0  0  0  0  0  0  0  0  0
  157.0580  213.7930  147.1990 N   0  0  0  0  0  2  0  0  0  0  0  0
  156.7270  212.0640  148.6930 O   0  0  0  0  0  0  0  0  0  0  0  0
  158.5550  213.3750  145.3800 C   0  0  2  0  0  3  0  0  0  0  0  0
  157.4820  214.3090  144.8550 C   0  0  0  0  0  2  0  0  0  0  0  0
  157.9760  214.4480  146.2850 C   0  0  1  0  0  3  0  0  0  0  0  0
  161.1550  214.1620  142.8420 C   0  0  0  0  0  2  0  0  0  0  0  0
  159.9580  213.7160  144.8460 C   0  0  1  0  0  3  0  0  0  0  0  0
  160.8270  212.5640  144.6190 N   0  0  0  0  0  2  0  0  0  0  0  0
  159.8430  214.4440  143.5320 C   0  0  0  0  0  2  0  0  0  0  0  0
  161.7800  213.0050  143.6050 C   0  0  0  0  0  2  0  0  0  0  0  0
  162.1180  210.8340  152.7340 C   0  0  0  0  0  2  0  0  0  0  0  0
  163.1590  210.0340  151.9620 C   0  0  0  0  0  2  0  0  0  0  0  0
  161.7540  210.1920  151.4110 C   0  0  0  0  0  0  0  0  0  0  0  0
  160.8050  209.0070  151.5940 C   0  0  0  0  0  2  0  0  0  0  0  0
  161.4690  207.8420  152.3160 C   0  0  0  0  0  2  0  0  0  0  0  0
  160.5160  207.2250  153.3190 C   0  0  0  0  0  2  0  0  0  0  0  0
  161.1750  207.2030  154.6860 C   0  0  0  0  0  2  0  0  0  0  0  0
  160.2360  207.7710  155.7460 C   0  0  0  0  0  2  0  0  0  0  0  0
  160.9090  208.8010  156.6560 C   0  0  2  0  0  3  0  0  0  0  0  0
  159.9720  209.7030  157.1620 O   0  0  0  0  0  1  0  0  0  0  0  0
  161.9520  209.5190  155.9380 N   0  0  0  0  0  2  0  0  0  0  0  0
  162.1820  210.7610  156.6570 C   0  0  0  0  0  1  0  0  0  0  0  0
  162.0760  210.7190  148.8790 C   0  0  1  0  0  3  0  0  0  0  0  0
  162.8920  213.0830  148.8400 C   0  0  0  0  0  1  0  0  0  0  0  0
  163.1140  211.6810  148.3150 C   0  0  0  0  0  2  0  0  0  0  0  0
  162.7270  209.3520  149.0360 C   0  0  0  0  0  2  0  0  0  0  0  0
  161.7820  208.2380  148.6230 C   0  0  0  0  0  2  0  0  0  0  0  0
  162.2560  207.6240  147.3070 C   0  0  0  0  0  2  0  0  0  0  0  0
  160.8090  205.7570  147.8570 N   0  0  0  0  0  0  0  0  0  0  0  0
  160.7350  205.9460  146.3370 C   0  0  0  0  0  0  0  0  0  0  0  0
  160.0900  205.9480  145.2570 O   0  0  0  0  0  0  0  0  0  0  0  0
  161.8990  206.1400  147.0730 C   0  0  1  0  0  3  0  0  0  0  0  0
  160.1830  205.4480  149.1300 C   0  0  0  0  0  2  0  0  0  0  0  0
  160.7290  203.2520  150.2120 C   0  0  0  0  0  1  0  0  0  0  0  0
  161.1550  204.6960  150.0350 C   0  0  0  0  0  2  0  0  0  0  0  0
  1 38  1  6  0  0  0
  1 28  1  0  0  0  0
  3  7  2  0  0  0  0
  4 12  1  0  0  0  0
  5  4  1  0  0  0  0
  6  2  1  6  0  0  0
  6 12  1  0  0  0  0
  6  8  1  0  0  0  0
  7  9  1  0  0  0  0
  7 10  1  0  0  0  0
  9 15  1  6  0  0  0
  9 11  1  0  0  0  0
 10  1  1  0  0  0  0
 11 14  1  0  0  0  0
 11  5  1  1  0  0  0
 12 13  1  1  0  0  0
 14 10  1  6  0  0  0
 14  6  1  0  0  0  0
 15 17  2  0  0  0  0
 16 15  1  0  0  0  0
 18 19  1  6  0  0  0
 18 20  1  0  0  0  0
 19 20  1  0  0  0  0
 20 16  1  1  0  0  0
 21 24  1  0  0  0  0
 21 25  1  0  0  0  0
 22 24  1  6  0  0  0
 22 18  1  0  0  0  0
 23 22  1  0  0  0  0
 25 23  1  0  0  0  0
 27 26  1  0  0  0  0
 28 29  1  0  0  0  0
 28 27  1  0  0  0  0
 28 26  1  0  0  0  0
 29 30  1  0  0  0  0
 30 31  1  0  0  0  0
 31 32  1  0  0  0  0
 32 33  1  0  0  0  0
 33 34  1  0  0  0  0
 34 35  1  6  0  0  0
 36 34  1  0  0  0  0
 36 37  1  0  0  0  0
 38 40  1  1  0  0  0
 38 41  1  0  0  0  0
 40 39  1  0  0  0  0
 42 41  1  0  0  0  0
 43 42  1  0  0  0  0
 44 48  1  0  0  0  0
 45 47  1  0  0  0  0
 45 44  1  0  0  0  0
 46 45  2  0  0  0  0
 47 43  1  1  0  0  0
 47 44  1  0  0  0  0
 48 50  1  0  0  0  0
 50 49  1  0  0  0  0
M  END
>  <MODEL>
9

>  <REMARK>
 VINA RESULT:      -2.7      3.061      8.619
  Name = 
  20 active torsions:
  status: ('A' for Active; 'I' for Inactive)
    1  A    between atoms: C_1  and  C_9
    2  A    between atoms: N_4  and  C_11
    3  A    between atoms: C_6  and  C_39
    4  A    between atoms: C_6  and  C_45
    5  A    between atoms: N_10  and  C_36
    6  A    between atoms: C_11  and  C_14
    7  A    between atoms: C_12  and  C_31
    8  A    between atoms: C_12  and  C_37
    9  A    between atoms: C_12  and  N_40
   10  A    between atoms: C_13  and  C_35
   11  A    between atoms: C_14  and  C_39
   12  A    between atoms: C_18  and  C_25
   13  A    between atoms: C_18  and  CA_48
   14  A    between atoms: C_22  and  C_31
   15  A    between atoms: C_22  and  C_45
   16  A    between atoms: C_23  and  C_25
   17  A    between atoms: C_23  and  C_37
   18  A    between atoms: C_29  and  C_36
   19  A    between atoms: C_34  and  N_38
   20  A    between atoms: C_37  and  C_50
                            x       y       z     vdW  Elec       q    Type
                         _______ _______ _______ _____ _____    ______ ____

>  <TORSDO>
F 20

$$$$
