=
 OpenBabel11072410213D

 33 36  0  0  1  0  0  0  0  0999 V2000
  160.7730  207.0440  153.6210 C   0  0  0  0  0  2  0  0  0  0  0  0
  160.9960  208.2360  152.7420 C   0  0  2  0  0  3  0  0  0  0  0  0
  162.2980  208.0380  152.1430 N   0  0  0  0  0  0  0  0  0  0  0  0
  161.9100  206.1740  153.3810 N   0  0  0  0  0  2  0  0  0  0  0  0
  162.5410  206.6540  152.2170 N   0  0  0  0  0  2  0  0  0  0  0  0
  161.6050  209.5960  154.5820 O   0  0  0  0  0  0  0  0  0  0  0  0
  160.9360  209.5240  153.5160 C   0  0  0  0  0  0  0  0  0  0  0  0
  160.5150  211.4100  151.9370 C   0  0  0  0  0  3  0  0  0  0  0  0
  159.0000  211.1060  153.7860 C   0  0  0  0  0  3  0  0  0  0  0  0
  158.2720  212.2100  153.3440 C   0  0  0  0  0  3  0  0  0  0  0  0
  158.6680  212.8850  152.2320 N   0  0  0  0  0  0  0  0  0  0  0  0
  160.1350  210.6940  153.0800 C   0  0  0  0  0  0  0  0  0  0  0  0
  159.7720  212.5210  151.5200 C   0  0  0  0  0  0  0  0  0  0  0  0
  161.7310  211.6360  149.5020 O   0  0  0  0  0  1  0  0  0  0  0  0
  160.9960  212.7540  149.2840 N   0  0  0  0  0  0  0  0  0  0  0  0
  160.1360  213.2890  150.3090 C   0  0  0  0  0  0  0  0  0  0  0  0
  159.6710  214.4530  150.1750 O   0  0  0  0  0  0  0  0  0  0  0  0
  160.6240  212.6770  146.8710 C   0  0  0  0  0  1  0  0  0  0  0  0
  162.6400  213.7890  147.8040 C   0  0  0  0  0  1  0  0  0  0  0  0
  161.1720  213.4840  148.0320 C   0  0  0  0  0  3  0  0  0  0  0  0
  162.1790  208.3780  150.7350 C   0  0  0  0  0  2  0  0  0  0  0  0
  161.0280  207.6010  150.1200 C   0  0  0  0  0  2  0  0  0  0  0  0
  161.4950  206.8560  148.8800 C   0  0  2  0  0  3  0  0  0  0  0  0
  161.2640  207.6390  147.7480 O   0  0  0  0  0  1  0  0  0  0  0  0
  161.4020  202.0860  147.3430 C   0  0  0  0  0  3  0  0  0  0  0  0
  160.7960  205.5010  148.7500 C   0  0  1  0  0  3  0  0  0  0  0  0
  161.4420  204.6040  147.6840 C   0  0  0  0  0  2  0  0  0  0  0  0
  160.6500  201.8370  150.0410 C   0  0  0  0  0  3  0  0  0  0  0  0
  160.7540  204.6260  150.3610 S   0  0  0  0  0  0  0  0  0  0  0  0
  160.7910  200.6940  149.2410 C   0  0  0  0  0  3  0  0  0  0  0  0
  161.2530  203.2150  148.1530 C   0  0  0  0  0  0  0  0  0  0  0  0
  161.1700  200.8190  147.8960 C   0  0  0  0  0  3  0  0  0  0  0  0
  160.8980  203.0910  149.4800 C   0  0  0  0  0  0  0  0  0  0  0  0
  2  7  1  1  0  0  0
  2  1  1  0  0  0  0
  3  5  1  0  0  0  0
  3  2  1  0  0  0  0
  4  1  1  0  0  0  0
  5  4  1  0  0  0  0
  7  6  2  0  0  0  0
  8 12  1  0  0  0  0
 10  9  1  0  0  0  0
 11 10  2  0  0  0  0
 12  7  1  0  0  0  0
 12  9  2  0  0  0  0
 13  8  2  0  0  0  0
 13 11  1  0  0  0  0
 15 14  1  0  0  0  0
 15 16  1  0  0  0  0
 16 13  1  0  0  0  0
 17 16  2  0  0  0  0
 18 20  1  0  0  0  0
 19 20  1  0  0  0  0
 20 15  1  0  0  0  0
 21  3  1  0  0  0  0
 22 21  1  0  0  0  0
 23 24  1  6  0  0  0
 23 22  1  0  0  0  0
 25 32  2  0  0  0  0
 25 31  1  0  0  0  0
 26 23  1  1  0  0  0
 26 29  1  0  0  0  0
 27 31  1  0  0  0  0
 27 26  1  0  0  0  0
 30 28  2  0  0  0  0
 31 33  2  0  0  0  0
 32 30  1  0  0  0  0
 33 28  1  0  0  0  0
 33 29  1  0  0  0  0
M  END
>  <MODEL>
1

>  <REMARK>
 VINA RESULT:      -8.2      0.000      0.000
  Name = 
  8 active torsions:
  status: ('A' for Active; 'I' for Inactive)
    1  A    between atoms: N_4  and  C_23
    2  A    between atoms: C_7  and  C_8
    3  A    between atoms: C_8  and  C_11
    4  A    between atoms: C_10  and  C_29
    5  A    between atoms: C_11  and  C_17
    6  A    between atoms: C_17  and  N_24
    7  A    between atoms: C_22  and  C_33
    8  A    between atoms: C_27  and  C_33
                            x       y       z     vdW  Elec       q    Type
                         _______ _______ _______ _____ _____    ______ ____

>  <TORSDO>
F 8

$$$$
=
 OpenBabel11072410213D

 33 36  0  0  1  0  0  0  0  0999 V2000
  160.3980  209.3330  156.6890 C   0  0  0  0  0  2  0  0  0  0  0  0
  160.3630  209.1740  155.2010 C   0  0  2  0  0  3  0  0  0  0  0  0
  161.2050  208.0330  154.9130 N   0  0  0  0  0  0  0  0  0  0  0  0
  161.1630  208.2000  157.1770 N   0  0  0  0  0  2  0  0  0  0  0  0
  161.2550  207.2900  156.1060 N   0  0  0  0  0  2  0  0  0  0  0  0
  162.0660  210.7060  154.6040 O   0  0  0  0  0  0  0  0  0  0  0  0
  160.8470  210.4080  154.4920 C   0  0  0  0  0  0  0  0  0  0  0  0
  160.4440  211.8500  152.4950 C   0  0  0  0  0  3  0  0  0  0  0  0
  158.6390  211.5340  154.0610 C   0  0  0  0  0  3  0  0  0  0  0  0
  157.8360  212.3520  153.2680 C   0  0  0  0  0  3  0  0  0  0  0  0
  158.3360  212.8970  152.1270 N   0  0  0  0  0  0  0  0  0  0  0  0
  159.9600  211.2740  153.6770 C   0  0  0  0  0  0  0  0  0  0  0  0
  159.6190  212.6760  151.7220 C   0  0  0  0  0  0  0  0  0  0  0  0
  161.6280  211.4720  149.9310 O   0  0  0  0  0  1  0  0  0  0  0  0
  160.9740  212.5980  149.5510 N   0  0  0  0  0  0  0  0  0  0  0  0
  160.0940  213.2870  150.4610 C   0  0  0  0  0  0  0  0  0  0  0  0
  159.7070  214.4530  150.1770 O   0  0  0  0  0  0  0  0  0  0  0  0
  160.3380  212.5890  147.1930 C   0  0  0  0  0  1  0  0  0  0  0  0
  162.7070  212.9240  147.8610 C   0  0  0  0  0  1  0  0  0  0  0  0
  161.2620  213.1770  148.2430 C   0  0  0  0  0  3  0  0  0  0  0  0
  160.5070  207.2200  153.9300 C   0  0  0  0  0  2  0  0  0  0  0  0
  160.9460  207.6220  152.5330 C   0  0  0  0  0  2  0  0  0  0  0  0
  161.8450  206.5540  151.9330 C   0  0  2  0  0  3  0  0  0  0  0  0
  162.7800  207.1510  151.0840 O   0  0  0  0  0  1  0  0  0  0  0  0
  161.1650  203.4780  148.0340 C   0  0  0  0  0  3  0  0  0  0  0  0
  161.0310  205.5000  151.1810 C   0  0  1  0  0  3  0  0  0  0  0  0
  161.4510  205.3670  149.7100 C   0  0  0  0  0  2  0  0  0  0  0  0
  160.7740  201.7440  150.2110 C   0  0  0  0  0  3  0  0  0  0  0  0
  161.1400  203.8690  152.0120 S   0  0  0  0  0  0  0  0  0  0  0  0
  160.7120  201.2520  148.9010 C   0  0  0  0  0  3  0  0  0  0  0  0
  161.2190  203.9530  149.3470 C   0  0  0  0  0  0  0  0  0  0  0  0
  160.9120  202.1170  147.8140 C   0  0  0  0  0  3  0  0  0  0  0  0
  161.0410  203.0990  150.4150 C   0  0  0  0  0  0  0  0  0  0  0  0
  1  4  1  0  0  0  0
  2  7  1  6  0  0  0
  2  1  1  0  0  0  0
  3  2  1  0  0  0  0
  3  5  1  0  0  0  0
  5  4  1  0  0  0  0
  7  6  2  0  0  0  0
  8 12  1  0  0  0  0
 10  9  1  0  0  0  0
 11 10  2  0  0  0  0
 12  9  2  0  0  0  0
 12  7  1  0  0  0  0
 13 11  1  0  0  0  0
 13  8  2  0  0  0  0
 15 14  1  0  0  0  0
 15 16  1  0  0  0  0
 16 13  1  0  0  0  0
 17 16  2  0  0  0  0
 18 20  1  0  0  0  0
 19 20  1  0  0  0  0
 20 15  1  0  0  0  0
 21  3  1  0  0  0  0
 22 21  1  0  0  0  0
 23 24  1  6  0  0  0
 23 22  1  0  0  0  0
 25 31  1  0  0  0  0
 26 23  1  1  0  0  0
 26 29  1  0  0  0  0
 27 26  1  0  0  0  0
 28 33  1  0  0  0  0
 30 28  2  0  0  0  0
 31 27  1  0  0  0  0
 31 33  2  0  0  0  0
 32 25  2  0  0  0  0
 32 30  1  0  0  0  0
 33 29  1  0  0  0  0
M  END
>  <MODEL>
2

>  <REMARK>
 VINA RESULT:      -8.1      1.619      2.052
  Name = 
  8 active torsions:
  status: ('A' for Active; 'I' for Inactive)
    1  A    between atoms: N_4  and  C_23
    2  A    between atoms: C_7  and  C_8
    3  A    between atoms: C_8  and  C_11
    4  A    between atoms: C_10  and  C_29
    5  A    between atoms: C_11  and  C_17
    6  A    between atoms: C_17  and  N_24
    7  A    between atoms: C_22  and  C_33
    8  A    between atoms: C_27  and  C_33
                            x       y       z     vdW  Elec       q    Type
                         _______ _______ _______ _____ _____    ______ ____

>  <TORSDO>
F 8

$$$$
=
 OpenBabel11072410213D

 33 36  0  0  1  0  0  0  0  0999 V2000
  161.6180  209.0490  152.6320 C   0  0  0  0  0  2  0  0  0  0  0  0
  161.4780  207.9000  153.5830 C   0  0  2  0  0  3  0  0  0  0  0  0
  160.8420  206.8440  152.8250 N   0  0  0  0  0  0  0  0  0  0  0  0
  161.1630  208.5420  151.3510 N   0  0  0  0  0  2  0  0  0  0  0  0
  161.1030  207.1400  151.4740 N   0  0  0  0  0  2  0  0  0  0  0  0
  159.9960  207.3610  155.3490 O   0  0  0  0  0  0  0  0  0  0  0  0
  160.6690  208.2710  154.7950 C   0  0  0  0  0  0  0  0  0  0  0  0
  159.6460  210.5430  154.9360 C   0  0  0  0  0  3  0  0  0  0  0  0
  161.5710  210.0680  156.3060 C   0  0  0  0  0  3  0  0  0  0  0  0
  161.5050  211.3660  156.8110 C   0  0  0  0  0  3  0  0  0  0  0  0
  160.5340  212.2150  156.3810 N   0  0  0  0  0  0  0  0  0  0  0  0
  160.6340  209.6430  155.3570 C   0  0  0  0  0  0  0  0  0  0  0  0
  159.6080  211.8440  155.4520 C   0  0  0  0  0  0  0  0  0  0  0  0
  156.7520  211.6400  156.1590 O   0  0  0  0  0  1  0  0  0  0  0  0
  157.2130  212.7450  155.5240 N   0  0  0  0  0  0  0  0  0  0  0  0
  158.5680  212.8130  155.0400 C   0  0  0  0  0  0  0  0  0  0  0  0
  158.8900  213.7310  154.2380 O   0  0  0  0  0  0  0  0  0  0  0  0
  155.3660  214.0750  156.4100 C   0  0  0  0  0  1  0  0  0  0  0  0
  155.4610  213.4970  153.9960 C   0  0  0  0  0  1  0  0  0  0  0  0
  156.2820  213.8300  155.2260 C   0  0  0  0  0  3  0  0  0  0  0  0
  161.5430  205.6100  153.1370 C   0  0  0  0  0  2  0  0  0  0  0  0
  161.8880  204.8810  151.8500 C   0  0  0  0  0  2  0  0  0  0  0  0
  160.9990  203.6600  151.6780 C   0  0  2  0  0  3  0  0  0  0  0  0
  161.7100  202.5100  152.0290 O   0  0  0  0  0  1  0  0  0  0  0  0
  161.5070  204.3640  146.7420 C   0  0  0  0  0  3  0  0  0  0  0  0
  160.4740  203.5510  150.2460 C   0  0  1  0  0  3  0  0  0  0  0  0
  161.2360  204.4560  149.2670 C   0  0  0  0  0  2  0  0  0  0  0  0
  160.7630  201.6560  146.8640 C   0  0  0  0  0  3  0  0  0  0  0  0
  160.5210  201.8150  149.6580 S   0  0  0  0  0  0  0  0  0  0  0  0
  161.0510  202.2510  145.6280 C   0  0  0  0  0  3  0  0  0  0  0  0
  161.2130  203.7560  147.9650 C   0  0  0  0  0  0  0  0  0  0  0  0
  161.4260  203.6020  145.5680 C   0  0  0  0  0  3  0  0  0  0  0  0
  160.8620  202.4240  148.0250 C   0  0  0  0  0  0  0  0  0  0  0  0
  1  2  1  0  0  0  0
  2  7  1  1  0  0  0
  3 21  1  0  0  0  0
  3  2  1  0  0  0  0
  4  5  1  0  0  0  0
  4  1  1  0  0  0  0
  5  3  1  0  0  0  0
  7  6  2  0  0  0  0
  7 12  1  0  0  0  0
  8 12  2  0  0  0  0
  8 13  1  0  0  0  0
  9 10  2  0  0  0  0
 11 10  1  0  0  0  0
 12  9  1  0  0  0  0
 13 11  2  0  0  0  0
 15 14  1  0  0  0  0
 16 13  1  0  0  0  0
 16 15  1  0  0  0  0
 17 16  2  0  0  0  0
 19 20  1  0  0  0  0
 20 15  1  0  0  0  0
 20 18  1  0  0  0  0
 22 21  1  0  0  0  0
 23 22  1  0  0  0  0
 23 24  1  6  0  0  0
 25 31  1  0  0  0  0
 26 23  1  1  0  0  0
 27 26  1  0  0  0  0
 28 33  1  0  0  0  0
 29 26  1  0  0  0  0
 30 28  2  0  0  0  0
 31 33  2  0  0  0  0
 31 27  1  0  0  0  0
 32 30  1  0  0  0  0
 32 25  2  0  0  0  0
 33 29  1  0  0  0  0
M  END
>  <MODEL>
3

>  <REMARK>
 VINA RESULT:      -8.0      3.408      4.706
  Name = 
  8 active torsions:
  status: ('A' for Active; 'I' for Inactive)
    1  A    between atoms: N_4  and  C_23
    2  A    between atoms: C_7  and  C_8
    3  A    between atoms: C_8  and  C_11
    4  A    between atoms: C_10  and  C_29
    5  A    between atoms: C_11  and  C_17
    6  A    between atoms: C_17  and  N_24
    7  A    between atoms: C_22  and  C_33
    8  A    between atoms: C_27  and  C_33
                            x       y       z     vdW  Elec       q    Type
                         _______ _______ _______ _____ _____    ______ ____

>  <TORSDO>
F 8

$$$$
=
 OpenBabel11072410213D

 33 36  0  0  1  0  0  0  0  0999 V2000
  162.4270  210.3380  150.8820 C   0  0  0  0  0  2  0  0  0  0  0  0
  162.1180  208.9280  150.4840 C   0  0  2  0  0  3  0  0  0  0  0  0
  161.5600  209.0140  149.1510 N   0  0  0  0  0  0  0  0  0  0  0  0
  162.1380  211.1390  149.7070 N   0  0  0  0  0  2  0  0  0  0  0  0
  162.0160  210.2390  148.6300 N   0  0  0  0  0  2  0  0  0  0  0  0
  160.6930  207.1460  151.1150 O   0  0  0  0  0  0  0  0  0  0  0  0
  161.1610  208.2700  151.4390 C   0  0  0  0  0  0  0  0  0  0  0  0
  160.0580  210.0980  152.7310 C   0  0  0  0  0  3  0  0  0  0  0  0
  161.0510  208.2730  153.9520 C   0  0  0  0  0  3  0  0  0  0  0  0
  160.6510  208.8790  155.1420 C   0  0  0  0  0  3  0  0  0  0  0  0
  159.9770  210.0600  155.1110 N   0  0  0  0  0  0  0  0  0  0  0  0
  160.7550  208.8830  152.7280 C   0  0  0  0  0  0  0  0  0  0  0  0
  159.6750  210.6900  153.9410 C   0  0  0  0  0  0  0  0  0  0  0  0
  156.9180  210.9810  154.9430 O   0  0  0  0  0  1  0  0  0  0  0  0
  157.6320  212.0820  154.6030 N   0  0  0  0  0  0  0  0  0  0  0  0
  158.9250  211.9650  153.9790 C   0  0  0  0  0  0  0  0  0  0  0  0
  159.4450  212.9820  153.4460 O   0  0  0  0  0  0  0  0  0  0  0  0
  156.4060  213.5230  156.1490 C   0  0  0  0  0  1  0  0  0  0  0  0
  155.9670  213.6280  153.7060 C   0  0  0  0  0  1  0  0  0  0  0  0
  157.0230  213.3990  154.7690 C   0  0  0  0  0  3  0  0  0  0  0  0
  162.1710  207.9580  148.3600 C   0  0  0  0  0  2  0  0  0  0  0  0
  161.0970  207.2240  147.5760 C   0  0  0  0  0  2  0  0  0  0  0  0
  161.7290  206.2390  146.6070 C   0  0  2  0  0  3  0  0  0  0  0  0
  160.8670  206.0250  145.5290 O   0  0  0  0  0  1  0  0  0  0  0  0
  160.8860  202.7800  150.1350 C   0  0  0  0  0  3  0  0  0  0  0  0
  162.0660  204.9170  147.2980 C   0  0  1  0  0  3  0  0  0  0  0  0
  161.4300  204.7990  148.6900 C   0  0  0  0  0  2  0  0  0  0  0  0
  161.0120  201.2100  147.8070 C   0  0  0  0  0  3  0  0  0  0  0  0
  161.5710  203.4880  146.2610 S   0  0  0  0  0  0  0  0  0  0  0  0
  160.7400  200.6120  149.0440 C   0  0  0  0  0  3  0  0  0  0  0  0
  161.1610  203.3590  148.8940 C   0  0  0  0  0  0  0  0  0  0  0  0
  160.6730  201.3960  150.2060 C   0  0  0  0  0  3  0  0  0  0  0  0
  161.2090  202.5910  147.7500 C   0  0  0  0  0  0  0  0  0  0  0  0
  2  1  1  0  0  0  0
  2  7  1  1  0  0  0
  3  2  1  0  0  0  0
  4  1  1  0  0  0  0
  5  3  1  0  0  0  0
  5  4  1  0  0  0  0
  6  7  2  0  0  0  0
  7 12  1  0  0  0  0
  8 13  1  0  0  0  0
  9 10  2  0  0  0  0
 11 10  1  0  0  0  0
 12  8  2  0  0  0  0
 12  9  1  0  0  0  0
 13 16  1  0  0  0  0
 13 11  2  0  0  0  0
 15 20  1  0  0  0  0
 15 14  1  0  0  0  0
 16 15  1  0  0  0  0
 17 16  2  0  0  0  0
 19 20  1  0  0  0  0
 20 18  1  0  0  0  0
 21  3  1  0  0  0  0
 22 21  1  0  0  0  0
 23 24  1  6  0  0  0
 23 22  1  0  0  0  0
 25 32  1  0  0  0  0
 26 23  1  6  0  0  0
 26 27  1  0  0  0  0
 27 31  1  0  0  0  0
 28 30  1  0  0  0  0
 29 26  1  0  0  0  0
 29 33  1  0  0  0  0
 30 32  2  0  0  0  0
 31 25  2  0  0  0  0
 33 28  2  0  0  0  0
 33 31  1  0  0  0  0
M  END
>  <MODEL>
4

>  <REMARK>
 VINA RESULT:      -7.9      2.708      4.391
  Name = 
  8 active torsions:
  status: ('A' for Active; 'I' for Inactive)
    1  A    between atoms: N_4  and  C_23
    2  A    between atoms: C_7  and  C_8
    3  A    between atoms: C_8  and  C_11
    4  A    between atoms: C_10  and  C_29
    5  A    between atoms: C_11  and  C_17
    6  A    between atoms: C_17  and  N_24
    7  A    between atoms: C_22  and  C_33
    8  A    between atoms: C_27  and  C_33
                            x       y       z     vdW  Elec       q    Type
                         _______ _______ _______ _____ _____    ______ ____

>  <TORSDO>
F 8

$$$$
=
 OpenBabel11072410213D

 33 36  0  0  1  0  0  0  0  0999 V2000
  161.9240  210.6880  154.4960 C   0  0  0  0  0  2  0  0  0  0  0  0
  161.0320  210.4100  153.3260 C   0  0  2  0  0  3  0  0  0  0  0  0
  159.6920  210.7190  153.7770 N   0  0  0  0  0  0  0  0  0  0  0  0
  161.0550  211.2540  155.5120 N   0  0  0  0  0  2  0  0  0  0  0  0
  159.8530  211.5980  154.8640 N   0  0  0  0  0  2  0  0  0  0  0  0
  161.0100  208.0770  153.7270 O   0  0  0  0  0  0  0  0  0  0  0  0
  161.1420  208.9840  152.8620 C   0  0  0  0  0  0  0  0  0  0  0  0
  161.0600  207.3240  151.0000 C   0  0  0  0  0  3  0  0  0  0  0  0
  161.9600  209.5130  150.5440 C   0  0  0  0  0  3  0  0  0  0  0  0
  162.1800  209.1230  149.2230 C   0  0  0  0  0  3  0  0  0  0  0  0
  161.8470  207.8680  148.8190 N   0  0  0  0  0  0  0  0  0  0  0  0
  161.3930  208.6090  151.4490 C   0  0  0  0  0  0  0  0  0  0  0  0
  161.3000  206.9560  149.6700 C   0  0  0  0  0  0  0  0  0  0  0  0
  161.8640  204.4270  151.0780 O   0  0  0  0  0  1  0  0  0  0  0  0
  161.1180  204.4170  149.9460 N   0  0  0  0  0  0  0  0  0  0  0  0
  160.9450  205.6130  149.1610 C   0  0  0  0  0  0  0  0  0  0  0  0
  160.4720  205.5200  147.9960 O   0  0  0  0  0  0  0  0  0  0  0  0
  160.8270  202.0520  150.4810 C   0  0  0  0  0  1  0  0  0  0  0  0
  161.2250  202.7770  148.1390 C   0  0  0  0  0  1  0  0  0  0  0  0
  160.5840  203.1480  149.4620 C   0  0  0  0  0  3  0  0  0  0  0  0
  159.0430  211.4670  152.7130 C   0  0  0  0  0  2  0  0  0  0  0  0
  160.0480  212.4010  152.0610 C   0  0  0  0  0  2  0  0  0  0  0  0
  159.4060  213.7460  151.7650 C   0  0  2  0  0  3  0  0  0  0  0  0
  158.1110  213.7730  152.2880 O   0  0  0  0  0  1  0  0  0  0  0  0
  160.7210  212.6390  147.0570 C   0  0  0  0  0  3  0  0  0  0  0  0
  159.3850  214.0330  150.2620 C   0  0  1  0  0  3  0  0  0  0  0  0
  160.4920  213.2870  149.5030 C   0  0  0  0  0  2  0  0  0  0  0  0
  157.9390  212.9600  146.8170 C   0  0  0  0  0  3  0  0  0  0  0  0
  157.7490  213.6300  149.5380 S   0  0  0  0  0  0  0  0  0  0  0  0
  158.7030  212.5920  145.7010 C   0  0  0  0  0  3  0  0  0  0  0  0
  159.9450  213.0100  148.1570 C   0  0  0  0  0  0  0  0  0  0  0  0
  160.0910  212.4280  145.8220 C   0  0  0  0  0  3  0  0  0  0  0  0
  158.5790  213.1540  148.0420 C   0  0  0  0  0  0  0  0  0  0  0  0
  1  4  1  0  0  0  0
  2  7  1  1  0  0  0
  2  3  1  0  0  0  0
  2  1  1  0  0  0  0
  3  5  1  0  0  0  0
  5  4  1  0  0  0  0
  7  6  2  0  0  0  0
  8 12  1  0  0  0  0
  9 12  2  0  0  0  0
 10  9  1  0  0  0  0
 11 10  2  0  0  0  0
 11 13  1  0  0  0  0
 12  7  1  0  0  0  0
 13  8  2  0  0  0  0
 15 14  1  0  0  0  0
 16 13  1  0  0  0  0
 16 15  1  0  0  0  0
 17 16  2  0  0  0  0
 19 20  1  0  0  0  0
 20 15  1  0  0  0  0
 20 18  1  0  0  0  0
 21  3  1  0  0  0  0
 22 21  1  0  0  0  0
 23 22  1  0  0  0  0
 23 24  1  6  0  0  0
 25 31  1  0  0  0  0
 26 23  1  1  0  0  0
 27 26  1  0  0  0  0
 28 33  1  0  0  0  0
 29 26  1  0  0  0  0
 30 32  1  0  0  0  0
 30 28  2  0  0  0  0
 31 27  1  0  0  0  0
 32 25  2  0  0  0  0
 33 31  2  0  0  0  0
 33 29  1  0  0  0  0
M  END
>  <MODEL>
5

>  <REMARK>
 VINA RESULT:      -7.7      2.689      7.975
  Name = 
  8 active torsions:
  status: ('A' for Active; 'I' for Inactive)
    1  A    between atoms: N_4  and  C_23
    2  A    between atoms: C_7  and  C_8
    3  A    between atoms: C_8  and  C_11
    4  A    between atoms: C_10  and  C_29
    5  A    between atoms: C_11  and  C_17
    6  A    between atoms: C_17  and  N_24
    7  A    between atoms: C_22  and  C_33
    8  A    between atoms: C_27  and  C_33
                            x       y       z     vdW  Elec       q    Type
                         _______ _______ _______ _____ _____    ______ ____

>  <TORSDO>
F 8

$$$$
=
 OpenBabel11072410213D

 33 36  0  0  1  0  0  0  0  0999 V2000
  161.2910  207.1990  152.7870 C   0  0  0  0  0  2  0  0  0  0  0  0
  161.2850  208.2790  151.7500 C   0  0  2  0  0  3  0  0  0  0  0  0
  162.2630  207.8740  150.7630 N   0  0  0  0  0  0  0  0  0  0  0  0
  162.1860  206.1790  152.2720 N   0  0  0  0  0  2  0  0  0  0  0  0
  162.3950  206.4810  150.9120 N   0  0  0  0  0  2  0  0  0  0  0  0
  162.6030  210.2440  151.8510 O   0  0  0  0  0  0  0  0  0  0  0  0
  161.6200  209.6230  152.3360 C   0  0  0  0  0  0  0  0  0  0  0  0
  159.9450  211.2730  153.1740 C   0  0  0  0  0  3  0  0  0  0  0  0
  161.0000  209.8050  154.7670 C   0  0  0  0  0  3  0  0  0  0  0  0
  160.2570  210.4060  155.7820 C   0  0  0  0  0  3  0  0  0  0  0  0
  159.3890  211.4110  155.4860 N   0  0  0  0  0  0  0  0  0  0  0  0
  160.8480  210.2370  153.4450 C   0  0  0  0  0  0  0  0  0  0  0  0
  159.2170  211.8660  154.2130 C   0  0  0  0  0  0  0  0  0  0  0  0
  156.2910  211.5800  154.4350 O   0  0  0  0  0  1  0  0  0  0  0  0
  156.8350  212.8020  154.2130 N   0  0  0  0  0  0  0  0  0  0  0  0
  158.2450  212.9520  153.9580 C   0  0  0  0  0  0  0  0  0  0  0  0
  158.6740  214.0470  153.5050 O   0  0  0  0  0  0  0  0  0  0  0  0
  155.3710  214.2950  155.4750 C   0  0  0  0  0  1  0  0  0  0  0  0
  154.8350  213.6910  153.1260 C   0  0  0  0  0  1  0  0  0  0  0  0
  155.9530  213.9610  154.1150 C   0  0  0  0  0  3  0  0  0  0  0  0
  161.6750  208.1110  149.4540 C   0  0  0  0  0  2  0  0  0  0  0  0
  162.4340  207.3180  148.4050 C   0  0  0  0  0  2  0  0  0  0  0  0
  161.4660  206.6310  147.4570 C   0  0  2  0  0  3  0  0  0  0  0  0
  160.1790  206.6600  147.9990 O   0  0  0  0  0  1  0  0  0  0  0  0
  161.2740  201.7120  148.4010 C   0  0  0  0  0  3  0  0  0  0  0  0
  161.8960  205.1910  147.1700 C   0  0  1  0  0  3  0  0  0  0  0  0
  161.5680  204.2350  148.3260 C   0  0  0  0  0  2  0  0  0  0  0  0
  160.8440  201.7830  145.6240 C   0  0  0  0  0  3  0  0  0  0  0  0
  161.1400  204.5760  145.6160 S   0  0  0  0  0  0  0  0  0  0  0  0
  160.8220  200.5600  146.3080 C   0  0  0  0  0  3  0  0  0  0  0  0
  161.2980  202.9220  147.7020 C   0  0  0  0  0  0  0  0  0  0  0  0
  161.0320  200.5250  147.6950 C   0  0  0  0  0  3  0  0  0  0  0  0
  161.0730  202.9570  146.3430 C   0  0  0  0  0  0  0  0  0  0  0  0
  2  7  1  1  0  0  0
  2  1  1  0  0  0  0
  3  5  1  0  0  0  0
  3  2  1  0  0  0  0
  4  1  1  0  0  0  0
  5  4  1  0  0  0  0
  6  7  2  0  0  0  0
  7 12  1  0  0  0  0
  8 12  2  0  0  0  0
  8 13  1  0  0  0  0
  9 10  2  0  0  0  0
 11 10  1  0  0  0  0
 12  9  1  0  0  0  0
 13 11  2  0  0  0  0
 15 14  1  0  0  0  0
 16 13  1  0  0  0  0
 16 15  1  0  0  0  0
 17 16  2  0  0  0  0
 19 20  1  0  0  0  0
 20 15  1  0  0  0  0
 20 18  1  0  0  0  0
 21  3  1  0  0  0  0
 22 21  1  0  0  0  0
 23 24  1  1  0  0  0
 23 22  1  0  0  0  0
 26 23  1  1  0  0  0
 26 27  1  0  0  0  0
 28 30  2  0  0  0  0
 28 33  1  0  0  0  0
 29 33  1  0  0  0  0
 29 26  1  0  0  0  0
 30 32  1  0  0  0  0
 31 27  1  0  0  0  0
 31 25  1  0  0  0  0
 32 25  2  0  0  0  0
 33 31  2  0  0  0  0
M  END
>  <MODEL>
6

>  <REMARK>
 VINA RESULT:      -7.7      2.630      3.979
  Name = 
  8 active torsions:
  status: ('A' for Active; 'I' for Inactive)
    1  A    between atoms: N_4  and  C_23
    2  A    between atoms: C_7  and  C_8
    3  A    between atoms: C_8  and  C_11
    4  A    between atoms: C_10  and  C_29
    5  A    between atoms: C_11  and  C_17
    6  A    between atoms: C_17  and  N_24
    7  A    between atoms: C_22  and  C_33
    8  A    between atoms: C_27  and  C_33
                            x       y       z     vdW  Elec       q    Type
                         _______ _______ _______ _____ _____    ______ ____

>  <TORSDO>
F 8

$$$$
=
 OpenBabel11072410213D

 33 36  0  0  1  0  0  0  0  0999 V2000
  161.6790  207.9210  150.3010 C   0  0  0  0  0  2  0  0  0  0  0  0
  161.0260  207.7230  151.6340 C   0  0  2  0  0  3  0  0  0  0  0  0
  161.4380  208.8520  152.4400 N   0  0  0  0  0  0  0  0  0  0  0  0
  162.3310  209.2150  150.3840 N   0  0  0  0  0  2  0  0  0  0  0  0
  161.8070  209.8540  151.5240 N   0  0  0  0  0  2  0  0  0  0  0  0
  161.9700  206.4640  153.4030 O   0  0  0  0  0  0  0  0  0  0  0  0
  161.4260  206.4190  152.2680 C   0  0  0  0  0  0  0  0  0  0  0  0
  161.3370  204.9810  150.2300 C   0  0  0  0  0  3  0  0  0  0  0  0
  160.8680  203.9680  152.3660 C   0  0  0  0  0  3  0  0  0  0  0  0
  160.6710  202.7480  151.7200 C   0  0  0  0  0  3  0  0  0  0  0  0
  160.8050  202.6640  150.3700 N   0  0  0  0  0  0  0  0  0  0  0  0
  161.2060  205.1030  151.6200 C   0  0  0  0  0  0  0  0  0  0  0  0
  161.1250  203.7460  149.6060 C   0  0  0  0  0  0  0  0  0  0  0  0
  160.8340  205.9200  147.6360 O   0  0  0  0  0  1  0  0  0  0  0  0
  161.2560  204.6970  147.2330 N   0  0  0  0  0  0  0  0  0  0  0  0
  161.2710  203.5800  148.1430 C   0  0  0  0  0  0  0  0  0  0  0  0
  161.4180  202.4150  147.6830 O   0  0  0  0  0  0  0  0  0  0  0  0
  163.0690  204.7030  145.5960 C   0  0  0  0  0  1  0  0  0  0  0  0
  160.7850  205.4370  144.9530 C   0  0  0  0  0  1  0  0  0  0  0  0
  161.5850  204.4900  145.8260 C   0  0  0  0  0  3  0  0  0  0  0  0
  160.2610  209.3290  153.1460 C   0  0  0  0  0  2  0  0  0  0  0  0
  160.5990  209.5450  154.6110 C   0  0  0  0  0  2  0  0  0  0  0  0
  161.1670  210.9390  154.8230 C   0  0  2  0  0  3  0  0  0  0  0  0
  161.9990  210.9400  155.9450 O   0  0  0  0  0  1  0  0  0  0  0  0
  157.5420  213.8190  152.9020 C   0  0  0  0  0  3  0  0  0  0  0  0
  160.0530  211.9750  154.9780 C   0  0  1  0  0  3  0  0  0  0  0  0
  159.6590  212.6220  153.6420 C   0  0  0  0  0  2  0  0  0  0  0  0
  156.2100  212.5620  155.0340 C   0  0  0  0  0  3  0  0  0  0  0  0
  158.5750  211.2380  155.7750 S   0  0  0  0  0  0  0  0  0  0  0  0
  155.5160  213.4400  154.1910 C   0  0  0  0  0  3  0  0  0  0  0  0
  158.2200  212.9430  153.7540 C   0  0  0  0  0  0  0  0  0  0  0  0
  156.1800  214.0650  153.1240 C   0  0  0  0  0  3  0  0  0  0  0  0
  157.5630  212.3160  154.7910 C   0  0  0  0  0  0  0  0  0  0  0  0
  1  4  1  0  0  0  0
  1  2  1  0  0  0  0
  2  7  1  1  0  0  0
  2  3  1  0  0  0  0
  3 21  1  0  0  0  0
  4  5  1  0  0  0  0
  5  3  1  0  0  0  0
  7  6  2  0  0  0  0
  8 12  1  0  0  0  0
 10  9  1  0  0  0  0
 11 10  2  0  0  0  0
 12  7  1  0  0  0  0
 12  9  2  0  0  0  0
 13  8  2  0  0  0  0
 13 11  1  0  0  0  0
 15 14  1  0  0  0  0
 15 16  1  0  0  0  0
 16 13  1  0  0  0  0
 17 16  2  0  0  0  0
 18 20  1  0  0  0  0
 19 20  1  0  0  0  0
 20 15  1  0  0  0  0
 21 22  1  0  0  0  0
 22 23  1  0  0  0  0
 23 24  1  1  0  0  0
 25 32  2  0  0  0  0
 25 31  1  0  0  0  0
 26 23  1  6  0  0  0
 26 29  1  0  0  0  0
 27 31  1  0  0  0  0
 27 26  1  0  0  0  0
 30 28  2  0  0  0  0
 31 33  2  0  0  0  0
 32 30  1  0  0  0  0
 33 28  1  0  0  0  0
 33 29  1  0  0  0  0
M  END
>  <MODEL>
7

>  <REMARK>
 VINA RESULT:      -7.7      3.474      8.822
  Name = 
  8 active torsions:
  status: ('A' for Active; 'I' for Inactive)
    1  A    between atoms: N_4  and  C_23
    2  A    between atoms: C_7  and  C_8
    3  A    between atoms: C_8  and  C_11
    4  A    between atoms: C_10  and  C_29
    5  A    between atoms: C_11  and  C_17
    6  A    between atoms: C_17  and  N_24
    7  A    between atoms: C_22  and  C_33
    8  A    between atoms: C_27  and  C_33
                            x       y       z     vdW  Elec       q    Type
                         _______ _______ _______ _____ _____    ______ ____

>  <TORSDO>
F 8

$$$$
=
 OpenBabel11072410213D

 33 36  0  0  1  0  0  0  0  0999 V2000
  161.6840  210.3590  155.8250 C   0  0  0  0  0  2  0  0  0  0  0  0
  160.6820  210.1630  154.7290 C   0  0  2  0  0  3  0  0  0  0  0  0
  159.3870  210.3150  155.3560 N   0  0  0  0  0  0  0  0  0  0  0  0
  160.9050  210.7300  156.9920 N   0  0  0  0  0  2  0  0  0  0  0  0
  159.6180  211.0620  156.5250 N   0  0  0  0  0  2  0  0  0  0  0  0
  160.6010  207.7980  154.7800 O   0  0  0  0  0  0  0  0  0  0  0  0
  160.8220  208.8170  154.0740 C   0  0  0  0  0  0  0  0  0  0  0  0
  160.8450  207.4730  151.9710 C   0  0  0  0  0  3  0  0  0  0  0  0
  161.9150  209.6330  151.9600 C   0  0  0  0  0  3  0  0  0  0  0  0
  162.2530  209.4350  150.6220 C   0  0  0  0  0  3  0  0  0  0  0  0
  161.8920  208.2850  149.9920 N   0  0  0  0  0  0  0  0  0  0  0  0
  161.2020  208.6450  152.6500 C   0  0  0  0  0  0  0  0  0  0  0  0
  161.2050  207.2960  150.6290 C   0  0  0  0  0  0  0  0  0  0  0  0
  162.1570  204.5790  151.2650 O   0  0  0  0  0  1  0  0  0  0  0  0
  161.2100  204.7560  150.3100 N   0  0  0  0  0  0  0  0  0  0  0  0
  160.8300  206.0770  149.8790 C   0  0  0  0  0  0  0  0  0  0  0  0
  160.1480  206.2070  148.8260 O   0  0  0  0  0  0  0  0  0  0  0  0
  160.8260  202.3510  150.4990 C   0  0  0  0  0  1  0  0  0  0  0  0
  161.3470  203.3780  148.2980 C   0  0  0  0  0  1  0  0  0  0  0  0
  160.6600  203.5860  149.6330 C   0  0  0  0  0  3  0  0  0  0  0  0
  158.5770  211.1390  154.4730 C   0  0  0  0  0  2  0  0  0  0  0  0
  159.4300  212.2560  153.8970 C   0  0  0  0  0  2  0  0  0  0  0  0
  158.7430  213.5990  154.0870 C   0  0  2  0  0  3  0  0  0  0  0  0
  157.5760  213.4270  154.8340 O   0  0  0  0  0  1  0  0  0  0  0  0
  158.9620  213.7010  149.0800 C   0  0  0  0  0  3  0  0  0  0  0  0
  158.4290  214.2590  152.7430 C   0  0  1  0  0  3  0  0  0  0  0  0
  159.2960  213.7110  151.6000 C   0  0  0  0  0  2  0  0  0  0  0  0
  156.2220  214.1200  149.5460 C   0  0  0  0  0  3  0  0  0  0  0  0
  156.6530  214.0800  152.3210 S   0  0  0  0  0  0  0  0  0  0  0  0
  156.7070  214.0340  148.2340 C   0  0  0  0  0  3  0  0  0  0  0  0
  158.4620  213.7940  150.3820 C   0  0  0  0  0  0  0  0  0  0  0  0
  158.0740  213.8210  148.0020 C   0  0  0  0  0  3  0  0  0  0  0  0
  157.1160  213.9850  150.6100 C   0  0  0  0  0  0  0  0  0  0  0  0
  1  4  1  0  0  0  0
  2  7  1  1  0  0  0
  2  3  1  0  0  0  0
  2  1  1  0  0  0  0
  3  5  1  0  0  0  0
  5  4  1  0  0  0  0
  7  6  2  0  0  0  0
  8 12  1  0  0  0  0
  9 12  2  0  0  0  0
 10  9  1  0  0  0  0
 11 10  2  0  0  0  0
 11 13  1  0  0  0  0
 12  7  1  0  0  0  0
 13  8  2  0  0  0  0
 15 14  1  0  0  0  0
 16 15  1  0  0  0  0
 16 13  1  0  0  0  0
 17 16  2  0  0  0  0
 19 20  1  0  0  0  0
 20 15  1  0  0  0  0
 20 18  1  0  0  0  0
 21  3  1  0  0  0  0
 22 23  1  0  0  0  0
 22 21  1  0  0  0  0
 23 24  1  6  0  0  0
 25 31  1  0  0  0  0
 26 23  1  1  0  0  0
 27 26  1  0  0  0  0
 28 33  1  0  0  0  0
 29 26  1  0  0  0  0
 30 28  2  0  0  0  0
 31 33  2  0  0  0  0
 31 27  1  0  0  0  0
 32 30  1  0  0  0  0
 32 25  2  0  0  0  0
 33 29  1  0  0  0  0
M  END
>  <MODEL>
8

>  <REMARK>
 VINA RESULT:      -7.5      3.216      8.437
  Name = 
  8 active torsions:
  status: ('A' for Active; 'I' for Inactive)
    1  A    between atoms: N_4  and  C_23
    2  A    between atoms: C_7  and  C_8
    3  A    between atoms: C_8  and  C_11
    4  A    between atoms: C_10  and  C_29
    5  A    between atoms: C_11  and  C_17
    6  A    between atoms: C_17  and  N_24
    7  A    between atoms: C_22  and  C_33
    8  A    between atoms: C_27  and  C_33
                            x       y       z     vdW  Elec       q    Type
                         _______ _______ _______ _____ _____    ______ ____

>  <TORSDO>
F 8

$$$$
=
 OpenBabel11072410213D

 33 36  0  0  1  0  0  0  0  0999 V2000
  161.9590  210.2660  155.0080 C   0  0  0  0  0  2  0  0  0  0  0  0
  161.0500  209.6940  153.9640 C   0  0  2  0  0  3  0  0  0  0  0  0
  159.8570  210.5120  153.9980 N   0  0  0  0  0  0  0  0  0  0  0  0
  161.2810  211.4530  155.4950 N   0  0  0  0  0  2  0  0  0  0  0  0
  160.2530  211.7330  154.5740 N   0  0  0  0  0  2  0  0  0  0  0  0
  160.1970  207.9580  155.3310 O   0  0  0  0  0  0  0  0  0  0  0  0
  160.7320  208.2480  154.2270 C   0  0  0  0  0  0  0  0  0  0  0  0
  161.2770  207.4850  151.9140 C   0  0  0  0  0  3  0  0  0  0  0  0
  161.0370  205.8210  153.6410 C   0  0  0  0  0  3  0  0  0  0  0  0
  161.3110  204.8320  152.6960 C   0  0  0  0  0  3  0  0  0  0  0  0
  161.5570  205.1760  151.4030 N   0  0  0  0  0  0  0  0  0  0  0  0
  161.0180  207.1650  153.2530 C   0  0  0  0  0  0  0  0  0  0  0  0
  161.5400  206.4720  150.9840 C   0  0  0  0  0  0  0  0  0  0  0  0
  161.2920  204.5420  148.7690 O   0  0  0  0  0  1  0  0  0  0  0  0
  161.5660  205.8430  148.5030 N   0  0  0  0  0  0  0  0  0  0  0  0
  161.8330  206.7780  149.5660 C   0  0  0  0  0  0  0  0  0  0  0  0
  162.3310  207.9020  149.2850 O   0  0  0  0  0  0  0  0  0  0  0  0
  160.3620  206.2080  146.4090 C   0  0  0  0  0  1  0  0  0  0  0  0
  162.7060  205.3860  146.3910 C   0  0  0  0  0  1  0  0  0  0  0  0
  161.7040  206.2660  147.1130 C   0  0  0  0  0  3  0  0  0  0  0  0
  159.4870  210.7890  152.6190 C   0  0  0  0  0  2  0  0  0  0  0  0
  160.3750  211.8890  152.0650 C   0  0  0  0  0  2  0  0  0  0  0  0
  159.5360  213.0800  151.6320 C   0  0  2  0  0  3  0  0  0  0  0  0
  158.2010  212.6900  151.5020 O   0  0  0  0  0  1  0  0  0  0  0  0
  161.7490  212.6210  147.1590 C   0  0  0  0  0  3  0  0  0  0  0  0
  160.0530  213.6780  150.3230 C   0  0  1  0  0  3  0  0  0  0  0  0
  161.0310  212.7460  149.5930 C   0  0  0  0  0  2  0  0  0  0  0  0
  159.4210  214.0540  146.5050 C   0  0  0  0  0  3  0  0  0  0  0  0
  158.6640  214.1220  149.2100 S   0  0  0  0  0  0  0  0  0  0  0  0
  160.3180  213.6730  145.4980 C   0  0  0  0  0  3  0  0  0  0  0  0
  160.8460  213.0120  148.1510 C   0  0  0  0  0  0  0  0  0  0  0  0
  161.4780  212.9540  145.8240 C   0  0  0  0  0  3  0  0  0  0  0  0
  159.6970  213.7030  147.8280 C   0  0  0  0  0  0  0  0  0  0  0  0
  1  4  1  0  0  0  0
  2  3  1  0  0  0  0
  2  7  1  1  0  0  0
  2  1  1  0  0  0  0
  3  5  1  0  0  0  0
  5  4  1  0  0  0  0
  7  6  2  0  0  0  0
  8 12  1  0  0  0  0
 10  9  1  0  0  0  0
 11 10  2  0  0  0  0
 12  9  2  0  0  0  0
 12  7  1  0  0  0  0
 13 11  1  0  0  0  0
 13  8  2  0  0  0  0
 15 14  1  0  0  0  0
 15 16  1  0  0  0  0
 16 13  1  0  0  0  0
 17 16  2  0  0  0  0
 18 20  1  0  0  0  0
 19 20  1  0  0  0  0
 20 15  1  0  0  0  0
 21  3  1  0  0  0  0
 22 21  1  0  0  0  0
 23 24  1  6  0  0  0
 23 22  1  0  0  0  0
 25 31  1  0  0  0  0
 26 23  1  1  0  0  0
 27 26  1  0  0  0  0
 28 33  1  0  0  0  0
 29 26  1  0  0  0  0
 30 32  1  0  0  0  0
 30 28  2  0  0  0  0
 31 27  1  0  0  0  0
 32 25  2  0  0  0  0
 33 31  2  0  0  0  0
 33 29  1  0  0  0  0
M  END
>  <MODEL>
9

>  <REMARK>
 VINA RESULT:      -7.5      3.091      7.595
  Name = 
  8 active torsions:
  status: ('A' for Active; 'I' for Inactive)
    1  A    between atoms: N_4  and  C_23
    2  A    between atoms: C_7  and  C_8
    3  A    between atoms: C_8  and  C_11
    4  A    between atoms: C_10  and  C_29
    5  A    between atoms: C_11  and  C_17
    6  A    between atoms: C_17  and  N_24
    7  A    between atoms: C_22  and  C_33
    8  A    between atoms: C_27  and  C_33
                            x       y       z     vdW  Elec       q    Type
                         _______ _______ _______ _____ _____    ______ ____

>  <TORSDO>
F 8

$$$$
