=
 OpenBabel11072410283D

 32 35  0  0  1  0  0  0  0  0999 V2000
  161.1320  213.2640  148.5940 N   0  0  0  0  0  0  0  0  0  0  0  0
  160.0550  211.4720  153.7420 C   0  0  0  0  0  0  0  0  0  0  0  0
  159.3610  211.2570  155.0840 C   0  0  1  0  0  3  0  0  0  0  0  0
  162.2180  210.3410  154.4580 C   0  0  0  0  0  2  0  0  0  0  0  0
  161.6270  210.5220  152.0510 C   0  0  0  0  0  0  0  0  0  0  0  0
  160.2860  211.6130  156.2360 C   0  0  0  0  0  2  0  0  0  0  0  0
  160.2570  212.4580  151.5050 C   0  0  0  0  0  0  0  0  0  0  0  0
  161.0760  210.3900  156.7050 C   0  0  0  0  0  2  0  0  0  0  0  0
  161.2430  210.7090  153.4260 N   0  0  0  0  0  0  0  0  0  0  0  0
  160.5090  213.9810  149.4740 C   0  0  0  0  0  3  0  0  0  0  0  0
  158.3290  213.1610  153.0730 C   0  0  0  0  0  2  0  0  0  0  0  0
  161.5210  211.8900  148.6340 C   0  0  0  0  0  3  0  0  0  0  0  0
  158.0270  213.3220  154.5560 C   0  0  2  0  0  3  0  0  0  0  0  0
  159.5840  212.3520  152.8280 C   0  0  0  0  0  0  0  0  0  0  0  0
  160.0110  213.5570  150.7860 C   0  0  0  0  0  3  0  0  0  0  0  0
  161.1850  211.3710  151.0980 C   0  0  0  0  0  0  0  0  0  0  0  0
  161.5510  211.0950  149.6970 C   0  0  0  0  0  3  0  0  0  0  0  0
  161.5850  209.5080  155.5630 C   0  0  0  0  0  2  0  0  0  0  0  0
  158.0130  211.9590  155.2530 C   0  0  1  0  0  3  0  0  0  0  0  0
  156.7790  214.1130  154.7960 C   0  0  0  0  0  0  0  0  0  0  0  0
  156.4270  214.4530  156.0950 O   0  0  0  0  0  1  0  0  0  0  0  0
  156.0300  214.4450  153.8400 O   0  0  0  0  0  0  0  0  0  0  0  0
  156.8890  211.0650  154.8150 C   0  0  0  0  0  0  0  0  0  0  0  0
  155.7690  210.8830  155.6190 O   0  0  0  0  0  1  0  0  0  0  0  0
  156.9670  210.4640  153.7130 O   0  0  0  0  0  0  0  0  0  0  0  0
  162.5010  209.3450  151.7010 C   0  0  0  0  0  2  0  0  0  0  0  0
  160.8590  207.8620  150.1900 O   0  0  0  0  0  0  0  0  0  0  0  0
  161.5220  207.8630  151.5380 S   0  0  0  0  0  0  0  0  0  0  0  0
  160.4670  207.8380  152.6090 O   0  0  0  0  0  0  0  0  0  0  0  0
  162.5710  206.4250  151.6830 C   0  0  0  0  0  2  0  0  0  0  0  0
  161.8960  205.3350  152.4960 C   0  0  0  0  0  2  0  0  0  0  0  0
  161.4110  204.2240  151.5860 C   0  0  0  0  0  1  0  0  0  0  0  0
  1 12  1  0  0  0  0
  1 10  2  0  0  0  0
  2  3  1  0  0  0  0
  3 19  1  0  0  0  0
  3  6  1  1  0  0  0
  4 18  1  0  0  0  0
  5  9  1  0  0  0  0
  6  8  1  0  0  0  0
  7 14  1  0  0  0  0
  9  2  1  0  0  0  0
  9  4  1  0  0  0  0
 10 15  1  0  0  0  0
 11 13  1  0  0  0  0
 12 17  2  0  0  0  0
 13 20  1  6  0  0  0
 13 19  1  0  0  0  0
 14 11  1  0  0  0  0
 14  2  2  0  0  0  0
 15  7  2  0  0  0  0
 16  7  1  0  0  0  0
 16  5  2  0  0  0  0
 17 16  1  0  0  0  0
 18  8  1  0  0  0  0
 19 23  1  6  0  0  0
 20 21  1  0  0  0  0
 22 20  2  0  0  0  0
 23 24  1  0  0  0  0
 25 23  2  0  0  0  0
 26  5  1  0  0  0  0
 27 28  2  0  0  0  0
 28 30  1  0  0  0  0
 28 26  1  0  0  0  0
 28 29  2  0  0  0  0
 30 31  1  0  0  0  0
 32 31  1  0  0  0  0
M  END
>  <MODEL>
1

>  <REMARK>
 VINA RESULT:      -4.3      0.000      0.000
  Name = 
  6 active torsions:
  status: ('A' for Active; 'I' for Inactive)
    1  A    between atoms: C_1  and  C_22
    2  A    between atoms: C_5  and  C_10
    3  A    between atoms: C_5  and  S_26
    4  A    between atoms: C_6  and  C_32
    5  A    between atoms: C_17  and  C_18
    6  A    between atoms: C_18  and  S_26
                            x       y       z     vdW  Elec       q    Type
                         _______ _______ _______ _____ _____    ______ ____

>  <TORSDO>
F 6

$$$$
=
 OpenBabel11072410283D

 32 35  0  0  1  0  0  0  0  0999 V2000
  162.1380  209.6380  148.9600 N   0  0  0  0  0  0  0  0  0  0  0  0
  160.2850  209.2290  154.1810 C   0  0  0  0  0  0  0  0  0  0  0  0
  159.6750  209.5890  155.5340 C   0  0  1  0  0  3  0  0  0  0  0  0
  161.0940  206.9390  154.9370 C   0  0  0  0  0  2  0  0  0  0  0  0
  160.7150  207.4100  152.5270 C   0  0  0  0  0  0  0  0  0  0  0  0
  160.6260  209.2410  156.6670 C   0  0  0  0  0  2  0  0  0  0  0  0
  161.0400  209.7400  151.9050 C   0  0  0  0  0  0  0  0  0  0  0  0
  160.3710  207.8250  157.1830 C   0  0  0  0  0  2  0  0  0  0  0  0
  160.6090  207.8490  153.8940 N   0  0  0  0  0  0  0  0  0  0  0  0
  162.2090  210.6120  149.8110 C   0  0  0  0  0  3  0  0  0  0  0  0
  160.1770  211.6220  153.4480 C   0  0  0  0  0  2  0  0  0  0  0  0
  161.4740  208.3780  149.0560 C   0  0  0  0  0  3  0  0  0  0  0  0
  160.1160  211.9890  154.9240 C   0  0  2  0  0  3  0  0  0  0  0  0
  160.5210  210.1650  153.2330 C   0  0  0  0  0  0  0  0  0  0  0  0
  161.5960  210.6850  151.1410 C   0  0  0  0  0  3  0  0  0  0  0  0
  160.9500  208.3030  151.5410 C   0  0  0  0  0  0  0  0  0  0  0  0
  160.9810  207.8110  150.1510 C   0  0  0  0  0  3  0  0  0  0  0  0
  160.0960  206.8040  156.0780 C   0  0  0  0  0  2  0  0  0  0  0  0
  159.1890  211.0320  155.6770 C   0  0  1  0  0  3  0  0  0  0  0  0
  159.7650  213.4280  155.1360 C   0  0  0  0  0  0  0  0  0  0  0  0
  159.1760  214.1460  154.1030 O   0  0  0  0  0  0  0  0  0  0  0  0
  160.0250  214.0040  156.2250 O   0  0  0  0  0  1  0  0  0  0  0  0
  157.7450  211.1480  155.2820 C   0  0  0  0  0  0  0  0  0  0  0  0
  157.3840  211.3450  153.9540 O   0  0  0  0  0  0  0  0  0  0  0  0
  156.8520  211.0780  156.1650 O   0  0  0  0  0  1  0  0  0  0  0  0
  160.5260  205.9460  152.2230 C   0  0  0  0  0  2  0  0  0  0  0  0
  162.2520  203.8960  152.1940 O   0  0  0  0  0  0  0  0  0  0  0  0
  162.0290  205.2420  151.5660 S   0  0  0  0  0  0  0  0  0  0  0  0
  163.1880  206.1410  151.8950 O   0  0  0  0  0  0  0  0  0  0  0  0
  161.8860  205.0550  149.7960 C   0  0  0  0  0  2  0  0  0  0  0  0
  161.0580  203.8340  149.4400 C   0  0  0  0  0  2  0  0  0  0  0  0
  161.3750  203.3770  148.0290 C   0  0  0  0  0  1  0  0  0  0  0  0
  1 12  1  0  0  0  0
  1 10  2  0  0  0  0
  2  3  1  0  0  0  0
  3 19  1  0  0  0  0
  3  6  1  1  0  0  0
  4 18  1  0  0  0  0
  5  9  1  0  0  0  0
  6  8  1  0  0  0  0
  7 14  1  0  0  0  0
  9  2  1  0  0  0  0
  9  4  1  0  0  0  0
 10 15  1  0  0  0  0
 11 13  1  0  0  0  0
 12 17  2  0  0  0  0
 13 20  1  6  0  0  0
 13 19  1  0  0  0  0
 14 11  1  0  0  0  0
 14  2  2  0  0  0  0
 15  7  2  0  0  0  0
 16  7  1  0  0  0  0
 16  5  2  0  0  0  0
 17 16  1  0  0  0  0
 18  8  1  0  0  0  0
 19 23  1  6  0  0  0
 20 22  1  0  0  0  0
 21 20  2  0  0  0  0
 23 25  1  0  0  0  0
 24 23  2  0  0  0  0
 26  5  1  0  0  0  0
 28 29  2  0  0  0  0
 28 27  2  0  0  0  0
 28 26  1  0  0  0  0
 30 28  1  0  0  0  0
 31 30  1  0  0  0  0
 32 31  1  0  0  0  0
M  END
>  <MODEL>
2

>  <REMARK>
 VINA RESULT:      -4.2      2.346      3.105
  Name = 
  6 active torsions:
  status: ('A' for Active; 'I' for Inactive)
    1  A    between atoms: C_1  and  C_22
    2  A    between atoms: C_5  and  C_10
    3  A    between atoms: C_5  and  S_26
    4  A    between atoms: C_6  and  C_32
    5  A    between atoms: C_17  and  C_18
    6  A    between atoms: C_18  and  S_26
                            x       y       z     vdW  Elec       q    Type
                         _______ _______ _______ _____ _____    ______ ____

>  <TORSDO>
F 6

$$$$
=
 OpenBabel11072410283D

 32 35  0  0  1  0  0  0  0  0999 V2000
  160.9610  203.2030  152.8060 N   0  0  0  0  0  0  0  0  0  0  0  0
  161.2440  203.8920  147.3000 C   0  0  0  0  0  0  0  0  0  0  0  0
  161.2060  203.6050  145.8020 C   0  0  1  0  0  3  0  0  0  0  0  0
  162.2390  206.2180  147.0280 C   0  0  0  0  0  2  0  0  0  0  0  0
  160.9730  205.6210  149.0820 C   0  0  0  0  0  0  0  0  0  0  0  0
  162.5120  204.0110  145.1390 C   0  0  0  0  0  2  0  0  0  0  0  0
  161.0780  203.2600  149.6640 C   0  0  0  0  0  0  0  0  0  0  0  0
  162.4480  205.4530  144.6350 C   0  0  0  0  0  2  0  0  0  0  0  0
  161.4080  205.2550  147.7580 N   0  0  0  0  0  0  0  0  0  0  0  0
  161.3700  202.2760  152.0000 C   0  0  0  0  0  3  0  0  0  0  0  0
  160.9070  201.4640  147.8170 C   0  0  0  0  0  2  0  0  0  0  0  0
  160.3620  204.4690  152.5260 C   0  0  0  0  0  3  0  0  0  0  0  0
  161.4230  201.1760  146.4140 C   0  0  2  0  0  3  0  0  0  0  0  0
  161.1150  202.9070  148.2190 C   0  0  0  0  0  0  0  0  0  0  0  0
  161.3160  202.2750  150.5350 C   0  0  0  0  0  3  0  0  0  0  0  0
  160.8290  204.6760  150.0370 C   0  0  0  0  0  0  0  0  0  0  0  0
  160.3160  205.0940  151.3540 C   0  0  0  0  0  3  0  0  0  0  0  0
  161.7520  206.4150  145.6000 C   0  0  0  0  0  2  0  0  0  0  0  0
  160.8380  202.1730  145.4110 C   0  0  1  0  0  3  0  0  0  0  0  0
  161.2060  199.7510  146.0120 C   0  0  0  0  0  0  0  0  0  0  0  0
  160.5510  199.4690  144.8210 O   0  0  0  0  0  0  0  0  0  0  0  0
  161.5820  198.8060  146.7560 O   0  0  0  0  0  1  0  0  0  0  0  0
  159.3560  202.0400  145.2160 C   0  0  0  0  0  0  0  0  0  0  0  0
  158.5710  201.3720  146.1490 O   0  0  0  0  0  1  0  0  0  0  0  0
  158.8180  202.5290  144.1880 O   0  0  0  0  0  0  0  0  0  0  0  0
  160.6560  207.0670  149.3620 C   0  0  0  0  0  2  0  0  0  0  0  0
  162.7210  208.6570  148.7370 O   0  0  0  0  0  0  0  0  0  0  0  0
  162.1160  207.9350  149.9080 S   0  0  0  0  0  0  0  0  0  0  0  0
  163.1120  206.9490  150.4510 O   0  0  0  0  0  0  0  0  0  0  0  0
  161.6790  209.1190  151.1720 C   0  0  0  0  0  2  0  0  0  0  0  0
  160.5960  208.5720  152.0830 C   0  0  0  0  0  2  0  0  0  0  0  0
  161.2060  208.0460  153.3680 C   0  0  0  0  0  1  0  0  0  0  0  0
  2  9  1  0  0  0  0
  2 14  2  0  0  0  0
  3  6  1  1  0  0  0
  3  2  1  0  0  0  0
  4  9  1  0  0  0  0
  5 26  1  0  0  0  0
  5 16  2  0  0  0  0
  7 16  1  0  0  0  0
  7 15  2  0  0  0  0
  8  6  1  0  0  0  0
  8 18  1  0  0  0  0
  9  5  1  0  0  0  0
 10  1  2  0  0  0  0
 11 14  1  0  0  0  0
 12  1  1  0  0  0  0
 13 20  1  6  0  0  0
 13 11  1  0  0  0  0
 14  7  1  0  0  0  0
 15 10  1  0  0  0  0
 16 17  1  0  0  0  0
 17 12  2  0  0  0  0
 18  4  1  0  0  0  0
 19 23  1  1  0  0  0
 19  3  1  0  0  0  0
 19 13  1  0  0  0  0
 20 22  1  0  0  0  0
 21 20  2  0  0  0  0
 23 24  1  0  0  0  0
 25 23  2  0  0  0  0
 26 28  1  0  0  0  0
 27 28  2  0  0  0  0
 28 29  2  0  0  0  0
 28 30  1  0  0  0  0
 30 31  1  0  0  0  0
 31 32  1  0  0  0  0
M  END
>  <MODEL>
3

>  <REMARK>
 VINA RESULT:      -3.2      5.391     10.936
  Name = 
  6 active torsions:
  status: ('A' for Active; 'I' for Inactive)
    1  A    between atoms: C_1  and  C_22
    2  A    between atoms: C_5  and  C_10
    3  A    between atoms: C_5  and  S_26
    4  A    between atoms: C_6  and  C_32
    5  A    between atoms: C_17  and  C_18
    6  A    between atoms: C_18  and  S_26
                            x       y       z     vdW  Elec       q    Type
                         _______ _______ _______ _____ _____    ______ ____

>  <TORSDO>
F 6

$$$$
=
 OpenBabel11072410283D

 32 35  0  0  1  0  0  0  0  0999 V2000
  161.6780  211.4580  149.1490 N   0  0  0  0  0  0  0  0  0  0  0  0
  161.5220  205.9110  148.8770 C   0  0  0  0  0  0  0  0  0  0  0  0
  161.5260  204.4880  148.3250 C   0  0  1  0  0  3  0  0  0  0  0  0
  160.8670  205.2040  151.2310 C   0  0  0  0  0  2  0  0  0  0  0  0
  162.0260  207.3680  150.8410 C   0  0  0  0  0  0  0  0  0  0  0  0
  160.2930  203.7260  148.7820 C   0  0  0  0  0  2  0  0  0  0  0  0
  161.5860  208.3530  148.6600 C   0  0  0  0  0  0  0  0  0  0  0  0
  160.5630  202.9780  150.0890 C   0  0  0  0  0  2  0  0  0  0  0  0
  161.5500  206.1170  150.3080 N   0  0  0  0  0  0  0  0  0  0  0  0
  161.1460  210.8150  148.1580 C   0  0  0  0  0  3  0  0  0  0  0  0
  161.5090  206.8560  146.5570 C   0  0  0  0  0  2  0  0  0  0  0  0
  162.4520  210.9770  150.2490 C   0  0  0  0  0  3  0  0  0  0  0  0
  160.9640  205.5110  146.0980 C   0  0  2  0  0  3  0  0  0  0  0  0
  161.5050  206.9920  148.0630 C   0  0  0  0  0  0  0  0  0  0  0  0
  161.2060  209.3760  147.8890 C   0  0  0  0  0  3  0  0  0  0  0  0
  162.0310  208.4780  150.0720 C   0  0  0  0  0  0  0  0  0  0  0  0
  162.5910  209.7160  150.6420 C   0  0  0  0  0  3  0  0  0  0  0  0
  161.3830  203.7780  151.1010 C   0  0  0  0  0  2  0  0  0  0  0  0
  161.6890  204.3660  146.8090 C   0  0  1  0  0  3  0  0  0  0  0  0
  160.9790  205.3740  144.6070 C   0  0  0  0  0  0  0  0  0  0  0  0
  160.3340  204.2970  144.0140 O   0  0  0  0  0  1  0  0  0  0  0  0
  161.5960  206.2040  143.8880 O   0  0  0  0  0  0  0  0  0  0  0  0
  163.1390  204.2420  146.4390 C   0  0  0  0  0  0  0  0  0  0  0  0
  163.5220  203.6140  145.2600 O   0  0  0  0  0  0  0  0  0  0  0  0
  164.0180  204.7030  147.2120 O   0  0  0  0  0  1  0  0  0  0  0  0
  162.5430  207.3980  152.2560 C   0  0  0  0  0  2  0  0  0  0  0  0
  160.0990  208.4520  152.5650 O   0  0  0  0  0  0  0  0  0  0  0  0
  161.3020  208.0420  153.3650 S   0  0  0  0  0  0  0  0  0  0  0  0
  161.8500  209.2410  154.0870 O   0  0  0  0  0  0  0  0  0  0  0  0
  160.8310  206.7850  154.5420 C   0  0  0  0  0  2  0  0  0  0  0  0
  159.8540  207.3330  155.5660 C   0  0  0  0  0  2  0  0  0  0  0  0
  160.4830  207.3290  156.9460 C   0  0  0  0  0  1  0  0  0  0  0  0
  1 12  1  0  0  0  0
  2  9  1  0  0  0  0
  3  6  1  6  0  0  0
  3  2  1  0  0  0  0
  5 26  1  0  0  0  0
  6  8  1  0  0  0  0
  7 16  1  0  0  0  0
  8 18  1  0  0  0  0
  9  5  1  0  0  0  0
  9  4  1  0  0  0  0
 10  1  2  0  0  0  0
 11 14  1  0  0  0  0
 12 17  2  0  0  0  0
 13 20  1  6  0  0  0
 13 11  1  0  0  0  0
 13 19  1  0  0  0  0
 14  7  1  0  0  0  0
 14  2  2  0  0  0  0
 15 10  1  0  0  0  0
 15  7  2  0  0  0  0
 16 17  1  0  0  0  0
 16  5  2  0  0  0  0
 18  4  1  0  0  0  0
 19 23  1  1  0  0  0
 19  3  1  0  0  0  0
 21 20  1  0  0  0  0
 22 20  2  0  0  0  0
 23 25  1  0  0  0  0
 24 23  2  0  0  0  0
 26 28  1  0  0  0  0
 27 28  2  0  0  0  0
 28 29  2  0  0  0  0
 28 30  1  0  0  0  0
 30 31  1  0  0  0  0
 31 32  1  0  0  0  0
M  END
>  <MODEL>
4

>  <REMARK>
 VINA RESULT:      -3.0      4.032      8.427
  Name = 
  6 active torsions:
  status: ('A' for Active; 'I' for Inactive)
    1  A    between atoms: C_1  and  C_22
    2  A    between atoms: C_5  and  C_10
    3  A    between atoms: C_5  and  S_26
    4  A    between atoms: C_6  and  C_32
    5  A    between atoms: C_17  and  C_18
    6  A    between atoms: C_18  and  S_26
                            x       y       z     vdW  Elec       q    Type
                         _______ _______ _______ _____ _____    ______ ____

>  <TORSDO>
F 6

$$$$
=
 OpenBabel11072410283D

 32 35  0  0  1  0  0  0  0  0999 V2000
  161.6910  211.4480  149.1610 N   0  0  0  0  0  0  0  0  0  0  0  0
  161.4990  205.9040  148.8710 C   0  0  0  0  0  0  0  0  0  0  0  0
  161.4930  204.4820  148.3150 C   0  0  1  0  0  3  0  0  0  0  0  0
  160.8370  205.1930  151.2230 C   0  0  0  0  0  2  0  0  0  0  0  0
  162.0100  207.3510  150.8410 C   0  0  0  0  0  0  0  0  0  0  0  0
  160.2550  203.7270  148.7690 C   0  0  0  0  0  2  0  0  0  0  0  0
  161.5790  208.3460  148.6620 C   0  0  0  0  0  0  0  0  0  0  0  0
  160.5190  202.9730  150.0730 C   0  0  0  0  0  2  0  0  0  0  0  0
  161.5270  206.1050  150.3040 N   0  0  0  0  0  0  0  0  0  0  0  0
  161.1550  210.8130  148.1680 C   0  0  0  0  0  3  0  0  0  0  0  0
  161.4940  206.8560  146.5540 C   0  0  0  0  0  2  0  0  0  0  0  0
  162.4610  210.9590  150.2600 C   0  0  0  0  0  3  0  0  0  0  0  0
  160.9400  205.5160  146.0900 C   0  0  2  0  0  3  0  0  0  0  0  0
  161.4900  206.9880  148.0610 C   0  0  0  0  0  0  0  0  0  0  0  0
  161.2070  209.3740  147.8940 C   0  0  0  0  0  3  0  0  0  0  0  0
  162.0230  208.4630  150.0750 C   0  0  0  0  0  0  0  0  0  0  0  0
  162.5910  209.6960  150.6500 C   0  0  0  0  0  3  0  0  0  0  0  0
  161.3440  203.7650  151.0890 C   0  0  0  0  0  2  0  0  0  0  0  0
  161.6570  204.3640  146.7990 C   0  0  1  0  0  3  0  0  0  0  0  0
  160.9560  205.3830  144.6000 C   0  0  0  0  0  0  0  0  0  0  0  0
  160.2910  204.3210  144.0020 O   0  0  0  0  0  1  0  0  0  0  0  0
  161.5900  206.2030  143.8840 O   0  0  0  0  0  0  0  0  0  0  0  0
  163.1070  204.2320  146.4300 C   0  0  0  0  0  0  0  0  0  0  0  0
  163.4880  203.5840  145.2610 O   0  0  0  0  0  0  0  0  0  0  0  0
  163.9870  204.7040  147.1940 O   0  0  0  0  0  1  0  0  0  0  0  0
  162.5270  207.3740  152.2560 C   0  0  0  0  0  2  0  0  0  0  0  0
  160.8310  206.8210  154.2560 O   0  0  0  0  0  0  0  0  0  0  0  0
  161.2650  207.9570  153.3750 S   0  0  0  0  0  0  0  0  0  0  0  0
  160.0850  208.4520  152.5860 O   0  0  0  0  0  0  0  0  0  0  0  0
  161.9170  209.2760  154.3870 C   0  0  0  0  0  2  0  0  0  0  0  0
  161.3570  210.6210  153.9610 C   0  0  0  0  0  2  0  0  0  0  0  0
  160.6020  211.2640  155.1070 C   0  0  0  0  0  1  0  0  0  0  0  0
  1 12  1  0  0  0  0
  2  9  1  0  0  0  0
  3  6  1  6  0  0  0
  3  2  1  0  0  0  0
  5 26  1  0  0  0  0
  6  8  1  0  0  0  0
  7 16  1  0  0  0  0
  8 18  1  0  0  0  0
  9  5  1  0  0  0  0
  9  4  1  0  0  0  0
 10  1  2  0  0  0  0
 11 14  1  0  0  0  0
 12 17  2  0  0  0  0
 13 20  1  6  0  0  0
 13 11  1  0  0  0  0
 13 19  1  0  0  0  0
 14  7  1  0  0  0  0
 14  2  2  0  0  0  0
 15 10  1  0  0  0  0
 15  7  2  0  0  0  0
 16 17  1  0  0  0  0
 16  5  2  0  0  0  0
 18  4  1  0  0  0  0
 19 23  1  1  0  0  0
 19  3  1  0  0  0  0
 21 20  1  0  0  0  0
 22 20  2  0  0  0  0
 23 25  1  0  0  0  0
 24 23  2  0  0  0  0
 26 28  1  0  0  0  0
 28 27  2  0  0  0  0
 28 30  1  0  0  0  0
 29 28  2  0  0  0  0
 31 30  1  0  0  0  0
 31 32  1  0  0  0  0
M  END
>  <MODEL>
5

>  <REMARK>
 VINA RESULT:      -2.7      3.783      8.513
  Name = 
  6 active torsions:
  status: ('A' for Active; 'I' for Inactive)
    1  A    between atoms: C_1  and  C_22
    2  A    between atoms: C_5  and  C_10
    3  A    between atoms: C_5  and  S_26
    4  A    between atoms: C_6  and  C_32
    5  A    between atoms: C_17  and  C_18
    6  A    between atoms: C_18  and  S_26
                            x       y       z     vdW  Elec       q    Type
                         _______ _______ _______ _____ _____    ______ ____

>  <TORSDO>
F 6

$$$$
=
 OpenBabel11072410283D

 32 35  0  0  1  0  0  0  0  0999 V2000
  162.0540  205.0860  146.7600 N   0  0  0  0  0  0  0  0  0  0  0  0
  161.6240  209.1810  150.4890 C   0  0  0  0  0  0  0  0  0  0  0  0
  161.5720  210.5740  151.1100 C   0  0  1  0  0  3  0  0  0  0  0  0
  161.6820  207.9740  152.7280 C   0  0  0  0  0  2  0  0  0  0  0  0
  160.8890  206.8020  150.6850 C   0  0  0  0  0  0  0  0  0  0  0  0
  162.5850  210.7040  152.2360 C   0  0  0  0  0  2  0  0  0  0  0  0
  161.8890  207.6150  148.6200 C   0  0  0  0  0  0  0  0  0  0  0  0
  161.9610  210.3290  153.5810 C   0  0  0  0  0  2  0  0  0  0  0  0
  161.3190  208.0280  151.3080 N   0  0  0  0  0  0  0  0  0  0  0  0
  162.7060  206.2010  146.6600 C   0  0  0  0  0  3  0  0  0  0  0  0
  162.2340  210.1490  148.2610 C   0  0  0  0  0  2  0  0  0  0  0  0
  161.0170  204.7030  147.6620 C   0  0  0  0  0  3  0  0  0  0  0  0
  162.7050  211.3840  149.0160 C   0  0  2  0  0  3  0  0  0  0  0  0
  161.9360  208.9900  149.1860 C   0  0  0  0  0  0  0  0  0  0  0  0
  162.5380  207.4110  147.4700 C   0  0  0  0  0  3  0  0  0  0  0  0
  161.1750  206.5620  149.3860 C   0  0  0  0  0  0  0  0  0  0  0  0
  160.6530  205.3250  148.7780 C   0  0  0  0  0  3  0  0  0  0  0  0
  161.0440  209.1070  153.5180 C   0  0  0  0  0  2  0  0  0  0  0  0
  161.7190  211.7400  150.1310 C   0  0  1  0  0  3  0  0  0  0  0  0
  162.9880  212.5330  148.0990 C   0  0  0  0  0  0  0  0  0  0  0  0
  162.7510  213.8300  148.5370 O   0  0  0  0  0  1  0  0  0  0  0  0
  163.4070  212.3370  146.9280 O   0  0  0  0  0  0  0  0  0  0  0  0
  160.3750  212.1890  149.6340 C   0  0  0  0  0  0  0  0  0  0  0  0
  160.0840  212.1960  148.2750 O   0  0  0  0  0  0  0  0  0  0  0  0
  159.5060  212.5740  150.4580 O   0  0  0  0  0  1  0  0  0  0  0  0
  160.0920  205.8190  151.5020 C   0  0  0  0  0  2  0  0  0  0  0  0
  161.2060  204.8770  153.7500 O   0  0  0  0  0  0  0  0  0  0  0  0
  161.1700  204.6220  152.2700 S   0  0  0  0  0  0  0  0  0  0  0  0
  162.5580  204.7650  151.7090 O   0  0  0  0  0  0  0  0  0  0  0  0
  160.5580  202.9730  151.9670 C   0  0  0  0  0  2  0  0  0  0  0  0
  161.3700  202.2760  150.8910 C   0  0  0  0  0  2  0  0  0  0  0  0
  160.4550  201.7320  149.8110 C   0  0  0  0  0  1  0  0  0  0  0  0
  1 12  1  0  0  0  0
  2  3  1  0  0  0  0
  2  9  1  0  0  0  0
  3  6  1  1  0  0  0
  4 18  1  0  0  0  0
  5  9  1  0  0  0  0
  5 26  1  0  0  0  0
  6  8  1  0  0  0  0
  7 14  1  0  0  0  0
  7 16  1  0  0  0  0
  9  4  1  0  0  0  0
 10  1  2  0  0  0  0
 10 15  1  0  0  0  0
 11 13  1  0  0  0  0
 11 14  1  0  0  0  0
 12 17  2  0  0  0  0
 13 20  1  6  0  0  0
 13 19  1  0  0  0  0
 14  2  2  0  0  0  0
 15  7  2  0  0  0  0
 16  5  2  0  0  0  0
 17 16  1  0  0  0  0
 18  8  1  0  0  0  0
 19 23  1  6  0  0  0
 19  3  1  0  0  0  0
 20 21  1  0  0  0  0
 22 20  2  0  0  0  0
 23 25  1  0  0  0  0
 24 23  2  0  0  0  0
 26 28  1  0  0  0  0
 28 27  2  0  0  0  0
 29 28  2  0  0  0  0
 30 28  1  0  0  0  0
 31 30  1  0  0  0  0
 32 31  1  0  0  0  0
M  END
>  <MODEL>
6

>  <REMARK>
 VINA RESULT:      -1.9      3.656      6.036
  Name = 
  6 active torsions:
  status: ('A' for Active; 'I' for Inactive)
    1  A    between atoms: C_1  and  C_22
    2  A    between atoms: C_5  and  C_10
    3  A    between atoms: C_5  and  S_26
    4  A    between atoms: C_6  and  C_32
    5  A    between atoms: C_17  and  C_18
    6  A    between atoms: C_18  and  S_26
                            x       y       z     vdW  Elec       q    Type
                         _______ _______ _______ _____ _____    ______ ____

>  <TORSDO>
F 6

$$$$
