=
 OpenBabel11072414023D

 61 68  0  0  1  0  0  0  0  0999 V2000
  158.5590  213.7470  143.6390 N   0  0  0  0  0  2  0  0  0  0  0  0
  158.1700  213.9940  144.9910 C   0  0  0  0  0  0  0  0  0  0  0  0
  158.2940  214.0490  147.2550 C   0  0  2  0  0  3  0  0  0  0  0  0
  156.8890  214.4520  146.7640 C   0  0  0  0  0  2  0  0  0  0  0  0
  159.0250  213.8350  146.0610 O   0  0  0  0  0  0  0  0  0  0  0  0
  156.9710  214.3460  145.3110 N   0  0  0  0  0  0  0  0  0  0  0  0
  160.0480  212.0580  143.0470 O   0  0  0  0  0  1  0  0  0  0  0  0
  159.9370  213.4310  143.2770 C   0  0  1  0  0  3  0  0  0  0  0  0
  162.4940  213.7690  138.2190 C   0  0  0  0  0  2  0  0  0  0  0  0
  162.4810  212.3130  138.3650 N   0  0  0  0  0  0  0  0  0  0  0  0
  162.6250  213.9670  140.7400 C   0  0  2  0  0  3  0  0  0  0  0  0
  160.3750  214.1880  142.0110 C   0  0  1  0  0  3  0  0  0  0  0  0
  163.3820  211.9560  139.4550 C   0  0  0  0  0  2  0  0  0  0  0  0
  161.9070  214.4440  139.4590 C   0  0  2  0  0  3  0  0  0  0  0  0
  160.3800  214.3010  139.4930 C   0  0  0  0  0  2  0  0  0  0  0  0
  162.8050  212.4450  140.7780 C   0  0  0  0  0  2  0  0  0  0  0  0
  161.9010  214.4530  141.9970 C   0  0  0  0  0  2  0  0  0  0  0  0
  163.0600  211.7670  137.1500 C   0  0  0  0  0  1  0  0  0  0  0  0
  159.8790  213.5150  140.7080 C   0  0  2  0  0  3  0  0  0  0  0  0
  158.3540  213.2850  140.7000 C   0  0  2  0  0  3  0  0  0  0  0  0
  158.6090  210.8510  139.9250 C   0  0  0  0  0  1  0  0  0  0  0  0
  157.9000  212.1820  139.7290 C   0  0  2  0  0  3  0  0  0  0  0  0
  157.9200  212.6170  138.3010 C   0  0  0  0  0  0  0  0  0  0  0  0
  158.5430  211.8160  137.3500 O   0  0  0  0  0  0  0  0  0  0  0  0
  157.4410  213.7270  137.9550 O   0  0  0  0  0  1  0  0  0  0  0  0
  157.5390  214.4360  140.7600 O   0  0  0  0  0  0  0  0  0  0  0  0
  156.4170  214.0970  141.3690 O   0  0  0  0  0  0  0  0  0  0  0  0
  154.0820  213.8620  140.9810 C   0  0  2  0  0  3  0  0  0  0  0  0
  153.0520  214.4500  140.1450 N   0  0  0  0  0  1  0  0  0  0  0  0
  155.4360  214.1660  140.3760 C   0  0  2  0  0  3  0  0  0  0  0  0
  154.8180  212.7990  140.1950 C   0  0  0  0  0  2  0  0  0  0  0  0
  158.3180  212.8980  148.0890 O   0  0  0  0  0  0  0  0  0  0  0  0
  158.9230  213.1960  149.3320 C   0  0  1  0  0  3  0  0  0  0  0  0
  159.6890  212.0660  151.8980 C   0  0  0  0  0  0  0  0  0  0  0  0
  158.2970  212.5410  151.6440 C   0  0  0  0  0  0  0  0  0  0  0  0
  157.9450  213.0240  150.4540 C   0  0  0  0  0  3  0  0  0  0  0  0
  162.1110  208.0380  148.9480 C   0  0  0  0  0  1  0  0  0  0  0  0
  161.0680  212.3150  148.4140 C   0  0  0  0  0  1  0  0  0  0  0  0
  161.8220  209.8760  151.4110 C   0  0  1  0  0  3  0  0  0  0  0  0
  160.0100  211.5880  153.3170 C   0  0  2  0  0  3  0  0  0  0  0  0
  162.8440  207.8530  150.2780 C   0  0  2  0  0  3  0  0  0  0  0  0
  159.8470  212.6650  154.3710 C   0  0  0  0  0  2  0  0  0  0  0  0
  160.1610  205.8420  151.0020 C   0  0  0  0  0  1  0  0  0  0  0  0
  160.7320  212.2050  155.5100 C   0  0  0  0  0  2  0  0  0  0  0  0
  162.3570  206.7910  151.0770 O   0  0  0  0  0  0  0  0  0  0  0  0
  163.1060  209.1500  151.0460 C   0  0  0  0  0  2  0  0  0  0  0  0
  160.1220  212.3760  149.5240 N   0  0  0  0  0  0  0  0  0  0  0  0
  160.8760  207.2860  152.8920 C   0  0  0  0  0  2  0  0  0  0  0  0
  161.5650  211.0610  154.9510 C   0  0  0  0  0  2  0  0  0  0  0  0
  160.5400  211.9490  150.8390 C   0  0  0  0  0  0  0  0  0  0  0  0
  161.0080  207.0300  151.4010 C   0  0  2  0  0  3  0  0  0  0  0  0
  160.4000  208.7130  153.1560 C   0  0  2  0  0  3  0  0  0  0  0  0
  161.5480  209.7300  152.9170 C   0  0  2  0  0  3  0  0  0  0  0  0
  161.9120  211.3380  150.9720 C   0  0  0  0  0  2  0  0  0  0  0  0
  161.3550  211.0650  153.5130 N   0  0  1  0  0  0  0  0  0  0  0  0
  159.9120  208.7870  154.4660 O   0  0  0  0  0  0  0  0  0  0  0  0
  160.7960  208.0080  155.2210 C   0  0  0  0  0  1  0  0  0  0  0  0
  157.2860  212.5740  152.7550 C   0  0  0  0  0  2  0  0  0  0  0  0
  156.7260  213.9710  153.0190 C   0  0  0  0  0  2  0  0  0  0  0  0
  154.9730  214.1080  154.8050 C   0  0  0  0  0  1  0  0  0  0  0  0
  156.4620  214.2020  154.4960 C   0  0  0  0  0  2  0  0  0  0  0  0
  1  2  1  0  0  0  0
  2  6  2  0  0  0  0
  2  5  1  0  0  0  0
  3 32  1  1  0  0  0
  4  3  1  0  0  0  0
  5  3  1  0  0  0  0
  6  4  1  0  0  0  0
  8  7  1  6  0  0  0
  8  1  1  0  0  0  0
  9 10  1  0  0  0  0
 10 13  1  0  0  0  0
 11 16  1  1  0  0  0
 11 17  1  0  0  0  0
 12  8  1  1  0  0  0
 13 16  1  0  0  0  0
 14  9  1  6  0  0  0
 14 15  1  0  0  0  0
 14 11  1  0  0  0  0
 15 19  1  0  0  0  0
 17 12  1  0  0  0  0
 18 10  1  0  0  0  0
 19 20  1  1  0  0  0
 19 12  1  0  0  0  0
 20 26  1  6  0  0  0
 22 21  1  6  0  0  0
 22 20  1  0  0  0  0
 23 22  1  0  0  0  0
 24 23  2  0  0  0  0
 25 23  1  0  0  0  0
 26 27  1  0  0  0  0
 28 29  1  6  0  0  0
 30 28  1  0  0  0  0
 30 27  1  1  0  0  0
 31 30  1  0  0  0  0
 31 28  1  0  0  0  0
 33 32  1  6  0  0  0
 33 47  1  0  0  0  0
 33 36  1  0  0  0  0
 34 40  1  0  0  0  0
 35 34  1  0  0  0  0
 35 58  1  0  0  0  0
 36 35  2  0  0  0  0
 38 47  1  0  0  0  0
 39 54  1  1  0  0  0
 39 53  1  0  0  0  0
 40 55  1  0  0  0  0
 40 42  1  1  0  0  0
 41 37  1  6  0  0  0
 41 46  1  0  0  0  0
 41 45  1  0  0  0  0
 42 44  1  0  0  0  0
 45 51  1  0  0  0  0
 46 39  1  0  0  0  0
 47 50  1  0  0  0  0
 48 52  1  0  0  0  0
 49 44  1  0  0  0  0
 50 54  1  0  0  0  0
 50 34  2  0  0  0  0
 51 43  1  1  0  0  0
 51 48  1  0  0  0  0
 52 56  1  1  0  0  0
 53 52  1  0  0  0  0
 53 55  1  0  0  0  0
 55 49  1  0  0  0  0
 56 57  1  0  0  0  0
 58 59  1  0  0  0  0
 59 61  1  0  0  0  0
 61 60  1  0  0  0  0
M  END
>  <MODEL>
1

>  <REMARK>
 VINA RESULT:      -2.1      0.000      0.000
  Name = 
  14 active torsions:
  status: ('A' for Active; 'I' for Inactive)
    1  A    between atoms: C_1  and  O_16
    2  A    between atoms: C_2  and  C_48
    3  A    between atoms: C_2  and  C_53
    4  A    between atoms: N_5  and  C_39
    5  A    between atoms: O_9  and  O_46
    6  A    between atoms: O_9  and  C_51
    7  A    between atoms: C_11  and  C_48
    8  A    between atoms: C_13  and  C_39
    9  A    between atoms: C_15  and  C_59
   10  A    between atoms: O_16  and  C_41
   11  A    between atoms: O_34  and  C_56
   12  A    between atoms: C_42  and  O_46
   13  A    between atoms: C_42  and  C_50
   14  A    between atoms: C_42  and  C_59
                            x       y       z     vdW  Elec       q    Type
                         _______ _______ _______ _____ _____    ______ ____

>  <TORSDO>
F 14

$$$$
=
 OpenBabel11072414023D

 61 68  0  0  1  0  0  0  0  0999 V2000
  159.0350  213.2810  142.8710 N   0  0  0  0  0  2  0  0  0  0  0  0
  158.9910  213.6350  144.2540 C   0  0  0  0  0  0  0  0  0  0  0  0
  159.5460  213.6550  146.4530 C   0  0  2  0  0  3  0  0  0  0  0  0
  158.2500  214.4530  146.1970 C   0  0  0  0  0  2  0  0  0  0  0  0
  159.9480  213.2340  145.1640 O   0  0  0  0  0  0  0  0  0  0  0  0
  158.0270  214.3230  144.7620 N   0  0  0  0  0  0  0  0  0  0  0  0
  159.9580  211.1970  142.3950 O   0  0  0  0  0  1  0  0  0  0  0  0
  160.1710  212.5740  142.2890 C   0  0  1  0  0  3  0  0  0  0  0  0
  163.3590  213.5860  137.7010 C   0  0  0  0  0  2  0  0  0  0  0  0
  164.3860  212.9950  138.5590 N   0  0  0  0  0  0  0  0  0  0  0  0
  162.1980  214.4530  139.7770 C   0  0  2  0  0  3  0  0  0  0  0  0
  160.3620  212.9380  140.8060 C   0  0  1  0  0  3  0  0  0  0  0  0
  164.6400  213.9120  139.6650 C   0  0  0  0  0  2  0  0  0  0  0  0
  162.0270  213.6940  138.4450 C   0  0  2  0  0  3  0  0  0  0  0  0
  161.3550  212.3210  138.5740 C   0  0  0  0  0  2  0  0  0  0  0  0
  163.4170  213.9720  140.5730 C   0  0  0  0  0  2  0  0  0  0  0  0
  160.9320  214.3670  140.6330 C   0  0  0  0  0  2  0  0  0  0  0  0
  165.6060  212.9410  137.7740 C   0  0  0  0  0  1  0  0  0  0  0  0
  161.1770  211.8760  140.0280 C   0  0  2  0  0  3  0  0  0  0  0  0
  160.5900  210.4570  140.1650 C   0  0  2  0  0  3  0  0  0  0  0  0
  163.0430  209.8400  140.6000 C   0  0  0  0  0  1  0  0  0  0  0  0
  161.6560  209.3490  140.2160 C   0  0  2  0  0  3  0  0  0  0  0  0
  161.6840  208.5080  138.9830 C   0  0  0  0  0  0  0  0  0  0  0  0
  161.8700  207.1340  139.0970 O   0  0  0  0  0  1  0  0  0  0  0  0
  161.6090  209.0290  137.8420 O   0  0  0  0  0  0  0  0  0  0  0  0
  159.4330  210.1730  139.4070 O   0  0  0  0  0  0  0  0  0  0  0  0
  158.5480  211.1200  139.6630 O   0  0  0  0  0  0  0  0  0  0  0  0
  156.7520  209.6910  139.0400 C   0  0  2  0  0  3  0  0  0  0  0  0
  155.4380  209.7940  138.4320 N   0  0  0  0  0  1  0  0  0  0  0  0
  157.5440  210.9380  138.7080 C   0  0  2  0  0  3  0  0  0  0  0  0
  157.8040  209.6550  137.9530 C   0  0  0  0  0  2  0  0  0  0  0  0
  159.3920  212.5500  147.3340 O   0  0  0  0  0  0  0  0  0  0  0  0
  159.8250  212.8870  148.6370 C   0  0  1  0  0  3  0  0  0  0  0  0
  160.0910  211.8860  151.3530 C   0  0  0  0  0  0  0  0  0  0  0  0
  158.8010  212.4480  150.8560 C   0  0  0  0  0  0  0  0  0  0  0  0
  158.6780  212.8720  149.6000 C   0  0  0  0  0  3  0  0  0  0  0  0
  162.5690  207.4820  149.0570 C   0  0  0  0  0  1  0  0  0  0  0  0
  161.9990  211.7790  148.1190 C   0  0  0  0  0  1  0  0  0  0  0  0
  162.0740  209.5070  151.3340 C   0  0  1  0  0  3  0  0  0  0  0  0
  160.1500  211.4850  152.8300 C   0  0  2  0  0  3  0  0  0  0  0  0
  163.0730  207.3360  150.4940 C   0  0  2  0  0  3  0  0  0  0  0  0
  159.9260  212.6430  153.7810 C   0  0  0  0  0  2  0  0  0  0  0  0
  160.1470  205.5960  150.9030 C   0  0  0  0  0  1  0  0  0  0  0  0
  160.5840  212.1980  155.0700 C   0  0  0  0  0  2  0  0  0  0  0  0
  162.3800  206.3740  151.2670 O   0  0  0  0  0  0  0  0  0  0  0  0
  163.3300  208.6600  151.2170 C   0  0  0  0  0  2  0  0  0  0  0  0
  160.9050  211.9920  149.0620 N   0  0  0  0  0  0  0  0  0  0  0  0
  160.6900  207.1100  152.7950 C   0  0  0  0  0  2  0  0  0  0  0  0
  161.3880  210.9560  154.7150 C   0  0  0  0  0  2  0  0  0  0  0  0
  161.0800  211.6280  150.4490 C   0  0  0  0  0  0  0  0  0  0  0  0
  161.0230  206.7390  151.3610 C   0  0  2  0  0  3  0  0  0  0  0  0
  160.3070  208.5840  152.8990 C   0  0  2  0  0  3  0  0  0  0  0  0
  161.5630  209.4900  152.7840 C   0  0  2  0  0  3  0  0  0  0  0  0
  162.3570  210.9230  150.8300 C   0  0  0  0  0  2  0  0  0  0  0  0
  161.3990  210.8740  153.2640 N   0  0  1  0  0  0  0  0  0  0  0  0
  159.6350  208.7890  154.1090 O   0  0  0  0  0  0  0  0  0  0  0  0
  160.4100  208.1230  155.0650 C   0  0  0  0  0  1  0  0  0  0  0  0
  157.6410  212.6380  151.7910 C   0  0  0  0  0  2  0  0  0  0  0  0
  157.2370  214.1020  151.9610 C   0  0  0  0  0  2  0  0  0  0  0  0
  157.1830  214.3750  154.4520 C   0  0  0  0  0  1  0  0  0  0  0  0
  156.3510  214.3040  153.1770 C   0  0  0  0  0  2  0  0  0  0  0  0
  1  2  1  0  0  0  0
  2  6  2  0  0  0  0
  2  5  1  0  0  0  0
  3 32  1  1  0  0  0
  4  3  1  0  0  0  0
  5  3  1  0  0  0  0
  6  4  1  0  0  0  0
  8  7  1  6  0  0  0
  8  1  1  0  0  0  0
  9 10  1  0  0  0  0
 10 13  1  0  0  0  0
 11 16  1  1  0  0  0
 11 17  1  0  0  0  0
 12  8  1  1  0  0  0
 13 16  1  0  0  0  0
 14  9  1  1  0  0  0
 14 15  1  0  0  0  0
 14 11  1  0  0  0  0
 15 19  1  0  0  0  0
 17 12  1  0  0  0  0
 18 10  1  0  0  0  0
 19 20  1  6  0  0  0
 19 12  1  0  0  0  0
 20 26  1  6  0  0  0
 20 22  1  0  0  0  0
 22 21  1  6  0  0  0
 23 24  1  0  0  0  0
 23 22  1  0  0  0  0
 25 23  2  0  0  0  0
 26 27  1  0  0  0  0
 28 29  1  6  0  0  0
 30 28  1  0  0  0  0
 30 27  1  1  0  0  0
 31 30  1  0  0  0  0
 31 28  1  0  0  0  0
 33 32  1  6  0  0  0
 33 47  1  0  0  0  0
 33 36  1  0  0  0  0
 34 40  1  0  0  0  0
 35 34  1  0  0  0  0
 35 58  1  0  0  0  0
 36 35  2  0  0  0  0
 38 47  1  0  0  0  0
 39 54  1  1  0  0  0
 39 53  1  0  0  0  0
 40 55  1  0  0  0  0
 40 42  1  1  0  0  0
 41 37  1  6  0  0  0
 41 46  1  0  0  0  0
 41 45  1  0  0  0  0
 42 44  1  0  0  0  0
 45 51  1  0  0  0  0
 46 39  1  0  0  0  0
 47 50  1  0  0  0  0
 48 52  1  0  0  0  0
 49 44  1  0  0  0  0
 50 54  1  0  0  0  0
 50 34  2  0  0  0  0
 51 43  1  1  0  0  0
 51 48  1  0  0  0  0
 52 56  1  1  0  0  0
 53 52  1  0  0  0  0
 53 55  1  0  0  0  0
 55 49  1  0  0  0  0
 56 57  1  0  0  0  0
 58 59  1  0  0  0  0
 59 61  1  0  0  0  0
 61 60  1  0  0  0  0
M  END
>  <MODEL>
2

>  <REMARK>
 VINA RESULT:      -0.3      1.821      2.495
  Name = 
  14 active torsions:
  status: ('A' for Active; 'I' for Inactive)
    1  A    between atoms: C_1  and  O_16
    2  A    between atoms: C_2  and  C_48
    3  A    between atoms: C_2  and  C_53
    4  A    between atoms: N_5  and  C_39
    5  A    between atoms: O_9  and  O_46
    6  A    between atoms: O_9  and  C_51
    7  A    between atoms: C_11  and  C_48
    8  A    between atoms: C_13  and  C_39
    9  A    between atoms: C_15  and  C_59
   10  A    between atoms: O_16  and  C_41
   11  A    between atoms: O_34  and  C_56
   12  A    between atoms: C_42  and  O_46
   13  A    between atoms: C_42  and  C_50
   14  A    between atoms: C_42  and  C_59
                            x       y       z     vdW  Elec       q    Type
                         _______ _______ _______ _____ _____    ______ ____

>  <TORSDO>
F 14

$$$$
