=
 OpenBabel11072412293D

 33 37  0  0  1  0  0  0  0  0999 V2000
  162.7010  210.8220  155.3800 O   0  0  0  0  0  0  0  0  0  0  0  0
  158.7030  211.1240  154.0620 C   0  0  0  0  0  2  0  0  0  0  0  0
  158.7030  213.1820  155.5350 N   0  0  0  0  0  2  0  0  0  0  0  0
  160.6080  211.8170  155.4820 N   0  0  0  0  0  0  0  0  0  0  0  0
  161.4680  210.7150  155.1570 C   0  0  0  0  0  0  0  0  0  0  0  0
  159.5430  210.7060  152.9280 N   0  0  0  0  0  0  0  0  0  0  0  0
  159.3960  212.0290  155.0570 C   0  0  0  0  0  0  0  0  0  0  0  0
  160.9500  209.4070  154.6330 C   0  0  2  0  0  3  0  0  0  0  0  0
  160.2960  209.4770  153.2430 C   0  0  2  0  0  3  0  0  0  0  0  0
  160.8270  208.3620  156.8830 C   0  0  0  0  0  2  0  0  0  0  0  0
  160.5130  207.2950  155.8570 C   0  0  0  0  0  2  0  0  0  0  0  0
  160.0370  208.7180  155.6410 C   0  0  0  0  0  3  0  0  0  0  0  0
  157.4760  213.5200  155.0660 O   0  0  0  0  0  0  0  0  0  0  0  0
  156.6350  213.4370  156.1770 C   0  0  0  0  0  1  0  0  0  0  0  0
  161.2680  209.0640  152.1400 C   0  0  0  0  0  2  0  0  0  0  0  0
  161.7190  206.6310  152.3920 C   0  0  0  0  0  2  0  0  0  0  0  0
  161.2150  207.6290  149.8150 S   0  0  0  0  0  0  0  0  0  0  0  0
  160.9270  207.6780  151.6240 C   0  0  2  0  0  3  0  0  0  0  0  0
  160.7480  204.4260  151.5630 C   0  0  1  0  0  3  0  0  0  0  0  0
  161.5440  205.8300  149.6050 C   0  0  1  0  0  3  0  0  0  0  0  0
  162.2250  203.4200  151.5110 Cl  0  0  0  0  0  0  0  0  0  0  0  0
  160.8080  205.4500  152.6960 C   0  0  0  0  0  2  0  0  0  0  0  0
  160.3840  205.0190  150.1990 C   0  0  0  0  0  2  0  0  0  0  0  0
  161.6220  203.6680  146.5360 C   0  0  0  0  0  2  0  0  0  0  0  0
  161.8400  204.8440  145.5790 C   0  0  0  0  0  2  0  0  0  0  0  0
  160.9110  206.3960  147.3670 C   0  0  0  0  0  2  0  0  0  0  0  0
  161.2690  204.1350  147.9540 C   0  0  0  0  0  2  0  0  0  0  0  0
  161.7480  205.5010  148.1870 N   0  0  0  0  0  0  0  0  0  0  0  0
  160.8720  205.9860  145.8830 C   0  0  0  0  0  2  0  0  0  0  0  0
  160.3950  211.7880  152.4180 C   0  0  0  0  0  2  0  0  0  0  0  0
  159.5980  212.6920  151.4980 C   0  0  0  0  0  3  0  0  0  0  0  0
  160.4010  213.7110  151.0410 O   0  0  0  0  0  0  0  0  0  0  0  0
  159.5400  213.9560  152.0410 O   0  0  0  0  0  0  0  0  0  0  0  0
  2  7  1  0  0  0  0
  5  1  2  0  0  0  0
  5  4  1  0  0  0  0
  6  9  1  0  0  0  0
  6  2  1  0  0  0  0
  7  4  2  0  0  0  0
  7  3  1  0  0  0  0
  8  5  1  0  0  0  0
  8 12  1  1  0  0  0
  9 15  1  6  0  0  0
  9  8  1  0  0  0  0
 11 10  1  0  0  0  0
 12 11  1  0  0  0  0
 12 10  1  0  0  0  0
 13  3  1  0  0  0  0
 13 14  1  0  0  0  0
 16 22  1  0  0  0  0
 17 18  1  0  0  0  0
 18 15  1  1  0  0  0
 18 16  1  0  0  0  0
 19 21  1  6  0  0  0
 19 22  1  0  0  0  0
 20 28  1  6  0  0  0
 20 17  1  0  0  0  0
 20 23  1  0  0  0  0
 23 19  1  0  0  0  0
 24 27  1  0  0  0  0
 25 29  1  0  0  0  0
 25 24  1  0  0  0  0
 26 28  1  0  0  0  0
 27 28  1  0  0  0  0
 29 26  1  0  0  0  0
 30  6  1  0  0  0  0
 31 33  1  0  0  0  0
 31 30  1  0  0  0  0
 32 31  1  0  0  0  0
 32 33  1  0  0  0  0
M  END
>  <MODEL>
1

>  <REMARK>
 VINA RESULT:      -7.5      0.000      0.000
  Name = 
  7 active torsions:
  status: ('A' for Active; 'I' for Inactive)
    1  A    between atoms: C_6  and  C_32
    2  A    between atoms: C_9  and  C_11
    3  A    between atoms: C_11  and  C_29
    4  A    between atoms: N_13  and  O_21
    5  A    between atoms: N_16  and  C_32
    6  A    between atoms: N_20  and  C_24
    7  A    between atoms: C_22  and  C_26
                            x       y       z     vdW  Elec       q    Type
                         _______ _______ _______ _____ _____    ______ ____

>  <TORSDO>
F 7

$$$$
=
 OpenBabel11072412293D

 33 37  0  0  1  0  0  0  0  0999 V2000
  162.8410  210.4060  155.4350 O   0  0  0  0  0  0  0  0  0  0  0  0
  159.3300  210.6440  153.1070 C   0  0  0  0  0  2  0  0  0  0  0  0
  159.3420  213.0480  153.9010 N   0  0  0  0  0  2  0  0  0  0  0  0
  160.9660  211.5680  154.7180 N   0  0  0  0  0  0  0  0  0  0  0  0
  161.6860  210.3470  154.9430 C   0  0  0  0  0  0  0  0  0  0  0  0
  160.3170  209.8240  152.3880 N   0  0  0  0  0  0  0  0  0  0  0  0
  159.9260  211.7460  153.9560 C   0  0  0  0  0  0  0  0  0  0  0  0
  161.0890  208.9930  154.6870 C   0  0  2  0  0  3  0  0  0  0  0  0
  160.7740  208.6890  153.2140 C   0  0  2  0  0  3  0  0  0  0  0  0
  160.3400  208.4550  156.9940 C   0  0  0  0  0  2  0  0  0  0  0  0
  159.9340  207.3080  156.0940 C   0  0  0  0  0  2  0  0  0  0  0  0
  159.8800  208.7330  155.5780 C   0  0  0  0  0  3  0  0  0  0  0  0
  158.3180  213.3340  153.0580 O   0  0  0  0  0  0  0  0  0  0  0  0
  157.4870  214.1880  153.7850 C   0  0  0  0  0  1  0  0  0  0  0  0
  161.8830  207.8710  152.5560 C   0  0  0  0  0  2  0  0  0  0  0  0
  161.8640  205.4040  152.2380 C   0  0  0  0  0  2  0  0  0  0  0  0
  161.5870  207.0390  149.9700 S   0  0  0  0  0  0  0  0  0  0  0  0
  161.2930  206.7270  151.7510 C   0  0  2  0  0  3  0  0  0  0  0  0
  160.5040  203.6660  150.9630 C   0  0  1  0  0  3  0  0  0  0  0  0
  161.5730  205.3060  149.3490 C   0  0  1  0  0  3  0  0  0  0  0  0
  161.7660  202.4420  150.6390 Cl  0  0  0  0  0  0  0  0  0  0  0  0
  160.7430  204.3760  152.2960 C   0  0  0  0  0  2  0  0  0  0  0  0
  160.2750  204.6120  149.7810 C   0  0  0  0  0  2  0  0  0  0  0  0
  161.7380  203.7800  145.9220 C   0  0  0  0  0  2  0  0  0  0  0  0
  161.7400  205.1310  145.2010 C   0  0  0  0  0  2  0  0  0  0  0  0
  160.7310  206.1810  147.2860 C   0  0  0  0  0  2  0  0  0  0  0  0
  161.4180  203.9240  147.4160 C   0  0  0  0  0  2  0  0  0  0  0  0
  161.7280  205.2760  147.8880 N   0  0  0  0  0  0  0  0  0  0  0  0
  160.6520  206.0500  145.7540 C   0  0  0  0  0  2  0  0  0  0  0  0
  161.4240  210.6150  151.8340 C   0  0  0  0  0  2  0  0  0  0  0  0
  161.3150  210.6790  150.3240 C   0  0  0  0  0  3  0  0  0  0  0  0
  162.4230  211.3120  149.8070 O   0  0  0  0  0  0  0  0  0  0  0  0
  161.2760  211.9970  149.9260 O   0  0  0  0  0  0  0  0  0  0  0  0
  2  7  1  0  0  0  0
  3  7  1  0  0  0  0
  4  5  1  0  0  0  0
  5  1  2  0  0  0  0
  6  2  1  0  0  0  0
  6  9  1  0  0  0  0
  7  4  2  0  0  0  0
  8  5  1  0  0  0  0
  8 12  1  1  0  0  0
  9 15  1  6  0  0  0
  9  8  1  0  0  0  0
 11 10  1  0  0  0  0
 12 11  1  0  0  0  0
 12 10  1  0  0  0  0
 13 14  1  0  0  0  0
 13  3  1  0  0  0  0
 16 22  1  0  0  0  0
 17 18  1  0  0  0  0
 18 16  1  0  0  0  0
 18 15  1  1  0  0  0
 19 21  1  6  0  0  0
 19 22  1  0  0  0  0
 20 28  1  6  0  0  0
 20 23  1  0  0  0  0
 20 17  1  0  0  0  0
 23 19  1  0  0  0  0
 24 27  1  0  0  0  0
 25 29  1  0  0  0  0
 25 24  1  0  0  0  0
 26 28  1  0  0  0  0
 27 28  1  0  0  0  0
 29 26  1  0  0  0  0
 30  6  1  0  0  0  0
 31 30  1  0  0  0  0
 32 33  1  0  0  0  0
 32 31  1  0  0  0  0
 33 31  1  0  0  0  0
M  END
>  <MODEL>
2

>  <REMARK>
 VINA RESULT:      -6.9      1.291      1.433
  Name = 
  7 active torsions:
  status: ('A' for Active; 'I' for Inactive)
    1  A    between atoms: C_6  and  C_32
    2  A    between atoms: C_9  and  C_11
    3  A    between atoms: C_11  and  C_29
    4  A    between atoms: N_13  and  O_21
    5  A    between atoms: N_16  and  C_32
    6  A    between atoms: N_20  and  C_24
    7  A    between atoms: C_22  and  C_26
                            x       y       z     vdW  Elec       q    Type
                         _______ _______ _______ _____ _____    ______ ____

>  <TORSDO>
F 7

$$$$
=
 OpenBabel11072412293D

 33 37  0  0  1  0  0  0  0  0999 V2000
  162.1520  210.9160  155.6300 O   0  0  0  0  0  0  0  0  0  0  0  0
  158.7320  210.4930  153.1950 C   0  0  0  0  0  2  0  0  0  0  0  0
  157.7020  212.0370  154.9160 N   0  0  0  0  0  2  0  0  0  0  0  0
  159.8950  211.2730  155.2360 N   0  0  0  0  0  0  0  0  0  0  0  0
  161.1170  210.5530  155.0170 C   0  0  0  0  0  0  0  0  0  0  0  0
  159.9160  210.6100  152.3280 N   0  0  0  0  0  0  0  0  0  0  0  0
  158.8260  211.2640  154.4940 C   0  0  0  0  0  0  0  0  0  0  0  0
  161.1960  209.3320  154.1460 C   0  0  2  0  0  3  0  0  0  0  0  0
  160.9220  209.5800  152.6540 C   0  0  2  0  0  3  0  0  0  0  0  0
  160.7270  207.8960  156.1190 C   0  0  0  0  0  2  0  0  0  0  0  0
  161.2150  207.0030  154.9980 C   0  0  0  0  0  2  0  0  0  0  0  0
  160.3340  208.1980  154.6870 C   0  0  0  0  0  3  0  0  0  0  0  0
  156.5890  212.1520  154.1490 O   0  0  0  0  0  0  0  0  0  0  0  0
  156.1820  213.4780  154.3080 C   0  0  0  0  0  1  0  0  0  0  0  0
  162.2180  209.7280  151.8590 C   0  0  0  0  0  2  0  0  0  0  0  0
  161.5220  209.0130  149.5810 C   0  0  0  0  0  2  0  0  0  0  0  0
  161.8090  207.0430  151.5630 S   0  0  0  0  0  0  0  0  0  0  0  0
  162.3270  208.6320  150.8140 C   0  0  2  0  0  3  0  0  0  0  0  0
  162.1160  207.1920  147.9000 C   0  0  1  0  0  3  0  0  0  0  0  0
  161.2480  206.1590  150.0490 C   0  0  1  0  0  3  0  0  0  0  0  0
  160.5370  206.9690  147.0920 Cl  0  0  0  0  0  0  0  0  0  0  0  0
  162.3200  208.6420  148.3390 C   0  0  0  0  0  2  0  0  0  0  0  0
  162.3710  206.1610  149.0030 C   0  0  0  0  0  2  0  0  0  0  0  0
  160.6190  202.5050  149.4510 C   0  0  0  0  0  2  0  0  0  0  0  0
  160.3350  202.2010  150.9240 C   0  0  0  0  0  2  0  0  0  0  0  0
  161.5920  204.3230  151.5450 C   0  0  0  0  0  2  0  0  0  0  0  0
  161.1930  203.9150  149.2530 C   0  0  0  0  0  2  0  0  0  0  0  0
  160.8290  204.7880  150.3730 N   0  0  0  0  0  0  0  0  0  0  0  0
  161.3990  202.8210  151.8280 C   0  0  0  0  0  2  0  0  0  0  0  0
  160.4720  211.9690  152.3000 C   0  0  0  0  0  2  0  0  0  0  0  0
  159.5360  212.9010  151.5580 C   0  0  0  0  0  3  0  0  0  0  0  0
  160.0620  213.1980  150.3210 O   0  0  0  0  0  0  0  0  0  0  0  0
  160.1800  214.0930  151.3140 O   0  0  0  0  0  0  0  0  0  0  0  0
  2  7  1  0  0  0  0
  5  4  1  0  0  0  0
  5  1  2  0  0  0  0
  6  9  1  0  0  0  0
  6  2  1  0  0  0  0
  7  3  1  0  0  0  0
  7  4  2  0  0  0  0
  8 12  1  1  0  0  0
  8  5  1  0  0  0  0
  9 15  1  6  0  0  0
  9  8  1  0  0  0  0
 11 10  1  0  0  0  0
 12 11  1  0  0  0  0
 12 10  1  0  0  0  0
 13 14  1  0  0  0  0
 13  3  1  0  0  0  0
 16 18  1  0  0  0  0
 18 17  1  0  0  0  0
 18 15  1  1  0  0  0
 19 21  1  1  0  0  0
 19 22  1  0  0  0  0
 19 23  1  0  0  0  0
 20 23  1  6  0  0  0
 20 28  1  0  0  0  0
 20 17  1  0  0  0  0
 22 16  1  0  0  0  0
 24 25  1  0  0  0  0
 25 29  1  0  0  0  0
 26 29  1  0  0  0  0
 27 24  1  0  0  0  0
 27 28  1  0  0  0  0
 28 26  1  0  0  0  0
 30  6  1  0  0  0  0
 31 30  1  0  0  0  0
 32 33  1  0  0  0  0
 32 31  1  0  0  0  0
 33 31  1  0  0  0  0
M  END
>  <MODEL>
3

>  <REMARK>
 VINA RESULT:      -5.9      1.820      2.827
  Name = 
  7 active torsions:
  status: ('A' for Active; 'I' for Inactive)
    1  A    between atoms: C_6  and  C_32
    2  A    between atoms: C_9  and  C_11
    3  A    between atoms: C_11  and  C_29
    4  A    between atoms: N_13  and  O_21
    5  A    between atoms: N_16  and  C_32
    6  A    between atoms: N_20  and  C_24
    7  A    between atoms: C_22  and  C_26
                            x       y       z     vdW  Elec       q    Type
                         _______ _______ _______ _____ _____    ______ ____

>  <TORSDO>
F 7

$$$$
