=
 OpenBabel11072410503D

 40 43  0  0  1  0  0  0  0  0999 V2000
  161.4500  208.3800  152.7720 C   0  0  2  0  0  3  0  0  0  0  0  0
  159.6760  211.1780  154.4490 O   0  0  0  0  0  0  0  0  0  0  0  0
  160.4980  211.0640  152.2600 N   0  0  0  0  0  0  0  0  0  0  0  0
  161.3720  210.3710  151.3150 C   0  0  0  0  0  2  0  0  0  0  0  0
  160.5290  209.0260  153.8220 C   0  0  2  0  0  3  0  0  0  0  0  0
  160.2360  210.4860  153.5530 C   0  0  0  0  0  0  0  0  0  0  0  0
  161.1270  208.8740  151.3720 C   0  0  0  0  0  2  0  0  0  0  0  0
  160.4630  207.9040  156.1010 N   0  0  0  0  0  0  0  0  0  0  0  0
  162.0870  209.4950  155.5800 O   0  0  0  0  0  0  0  0  0  0  0  0
  159.3770  207.1640  155.6920 O   0  0  0  0  0  0  0  0  0  0  0  0
  161.0790  208.8340  155.2070 C   0  0  0  0  0  0  0  0  0  0  0  0
  160.9080  207.7530  157.2570 O   0  0  0  0  0  0  0  0  0  0  0  0
  159.4180  212.5820  150.6670 C   0  0  1  0  0  3  0  0  0  0  0  0
  160.1500  212.4610  151.9930 C   0  0  1  0  0  3  0  0  0  0  0  0
  158.3130  213.9310  152.3640 O   0  0  0  0  0  1  0  0  0  0  0  0
  158.6400  212.6280  151.9820 C   0  0  1  0  0  3  0  0  0  0  0  0
  159.7010  213.9530  150.0660 C   0  0  0  0  0  2  0  0  0  0  0  0
  158.5510  214.2040  147.8390 N   0  0  0  0  0  2  0  0  0  0  0  0
  160.7720  213.3520  146.4280 C   0  0  0  0  0  3  0  0  0  0  0  0
  158.5350  214.1160  146.4590 O   0  0  0  0  0  0  0  0  0  0  0  0
  159.7310  213.8590  148.5740 C   0  0  0  0  0  0  0  0  0  0  0  0
  159.6680  213.6890  145.7600 C   0  0  0  0  0  0  0  0  0  0  0  0
  160.8190  213.4350  147.9040 C   0  0  0  0  0  0  0  0  0  0  0  0
  159.6150  213.5500  143.9780 P   0  0  2  0  0  0  0  0  0  0  0  0
  158.2940  214.0920  143.4860 O   0  0  0  0  0  0  0  0  0  0  0  0
  159.7480  211.9250  143.5210 O   0  0  0  0  0  1  0  0  0  0  0  0
  160.8720  214.4530  143.2840 O   0  0  0  0  0  0  0  0  0  0  0  0
  161.5420  213.5700  142.4350 C   0  0  0  0  0  1  0  0  0  0  0  0
  162.0500  213.0550  148.6180 C   0  0  0  0  0  3  0  0  0  0  0  0
  162.9620  212.3360  148.0520 N   0  0  0  0  0  2  0  0  0  0  0  0
  161.3050  206.8680  152.7950 C   0  0  0  0  0  2  0  0  0  0  0  0
  162.4520  206.2200  152.0400 C   0  0  0  0  0  2  0  0  0  0  0  0
  162.0160  204.8790  151.4730 C   0  0  0  0  0  2  0  0  0  0  0  0
  161.1860  203.2820  148.1640 C   0  0  0  0  0  2  0  0  0  0  0  0
  160.1760  206.2300  148.3950 C   0  0  0  0  0  1  0  0  0  0  0  0
  160.8460  202.7110  149.5340 C   0  0  0  0  0  2  0  0  0  0  0  0
  160.8450  205.0480  150.5110 C   0  0  1  0  0  3  0  0  0  0  0  0
  161.3270  205.6020  149.1640 C   0  0  1  0  0  3  0  0  0  0  0  0
  162.0380  204.5400  148.3180 C   0  0  0  0  0  2  0  0  0  0  0  0
  160.0610  203.7360  150.3460 C   0  0  0  0  0  2  0  0  0  0  0  0
  1 31  1  6  0  0  0
  1  5  1  0  0  0  0
  3  6  1  0  0  0  0
  4  7  1  0  0  0  0
  4  3  1  0  0  0  0
  5 11  1  1  0  0  0
  6  5  1  0  0  0  0
  6  2  2  0  0  0  0
  7  1  1  0  0  0  0
  8 12  2  0  0  0  0
 10  8  2  0  0  0  0
 11  9  2  0  0  0  0
 11  8  1  0  0  0  0
 13 17  1  1  0  0  0
 13 16  1  0  0  0  0
 13 14  1  0  0  0  0
 14  3  1  6  0  0  0
 16 14  1  0  0  0  0
 16 15  1  1  0  0  0
 18 21  1  0  0  0  0
 19 23  1  0  0  0  0
 20 18  1  0  0  0  0
 21 17  1  0  0  0  0
 22 19  2  0  0  0  0
 22 20  1  0  0  0  0
 23 21  2  0  0  0  0
 23 29  1  0  0  0  0
 24 25  2  6  0  0  0
 24 22  1  0  0  0  0
 26 24  1  0  0  0  0
 27 24  1  0  0  0  0
 28 27  1  0  0  0  0
 30 29  2  0  0  0  0
 32 31  1  0  0  0  0
 33 32  1  0  0  0  0
 34 39  1  0  0  0  0
 34 36  1  0  0  0  0
 36 40  1  0  0  0  0
 37 33  1  1  0  0  0
 38 35  1  6  0  0  0
 38 37  1  0  0  0  0
 39 38  1  0  0  0  0
 40 37  1  0  0  0  0
M  END
>  <MODEL>
1

>  <REMARK>
 VINA RESULT:      -7.1      0.000      0.000
  Name = 
  11 active torsions:
  status: ('A' for Active; 'I' for Inactive)
    1  A    between atoms: C_2  and  C_34
    2  A    between atoms: P_3  and  O_12
    3  A    between atoms: P_3  and  C_35
    4  A    between atoms: C_6  and  C_19
    5  A    between atoms: C_8  and  N_18
    6  A    between atoms: C_9  and  C_39
    7  A    between atoms: C_10  and  C_29
    8  A    between atoms: C_10  and  C_34
    9  A    between atoms: C_19  and  C_30
   10  A    between atoms: C_21  and  C_27
   11  A    between atoms: C_29  and  C_32
                            x       y       z     vdW  Elec       q    Type
                         _______ _______ _______ _____ _____    ______ ____

>  <TORSDO>
F 11

$$$$
=
 OpenBabel11072410503D

 40 43  0  0  1  0  0  0  0  0999 V2000
  161.1800  205.8050  151.5930 C   0  0  2  0  0  3  0  0  0  0  0  0
  162.0090  209.2530  150.4930 O   0  0  0  0  0  0  0  0  0  0  0  0
  161.4980  208.4820  152.6440 N   0  0  0  0  0  0  0  0  0  0  0  0
  160.9360  207.4050  153.4570 C   0  0  0  0  0  2  0  0  0  0  0  0
  161.7880  206.8720  150.6650 C   0  0  2  0  0  3  0  0  0  0  0  0
  161.7430  208.2710  151.2400 C   0  0  0  0  0  0  0  0  0  0  0  0
  161.5320  206.0700  153.0470 C   0  0  0  0  0  2  0  0  0  0  0  0
  161.9260  207.0790  148.1360 N   0  0  0  0  0  0  0  0  0  0  0  0
  159.9150  206.5680  149.2030 O   0  0  0  0  0  0  0  0  0  0  0  0
  163.2720  207.3390  148.2420 O   0  0  0  0  0  0  0  0  0  0  0  0
  161.1460  206.8270  149.3070 C   0  0  0  0  0  0  0  0  0  0  0  0
  161.3920  207.0570  147.0080 O   0  0  0  0  0  0  0  0  0  0  0  0
  160.1100  210.3870  153.3150 C   0  0  1  0  0  3  0  0  0  0  0  0
  161.5210  209.8360  153.2000 C   0  0  1  0  0  3  0  0  0  0  0  0
  161.3710  210.8750  155.3390 O   0  0  0  0  0  1  0  0  0  0  0  0
  160.8300  209.8540  154.5530 C   0  0  1  0  0  3  0  0  0  0  0  0
  160.1550  211.9030  153.1770 C   0  0  0  0  0  2  0  0  0  0  0  0
  161.0800  211.8610  150.8350 N   0  0  0  0  0  2  0  0  0  0  0  0
  159.0090  213.3970  149.8300 C   0  0  0  0  0  3  0  0  0  0  0  0
  161.0270  212.2090  149.4980 O   0  0  0  0  0  0  0  0  0  0  0  0
  160.0510  212.2870  151.7360 C   0  0  0  0  0  0  0  0  0  0  0  0
  159.9710  212.9800  149.0040 C   0  0  0  0  0  0  0  0  0  0  0  0
  159.0400  213.0410  151.2660 C   0  0  0  0  0  0  0  0  0  0  0  0
  159.9390  213.4470  147.2780 P   0  0  2  0  0  0  0  0  0  0  0  0
  158.6660  214.2120  147.0040 O   0  0  0  0  0  1  0  0  0  0  0  0
  159.9710  212.0630  146.3040 O   0  0  0  0  0  0  0  0  0  0  0  0
  161.2660  214.4410  146.9180 O   0  0  0  0  0  0  0  0  0  0  0  0
  162.2370  213.5900  146.3860 C   0  0  0  0  0  1  0  0  0  0  0  0
  157.9680  213.5150  152.1570 C   0  0  0  0  0  3  0  0  0  0  0  0
  157.0990  214.3870  151.7630 N   0  0  0  0  0  2  0  0  0  0  0  0
  161.6880  204.4220  151.2190 C   0  0  0  0  0  2  0  0  0  0  0  0
  160.5200  203.4780  150.9960 C   0  0  0  0  0  2  0  0  0  0  0  0
  160.2330  203.3410  149.5100 C   0  0  0  0  0  2  0  0  0  0  0  0
  160.8190  202.4330  145.9020 C   0  0  0  0  0  2  0  0  0  0  0  0
  161.9080  200.2930  147.9010 C   0  0  0  0  0  1  0  0  0  0  0  0
  161.2300  203.7400  146.5650 C   0  0  0  0  0  2  0  0  0  0  0  0
  161.3450  202.5700  148.8080 C   0  0  1  0  0  3  0  0  0  0  0  0
  160.7930  201.2930  148.1610 C   0  0  1  0  0  3  0  0  0  0  0  0
  160.0070  201.5840  146.8770 C   0  0  0  0  0  2  0  0  0  0  0  0
  162.0870  203.4540  147.7940 C   0  0  0  0  0  2  0  0  0  0  0  0
  1 31  1  6  0  0  0
  1  7  1  0  0  0  0
  2  6  2  0  0  0  0
  3  4  1  0  0  0  0
  5 11  1  6  0  0  0
  5  6  1  0  0  0  0
  5  1  1  0  0  0  0
  6  3  1  0  0  0  0
  7  4  1  0  0  0  0
  8 10  2  0  0  0  0
  8 11  1  0  0  0  0
  9 11  2  0  0  0  0
 12  8  2  0  0  0  0
 13 17  1  1  0  0  0
 13 16  1  0  0  0  0
 14  3  1  6  0  0  0
 14 13  1  0  0  0  0
 14 16  1  0  0  0  0
 16 15  1  1  0  0  0
 18 21  1  0  0  0  0
 19 23  1  0  0  0  0
 20 18  1  0  0  0  0
 21 17  1  0  0  0  0
 22 20  1  0  0  0  0
 22 19  2  0  0  0  0
 23 21  2  0  0  0  0
 23 29  1  0  0  0  0
 24 26  2  6  0  0  0
 24 22  1  0  0  0  0
 25 24  1  0  0  0  0
 27 24  1  0  0  0  0
 28 27  1  0  0  0  0
 30 29  2  0  0  0  0
 32 31  1  0  0  0  0
 33 32  1  0  0  0  0
 34 36  1  0  0  0  0
 34 39  1  0  0  0  0
 36 40  1  0  0  0  0
 37 33  1  6  0  0  0
 38 35  1  6  0  0  0
 38 37  1  0  0  0  0
 39 38  1  0  0  0  0
 40 37  1  0  0  0  0
M  END
>  <MODEL>
2

>  <REMARK>
 VINA RESULT:      -7.0      2.813      4.711
  Name = 
  11 active torsions:
  status: ('A' for Active; 'I' for Inactive)
    1  A    between atoms: C_2  and  C_34
    2  A    between atoms: P_3  and  O_12
    3  A    between atoms: P_3  and  C_35
    4  A    between atoms: C_6  and  C_19
    5  A    between atoms: C_8  and  N_18
    6  A    between atoms: C_9  and  C_39
    7  A    between atoms: C_10  and  C_29
    8  A    between atoms: C_10  and  C_34
    9  A    between atoms: C_19  and  C_30
   10  A    between atoms: C_21  and  C_27
   11  A    between atoms: C_29  and  C_32
                            x       y       z     vdW  Elec       q    Type
                         _______ _______ _______ _____ _____    ______ ____

>  <TORSDO>
F 11

$$$$
=
 OpenBabel11072410503D

 40 43  0  0  1  0  0  0  0  0999 V2000
  161.2580  206.5290  152.1380 C   0  0  2  0  0  3  0  0  0  0  0  0
  161.7600  209.7960  150.4480 O   0  0  0  0  0  0  0  0  0  0  0  0
  161.2410  209.3690  152.6910 N   0  0  0  0  0  0  0  0  0  0  0  0
  160.7620  208.3970  153.6730 C   0  0  0  0  0  2  0  0  0  0  0  0
  161.7880  207.4740  151.0450 C   0  0  2  0  0  3  0  0  0  0  0  0
  161.5680  208.9390  151.3550 C   0  0  0  0  0  0  0  0  0  0  0  0
  161.5150  207.0870  153.5280 C   0  0  0  0  0  2  0  0  0  0  0  0
  161.9820  207.3230  148.5160 N   0  0  0  0  0  0  0  0  0  0  0  0
  160.0510  206.6320  149.6270 O   0  0  0  0  0  0  0  0  0  0  0  0
  163.2590  207.8300  148.5950 O   0  0  0  0  0  0  0  0  0  0  0  0
  161.2140  207.1160  149.7040 C   0  0  0  0  0  0  0  0  0  0  0  0
  161.5030  207.0410  147.3990 O   0  0  0  0  0  0  0  0  0  0  0  0
  159.7900  211.3260  152.4230 C   0  0  1  0  0  3  0  0  0  0  0  0
  161.0950  210.7930  152.9910 C   0  0  1  0  0  3  0  0  0  0  0  0
  160.1210  212.1560  154.6870 O   0  0  0  0  0  1  0  0  0  0  0  0
  159.9080  211.0110  153.9140 C   0  0  1  0  0  3  0  0  0  0  0  0
  159.9580  212.8010  152.0860 C   0  0  0  0  0  2  0  0  0  0  0  0
  160.9590  212.4500  149.8010 N   0  0  0  0  0  2  0  0  0  0  0  0
  158.9370  213.8510  148.5360 C   0  0  0  0  0  3  0  0  0  0  0  0
  160.9530  212.6200  148.4290 O   0  0  0  0  0  0  0  0  0  0  0  0
  159.9050  212.9950  150.6040 C   0  0  0  0  0  0  0  0  0  0  0  0
  159.9210  213.3260  147.8030 C   0  0  0  0  0  0  0  0  0  0  0  0
  158.9170  213.6850  150.0060 C   0  0  0  0  0  0  0  0  0  0  0  0
  159.9510  213.5640  146.0310 P   0  0  2  0  0  0  0  0  0  0  0  0
  158.7930  214.4520  145.6410 O   0  0  0  0  0  1  0  0  0  0  0  0
  159.7910  212.0730  145.2450 O   0  0  0  0  0  0  0  0  0  0  0  0
  161.4000  214.3130  145.5670 O   0  0  0  0  0  0  0  0  0  0  0  0
  161.3200  214.4530  144.1800 C   0  0  0  0  0  1  0  0  0  0  0  0
  157.8210  214.2770  150.7910 C   0  0  0  0  0  3  0  0  0  0  0  0
  156.6240  213.7930  150.7480 N   0  0  0  0  0  2  0  0  0  0  0  0
  161.9260  205.1680  152.0340 C   0  0  0  0  0  2  0  0  0  0  0  0
  160.8770  204.0700  151.9950 C   0  0  0  0  0  2  0  0  0  0  0  0
  161.2990  202.9760  151.0290 C   0  0  0  0  0  2  0  0  0  0  0  0
  161.2560  200.8470  147.9210 C   0  0  0  0  0  2  0  0  0  0  0  0
  160.8020  203.8830  147.3390 C   0  0  0  0  0  1  0  0  0  0  0  0
  160.4050  200.6210  149.1630 C   0  0  0  0  0  2  0  0  0  0  0  0
  160.5410  203.0900  149.7100 C   0  0  1  0  0  3  0  0  0  0  0  0
  161.5150  203.2870  148.5420 C   0  0  1  0  0  3  0  0  0  0  0  0
  162.2400  201.9900  148.1630 C   0  0  0  0  0  2  0  0  0  0  0  0
  159.6140  201.8840  149.4910 C   0  0  0  0  0  2  0  0  0  0  0  0
  1 31  1  1  0  0  0
  1  7  1  0  0  0  0
  2  6  2  0  0  0  0
  3  4  1  0  0  0  0
  5 11  1  6  0  0  0
  5  6  1  0  0  0  0
  5  1  1  0  0  0  0
  6  3  1  0  0  0  0
  7  4  1  0  0  0  0
  8 10  2  0  0  0  0
  8 11  1  0  0  0  0
  9 11  2  0  0  0  0
 12  8  2  0  0  0  0
 13 17  1  1  0  0  0
 13 14  1  0  0  0  0
 13 16  1  0  0  0  0
 14  3  1  6  0  0  0
 14 16  1  0  0  0  0
 16 15  1  1  0  0  0
 18 21  1  0  0  0  0
 19 23  1  0  0  0  0
 20 18  1  0  0  0  0
 21 17  1  0  0  0  0
 22 20  1  0  0  0  0
 22 19  2  0  0  0  0
 23 21  2  0  0  0  0
 23 29  1  0  0  0  0
 24 26  2  6  0  0  0
 24 22  1  0  0  0  0
 25 24  1  0  0  0  0
 27 24  1  0  0  0  0
 28 27  1  0  0  0  0
 30 29  2  0  0  0  0
 32 31  1  0  0  0  0
 33 32  1  0  0  0  0
 34 39  1  0  0  0  0
 34 36  1  0  0  0  0
 36 40  1  0  0  0  0
 37 33  1  1  0  0  0
 38 35  1  6  0  0  0
 38 37  1  0  0  0  0
 39 38  1  0  0  0  0
 40 37  1  0  0  0  0
M  END
>  <MODEL>
3

>  <REMARK>
 VINA RESULT:      -6.3      2.619      3.898
  Name = 
  11 active torsions:
  status: ('A' for Active; 'I' for Inactive)
    1  A    between atoms: C_2  and  C_34
    2  A    between atoms: P_3  and  O_12
    3  A    between atoms: P_3  and  C_35
    4  A    between atoms: C_6  and  C_19
    5  A    between atoms: C_8  and  N_18
    6  A    between atoms: C_9  and  C_39
    7  A    between atoms: C_10  and  C_29
    8  A    between atoms: C_10  and  C_34
    9  A    between atoms: C_19  and  C_30
   10  A    between atoms: C_21  and  C_27
   11  A    between atoms: C_29  and  C_32
                            x       y       z     vdW  Elec       q    Type
                         _______ _______ _______ _____ _____    ______ ____

>  <TORSDO>
F 11

$$$$
=
 OpenBabel11072410503D

 40 43  0  0  1  0  0  0  0  0999 V2000
  159.8000  212.5360  152.3040 C   0  0  2  0  0  3  0  0  0  0  0  0
  159.2580  210.5450  155.3910 O   0  0  0  0  0  0  0  0  0  0  0  0
  160.1950  209.8690  153.3550 N   0  0  0  0  0  0  0  0  0  0  0  0
  160.3850  210.1660  151.9360 C   0  0  0  0  0  2  0  0  0  0  0  0
  159.5830  212.3210  153.8130 C   0  0  2  0  0  3  0  0  0  0  0  0
  159.6340  210.8670  154.2290 C   0  0  0  0  0  0  0  0  0  0  0  0
  160.8620  211.5960  151.7570 C   0  0  0  0  0  2  0  0  0  0  0  0
  158.3120  213.8770  155.3680 N   0  0  0  0  0  0  0  0  0  0  0  0
  157.2230  212.7030  153.6710 O   0  0  0  0  0  0  0  0  0  0  0  0
  159.4910  214.1850  156.0050 O   0  0  0  0  0  0  0  0  0  0  0  0
  158.3040  212.9660  154.2660 C   0  0  0  0  0  0  0  0  0  0  0  0
  157.2490  214.4030  155.7560 O   0  0  0  0  0  0  0  0  0  0  0  0
  161.5740  207.8440  153.2660 C   0  0  1  0  0  3  0  0  0  0  0  0
  160.2970  208.4770  153.7950 C   0  0  1  0  0  3  0  0  0  0  0  0
  161.2530  207.2570  155.6060 O   0  0  0  0  0  1  0  0  0  0  0  0
  161.4920  208.3100  154.7190 C   0  0  1  0  0  3  0  0  0  0  0  0
  161.3490  206.3490  153.0810 C   0  0  0  0  0  2  0  0  0  0  0  0
  161.6600  207.0450  150.6800 N   0  0  0  0  0  2  0  0  0  0  0  0
  161.2520  204.4800  149.7280 C   0  0  0  0  0  3  0  0  0  0  0  0
  161.7050  206.7660  149.3270 O   0  0  0  0  0  0  0  0  0  0  0  0
  161.4050  206.0010  151.6280 C   0  0  0  0  0  0  0  0  0  0  0  0
  161.5030  205.4630  148.8610 C   0  0  0  0  0  0  0  0  0  0  0  0
  161.1970  204.7490  151.1820 C   0  0  0  0  0  0  0  0  0  0  0  0
  161.5320  205.1290  147.1050 P   0  0  2  0  0  0  0  0  0  0  0  0
  162.8640  205.5710  146.5480 O   0  0  0  0  0  1  0  0  0  0  0  0
  160.2980  205.9940  146.3320 O   0  0  0  0  0  0  0  0  0  0  0  0
  161.3420  203.4680  146.8230 O   0  0  0  0  0  0  0  0  0  0  0  0
  161.2570  203.3310  145.4360 C   0  0  0  0  0  1  0  0  0  0  0  0
  160.9160  203.6460  152.1170 C   0  0  0  0  0  3  0  0  0  0  0  0
  160.9860  202.4110  151.7440 N   0  0  0  0  0  2  0  0  0  0  0  0
  160.2340  213.9660  152.0270 C   0  0  0  0  0  2  0  0  0  0  0  0
  159.6460  214.4470  150.7130 C   0  0  0  0  0  2  0  0  0  0  0  0
  160.7090  214.4360  149.6270 C   0  0  0  0  0  2  0  0  0  0  0  0
  162.5280  213.3360  146.5180 C   0  0  0  0  0  2  0  0  0  0  0  0
  159.4280  213.0090  146.3100 C   0  0  0  0  0  1  0  0  0  0  0  0
  162.8150  212.8490  147.9310 C   0  0  0  0  0  2  0  0  0  0  0  0
  160.4230  213.3520  148.5930 C   0  0  1  0  0  3  0  0  0  0  0  0
  160.1800  213.9740  147.2120 C   0  0  1  0  0  3  0  0  0  0  0  0
  161.4790  214.4450  146.5490 C   0  0  0  0  0  2  0  0  0  0  0  0
  161.5400  212.2970  148.5610 C   0  0  0  0  0  2  0  0  0  0  0  0
  1 31  1  1  0  0  0
  1  5  1  0  0  0  0
  3  6  1  0  0  0  0
  4  3  1  0  0  0  0
  5  6  1  0  0  0  0
  5 11  1  6  0  0  0
  6  2  2  0  0  0  0
  7  4  1  0  0  0  0
  7  1  1  0  0  0  0
  8 12  2  0  0  0  0
  8 10  2  0  0  0  0
  9 11  2  0  0  0  0
 11  8  1  0  0  0  0
 13 17  1  1  0  0  0
 13 14  1  0  0  0  0
 13 16  1  0  0  0  0
 14  3  1  6  0  0  0
 14 16  1  0  0  0  0
 16 15  1  1  0  0  0
 18 21  1  0  0  0  0
 19 23  1  0  0  0  0
 20 18  1  0  0  0  0
 21 17  1  0  0  0  0
 22 20  1  0  0  0  0
 22 19  2  0  0  0  0
 23 21  2  0  0  0  0
 23 29  1  0  0  0  0
 24 26  2  6  0  0  0
 24 22  1  0  0  0  0
 25 24  1  0  0  0  0
 27 24  1  0  0  0  0
 28 27  1  0  0  0  0
 30 29  2  0  0  0  0
 32 31  1  0  0  0  0
 33 32  1  0  0  0  0
 34 39  1  0  0  0  0
 34 36  1  0  0  0  0
 36 40  1  0  0  0  0
 37 33  1  1  0  0  0
 38 35  1  6  0  0  0
 38 37  1  0  0  0  0
 39 38  1  0  0  0  0
 40 37  1  0  0  0  0
M  END
>  <MODEL>
4

>  <REMARK>
 VINA RESULT:      -6.3      3.584      7.855
  Name = 
  11 active torsions:
  status: ('A' for Active; 'I' for Inactive)
    1  A    between atoms: C_2  and  C_34
    2  A    between atoms: P_3  and  O_12
    3  A    between atoms: P_3  and  C_35
    4  A    between atoms: C_6  and  C_19
    5  A    between atoms: C_8  and  N_18
    6  A    between atoms: C_9  and  C_39
    7  A    between atoms: C_10  and  C_29
    8  A    between atoms: C_10  and  C_34
    9  A    between atoms: C_19  and  C_30
   10  A    between atoms: C_21  and  C_27
   11  A    between atoms: C_29  and  C_32
                            x       y       z     vdW  Elec       q    Type
                         _______ _______ _______ _____ _____    ______ ____

>  <TORSDO>
F 11

$$$$
=
 OpenBabel11072410503D

 40 43  0  0  1  0  0  0  0  0999 V2000
  160.2770  210.3330  154.3380 C   0  0  2  0  0  3  0  0  0  0  0  0
  162.5100  207.7990  152.7980 O   0  0  0  0  0  0  0  0  0  0  0  0
  161.7230  209.8070  151.8880 N   0  0  0  0  0  0  0  0  0  0  0  0
  160.7520  210.8970  151.9830 C   0  0  0  0  0  2  0  0  0  0  0  0
  161.2820  209.1680  154.3360 C   0  0  2  0  0  3  0  0  0  0  0  0
  161.8470  208.8600  152.9660 C   0  0  0  0  0  0  0  0  0  0  0  0
  160.7130  211.4440  153.3980 C   0  0  0  0  0  2  0  0  0  0  0  0
  160.9430  207.6280  156.3280 N   0  0  0  0  0  0  0  0  0  0  0  0
  159.9400  207.1850  154.2680 O   0  0  0  0  0  0  0  0  0  0  0  0
  161.7290  208.4590  157.0910 O   0  0  0  0  0  0  0  0  0  0  0  0
  160.6790  207.9410  154.9580 C   0  0  0  0  0  0  0  0  0  0  0  0
  160.4560  206.6000  156.8430 O   0  0  0  0  0  0  0  0  0  0  0  0
  161.4100  208.6530  149.7480 C   0  0  1  0  0  3  0  0  0  0  0  0
  162.3300  209.5260  150.5860 C   0  0  1  0  0  3  0  0  0  0  0  0
  162.3260  210.4550  148.3920 O   0  0  0  0  0  1  0  0  0  0  0  0
  161.5010  210.1550  149.4790 C   0  0  1  0  0  3  0  0  0  0  0  0
  162.2520  207.8030  148.8060 C   0  0  0  0  0  2  0  0  0  0  0  0
  161.5860  205.8390  150.2360 N   0  0  0  0  0  2  0  0  0  0  0  0
  161.4130  204.1290  148.0680 C   0  0  0  0  0  3  0  0  0  0  0  0
  161.2360  204.5100  150.3950 O   0  0  0  0  0  0  0  0  0  0  0  0
  161.8620  206.3650  148.9320 C   0  0  0  0  0  0  0  0  0  0  0  0
  161.1470  203.6600  149.2890 C   0  0  0  0  0  0  0  0  0  0  0  0
  161.7900  205.5460  147.8670 C   0  0  0  0  0  0  0  0  0  0  0  0
  160.7270  201.9380  149.5200 P   0  0  2  0  0  0  0  0  0  0  0  0
  159.3250  201.7060  149.0090 O   0  0  0  0  0  0  0  0  0  0  0  0
  160.7860  201.5440  151.1660 O   0  0  0  0  0  1  0  0  0  0  0  0
  161.7990  200.9530  148.6490 O   0  0  0  0  0  0  0  0  0  0  0  0
  161.1030  200.5660  147.5020 C   0  0  0  0  0  1  0  0  0  0  0  0
  162.0800  206.0370  146.5090 C   0  0  0  0  0  3  0  0  0  0  0  0
  162.6890  205.2990  145.6410 N   0  0  0  0  0  2  0  0  0  0  0  0
  160.1360  210.9120  155.7370 C   0  0  0  0  0  2  0  0  0  0  0  0
  159.8220  212.3960  155.6600 C   0  0  0  0  0  2  0  0  0  0  0  0
  158.7250  212.7510  156.6500 C   0  0  0  0  0  2  0  0  0  0  0  0
  155.5810  211.5180  154.9830 C   0  0  0  0  0  2  0  0  0  0  0  0
  156.7290  214.1140  153.6770 C   0  0  0  0  0  1  0  0  0  0  0  0
  155.7440  211.8000  156.4700 C   0  0  0  0  0  2  0  0  0  0  0  0
  157.5750  213.4720  155.9560 C   0  0  1  0  0  3  0  0  0  0  0  0
  157.5060  213.0790  154.4740 C   0  0  1  0  0  3  0  0  0  0  0  0
  156.9220  211.6770  154.2700 C   0  0  0  0  0  2  0  0  0  0  0  0
  156.2410  213.2270  156.6790 C   0  0  0  0  0  2  0  0  0  0  0  0
  1 31  1  1  0  0  0
  2  6  2  0  0  0  0
  3  4  1  0  0  0  0
  3  6  1  0  0  0  0
  4  7  1  0  0  0  0
  5  1  1  0  0  0  0
  5 11  1  6  0  0  0
  6  5  1  0  0  0  0
  7  1  1  0  0  0  0
  8 12  2  0  0  0  0
  8 10  2  0  0  0  0
  9 11  2  0  0  0  0
 11  8  1  0  0  0  0
 13 17  1  6  0  0  0
 13 14  1  0  0  0  0
 14  3  1  1  0  0  0
 16 15  1  6  0  0  0
 16 13  1  0  0  0  0
 16 14  1  0  0  0  0
 17 21  1  0  0  0  0
 18 20  1  0  0  0  0
 19 22  2  0  0  0  0
 21 18  1  0  0  0  0
 22 24  1  0  0  0  0
 22 20  1  0  0  0  0
 23 19  1  0  0  0  0
 23 21  2  0  0  0  0
 24 25  2  6  0  0  0
 24 26  1  0  0  0  0
 27 24  1  0  0  0  0
 28 27  1  0  0  0  0
 29 23  1  0  0  0  0
 30 29  2  0  0  0  0
 32 31  1  0  0  0  0
 32 33  1  0  0  0  0
 34 36  1  0  0  0  0
 36 40  1  0  0  0  0
 37 33  1  1  0  0  0
 37 40  1  0  0  0  0
 38 35  1  6  0  0  0
 38 37  1  0  0  0  0
 39 38  1  0  0  0  0
 39 34  1  0  0  0  0
M  END
>  <MODEL>
5

>  <REMARK>
 VINA RESULT:      -5.8      4.342      8.426
  Name = 
  11 active torsions:
  status: ('A' for Active; 'I' for Inactive)
    1  A    between atoms: C_2  and  C_34
    2  A    between atoms: P_3  and  O_12
    3  A    between atoms: P_3  and  C_35
    4  A    between atoms: C_6  and  C_19
    5  A    between atoms: C_8  and  N_18
    6  A    between atoms: C_9  and  C_39
    7  A    between atoms: C_10  and  C_29
    8  A    between atoms: C_10  and  C_34
    9  A    between atoms: C_19  and  C_30
   10  A    between atoms: C_21  and  C_27
   11  A    between atoms: C_29  and  C_32
                            x       y       z     vdW  Elec       q    Type
                         _______ _______ _______ _____ _____    ______ ____

>  <TORSDO>
F 11

$$$$
=
 OpenBabel11072410503D

 40 43  0  0  1  0  0  0  0  0999 V2000
  161.4470  207.1050  150.2520 C   0  0  2  0  0  3  0  0  0  0  0  0
  161.4880  210.2940  152.1540 O   0  0  0  0  0  0  0  0  0  0  0  0
  161.8100  209.9490  149.8610 N   0  0  0  0  0  0  0  0  0  0  0  0
  162.0950  208.9890  148.7950 C   0  0  0  0  0  2  0  0  0  0  0  0
  161.1150  208.0390  151.4300 C   0  0  2  0  0  3  0  0  0  0  0  0
  161.5090  209.4790  151.1890 C   0  0  0  0  0  0  0  0  0  0  0  0
  161.1840  207.7820  148.9170 C   0  0  0  0  0  2  0  0  0  0  0  0
  161.0840  207.8010  153.9590 N   0  0  0  0  0  0  0  0  0  0  0  0
  162.7770  206.8420  152.6710 O   0  0  0  0  0  0  0  0  0  0  0  0
  159.9140  208.5220  154.0020 O   0  0  0  0  0  0  0  0  0  0  0  0
  161.7150  207.5220  152.7070 C   0  0  0  0  0  0  0  0  0  0  0  0
  161.5880  207.3860  155.0230 O   0  0  0  0  0  0  0  0  0  0  0  0
  161.6280  211.8020  148.2660 C   0  0  1  0  0  3  0  0  0  0  0  0
  162.1270  211.3590  149.6320 C   0  0  1  0  0  3  0  0  0  0  0  0
  161.0900  213.4820  149.9430 O   0  0  0  0  0  1  0  0  0  0  0  0
  160.8460  212.1700  149.5270 C   0  0  1  0  0  3  0  0  0  0  0  0
  162.5250  212.9170  147.7450 C   0  0  0  0  0  2  0  0  0  0  0  0
  163.6000  212.9400  145.4680 N   0  0  0  0  0  2  0  0  0  0  0  0
  161.1840  213.2970  144.1670 C   0  0  0  0  0  3  0  0  0  0  0  0
  163.5340  213.0400  144.0900 O   0  0  0  0  0  0  0  0  0  0  0  0
  162.4070  213.0130  146.2580 C   0  0  0  0  0  0  0  0  0  0  0  0
  162.3040  213.2140  143.4470 C   0  0  0  0  0  0  0  0  0  0  0  0
  161.2240  213.1940  145.6430 C   0  0  0  0  0  0  0  0  0  0  0  0
  162.2450  213.3750  141.6670 P   0  0  2  0  0  0  0  0  0  0  0  0
  163.3860  214.2580  141.2200 O   0  0  0  0  0  1  0  0  0  0  0  0
  160.7810  214.0870  141.2000 O   0  0  0  0  0  0  0  0  0  0  0  0
  162.4090  211.8530  140.9370 O   0  0  0  0  0  0  0  0  0  0  0  0
  161.5930  211.8910  139.8050 C   0  0  0  0  0  1  0  0  0  0  0  0
  159.9740  213.2910  146.4150 C   0  0  0  0  0  3  0  0  0  0  0  0
  159.4640  214.4360  146.7310 N   0  0  0  0  0  2  0  0  0  0  0  0
  160.6100  205.8390  150.3240 C   0  0  0  0  0  2  0  0  0  0  0  0
  161.3510  204.6830  149.6750 C   0  0  0  0  0  2  0  0  0  0  0  0
  160.8440  204.4650  148.2590 C   0  0  0  0  0  2  0  0  0  0  0  0
  160.7370  204.7630  144.5050 C   0  0  0  0  0  2  0  0  0  0  0  0
  163.5910  204.1270  145.6080 C   0  0  0  0  0  1  0  0  0  0  0  0
  160.2290  205.8050  145.4930 C   0  0  0  0  0  2  0  0  0  0  0  0
  161.8610  204.9560  147.2330 C   0  0  1  0  0  3  0  0  0  0  0  0
  162.2660  203.8180  146.2870 C   0  0  1  0  0  3  0  0  0  0  0  0
  161.1790  203.5060  145.2520 C   0  0  0  0  0  2  0  0  0  0  0  0
  161.3390  206.1820  146.4690 C   0  0  0  0  0  2  0  0  0  0  0  0
  1 31  1  1  0  0  0
  1  5  1  0  0  0  0
  3  6  1  0  0  0  0
  4  7  1  0  0  0  0
  4  3  1  0  0  0  0
  5 11  1  1  0  0  0
  6  5  1  0  0  0  0
  6  2  2  0  0  0  0
  7  1  1  0  0  0  0
  8 10  2  0  0  0  0
  8 12  2  0  0  0  0
  9 11  2  0  0  0  0
 11  8  1  0  0  0  0
 13 17  1  1  0  0  0
 13 16  1  0  0  0  0
 13 14  1  0  0  0  0
 14  3  1  6  0  0  0
 16 14  1  0  0  0  0
 16 15  1  1  0  0  0
 18 21  1  0  0  0  0
 19 23  1  0  0  0  0
 20 18  1  0  0  0  0
 21 17  1  0  0  0  0
 22 20  1  0  0  0  0
 22 19  2  0  0  0  0
 23 21  2  0  0  0  0
 23 29  1  0  0  0  0
 24 26  2  6  0  0  0
 24 22  1  0  0  0  0
 25 24  1  0  0  0  0
 27 24  1  0  0  0  0
 28 27  1  0  0  0  0
 29 30  2  0  0  0  0
 32 31  1  0  0  0  0
 33 32  1  0  0  0  0
 34 39  1  0  0  0  0
 34 36  1  0  0  0  0
 36 40  1  0  0  0  0
 37 33  1  1  0  0  0
 38 35  1  6  0  0  0
 38 37  1  0  0  0  0
 39 38  1  0  0  0  0
 40 37  1  0  0  0  0
M  END
>  <MODEL>
6

>  <REMARK>
 VINA RESULT:      -5.5      2.376      3.600
  Name = 
  11 active torsions:
  status: ('A' for Active; 'I' for Inactive)
    1  A    between atoms: C_2  and  C_34
    2  A    between atoms: P_3  and  O_12
    3  A    between atoms: P_3  and  C_35
    4  A    between atoms: C_6  and  C_19
    5  A    between atoms: C_8  and  N_18
    6  A    between atoms: C_9  and  C_39
    7  A    between atoms: C_10  and  C_29
    8  A    between atoms: C_10  and  C_34
    9  A    between atoms: C_19  and  C_30
   10  A    between atoms: C_21  and  C_27
   11  A    between atoms: C_29  and  C_32
                            x       y       z     vdW  Elec       q    Type
                         _______ _______ _______ _____ _____    ______ ____

>  <TORSDO>
F 11

$$$$
=
 OpenBabel11072410503D

 40 43  0  0  1  0  0  0  0  0999 V2000
  162.2090  208.9770  150.6170 C   0  0  2  0  0  3  0  0  0  0  0  0
  160.7550  212.3210  151.3160 O   0  0  0  0  0  0  0  0  0  0  0  0
  161.5810  211.4740  149.2960 N   0  0  0  0  0  0  0  0  0  0  0  0
  162.3790  210.4410  148.6370 C   0  0  0  0  0  2  0  0  0  0  0  0
  161.3580  210.0020  151.3880 C   0  0  2  0  0  3  0  0  0  0  0  0
  161.2400  211.3380  150.6890 C   0  0  0  0  0  0  0  0  0  0  0  0
  161.9610  209.0650  149.1200 C   0  0  0  0  0  2  0  0  0  0  0  0
  160.9550  210.1570  153.8920 N   0  0  0  0  0  0  0  0  0  0  0  0
  163.1030  210.3270  152.9970 O   0  0  0  0  0  0  0  0  0  0  0  0
  159.6100  209.9650  153.6760 O   0  0  0  0  0  0  0  0  0  0  0  0
  161.8670  210.1710  152.7910 C   0  0  0  0  0  0  0  0  0  0  0  0
  161.3730  210.3130  155.0580 O   0  0  0  0  0  0  0  0  0  0  0  0
  160.9400  212.5390  147.1830 C   0  0  1  0  0  3  0  0  0  0  0  0
  161.4020  212.7570  148.6150 C   0  0  1  0  0  3  0  0  0  0  0  0
  159.6500  214.3230  148.2200 O   0  0  0  0  0  1  0  0  0  0  0  0
  159.9380  212.9560  148.2590 C   0  0  1  0  0  3  0  0  0  0  0  0
  161.4370  213.6900  146.3190 C   0  0  0  0  0  2  0  0  0  0  0  0
  162.7600  212.9600  144.3040 N   0  0  0  0  0  2  0  0  0  0  0  0
  160.5100  212.7790  142.7050 C   0  0  0  0  0  3  0  0  0  0  0  0
  162.8500  212.5790  142.9780 O   0  0  0  0  0  0  0  0  0  0  0  0
  161.4870  213.2660  144.8860 C   0  0  0  0  0  0  0  0  0  0  0  0
  161.7030  212.4860  142.1840 C   0  0  0  0  0  0  0  0  0  0  0  0
  160.3830  213.1900  144.1210 C   0  0  0  0  0  0  0  0  0  0  0  0
  161.8450  212.0240  140.4630 P   0  0  2  0  0  0  0  0  0  0  0  0
  160.8200  212.7960  139.6660 O   0  0  0  0  0  0  0  0  0  0  0  0
  161.5500  210.3670  140.2820 O   0  0  0  0  0  1  0  0  0  0  0  0
  163.3930  212.4050  139.8820 O   0  0  0  0  0  0  0  0  0  0  0  0
  163.3860  212.0420  138.5340 C   0  0  0  0  0  1  0  0  0  0  0  0
  159.0550  213.5100  144.6710 C   0  0  0  0  0  3  0  0  0  0  0  0
  158.2240  212.5810  145.0100 N   0  0  0  0  0  2  0  0  0  0  0  0
  161.8890  207.5650  151.0770 C   0  0  0  0  0  2  0  0  0  0  0  0
  160.9910  206.8750  150.0650 C   0  0  0  0  0  2  0  0  0  0  0  0
  161.5690  205.5210  149.6880 C   0  0  0  0  0  2  0  0  0  0  0  0
  161.3040  202.5660  152.0080 C   0  0  0  0  0  2  0  0  0  0  0  0
  160.0540  202.0370  149.1940 C   0  0  0  0  0  1  0  0  0  0  0  0
  160.8310  203.9800  152.3160 C   0  0  0  0  0  2  0  0  0  0  0  0
  160.5260  204.4200  149.8410 C   0  0  1  0  0  3  0  0  0  0  0  0
  161.1380  203.0480  149.5290 C   0  0  1  0  0  3  0  0  0  0  0  0
  162.0320  202.5380  150.6660 C   0  0  0  0  0  2  0  0  0  0  0  0
  159.8710  204.4570  151.2310 C   0  0  0  0  0  2  0  0  0  0  0  0
  1 31  1  1  0  0  0
  1  5  1  0  0  0  0
  3  6  1  0  0  0  0
  4  7  1  0  0  0  0
  4  3  1  0  0  0  0
  5 11  1  1  0  0  0
  6  2  2  0  0  0  0
  6  5  1  0  0  0  0
  7  1  1  0  0  0  0
  8 12  2  0  0  0  0
 10  8  2  0  0  0  0
 11  9  2  0  0  0  0
 11  8  1  0  0  0  0
 13 17  1  6  0  0  0
 13 16  1  0  0  0  0
 13 14  1  0  0  0  0
 14  3  1  1  0  0  0
 16 15  1  6  0  0  0
 16 14  1  0  0  0  0
 18 21  1  0  0  0  0
 19 23  1  0  0  0  0
 20 18  1  0  0  0  0
 21 17  1  0  0  0  0
 22 19  2  0  0  0  0
 22 20  1  0  0  0  0
 23 29  1  0  0  0  0
 23 21  2  0  0  0  0
 24 25  2  6  0  0  0
 24 22  1  0  0  0  0
 26 24  1  0  0  0  0
 27 24  1  0  0  0  0
 28 27  1  0  0  0  0
 29 30  2  0  0  0  0
 32 31  1  0  0  0  0
 33 32  1  0  0  0  0
 34 36  1  0  0  0  0
 37 33  1  1  0  0  0
 37 40  1  0  0  0  0
 38 35  1  1  0  0  0
 38 37  1  0  0  0  0
 38 39  1  0  0  0  0
 39 34  1  0  0  0  0
 40 36  1  0  0  0  0
M  END
>  <MODEL>
7

>  <REMARK>
 VINA RESULT:      -5.5      2.315      3.715
  Name = 
  11 active torsions:
  status: ('A' for Active; 'I' for Inactive)
    1  A    between atoms: C_2  and  C_34
    2  A    between atoms: P_3  and  O_12
    3  A    between atoms: P_3  and  C_35
    4  A    between atoms: C_6  and  C_19
    5  A    between atoms: C_8  and  N_18
    6  A    between atoms: C_9  and  C_39
    7  A    between atoms: C_10  and  C_29
    8  A    between atoms: C_10  and  C_34
    9  A    between atoms: C_19  and  C_30
   10  A    between atoms: C_21  and  C_27
   11  A    between atoms: C_29  and  C_32
                            x       y       z     vdW  Elec       q    Type
                         _______ _______ _______ _____ _____    ______ ____

>  <TORSDO>
F 11

$$$$
=
 OpenBabel11072410503D

 40 43  0  0  1  0  0  0  0  0999 V2000
  160.9910  204.2580  150.5530 C   0  0  2  0  0  3  0  0  0  0  0  0
  162.1520  207.7810  150.7100 O   0  0  0  0  0  0  0  0  0  0  0  0
  161.7500  206.2890  152.4690 N   0  0  0  0  0  0  0  0  0  0  0  0
  161.1310  205.0330  152.8920 C   0  0  0  0  0  2  0  0  0  0  0  0
  161.6410  205.5440  150.0140 C   0  0  2  0  0  3  0  0  0  0  0  0
  161.8320  206.6130  151.0680 C   0  0  0  0  0  0  0  0  0  0  0  0
  161.5090  203.9140  151.9400 C   0  0  0  0  0  2  0  0  0  0  0  0
  161.4870  206.1360  147.5480 N   0  0  0  0  0  0  0  0  0  0  0  0
  159.6870  206.4780  148.9920 O   0  0  0  0  0  0  0  0  0  0  0  0
  162.7730  205.6810  147.3700 O   0  0  0  0  0  0  0  0  0  0  0  0
  160.8740  206.0790  148.8380 C   0  0  0  0  0  0  0  0  0  0  0  0
  160.8580  206.5930  146.5720 O   0  0  0  0  0  0  0  0  0  0  0  0
  160.8200  208.2720  153.5700 C   0  0  1  0  0  3  0  0  0  0  0  0
  162.0000  207.3180  153.4790 C   0  0  1  0  0  3  0  0  0  0  0  0
  161.5800  207.6620  155.8000 O   0  0  0  0  0  1  0  0  0  0  0  0
  161.0060  207.1780  154.6210 C   0  0  1  0  0  3  0  0  0  0  0  0
  161.3200  209.6430  154.0060 C   0  0  0  0  0  2  0  0  0  0  0  0
  159.6260  210.3650  155.7250 N   0  0  0  0  0  2  0  0  0  0  0  0
  158.4480  212.1920  154.0140 C   0  0  0  0  0  3  0  0  0  0  0  0
  158.5490  211.1320  156.1260 O   0  0  0  0  0  0  0  0  0  0  0  0
  160.1650  210.5040  154.4050 C   0  0  0  0  0  0  0  0  0  0  0  0
  157.9680  212.0560  155.2520 C   0  0  0  0  0  0  0  0  0  0  0  0
  159.6000  211.3830  153.5570 C   0  0  0  0  0  0  0  0  0  0  0  0
  156.5540  213.0150  155.7790 P   0  0  2  0  0  0  0  0  0  0  0  0
  156.2670  214.0710  154.7380 O   0  0  0  0  0  0  0  0  0  0  0  0
  156.8870  213.7730  157.2550 O   0  0  0  0  0  1  0  0  0  0  0  0
  155.1940  212.0130  155.9340 O   0  0  0  0  0  0  0  0  0  0  0  0
  155.6490  210.7210  155.6620 C   0  0  0  0  0  1  0  0  0  0  0  0
  160.1090  211.5500  152.1850 C   0  0  0  0  0  3  0  0  0  0  0  0
  159.8980  212.6350  151.5150 N   0  0  0  0  0  2  0  0  0  0  0  0
  161.2780  203.0880  149.6270 C   0  0  0  0  0  2  0  0  0  0  0  0
  160.2000  202.0280  149.7710 C   0  0  0  0  0  2  0  0  0  0  0  0
  159.7120  201.5870  148.4010 C   0  0  0  0  0  2  0  0  0  0  0  0
  160.4680  202.1580  144.7560 C   0  0  0  0  0  2  0  0  0  0  0  0
  161.5690  199.4380  145.8290 C   0  0  0  0  0  1  0  0  0  0  0  0
  160.8000  203.1160  145.8910 C   0  0  0  0  0  2  0  0  0  0  0  0
  160.8800  201.1740  147.5130 C   0  0  1  0  0  3  0  0  0  0  0  0
  160.4050  200.2330  146.3970 C   0  0  1  0  0  3  0  0  0  0  0  0
  159.6560  200.9790  145.2870 C   0  0  0  0  0  2  0  0  0  0  0  0
  161.6230  202.3980  146.9560 C   0  0  0  0  0  2  0  0  0  0  0  0
  1 31  1  6  0  0  0
  1  7  1  0  0  0  0
  2  6  2  0  0  0  0
  3  4  1  0  0  0  0
  5 11  1  6  0  0  0
  5  1  1  0  0  0  0
  5  6  1  0  0  0  0
  6  3  1  0  0  0  0
  7  4  1  0  0  0  0
  8 11  1  0  0  0  0
 10  8  2  0  0  0  0
 11  9  2  0  0  0  0
 12  8  2  0  0  0  0
 13 17  1  1  0  0  0
 13 16  1  0  0  0  0
 14  3  1  6  0  0  0
 14 13  1  0  0  0  0
 14 16  1  0  0  0  0
 16 15  1  1  0  0  0
 17 21  1  0  0  0  0
 18 20  1  0  0  0  0
 19 22  2  0  0  0  0
 21 18  1  0  0  0  0
 22 24  1  0  0  0  0
 22 20  1  0  0  0  0
 23 19  1  0  0  0  0
 23 21  2  0  0  0  0
 24 25  2  6  0  0  0
 24 27  1  0  0  0  0
 24 26  1  0  0  0  0
 28 27  1  0  0  0  0
 29 23  1  0  0  0  0
 30 29  2  0  0  0  0
 31 32  1  0  0  0  0
 33 32  1  0  0  0  0
 34 39  1  0  0  0  0
 34 36  1  0  0  0  0
 36 40  1  0  0  0  0
 37 33  1  6  0  0  0
 38 35  1  6  0  0  0
 38 37  1  0  0  0  0
 39 38  1  0  0  0  0
 40 37  1  0  0  0  0
M  END
>  <MODEL>
8

>  <REMARK>
 VINA RESULT:      -5.5      4.346      7.735
  Name = 
  11 active torsions:
  status: ('A' for Active; 'I' for Inactive)
    1  A    between atoms: C_2  and  C_34
    2  A    between atoms: P_3  and  O_12
    3  A    between atoms: P_3  and  C_35
    4  A    between atoms: C_6  and  C_19
    5  A    between atoms: C_8  and  N_18
    6  A    between atoms: C_9  and  C_39
    7  A    between atoms: C_10  and  C_29
    8  A    between atoms: C_10  and  C_34
    9  A    between atoms: C_19  and  C_30
   10  A    between atoms: C_21  and  C_27
   11  A    between atoms: C_29  and  C_32
                            x       y       z     vdW  Elec       q    Type
                         _______ _______ _______ _____ _____    ______ ____

>  <TORSDO>
F 11

$$$$
=
 OpenBabel11072410503D

 40 43  0  0  1  0  0  0  0  0999 V2000
  162.1580  209.1370  150.6670 C   0  0  2  0  0  3  0  0  0  0  0  0
  160.4810  212.4240  151.0770 O   0  0  0  0  0  0  0  0  0  0  0  0
  161.4240  211.4880  149.1490 N   0  0  0  0  0  0  0  0  0  0  0  0
  162.3040  210.4630  148.5900 C   0  0  0  0  0  2  0  0  0  0  0  0
  161.2210  210.1580  151.3360 C   0  0  2  0  0  3  0  0  0  0  0  0
  161.0460  211.4320  150.5380 C   0  0  0  0  0  0  0  0  0  0  0  0
  161.9540  209.1010  149.1610 C   0  0  0  0  0  2  0  0  0  0  0  0
  160.7100  210.7320  153.7580 N   0  0  0  0  0  0  0  0  0  0  0  0
  162.9040  210.4710  153.0110 O   0  0  0  0  0  0  0  0  0  0  0  0
  159.3650  210.6990  153.4710 O   0  0  0  0  0  0  0  0  0  0  0  0
  161.6730  210.4590  152.7370 C   0  0  0  0  0  0  0  0  0  0  0  0
  161.0820  210.9980  154.9200 O   0  0  0  0  0  0  0  0  0  0  0  0
  160.7210  212.3570  146.9670 C   0  0  1  0  0  3  0  0  0  0  0  0
  161.1890  212.7050  148.3710 C   0  0  1  0  0  3  0  0  0  0  0  0
  159.3760  214.1710  147.8770 O   0  0  0  0  0  1  0  0  0  0  0  0
  159.7150  212.8230  148.0200 C   0  0  1  0  0  3  0  0  0  0  0  0
  161.1650  213.4530  146.0080 C   0  0  0  0  0  2  0  0  0  0  0  0
  160.0870  212.1610  144.1340 N   0  0  0  0  0  2  0  0  0  0  0  0
  162.2330  212.5470  142.4320 C   0  0  0  0  0  3  0  0  0  0  0  0
  160.0900  211.6410  142.8530 O   0  0  0  0  0  0  0  0  0  0  0  0
  161.2030  212.9230  144.6110 C   0  0  0  0  0  0  0  0  0  0  0  0
  161.1800  211.8500  142.0020 C   0  0  0  0  0  0  0  0  0  0  0  0
  162.2580  213.1150  143.7980 C   0  0  0  0  0  0  0  0  0  0  0  0
  161.1780  211.1400  140.3610 P   0  0  2  0  0  0  0  0  0  0  0  0
  159.7940  211.2780  139.7730 O   0  0  0  0  0  0  0  0  0  0  0  0
  161.5820  209.4980  140.4410 O   0  0  0  0  0  1  0  0  0  0  0  0
  162.2810  211.9620  139.3690 O   0  0  0  0  0  0  0  0  0  0  0  0
  163.2950  211.0430  139.0960 C   0  0  0  0  0  1  0  0  0  0  0  0
  163.4340  213.8780  144.2490 C   0  0  0  0  0  3  0  0  0  0  0  0
  164.2460  214.4250  143.4060 N   0  0  0  0  0  2  0  0  0  0  0  0
  161.9090  207.7430  151.2200 C   0  0  0  0  0  2  0  0  0  0  0  0
  161.0220  206.9550  150.2730 C   0  0  0  0  0  2  0  0  0  0  0  0
  161.6880  206.8310  148.9120 C   0  0  0  0  0  2  0  0  0  0  0  0
  162.1500  203.7320  146.8220 C   0  0  0  0  0  2  0  0  0  0  0  0
  160.3260  205.8720  145.4620 C   0  0  0  0  0  1  0  0  0  0  0  0
  161.6710  203.7630  148.2670 C   0  0  0  0  0  2  0  0  0  0  0  0
  160.7800  206.1080  147.9230 C   0  0  1  0  0  3  0  0  0  0  0  0
  161.3910  206.1260  146.5160 C   0  0  1  0  0  3  0  0  0  0  0  0
  162.5510  205.1350  146.3730 C   0  0  0  0  0  2  0  0  0  0  0  0
  160.4590  204.6810  148.3940 C   0  0  0  0  0  2  0  0  0  0  0  0
  1 31  1  1  0  0  0
  1  5  1  0  0  0  0
  3  6  1  0  0  0  0
  4  3  1  0  0  0  0
  4  7  1  0  0  0  0
  5 11  1  1  0  0  0
  6  2  2  0  0  0  0
  6  5  1  0  0  0  0
  7  1  1  0  0  0  0
  8 12  2  0  0  0  0
 10  8  2  0  0  0  0
 11  9  2  0  0  0  0
 11  8  1  0  0  0  0
 13 17  1  6  0  0  0
 13 16  1  0  0  0  0
 13 14  1  0  0  0  0
 14  3  1  1  0  0  0
 16 15  1  6  0  0  0
 16 14  1  0  0  0  0
 18 21  1  0  0  0  0
 19 23  1  0  0  0  0
 20 18  1  0  0  0  0
 21 17  1  0  0  0  0
 22 19  2  0  0  0  0
 22 20  1  0  0  0  0
 23 29  1  0  0  0  0
 23 21  2  0  0  0  0
 24 25  2  6  0  0  0
 24 26  1  0  0  0  0
 24 22  1  0  0  0  0
 27 24  1  0  0  0  0
 28 27  1  0  0  0  0
 30 29  2  0  0  0  0
 32 31  1  0  0  0  0
 33 32  1  0  0  0  0
 34 36  1  0  0  0  0
 36 40  1  0  0  0  0
 37 40  1  0  0  0  0
 37 33  1  1  0  0  0
 38 35  1  6  0  0  0
 38 37  1  0  0  0  0
 39 38  1  0  0  0  0
 39 34  1  0  0  0  0
M  END
>  <MODEL>
9

>  <REMARK>
 VINA RESULT:      -5.4      2.490      3.702
  Name = 
  11 active torsions:
  status: ('A' for Active; 'I' for Inactive)
    1  A    between atoms: C_2  and  C_34
    2  A    between atoms: P_3  and  O_12
    3  A    between atoms: P_3  and  C_35
    4  A    between atoms: C_6  and  C_19
    5  A    between atoms: C_8  and  N_18
    6  A    between atoms: C_9  and  C_39
    7  A    between atoms: C_10  and  C_29
    8  A    between atoms: C_10  and  C_34
    9  A    between atoms: C_19  and  C_30
   10  A    between atoms: C_21  and  C_27
   11  A    between atoms: C_29  and  C_32
                            x       y       z     vdW  Elec       q    Type
                         _______ _______ _______ _____ _____    ______ ____

>  <TORSDO>
F 11

$$$$
