=
 OpenBabel11072412543D

 41 43  0  0  1  0  0  0  0  0999 V2000
  160.1650  210.6980  154.2810 C   0  0  1  0  0  3  0  0  0  0  0  0
  160.4250  211.8940  153.4740 N   0  0  0  0  0  2  0  0  0  0  0  0
  161.1990  212.7280  149.1550 N   0  0  0  0  0  2  0  0  0  0  0  0
  160.5780  211.6550  151.1410 O   0  0  0  0  0  0  0  0  0  0  0  0
  159.0060  213.2050  151.9710 C   0  0  0  0  0  2  0  0  0  0  0  0
  159.4690  213.6890  150.5960 C   0  0  1  0  0  3  0  0  0  0  0  0
  159.6820  211.8490  152.2200 C   0  0  2  0  0  3  0  0  0  0  0  0
  160.4720  212.6710  150.2210 C   0  0  0  0  0  0  0  0  0  0  0  0
  158.4660  214.2160  148.3570 O   0  0  0  0  0  0  0  0  0  0  0  0
  157.2160  213.2040  149.9900 O   0  0  0  0  0  1  0  0  0  0  0  0
  158.3220  213.6870  149.6360 C   0  0  0  0  0  0  0  0  0  0  0  0
  161.1180  209.5350  153.9270 C   0  0  2  0  0  3  0  0  0  0  0  0
  159.3580  208.2000  155.1520 C   0  0  0  0  0  1  0  0  0  0  0  0
  161.7060  208.1440  155.9300 C   0  0  0  0  0  1  0  0  0  0  0  0
  160.8130  208.2260  154.6970 C   0  0  0  0  0  0  0  0  0  0  0  0
  161.1120  207.0230  153.7880 C   0  0  0  0  0  2  0  0  0  0  0  0
  161.4280  207.4020  152.3400 C   0  0  0  0  0  2  0  0  0  0  0  0
  160.2920  202.2090  149.2120 C   0  0  2  0  0  3  0  0  0  0  0  0
  161.3180  204.8310  149.6140 C   0  0  0  0  0  0  0  0  0  0  0  0
  160.2470  200.8290  149.2340 F   0  0  0  0  0  0  0  0  0  0  0  0
  161.4650  202.6760  148.3500 C   0  0  0  0  0  2  0  0  0  0  0  0
  160.7740  205.0630  151.8130 C   0  0  0  0  0  3  0  0  0  0  0  0
  160.4310  202.7390  150.6430 C   0  0  0  0  0  2  0  0  0  0  0  0
  161.2820  206.2280  151.4290 C   0  0  0  0  0  0  0  0  0  0  0  0
  161.4860  204.2050  148.2580 C   0  0  0  0  0  2  0  0  0  0  0  0
  160.7830  204.1980  150.6480 C   0  0  0  0  0  0  0  0  0  0  0  0
  161.6560  206.2400  149.9770 C   0  0  2  0  0  3  0  0  0  0  0  0
  161.6180  208.3170  148.5980 C   0  0  0  0  0  1  0  0  0  0  0  0
  160.7730  207.2230  149.2200 C   0  0  0  0  0  2  0  0  0  0  0  0
  163.0260  210.3110  152.6950 O   0  0  0  0  0  1  0  0  0  0  0  0
  162.5910  209.9520  153.9700 C   0  0  0  0  0  2  0  0  0  0  0  0
  160.0220  211.0610  156.0730 S   0  0  0  0  0  0  0  0  0  0  0  0
  159.3980  212.7450  155.7860 C   0  0  0  0  0  2  0  0  0  0  0  0
  157.9640  213.9590  157.2480 O   0  0  0  0  0  1  0  0  0  0  0  0
  157.9960  212.8910  156.3510 C   0  0  1  0  0  3  0  0  0  0  0  0
  157.0960  214.1480  154.5320 O   0  0  0  0  0  0  0  0  0  0  0  0
  157.0050  213.1200  155.2530 C   0  0  0  0  0  0  0  0  0  0  0  0
  155.9660  212.1740  154.9910 N   0  0  0  0  0  2  0  0  0  0  0  0
  155.1550  209.9960  154.9950 O   0  0  0  0  0  1  0  0  0  0  0  0
  154.9480  211.2580  156.8770 O   0  0  0  0  0  1  0  0  0  0  0  0
  155.7650  210.9710  155.7830 C   0  0  0  0  0  3  0  0  0  0  0  0
  1  2  1  6  0  0  0
  1 32  1  0  0  0  0
  3  8  2  0  0  0  0
  4  7  1  0  0  0  0
  5  7  1  0  0  0  0
  6 11  1  6  0  0  0
  6  5  1  0  0  0  0
  7  2  1  1  0  0  0
  8  6  1  0  0  0  0
  8  4  1  0  0  0  0
  9 11  2  0  0  0  0
 11 10  1  0  0  0  0
 12 31  1  1  0  0  0
 12  1  1  0  0  0  0
 12 15  1  0  0  0  0
 15 13  1  0  0  0  0
 15 14  1  0  0  0  0
 16 15  1  0  0  0  0
 17 16  1  0  0  0  0
 18 20  1  1  0  0  0
 18 23  1  0  0  0  0
 19 27  1  0  0  0  0
 19 26  2  0  0  0  0
 21 18  1  0  0  0  0
 23 26  1  0  0  0  0
 24 22  2  0  0  0  0
 24 17  1  0  0  0  0
 25 21  1  0  0  0  0
 25 19  1  0  0  0  0
 26 22  1  0  0  0  0
 27 29  1  6  0  0  0
 27 24  1  0  0  0  0
 28 29  1  0  0  0  0
 30 31  1  0  0  0  0
 33 32  1  0  0  0  0
 33 35  1  0  0  0  0
 35 34  1  1  0  0  0
 36 37  2  0  0  0  0
 37 35  1  0  0  0  0
 38 37  1  0  0  0  0
 38 41  1  0  0  0  0
 39 41  1  0  0  0  0
 41 40  1  0  0  0  0
M  END
>  <MODEL>
1

>  <REMARK>
 VINA RESULT:      -6.2      0.000      0.000
  Name = 
  15 active torsions:
  status: ('A' for Active; 'I' for Inactive)
    1  A    between atoms: N_5  and  C_9
    2  A    between atoms: N_5  and  C_26
    3  A    between atoms: C_9  and  C_10
    4  A    between atoms: C_9  and  S_33
    5  A    between atoms: C_10  and  C_27
    6  A    between atoms: C_10  and  C_35
    7  A    between atoms: C_12  and  C_22
    8  A    between atoms: C_23  and  C_35
    9  A    between atoms: C_23  and  C_41
   10  A    between atoms: C_28  and  C_29
   11  A    between atoms: C_28  and  S_33
   12  A    between atoms: C_29  and  C_32
   13  A    between atoms: C_31  and  C_41
   14  A    between atoms: N_34  and  C_39
   15  A    between atoms: C_38  and  C_40
                            x       y       z     vdW  Elec       q    Type
                         _______ _______ _______ _____ _____    ______ ____

>  <TORSDO>
F 15

$$$$
=
 OpenBabel11072412543D

 41 43  0  0  1  0  0  0  0  0999 V2000
  161.0550  210.4980  151.7270 C   0  0  1  0  0  3  0  0  0  0  0  0
  160.2600  209.4830  152.4260 N   0  0  0  0  0  2  0  0  0  0  0  0
  159.5990  210.3650  156.7540 N   0  0  0  0  0  2  0  0  0  0  0  0
  159.9090  209.2220  154.7350 O   0  0  0  0  0  0  0  0  0  0  0  0
  161.9660  210.1480  154.0490 C   0  0  0  0  0  2  0  0  0  0  0  0
  161.6300  210.7100  155.4320 C   0  0  1  0  0  3  0  0  0  0  0  0
  160.8720  209.1290  153.7010 C   0  0  2  0  0  3  0  0  0  0  0  0
  160.3160  210.0970  155.7140 C   0  0  0  0  0  0  0  0  0  0  0  0
  162.6730  208.9520  156.8870 O   0  0  0  0  0  1  0  0  0  0  0  0
  163.4990  211.0890  156.8610 O   0  0  0  0  0  0  0  0  0  0  0  0
  162.6520  210.2660  156.4310 C   0  0  0  0  0  0  0  0  0  0  0  0
  161.2790  210.1440  150.2400 C   0  0  2  0  0  3  0  0  0  0  0  0
  162.8080  208.3680  151.1810 C   0  0  0  0  0  1  0  0  0  0  0  0
  162.7070  208.7330  148.7360 C   0  0  0  0  0  1  0  0  0  0  0  0
  161.8890  208.7370  150.0220 C   0  0  0  0  0  0  0  0  0  0  0  0
  160.7540  207.7090  149.8900 C   0  0  0  0  0  2  0  0  0  0  0  0
  160.8310  206.5640  150.9020 C   0  0  0  0  0  2  0  0  0  0  0  0
  161.3230  201.4810  147.4430 C   0  0  2  0  0  3  0  0  0  0  0  0
  160.6140  203.0070  149.7360 C   0  0  0  0  0  0  0  0  0  0  0  0
  161.2060  200.9170  146.1880 F   0  0  0  0  0  0  0  0  0  0  0  0
  160.2040  200.9640  148.3490 C   0  0  0  0  0  2  0  0  0  0  0  0
  161.2030  205.0640  148.9550 C   0  0  0  0  0  3  0  0  0  0  0  0
  161.2600  203.0070  147.3260 C   0  0  0  0  0  2  0  0  0  0  0  0
  160.8310  205.2360  150.2180 C   0  0  0  0  0  0  0  0  0  0  0  0
  160.3620  201.5260  149.7660 C   0  0  0  0  0  2  0  0  0  0  0  0
  161.0810  203.6450  148.6720 C   0  0  0  0  0  0  0  0  0  0  0  0
  160.4470  203.9480  150.8830 C   0  0  2  0  0  3  0  0  0  0  0  0
  161.1360  204.4710  153.2220 C   0  0  0  0  0  1  0  0  0  0  0  0
  161.4320  203.6250  151.9990 C   0  0  0  0  0  2  0  0  0  0  0  0
  161.1660  211.7810  148.4890 O   0  0  0  0  0  1  0  0  0  0  0  0
  162.0010  211.2590  149.4760 C   0  0  0  0  0  2  0  0  0  0  0  0
  160.4620  212.2070  152.0340 S   0  0  0  0  0  0  0  0  0  0  0  0
  158.7770  211.6590  152.4400 C   0  0  0  0  0  2  0  0  0  0  0  0
  159.3230  213.1080  154.2480 O   0  0  0  0  0  1  0  0  0  0  0  0
  158.3460  212.2290  153.7790 C   0  0  1  0  0  3  0  0  0  0  0  0
  156.7940  213.6250  152.6200 O   0  0  0  0  0  0  0  0  0  0  0  0
  157.0370  212.9460  153.6520 C   0  0  0  0  0  0  0  0  0  0  0  0
  156.0450  212.8530  154.6770 N   0  0  0  0  0  2  0  0  0  0  0  0
  156.0080  210.7590  155.6850 O   0  0  0  0  0  1  0  0  0  0  0  0
  155.3570  212.5790  156.8860 O   0  0  0  0  0  1  0  0  0  0  0  0
  156.2430  212.1150  155.9140 C   0  0  0  0  0  3  0  0  0  0  0  0
  1 32  1  6  0  0  0
  1  2  1  0  0  0  0
  4  8  1  0  0  0  0
  5  6  1  0  0  0  0
  6  8  1  0  0  0  0
  6 11  1  1  0  0  0
  7  2  1  6  0  0  0
  7  5  1  0  0  0  0
  7  4  1  0  0  0  0
  8  3  2  0  0  0  0
 11 10  2  0  0  0  0
 11  9  1  0  0  0  0
 12 31  1  1  0  0  0
 12  1  1  0  0  0  0
 14 15  1  0  0  0  0
 15 12  1  0  0  0  0
 15 13  1  0  0  0  0
 16 15  1  0  0  0  0
 16 17  1  0  0  0  0
 18 20  1  6  0  0  0
 18 21  1  0  0  0  0
 19 25  1  0  0  0  0
 19 27  1  0  0  0  0
 21 25  1  0  0  0  0
 22 24  2  0  0  0  0
 23 18  1  0  0  0  0
 23 26  1  0  0  0  0
 24 27  1  0  0  0  0
 24 17  1  0  0  0  0
 26 22  1  0  0  0  0
 26 19  2  0  0  0  0
 27 29  1  1  0  0  0
 29 28  1  0  0  0  0
 30 31  1  0  0  0  0
 32 33  1  0  0  0  0
 33 35  1  0  0  0  0
 35 34  1  6  0  0  0
 36 37  2  0  0  0  0
 37 35  1  0  0  0  0
 37 38  1  0  0  0  0
 38 41  1  0  0  0  0
 39 41  1  0  0  0  0
 41 40  1  0  0  0  0
M  END
>  <MODEL>
2

>  <REMARK>
 VINA RESULT:      -5.8      2.167      4.588
  Name = 
  15 active torsions:
  status: ('A' for Active; 'I' for Inactive)
    1  A    between atoms: N_5  and  C_9
    2  A    between atoms: N_5  and  C_26
    3  A    between atoms: C_9  and  C_10
    4  A    between atoms: C_9  and  S_33
    5  A    between atoms: C_10  and  C_27
    6  A    between atoms: C_10  and  C_35
    7  A    between atoms: C_12  and  C_22
    8  A    between atoms: C_23  and  C_35
    9  A    between atoms: C_23  and  C_41
   10  A    between atoms: C_28  and  C_29
   11  A    between atoms: C_28  and  S_33
   12  A    between atoms: C_29  and  C_32
   13  A    between atoms: C_31  and  C_41
   14  A    between atoms: N_34  and  C_39
   15  A    between atoms: C_38  and  C_40
                            x       y       z     vdW  Elec       q    Type
                         _______ _______ _______ _____ _____    ______ ____

>  <TORSDO>
F 15

$$$$
=
 OpenBabel11072412543D

 41 43  0  0  1  0  0  0  0  0999 V2000
  161.4180  208.5130  150.5860 C   0  0  1  0  0  3  0  0  0  0  0  0
  162.1000  207.4100  149.9020 N   0  0  0  0  0  2  0  0  0  0  0  0
  161.2450  203.4070  148.1140 N   0  0  0  0  0  2  0  0  0  0  0  0
  160.9690  205.5060  149.1120 O   0  0  0  0  0  0  0  0  0  0  0  0
  162.0490  206.8660  147.5160 C   0  0  0  0  0  2  0  0  0  0  0  0
  162.0360  205.4310  146.9860 C   0  0  1  0  0  3  0  0  0  0  0  0
  161.2670  206.8630  148.8370 C   0  0  2  0  0  3  0  0  0  0  0  0
  161.3880  204.6900  148.0880 C   0  0  0  0  0  0  0  0  0  0  0  0
  160.1990  206.2650  145.4950 O   0  0  0  0  0  1  0  0  0  0  0  0
  161.4580  204.4470  144.8940 O   0  0  0  0  0  0  0  0  0  0  0  0
  161.2190  205.3500  145.7350 C   0  0  0  0  0  0  0  0  0  0  0  0
  160.9930  208.1360  152.0230 C   0  0  2  0  0  3  0  0  0  0  0  0
  162.3610  210.0950  152.8420 C   0  0  0  0  0  1  0  0  0  0  0  0
  161.0090  208.7840  154.4460 C   0  0  0  0  0  1  0  0  0  0  0  0
  161.0610  209.3200  153.0200 C   0  0  0  0  0  0  0  0  0  0  0  0
  159.8520  210.2410  152.7930 C   0  0  0  0  0  2  0  0  0  0  0  0
  159.8870  211.5280  153.6200 C   0  0  0  0  0  2  0  0  0  0  0  0
  154.8670  211.0330  157.1700 C   0  0  2  0  0  3  0  0  0  0  0  0
  157.2130  212.2700  156.1400 C   0  0  0  0  0  0  0  0  0  0  0  0
  153.5380  210.6680  157.2530 F   0  0  0  0  0  0  0  0  0  0  0  0
  154.9920  212.5550  157.2600 C   0  0  0  0  0  2  0  0  0  0  0  0
  157.7230  210.7270  154.5450 C   0  0  0  0  0  3  0  0  0  0  0  0
  155.4570  210.5220  155.8510 C   0  0  0  0  0  2  0  0  0  0  0  0
  158.7120  211.6130  154.5380 C   0  0  0  0  0  0  0  0  0  0  0  0
  156.4660  212.9720  157.2400 C   0  0  0  0  0  2  0  0  0  0  0  0
  156.7940  211.1450  155.5790 C   0  0  0  0  0  0  0  0  0  0  0  0
  158.5320  212.6820  155.5740 C   0  0  2  0  0  3  0  0  0  0  0  0
  160.4430  213.8580  156.6620 C   0  0  0  0  0  1  0  0  0  0  0  0
  159.6300  212.5790  156.6240 C   0  0  0  0  0  2  0  0  0  0  0  0
  160.8130  205.7780  152.4320 O   0  0  0  0  0  1  0  0  0  0  0  0
  161.6840  206.8630  152.5220 C   0  0  0  0  0  2  0  0  0  0  0  0
  162.3130  210.1080  150.4370 S   0  0  0  0  0  0  0  0  0  0  0  0
  161.9130  210.2840  148.6730 C   0  0  0  0  0  2  0  0  0  0  0  0
  161.1480  212.3590  149.5560 O   0  0  0  0  0  1  0  0  0  0  0  0
  161.4920  211.7120  148.3680 C   0  0  1  0  0  3  0  0  0  0  0  0
  163.7160  212.5740  148.2560 O   0  0  0  0  0  0  0  0  0  0  0  0
  162.5990  212.4550  147.6870 C   0  0  0  0  0  0  0  0  0  0  0  0
  162.4160  213.0140  146.3840 N   0  0  0  0  0  2  0  0  0  0  0  0
  161.4140  212.9350  144.2880 O   0  0  0  0  0  1  0  0  0  0  0  0
  160.3760  214.0630  145.9710 O   0  0  0  0  0  1  0  0  0  0  0  0
  161.1570  212.9500  145.6580 C   0  0  0  0  0  3  0  0  0  0  0  0
  1  2  1  1  0  0  0
  1 12  1  0  0  0  0
  5  7  1  0  0  0  0
  6 11  1  6  0  0  0
  6  5  1  0  0  0  0
  6  8  1  0  0  0  0
  7  4  1  0  0  0  0
  7  2  1  1  0  0  0
  8  3  2  0  0  0  0
  8  4  1  0  0  0  0
  9 11  1  0  0  0  0
 10 11  2  0  0  0  0
 12 31  1  1  0  0  0
 12 15  1  0  0  0  0
 13 15  1  0  0  0  0
 15 14  1  0  0  0  0
 16 15  1  0  0  0  0
 16 17  1  0  0  0  0
 17 24  1  0  0  0  0
 18 20  1  6  0  0  0
 18 21  1  0  0  0  0
 19 25  1  0  0  0  0
 22 26  1  0  0  0  0
 23 18  1  0  0  0  0
 24 22  2  0  0  0  0
 24 27  1  0  0  0  0
 25 21  1  0  0  0  0
 26 23  1  0  0  0  0
 26 19  2  0  0  0  0
 27 19  1  0  0  0  0
 27 29  1  1  0  0  0
 29 28  1  0  0  0  0
 30 31  1  0  0  0  0
 32  1  1  0  0  0  0
 33 32  1  0  0  0  0
 35 33  1  0  0  0  0
 35 34  1  1  0  0  0
 37 36  2  0  0  0  0
 37 35  1  0  0  0  0
 38 37  1  0  0  0  0
 39 41  1  0  0  0  0
 41 40  1  0  0  0  0
 41 38  1  0  0  0  0
M  END
>  <MODEL>
3

>  <REMARK>
 VINA RESULT:      -5.7      4.368      8.957
  Name = 
  15 active torsions:
  status: ('A' for Active; 'I' for Inactive)
    1  A    between atoms: N_5  and  C_9
    2  A    between atoms: N_5  and  C_26
    3  A    between atoms: C_9  and  C_10
    4  A    between atoms: C_9  and  S_33
    5  A    between atoms: C_10  and  C_27
    6  A    between atoms: C_10  and  C_35
    7  A    between atoms: C_12  and  C_22
    8  A    between atoms: C_23  and  C_35
    9  A    between atoms: C_23  and  C_41
   10  A    between atoms: C_28  and  C_29
   11  A    between atoms: C_28  and  S_33
   12  A    between atoms: C_29  and  C_32
   13  A    between atoms: C_31  and  C_41
   14  A    between atoms: N_34  and  C_39
   15  A    between atoms: C_38  and  C_40
                            x       y       z     vdW  Elec       q    Type
                         _______ _______ _______ _____ _____    ______ ____

>  <TORSDO>
F 15

$$$$
=
 OpenBabel11072412543D

 41 43  0  0  1  0  0  0  0  0999 V2000
  160.8230  209.4150  152.7030 C   0  0  1  0  0  3  0  0  0  0  0  0
  161.2400  210.7310  152.2090 N   0  0  0  0  0  2  0  0  0  0  0  0
  160.8580  214.2580  149.4960 N   0  0  0  0  0  2  0  0  0  0  0  0
  160.8810  212.0620  150.3050 O   0  0  0  0  0  0  0  0  0  0  0  0
  159.3330  212.2590  152.0730 C   0  0  0  0  0  2  0  0  0  0  0  0
  159.3870  213.5990  151.3380 C   0  0  1  0  0  3  0  0  0  0  0  0
  160.2420  211.2890  151.3040 C   0  0  2  0  0  3  0  0  0  0  0  0
  160.4140  213.3550  150.3050 C   0  0  0  0  0  0  0  0  0  0  0  0
  156.9860  214.3110  151.4920 O   0  0  0  0  0  1  0  0  0  0  0  0
  157.9170  213.7710  149.4700 O   0  0  0  0  0  0  0  0  0  0  0  0
  158.0610  213.8970  150.7120 C   0  0  0  0  0  0  0  0  0  0  0  0
  161.1830  208.2790  151.7200 C   0  0  2  0  0  3  0  0  0  0  0  0
  160.6150  206.9340  153.7790 C   0  0  0  0  0  1  0  0  0  0  0  0
  162.6350  206.3740  152.4660 C   0  0  0  0  0  1  0  0  0  0  0  0
  161.1980  206.8750  152.3730 C   0  0  0  0  0  0  0  0  0  0  0  0
  160.3910  205.9030  151.4980 C   0  0  0  0  0  2  0  0  0  0  0  0
  161.1720  204.6620  151.0620 C   0  0  0  0  0  2  0  0  0  0  0  0
  161.9200  204.9280  144.9460 C   0  0  2  0  0  3  0  0  0  0  0  0
  161.0630  203.8040  147.4150 C   0  0  0  0  0  0  0  0  0  0  0  0
  161.8820  205.7060  143.8060 F   0  0  0  0  0  0  0  0  0  0  0  0
  160.7570  203.9350  144.9340 C   0  0  0  0  0  2  0  0  0  0  0  0
  161.6720  205.5190  148.7840 C   0  0  0  0  0  3  0  0  0  0  0  0
  161.8470  205.8280  146.1840 C   0  0  0  0  0  2  0  0  0  0  0  0
  161.2260  204.5500  149.5750 C   0  0  0  0  0  0  0  0  0  0  0  0
  160.8260  203.0150  146.1570 C   0  0  0  0  0  2  0  0  0  0  0  0
  161.5830  205.0230  147.4220 C   0  0  0  0  0  0  0  0  0  0  0  0
  160.8190  203.3270  148.8080 C   0  0  2  0  0  3  0  0  0  0  0  0
  161.1090  201.2910  150.2180 C   0  0  0  0  0  1  0  0  0  0  0  0
  161.7420  202.1650  149.1540 C   0  0  0  0  0  2  0  0  0  0  0  0
  162.0980  208.7670  149.5550 O   0  0  0  0  0  1  0  0  0  0  0  0
  162.4370  208.5950  150.8970 C   0  0  0  0  0  2  0  0  0  0  0  0
  161.3160  209.1160  154.4440 S   0  0  0  0  0  0  0  0  0  0  0  0
  160.9670  210.8280  154.9450 C   0  0  0  0  0  2  0  0  0  0  0  0
  159.5910  210.3050  156.8170 O   0  0  0  0  0  1  0  0  0  0  0  0
  159.5840  210.9230  155.5660 C   0  0  1  0  0  3  0  0  0  0  0  0
  159.9880  213.2050  156.1400 O   0  0  0  0  0  0  0  0  0  0  0  0
  159.1660  212.3540  155.7090 C   0  0  0  0  0  0  0  0  0  0  0  0
  157.8510  212.7770  155.3400 N   0  0  0  0  0  2  0  0  0  0  0  0
  155.7690  212.6000  154.3240 O   0  0  0  0  0  1  0  0  0  0  0  0
  156.3600  211.0790  155.9100 O   0  0  0  0  0  1  0  0  0  0  0  0
  156.8270  211.8650  154.8560 C   0  0  0  0  0  3  0  0  0  0  0  0
  1  2  1  6  0  0  0
  1 32  1  0  0  0  0
  3  8  2  0  0  0  0
  4  8  1  0  0  0  0
  4  7  1  0  0  0  0
  6 11  1  6  0  0  0
  6  5  1  0  0  0  0
  7  5  1  0  0  0  0
  7  2  1  1  0  0  0
  8  6  1  0  0  0  0
 10 11  2  0  0  0  0
 11  9  1  0  0  0  0
 12 31  1  1  0  0  0
 12 15  1  0  0  0  0
 12  1  1  0  0  0  0
 15 14  1  0  0  0  0
 15 13  1  0  0  0  0
 16 15  1  0  0  0  0
 17 16  1  0  0  0  0
 18 20  1  6  0  0  0
 18 23  1  0  0  0  0
 19 26  2  0  0  0  0
 19 27  1  0  0  0  0
 21 18  1  0  0  0  0
 21 25  1  0  0  0  0
 22 24  2  0  0  0  0
 23 26  1  0  0  0  0
 24 17  1  0  0  0  0
 25 19  1  0  0  0  0
 26 22  1  0  0  0  0
 27 29  1  1  0  0  0
 27 24  1  0  0  0  0
 29 28  1  0  0  0  0
 30 31  1  0  0  0  0
 32 33  1  0  0  0  0
 33 35  1  0  0  0  0
 35 37  1  0  0  0  0
 35 34  1  1  0  0  0
 37 36  2  0  0  0  0
 38 37  1  0  0  0  0
 39 41  1  0  0  0  0
 41 38  1  0  0  0  0
 41 40  1  0  0  0  0
M  END
>  <MODEL>
4

>  <REMARK>
 VINA RESULT:      -5.7      2.138      3.265
  Name = 
  15 active torsions:
  status: ('A' for Active; 'I' for Inactive)
    1  A    between atoms: N_5  and  C_9
    2  A    between atoms: N_5  and  C_26
    3  A    between atoms: C_9  and  C_10
    4  A    between atoms: C_9  and  S_33
    5  A    between atoms: C_10  and  C_27
    6  A    between atoms: C_10  and  C_35
    7  A    between atoms: C_12  and  C_22
    8  A    between atoms: C_23  and  C_35
    9  A    between atoms: C_23  and  C_41
   10  A    between atoms: C_28  and  C_29
   11  A    between atoms: C_28  and  S_33
   12  A    between atoms: C_29  and  C_32
   13  A    between atoms: C_31  and  C_41
   14  A    between atoms: N_34  and  C_39
   15  A    between atoms: C_38  and  C_40
                            x       y       z     vdW  Elec       q    Type
                         _______ _______ _______ _____ _____    ______ ____

>  <TORSDO>
F 15

$$$$
=
 OpenBabel11072412543D

 41 43  0  0  1  0  0  0  0  0999 V2000
  161.3660  209.0090  152.3310 C   0  0  1  0  0  3  0  0  0  0  0  0
  160.0610  209.5010  152.7850 N   0  0  0  0  0  2  0  0  0  0  0  0
  161.7250  210.8300  156.7110 N   0  0  0  0  0  2  0  0  0  0  0  0
  161.3010  210.6530  154.4160 O   0  0  0  0  0  0  0  0  0  0  0  0
  158.9640  210.9730  154.4040 C   0  0  0  0  0  2  0  0  0  0  0  0
  159.4610  211.1530  155.8390 C   0  0  1  0  0  3  0  0  0  0  0  0
  160.2040  210.7490  153.5260 C   0  0  2  0  0  3  0  0  0  0  0  0
  160.9070  210.8800  155.7130 C   0  0  0  0  0  0  0  0  0  0  0  0
  160.0870  213.5810  155.9260 O   0  0  0  0  0  0  0  0  0  0  0  0
  158.2250  212.8140  157.0190 O   0  0  0  0  0  1  0  0  0  0  0  0
  159.2200  212.5580  156.2950 C   0  0  0  0  0  0  0  0  0  0  0  0
  161.7180  207.6350  152.9420 C   0  0  2  0  0  3  0  0  0  0  0  0
  162.9200  205.4600  152.4900 C   0  0  0  0  0  1  0  0  0  0  0  0
  162.8000  207.1870  150.7230 C   0  0  0  0  0  1  0  0  0  0  0  0
  162.0450  206.5510  151.8840 C   0  0  0  0  0  0  0  0  0  0  0  0
  160.7330  205.9520  151.3530 C   0  0  0  0  0  2  0  0  0  0  0  0
  160.8290  204.4700  150.9850 C   0  0  0  0  0  2  0  0  0  0  0  0
  161.9350  204.4580  144.9170 C   0  0  2  0  0  3  0  0  0  0  0  0
  160.9680  203.4290  147.3860 C   0  0  0  0  0  0  0  0  0  0  0  0
  161.9390  205.1770  143.7380 F   0  0  0  0  0  0  0  0  0  0  0  0
  160.8070  203.4250  144.8880 C   0  0  0  0  0  2  0  0  0  0  0  0
  161.4370  205.2300  148.6980 C   0  0  0  0  0  3  0  0  0  0  0  0
  161.7570  205.4150  146.1010 C   0  0  0  0  0  2  0  0  0  0  0  0
  160.9760  204.2860  149.5110 C   0  0  0  0  0  0  0  0  0  0  0  0
  160.8330  202.5700  146.1600 C   0  0  0  0  0  2  0  0  0  0  0  0
  161.4460  204.6650  147.3610 C   0  0  0  0  0  0  0  0  0  0  0  0
  160.6570  203.0130  148.7860 C   0  0  2  0  0  3  0  0  0  0  0  0
  160.8180  200.8320  149.9840 C   0  0  0  0  0  1  0  0  0  0  0  0
  161.5940  201.9040  149.2450 C   0  0  0  0  0  2  0  0  0  0  0  0
  161.2160  207.3950  155.2760 O   0  0  0  0  0  1  0  0  0  0  0  0
  160.7020  207.1860  153.9970 C   0  0  0  0  0  2  0  0  0  0  0  0
  161.5800  209.1250  150.5120 S   0  0  0  0  0  0  0  0  0  0  0  0
  162.0280  210.8860  150.5740 C   0  0  0  0  0  2  0  0  0  0  0  0
  161.6640  210.4970  148.2540 O   0  0  0  0  0  1  0  0  0  0  0  0
  162.0070  211.4840  149.1790 C   0  0  1  0  0  3  0  0  0  0  0  0
  160.3770  212.9480  150.1280 O   0  0  0  0  0  0  0  0  0  0  0  0
  161.0280  212.6140  149.1030 C   0  0  0  0  0  0  0  0  0  0  0  0
  160.8350  213.3400  147.8860 N   0  0  0  0  0  2  0  0  0  0  0  0
  162.7120  213.7340  146.5730 O   0  0  0  0  0  1  0  0  0  0  0  0
  160.7120  213.3450  145.5590 O   0  0  0  0  0  1  0  0  0  0  0  0
  161.5210  213.0130  146.6460 C   0  0  0  0  0  3  0  0  0  0  0  0
  1 32  1  6  0  0  0
  1  2  1  0  0  0  0
  1 12  1  0  0  0  0
  4  8  1  0  0  0  0
  5  6  1  0  0  0  0
  6 11  1  6  0  0  0
  7  2  1  1  0  0  0
  7  5  1  0  0  0  0
  7  4  1  0  0  0  0
  8  6  1  0  0  0  0
  8  3  2  0  0  0  0
  9 11  2  0  0  0  0
 11 10  1  0  0  0  0
 12 31  1  6  0  0  0
 14 15  1  0  0  0  0
 15 13  1  0  0  0  0
 15 12  1  0  0  0  0
 16 15  1  0  0  0  0
 17 16  1  0  0  0  0
 18 20  1  6  0  0  0
 18 23  1  0  0  0  0
 19 27  1  0  0  0  0
 21 18  1  0  0  0  0
 21 25  1  0  0  0  0
 22 24  2  0  0  0  0
 23 26  1  0  0  0  0
 24 17  1  0  0  0  0
 25 19  1  0  0  0  0
 26 19  2  0  0  0  0
 26 22  1  0  0  0  0
 27 29  1  1  0  0  0
 27 24  1  0  0  0  0
 29 28  1  0  0  0  0
 31 30  1  0  0  0  0
 32 33  1  0  0  0  0
 35 34  1  6  0  0  0
 35 33  1  0  0  0  0
 37 35  1  0  0  0  0
 37 36  2  0  0  0  0
 38 37  1  0  0  0  0
 39 41  1  0  0  0  0
 40 41  1  0  0  0  0
 41 38  1  0  0  0  0
M  END
>  <MODEL>
5

>  <REMARK>
 VINA RESULT:      -5.6      2.667      6.155
  Name = 
  15 active torsions:
  status: ('A' for Active; 'I' for Inactive)
    1  A    between atoms: N_5  and  C_9
    2  A    between atoms: N_5  and  C_26
    3  A    between atoms: C_9  and  C_10
    4  A    between atoms: C_9  and  S_33
    5  A    between atoms: C_10  and  C_27
    6  A    between atoms: C_10  and  C_35
    7  A    between atoms: C_12  and  C_22
    8  A    between atoms: C_23  and  C_35
    9  A    between atoms: C_23  and  C_41
   10  A    between atoms: C_28  and  C_29
   11  A    between atoms: C_28  and  S_33
   12  A    between atoms: C_29  and  C_32
   13  A    between atoms: C_31  and  C_41
   14  A    between atoms: N_34  and  C_39
   15  A    between atoms: C_38  and  C_40
                            x       y       z     vdW  Elec       q    Type
                         _______ _______ _______ _____ _____    ______ ____

>  <TORSDO>
F 15

$$$$
=
 OpenBabel11072412543D

 41 43  0  0  1  0  0  0  0  0999 V2000
  160.5640  211.2220  152.2860 C   0  0  1  0  0  3  0  0  0  0  0  0
  159.8260  210.0890  152.8530 N   0  0  0  0  0  2  0  0  0  0  0  0
  159.7190  210.8020  157.2610 N   0  0  0  0  0  2  0  0  0  0  0  0
  159.6590  209.7470  155.1730 O   0  0  0  0  0  0  0  0  0  0  0  0
  161.7600  210.4000  154.3210 C   0  0  0  0  0  2  0  0  0  0  0  0
  161.6450  210.9220  155.7540 C   0  0  1  0  0  3  0  0  0  0  0  0
  160.4950  209.5740  154.0430 C   0  0  2  0  0  3  0  0  0  0  0  0
  160.2860  210.4940  156.1420 C   0  0  0  0  0  0  0  0  0  0  0  0
  162.5800  208.9280  156.9560 O   0  0  0  0  0  0  0  0  0  0  0  0
  163.6400  210.9570  157.0570 O   0  0  0  0  0  1  0  0  0  0  0  0
  162.6770  210.2750  156.6230 C   0  0  0  0  0  0  0  0  0  0  0  0
  160.8000  211.0650  150.7670 C   0  0  2  0  0  3  0  0  0  0  0  0
  163.1110  210.3230  151.4660 C   0  0  0  0  0  1  0  0  0  0  0  0
  162.5790  210.5890  149.0640 C   0  0  0  0  0  1  0  0  0  0  0  0
  162.0150  210.1700  150.4170 C   0  0  0  0  0  0  0  0  0  0  0  0
  161.5560  208.7060  150.3310 C   0  0  0  0  0  2  0  0  0  0  0  0
  161.5100  208.1520  148.9050 C   0  0  0  0  0  2  0  0  0  0  0  0
  160.2790  202.1540  149.6500 C   0  0  2  0  0  3  0  0  0  0  0  0
  161.2860  204.4560  148.3170 C   0  0  0  0  0  0  0  0  0  0  0  0
  160.2570  201.0730  150.5090 F   0  0  0  0  0  0  0  0  0  0  0  0
  161.3940  201.9740  148.6200 C   0  0  0  0  0  2  0  0  0  0  0  0
  160.8630  205.9900  149.9460 C   0  0  0  0  0  3  0  0  0  0  0  0
  160.4910  203.4420  150.4530 C   0  0  0  0  0  2  0  0  0  0  0  0
  161.3300  206.6700  148.9060 C   0  0  0  0  0  0  0  0  0  0  0  0
  161.3860  203.1310  147.6150 C   0  0  0  0  0  2  0  0  0  0  0  0
  160.8200  204.5940  149.5500 C   0  0  0  0  0  0  0  0  0  0  0  0
  161.6210  205.7870  147.7290 C   0  0  2  0  0  3  0  0  0  0  0  0
  161.3550  205.8460  145.2500 C   0  0  0  0  0  1  0  0  0  0  0  0
  160.6820  206.1260  146.5790 C   0  0  0  0  0  2  0  0  0  0  0  0
  159.4750  212.8660  149.8950 O   0  0  0  0  0  1  0  0  0  0  0  0
  160.7850  212.4090  150.0320 C   0  0  0  0  0  2  0  0  0  0  0  0
  159.8840  212.8460  152.7990 S   0  0  0  0  0  0  0  0  0  0  0  0
  158.3030  212.1300  153.3390 C   0  0  0  0  0  2  0  0  0  0  0  0
  158.8100  213.6920  155.0630 O   0  0  0  0  0  1  0  0  0  0  0  0
  157.8840  212.7240  154.6720 C   0  0  1  0  0  3  0  0  0  0  0  0
  156.3180  214.2840  153.7690 O   0  0  0  0  0  0  0  0  0  0  0  0
  156.5210  213.3350  154.5730 C   0  0  0  0  0  0  0  0  0  0  0  0
  155.4340  212.8430  155.3600 N   0  0  0  0  0  2  0  0  0  0  0  0
  156.6240  212.0700  157.2010 O   0  0  0  0  0  1  0  0  0  0  0  0
  155.8510  210.5710  155.6730 O   0  0  0  0  0  1  0  0  0  0  0  0
  155.5760  211.7700  156.3320 C   0  0  0  0  0  3  0  0  0  0  0  0
  1 32  1  6  0  0  0
  1  2  1  0  0  0  0
  4  8  1  0  0  0  0
  5  6  1  0  0  0  0
  6  8  1  0  0  0  0
  6 11  1  1  0  0  0
  7  2  1  6  0  0  0
  7  5  1  0  0  0  0
  7  4  1  0  0  0  0
  8  3  2  0  0  0  0
 11  9  2  0  0  0  0
 11 10  1  0  0  0  0
 12 31  1  1  0  0  0
 12  1  1  0  0  0  0
 14 15  1  0  0  0  0
 15 12  1  0  0  0  0
 15 13  1  0  0  0  0
 16 15  1  0  0  0  0
 17 24  1  0  0  0  0
 17 16  1  0  0  0  0
 18 23  1  0  0  0  0
 18 20  1  1  0  0  0
 19 26  2  0  0  0  0
 21 18  1  0  0  0  0
 24 22  2  0  0  0  0
 25 19  1  0  0  0  0
 25 21  1  0  0  0  0
 26 22  1  0  0  0  0
 26 23  1  0  0  0  0
 27 29  1  6  0  0  0
 27 19  1  0  0  0  0
 27 24  1  0  0  0  0
 28 29  1  0  0  0  0
 30 31  1  0  0  0  0
 32 33  1  0  0  0  0
 33 35  1  0  0  0  0
 35 34  1  6  0  0  0
 36 37  2  0  0  0  0
 37 35  1  0  0  0  0
 37 38  1  0  0  0  0
 38 41  1  0  0  0  0
 40 41  1  0  0  0  0
 41 39  1  0  0  0  0
M  END
>  <MODEL>
6

>  <REMARK>
 VINA RESULT:      -5.6      2.111      4.425
  Name = 
  15 active torsions:
  status: ('A' for Active; 'I' for Inactive)
    1  A    between atoms: N_5  and  C_9
    2  A    between atoms: N_5  and  C_26
    3  A    between atoms: C_9  and  C_10
    4  A    between atoms: C_9  and  S_33
    5  A    between atoms: C_10  and  C_27
    6  A    between atoms: C_10  and  C_35
    7  A    between atoms: C_12  and  C_22
    8  A    between atoms: C_23  and  C_35
    9  A    between atoms: C_23  and  C_41
   10  A    between atoms: C_28  and  C_29
   11  A    between atoms: C_28  and  S_33
   12  A    between atoms: C_29  and  C_32
   13  A    between atoms: C_31  and  C_41
   14  A    between atoms: N_34  and  C_39
   15  A    between atoms: C_38  and  C_40
                            x       y       z     vdW  Elec       q    Type
                         _______ _______ _______ _____ _____    ______ ____

>  <TORSDO>
F 15

$$$$
=
 OpenBabel11072412543D

 41 43  0  0  1  0  0  0  0  0999 V2000
  161.5630  208.4910  150.2960 C   0  0  1  0  0  3  0  0  0  0  0  0
  162.2890  207.5530  149.4340 N   0  0  0  0  0  2  0  0  0  0  0  0
  161.1980  203.4030  148.1950 N   0  0  0  0  0  2  0  0  0  0  0  0
  161.0500  205.6180  148.9340 O   0  0  0  0  0  0  0  0  0  0  0  0
  162.1060  206.7230  147.1380 C   0  0  0  0  0  2  0  0  0  0  0  0
  162.0140  205.2360  146.7920 C   0  0  1  0  0  3  0  0  0  0  0  0
  161.3860  206.9170  148.4810 C   0  0  2  0  0  3  0  0  0  0  0  0
  161.3890  204.6650  148.0030 C   0  0  0  0  0  0  0  0  0  0  0  0
  161.1130  203.8190  144.9280 O   0  0  0  0  0  0  0  0  0  0  0  0
  160.4160  205.9860  145.1910 O   0  0  0  0  0  1  0  0  0  0  0  0
  161.1370  205.0390  145.5960 C   0  0  0  0  0  0  0  0  0  0  0  0
  161.2160  207.8760  151.6690 C   0  0  2  0  0  3  0  0  0  0  0  0
  162.3290  209.7650  152.9220 C   0  0  0  0  0  1  0  0  0  0  0  0
  160.8260  208.2120  154.1250 C   0  0  0  0  0  1  0  0  0  0  0  0
  161.0640  208.9250  152.7990 C   0  0  0  0  0  0  0  0  0  0  0  0
  159.8530  209.8220  152.4950 C   0  0  0  0  0  2  0  0  0  0  0  0
  160.1170  211.3150  152.7020 C   0  0  0  0  0  2  0  0  0  0  0  0
  155.7260  213.1680  156.6170 C   0  0  2  0  0  3  0  0  0  0  0  0
  158.3680  212.9520  155.5850 C   0  0  0  0  0  0  0  0  0  0  0  0
  154.4440  213.6560  156.7750 F   0  0  0  0  0  0  0  0  0  0  0  0
  156.7400  214.2580  156.9680 C   0  0  0  0  0  2  0  0  0  0  0  0
  157.8860  211.7830  153.6910 C   0  0  0  0  0  3  0  0  0  0  0  0
  155.9210  212.6960  155.1720 C   0  0  0  0  0  2  0  0  0  0  0  0
  159.2090  211.8860  153.7400 C   0  0  0  0  0  0  0  0  0  0  0  0
  158.1690  213.7110  156.8670 C   0  0  0  0  0  2  0  0  0  0  0  0
  157.3700  212.4430  154.8770 C   0  0  0  0  0  0  0  0  0  0  0  0
  159.6820  212.6070  154.9660 C   0  0  2  0  0  3  0  0  0  0  0  0
  159.5560  210.5870  156.4230 C   0  0  0  0  0  1  0  0  0  0  0  0
  160.4700  211.6560  155.8570 C   0  0  0  0  0  2  0  0  0  0  0  0
  161.3810  205.5360  152.1740 O   0  0  0  0  0  1  0  0  0  0  0  0
  162.1320  206.7020  152.0320 C   0  0  0  0  0  2  0  0  0  0  0  0
  162.3470  210.1490  150.3660 S   0  0  0  0  0  0  0  0  0  0  0  0
  161.9360  210.5300  148.6370 C   0  0  0  0  0  2  0  0  0  0  0  0
  163.1650  212.4290  147.8940 O   0  0  0  0  0  1  0  0  0  0  0  0
  161.9330  212.0320  148.4150 C   0  0  1  0  0  3  0  0  0  0  0  0
  160.8360  211.9930  146.2950 O   0  0  0  0  0  0  0  0  0  0  0  0
  160.8340  212.4260  147.4770 C   0  0  0  0  0  0  0  0  0  0  0  0
  159.7640  213.2690  147.9100 N   0  0  0  0  0  2  0  0  0  0  0  0
  160.8420  213.5060  149.9560 O   0  0  0  0  0  1  0  0  0  0  0  0
  158.5730  213.3270  149.9120 O   0  0  0  0  0  1  0  0  0  0  0  0
  159.6880  213.8380  149.2460 C   0  0  0  0  0  3  0  0  0  0  0  0
  1  2  1  1  0  0  0
  1 32  1  0  0  0  0
  1 12  1  0  0  0  0
  5  7  1  0  0  0  0
  6 11  1  6  0  0  0
  6  5  1  0  0  0  0
  6  8  1  0  0  0  0
  7  4  1  0  0  0  0
  7  2  1  1  0  0  0
  8  3  2  0  0  0  0
  8  4  1  0  0  0  0
  9 11  2  0  0  0  0
 10 11  1  0  0  0  0
 12 31  1  1  0  0  0
 12 15  1  0  0  0  0
 15 13  1  0  0  0  0
 15 14  1  0  0  0  0
 16 17  1  0  0  0  0
 16 15  1  0  0  0  0
 17 24  1  0  0  0  0
 18 20  1  6  0  0  0
 18 21  1  0  0  0  0
 19 25  1  0  0  0  0
 22 24  2  0  0  0  0
 22 26  1  0  0  0  0
 23 18  1  0  0  0  0
 24 27  1  0  0  0  0
 25 21  1  0  0  0  0
 26 23  1  0  0  0  0
 26 19  2  0  0  0  0
 27 19  1  0  0  0  0
 27 29  1  1  0  0  0
 29 28  1  0  0  0  0
 31 30  1  0  0  0  0
 33 32  1  0  0  0  0
 35 34  1  6  0  0  0
 35 33  1  0  0  0  0
 36 37  2  0  0  0  0
 37 38  1  0  0  0  0
 37 35  1  0  0  0  0
 38 41  1  0  0  0  0
 41 40  1  0  0  0  0
 41 39  1  0  0  0  0
M  END
>  <MODEL>
7

>  <REMARK>
 VINA RESULT:      -5.5      4.316      8.718
  Name = 
  15 active torsions:
  status: ('A' for Active; 'I' for Inactive)
    1  A    between atoms: N_5  and  C_9
    2  A    between atoms: N_5  and  C_26
    3  A    between atoms: C_9  and  C_10
    4  A    between atoms: C_9  and  S_33
    5  A    between atoms: C_10  and  C_27
    6  A    between atoms: C_10  and  C_35
    7  A    between atoms: C_12  and  C_22
    8  A    between atoms: C_23  and  C_35
    9  A    between atoms: C_23  and  C_41
   10  A    between atoms: C_28  and  C_29
   11  A    between atoms: C_28  and  S_33
   12  A    between atoms: C_29  and  C_32
   13  A    between atoms: C_31  and  C_41
   14  A    between atoms: N_34  and  C_39
   15  A    between atoms: C_38  and  C_40
                            x       y       z     vdW  Elec       q    Type
                         _______ _______ _______ _____ _____    ______ ____

>  <TORSDO>
F 15

$$$$
=
 OpenBabel11072412543D

 41 44  0  0  1  0  0  0  0  0999 V2000
  160.4770  211.0360  152.9600 C   0  0  1  0  0  3  0  0  0  0  0  0
  160.0230  212.3100  153.5260 N   0  0  0  0  0  2  0  0  0  0  0  0
  157.0750  213.7060  156.5760 N   0  0  0  0  0  2  0  0  0  0  0  0
  158.1990  213.3840  154.5490 O   0  0  0  0  0  0  0  0  0  0  0  0
  158.1340  211.0300  154.4120 C   0  0  0  0  0  2  0  0  0  0  0  0
  157.3450  211.4560  155.6510 C   0  0  1  0  0  3  0  0  0  0  0  0
  158.5750  212.3160  153.6980 C   0  0  2  0  0  3  0  0  0  0  0  0
  157.5080  212.9240  155.6450 C   0  0  0  0  0  0  0  0  0  0  0  0
  155.2780  211.1520  154.2610 O   0  0  0  0  0  0  0  0  0  0  0  0
  155.2560  210.6900  156.5050 O   0  0  0  0  0  1  0  0  0  0  0  0
  155.9050  211.0780  155.5010 C   0  0  0  0  0  0  0  0  0  0  0  0
  160.5900  211.0860  151.4200 C   0  0  2  0  0  3  0  0  0  0  0  0
  162.8790  210.1170  151.8640 C   0  0  0  0  0  2  0  0  0  0  0  0
  162.2840  210.8650  149.5830 C   0  0  0  0  0  1  0  0  0  0  0  0
  161.7430  210.2210  150.8540 C   0  0  2  0  0  0  0  0  0  0  0  0
  161.2030  208.8230  150.5090 C   0  0  0  0  0  2  0  0  0  0  0  0
  161.6790  208.2890  149.1570 C   0  0  0  0  0  2  0  0  0  0  0  0
  160.4170  202.2630  149.5340 C   0  0  2  0  0  3  0  0  0  0  0  0
  161.2680  204.6680  148.2760 C   0  0  0  0  0  0  0  0  0  0  0  0
  160.4990  201.1060  150.2840 F   0  0  0  0  0  0  0  0  0  0  0  0
  161.3550  202.1670  148.3300 C   0  0  0  0  0  2  0  0  0  0  0  0
  161.1420  206.0460  150.0850 C   0  0  0  0  0  3  0  0  0  0  0  0
  160.7840  203.4670  150.4080 C   0  0  0  0  0  2  0  0  0  0  0  0
  161.4620  206.8150  149.0500 C   0  0  0  0  0  0  0  0  0  0  0  0
  161.2230  203.4140  147.4490 C   0  0  0  0  0  2  0  0  0  0  0  0
  161.0010  204.6950  149.5740 C   0  0  0  0  0  0  0  0  0  0  0  0
  161.5440  206.0440  147.7670 C   0  0  2  0  0  3  0  0  0  0  0  0
  160.7340  206.0090  145.4090 C   0  0  0  0  0  1  0  0  0  0  0  0
  160.4480  206.5020  146.8140 C   0  0  0  0  0  2  0  0  0  0  0  0
  159.2880  212.8390  150.4230 O   0  0  0  0  0  1  0  0  0  0  0  0
  160.5660  212.5200  150.8790 C   0  0  0  0  0  2  0  0  0  0  0  0
  161.9470  210.3550  153.8210 S   0  0  2  0  0  3  0  0  0  0  0  0
  160.9860  209.8500  155.2790 C   0  0  0  0  0  2  0  0  0  0  0  0
  162.1840  209.0320  157.1670 O   0  0  0  0  0  1  0  0  0  0  0  0
  161.6330  208.6470  155.9450 C   0  0  1  0  0  3  0  0  0  0  0  0
  159.9160  207.5620  157.2010 O   0  0  0  0  0  0  0  0  0  0  0  0
  160.6270  207.5590  156.1610 C   0  0  0  0  0  0  0  0  0  0  0  0
  160.4430  206.5250  155.1920 N   0  0  0  0  0  2  0  0  0  0  0  0
  160.6960  207.2680  153.0050 O   0  0  0  0  0  1  0  0  0  0  0  0
  161.2090  205.1080  153.5080 O   0  0  0  0  0  1  0  0  0  0  0  0
  161.2320  206.4220  153.9750 C   0  0  0  0  0  3  0  0  0  0  0  0
  1  2  1  1  0  0  0
  1 32  1  0  0  0  0
  4  8  1  0  0  0  0
  5  6  1  0  0  0  0
  6 11  1  6  0  0  0
  7  2  1  1  0  0  0
  7  5  1  0  0  0  0
  7  4  1  0  0  0  0
  8  6  1  0  0  0  0
  8  3  2  0  0  0  0
  9 11  2  0  0  0  0
 11 10  1  0  0  0  0
 12 31  1  1  0  0  0
 12  1  1  0  0  0  0
 13 32  1  0  0  0  0
 15 14  1  6  0  0  0
 15 12  1  0  0  0  0
 15 13  1  0  0  0  0
 16 15  1  0  0  0  0
 17 16  1  0  0  0  0
 18 20  1  1  0  0  0
 18 23  1  0  0  0  0
 19 26  2  0  0  0  0
 21 18  1  0  0  0  0
 24 17  1  0  0  0  0
 24 22  2  0  0  0  0
 25 19  1  0  0  0  0
 25 21  1  0  0  0  0
 26 22  1  0  0  0  0
 26 23  1  0  0  0  0
 27 29  1  6  0  0  0
 27 19  1  0  0  0  0
 27 24  1  0  0  0  0
 28 29  1  0  0  0  0
 30 31  1  0  0  0  0
 32 33  1  6  0  0  0
 33 35  1  0  0  0  0
 35 37  1  0  0  0  0
 35 34  1  1  0  0  0
 37 36  2  0  0  0  0
 38 37  1  0  0  0  0
 39 41  1  0  0  0  0
 40 41  1  0  0  0  0
 41 38  1  0  0  0  0
M  END
>  <MODEL>
8

>  <REMARK>
 VINA RESULT:      -5.4      2.356      4.915
  Name = 
  15 active torsions:
  status: ('A' for Active; 'I' for Inactive)
    1  A    between atoms: N_5  and  C_9
    2  A    between atoms: N_5  and  C_26
    3  A    between atoms: C_9  and  C_10
    4  A    between atoms: C_9  and  S_33
    5  A    between atoms: C_10  and  C_27
    6  A    between atoms: C_10  and  C_35
    7  A    between atoms: C_12  and  C_22
    8  A    between atoms: C_23  and  C_35
    9  A    between atoms: C_23  and  C_41
   10  A    between atoms: C_28  and  C_29
   11  A    between atoms: C_28  and  S_33
   12  A    between atoms: C_29  and  C_32
   13  A    between atoms: C_31  and  C_41
   14  A    between atoms: N_34  and  C_39
   15  A    between atoms: C_38  and  C_40
                            x       y       z     vdW  Elec       q    Type
                         _______ _______ _______ _____ _____    ______ ____

>  <TORSDO>
F 15

$$$$
=
 OpenBabel11072412543D

 41 43  0  0  1  0  0  0  0  0999 V2000
  160.8510  210.5830  152.4820 C   0  0  1  0  0  3  0  0  0  0  0  0
  160.5380  211.9880  152.2000 N   0  0  0  0  0  2  0  0  0  0  0  0
  158.0810  214.0300  155.3200 N   0  0  0  0  0  2  0  0  0  0  0  0
  159.0040  213.4200  153.2580 O   0  0  0  0  0  0  0  0  0  0  0  0
  158.5070  211.1150  153.2500 C   0  0  0  0  0  2  0  0  0  0  0  0
  157.8840  211.7310  154.5040 C   0  0  1  0  0  3  0  0  0  0  0  0
  159.1280  212.2670  152.4470 C   0  0  2  0  0  3  0  0  0  0  0  0
  158.3080  213.1430  154.4110 C   0  0  0  0  0  0  0  0  0  0  0  0
  155.6310  212.5870  153.8060 O   0  0  0  0  0  0  0  0  0  0  0  0
  155.8250  210.6340  154.9890 O   0  0  0  0  0  1  0  0  0  0  0  0
  156.3930  211.6170  154.4490 C   0  0  0  0  0  0  0  0  0  0  0  0
  161.0220  209.7510  151.1910 C   0  0  2  0  0  3  0  0  0  0  0  0
  160.8180  207.8730  152.8670 C   0  0  0  0  0  1  0  0  0  0  0  0
  162.7280  207.9160  151.2960 C   0  0  0  0  0  1  0  0  0  0  0  0
  161.2470  208.2410  151.4520 C   0  0  0  0  0  0  0  0  0  0  0  0
  160.4500  207.4260  150.4210 C   0  0  0  0  0  2  0  0  0  0  0  0
  161.2660  207.0010  149.1990 C   0  0  0  0  0  2  0  0  0  0  0  0
  161.5660  201.0370  147.6570 C   0  0  2  0  0  3  0  0  0  0  0  0
  160.8350  203.2780  149.2500 C   0  0  0  0  0  0  0  0  0  0  0  0
  161.4850  200.0940  146.6520 F   0  0  0  0  0  0  0  0  0  0  0  0
  160.3510  200.9150  148.5790 C   0  0  0  0  0  2  0  0  0  0  0  0
  161.6400  204.9200  147.8930 C   0  0  0  0  0  3  0  0  0  0  0  0
  161.6360  202.4380  147.0410 C   0  0  0  0  0  2  0  0  0  0  0  0
  161.2020  205.5240  148.9910 C   0  0  0  0  0  0  0  0  0  0  0  0
  160.4610  201.9070  149.7410 C   0  0  0  0  0  2  0  0  0  0  0  0
  161.4220  203.4980  148.0820 C   0  0  0  0  0  0  0  0  0  0  0  0
  160.6710  204.5550  150.0050 C   0  0  2  0  0  3  0  0  0  0  0  0
  160.7450  204.1640  152.4670 C   0  0  0  0  0  1  0  0  0  0  0  0
  161.5510  204.5690  151.2480 C   0  0  0  0  0  2  0  0  0  0  0  0
  161.3780  211.1630  149.2830 O   0  0  0  0  0  1  0  0  0  0  0  0
  162.0360  210.3730  150.2250 C   0  0  0  0  0  2  0  0  0  0  0  0
  162.1960  210.3840  153.7130 S   0  0  0  0  0  0  0  0  0  0  0  0
  161.2600  211.2280  155.0240 C   0  0  0  0  0  2  0  0  0  0  0  0
  162.1690  211.3170  157.2220 O   0  0  0  0  0  1  0  0  0  0  0  0
  161.4430  210.5070  156.3480 C   0  0  1  0  0  3  0  0  0  0  0  0
  159.2790  211.0840  157.1770 O   0  0  0  0  0  0  0  0  0  0  0  0
  160.1150  210.1700  156.9530 C   0  0  0  0  0  0  0  0  0  0  0  0
  159.7700  208.8170  157.2610 N   0  0  0  0  0  2  0  0  0  0  0  0
  161.4170  207.9050  155.8990 O   0  0  0  0  0  1  0  0  0  0  0  0
  159.9460  206.5160  156.9390 O   0  0  0  0  0  1  0  0  0  0  0  0
  160.6760  207.6980  157.0620 C   0  0  0  0  0  3  0  0  0  0  0  0
  1  2  1  6  0  0  0
  1 32  1  0  0  0  0
  4  8  1  0  0  0  0
  5  6  1  0  0  0  0
  6 11  1  6  0  0  0
  7  2  1  1  0  0  0
  7  5  1  0  0  0  0
  7  4  1  0  0  0  0
  8  6  1  0  0  0  0
  8  3  2  0  0  0  0
  9 11  2  0  0  0  0
 11 10  1  0  0  0  0
 12 31  1  1  0  0  0
 12 15  1  0  0  0  0
 12  1  1  0  0  0  0
 14 15  1  0  0  0  0
 15 13  1  0  0  0  0
 16 15  1  0  0  0  0
 17 16  1  0  0  0  0
 18 20  1  6  0  0  0
 18 21  1  0  0  0  0
 19 25  1  0  0  0  0
 19 27  1  0  0  0  0
 21 25  1  0  0  0  0
 22 26  1  0  0  0  0
 22 24  2  0  0  0  0
 23 18  1  0  0  0  0
 23 26  1  0  0  0  0
 24 17  1  0  0  0  0
 24 27  1  0  0  0  0
 26 19  2  0  0  0  0
 27 29  1  1  0  0  0
 29 28  1  0  0  0  0
 30 31  1  0  0  0  0
 32 33  1  0  0  0  0
 33 35  1  0  0  0  0
 35 37  1  0  0  0  0
 35 34  1  1  0  0  0
 37 36  2  0  0  0  0
 37 38  1  0  0  0  0
 39 41  1  0  0  0  0
 40 41  1  0  0  0  0
 41 38  1  0  0  0  0
M  END
>  <MODEL>
9

>  <REMARK>
 VINA RESULT:      -5.4      2.354      4.146
  Name = 
  15 active torsions:
  status: ('A' for Active; 'I' for Inactive)
    1  A    between atoms: N_5  and  C_9
    2  A    between atoms: N_5  and  C_26
    3  A    between atoms: C_9  and  C_10
    4  A    between atoms: C_9  and  S_33
    5  A    between atoms: C_10  and  C_27
    6  A    between atoms: C_10  and  C_35
    7  A    between atoms: C_12  and  C_22
    8  A    between atoms: C_23  and  C_35
    9  A    between atoms: C_23  and  C_41
   10  A    between atoms: C_28  and  C_29
   11  A    between atoms: C_28  and  S_33
   12  A    between atoms: C_29  and  C_32
   13  A    between atoms: C_31  and  C_41
   14  A    between atoms: N_34  and  C_39
   15  A    between atoms: C_38  and  C_40
                            x       y       z     vdW  Elec       q    Type
                         _______ _______ _______ _____ _____    ______ ____

>  <TORSDO>
F 15

$$$$
