=
 OpenBabel11072412113D

 31 35  0  0  1  0  0  0  0  0999 V2000
  161.1560  209.9770  153.9210 C   0  0  1  0  0  3  0  0  0  0  0  0
  160.8080  209.6340  152.4690 C   0  0  2  0  0  3  0  0  0  0  0  0
  159.8280  211.1730  155.2310 C   0  0  0  0  0  0  0  0  0  0  0  0
  161.5360  207.0160  154.7380 O   0  0  0  0  0  0  0  0  0  0  0  0
  160.9500  207.3170  152.0350 O   0  0  0  0  0  0  0  0  0  0  0  0
  162.0060  207.7750  149.6860 C   0  0  0  0  0  0  0  0  0  0  0  0
  161.6080  205.1050  147.2730 C   0  0  0  0  0  3  0  0  0  0  0  0
  161.0860  203.9970  151.9020 O   0  0  0  0  0  0  0  0  0  0  0  0
  163.1110  206.0680  152.8660 O   0  0  0  0  0  0  0  0  0  0  0  0
  161.6530  206.3010  153.1960 P   0  0  1  0  0  0  0  0  0  0  0  0
  160.8490  203.1390  149.1220 C   0  0  0  0  0  3  0  0  0  0  0  0
  161.7040  208.4920  152.0460 C   0  0  1  0  0  3  0  0  0  0  0  0
  160.7620  204.7040  153.0800 C   0  0  0  0  0  2  0  0  0  0  0  0
  160.5850  211.8040  151.4950 O   0  0  0  0  0  0  0  0  0  0  0  0
  160.2640  207.5960  154.8020 C   0  0  2  0  0  3  0  0  0  0  0  0
  161.4130  203.7860  146.8540 C   0  0  0  0  0  3  0  0  0  0  0  0
  160.6990  211.3100  154.2900 N   0  0  0  0  0  0  0  0  0  0  0  0
  160.3550  209.1090  154.8590 C   0  0  0  0  0  0  0  0  0  0  0  0
  161.8240  210.2020  150.2580 C   0  0  0  0  0  2  0  0  0  0  0  0
  161.7310  206.7630  149.0910 C   0  0  0  0  0  0  0  0  0  0  0  0
  160.8080  204.8230  150.8790 O   0  0  0  0  0  0  0  0  0  0  0  0
  161.4090  205.4460  148.6130 C   0  0  0  0  0  0  0  0  0  0  0  0
  161.0220  204.4630  149.5450 C   0  0  0  0  0  0  0  0  0  0  0  0
  161.0590  210.6800  151.4380 C   0  0  0  0  0  0  0  0  0  0  0  0
  162.3160  208.8240  150.6670 C   0  0  2  0  0  3  0  0  0  0  0  0
  161.0410  202.8030  147.7780 C   0  0  0  0  0  3  0  0  0  0  0  0
  159.5770  209.8270  155.6020 N   0  0  0  0  0  0  0  0  0  0  0  0
  160.0980  213.3480  156.0920 O   0  0  0  0  0  1  0  0  0  0  0  0
  159.1660  212.3320  155.8870 C   0  0  0  0  0  2  0  0  0  0  0  0
  159.5060  207.0040  155.9850 C   0  0  0  0  0  2  0  0  0  0  0  0
  160.3820  207.0090  157.2230 C   0  0  0  0  0  1  0  0  0  0  0  0
  1 17  1  1  0  0  0
  1 18  1  0  0  0  0
  2 24  1  6  0  0  0
  2  1  1  0  0  0  0
  3 27  1  0  0  0  0
  3 29  1  0  0  0  0
  4 15  1  0  0  0  0
  5 10  1  0  0  0  0
  7 22  1  0  0  0  0
  8 13  1  0  0  0  0
 10  9  2  6  0  0  0
 10  4  1  0  0  0  0
 11 23  1  0  0  0  0
 12  5  1  6  0  0  0
 12  2  1  0  0  0  0
 13 10  1  0  0  0  0
 15 18  1  0  0  0  0
 15 30  1  1  0  0  0
 16  7  2  0  0  0  0
 16 26  1  0  0  0  0
 17  3  2  0  0  0  0
 18 27  2  0  0  0  0
 19 25  1  0  0  0  0
 19 24  1  0  0  0  0
 20  6  3  0  0  0  0
 21  8  1  0  0  0  0
 22 20  1  0  0  0  0
 22 23  2  0  0  0  0
 23 21  1  0  0  0  0
 24 14  2  0  0  0  0
 25  6  1  6  0  0  0
 25 12  1  0  0  0  0
 26 11  2  0  0  0  0
 29 28  1  0  0  0  0
 30 31  1  0  0  0  0
M  END
>  <MODEL>
1

>  <REMARK>
 VINA RESULT:      -9.2      0.000      0.000
  Name = 
  2 active torsions:
  status: ('A' for Active; 'I' for Inactive)
    1  A    between atoms: C_3  and  C_30
    2  A    between atoms: C_15  and  C_17
                            x       y       z     vdW  Elec       q    Type
                         _______ _______ _______ _____ _____    ______ ____

>  <TORSDO>
F 2

$$$$
=
 OpenBabel11072412113D

 31 35  0  0  1  0  0  0  0  0999 V2000
  161.5630  203.0820  147.7710 C   0  0  1  0  0  3  0  0  0  0  0  0
  160.8650  203.4520  149.0840 C   0  0  2  0  0  3  0  0  0  0  0  0
  160.5330  202.0430  146.1070 C   0  0  0  0  0  0  0  0  0  0  0  0
  162.4520  205.9890  147.1930 O   0  0  0  0  0  0  0  0  0  0  0  0
  161.1170  205.7380  149.6210 O   0  0  0  0  0  0  0  0  0  0  0  0
  161.4330  205.1560  152.1520 C   0  0  0  0  0  0  0  0  0  0  0  0
  160.6600  207.8400  154.4550 C   0  0  0  0  0  3  0  0  0  0  0  0
  161.5480  209.0230  149.9020 O   0  0  0  0  0  0  0  0  0  0  0  0
  163.5390  206.7510  149.4560 O   0  0  0  0  0  0  0  0  0  0  0  0
  162.2120  206.6780  148.7330 P   0  0  1  0  0  0  0  0  0  0  0  0
  160.6440  209.8860  152.5400 C   0  0  0  0  0  3  0  0  0  0  0  0
  161.7210  204.4890  149.7760 C   0  0  1  0  0  3  0  0  0  0  0  0
  161.4910  208.3620  148.6560 C   0  0  0  0  0  2  0  0  0  0  0  0
  160.1630  201.3130  149.8830 O   0  0  0  0  0  0  0  0  0  0  0  0
  161.1950  205.5490  146.7640 C   0  0  2  0  0  3  0  0  0  0  0  0
  160.4920  209.1700  154.8510 C   0  0  0  0  0  3  0  0  0  0  0  0
  161.0920  201.8070  147.2450 N   0  0  0  0  0  0  0  0  0  0  0  0
  161.1430  204.0350  146.6810 C   0  0  0  0  0  0  0  0  0  0  0  0
  161.1700  202.7650  151.4670 C   0  0  0  0  0  2  0  0  0  0  0  0
  161.1100  206.1880  152.6840 C   0  0  0  0  0  0  0  0  0  0  0  0
  160.9170  208.2260  150.7810 O   0  0  0  0  0  0  0  0  0  0  0  0
  160.8040  207.5290  153.1010 C   0  0  0  0  0  0  0  0  0  0  0  0
  160.7900  208.5530  152.1340 C   0  0  0  0  0  0  0  0  0  0  0  0
  160.7140  202.3790  150.1070 C   0  0  0  0  0  0  0  0  0  0  0  0
  161.8930  204.0850  151.2560 C   0  0  2  0  0  3  0  0  0  0  0  0
  160.4910  210.1920  153.8950 C   0  0  0  0  0  3  0  0  0  0  0  0
  160.5320  203.4090  145.7290 N   0  0  0  0  0  0  0  0  0  0  0  0
  160.7430  199.8150  145.3710 O   0  0  0  0  0  1  0  0  0  0  0  0
  159.9630  200.9650  145.2550 C   0  0  0  0  0  2  0  0  0  0  0  0
  160.8570  206.2260  145.4400 C   0  0  0  0  0  2  0  0  0  0  0  0
  161.6700  205.6120  144.3160 C   0  0  0  0  0  1  0  0  0  0  0  0
  1 18  1  6  0  0  0
  1  2  1  0  0  0  0
  2 12  1  0  0  0  0
  2 24  1  1  0  0  0
  3 17  2  0  0  0  0
  4 10  1  0  0  0  0
  6 20  3  0  0  0  0
  7 16  1  0  0  0  0
  8 21  1  0  0  0  0
 10  9  2  1  0  0  0
 10  5  1  0  0  0  0
 11 26  1  0  0  0  0
 12  5  1  1  0  0  0
 12 25  1  0  0  0  0
 13 10  1  0  0  0  0
 13  8  1  0  0  0  0
 14 24  2  0  0  0  0
 15 30  1  6  0  0  0
 15  4  1  0  0  0  0
 17  1  1  0  0  0  0
 18 15  1  0  0  0  0
 20 22  1  0  0  0  0
 21 23  1  0  0  0  0
 22  7  2  0  0  0  0
 23 11  2  0  0  0  0
 23 22  1  0  0  0  0
 24 19  1  0  0  0  0
 25 19  1  6  0  0  0
 25  6  1  0  0  0  0
 26 16  2  0  0  0  0
 27  3  1  0  0  0  0
 27 18  2  0  0  0  0
 29 28  1  0  0  0  0
 29  3  1  0  0  0  0
 31 30  1  0  0  0  0
M  END
>  <MODEL>
2

>  <REMARK>
 VINA RESULT:      -8.6      3.830      8.814
  Name = 
  2 active torsions:
  status: ('A' for Active; 'I' for Inactive)
    1  A    between atoms: C_3  and  C_30
    2  A    between atoms: C_15  and  C_17
                            x       y       z     vdW  Elec       q    Type
                         _______ _______ _______ _____ _____    ______ ____

>  <TORSDO>
F 2

$$$$
=
 OpenBabel11072412113D

 31 35  0  0  1  0  0  0  0  0999 V2000
  161.6640  209.8760  152.5330 C   0  0  1  0  0  3  0  0  0  0  0  0
  161.2460  209.4020  151.1370 C   0  0  2  0  0  3  0  0  0  0  0  0
  160.4390  211.2630  153.7540 C   0  0  0  0  0  0  0  0  0  0  0  0
  161.9430  207.0000  153.6430 O   0  0  0  0  0  0  0  0  0  0  0  0
  161.2700  207.0480  150.9450 O   0  0  0  0  0  0  0  0  0  0  0  0
  162.2560  207.2100  148.5270 C   0  0  0  0  0  0  0  0  0  0  0  0
  161.6500  204.3270  146.4220 C   0  0  0  0  0  3  0  0  0  0  0  0
  161.2540  203.7290  151.1560 O   0  0  0  0  0  0  0  0  0  0  0  0
  163.4030  205.7910  151.8310 O   0  0  0  0  0  0  0  0  0  0  0  0
  161.9700  206.1260  152.1820 P   0  0  1  0  0  0  0  0  0  0  0  0
  160.8760  202.6020  148.4910 C   0  0  0  0  0  3  0  0  0  0  0  0
  162.0750  208.1810  150.8070 C   0  0  1  0  0  3  0  0  0  0  0  0
  161.0060  204.5690  152.2630 C   0  0  0  0  0  2  0  0  0  0  0  0
  161.0830  211.4680  149.9490 O   0  0  0  0  0  0  0  0  0  0  0  0
  160.7010  207.6440  153.6880 C   0  0  2  0  0  3  0  0  0  0  0  0
  161.3820  202.9830  146.1500 C   0  0  0  0  0  3  0  0  0  0  0  0
  161.2800  211.2610  152.7750 N   0  0  0  0  0  0  0  0  0  0  0  0
  160.8600  209.1490  153.5830 C   0  0  0  0  0  0  0  0  0  0  0  0
  162.2020  209.6900  148.8470 C   0  0  0  0  0  2  0  0  0  0  0  0
  161.9150  206.1570  148.0510 C   0  0  0  0  0  0  0  0  0  0  0  0
  160.9750  204.4580  150.0620 O   0  0  0  0  0  0  0  0  0  0  0  0
  161.5170  204.8150  147.7250 C   0  0  0  0  0  0  0  0  0  0  0  0
  161.1220  203.9520  148.7660 C   0  0  0  0  0  0  0  0  0  0  0  0
  161.5040  210.3230  149.9940 C   0  0  0  0  0  0  0  0  0  0  0  0
  162.6480  208.3390  149.3820 C   0  0  2  0  0  3  0  0  0  0  0  0
  161.0010  202.1200  147.1840 C   0  0  0  0  0  3  0  0  0  0  0  0
  160.1430  209.9760  154.2710 N   0  0  0  0  0  0  0  0  0  0  0  0
  158.6370  212.7770  153.6780 O   0  0  0  0  0  1  0  0  0  0  0  0
  159.8540  212.5140  154.3050 C   0  0  0  0  0  2  0  0  0  0  0  0
  159.9630  207.2150  154.9500 C   0  0  0  0  0  2  0  0  0  0  0  0
  160.8730  207.3430  156.1580 C   0  0  0  0  0  1  0  0  0  0  0  0
  1 17  1  6  0  0  0
  1 18  1  0  0  0  0
  2 24  1  6  0  0  0
  2  1  1  0  0  0  0
  3 27  1  0  0  0  0
  3 29  1  0  0  0  0
  4 15  1  0  0  0  0
  5 10  1  0  0  0  0
  7 22  1  0  0  0  0
  8 13  1  0  0  0  0
 10  9  2  6  0  0  0
 10 13  1  0  0  0  0
 10  4  1  0  0  0  0
 11 23  1  0  0  0  0
 12  5  1  6  0  0  0
 12  2  1  0  0  0  0
 14 24  2  0  0  0  0
 15 30  1  1  0  0  0
 16  7  2  0  0  0  0
 16 26  1  0  0  0  0
 17  3  2  0  0  0  0
 18 15  1  0  0  0  0
 18 27  2  0  0  0  0
 19 25  1  0  0  0  0
 19 24  1  0  0  0  0
 20  6  3  0  0  0  0
 21  8  1  0  0  0  0
 22 20  1  0  0  0  0
 22 23  2  0  0  0  0
 23 21  1  0  0  0  0
 25  6  1  6  0  0  0
 25 12  1  0  0  0  0
 26 11  2  0  0  0  0
 28 29  1  0  0  0  0
 30 31  1  0  0  0  0
M  END
>  <MODEL>
3

>  <REMARK>
 VINA RESULT:      -8.1      1.201      1.355
  Name = 
  2 active torsions:
  status: ('A' for Active; 'I' for Inactive)
    1  A    between atoms: C_3  and  C_30
    2  A    between atoms: C_15  and  C_17
                            x       y       z     vdW  Elec       q    Type
                         _______ _______ _______ _____ _____    ______ ____

>  <TORSDO>
F 2

$$$$
