=
 OpenBabel11072414233D

 26 28  0  0  1  0  0  0  0  0999 V2000
  161.7930  206.7230  149.9660 C   0  0  2  0  0  3  0  0  0  0  0  0
  161.8860  206.2070  151.3460 N   0  0  0  0  0  0  0  0  0  0  0  0
  162.4810  206.5630  153.5860 O   0  0  0  0  0  0  0  0  0  0  0  0
  162.2100  210.3380  149.0440 N   0  0  0  0  0  0  0  0  0  0  0  0
  161.6770  204.7760  151.5870 C   0  0  0  0  0  2  0  0  0  0  0  0
  162.0930  208.5640  152.3490 C   0  0  1  0  0  3  0  0  0  0  0  0
  161.9500  208.2100  149.8930 C   0  0  0  0  0  0  0  0  0  0  0  0
  162.0150  208.9820  148.7080 N   0  0  0  0  0  0  0  0  0  0  0  0
  160.4800  206.2830  149.3100 C   0  0  0  0  0  2  0  0  0  0  0  0
  160.0710  204.8470  149.6740 C   0  0  0  0  0  2  0  0  0  0  0  0
  162.1810  207.0650  152.4700 C   0  0  0  0  0  0  0  0  0  0  0  0
  162.1120  208.9960  150.9180 C   0  0  0  0  0  0  0  0  0  0  0  0
  162.2680  210.3250  150.4540 N   0  0  0  0  0  2  0  0  0  0  0  0
  161.2070  204.0560  150.3200 C   0  0  2  0  0  3  0  0  0  0  0  0
  160.8630  209.0820  153.0360 C   0  0  0  0  0  0  0  0  0  0  0  0
  159.7850  209.1920  152.3920 O   0  0  0  0  0  0  0  0  0  0  0  0
  161.8350  210.2650  154.8880 N   0  0  0  0  0  2  0  0  0  0  0  0
  160.9110  209.4680  154.4580 C   0  0  0  0  0  0  0  0  0  0  0  0
  159.8470  209.0170  155.4010 C   0  0  0  0  0  2  0  0  0  0  0  0
  160.0420  207.5540  155.7470 C   0  0  0  0  0  1  0  0  0  0  0  0
  160.7440  202.7210  150.6550 N   0  0  0  0  0  2  0  0  0  0  0  0
  160.2920  202.1010  149.4190 C   0  0  0  0  0  2  0  0  0  0  0  0
  161.2110  200.9470  149.0490 C   0  0  0  0  0  2  0  0  0  0  0  0
  161.1840  200.6810  147.5490 C   0  0  0  0  0  2  0  0  0  0  0  0
  160.4830  201.6250  145.4680 O   0  0  0  0  0  1  0  0  0  0  0  0
  160.8610  201.9470  146.7720 C   0  0  0  0  0  2  0  0  0  0  0  0
  1  9  1  1  0  0  0
  1  2  1  0  0  0  0
  2  5  1  0  0  0  0
  2 11  1  0  0  0  0
  4 13  1  0  0  0  0
  6 11  1  0  0  0  0
  6 15  1  6  0  0  0
  7  1  1  0  0  0  0
  7 12  2  0  0  0  0
  8  4  2  0  0  0  0
  8  7  1  0  0  0  0
  9 10  1  0  0  0  0
 10 14  1  0  0  0  0
 11  3  2  0  0  0  0
 12  6  1  0  0  0  0
 13 12  1  0  0  0  0
 14 21  1  1  0  0  0
 14  5  1  0  0  0  0
 15 18  1  0  0  0  0
 16 15  2  0  0  0  0
 18 17  2  0  0  0  0
 18 19  1  0  0  0  0
 19 20  1  0  0  0  0
 22 21  1  0  0  0  0
 23 22  1  0  0  0  0
 24 23  1  0  0  0  0
 25 26  1  0  0  0  0
 26 24  1  0  0  0  0
M  END
>  <MODEL>
1

>  <REMARK>
 VINA RESULT:      -6.1      0.000      0.000
  Name = 
  8 active torsions:
  status: ('A' for Active; 'I' for Inactive)
    1  A    between atoms: N_1  and  C_24
    2  A    between atoms: N_1  and  C_26
    3  A    between atoms: C_2  and  C_15
    4  A    between atoms: C_2  and  C_17
    5  A    between atoms: C_3  and  C_13
    6  A    between atoms: C_3  and  C_14
    7  A    between atoms: C_6  and  C_14
    8  A    between atoms: C_17  and  C_24
                            x       y       z     vdW  Elec       q    Type
                         _______ _______ _______ _____ _____    ______ ____

>  <TORSDO>
F 8

$$$$
=
 OpenBabel11072414233D

 26 28  0  0  1  0  0  0  0  0999 V2000
  160.7490  204.6080  151.8970 C   0  0  2  0  0  3  0  0  0  0  0  0
  160.5430  204.8730  150.4590 N   0  0  0  0  0  0  0  0  0  0  0  0
  160.0110  206.3900  148.7530 O   0  0  0  0  0  0  0  0  0  0  0  0
  161.0650  207.2950  154.5000 N   0  0  0  0  0  0  0  0  0  0  0  0
  160.4620  203.7390  149.5310 C   0  0  0  0  0  2  0  0  0  0  0  0
  160.7990  207.4120  150.7580 C   0  0  1  0  0  3  0  0  0  0  0  0
  160.8910  205.8630  152.7000 C   0  0  0  0  0  0  0  0  0  0  0  0
  160.9910  205.9410  154.1100 N   0  0  0  0  0  2  0  0  0  0  0  0
  161.9530  203.6860  152.1120 C   0  0  0  0  0  2  0  0  0  0  0  0
  162.0670  202.5770  151.0540 C   0  0  0  0  0  2  0  0  0  0  0  0
  160.4150  206.2110  149.9330 C   0  0  0  0  0  0  0  0  0  0  0  0
  160.8790  207.0700  152.2120 C   0  0  0  0  0  0  0  0  0  0  0  0
  160.9940  207.9950  153.2770 N   0  0  0  0  0  0  0  0  0  0  0  0
  160.7910  202.4170  150.2300 C   0  0  2  0  0  3  0  0  0  0  0  0
  162.1010  207.9880  150.2830 C   0  0  0  0  0  0  0  0  0  0  0  0
  163.0870  207.2270  150.0810 O   0  0  0  0  0  0  0  0  0  0  0  0
  162.4940  210.2310  151.0480 N   0  0  0  0  0  2  0  0  0  0  0  0
  162.2360  209.4390  150.0580 C   0  0  0  0  0  0  0  0  0  0  0  0
  162.1660  210.0000  148.6790 C   0  0  0  0  0  2  0  0  0  0  0  0
  162.0530  211.5110  148.7360 C   0  0  0  0  0  1  0  0  0  0  0  0
  160.9770  201.3700  149.2400 N   0  0  0  0  0  2  0  0  0  0  0  0
  161.2060  202.0240  147.9620 C   0  0  0  0  0  2  0  0  0  0  0  0
  160.7770  201.1110  146.8250 C   0  0  0  0  0  2  0  0  0  0  0  0
  160.6200  201.8880  145.5230 C   0  0  0  0  0  2  0  0  0  0  0  0
  160.6680  204.1910  144.8870 O   0  0  0  0  0  1  0  0  0  0  0  0
  161.3760  203.2060  145.5760 C   0  0  0  0  0  2  0  0  0  0  0  0
  1  9  1  6  0  0  0
  1  7  1  0  0  0  0
  2  1  1  0  0  0  0
  3 11  2  0  0  0  0
  5 14  1  0  0  0  0
  5  2  1  0  0  0  0
  6 15  1  6  0  0  0
  6 12  1  0  0  0  0
  7  8  1  0  0  0  0
  8  4  1  0  0  0  0
 10  9  1  0  0  0  0
 11  2  1  0  0  0  0
 11  6  1  0  0  0  0
 12  7  2  0  0  0  0
 12 13  1  0  0  0  0
 13  4  2  0  0  0  0
 14 21  1  6  0  0  0
 14 10  1  0  0  0  0
 16 15  2  0  0  0  0
 18 15  1  0  0  0  0
 18 17  2  0  0  0  0
 19 20  1  0  0  0  0
 19 18  1  0  0  0  0
 22 21  1  0  0  0  0
 23 22  1  0  0  0  0
 24 26  1  0  0  0  0
 24 23  1  0  0  0  0
 25 26  1  0  0  0  0
M  END
>  <MODEL>
2

>  <REMARK>
 VINA RESULT:      -5.8      2.232      4.057
  Name = 
  8 active torsions:
  status: ('A' for Active; 'I' for Inactive)
    1  A    between atoms: N_1  and  C_24
    2  A    between atoms: N_1  and  C_26
    3  A    between atoms: C_2  and  C_15
    4  A    between atoms: C_2  and  C_17
    5  A    between atoms: C_3  and  C_13
    6  A    between atoms: C_3  and  C_14
    7  A    between atoms: C_6  and  C_14
    8  A    between atoms: C_17  and  C_24
                            x       y       z     vdW  Elec       q    Type
                         _______ _______ _______ _____ _____    ______ ____

>  <TORSDO>
F 8

$$$$
=
 OpenBabel11072414233D

 26 28  0  0  1  0  0  0  0  0999 V2000
  161.7040  206.4570  151.4080 C   0  0  2  0  0  3  0  0  0  0  0  0
  162.1900  207.4380  150.4170 N   0  0  0  0  0  0  0  0  0  0  0  0
  163.0820  207.8710  148.2920 O   0  0  0  0  0  0  0  0  0  0  0  0
  160.9610  202.8640  150.6140 N   0  0  0  0  0  0  0  0  0  0  0  0
  162.4200  208.8230  150.8400 C   0  0  0  0  0  2  0  0  0  0  0  0
  161.9480  205.7800  148.4680 C   0  0  1  0  0  3  0  0  0  0  0  0
  161.4420  205.1110  150.8080 C   0  0  0  0  0  0  0  0  0  0  0  0
  161.0740  203.9430  151.5170 N   0  0  0  0  0  2  0  0  0  0  0  0
  160.4560  206.9840  152.1240 C   0  0  0  0  0  2  0  0  0  0  0  0
  160.5210  208.4890  152.4290 C   0  0  0  0  0  2  0  0  0  0  0  0
  162.4530  207.0780  149.0430 C   0  0  0  0  0  0  0  0  0  0  0  0
  161.5800  204.8140  149.5480 C   0  0  0  0  0  0  0  0  0  0  0  0
  161.2860  203.4410  149.3680 N   0  0  0  0  0  0  0  0  0  0  0  0
  161.9270  209.0630  152.2690 C   0  0  2  0  0  3  0  0  0  0  0  0
  160.7780  206.0210  147.5590 C   0  0  0  0  0  0  0  0  0  0  0  0
  159.7330  206.5610  148.0140 O   0  0  0  0  0  0  0  0  0  0  0  0
  160.0840  206.2030  145.2670 N   0  0  0  0  0  2  0  0  0  0  0  0
  160.8420  205.6240  146.1410 C   0  0  0  0  0  0  0  0  0  0  0  0
  161.8400  204.6150  145.6820 C   0  0  0  0  0  2  0  0  0  0  0  0
  161.2070  203.2380  145.6390 C   0  0  0  0  0  1  0  0  0  0  0  0
  161.9080  210.4880  152.5520 N   0  0  0  0  0  2  0  0  0  0  0  0
  161.1630  210.6700  153.7870 C   0  0  0  0  0  2  0  0  0  0  0  0
  162.1000  210.5700  154.9800 C   0  0  0  0  0  2  0  0  0  0  0  0
  161.4200  209.8810  156.1580 C   0  0  0  0  0  2  0  0  0  0  0  0
  160.3040  207.7920  155.8400 O   0  0  0  0  0  1  0  0  0  0  0  0
  161.5550  208.3700  156.0630 C   0  0  0  0  0  2  0  0  0  0  0  0
  1  9  1  6  0  0  0
  2  5  1  0  0  0  0
  2  1  1  0  0  0  0
  3 11  2  0  0  0  0
  4  8  1  0  0  0  0
  5 14  1  0  0  0  0
  6 15  1  1  0  0  0
  6 11  1  0  0  0  0
  6 12  1  0  0  0  0
  7  1  1  0  0  0  0
  7  8  1  0  0  0  0
  9 10  1  0  0  0  0
 11  2  1  0  0  0  0
 12  7  2  0  0  0  0
 13 12  1  0  0  0  0
 13  4  2  0  0  0  0
 14 10  1  0  0  0  0
 14 21  1  6  0  0  0
 15 16  2  0  0  0  0
 17 18  2  0  0  0  0
 18 15  1  0  0  0  0
 19 18  1  0  0  0  0
 20 19  1  0  0  0  0
 21 22  1  0  0  0  0
 22 23  1  0  0  0  0
 23 24  1  0  0  0  0
 25 26  1  0  0  0  0
 26 24  1  0  0  0  0
M  END
>  <MODEL>
3

>  <REMARK>
 VINA RESULT:      -5.7      2.419      7.698
  Name = 
  8 active torsions:
  status: ('A' for Active; 'I' for Inactive)
    1  A    between atoms: N_1  and  C_24
    2  A    between atoms: N_1  and  C_26
    3  A    between atoms: C_2  and  C_15
    4  A    between atoms: C_2  and  C_17
    5  A    between atoms: C_3  and  C_13
    6  A    between atoms: C_3  and  C_14
    7  A    between atoms: C_6  and  C_14
    8  A    between atoms: C_17  and  C_24
                            x       y       z     vdW  Elec       q    Type
                         _______ _______ _______ _____ _____    ______ ____

>  <TORSDO>
F 8

$$$$
=
 OpenBabel11072414233D

 26 28  0  0  1  0  0  0  0  0999 V2000
  161.7720  206.4320  151.4130 C   0  0  2  0  0  3  0  0  0  0  0  0
  162.2040  207.4340  150.4180 N   0  0  0  0  0  0  0  0  0  0  0  0
  163.0230  207.9090  148.2730 O   0  0  0  0  0  0  0  0  0  0  0  0
  161.0960  202.8290  150.6060 N   0  0  0  0  0  0  0  0  0  0  0  0
  162.4110  208.8210  150.8480 C   0  0  0  0  0  2  0  0  0  0  0  0
  161.9470  205.7890  148.4610 C   0  0  1  0  0  3  0  0  0  0  0  0
  161.5260  205.0860  150.8080 C   0  0  0  0  0  0  0  0  0  0  0  0
  161.2080  203.9020  151.5160 N   0  0  0  0  0  2  0  0  0  0  0  0
  160.5330  206.9210  152.1710 C   0  0  0  0  0  2  0  0  0  0  0  0
  160.5680  208.4240  152.4880 C   0  0  0  0  0  2  0  0  0  0  0  0
  162.4360  207.0940  149.0350 C   0  0  0  0  0  0  0  0  0  0  0  0
  161.6340  204.8040  149.5420 C   0  0  0  0  0  0  0  0  0  0  0  0
  161.3700  203.4250  149.3570 N   0  0  0  0  0  0  0  0  0  0  0  0
  161.9550  209.0350  152.2940 C   0  0  2  0  0  3  0  0  0  0  0  0
  160.7460  206.0090  147.5890 C   0  0  0  0  0  0  0  0  0  0  0  0
  159.6750  206.4450  148.0950 O   0  0  0  0  0  0  0  0  0  0  0  0
  160.0050  206.3030  145.3230 N   0  0  0  0  0  2  0  0  0  0  0  0
  160.8070  205.7110  146.1470 C   0  0  0  0  0  0  0  0  0  0  0  0
  161.8500  204.7910  145.6080 C   0  0  0  0  0  2  0  0  0  0  0  0
  161.3490  203.3600  145.6370 C   0  0  0  0  0  1  0  0  0  0  0  0
  161.9090  210.4560  152.5910 N   0  0  0  0  0  2  0  0  0  0  0  0
  161.5300  210.5900  153.9890 C   0  0  0  0  0  2  0  0  0  0  0  0
  160.3810  211.5770  154.1240 C   0  0  0  0  0  2  0  0  0  0  0  0
  160.0440  212.2170  152.7830 C   0  0  0  0  0  2  0  0  0  0  0  0
  158.0510  213.0630  151.7710 O   0  0  0  0  0  1  0  0  0  0  0  0
  158.8560  213.1580  152.9070 C   0  0  0  0  0  2  0  0  0  0  0  0
  1  9  1  6  0  0  0
  2  5  1  0  0  0  0
  2  1  1  0  0  0  0
  3 11  2  0  0  0  0
  4  8  1  0  0  0  0
  5 14  1  0  0  0  0
  6 15  1  1  0  0  0
  6 11  1  0  0  0  0
  6 12  1  0  0  0  0
  7  1  1  0  0  0  0
  7  8  1  0  0  0  0
  9 10  1  0  0  0  0
 11  2  1  0  0  0  0
 12  7  2  0  0  0  0
 13 12  1  0  0  0  0
 13  4  2  0  0  0  0
 14 10  1  0  0  0  0
 14 21  1  6  0  0  0
 15 16  2  0  0  0  0
 17 18  2  0  0  0  0
 18 15  1  0  0  0  0
 19 20  1  0  0  0  0
 19 18  1  0  0  0  0
 21 22  1  0  0  0  0
 22 23  1  0  0  0  0
 24 26  1  0  0  0  0
 24 23  1  0  0  0  0
 25 26  1  0  0  0  0
M  END
>  <MODEL>
4

>  <REMARK>
 VINA RESULT:      -5.5      2.672      7.901
  Name = 
  8 active torsions:
  status: ('A' for Active; 'I' for Inactive)
    1  A    between atoms: N_1  and  C_24
    2  A    between atoms: N_1  and  C_26
    3  A    between atoms: C_2  and  C_15
    4  A    between atoms: C_2  and  C_17
    5  A    between atoms: C_3  and  C_13
    6  A    between atoms: C_3  and  C_14
    7  A    between atoms: C_6  and  C_14
    8  A    between atoms: C_17  and  C_24
                            x       y       z     vdW  Elec       q    Type
                         _______ _______ _______ _____ _____    ______ ____

>  <TORSDO>
F 8

$$$$
=
 OpenBabel11072414233D

 26 28  0  0  1  0  0  0  0  0999 V2000
  161.9300  207.4150  150.5950 C   0  0  2  0  0  3  0  0  0  0  0  0
  161.7670  207.3480  152.0610 N   0  0  0  0  0  0  0  0  0  0  0  0
  161.8720  208.4210  154.1430 O   0  0  0  0  0  0  0  0  0  0  0  0
  162.3300  210.6140  148.6720 N   0  0  0  0  0  0  0  0  0  0  0  0
  161.5910  206.0390  152.6990 C   0  0  0  0  0  2  0  0  0  0  0  0
  161.6370  209.9040  152.2910 C   0  0  1  0  0  3  0  0  0  0  0  0
  162.0170  208.8200  150.0870 C   0  0  0  0  0  0  0  0  0  0  0  0
  162.2810  209.2060  148.7510 N   0  0  0  0  0  0  0  0  0  0  0  0
  160.8040  206.6510  149.8890 C   0  0  0  0  0  2  0  0  0  0  0  0
  160.4070  205.3520  150.6080 C   0  0  0  0  0  2  0  0  0  0  0  0
  161.7790  208.5290  152.8910 C   0  0  0  0  0  0  0  0  0  0  0  0
  161.9240  209.8890  150.8240 C   0  0  0  0  0  0  0  0  0  0  0  0
  162.0990  211.0280  150.0010 N   0  0  0  0  0  2  0  0  0  0  0  0
  161.4290  204.9260  151.6610 C   0  0  2  0  0  3  0  0  0  0  0  0
  160.2670  210.4590  152.5510 C   0  0  0  0  0  0  0  0  0  0  0  0
  159.2530  209.7250  152.3890 O   0  0  0  0  0  0  0  0  0  0  0  0
  160.3690  212.1970  154.2060 N   0  0  0  0  0  2  0  0  0  0  0  0
  160.0990  211.8560  152.9880 C   0  0  0  0  0  0  0  0  0  0  0  0
  159.7000  212.9110  152.0110 C   0  0  0  0  0  2  0  0  0  0  0  0
  158.2010  213.1370  152.0710 C   0  0  0  0  0  1  0  0  0  0  0  0
  160.9800  203.7070  152.3110 N   0  0  0  0  0  2  0  0  0  0  0  0
  161.5010  202.5910  151.5370 C   0  0  0  0  0  2  0  0  0  0  0  0
  160.7990  202.5200  150.1900 C   0  0  0  0  0  2  0  0  0  0  0  0
  160.8840  201.1180  149.5980 C   0  0  0  0  0  2  0  0  0  0  0  0
  161.5850  200.1790  147.5150 O   0  0  0  0  0  1  0  0  0  0  0  0
  160.7630  201.1530  148.0830 C   0  0  0  0  0  2  0  0  0  0  0  0
  1  9  1  6  0  0  0
  1  2  1  0  0  0  0
  2  5  1  0  0  0  0
  2 11  1  0  0  0  0
  4  8  2  0  0  0  0
  4 13  1  0  0  0  0
  6 15  1  6  0  0  0
  6 11  1  0  0  0  0
  7  1  1  0  0  0  0
  7 12  2  0  0  0  0
  8  7  1  0  0  0  0
  9 10  1  0  0  0  0
 10 14  1  0  0  0  0
 11  3  2  0  0  0  0
 12  6  1  0  0  0  0
 13 12  1  0  0  0  0
 14 21  1  1  0  0  0
 14  5  1  0  0  0  0
 15 18  1  0  0  0  0
 16 15  2  0  0  0  0
 18 17  2  0  0  0  0
 19 20  1  0  0  0  0
 19 18  1  0  0  0  0
 22 21  1  0  0  0  0
 23 22  1  0  0  0  0
 24 23  1  0  0  0  0
 25 26  1  0  0  0  0
 26 24  1  0  0  0  0
M  END
>  <MODEL>
5

>  <REMARK>
 VINA RESULT:      -5.1      1.872      2.336
  Name = 
  8 active torsions:
  status: ('A' for Active; 'I' for Inactive)
    1  A    between atoms: N_1  and  C_24
    2  A    between atoms: N_1  and  C_26
    3  A    between atoms: C_2  and  C_15
    4  A    between atoms: C_2  and  C_17
    5  A    between atoms: C_3  and  C_13
    6  A    between atoms: C_3  and  C_14
    7  A    between atoms: C_6  and  C_14
    8  A    between atoms: C_17  and  C_24
                            x       y       z     vdW  Elec       q    Type
                         _______ _______ _______ _____ _____    ______ ____

>  <TORSDO>
F 8

$$$$
=
 OpenBabel11072414233D

 26 28  0  0  1  0  0  0  0  0999 V2000
  161.4700  204.6260  149.0880 C   0  0  2  0  0  3  0  0  0  0  0  0
  162.2220  205.2750  147.9950 N   0  0  0  0  0  0  0  0  0  0  0  0
  163.4530  205.0730  146.0100 O   0  0  0  0  0  0  0  0  0  0  0  0
  160.3540  201.0430  149.0280 N   0  0  0  0  0  0  0  0  0  0  0  0
  162.5800  206.6920  148.1210 C   0  0  0  0  0  2  0  0  0  0  0  0
  162.0270  203.2180  146.4670 C   0  0  1  0  0  3  0  0  0  0  0  0
  161.1110  203.2070  148.7790 C   0  0  0  0  0  0  0  0  0  0  0  0
  160.4880  202.2950  149.6640 N   0  0  0  0  0  2  0  0  0  0  0  0
  160.2210  205.4380  149.4430 C   0  0  0  0  0  2  0  0  0  0  0  0
  160.4500  206.9570  149.4000 C   0  0  0  0  0  2  0  0  0  0  0  0
  162.6220  204.5610  146.8060 C   0  0  0  0  0  0  0  0  0  0  0  0
  161.3810  202.5930  147.6620 C   0  0  0  0  0  0  0  0  0  0  0  0
  160.9270  201.2550  147.7550 N   0  0  0  0  0  0  0  0  0  0  0  0
  161.9310  207.3280  149.3520 C   0  0  2  0  0  3  0  0  0  0  0  0
  161.0400  203.3420  145.3430 C   0  0  0  0  0  0  0  0  0  0  0  0
  160.4630  202.3120  144.8990 O   0  0  0  0  0  0  0  0  0  0  0  0
  161.4220  205.0810  143.7300 N   0  0  0  0  0  2  0  0  0  0  0  0
  160.7470  204.6600  144.7510 C   0  0  0  0  0  0  0  0  0  0  0  0
  159.6150  205.4850  145.2620 C   0  0  0  0  0  2  0  0  0  0  0  0
  160.1260  206.8260  145.7510 C   0  0  0  0  0  1  0  0  0  0  0  0
  162.0710  208.7730  149.2930 N   0  0  0  0  0  2  0  0  0  0  0  0
  162.3300  209.2350  150.6470 C   0  0  0  0  0  2  0  0  0  0  0  0
  161.1530  208.8940  151.5470 C   0  0  0  0  0  2  0  0  0  0  0  0
  161.6230  208.2550  152.8490 C   0  0  0  0  0  2  0  0  0  0  0  0
  161.0850  206.5800  154.4670 O   0  0  0  0  0  1  0  0  0  0  0  0
  160.8300  206.9950  153.1600 C   0  0  0  0  0  2  0  0  0  0  0  0
  1  9  1  6  0  0  0
  2  5  1  0  0  0  0
  2  1  1  0  0  0  0
  3 11  2  0  0  0  0
  4  8  1  0  0  0  0
  5 14  1  0  0  0  0
  6 15  1  6  0  0  0
  6 11  1  0  0  0  0
  6 12  1  0  0  0  0
  7  1  1  0  0  0  0
  7  8  1  0  0  0  0
 10  9  1  0  0  0  0
 11  2  1  0  0  0  0
 12 13  1  0  0  0  0
 12  7  2  0  0  0  0
 13  4  2  0  0  0  0
 14 21  1  6  0  0  0
 14 10  1  0  0  0  0
 16 15  2  0  0  0  0
 17 18  2  0  0  0  0
 18 19  1  0  0  0  0
 18 15  1  0  0  0  0
 19 20  1  0  0  0  0
 21 22  1  0  0  0  0
 22 23  1  0  0  0  0
 23 24  1  0  0  0  0
 24 26  1  0  0  0  0
 26 25  1  0  0  0  0
M  END
>  <MODEL>
6

>  <REMARK>
 VINA RESULT:      -4.8      2.546      7.910
  Name = 
  8 active torsions:
  status: ('A' for Active; 'I' for Inactive)
    1  A    between atoms: N_1  and  C_24
    2  A    between atoms: N_1  and  C_26
    3  A    between atoms: C_2  and  C_15
    4  A    between atoms: C_2  and  C_17
    5  A    between atoms: C_3  and  C_13
    6  A    between atoms: C_3  and  C_14
    7  A    between atoms: C_6  and  C_14
    8  A    between atoms: C_17  and  C_24
                            x       y       z     vdW  Elec       q    Type
                         _______ _______ _______ _____ _____    ______ ____

>  <TORSDO>
F 8

$$$$
=
 OpenBabel11072414233D

 26 28  0  0  1  0  0  0  0  0999 V2000
  162.1250  207.7890  148.6450 C   0  0  2  0  0  3  0  0  0  0  0  0
  162.2940  206.6900  149.6170 N   0  0  0  0  0  0  0  0  0  0  0  0
  162.8950  205.9930  151.7730 O   0  0  0  0  0  0  0  0  0  0  0  0
  162.1760  211.4290  149.5620 N   0  0  0  0  0  0  0  0  0  0  0  0
  162.2280  205.3040  149.1430 C   0  0  0  0  0  2  0  0  0  0  0  0
  162.2930  208.2950  151.6240 C   0  0  1  0  0  3  0  0  0  0  0  0
  162.1370  209.1390  149.2910 C   0  0  0  0  0  0  0  0  0  0  0  0
  162.1050  210.3830  148.6170 N   0  0  0  0  0  0  0  0  0  0  0  0
  160.8480  207.5920  147.8210 C   0  0  0  0  0  2  0  0  0  0  0  0
  160.5850  206.1240  147.4480 C   0  0  0  0  0  2  0  0  0  0  0  0
  162.5260  206.9340  151.0210 C   0  0  0  0  0  0  0  0  0  0  0  0
  162.2420  209.3550  150.5700 C   0  0  0  0  0  0  0  0  0  0  0  0
  162.2610  210.7520  150.7970 N   0  0  0  0  0  2  0  0  0  0  0  0
  161.8040  205.2320  147.6740 C   0  0  2  0  0  3  0  0  0  0  0  0
  161.0330  208.3060  152.4390 C   0  0  0  0  0  0  0  0  0  0  0  0
  159.9480  208.6760  151.9110 O   0  0  0  0  0  0  0  0  0  0  0  0
  160.8850  206.6540  154.1760 N   0  0  0  0  0  2  0  0  0  0  0  0
  161.0570  207.8950  153.8540 C   0  0  0  0  0  0  0  0  0  0  0  0
  161.3670  208.8860  154.9250 C   0  0  0  0  0  2  0  0  0  0  0  0
  160.1150  209.6530  155.3040 C   0  0  0  0  0  1  0  0  0  0  0  0
  161.4780  203.8610  147.3210 N   0  0  0  0  0  2  0  0  0  0  0  0
  160.8190  203.2670  148.4740 C   0  0  0  0  0  2  0  0  0  0  0  0
  161.1530  201.7860  148.5580 C   0  0  0  0  0  2  0  0  0  0  0  0
  160.9240  201.2500  149.9660 C   0  0  0  0  0  2  0  0  0  0  0  0
  161.9570  202.6000  151.6450 O   0  0  0  0  0  1  0  0  0  0  0  0
  160.7580  202.3840  150.9660 C   0  0  0  0  0  2  0  0  0  0  0  0
  1  9  1  1  0  0  0
  1  7  1  0  0  0  0
  1  2  1  0  0  0  0
  2 11  1  0  0  0  0
  4 13  1  0  0  0  0
  5  2  1  0  0  0  0
  6 15  1  6  0  0  0
  7 12  2  0  0  0  0
  8  7  1  0  0  0  0
  8  4  2  0  0  0  0
 10 14  1  0  0  0  0
 10  9  1  0  0  0  0
 11  6  1  0  0  0  0
 11  3  2  0  0  0  0
 12 13  1  0  0  0  0
 12  6  1  0  0  0  0
 14 21  1  1  0  0  0
 14  5  1  0  0  0  0
 15 18  1  0  0  0  0
 16 15  2  0  0  0  0
 18 17  2  0  0  0  0
 18 19  1  0  0  0  0
 19 20  1  0  0  0  0
 21 22  1  0  0  0  0
 22 23  1  0  0  0  0
 23 24  1  0  0  0  0
 24 26  1  0  0  0  0
 26 25  1  0  0  0  0
M  END
>  <MODEL>
7

>  <REMARK>
 VINA RESULT:      -4.8      2.116      2.420
  Name = 
  8 active torsions:
  status: ('A' for Active; 'I' for Inactive)
    1  A    between atoms: N_1  and  C_24
    2  A    between atoms: N_1  and  C_26
    3  A    between atoms: C_2  and  C_15
    4  A    between atoms: C_2  and  C_17
    5  A    between atoms: C_3  and  C_13
    6  A    between atoms: C_3  and  C_14
    7  A    between atoms: C_6  and  C_14
    8  A    between atoms: C_17  and  C_24
                            x       y       z     vdW  Elec       q    Type
                         _______ _______ _______ _____ _____    ______ ____

>  <TORSDO>
F 8

$$$$
=
 OpenBabel11072414233D

 26 28  0  0  1  0  0  0  0  0999 V2000
  161.5320  204.7900  149.0100 C   0  0  2  0  0  3  0  0  0  0  0  0
  162.3270  205.2740  147.8630 N   0  0  0  0  0  0  0  0  0  0  0  0
  163.5330  204.7920  145.9110 O   0  0  0  0  0  0  0  0  0  0  0  0
  160.1490  201.3110  149.2860 N   0  0  0  0  0  0  0  0  0  0  0  0
  162.7910  206.6650  147.8550 C   0  0  0  0  0  2  0  0  0  0  0  0
  161.9720  203.1010  146.5370 C   0  0  1  0  0  3  0  0  0  0  0  0
  161.0660  203.3790  148.8350 C   0  0  0  0  0  0  0  0  0  0  0  0
  160.3790  202.6050  149.8010 N   0  0  0  0  0  2  0  0  0  0  0  0
  160.3480  205.7240  149.2800 C   0  0  0  0  0  2  0  0  0  0  0  0
  160.6910  207.2100  149.0940 C   0  0  0  0  0  2  0  0  0  0  0  0
  162.6680  204.4210  146.7490 C   0  0  0  0  0  0  0  0  0  0  0  0
  161.2850  202.6430  147.7840 C   0  0  0  0  0  0  0  0  0  0  0  0
  160.7320  201.3580  148.0020 N   0  0  0  0  0  0  0  0  0  0  0  0
  162.1950  207.4630  149.0180 C   0  0  2  0  0  3  0  0  0  0  0  0
  160.9940  203.1910  145.4030 C   0  0  0  0  0  0  0  0  0  0  0  0
  160.4240  202.1470  144.9820 O   0  0  0  0  0  0  0  0  0  0  0  0
  161.3180  204.8450  143.6910 N   0  0  0  0  0  2  0  0  0  0  0  0
  160.7020  204.4910  144.7720 C   0  0  0  0  0  0  0  0  0  0  0  0
  159.6340  205.3750  145.3210 C   0  0  0  0  0  2  0  0  0  0  0  0
  160.1830  206.7670  145.5670 C   0  0  0  0  0  1  0  0  0  0  0  0
  162.4440  208.8810  148.8210 N   0  0  0  0  0  2  0  0  0  0  0  0
  161.7110  209.5910  149.8570 C   0  0  0  0  0  2  0  0  0  0  0  0
  162.2360  211.0130  149.9840 C   0  0  0  0  0  2  0  0  0  0  0  0
  161.7580  211.8820  148.8270 C   0  0  0  0  0  2  0  0  0  0  0  0
  162.4820  212.7980  146.7420 O   0  0  0  0  0  1  0  0  0  0  0  0
  162.9290  212.3830  147.9960 C   0  0  0  0  0  2  0  0  0  0  0  0
  1  9  1  6  0  0  0
  2  1  1  0  0  0  0
  3 11  2  0  0  0  0
  4  8  1  0  0  0  0
  5  2  1  0  0  0  0
  5 14  1  0  0  0  0
  6 15  1  6  0  0  0
  6 11  1  0  0  0  0
  6 12  1  0  0  0  0
  7  1  1  0  0  0  0
  7  8  1  0  0  0  0
 10  9  1  0  0  0  0
 11  2  1  0  0  0  0
 12 13  1  0  0  0  0
 12  7  2  0  0  0  0
 13  4  2  0  0  0  0
 14 21  1  6  0  0  0
 14 10  1  0  0  0  0
 16 15  2  0  0  0  0
 17 18  2  0  0  0  0
 18 19  1  0  0  0  0
 18 15  1  0  0  0  0
 19 20  1  0  0  0  0
 21 22  1  0  0  0  0
 22 23  1  0  0  0  0
 24 23  1  0  0  0  0
 25 26  1  0  0  0  0
 26 24  1  0  0  0  0
M  END
>  <MODEL>
8

>  <REMARK>
 VINA RESULT:      -4.8      3.576      8.294
  Name = 
  8 active torsions:
  status: ('A' for Active; 'I' for Inactive)
    1  A    between atoms: N_1  and  C_24
    2  A    between atoms: N_1  and  C_26
    3  A    between atoms: C_2  and  C_15
    4  A    between atoms: C_2  and  C_17
    5  A    between atoms: C_3  and  C_13
    6  A    between atoms: C_3  and  C_14
    7  A    between atoms: C_6  and  C_14
    8  A    between atoms: C_17  and  C_24
                            x       y       z     vdW  Elec       q    Type
                         _______ _______ _______ _____ _____    ______ ____

>  <TORSDO>
F 8

$$$$
=
 OpenBabel11072414233D

 26 28  0  0  1  0  0  0  0  0999 V2000
  160.3910  210.9650  153.4950 C   0  0  2  0  0  3  0  0  0  0  0  0
  160.0130  210.3750  154.7960 N   0  0  0  0  0  0  0  0  0  0  0  0
  159.0520  210.6420  156.9180 O   0  0  0  0  0  0  0  0  0  0  0  0
  159.1970  214.3120  152.2840 N   0  0  0  0  0  0  0  0  0  0  0  0
  160.5210  209.0450  155.1480 C   0  0  0  0  0  2  0  0  0  0  0  0
  158.3590  212.2710  155.3190 C   0  0  1  0  0  3  0  0  0  0  0  0
  159.7310  212.2850  153.2470 C   0  0  0  0  0  0  0  0  0  0  0  0
  159.9730  213.1410  152.1460 N   0  0  0  0  0  0  0  0  0  0  0  0
  160.0990  209.9880  152.3520 C   0  0  0  0  0  2  0  0  0  0  0  0
  160.4120  208.5260  152.7070 C   0  0  0  0  0  2  0  0  0  0  0  0
  159.1620  211.0650  155.7360 C   0  0  0  0  0  0  0  0  0  0  0  0
  158.8820  212.8600  154.0490 C   0  0  0  0  0  0  0  0  0  0  0  0
  158.5100  214.1110  153.5000 N   0  0  0  0  0  2  0  0  0  0  0  0
  161.2560  208.3950  153.9730 C   0  0  2  0  0  3  0  0  0  0  0  0
  156.9070  211.9170  155.1740 C   0  0  0  0  0  0  0  0  0  0  0  0
  156.5460  211.1120  154.2720 O   0  0  0  0  0  0  0  0  0  0  0  0
  155.3960  211.8090  157.0390 N   0  0  0  0  0  2  0  0  0  0  0  0
  155.9020  212.5090  156.0750 C   0  0  0  0  0  0  0  0  0  0  0  0
  155.5200  213.9450  155.9430 C   0  0  0  0  0  2  0  0  0  0  0  0
  155.0710  214.2370  154.5250 C   0  0  0  0  0  1  0  0  0  0  0  0
  161.4950  206.9910  154.2580 N   0  0  0  0  0  2  0  0  0  0  0  0
  161.9540  206.3750  153.0230 C   0  0  0  0  0  2  0  0  0  0  0  0
  161.2160  205.0670  152.7880 C   0  0  0  0  0  2  0  0  0  0  0  0
  161.5990  204.4520  151.4470 C   0  0  0  0  0  2  0  0  0  0  0  0
  160.9070  202.2690  150.7650 O   0  0  0  0  0  1  0  0  0  0  0  0
  160.4750  203.5890  150.8970 C   0  0  0  0  0  2  0  0  0  0  0  0
  1  9  1  6  0  0  0
  1  2  1  0  0  0  0
  2  5  1  0  0  0  0
  2 11  1  0  0  0  0
  4 13  1  0  0  0  0
  6 15  1  6  0  0  0
  6 11  1  0  0  0  0
  7  1  1  0  0  0  0
  7 12  2  0  0  0  0
  8  4  2  0  0  0  0
  8  7  1  0  0  0  0
  9 10  1  0  0  0  0
 10 14  1  0  0  0  0
 11  3  2  0  0  0  0
 12  6  1  0  0  0  0
 13 12  1  0  0  0  0
 14 21  1  1  0  0  0
 14  5  1  0  0  0  0
 15 18  1  0  0  0  0
 16 15  2  0  0  0  0
 18 17  2  0  0  0  0
 19 18  1  0  0  0  0
 20 19  1  0  0  0  0
 22 21  1  0  0  0  0
 23 22  1  0  0  0  0
 24 23  1  0  0  0  0
 25 26  1  0  0  0  0
 26 24  1  0  0  0  0
M  END
>  <MODEL>
9

>  <REMARK>
 VINA RESULT:      -4.7      3.915      5.825
  Name = 
  8 active torsions:
  status: ('A' for Active; 'I' for Inactive)
    1  A    between atoms: N_1  and  C_24
    2  A    between atoms: N_1  and  C_26
    3  A    between atoms: C_2  and  C_15
    4  A    between atoms: C_2  and  C_17
    5  A    between atoms: C_3  and  C_13
    6  A    between atoms: C_3  and  C_14
    7  A    between atoms: C_6  and  C_14
    8  A    between atoms: C_17  and  C_24
                            x       y       z     vdW  Elec       q    Type
                         _______ _______ _______ _____ _____    ______ ____

>  <TORSDO>
F 8

$$$$
