=
 OpenBabel11072410143D

 37 42  0  0  1  0  0  0  0  0999 V2000
  161.9550  210.7370  150.1690 N   0  0  0  0  0  0  0  0  0  0  0  0
  161.4690  207.1380  150.3020 C   0  0  1  0  0  3  0  0  0  0  0  0
  162.1910  205.4840  152.2430 C   0  0  1  0  0  3  0  0  0  0  0  0
  162.4300  206.6970  149.1760 C   0  0  0  0  0  2  0  0  0  0  0  0
  161.4290  209.7170  150.8800 C   0  0  0  0  0  0  0  0  0  0  0  0
  161.9220  208.9850  148.9110 C   0  0  1  0  0  3  0  0  0  0  0  0
  161.4750  208.7020  153.2750 C   0  0  1  0  0  3  0  0  0  0  0  0
  162.0500  206.9010  151.6850 C   0  0  2  0  0  3  0  0  0  0  0  0
  161.0490  207.3470  152.7250 C   0  0  1  0  0  3  0  0  0  0  0  0
  161.2380  209.7790  152.3050 N   0  0  0  0  0  2  0  0  0  0  0  0
  161.3710  208.5970  150.0660 C   0  0  1  0  0  3  0  0  0  0  0  0
  162.2980  210.2770  148.9690 N   0  0  0  0  0  2  0  0  0  0  0  0
  162.5790  207.8790  148.1900 C   0  0  0  0  0  2  0  0  0  0  0  0
  161.3210  205.8830  153.8510 P   0  0  0  0  0  2  0  0  0  0  0  0
  160.4560  203.5850  152.3010 C   0  0  0  0  0  2  0  0  0  0  0  0
  159.9460  204.6830  151.3750 C   0  0  0  0  0  2  0  0  0  0  0  0
  161.4290  204.3960  151.4710 C   0  0  0  0  0  0  0  0  0  0  0  0
  162.0570  203.7440  150.2230 C   0  0  0  0  0  2  0  0  0  0  0  0
  160.8940  201.7940  149.1830 C   0  0  0  0  0  1  0  0  0  0  0  0
  161.0680  203.3010  149.1440 C   0  0  2  0  0  3  0  0  0  0  0  0
  161.5000  203.7340  147.8160 N   0  0  0  0  0  2  0  0  0  0  0  0
  161.2040  203.0550  146.5850 C   0  0  0  0  0  0  0  0  0  0  0  0
  160.4890  201.9710  146.5950 N   0  0  0  0  0  0  0  0  0  0  0  0
  161.6900  203.5620  145.3760 O   0  0  0  0  0  0  0  0  0  0  0  0
  161.0580  204.6460  144.7100 C   0  0  0  0  0  1  0  0  0  0  0  0
  159.9130  200.6780  144.4620 N   0  0  0  0  0  0  0  0  0  0  0  0
  160.1720  201.2620  145.4250 C   0  0  0  0  0  0  0  0  0  0  0  0
  161.6300  208.6580  155.6710 O   0  0  0  0  0  1  0  0  0  0  0  0
  160.7970  209.0280  154.6130 C   0  0  1  0  0  3  0  0  0  0  0  0
  161.2000  211.3390  155.3020 C   0  0  0  0  0  2  0  0  0  0  0  0
  160.3630  210.4740  154.7290 C   0  0  0  0  0  0  0  0  0  0  0  0
  158.0870  211.3500  154.8210 N   0  0  0  0  0  2  0  0  0  0  0  0
  158.9510  212.4110  154.2860 C   0  0  1  0  0  3  0  0  0  0  0  0
  159.2090  211.0150  153.9290 C   0  0  1  0  0  3  0  0  0  0  0  0
  158.2750  213.0700  153.1860 N   0  0  0  0  0  2  0  0  0  0  0  0
  157.9120  213.2090  150.8960 O   0  0  0  0  0  0  0  0  0  0  0  0
  158.4980  212.6370  151.8510 C   0  0  0  0  0  3  0  0  0  0  0  0
  1  5  2  0  0  0  0
  2  4  1  6  0  0  0
  2  8  1  0  0  0  0
  3 17  1  6  0  0  0
  3 14  1  0  0  0  0
  5 10  1  0  0  0  0
  6 13  1  1  0  0  0
  6 12  1  0  0  0  0
  6 11  1  0  0  0  0
  7 29  1  1  0  0  0
  8  3  1  0  0  0  0
  8  9  1  0  0  0  0
  9  7  1  0  0  0  0
  9 14  1  0  0  0  0
 10  7  1  0  0  0  0
 11  2  1  0  0  0  0
 11  5  1  0  0  0  0
 12  1  1  0  0  0  0
 13  4  1  0  0  0  0
 16 17  1  0  0  0  0
 16 15  1  0  0  0  0
 17 15  1  0  0  0  0
 18 17  1  0  0  0  0
 20 19  1  0  0  0  0
 20 18  1  0  0  0  0
 21 20  1  0  0  0  0
 22 23  2  0  0  0  0
 22 21  1  0  0  0  0
 24 22  1  0  0  0  0
 25 24  1  0  0  0  0
 26 27  3  0  0  0  0
 27 23  1  0  0  0  0
 29 31  1  0  0  0  0
 29 28  1  0  0  0  0
 31 30  2  0  0  0  0
 33 32  1  0  0  0  0
 34 33  1  0  0  0  0
 34 31  1  0  0  0  0
 34 32  1  0  0  0  0
 35 33  1  0  0  0  0
 36 37  2  0  0  0  0
 37 35  1  0  0  0  0
M  END
>  <MODEL>
1

>  <REMARK>
 VINA RESULT:      -6.5      0.000      0.000
  Name = 
  10 active torsions:
  status: ('A' for Active; 'I' for Inactive)
    1  A    between atoms: N_3  and  C_10
    2  A    between atoms: O_4  and  C_15
    3  A    between atoms: C_8  and  C_29
    4  A    between atoms: N_11  and  C_31
    5  A    between atoms: C_13  and  C_29
    6  A    between atoms: C_13  and  C_31
    7  A    between atoms: C_16  and  C_21
    8  A    between atoms: C_16  and  C_34
    9  A    between atoms: C_19  and  N_27
   10  A    between atoms: C_23  and  C_34
                            x       y       z     vdW  Elec       q    Type
                         _______ _______ _______ _____ _____    ______ ____

>  <TORSDO>
F 10

$$$$
=
 OpenBabel11072410143D

 37 42  0  0  1  0  0  0  0  0999 V2000
  161.5620  205.0640  152.6560 N   0  0  0  0  0  0  0  0  0  0  0  0
  160.5820  208.4950  153.3480 C   0  0  1  0  0  3  0  0  0  0  0  0
  161.6930  210.7100  152.4070 C   0  0  1  0  0  3  0  0  0  0  0  0
  160.9720  208.5890  154.8390 C   0  0  0  0  0  2  0  0  0  0  0  0
  161.1790  206.2370  152.1080 C   0  0  0  0  0  0  0  0  0  0  0  0
  160.7820  206.3190  154.2280 C   0  0  1  0  0  3  0  0  0  0  0  0
  161.9430  207.9670  150.3210 C   0  0  1  0  0  3  0  0  0  0  0  0
  161.5870  209.1840  152.4420 C   0  0  2  0  0  3  0  0  0  0  0  0
  161.1290  209.0580  151.0070 C   0  0  1  0  0  3  0  0  0  0  0  0
  161.5420  206.6270  150.7720 N   0  0  0  0  0  2  0  0  0  0  0  0
  160.6430  207.0340  153.1070 C   0  0  1  0  0  3  0  0  0  0  0  0
  161.3570  205.1290  153.9680 N   0  0  0  0  0  2  0  0  0  0  0  0
  160.9360  207.1600  155.4290 C   0  0  0  0  0  2  0  0  0  0  0  0
  161.5570  210.8140  150.5430 P   0  0  0  0  0  2  0  0  0  0  0  0
  159.8940  212.5410  152.2250 C   0  0  0  0  0  2  0  0  0  0  0  0
  159.2030  211.1950  152.4080 C   0  0  0  0  0  2  0  0  0  0  0  0
  160.5330  211.4630  153.0770 C   0  0  0  0  0  0  0  0  0  0  0  0
  160.4820  211.6070  154.6110 C   0  0  0  0  0  2  0  0  0  0  0  0
  160.0920  213.3950  156.3090 C   0  0  0  0  0  1  0  0  0  0  0  0
  159.4860  212.6380  155.1420 C   0  0  2  0  0  3  0  0  0  0  0  0
  158.2270  212.0070  155.5380 N   0  0  0  0  0  2  0  0  0  0  0  0
  156.9250  212.3880  155.0670 C   0  0  0  0  0  0  0  0  0  0  0  0
  156.8000  213.3560  154.2100 N   0  0  0  0  0  0  0  0  0  0  0  0
  155.7920  211.7150  155.5340 O   0  0  0  0  0  0  0  0  0  0  0  0
  155.5370  210.3580  155.2040 C   0  0  0  0  0  1  0  0  0  0  0  0
  154.5260  214.1200  153.3130 N   0  0  0  0  0  0  0  0  0  0  0  0
  155.5530  213.7740  153.7180 C   0  0  0  0  0  0  0  0  0  0  0  0
  163.1230  208.4030  148.2760 O   0  0  0  0  0  1  0  0  0  0  0  0
  161.8710  208.0610  148.7910 C   0  0  1  0  0  3  0  0  0  0  0  0
  160.1690  206.3190  148.5820 C   0  0  0  0  0  2  0  0  0  0  0  0
  161.3270  206.8080  148.1390 C   0  0  0  0  0  0  0  0  0  0  0  0
  162.7970  205.2060  147.0290 N   0  0  0  0  0  2  0  0  0  0  0  0
  161.4250  204.9380  146.5790 C   0  0  1  0  0  3  0  0  0  0  0  0
  161.8530  206.3160  146.8180 C   0  0  1  0  0  3  0  0  0  0  0  0
  161.4320  204.6730  145.1530 N   0  0  0  0  0  2  0  0  0  0  0  0
  161.3880  205.5220  142.9920 O   0  0  0  0  0  0  0  0  0  0  0  0
  161.3820  205.7520  144.2290 C   0  0  0  0  0  3  0  0  0  0  0  0
  1 12  1  0  0  0  0
  2  4  1  1  0  0  0
  3  8  1  0  0  0  0
  3 17  1  1  0  0  0
  4 13  1  0  0  0  0
  5  1  2  0  0  0  0
  5 11  1  0  0  0  0
  6 13  1  1  0  0  0
  7 29  1  6  0  0  0
  7 10  1  0  0  0  0
  7  9  1  0  0  0  0
  8  2  1  0  0  0  0
  9  8  1  0  0  0  0
 10  5  1  0  0  0  0
 11  2  1  0  0  0  0
 11  6  1  0  0  0  0
 12  6  1  0  0  0  0
 14  9  1  0  0  0  0
 14  3  1  0  0  0  0
 15 16  1  0  0  0  0
 15 17  1  0  0  0  0
 16 17  1  0  0  0  0
 17 18  1  0  0  0  0
 18 20  1  0  0  0  0
 20 21  1  0  0  0  0
 20 19  1  0  0  0  0
 22 24  1  0  0  0  0
 22 21  1  0  0  0  0
 23 22  2  0  0  0  0
 25 24  1  0  0  0  0
 26 27  3  0  0  0  0
 27 23  1  0  0  0  0
 28 29  1  0  0  0  0
 31 30  2  0  0  0  0
 31 29  1  0  0  0  0
 33 34  1  0  0  0  0
 33 32  1  0  0  0  0
 34 32  1  0  0  0  0
 34 31  1  0  0  0  0
 35 33  1  0  0  0  0
 36 37  2  0  0  0  0
 37 35  1  0  0  0  0
M  END
>  <MODEL>
2

>  <REMARK>
 VINA RESULT:      -6.5      2.821      9.436
  Name = 
  10 active torsions:
  status: ('A' for Active; 'I' for Inactive)
    1  A    between atoms: N_3  and  C_10
    2  A    between atoms: O_4  and  C_15
    3  A    between atoms: C_8  and  C_29
    4  A    between atoms: N_11  and  C_31
    5  A    between atoms: C_13  and  C_29
    6  A    between atoms: C_13  and  C_31
    7  A    between atoms: C_16  and  C_21
    8  A    between atoms: C_16  and  C_34
    9  A    between atoms: C_19  and  N_27
   10  A    between atoms: C_23  and  C_34
                            x       y       z     vdW  Elec       q    Type
                         _______ _______ _______ _____ _____    ______ ____

>  <TORSDO>
F 10

$$$$
=
 OpenBabel11072410143D

 37 42  0  0  1  0  0  0  0  0999 V2000
  160.9770  202.9460  150.1660 N   0  0  0  0  0  0  0  0  0  0  0  0
  160.8080  206.0480  152.0520 C   0  0  1  0  0  3  0  0  0  0  0  0
  162.2960  208.2180  151.7230 C   0  0  1  0  0  3  0  0  0  0  0  0
  161.3180  205.5560  153.4230 C   0  0  0  0  0  2  0  0  0  0  0  0
  160.8150  204.2840  150.0830 C   0  0  0  0  0  0  0  0  0  0  0  0
  160.6010  203.7040  152.1510 C   0  0  1  0  0  3  0  0  0  0  0  0
  161.7990  206.3560  148.8560 C   0  0  1  0  0  3  0  0  0  0  0  0
  161.8690  206.8170  151.2820 C   0  0  2  0  0  3  0  0  0  0  0  0
  161.2910  207.2720  149.9620 C   0  0  1  0  0  3  0  0  0  0  0  0
  161.1540  205.0370  148.9050 N   0  0  0  0  0  2  0  0  0  0  0  0
  160.5370  204.7720  151.3500 C   0  0  1  0  0  3  0  0  0  0  0  0
  160.8870  202.5930  151.4450 N   0  0  0  0  0  2  0  0  0  0  0  0
  161.0200  204.0420  153.5240 C   0  0  0  0  0  2  0  0  0  0  0  0
  162.0500  208.9750  150.0300 P   0  0  0  0  0  2  0  0  0  0  0  0
  161.4430  210.4020  152.7820 C   0  0  0  0  0  2  0  0  0  0  0  0
  160.2710  209.6960  152.1110 C   0  0  0  0  0  2  0  0  0  0  0  0
  161.3770  208.8890  152.7550 C   0  0  0  0  0  0  0  0  0  0  0  0
  160.9830  208.1440  154.0460 C   0  0  0  0  0  2  0  0  0  0  0  0
  161.6190  208.1640  156.4610 C   0  0  0  0  0  1  0  0  0  0  0  0
  161.0250  208.9790  155.3270 C   0  0  2  0  0  3  0  0  0  0  0  0
  159.6960  209.4680  155.6870 N   0  0  0  0  0  2  0  0  0  0  0  0
  159.3630  210.8380  155.9650 C   0  0  0  0  0  0  0  0  0  0  0  0
  160.2770  211.7570  155.8940 N   0  0  0  0  0  0  0  0  0  0  0  0
  158.0530  211.1780  156.3160 O   0  0  0  0  0  0  0  0  0  0  0  0
  156.9780  211.0660  155.3950 C   0  0  0  0  0  1  0  0  0  0  0  0
  159.7940  214.2250  156.3760 N   0  0  0  0  0  0  0  0  0  0  0  0
  160.0120  213.1100  156.1590 C   0  0  0  0  0  0  0  0  0  0  0  0
  162.4270  208.1260  147.3590 O   0  0  0  0  0  1  0  0  0  0  0  0
  161.6370  206.9790  147.4620 C   0  0  1  0  0  3  0  0  0  0  0  0
  163.1450  205.4980  146.2340 C   0  0  0  0  0  2  0  0  0  0  0  0
  161.9180  206.0080  146.3350 C   0  0  0  0  0  0  0  0  0  0  0  0
  161.0680  205.4350  144.1200 N   0  0  0  0  0  2  0  0  0  0  0  0
  161.3010  204.1790  144.8460 C   0  0  1  0  0  3  0  0  0  0  0  0
  160.8030  205.3520  145.5650 C   0  0  1  0  0  3  0  0  0  0  0  0
  160.2010  203.2690  144.5930 N   0  0  0  0  0  2  0  0  0  0  0  0
  159.2890  201.1530  144.8850 O   0  0  0  0  0  0  0  0  0  0  0  0
  160.2430  201.9430  145.1050 C   0  0  0  0  0  3  0  0  0  0  0  0
  1 12  1  0  0  0  0
  2  4  1  1  0  0  0
  3 17  1  1  0  0  0
  4 13  1  0  0  0  0
  5  1  2  0  0  0  0
  5 11  1  0  0  0  0
  6 13  1  1  0  0  0
  7 29  1  6  0  0  0
  7 10  1  0  0  0  0
  7  9  1  0  0  0  0
  8  3  1  0  0  0  0
  8  2  1  0  0  0  0
  9 14  1  0  0  0  0
  9  8  1  0  0  0  0
 10  5  1  0  0  0  0
 11  2  1  0  0  0  0
 11  6  1  0  0  0  0
 12  6  1  0  0  0  0
 14  3  1  0  0  0  0
 16 17  1  0  0  0  0
 16 15  1  0  0  0  0
 17 15  1  0  0  0  0
 17 18  1  0  0  0  0
 18 20  1  0  0  0  0
 20 21  1  0  0  0  0
 20 19  1  0  0  0  0
 21 22  1  0  0  0  0
 22 24  1  0  0  0  0
 23 22  2  0  0  0  0
 23 27  1  0  0  0  0
 25 24  1  0  0  0  0
 27 26  3  0  0  0  0
 28 29  1  0  0  0  0
 30 31  2  0  0  0  0
 31 29  1  0  0  0  0
 32 33  1  0  0  0  0
 32 34  1  0  0  0  0
 33 34  1  0  0  0  0
 34 31  1  0  0  0  0
 35 33  1  0  0  0  0
 35 37  1  0  0  0  0
 36 37  2  0  0  0  0
M  END
>  <MODEL>
3

>  <REMARK>
 VINA RESULT:      -6.4      2.674      9.505
  Name = 
  10 active torsions:
  status: ('A' for Active; 'I' for Inactive)
    1  A    between atoms: N_3  and  C_10
    2  A    between atoms: O_4  and  C_15
    3  A    between atoms: C_8  and  C_29
    4  A    between atoms: N_11  and  C_31
    5  A    between atoms: C_13  and  C_29
    6  A    between atoms: C_13  and  C_31
    7  A    between atoms: C_16  and  C_21
    8  A    between atoms: C_16  and  C_34
    9  A    between atoms: C_19  and  N_27
   10  A    between atoms: C_23  and  C_34
                            x       y       z     vdW  Elec       q    Type
                         _______ _______ _______ _____ _____    ______ ____

>  <TORSDO>
F 10

$$$$
=
 OpenBabel11072410143D

 37 42  0  0  1  0  0  0  0  0999 V2000
  161.2080  203.5980  151.0070 N   0  0  0  0  0  0  0  0  0  0  0  0
  160.7880  206.8820  152.5080 C   0  0  1  0  0  3  0  0  0  0  0  0
  162.1400  209.0930  151.9530 C   0  0  1  0  0  3  0  0  0  0  0  0
  161.2910  206.5890  153.9380 C   0  0  0  0  0  2  0  0  0  0  0  0
  160.9620  204.9030  150.7630 C   0  0  0  0  0  0  0  0  0  0  0  0
  160.7310  204.5570  152.8810 C   0  0  1  0  0  3  0  0  0  0  0  0
  161.8430  206.8790  149.3180 C   0  0  1  0  0  3  0  0  0  0  0  0
  161.8170  207.6240  151.6730 C   0  0  2  0  0  3  0  0  0  0  0  0
  161.2460  207.8820  150.2980 C   0  0  1  0  0  3  0  0  0  0  0  0
  161.2840  205.5340  149.5110 N   0  0  0  0  0  2  0  0  0  0  0  0
  160.6190  205.5170  151.9570 C   0  0  1  0  0  3  0  0  0  0  0  0
  161.1070  203.3930  152.3180 N   0  0  0  0  0  2  0  0  0  0  0  0
  161.0890  205.0800  154.2120 C   0  0  0  0  0  2  0  0  0  0  0  0
  161.8920  209.6290  150.1770 P   0  0  0  0  0  2  0  0  0  0  0  0
  161.2390  209.4210  154.3400 C   0  0  0  0  0  2  0  0  0  0  0  0
  161.8440  210.7360  153.8630 C   0  0  0  0  0  2  0  0  0  0  0  0
  161.1520  209.8170  152.8800 C   0  0  0  0  0  0  0  0  0  0  0  0
  159.8050  210.3300  152.3330 C   0  0  0  0  0  2  0  0  0  0  0  0
  158.5600  211.4580  154.1800 C   0  0  0  0  0  1  0  0  0  0  0  0
  159.3360  211.6730  152.8930 C   0  0  2  0  0  3  0  0  0  0  0  0
  158.5240  212.4020  151.9200 N   0  0  0  0  0  2  0  0  0  0  0  0
  159.0360  213.1330  150.7950 C   0  0  0  0  0  0  0  0  0  0  0  0
  160.3140  213.1730  150.5720 N   0  0  0  0  0  0  0  0  0  0  0  0
  158.1540  213.8050  149.9420 O   0  0  0  0  0  0  0  0  0  0  0  0
  157.1220  213.1240  149.2440 C   0  0  0  0  0  1  0  0  0  0  0  0
  161.3320  214.4530  148.6010 N   0  0  0  0  0  0  0  0  0  0  0  0
  160.8720  213.8750  149.4920 C   0  0  0  0  0  0  0  0  0  0  0  0
  162.4970  208.4240  147.6000 O   0  0  0  0  0  1  0  0  0  0  0  0
  161.6790  207.3220  147.8570 C   0  0  1  0  0  3  0  0  0  0  0  0
  163.1310  205.6500  146.8210 C   0  0  0  0  0  2  0  0  0  0  0  0
  161.9210  206.2070  146.8620 C   0  0  0  0  0  0  0  0  0  0  0  0
  160.4500  206.1570  144.9140 N   0  0  0  0  0  2  0  0  0  0  0  0
  161.2230  204.9070  144.9210 C   0  0  1  0  0  3  0  0  0  0  0  0
  160.7810  205.4940  146.1870 C   0  0  1  0  0  3  0  0  0  0  0  0
  160.3510  203.8030  144.5730 N   0  0  0  0  0  2  0  0  0  0  0  0
  159.7510  201.5850  144.9120 O   0  0  0  0  0  0  0  0  0  0  0  0
  160.5070  202.5430  145.2140 C   0  0  0  0  0  3  0  0  0  0  0  0
  1 12  1  0  0  0  0
  2  4  1  1  0  0  0
  3 17  1  1  0  0  0
  4 13  1  0  0  0  0
  5  1  2  0  0  0  0
  5 11  1  0  0  0  0
  6 13  1  1  0  0  0
  7 29  1  6  0  0  0
  7 10  1  0  0  0  0
  7  9  1  0  0  0  0
  8  3  1  0  0  0  0
  8  2  1  0  0  0  0
  9  8  1  0  0  0  0
 10  5  1  0  0  0  0
 11  2  1  0  0  0  0
 11  6  1  0  0  0  0
 12  6  1  0  0  0  0
 14  9  1  0  0  0  0
 14  3  1  0  0  0  0
 16 15  1  0  0  0  0
 17 16  1  0  0  0  0
 17 15  1  0  0  0  0
 18 17  1  0  0  0  0
 18 20  1  0  0  0  0
 20 19  1  0  0  0  0
 21 20  1  0  0  0  0
 22 21  1  0  0  0  0
 23 22  2  0  0  0  0
 24 22  1  0  0  0  0
 25 24  1  0  0  0  0
 26 27  3  0  0  0  0
 27 23  1  0  0  0  0
 28 29  1  0  0  0  0
 30 31  2  0  0  0  0
 31 29  1  0  0  0  0
 32 33  1  0  0  0  0
 32 34  1  0  0  0  0
 33 34  1  0  0  0  0
 34 31  1  0  0  0  0
 35 33  1  0  0  0  0
 35 37  1  0  0  0  0
 36 37  2  0  0  0  0
M  END
>  <MODEL>
4

>  <REMARK>
 VINA RESULT:      -6.2      2.478      8.853
  Name = 
  10 active torsions:
  status: ('A' for Active; 'I' for Inactive)
    1  A    between atoms: N_3  and  C_10
    2  A    between atoms: O_4  and  C_15
    3  A    between atoms: C_8  and  C_29
    4  A    between atoms: N_11  and  C_31
    5  A    between atoms: C_13  and  C_29
    6  A    between atoms: C_13  and  C_31
    7  A    between atoms: C_16  and  C_21
    8  A    between atoms: C_16  and  C_34
    9  A    between atoms: C_19  and  N_27
   10  A    between atoms: C_23  and  C_34
                            x       y       z     vdW  Elec       q    Type
                         _______ _______ _______ _____ _____    ______ ____

>  <TORSDO>
F 10

$$$$
=
 OpenBabel11072410143D

 37 42  0  0  1  0  0  0  0  0999 V2000
  161.1720  204.6970  153.3050 N   0  0  0  0  0  0  0  0  0  0  0  0
  161.4460  204.9690  149.6910 C   0  0  1  0  0  3  0  0  0  0  0  0
  160.6110  206.9630  148.1560 C   0  0  1  0  0  3  0  0  0  0  0  0
  160.4700  203.8510  149.2640 C   0  0  0  0  0  2  0  0  0  0  0  0
  161.6320  205.4510  152.2840 C   0  0  0  0  0  0  0  0  0  0  0  0
  161.1130  203.5060  151.5070 C   0  0  1  0  0  3  0  0  0  0  0  0
  161.5050  207.8820  151.3640 C   0  0  1  0  0  3  0  0  0  0  0  0
  160.8400  206.3540  149.5410 C   0  0  2  0  0  3  0  0  0  0  0  0
  161.8560  207.3880  149.9670 C   0  0  1  0  0  3  0  0  0  0  0  0
  161.8130  206.8750  152.3890 N   0  0  0  0  0  2  0  0  0  0  0  0
  161.6300  204.6800  151.1330 C   0  0  1  0  0  3  0  0  0  0  0  0
  160.8130  203.5120  152.8200 N   0  0  0  0  0  2  0  0  0  0  0  0
  160.3990  202.8190  150.4150 C   0  0  0  0  0  2  0  0  0  0  0  0
  161.4890  208.5640  148.5650 P   0  0  0  0  0  2  0  0  0  0  0  0
  162.7850  206.5690  146.8380 C   0  0  0  0  0  2  0  0  0  0  0  0
  162.3570  205.2520  147.4770 C   0  0  0  0  0  2  0  0  0  0  0  0
  161.3150  206.2400  146.9980 C   0  0  0  0  0  0  0  0  0  0  0  0
  160.5160  205.8040  145.7540 C   0  0  0  0  0  2  0  0  0  0  0  0
  161.5820  205.4530  143.5220 C   0  0  0  0  0  1  0  0  0  0  0  0
  161.2180  204.7960  144.8410 C   0  0  2  0  0  3  0  0  0  0  0  0
  160.3860  203.6150  144.6140 N   0  0  0  0  0  2  0  0  0  0  0  0
  160.4100  202.4190  145.4100 C   0  0  0  0  0  0  0  0  0  0  0  0
  161.2060  202.3320  146.4320 N   0  0  0  0  0  0  0  0  0  0  0  0
  159.5740  201.3470  145.0800 O   0  0  0  0  0  0  0  0  0  0  0  0
  160.0810  200.1500  144.5100 C   0  0  0  0  0  1  0  0  0  0  0  0
  161.3330  200.2450  147.9090 N   0  0  0  0  0  0  0  0  0  0  0  0
  161.2750  201.1880  147.2420 C   0  0  0  0  0  0  0  0  0  0  0  0
  162.3320  209.9820  150.5430 O   0  0  0  0  0  1  0  0  0  0  0  0
  162.1890  209.2140  151.7010 C   0  0  1  0  0  3  0  0  0  0  0  0
  160.6740  210.9830  152.4450 C   0  0  0  0  0  2  0  0  0  0  0  0
  161.4890  209.9880  152.7970 C   0  0  0  0  0  0  0  0  0  0  0  0
  161.5730  210.5630  155.1680 N   0  0  0  0  0  2  0  0  0  0  0  0
  160.2400  210.0110  154.8910 C   0  0  1  0  0  3  0  0  0  0  0  0
  161.4100  209.4620  154.2050 C   0  0  1  0  0  3  0  0  0  0  0  0
  159.8550  209.1230  155.9710 N   0  0  0  0  0  2  0  0  0  0  0  0
  159.7470  206.9540  156.7930 O   0  0  0  0  0  0  0  0  0  0  0  0
  160.0810  207.7240  155.8560 C   0  0  0  0  0  3  0  0  0  0  0  0
  2  4  1  1  0  0  0
  2 11  1  0  0  0  0
  3 17  1  6  0  0  0
  3 14  1  0  0  0  0
  3  8  1  0  0  0  0
  4 13  1  0  0  0  0
  5 10  1  0  0  0  0
  5  1  2  0  0  0  0
  6 13  1  6  0  0  0
  6 12  1  0  0  0  0
  7 29  1  1  0  0  0
  7 10  1  0  0  0  0
  8  2  1  0  0  0  0
  8  9  1  0  0  0  0
  9  7  1  0  0  0  0
 11  6  1  0  0  0  0
 11  5  1  0  0  0  0
 12  1  1  0  0  0  0
 14  9  1  0  0  0  0
 15 17  1  0  0  0  0
 15 16  1  0  0  0  0
 17 16  1  0  0  0  0
 18 17  1  0  0  0  0
 19 20  1  0  0  0  0
 20 18  1  0  0  0  0
 21 20  1  0  0  0  0
 21 22  1  0  0  0  0
 22 23  2  0  0  0  0
 23 27  1  0  0  0  0
 24 22  1  0  0  0  0
 25 24  1  0  0  0  0
 27 26  3  0  0  0  0
 28 29  1  0  0  0  0
 29 31  1  0  0  0  0
 30 31  2  0  0  0  0
 31 34  1  0  0  0  0
 33 32  1  0  0  0  0
 33 35  1  0  0  0  0
 34 33  1  0  0  0  0
 34 32  1  0  0  0  0
 37 35  1  0  0  0  0
 37 36  2  0  0  0  0
M  END
>  <MODEL>
5

>  <REMARK>
 VINA RESULT:      -6.0      2.501      4.630
  Name = 
  10 active torsions:
  status: ('A' for Active; 'I' for Inactive)
    1  A    between atoms: N_3  and  C_10
    2  A    between atoms: O_4  and  C_15
    3  A    between atoms: C_8  and  C_29
    4  A    between atoms: N_11  and  C_31
    5  A    between atoms: C_13  and  C_29
    6  A    between atoms: C_13  and  C_31
    7  A    between atoms: C_16  and  C_21
    8  A    between atoms: C_16  and  C_34
    9  A    between atoms: C_19  and  N_27
   10  A    between atoms: C_23  and  C_34
                            x       y       z     vdW  Elec       q    Type
                         _______ _______ _______ _____ _____    ______ ____

>  <TORSDO>
F 10

$$$$
=
 OpenBabel11072410143D

 37 42  0  0  1  0  0  0  0  0999 V2000
  162.0540  208.8960  148.7860 N   0  0  0  0  0  0  0  0  0  0  0  0
  161.6280  210.2410  152.1360 C   0  0  1  0  0  3  0  0  0  0  0  0
  160.1240  209.2620  154.0870 C   0  0  1  0  0  3  0  0  0  0  0  0
  160.8620  211.5400  151.8070 C   0  0  0  0  0  2  0  0  0  0  0  0
  162.1520  208.6300  150.1060 C   0  0  0  0  0  0  0  0  0  0  0  0
  161.9450  210.7640  149.8610 C   0  0  1  0  0  3  0  0  0  0  0  0
  161.3390  206.9030  151.8750 C   0  0  1  0  0  3  0  0  0  0  0  0
  160.7170  209.1550  152.6810 C   0  0  2  0  0  3  0  0  0  0  0  0
  161.5410  207.9250  152.9870 C   0  0  1  0  0  3  0  0  0  0  0  0
  162.0330  207.3000  150.6420 N   0  0  0  0  0  2  0  0  0  0  0  0
  162.1190  209.8290  150.8000 C   0  0  1  0  0  3  0  0  0  0  0  0
  161.8840  210.2070  148.6360 N   0  0  0  0  0  2  0  0  0  0  0  0
  161.2190  211.9470  150.3580 C   0  0  0  0  0  2  0  0  0  0  0  0
  160.6880  207.5550  154.6050 P   0  0  0  0  0  2  0  0  0  0  0  0
  161.0900  209.8800  156.3900 C   0  0  0  0  0  2  0  0  0  0  0  0
  162.1910  210.0210  155.3460 C   0  0  0  0  0  2  0  0  0  0  0  0
  160.7560  210.3370  154.9840 C   0  0  0  0  0  0  0  0  0  0  0  0
  160.4490  211.8290  154.7460 C   0  0  0  0  0  2  0  0  0  0  0  0
  159.5200  212.5170  156.9600 C   0  0  0  0  0  1  0  0  0  0  0  0
  159.2220  212.3730  155.4780 C   0  0  2  0  0  3  0  0  0  0  0  0
  158.0550  211.5170  155.2710 N   0  0  0  0  0  2  0  0  0  0  0  0
  156.8020  211.9430  154.7120 C   0  0  0  0  0  0  0  0  0  0  0  0
  156.6440  213.1750  154.3330 N   0  0  0  0  0  0  0  0  0  0  0  0
  155.7520  211.0290  154.5790 O   0  0  0  0  0  0  0  0  0  0  0  0
  155.2050  210.3480  155.6980 C   0  0  0  0  0  1  0  0  0  0  0  0
  154.4520  214.0420  153.3330 N   0  0  0  0  0  0  0  0  0  0  0  0
  155.4420  213.6500  153.7850 C   0  0  0  0  0  0  0  0  0  0  0  0
  161.2080  205.1770  153.5390 O   0  0  0  0  0  1  0  0  0  0  0  0
  161.7630  205.4900  152.2970 C   0  0  1  0  0  3  0  0  0  0  0  0
  160.6330  203.4320  151.6140 C   0  0  0  0  0  2  0  0  0  0  0  0
  161.4400  204.4330  151.2620 C   0  0  0  0  0  0  0  0  0  0  0  0
  161.0690  203.5990  148.9980 N   0  0  0  0  0  2  0  0  0  0  0  0
  160.4580  204.9320  149.0870 C   0  0  1  0  0  3  0  0  0  0  0  0
  161.7070  204.6570  149.7980 C   0  0  1  0  0  3  0  0  0  0  0  0
  160.7480  205.6740  147.8760 N   0  0  0  0  0  2  0  0  0  0  0  0
  162.2720  206.1940  146.2020 O   0  0  0  0  0  0  0  0  0  0  0  0
  162.0200  205.5510  147.2540 C   0  0  0  0  0  3  0  0  0  0  0  0
  1  5  2  0  0  0  0
  2  4  1  6  0  0  0
  2  8  1  0  0  0  0
  3 14  1  0  0  0  0
  3 17  1  1  0  0  0
  5 10  1  0  0  0  0
  5 11  1  0  0  0  0
  6 13  1  1  0  0  0
  6 11  1  0  0  0  0
  7 29  1  1  0  0  0
  7  9  1  0  0  0  0
  8  9  1  0  0  0  0
  8  3  1  0  0  0  0
  9 14  1  0  0  0  0
 10  7  1  0  0  0  0
 11  2  1  0  0  0  0
 12  1  1  0  0  0  0
 12  6  1  0  0  0  0
 13  4  1  0  0  0  0
 16 15  1  0  0  0  0
 17 16  1  0  0  0  0
 17 15  1  0  0  0  0
 18 17  1  0  0  0  0
 18 20  1  0  0  0  0
 20 19  1  0  0  0  0
 21 20  1  0  0  0  0
 22 21  1  0  0  0  0
 23 22  2  0  0  0  0
 24 22  1  0  0  0  0
 24 25  1  0  0  0  0
 26 27  3  0  0  0  0
 27 23  1  0  0  0  0
 29 28  1  0  0  0  0
 31 30  2  0  0  0  0
 31 29  1  0  0  0  0
 32 33  1  0  0  0  0
 32 34  1  0  0  0  0
 33 34  1  0  0  0  0
 34 31  1  0  0  0  0
 35 33  1  0  0  0  0
 36 37  2  0  0  0  0
 37 35  1  0  0  0  0
M  END
>  <MODEL>
6

>  <REMARK>
 VINA RESULT:      -5.9      2.293      8.611
  Name = 
  10 active torsions:
  status: ('A' for Active; 'I' for Inactive)
    1  A    between atoms: N_3  and  C_10
    2  A    between atoms: O_4  and  C_15
    3  A    between atoms: C_8  and  C_29
    4  A    between atoms: N_11  and  C_31
    5  A    between atoms: C_13  and  C_29
    6  A    between atoms: C_13  and  C_31
    7  A    between atoms: C_16  and  C_21
    8  A    between atoms: C_16  and  C_34
    9  A    between atoms: C_19  and  N_27
   10  A    between atoms: C_23  and  C_34
                            x       y       z     vdW  Elec       q    Type
                         _______ _______ _______ _____ _____    ______ ____

>  <TORSDO>
F 10

$$$$
=
 OpenBabel11072410143D

 37 42  0  0  1  0  0  0  0  0999 V2000
  161.2090  205.0660  153.5020 N   0  0  0  0  0  0  0  0  0  0  0  0
  161.4660  205.1450  149.8780 C   0  0  1  0  0  3  0  0  0  0  0  0
  160.6660  207.0760  148.2460 C   0  0  1  0  0  3  0  0  0  0  0  0
  160.4630  204.0280  149.5140 C   0  0  0  0  0  2  0  0  0  0  0  0
  161.6780  205.7560  152.4410 C   0  0  0  0  0  0  0  0  0  0  0  0
  161.1120  203.7850  151.7680 C   0  0  1  0  0  3  0  0  0  0  0  0
  161.6000  208.1390  151.3980 C   0  0  1  0  0  3  0  0  0  0  0  0
  160.8890  206.5330  149.6590 C   0  0  2  0  0  3  0  0  0  0  0  0
  161.9310  207.5650  150.0260 C   0  0  1  0  0  3  0  0  0  0  0  0
  161.8920  207.1790  152.4710 N   0  0  0  0  0  2  0  0  0  0  0  0
  161.6530  204.9270  151.3310 C   0  0  1  0  0  3  0  0  0  0  0  0
  160.8210  203.8660  153.0810 N   0  0  0  0  0  2  0  0  0  0  0  0
  160.3760  203.0600  150.7170 C   0  0  0  0  0  2  0  0  0  0  0  0
  161.5810  208.6760  148.5670 P   0  0  0  0  0  2  0  0  0  0  0  0
  162.8200  206.5710  146.9340 C   0  0  0  0  0  2  0  0  0  0  0  0
  162.3750  205.3000  147.6460 C   0  0  0  0  0  2  0  0  0  0  0  0
  161.3460  206.2780  147.1230 C   0  0  0  0  0  0  0  0  0  0  0  0
  160.5290  205.7900  145.9110 C   0  0  0  0  0  2  0  0  0  0  0  0
  161.5850  205.4530  143.6730 C   0  0  0  0  0  1  0  0  0  0  0  0
  161.2410  204.7930  144.9960 C   0  0  2  0  0  3  0  0  0  0  0  0
  160.4280  203.5970  144.7770 N   0  0  0  0  0  2  0  0  0  0  0  0
  160.4390  202.4240  145.6050 C   0  0  0  0  0  0  0  0  0  0  0  0
  161.2050  202.3730  146.6520 N   0  0  0  0  0  0  0  0  0  0  0  0
  159.6240  201.3350  145.2800 O   0  0  0  0  0  0  0  0  0  0  0  0
  160.1040  200.2430  144.5110 C   0  0  0  0  0  1  0  0  0  0  0  0
  161.3070  200.3290  148.1900 N   0  0  0  0  0  0  0  0  0  0  0  0
  161.2610  201.2530  147.4960 C   0  0  0  0  0  0  0  0  0  0  0  0
  162.4150  210.2010  150.4760 O   0  0  0  0  0  1  0  0  0  0  0  0
  162.3150  209.4710  151.6620 C   0  0  1  0  0  3  0  0  0  0  0  0
  162.2920  210.3490  153.9430 C   0  0  0  0  0  2  0  0  0  0  0  0
  161.6740  210.2870  152.7640 C   0  0  0  0  0  0  0  0  0  0  0  0
  159.2680  210.6990  152.7850 N   0  0  0  0  0  2  0  0  0  0  0  0
  159.8930  211.6580  153.7070 C   0  0  1  0  0  3  0  0  0  0  0  0
  160.5830  211.2820  152.4730 C   0  0  1  0  0  3  0  0  0  0  0  0
  159.2760  212.9590  153.5360 N   0  0  0  0  0  2  0  0  0  0  0  0
  157.7650  214.2840  152.3710 O   0  0  0  0  0  0  0  0  0  0  0  0
  158.3010  213.1550  152.5200 C   0  0  0  0  0  3  0  0  0  0  0  0
  2  4  1  1  0  0  0
  2 11  1  0  0  0  0
  3 17  1  6  0  0  0
  3 14  1  0  0  0  0
  3  8  1  0  0  0  0
  4 13  1  0  0  0  0
  5 10  1  0  0  0  0
  5  1  2  0  0  0  0
  6 13  1  6  0  0  0
  6 12  1  0  0  0  0
  7 29  1  1  0  0  0
  7 10  1  0  0  0  0
  8  2  1  0  0  0  0
  8  9  1  0  0  0  0
  9  7  1  0  0  0  0
 11  6  1  0  0  0  0
 11  5  1  0  0  0  0
 12  1  1  0  0  0  0
 14  9  1  0  0  0  0
 15 17  1  0  0  0  0
 15 16  1  0  0  0  0
 17 16  1  0  0  0  0
 18 17  1  0  0  0  0
 19 20  1  0  0  0  0
 20 18  1  0  0  0  0
 21 20  1  0  0  0  0
 21 22  1  0  0  0  0
 22 23  2  0  0  0  0
 23 27  1  0  0  0  0
 24 22  1  0  0  0  0
 25 24  1  0  0  0  0
 27 26  3  0  0  0  0
 28 29  1  0  0  0  0
 29 31  1  0  0  0  0
 31 30  2  0  0  0  0
 32 33  1  0  0  0  0
 34 31  1  0  0  0  0
 34 32  1  0  0  0  0
 34 33  1  0  0  0  0
 35 33  1  0  0  0  0
 36 37  2  0  0  0  0
 37 35  1  0  0  0  0
M  END
>  <MODEL>
7

>  <REMARK>
 VINA RESULT:      -5.9      2.378      4.064
  Name = 
  10 active torsions:
  status: ('A' for Active; 'I' for Inactive)
    1  A    between atoms: N_3  and  C_10
    2  A    between atoms: O_4  and  C_15
    3  A    between atoms: C_8  and  C_29
    4  A    between atoms: N_11  and  C_31
    5  A    between atoms: C_13  and  C_29
    6  A    between atoms: C_13  and  C_31
    7  A    between atoms: C_16  and  C_21
    8  A    between atoms: C_16  and  C_34
    9  A    between atoms: C_19  and  N_27
   10  A    between atoms: C_23  and  C_34
                            x       y       z     vdW  Elec       q    Type
                         _______ _______ _______ _____ _____    ______ ____

>  <TORSDO>
F 10

$$$$
=
 OpenBabel11072410143D

 37 42  0  0  1  0  0  0  0  0999 V2000
  160.9730  202.3470  150.3460 N   0  0  0  0  0  0  0  0  0  0  0  0
  161.0910  205.9290  150.9520 C   0  0  1  0  0  3  0  0  0  0  0  0
  162.7170  207.7000  149.8360 C   0  0  1  0  0  3  0  0  0  0  0  0
  161.6120  205.9370  152.4060 C   0  0  0  0  0  2  0  0  0  0  0  0
  160.9040  203.5690  149.7760 C   0  0  0  0  0  0  0  0  0  0  0  0
  160.7210  203.8100  151.9120 C   0  0  1  0  0  3  0  0  0  0  0  0
  161.9900  204.9590  147.8630 C   0  0  1  0  0  3  0  0  0  0  0  0
  162.1760  206.2730  149.9470 C   0  0  2  0  0  3  0  0  0  0  0  0
  161.5870  206.2550  148.5560 C   0  0  1  0  0  3  0  0  0  0  0  0
  161.2550  203.8060  148.4010 N   0  0  0  0  0  2  0  0  0  0  0  0
  160.7050  204.5100  150.7730 C   0  0  1  0  0  3  0  0  0  0  0  0
  160.9020  202.4980  151.6660 N   0  0  0  0  0  2  0  0  0  0  0  0
  161.2090  204.5950  153.0610 C   0  0  0  0  0  2  0  0  0  0  0  0
  162.4670  207.7980  147.9840 P   0  0  0  0  0  2  0  0  0  0  0  0
  162.5340  210.1410  150.6300 C   0  0  0  0  0  2  0  0  0  0  0  0
  161.4260  209.8720  149.6190 C   0  0  0  0  0  2  0  0  0  0  0  0
  161.8850  208.7740  150.5530 C   0  0  0  0  0  0  0  0  0  0  0  0
  160.8750  208.3740  151.6470 C   0  0  0  0  0  2  0  0  0  0  0  0
  160.7110  208.4870  154.1360 C   0  0  0  0  0  1  0  0  0  0  0  0
  160.8170  209.3030  152.8600 C   0  0  2  0  0  3  0  0  0  0  0  0
  159.7010  210.2430  152.7580 N   0  0  0  0  0  2  0  0  0  0  0  0
  159.4530  211.3350  153.6560 C   0  0  0  0  0  0  0  0  0  0  0  0
  160.2590  211.5580  154.6500 N   0  0  0  0  0  0  0  0  0  0  0  0
  158.3380  212.1580  153.4610 O   0  0  0  0  0  0  0  0  0  0  0  0
  158.3010  213.1370  152.4330 C   0  0  0  0  0  1  0  0  0  0  0  0
  159.9030  213.4710  156.3140 N   0  0  0  0  0  0  0  0  0  0  0  0
  160.0640  212.6070  155.5620 C   0  0  0  0  0  0  0  0  0  0  0  0
  163.0760  204.9790  145.7220 O   0  0  0  0  0  1  0  0  0  0  0  0
  161.8250  205.0360  146.3390 C   0  0  1  0  0  3  0  0  0  0  0  0
  159.8300  204.3980  145.0780 C   0  0  0  0  0  2  0  0  0  0  0  0
  160.8840  203.9880  145.7850 C   0  0  0  0  0  0  0  0  0  0  0  0
  160.7630  201.8100  146.8800 N   0  0  0  0  0  2  0  0  0  0  0  0
  160.0900  201.6920  145.5790 C   0  0  1  0  0  3  0  0  0  0  0  0
  161.2780  202.5380  145.7080 C   0  0  1  0  0  3  0  0  0  0  0  0
  160.4610  200.4350  144.9600 N   0  0  0  0  0  2  0  0  0  0  0  0
  161.4640  198.3510  145.1800 O   0  0  0  0  0  0  0  0  0  0  0  0
  161.1420  199.4420  145.7170 C   0  0  0  0  0  3  0  0  0  0  0  0
  1 12  1  0  0  0  0
  2  4  1  1  0  0  0
  3  8  1  0  0  0  0
  3 17  1  1  0  0  0
  4 13  1  0  0  0  0
  5  1  2  0  0  0  0
  5 11  1  0  0  0  0
  6 13  1  1  0  0  0
  7 29  1  6  0  0  0
  7 10  1  0  0  0  0
  7  9  1  0  0  0  0
  8  2  1  0  0  0  0
  9  8  1  0  0  0  0
 10  5  1  0  0  0  0
 11  2  1  0  0  0  0
 11  6  1  0  0  0  0
 12  6  1  0  0  0  0
 14  9  1  0  0  0  0
 14  3  1  0  0  0  0
 16 17  1  0  0  0  0
 16 15  1  0  0  0  0
 17 15  1  0  0  0  0
 17 18  1  0  0  0  0
 18 20  1  0  0  0  0
 20 19  1  0  0  0  0
 21 20  1  0  0  0  0
 21 22  1  0  0  0  0
 22 23  2  0  0  0  0
 23 27  1  0  0  0  0
 24 22  1  0  0  0  0
 25 24  1  0  0  0  0
 27 26  3  0  0  0  0
 28 29  1  0  0  0  0
 30 31  2  0  0  0  0
 31 29  1  0  0  0  0
 33 34  1  0  0  0  0
 33 32  1  0  0  0  0
 34 31  1  0  0  0  0
 34 32  1  0  0  0  0
 35 33  1  0  0  0  0
 35 37  1  0  0  0  0
 36 37  2  0  0  0  0
M  END
>  <MODEL>
8

>  <REMARK>
 VINA RESULT:      -5.8      2.098      9.814
  Name = 
  10 active torsions:
  status: ('A' for Active; 'I' for Inactive)
    1  A    between atoms: N_3  and  C_10
    2  A    between atoms: O_4  and  C_15
    3  A    between atoms: C_8  and  C_29
    4  A    between atoms: N_11  and  C_31
    5  A    between atoms: C_13  and  C_29
    6  A    between atoms: C_13  and  C_31
    7  A    between atoms: C_16  and  C_21
    8  A    between atoms: C_16  and  C_34
    9  A    between atoms: C_19  and  N_27
   10  A    between atoms: C_23  and  C_34
                            x       y       z     vdW  Elec       q    Type
                         _______ _______ _______ _____ _____    ______ ____

>  <TORSDO>
F 10

$$$$
=
 OpenBabel11072410143D

 37 42  0  0  1  0  0  0  0  0999 V2000
  161.7910  211.4450  148.6700 N   0  0  0  0  0  0  0  0  0  0  0  0
  161.5710  209.1720  151.4970 C   0  0  1  0  0  3  0  0  0  0  0  0
  160.4730  206.7600  151.5460 C   0  0  1  0  0  3  0  0  0  0  0  0
  160.5870  209.9540  152.3930 C   0  0  0  0  0  2  0  0  0  0  0  0
  162.0840  210.2060  149.1190 C   0  0  0  0  0  0  0  0  0  0  0  0
  161.5340  211.4260  150.8120 C   0  0  1  0  0  3  0  0  0  0  0  0
  161.7540  207.7050  148.4800 C   0  0  1  0  0  3  0  0  0  0  0  0
  160.9040  208.0120  150.7790 C   0  0  2  0  0  3  0  0  0  0  0  0
  161.9320  207.2940  149.9360 C   0  0  1  0  0  3  0  0  0  0  0  0
  162.2300  209.0750  148.2420 N   0  0  0  0  0  2  0  0  0  0  0  0
  161.9560  210.1960  150.4990 C   0  0  1  0  0  3  0  0  0  0  0  0
  161.4110  212.1860  149.7070 N   0  0  0  0  0  2  0  0  0  0  0  0
  160.7040  211.4530  152.0310 C   0  0  0  0  0  2  0  0  0  0  0  0
  161.3420  205.5810  150.3820 P   0  0  0  0  0  2  0  0  0  0  0  0
  161.2060  205.2130  153.4660 C   0  0  0  0  0  2  0  0  0  0  0  0
  162.4170  206.0070  152.9910 C   0  0  0  0  0  2  0  0  0  0  0  0
  161.0400  206.6340  152.9680 C   0  0  0  0  0  0  0  0  0  0  0  0
  160.8090  207.7560  153.9990 C   0  0  0  0  0  2  0  0  0  0  0  0
  159.4870  207.1330  156.0250 C   0  0  0  0  0  1  0  0  0  0  0  0
  160.8850  207.3280  155.4660 C   0  0  2  0  0  3  0  0  0  0  0  0
  161.6270  208.2990  156.2670 N   0  0  0  0  0  2  0  0  0  0  0  0
  161.2750  209.6820  156.4300 C   0  0  0  0  0  0  0  0  0  0  0  0
  160.2140  210.1560  155.8510 N   0  0  0  0  0  0  0  0  0  0  0  0
  162.0780  210.5180  157.2120 O   0  0  0  0  0  0  0  0  0  0  0  0
  163.4560  210.7120  156.9300 C   0  0  0  0  0  1  0  0  0  0  0  0
  159.4980  212.6050  156.0700 N   0  0  0  0  0  0  0  0  0  0  0  0
  159.8220  211.4990  155.9710 C   0  0  0  0  0  0  0  0  0  0  0  0
  163.4700  206.0560  148.1590 O   0  0  0  0  0  1  0  0  0  0  0  0
  162.4310  206.7280  147.5100 C   0  0  1  0  0  3  0  0  0  0  0  0
  160.3090  206.2380  146.3980 C   0  0  0  0  0  2  0  0  0  0  0  0
  161.4650  205.7600  146.8620 C   0  0  0  0  0  0  0  0  0  0  0  0
  161.9010  203.4640  147.5690 N   0  0  0  0  0  2  0  0  0  0  0  0
  160.8080  203.4290  146.5880 C   0  0  1  0  0  3  0  0  0  0  0  0
  161.9000  204.3880  146.4220 C   0  0  1  0  0  3  0  0  0  0  0  0
  161.0100  202.3110  145.6870 N   0  0  0  0  0  2  0  0  0  0  0  0
  160.0810  200.5360  144.5110 O   0  0  0  0  0  0  0  0  0  0  0  0
  159.9060  201.5060  145.2930 C   0  0  0  0  0  3  0  0  0  0  0  0
  1  5  2  0  0  0  0
  1 12  1  0  0  0  0
  2  4  1  1  0  0  0
  3 17  1  1  0  0  0
  5 11  1  0  0  0  0
  6 13  1  6  0  0  0
  7 29  1  6  0  0  0
  7  9  1  0  0  0  0
  8  2  1  0  0  0  0
  8  3  1  0  0  0  0
  9 14  1  0  0  0  0
  9  8  1  0  0  0  0
 10  7  1  0  0  0  0
 10  5  1  0  0  0  0
 11  6  1  0  0  0  0
 11  2  1  0  0  0  0
 12  6  1  0  0  0  0
 13  4  1  0  0  0  0
 14  3  1  0  0  0  0
 16 15  1  0  0  0  0
 17 16  1  0  0  0  0
 17 15  1  0  0  0  0
 17 18  1  0  0  0  0
 18 20  1  0  0  0  0
 20 19  1  0  0  0  0
 20 21  1  0  0  0  0
 21 22  1  0  0  0  0
 22 24  1  0  0  0  0
 23 27  1  0  0  0  0
 23 22  2  0  0  0  0
 25 24  1  0  0  0  0
 27 26  3  0  0  0  0
 29 28  1  0  0  0  0
 30 31  2  0  0  0  0
 31 29  1  0  0  0  0
 33 32  1  0  0  0  0
 34 33  1  0  0  0  0
 34 31  1  0  0  0  0
 34 32  1  0  0  0  0
 35 33  1  0  0  0  0
 36 37  2  0  0  0  0
 37 35  1  0  0  0  0
M  END
>  <MODEL>
9

>  <REMARK>
 VINA RESULT:      -5.7      2.411      8.784
  Name = 
  10 active torsions:
  status: ('A' for Active; 'I' for Inactive)
    1  A    between atoms: N_3  and  C_10
    2  A    between atoms: O_4  and  C_15
    3  A    between atoms: C_8  and  C_29
    4  A    between atoms: N_11  and  C_31
    5  A    between atoms: C_13  and  C_29
    6  A    between atoms: C_13  and  C_31
    7  A    between atoms: C_16  and  C_21
    8  A    between atoms: C_16  and  C_34
    9  A    between atoms: C_19  and  N_27
   10  A    between atoms: C_23  and  C_34
                            x       y       z     vdW  Elec       q    Type
                         _______ _______ _______ _____ _____    ______ ____

>  <TORSDO>
F 10

$$$$
