=
 OpenBabel11072412213D

 27 29  0  0  1  0  0  0  0  0999 V2000
  162.6400  209.9570  151.4130 O   0  0  0  0  0  0  0  0  0  0  0  0
  161.4350  209.6960  151.6780 C   0  0  0  0  0  0  0  0  0  0  0  0
  160.8990  208.4150  151.3280 N   0  0  0  0  0  2  0  0  0  0  0  0
  161.6820  207.3930  150.6460 C   0  0  2  0  0  3  0  0  0  0  0  0
  161.4360  202.7470  151.6620 O   0  0  0  0  0  0  0  0  0  0  0  0
  161.1060  204.0950  149.7790 N   0  0  0  0  0  0  0  0  0  0  0  0
  161.5550  205.3490  149.1810 C   0  0  0  0  0  2  0  0  0  0  0  0
  160.8440  202.9850  148.8810 C   0  0  0  0  0  1  0  0  0  0  0  0
  160.7890  206.5410  149.7390 C   0  0  0  0  0  2  0  0  0  0  0  0
  162.5260  206.5790  151.6460 C   0  0  0  0  0  2  0  0  0  0  0  0
  161.2550  206.6640  153.8160 C   0  0  0  0  0  1  0  0  0  0  0  0
  160.6190  204.9250  152.1490 C   0  0  0  0  0  2  0  0  0  0  0  0
  161.0950  203.8680  151.2000 C   0  0  0  0  0  0  0  0  0  0  0  0
  161.7620  205.7680  152.7040 C   0  0  1  0  0  3  0  0  0  0  0  0
  158.0950  212.7820  152.2170 N   0  0  0  0  0  2  0  0  0  0  0  0
  160.8210  212.2650  150.5210 O   0  0  0  0  0  1  0  0  0  0  0  0
  160.0150  210.4010  153.6820 C   0  0  2  0  0  3  0  0  0  0  0  0
  160.5960  210.7310  152.3360 C   0  0  0  0  0  0  0  0  0  0  0  0
  159.5230  212.9870  152.5000 C   0  0  2  0  0  3  0  0  0  0  0  0
  158.6170  211.0030  153.8170 C   0  0  0  0  0  2  0  0  0  0  0  0
  160.3390  211.9370  151.7820 C   0  0  0  0  0  0  0  0  0  0  0  0
  158.6120  212.5140  153.5680 C   0  0  2  0  0  3  0  0  0  0  0  0
  160.9240  210.8540  154.7790 C   0  0  0  0  0  3  0  0  0  0  0  0
  161.3590  210.0110  155.6600 N   0  0  0  0  0  0  0  0  0  0  0  0
  162.1320  211.7170  157.2610 N   0  0  0  0  0  1  0  0  0  0  0  0
  163.0820  209.6020  157.1920 O   0  0  0  0  0  0  0  0  0  0  0  0
  162.2290  210.4040  156.7240 C   0  0  0  0  0  0  0  0  0  0  0  0
  1  2  2  0  0  0  0
  2 18  1  0  0  0  0
  3  2  1  0  0  0  0
  4  3  1  1  0  0  0
  4 10  1  0  0  0  0
  6 13  1  0  0  0  0
  7  9  1  0  0  0  0
  7  6  1  0  0  0  0
  8  6  1  0  0  0  0
  9  4  1  0  0  0  0
 10 14  1  0  0  0  0
 12 14  1  0  0  0  0
 13  5  2  0  0  0  0
 13 12  1  0  0  0  0
 14 11  1  1  0  0  0
 15 19  1  0  0  0  0
 15 22  1  0  0  0  0
 16 21  1  0  0  0  0
 17 20  1  0  0  0  0
 17 23  1  1  0  0  0
 18 17  1  0  0  0  0
 19 21  1  6  0  0  0
 19 22  1  0  0  0  0
 21 18  2  0  0  0  0
 22 20  1  6  0  0  0
 23 24  2  0  0  0  0
 24 27  1  0  0  0  0
 27 26  2  0  0  0  0
 27 25  1  0  0  0  0
M  END
>  <MODEL>
1

>  <REMARK>
 VINA RESULT:      -7.1      0.000      0.000
  Name = 
  4 active torsions:
  status: ('A' for Active; 'I' for Inactive)
    1  A    between atoms: C_2  and  N_24
    2  A    between atoms: C_4  and  C_13
    3  A    between atoms: N_8  and  C_26
    4  A    between atoms: C_17  and  C_18
                            x       y       z     vdW  Elec       q    Type
                         _______ _______ _______ _____ _____    ______ ____

>  <TORSDO>
F 4

$$$$
=
 OpenBabel11072412213D

 27 29  0  0  1  0  0  0  0  0999 V2000
  162.6870  210.1320  152.4450 O   0  0  0  0  0  0  0  0  0  0  0  0
  161.6530  209.4880  152.7720 C   0  0  0  0  0  0  0  0  0  0  0  0
  161.3180  208.2890  152.0630 N   0  0  0  0  0  2  0  0  0  0  0  0
  162.1110  207.7850  150.9490 C   0  0  2  0  0  3  0  0  0  0  0  0
  161.3140  203.6080  148.8040 O   0  0  0  0  0  0  0  0  0  0  0  0
  161.4020  205.8570  148.1670 N   0  0  0  0  0  0  0  0  0  0  0  0
  162.0450  207.1190  148.5220 C   0  0  0  0  0  2  0  0  0  0  0  0
  161.1930  205.5900  146.7550 C   0  0  0  0  0  1  0  0  0  0  0  0
  161.3030  207.8280  149.6470 C   0  0  0  0  0  2  0  0  0  0  0  0
  162.7130  206.4050  151.2740 C   0  0  0  0  0  2  0  0  0  0  0  0
  161.1250  205.3540  152.9200 C   0  0  0  0  0  1  0  0  0  0  0  0
  160.6170  205.1320  150.4910 C   0  0  0  0  0  2  0  0  0  0  0  0
  161.1460  204.8150  149.1260 C   0  0  0  0  0  0  0  0  0  0  0  0
  161.7240  205.2560  151.5310 C   0  0  1  0  0  3  0  0  0  0  0  0
  160.1760  210.2130  157.0450 N   0  0  0  0  0  2  0  0  0  0  0  0
  160.5330  207.8360  154.8550 O   0  0  0  0  0  1  0  0  0  0  0  0
  160.5260  211.4740  153.9170 C   0  0  2  0  0  3  0  0  0  0  0  0
  160.8000  209.9970  153.8760 C   0  0  0  0  0  0  0  0  0  0  0  0
  159.3650  209.7430  155.9120 C   0  0  2  0  0  3  0  0  0  0  0  0
  160.4830  211.9660  155.3620 C   0  0  0  0  0  2  0  0  0  0  0  0
  160.2690  209.2000  154.8300 C   0  0  0  0  0  0  0  0  0  0  0  0
  159.4660  211.1920  156.2050 C   0  0  2  0  0  3  0  0  0  0  0  0
  159.2660  211.8010  153.1800 C   0  0  0  0  0  3  0  0  0  0  0  0
  159.0500  213.0040  152.7520 N   0  0  0  0  0  0  0  0  0  0  0  0
  157.8440  213.3000  150.6240 N   0  0  0  0  0  1  0  0  0  0  0  0
  156.8230  213.7220  152.6640 O   0  0  0  0  0  0  0  0  0  0  0  0
  157.8590  213.3570  152.0450 C   0  0  0  0  0  0  0  0  0  0  0  0
  1  2  2  0  0  0  0
  2 18  1  0  0  0  0
  3  2  1  0  0  0  0
  4 10  1  0  0  0  0
  4  3  1  1  0  0  0
  5 13  2  0  0  0  0
  6  7  1  0  0  0  0
  6 13  1  0  0  0  0
  7  9  1  0  0  0  0
  8  6  1  0  0  0  0
  9  4  1  0  0  0  0
 10 14  1  0  0  0  0
 12 14  1  0  0  0  0
 13 12  1  0  0  0  0
 14 11  1  1  0  0  0
 17 23  1  1  0  0  0
 17 20  1  0  0  0  0
 18 17  1  0  0  0  0
 18 21  2  0  0  0  0
 19 21  1  6  0  0  0
 19 22  1  0  0  0  0
 19 15  1  0  0  0  0
 21 16  1  0  0  0  0
 22 20  1  6  0  0  0
 22 15  1  0  0  0  0
 24 23  2  0  0  0  0
 25 27  1  0  0  0  0
 27 26  2  0  0  0  0
 27 24  1  0  0  0  0
M  END
>  <MODEL>
2

>  <REMARK>
 VINA RESULT:      -7.1      1.921      3.851
  Name = 
  4 active torsions:
  status: ('A' for Active; 'I' for Inactive)
    1  A    between atoms: C_2  and  N_24
    2  A    between atoms: C_4  and  C_13
    3  A    between atoms: N_8  and  C_26
    4  A    between atoms: C_17  and  C_18
                            x       y       z     vdW  Elec       q    Type
                         _______ _______ _______ _____ _____    ______ ____

>  <TORSDO>
F 4

$$$$
=
 OpenBabel11072412213D

 27 29  0  0  1  0  0  0  0  0999 V2000
  162.6630  210.4220  152.1080 O   0  0  0  0  0  0  0  0  0  0  0  0
  161.9110  209.6750  152.7920 C   0  0  0  0  0  0  0  0  0  0  0  0
  161.7260  208.3110  152.3940 N   0  0  0  0  0  2  0  0  0  0  0  0
  162.3510  207.7450  151.2060 C   0  0  2  0  0  3  0  0  0  0  0  0
  160.8660  203.7520  149.0760 O   0  0  0  0  0  0  0  0  0  0  0  0
  161.1740  205.9900  148.4690 N   0  0  0  0  0  0  0  0  0  0  0  0
  161.9950  207.1550  148.7840 C   0  0  0  0  0  2  0  0  0  0  0  0
  160.8120  205.7870  147.0770 C   0  0  0  0  0  1  0  0  0  0  0  0
  161.4450  207.9190  149.9820 C   0  0  0  0  0  2  0  0  0  0  0  0
  162.8050  206.2940  151.4540 C   0  0  0  0  0  2  0  0  0  0  0  0
  161.2500  205.3990  153.2190 C   0  0  0  0  0  1  0  0  0  0  0  0
  160.5100  205.3040  150.8420 C   0  0  0  0  0  2  0  0  0  0  0  0
  160.8760  204.9620  149.4300 C   0  0  0  0  0  0  0  0  0  0  0  0
  161.7100  205.2670  151.7810 C   0  0  1  0  0  3  0  0  0  0  0  0
  160.7480  212.6960  156.0300 N   0  0  0  0  0  2  0  0  0  0  0  0
  163.2690  210.9070  155.0180 O   0  0  0  0  0  1  0  0  0  0  0  0
  159.7240  210.1670  154.0170 C   0  0  2  0  0  3  0  0  0  0  0  0
  161.2250  210.2320  153.9850 C   0  0  0  0  0  0  0  0  0  0  0  0
  161.1590  211.3010  156.2480 C   0  0  2  0  0  3  0  0  0  0  0  0
  159.1520  211.4180  154.6810 C   0  0  0  0  0  2  0  0  0  0  0  0
  161.8840  210.7870  155.0260 C   0  0  0  0  0  0  0  0  0  0  0  0
  159.7260  211.6390  156.0840 C   0  0  2  0  0  3  0  0  0  0  0  0
  159.2610  208.9160  154.6930 C   0  0  0  0  0  3  0  0  0  0  0  0
  160.0460  208.2760  155.4990 N   0  0  0  0  0  0  0  0  0  0  0  0
  160.4170  206.5800  157.2470 N   0  0  0  0  0  1  0  0  0  0  0  0
  158.6080  206.4530  155.8000 O   0  0  0  0  0  0  0  0  0  0  0  0
  159.6420  207.0770  156.1630 C   0  0  0  0  0  0  0  0  0  0  0  0
  1  2  2  0  0  0  0
  2 18  1  0  0  0  0
  3  2  1  0  0  0  0
  4 10  1  0  0  0  0
  4  3  1  1  0  0  0
  5 13  2  0  0  0  0
  6  7  1  0  0  0  0
  6 13  1  0  0  0  0
  7  9  1  0  0  0  0
  8  6  1  0  0  0  0
  9  4  1  0  0  0  0
 10 14  1  0  0  0  0
 12 14  1  0  0  0  0
 13 12  1  0  0  0  0
 14 11  1  1  0  0  0
 15 22  1  0  0  0  0
 15 19  1  0  0  0  0
 16 21  1  0  0  0  0
 17 20  1  0  0  0  0
 17 23  1  1  0  0  0
 18 17  1  0  0  0  0
 18 21  2  0  0  0  0
 19 21  1  6  0  0  0
 22 20  1  6  0  0  0
 22 19  1  0  0  0  0
 23 24  2  0  0  0  0
 24 27  1  0  0  0  0
 26 27  2  0  0  0  0
 27 25  1  0  0  0  0
M  END
>  <MODEL>
3

>  <REMARK>
 VINA RESULT:      -4.9      2.069      2.931
  Name = 
  4 active torsions:
  status: ('A' for Active; 'I' for Inactive)
    1  A    between atoms: C_2  and  N_24
    2  A    between atoms: C_4  and  C_13
    3  A    between atoms: N_8  and  C_26
    4  A    between atoms: C_17  and  C_18
                            x       y       z     vdW  Elec       q    Type
                         _______ _______ _______ _____ _____    ______ ____

>  <TORSDO>
F 4

$$$$
=
 OpenBabel11072412213D

 27 29  0  0  1  0  0  0  0  0999 V2000
  162.0750  210.3020  152.0290 O   0  0  0  0  0  0  0  0  0  0  0  0
  161.5500  209.4400  152.7850 C   0  0  0  0  0  0  0  0  0  0  0  0
  161.6680  208.0510  152.4570 N   0  0  0  0  0  2  0  0  0  0  0  0
  162.3530  207.5800  151.2600 C   0  0  2  0  0  3  0  0  0  0  0  0
  160.8930  203.8670  148.6600 O   0  0  0  0  0  0  0  0  0  0  0  0
  161.3060  206.1400  148.2960 N   0  0  0  0  0  0  0  0  0  0  0  0
  162.1390  207.2390  148.7750 C   0  0  0  0  0  2  0  0  0  0  0  0
  161.0300  206.0850  146.8710 C   0  0  0  0  0  1  0  0  0  0  0  0
  161.5350  207.9030  150.0060 C   0  0  0  0  0  2  0  0  0  0  0  0
  162.7470  206.0960  151.3920 C   0  0  0  0  0  2  0  0  0  0  0  0
  161.0540  205.0920  152.9600 C   0  0  0  0  0  1  0  0  0  0  0  0
  160.4680  205.2530  150.5440 C   0  0  0  0  0  2  0  0  0  0  0  0
  160.9160  205.0350  149.1310 C   0  0  0  0  0  0  0  0  0  0  0  0
  161.6030  205.0820  151.5480 C   0  0  1  0  0  3  0  0  0  0  0  0
  158.0390  210.0630  155.6580 N   0  0  0  0  0  2  0  0  0  0  0  0
  159.0960  210.9530  152.7140 O   0  0  0  0  0  1  0  0  0  0  0  0
  161.3680  209.5070  155.3320 C   0  0  2  0  0  3  0  0  0  0  0  0
  160.8080  209.8890  153.9910 C   0  0  0  0  0  0  0  0  0  0  0  0
  158.9670  211.0990  155.1800 C   0  0  2  0  0  3  0  0  0  0  0  0
  160.2360  209.2010  156.3120 C   0  0  0  0  0  2  0  0  0  0  0  0
  159.6700  210.6150  153.9330 C   0  0  0  0  0  0  0  0  0  0  0  0
  159.2500  210.3660  156.4360 C   0  0  2  0  0  3  0  0  0  0  0  0
  162.2800  210.5710  155.8510 C   0  0  0  0  0  3  0  0  0  0  0  0
  163.5490  210.5320  155.5930 N   0  0  0  0  0  0  0  0  0  0  0  0
  164.0700  212.3620  157.1580 N   0  0  0  0  0  1  0  0  0  0  0  0
  165.5870  211.6830  155.5400 O   0  0  0  0  0  0  0  0  0  0  0  0
  164.4540  211.5300  156.0710 C   0  0  0  0  0  0  0  0  0  0  0  0
  1  2  2  0  0  0  0
  2 18  1  0  0  0  0
  3  2  1  0  0  0  0
  4 10  1  0  0  0  0
  4  3  1  1  0  0  0
  5 13  2  0  0  0  0
  6  7  1  0  0  0  0
  6 13  1  0  0  0  0
  7  9  1  0  0  0  0
  8  6  1  0  0  0  0
  9  4  1  0  0  0  0
 10 14  1  0  0  0  0
 12 14  1  0  0  0  0
 13 12  1  0  0  0  0
 14 11  1  1  0  0  0
 15 22  1  0  0  0  0
 16 21  1  0  0  0  0
 17 23  1  1  0  0  0
 17 20  1  0  0  0  0
 18 17  1  0  0  0  0
 19 21  1  6  0  0  0
 19 15  1  0  0  0  0
 19 22  1  0  0  0  0
 21 18  2  0  0  0  0
 22 20  1  6  0  0  0
 24 23  2  0  0  0  0
 24 27  1  0  0  0  0
 26 27  2  0  0  0  0
 27 25  1  0  0  0  0
M  END
>  <MODEL>
4

>  <REMARK>
 VINA RESULT:      -4.9      2.034      2.503
  Name = 
  4 active torsions:
  status: ('A' for Active; 'I' for Inactive)
    1  A    between atoms: C_2  and  N_24
    2  A    between atoms: C_4  and  C_13
    3  A    between atoms: N_8  and  C_26
    4  A    between atoms: C_17  and  C_18
                            x       y       z     vdW  Elec       q    Type
                         _______ _______ _______ _____ _____    ______ ____

>  <TORSDO>
F 4

$$$$
=
 OpenBabel11072412213D

 27 29  0  0  1  0  0  0  0  0999 V2000
  158.8110  214.0340  152.2820 O   0  0  0  0  0  0  0  0  0  0  0  0
  159.5350  213.0500  151.9700 C   0  0  0  0  0  0  0  0  0  0  0  0
  160.0560  212.9540  150.6390 N   0  0  0  0  0  2  0  0  0  0  0  0
  159.7630  213.9400  149.6060 C   0  0  2  0  0  3  0  0  0  0  0  0
  160.3360  213.1440  144.9460 O   0  0  0  0  0  0  0  0  0  0  0  0
  158.5770  213.7500  146.3630 N   0  0  0  0  0  0  0  0  0  0  0  0
  158.3110  214.4530  147.6150 C   0  0  0  0  0  2  0  0  0  0  0  0
  157.6080  213.9050  145.2920 C   0  0  0  0  0  1  0  0  0  0  0  0
  158.5080  213.5440  148.8200 C   0  0  0  0  0  2  0  0  0  0  0  0
  160.9990  214.2090  148.7270 C   0  0  0  0  0  2  0  0  0  0  0  0
  162.3460  212.0840  148.8000 C   0  0  0  0  0  1  0  0  0  0  0  0
  160.4940  212.2460  147.1410 C   0  0  0  0  0  2  0  0  0  0  0  0
  159.8220  213.0810  146.0940 C   0  0  0  0  0  0  0  0  0  0  0  0
  161.5500  213.0240  147.9180 C   0  0  1  0  0  3  0  0  0  0  0  0
  161.9540  210.1480  154.5570 N   0  0  0  0  0  2  0  0  0  0  0  0
  161.0820  210.6680  151.4670 O   0  0  0  0  0  1  0  0  0  0  0  0
  159.2790  212.2230  154.3740 C   0  0  2  0  0  3  0  0  0  0  0  0
  159.8180  212.0060  152.9880 C   0  0  0  0  0  0  0  0  0  0  0  0
  160.7570  209.8200  153.7690 C   0  0  2  0  0  3  0  0  0  0  0  0
  160.2680  211.7030  155.4150 C   0  0  0  0  0  2  0  0  0  0  0  0
  160.5290  210.8870  152.7240 C   0  0  0  0  0  0  0  0  0  0  0  0
  160.6270  210.2320  155.1860 C   0  0  2  0  0  3  0  0  0  0  0  0
  157.9300  211.5950  154.5240 C   0  0  0  0  0  3  0  0  0  0  0  0
  157.2590  211.7350  155.6220 N   0  0  0  0  0  0  0  0  0  0  0  0
  155.1850  211.5190  156.9340 N   0  0  0  0  0  1  0  0  0  0  0  0
  155.5160  210.3100  154.9820 O   0  0  0  0  0  0  0  0  0  0  0  0
  155.9680  211.1500  155.8060 C   0  0  0  0  0  0  0  0  0  0  0  0
  2  1  2  0  0  0  0
  2 18  1  0  0  0  0
  3  2  1  0  0  0  0
  4  3  1  1  0  0  0
  5 13  2  0  0  0  0
  6  7  1  0  0  0  0
  7  9  1  0  0  0  0
  8  6  1  0  0  0  0
  9  4  1  0  0  0  0
 10  4  1  0  0  0  0
 12 14  1  0  0  0  0
 13  6  1  0  0  0  0
 13 12  1  0  0  0  0
 14 10  1  0  0  0  0
 14 11  1  1  0  0  0
 15 22  1  0  0  0  0
 16 21  1  0  0  0  0
 17 23  1  6  0  0  0
 17 20  1  0  0  0  0
 18 17  1  0  0  0  0
 19 21  1  6  0  0  0
 19 15  1  0  0  0  0
 19 22  1  0  0  0  0
 21 18  2  0  0  0  0
 22 20  1  6  0  0  0
 23 24  2  0  0  0  0
 24 27  1  0  0  0  0
 26 27  2  0  0  0  0
 27 25  1  0  0  0  0
M  END
>  <MODEL>
5

>  <REMARK>
 VINA RESULT:      -4.3      4.242      6.989
  Name = 
  4 active torsions:
  status: ('A' for Active; 'I' for Inactive)
    1  A    between atoms: C_2  and  N_24
    2  A    between atoms: C_4  and  C_13
    3  A    between atoms: N_8  and  C_26
    4  A    between atoms: C_17  and  C_18
                            x       y       z     vdW  Elec       q    Type
                         _______ _______ _______ _____ _____    ______ ____

>  <TORSDO>
F 4

$$$$
=
 OpenBabel11072412213D

 27 29  0  0  1  0  0  0  0  0999 V2000
  161.6310  203.8640  149.7750 O   0  0  0  0  0  0  0  0  0  0  0  0
  161.6120  204.9640  149.1590 C   0  0  0  0  0  0  0  0  0  0  0  0
  161.9200  206.1710  149.8660 N   0  0  0  0  0  2  0  0  0  0  0  0
  162.2330  206.1920  151.2890 C   0  0  2  0  0  3  0  0  0  0  0  0
  160.7270  209.5740  154.2850 O   0  0  0  0  0  0  0  0  0  0  0  0
  160.5390  207.2490  154.1130 N   0  0  0  0  0  0  0  0  0  0  0  0
  161.2540  206.0810  153.6060 C   0  0  0  0  0  2  0  0  0  0  0  0
  159.8100  207.0950  155.3590 C   0  0  0  0  0  1  0  0  0  0  0  0
  160.9900  205.8630  152.1220 C   0  0  0  0  0  2  0  0  0  0  0  0
  162.9300  207.5070  151.6870 C   0  0  0  0  0  2  0  0  0  0  0  0
  162.1040  209.2240  150.0420 C   0  0  0  0  0  1  0  0  0  0  0  0
  160.7090  208.7560  152.0530 C   0  0  0  0  0  2  0  0  0  0  0  0
  160.6810  208.5600  153.5380 C   0  0  0  0  0  0  0  0  0  0  0  0
  162.1280  208.8050  151.4980 C   0  0  1  0  0  3  0  0  0  0  0  0
  160.8840  206.6330  144.9580 N   0  0  0  0  0  2  0  0  0  0  0  0
  159.6950  206.7700  147.9820 O   0  0  0  0  0  1  0  0  0  0  0  0
  161.9610  204.0090  146.8150 C   0  0  2  0  0  3  0  0  0  0  0  0
  161.2550  204.9830  147.7170 C   0  0  0  0  0  0  0  0  0  0  0  0
  159.9630  205.7840  145.7280 C   0  0  2  0  0  3  0  0  0  0  0  0
  162.2260  204.6450  145.4520 C   0  0  0  0  0  2  0  0  0  0  0  0
  160.3390  205.8250  147.1910 C   0  0  0  0  0  0  0  0  0  0  0  0
  160.9430  205.1710  144.8020 C   0  0  2  0  0  3  0  0  0  0  0  0
  161.1840  202.7370  146.6950 C   0  0  0  0  0  3  0  0  0  0  0  0
  161.1720  202.0780  145.5800 N   0  0  0  0  0  0  0  0  0  0  0  0
  160.9730  199.6510  145.9510 N   0  0  0  0  0  1  0  0  0  0  0  0
  159.3330  200.8430  144.8230 O   0  0  0  0  0  0  0  0  0  0  0  0
  160.4410  200.8600  145.4240 C   0  0  0  0  0  0  0  0  0  0  0  0
  2  1  2  0  0  0  0
  2  3  1  0  0  0  0
  4  3  1  6  0  0  0
  4 10  1  0  0  0  0
  4  9  1  0  0  0  0
  6  8  1  0  0  0  0
  7  6  1  0  0  0  0
  9  7  1  0  0  0  0
 12 13  1  0  0  0  0
 13  6  1  0  0  0  0
 13  5  2  0  0  0  0
 14 11  1  6  0  0  0
 14 10  1  0  0  0  0
 14 12  1  0  0  0  0
 17 23  1  6  0  0  0
 17 18  1  0  0  0  0
 18  2  1  0  0  0  0
 19 15  1  6  0  0  0
 19 21  1  0  0  0  0
 20 17  1  0  0  0  0
 21 18  2  0  0  0  0
 21 16  1  0  0  0  0
 22 15  1  0  0  0  0
 22 20  1  1  0  0  0
 22 19  1  0  0  0  0
 24 23  2  0  0  0  0
 26 27  2  0  0  0  0
 27 24  1  0  0  0  0
 27 25  1  0  0  0  0
M  END
>  <MODEL>
6

>  <REMARK>
 VINA RESULT:      -4.3      3.362      8.735
  Name = 
  4 active torsions:
  status: ('A' for Active; 'I' for Inactive)
    1  A    between atoms: C_2  and  N_24
    2  A    between atoms: C_4  and  C_13
    3  A    between atoms: N_8  and  C_26
    4  A    between atoms: C_17  and  C_18
                            x       y       z     vdW  Elec       q    Type
                         _______ _______ _______ _____ _____    ______ ____

>  <TORSDO>
F 4

$$$$
