=
 OpenBabel11072414093D

 28 32  0  0  1  0  0  0  0  0999 V2000
  162.3190  205.9880  145.3250 C   0  0  0  0  0  3  0  0  0  0  0  0
  160.4650  203.8970  150.8720 C   0  0  1  0  0  3  0  0  0  0  0  0
  161.5650  206.8810  148.8940 C   0  0  0  0  0  0  0  0  0  0  0  0
  161.0990  205.6550  149.4070 C   0  0  0  0  0  0  0  0  0  0  0  0
  160.4710  203.6080  145.2130 C   0  0  0  0  0  2  0  0  0  0  0  0
  162.7560  201.4240  152.2570 O   0  0  0  0  0  0  0  0  0  0  0  0
  161.2840  204.0990  144.1590 O   0  0  0  0  0  0  0  0  0  0  0  0
  161.1200  201.9960  149.2000 C   0  0  1  0  0  3  0  0  0  0  0  0
  161.2260  201.1880  150.4890 C   0  0  0  0  0  2  0  0  0  0  0  0
  161.9530  201.9770  151.5250 C   0  0  0  0  0  0  0  0  0  0  0  0
  161.8720  205.7870  146.7220 C   0  0  0  0  0  0  0  0  0  0  0  0
  160.2840  201.1810  148.2320 C   0  0  0  0  0  1  0  0  0  0  0  0
  162.0800  205.2470  144.2340 C   0  0  0  0  0  3  0  0  0  0  0  0
  160.4560  203.3770  149.4100 C   0  0  2  0  0  3  0  0  0  0  0  0
  161.4140  204.5590  147.2630 C   0  0  0  0  0  0  0  0  0  0  0  0
  161.0540  204.5140  148.6260 C   0  0  0  0  0  0  0  0  0  0  0  0
  161.6880  203.4400  151.6780 C   0  0  0  0  0  2  0  0  0  0  0  0
  161.9510  206.9160  147.5470 C   0  0  0  0  0  3  0  0  0  0  0  0
  160.5410  205.4150  150.7640 C   0  0  0  0  0  2  0  0  0  0  0  0
  161.3300  203.3320  146.4220 C   0  0  0  0  0  2  0  0  0  0  0  0
  161.4010  209.3120  153.2220 O   0  0  0  0  0  1  0  0  0  0  0  0
  161.9880  209.1690  151.9660 C   0  0  2  0  0  3  0  0  0  0  0  0
  161.9790  209.3030  149.1310 C   0  0  0  0  0  3  0  0  0  0  0  0
  162.0490  210.5450  149.9250 C   0  0  0  0  0  0  0  0  0  0  0  0
  162.1440  211.7710  149.2830 O   0  0  0  0  0  1  0  0  0  0  0  0
  161.6570  208.1300  149.6980 C   0  0  0  0  0  0  0  0  0  0  0  0
  162.0090  210.4940  151.2590 C   0  0  0  0  0  3  0  0  0  0  0  0
  161.2270  208.1190  151.1510 C   0  0  0  0  0  2  0  0  0  0  0  0
  1 11  1  0  0  0  0
  2 19  1  6  0  0  0
  2 17  1  0  0  0  0
  3  4  1  0  0  0  0
  3 26  1  0  0  0  0
  4 19  1  0  0  0  0
  5 20  1  0  0  0  0
  7 13  1  0  0  0  0
  7  5  1  0  0  0  0
  8 12  1  6  0  0  0
  8 14  1  0  0  0  0
  8  9  1  0  0  0  0
  9 10  1  0  0  0  0
 10 17  1  0  0  0  0
 10  6  2  0  0  0  0
 11 15  2  0  0  0  0
 11 18  1  0  0  0  0
 13  1  2  0  0  0  0
 14 16  1  6  0  0  0
 14  2  1  0  0  0  0
 15 16  1  0  0  0  0
 16  4  2  0  0  0  0
 18  3  2  0  0  0  0
 20 15  1  0  0  0  0
 22 21  1  1  0  0  0
 23 26  2  0  0  0  0
 23 24  1  0  0  0  0
 24 27  2  0  0  0  0
 25 24  1  0  0  0  0
 26 28  1  0  0  0  0
 27 22  1  0  0  0  0
 28 22  1  0  0  0  0
M  END
>  <MODEL>
1

>  <REMARK>
 VINA RESULT:      -9.3      0.000      0.000
  Name = 
  1 active torsions:
  status: ('A' for Active; 'I' for Inactive)
    1  A    between atoms: C_4  and  C_25
                            x       y       z     vdW  Elec       q    Type
                         _______ _______ _______ _____ _____    ______ ____

>  <TORSDO>
F 1

$$$$
=
 OpenBabel11072414093D

 28 32  0  0  1  0  0  0  0  0999 V2000
  161.3520  209.4790  148.2920 C   0  0  0  0  0  3  0  0  0  0  0  0
  161.7200  206.3140  153.6230 C   0  0  1  0  0  3  0  0  0  0  0  0
  161.4030  206.0840  149.8980 C   0  0  0  0  0  0  0  0  0  0  0  0
  161.6120  206.4090  151.2530 C   0  0  0  0  0  0  0  0  0  0  0  0
  162.9140  210.8660  150.4660 C   0  0  0  0  0  2  0  0  0  0  0  0
  158.9320  207.0310  155.8570 O   0  0  0  0  0  0  0  0  0  0  0  0
  162.4070  211.4560  149.2800 O   0  0  0  0  0  0  0  0  0  0  0  0
  161.2450  208.8640  153.9480 C   0  0  1  0  0  3  0  0  0  0  0  0
  160.7750  208.3860  155.3180 C   0  0  0  0  0  2  0  0  0  0  0  0
  159.9290  207.1670  155.1690 C   0  0  0  0  0  0  0  0  0  0  0  0
  161.4600  208.4800  149.3790 C   0  0  0  0  0  0  0  0  0  0  0  0
  162.1780  210.0360  154.1820 C   0  0  0  0  0  1  0  0  0  0  0  0
  161.7410  210.7610  148.2640 C   0  0  0  0  0  3  0  0  0  0  0  0
  161.9910  207.7670  153.1530 C   0  0  2  0  0  3  0  0  0  0  0  0
  161.6550  208.7840  150.7490 C   0  0  0  0  0  0  0  0  0  0  0  0
  161.7040  207.7220  151.6770 C   0  0  0  0  0  0  0  0  0  0  0  0
  160.3100  206.1040  154.1890 C   0  0  0  0  0  2  0  0  0  0  0  0
  161.3250  207.1430  148.9830 C   0  0  0  0  0  3  0  0  0  0  0  0
  161.8330  205.4540  152.3700 C   0  0  0  0  0  2  0  0  0  0  0  0
  161.7880  210.1940  151.2130 C   0  0  0  0  0  2  0  0  0  0  0  0
  160.6670  201.2280  150.6270 O   0  0  0  0  0  1  0  0  0  0  0  0
  160.4570  202.3490  149.8270 C   0  0  2  0  0  3  0  0  0  0  0  0
  161.3140  204.4160  148.0810 C   0  0  0  0  0  3  0  0  0  0  0  0
  161.2070  203.0310  147.5830 C   0  0  0  0  0  0  0  0  0  0  0  0
  161.4930  202.7510  146.2550 O   0  0  0  0  0  1  0  0  0  0  0  0
  161.2730  204.6900  149.3950 C   0  0  0  0  0  0  0  0  0  0  0  0
  160.8470  202.0450  148.4090 C   0  0  0  0  0  3  0  0  0  0  0  0
  161.2530  203.5380  150.3770 C   0  0  0  0  0  2  0  0  0  0  0  0
  1 11  1  0  0  0  0
  2 19  1  6  0  0  0
  2 17  1  0  0  0  0
  3  4  1  0  0  0  0
  4 16  2  0  0  0  0
  4 19  1  0  0  0  0
  5 20  1  0  0  0  0
  7  5  1  0  0  0  0
  8 12  1  1  0  0  0
  8  9  1  0  0  0  0
 10  9  1  0  0  0  0
 10  6  2  0  0  0  0
 11 15  2  0  0  0  0
 13  1  2  0  0  0  0
 13  7  1  0  0  0  0
 14 16  1  6  0  0  0
 14  2  1  0  0  0  0
 14  8  1  0  0  0  0
 15 20  1  0  0  0  0
 15 16  1  0  0  0  0
 17 10  1  0  0  0  0
 18 11  1  0  0  0  0
 18  3  2  0  0  0  0
 22 28  1  0  0  0  0
 22 21  1  1  0  0  0
 23 26  2  0  0  0  0
 24 23  1  0  0  0  0
 24 27  2  0  0  0  0
 25 24  1  0  0  0  0
 26  3  1  0  0  0  0
 26 28  1  0  0  0  0
 27 22  1  0  0  0  0
M  END
>  <MODEL>
2

>  <REMARK>
 VINA RESULT:      -7.2      2.057      6.642
  Name = 
  1 active torsions:
  status: ('A' for Active; 'I' for Inactive)
    1  A    between atoms: C_4  and  C_25
                            x       y       z     vdW  Elec       q    Type
                         _______ _______ _______ _____ _____    ______ ____

>  <TORSDO>
F 1

$$$$
=
 OpenBabel11072414093D

 28 32  0  0  1  0  0  0  0  0999 V2000
  160.2670  203.8290  152.1300 C   0  0  0  0  0  3  0  0  0  0  0  0
  162.1170  205.3550  146.4010 C   0  0  1  0  0  3  0  0  0  0  0  0
  161.4140  206.5960  149.8630 C   0  0  0  0  0  0  0  0  0  0  0  0
  161.6960  205.8970  148.6730 C   0  0  0  0  0  0  0  0  0  0  0  0
  161.6610  201.6140  150.6330 C   0  0  0  0  0  2  0  0  0  0  0  0
  159.5360  204.7430  143.9010 O   0  0  0  0  0  0  0  0  0  0  0  0
  160.8730  201.4780  151.8050 O   0  0  0  0  0  0  0  0  0  0  0  0
  161.0260  202.9830  146.5540 C   0  0  1  0  0  3  0  0  0  0  0  0
  160.8720  203.1880  145.0500 C   0  0  0  0  0  2  0  0  0  0  0  0
  160.3680  204.5640  144.7740 C   0  0  0  0  0  0  0  0  0  0  0  0
  160.7690  204.4650  150.8910 C   0  0  0  0  0  0  0  0  0  0  0  0
  161.6370  201.6100  146.7550 C   0  0  0  0  0  1  0  0  0  0  0  0
  160.2950  202.5430  152.5060 C   0  0  0  0  0  3  0  0  0  0  0  0
  161.9320  204.0470  147.2160 C   0  0  2  0  0  3  0  0  0  0  0  0
  161.0450  203.7840  149.6790 C   0  0  0  0  0  0  0  0  0  0  0  0
  161.4870  204.5330  148.5680 C   0  0  0  0  0  0  0  0  0  0  0  0
  160.8930  205.7280  145.5530 C   0  0  0  0  0  2  0  0  0  0  0  0
  160.9460  205.8530  150.9560 C   0  0  0  0  0  3  0  0  0  0  0  0
  162.2980  206.4580  147.4360 C   0  0  0  0  0  2  0  0  0  0  0  0
  160.8550  202.3110  149.5640 C   0  0  0  0  0  2  0  0  0  0  0  0
  161.7080  210.6870  152.6630 O   0  0  0  0  0  1  0  0  0  0  0  0
  162.1640  209.9760  151.5550 C   0  0  2  0  0  3  0  0  0  0  0  0
  161.8720  208.8500  148.9660 C   0  0  0  0  0  3  0  0  0  0  0  0
  162.0320  210.3080  149.1190 C   0  0  0  0  0  0  0  0  0  0  0  0
  162.0730  211.1200  147.9940 O   0  0  0  0  0  1  0  0  0  0  0  0
  161.5980  208.0640  150.0200 C   0  0  0  0  0  0  0  0  0  0  0  0
  162.1260  210.8520  150.3350 C   0  0  0  0  0  3  0  0  0  0  0  0
  161.3160  208.7160  151.3580 C   0  0  0  0  0  2  0  0  0  0  0  0
  1 13  2  0  0  0  0
  2 17  1  1  0  0  0
  2 14  1  0  0  0  0
  2 19  1  0  0  0  0
  3 26  1  0  0  0  0
  3 18  1  0  0  0  0
  4  3  2  0  0  0  0
  5  7  1  0  0  0  0
  6 10  2  0  0  0  0
  7 13  1  0  0  0  0
  8 12  1  6  0  0  0
  8 14  1  0  0  0  0
  9  8  1  0  0  0  0
 10  9  1  0  0  0  0
 10 17  1  0  0  0  0
 11 18  2  0  0  0  0
 11  1  1  0  0  0  0
 14 16  1  1  0  0  0
 15 11  1  0  0  0  0
 16  4  1  0  0  0  0
 16 15  2  0  0  0  0
 19  4  1  0  0  0  0
 20 15  1  0  0  0  0
 20  5  1  0  0  0  0
 22 21  1  1  0  0  0
 23 24  1  0  0  0  0
 23 26  2  0  0  0  0
 24 27  2  0  0  0  0
 25 24  1  0  0  0  0
 26 28  1  0  0  0  0
 27 22  1  0  0  0  0
 28 22  1  0  0  0  0
M  END
>  <MODEL>
3

>  <REMARK>
 VINA RESULT:      -7.2      1.065      4.547
  Name = 
  1 active torsions:
  status: ('A' for Active; 'I' for Inactive)
    1  A    between atoms: C_4  and  C_25
                            x       y       z     vdW  Elec       q    Type
                         _______ _______ _______ _____ _____    ______ ____

>  <TORSDO>
F 1

$$$$
=
 OpenBabel11072414093D

 28 32  0  0  1  0  0  0  0  0999 V2000
  159.4860  211.3750  154.3240 C   0  0  0  0  0  3  0  0  0  0  0  0
  162.3350  207.3960  150.4990 C   0  0  1  0  0  3  0  0  0  0  0  0
  161.0940  210.8990  150.9630 C   0  0  0  0  0  0  0  0  0  0  0  0
  161.5510  209.5690  151.0470 C   0  0  0  0  0  0  0  0  0  0  0  0
  161.0420  209.1970  155.7140 C   0  0  0  0  0  2  0  0  0  0  0  0
  160.1990  204.5910  149.5740 O   0  0  0  0  0  0  0  0  0  0  0  0
  160.0620  210.0410  156.2970 O   0  0  0  0  0  0  0  0  0  0  0  0
  161.1560  206.2400  152.5270 C   0  0  1  0  0  3  0  0  0  0  0  0
  161.2680  205.0160  151.6230 C   0  0  0  0  0  2  0  0  0  0  0  0
  160.8640  205.3720  150.2330 C   0  0  0  0  0  0  0  0  0  0  0  0
  160.2130  210.6760  153.2400 C   0  0  0  0  0  0  0  0  0  0  0  0
  161.6780  205.8340  153.8910 C   0  0  0  0  0  1  0  0  0  0  0  0
  159.4080  211.0840  155.6300 C   0  0  0  0  0  3  0  0  0  0  0  0
  161.9710  207.4470  152.0070 C   0  0  2  0  0  3  0  0  0  0  0  0
  160.6690  209.3340  153.2970 C   0  0  0  0  0  0  0  0  0  0  0  0
  161.3190  208.7920  152.1680 C   0  0  0  0  0  0  0  0  0  0  0  0
  161.2870  206.6780  149.6390 C   0  0  0  0  0  2  0  0  0  0  0  0
  160.4220  211.4240  152.0750 C   0  0  0  0  0  3  0  0  0  0  0  0
  162.3730  208.8480  150.0400 C   0  0  0  0  0  2  0  0  0  0  0  0
  160.4530  208.5000  154.5120 C   0  0  0  0  0  2  0  0  0  0  0  0
  159.5840  214.4530  147.8410 O   0  0  0  0  0  1  0  0  0  0  0  0
  160.6340  213.8560  148.5360 C   0  0  2  0  0  3  0  0  0  0  0  0
  162.4410  211.7340  149.0700 C   0  0  0  0  0  3  0  0  0  0  0  0
  162.6330  212.5790  147.8760 C   0  0  0  0  0  0  0  0  0  0  0  0
  163.7150  212.3530  147.0370 O   0  0  0  0  0  1  0  0  0  0  0  0
  161.2960  211.7660  149.7710 C   0  0  0  0  0  0  0  0  0  0  0  0
  161.7630  213.5510  147.5930 C   0  0  0  0  0  3  0  0  0  0  0  0
  160.1410  212.5870  149.2370 C   0  0  0  0  0  2  0  0  0  0  0  0
  1 13  2  0  0  0  0
  2 17  1  6  0  0  0
  2 14  1  0  0  0  0
  3  4  2  0  0  0  0
  3 18  1  0  0  0  0
  4 16  1  0  0  0  0
  5  7  1  0  0  0  0
  6 10  2  0  0  0  0
  8 12  1  1  0  0  0
  9  8  1  0  0  0  0
 10  9  1  0  0  0  0
 11 15  1  0  0  0  0
 11  1  1  0  0  0  0
 13  7  1  0  0  0  0
 14 16  1  6  0  0  0
 14  8  1  0  0  0  0
 15 20  1  0  0  0  0
 16 15  2  0  0  0  0
 17 10  1  0  0  0  0
 18 11  2  0  0  0  0
 19  2  1  0  0  0  0
 19  4  1  0  0  0  0
 20  5  1  0  0  0  0
 22 21  1  6  0  0  0
 22 28  1  0  0  0  0
 23 26  2  0  0  0  0
 24 23  1  0  0  0  0
 25 24  1  0  0  0  0
 26  3  1  0  0  0  0
 27 24  2  0  0  0  0
 27 22  1  0  0  0  0
 28 26  1  0  0  0  0
M  END
>  <MODEL>
4

>  <REMARK>
 VINA RESULT:      -6.9      3.167      6.914
  Name = 
  1 active torsions:
  status: ('A' for Active; 'I' for Inactive)
    1  A    between atoms: C_4  and  C_25
                            x       y       z     vdW  Elec       q    Type
                         _______ _______ _______ _____ _____    ______ ____

>  <TORSDO>
F 1

$$$$
=
 OpenBabel11072414093D

 28 32  0  0  1  0  0  0  0  0999 V2000
  161.9740  206.2160  150.3770 C   0  0  0  0  0  3  0  0  0  0  0  0
  160.7610  210.4020  154.8020 C   0  0  1  0  0  3  0  0  0  0  0  0
  161.3270  209.8360  151.1440 C   0  0  0  0  0  0  0  0  0  0  0  0
  161.0620  209.7950  152.5270 C   0  0  0  0  0  0  0  0  0  0  0  0
  160.4600  205.1300  152.7480 C   0  0  0  0  0  2  0  0  0  0  0  0
  163.4440  210.6410  157.2580 O   0  0  0  0  0  0  0  0  0  0  0  0
  161.1340  204.3730  151.7550 O   0  0  0  0  0  0  0  0  0  0  0  0
  161.5630  208.0940  155.7340 C   0  0  1  0  0  3  0  0  0  0  0  0
  161.8560  208.9330  156.9730 C   0  0  0  0  0  2  0  0  0  0  0  0
  162.5310  210.2030  156.5790 C   0  0  0  0  0  0  0  0  0  0  0  0
  161.6450  207.4050  151.1960 C   0  0  0  0  0  0  0  0  0  0  0  0
  160.7870  206.8750  156.1950 C   0  0  0  0  0  1  0  0  0  0  0  0
  161.7720  204.9160  150.6330 C   0  0  0  0  0  3  0  0  0  0  0  0
  160.7330  208.8560  154.6740 C   0  0  2  0  0  3  0  0  0  0  0  0
  161.3900  207.3900  152.5900 C   0  0  0  0  0  0  0  0  0  0  0  0
  161.1230  208.6130  153.2420 C   0  0  0  0  0  0  0  0  0  0  0  0
  162.0820  210.9480  155.3630 C   0  0  0  0  0  2  0  0  0  0  0  0
  161.6210  208.6230  150.5050 C   0  0  0  0  0  3  0  0  0  0  0  0
  160.6260  210.9310  153.3810 C   0  0  0  0  0  2  0  0  0  0  0  0
  161.4210  206.1170  153.3640 C   0  0  0  0  0  2  0  0  0  0  0  0
  162.8180  212.5680  147.2750 O   0  0  0  0  0  1  0  0  0  0  0  0
  161.7830  212.1880  148.1260 C   0  0  2  0  0  3  0  0  0  0  0  0
  160.4700  212.0950  150.6410 C   0  0  0  0  0  3  0  0  0  0  0  0
  160.4570  213.3420  149.8510 C   0  0  0  0  0  0  0  0  0  0  0  0
  159.7760  214.4530  150.3260 O   0  0  0  0  0  1  0  0  0  0  0  0
  161.2980  211.0840  150.3350 C   0  0  0  0  0  0  0  0  0  0  0  0
  161.1090  213.4080  148.6880 C   0  0  0  0  0  3  0  0  0  0  0  0
  162.3280  211.2930  149.2440 C   0  0  0  0  0  2  0  0  0  0  0  0
  1 13  2  0  0  0  0
  1 11  1  0  0  0  0
  2 19  1  6  0  0  0
  2 17  1  0  0  0  0
  3  4  1  0  0  0  0
  4 16  2  0  0  0  0
  4 19  1  0  0  0  0
  5 20  1  0  0  0  0
  7  5  1  0  0  0  0
  8 12  1  1  0  0  0
  8  9  1  0  0  0  0
 10  9  1  0  0  0  0
 10  6  2  0  0  0  0
 11 15  2  0  0  0  0
 13  7  1  0  0  0  0
 14 16  1  6  0  0  0
 14  2  1  0  0  0  0
 14  8  1  0  0  0  0
 15 16  1  0  0  0  0
 15 20  1  0  0  0  0
 17 10  1  0  0  0  0
 18  3  2  0  0  0  0
 18 11  1  0  0  0  0
 22 21  1  6  0  0  0
 22 27  1  0  0  0  0
 22 28  1  0  0  0  0
 24 25  1  0  0  0  0
 24 23  1  0  0  0  0
 26 23  2  0  0  0  0
 26  3  1  0  0  0  0
 27 24  2  0  0  0  0
 28 26  1  0  0  0  0
M  END
>  <MODEL>
5

>  <REMARK>
 VINA RESULT:      -6.6      3.460      6.664
  Name = 
  1 active torsions:
  status: ('A' for Active; 'I' for Inactive)
    1  A    between atoms: C_4  and  C_25
                            x       y       z     vdW  Elec       q    Type
                         _______ _______ _______ _____ _____    ______ ____

>  <TORSDO>
F 1

$$$$
