=
 OpenBabel11072415253D

 25 27  0  0  0  0  0  0  0  0999 V2000
  162.1860  209.4590  148.6400 O   0  0  0  0  0  0  0  0  0  0  0  0
  160.9640  206.5040  153.9830 C   0  0  0  0  0  3  0  0  0  0  0  0
  161.1170  208.7620  153.1140 C   0  0  0  0  0  3  0  0  0  0  0  0
  161.9810  208.6380  149.5710 C   0  0  0  0  0  0  0  0  0  0  0  0
  160.8780  207.8900  154.1880 C   0  0  0  0  0  0  0  0  0  0  0  0
  161.8390  206.3710  150.3930 C   0  0  0  0  0  3  0  0  0  0  0  0
  161.6680  209.0990  150.8130 N   0  0  0  0  0  2  0  0  0  0  0  0
  161.2840  205.9900  152.7220 C   0  0  0  0  0  3  0  0  0  0  0  0
  161.4360  208.2550  151.8520 C   0  0  0  0  0  0  0  0  0  0  0  0
  162.0740  207.2560  149.3310 C   0  0  0  0  0  0  0  0  0  0  0  0
  161.5200  206.8610  151.6570 C   0  0  0  0  0  0  0  0  0  0  0  0
  160.2570  206.2270  147.2480 O   0  0  0  0  0  0  0  0  0  0  0  0
  162.4060  206.7840  148.0170 N   0  0  0  0  0  2  0  0  0  0  0  0
  161.4970  206.2800  147.0290 C   0  0  0  0  0  0  0  0  0  0  0  0
  162.0250  205.8430  145.7090 C   0  0  0  0  0  2  0  0  0  0  0  0
  161.3060  204.5860  145.2600 C   0  0  0  0  0  2  0  0  0  0  0  0
  161.8830  203.4340  145.9280 N   0  0  0  0  0  2  0  0  0  0  0  0
  160.9030  202.8930  146.6880 O   0  0  0  0  0  0  0  0  0  0  0  0
  161.5340  202.5480  147.8850 C   0  0  0  0  0  3  0  0  0  0  0  0
  161.0800  201.1690  148.3180 C   0  0  0  0  0  2  0  0  0  0  0  0
  160.7810  203.1570  149.0500 C   0  0  0  0  0  2  0  0  0  0  0  0
  160.3220  201.7790  149.4790 C   0  0  0  0  0  2  0  0  0  0  0  0
  159.7790  207.7840  156.2890 O   0  0  0  0  0  0  0  0  0  0  0  0
  160.5420  208.4260  155.5190 C   0  0  0  0  0  0  0  0  0  0  0  0
  161.0730  209.6760  155.9490 N   0  0  0  0  0  1  0  0  0  0  0  0
  1  4  2  0  0  0  0
  2  5  1  0  0  0  0
  3  5  2  0  0  0  0
  4  7  1  0  0  0  0
  5 24  1  0  0  0  0
  6 11  1  0  0  0  0
  7  9  1  0  0  0  0
  8  2  2  0  0  0  0
  9  3  1  0  0  0  0
 10  4  1  0  0  0  0
 10  6  2  0  0  0  0
 11  9  2  0  0  0  0
 11  8  1  0  0  0  0
 13 10  1  0  0  0  0
 14 12  2  0  0  0  0
 14 13  1  0  0  0  0
 15 14  1  0  0  0  0
 16 15  1  0  0  0  0
 16 17  1  0  0  0  0
 17 18  1  0  0  0  0
 18 19  1  0  0  0  0
 19 20  1  0  0  0  0
 19 21  1  0  0  0  0
 20 22  1  0  0  0  0
 21 22  1  0  0  0  0
 24 25  1  0  0  0  0
 24 23  2  0  0  0  0
M  END
>  <MODEL>
1

>  <REMARK>
 VINA RESULT:      -8.2      0.000      0.000
  Name = 
  7 active torsions:
  status: ('A' for Active; 'I' for Inactive)
    1  A    between atoms: C_1  and  C_17
    2  A    between atoms: C_1  and  C_20
    3  A    between atoms: C_2  and  O_18
    4  A    between atoms: N_6  and  O_18
    5  A    between atoms: N_6  and  C_20
    6  A    between atoms: C_11  and  C_21
    7  A    between atoms: N_15  and  C_23
                            x       y       z     vdW  Elec       q    Type
                         _______ _______ _______ _____ _____    ______ ____

>  <TORSDO>
F 7

$$$$
=
 OpenBabel11072415253D

 25 27  0  0  0  0  0  0  0  0999 V2000
  161.5650  202.3470  151.6620 O   0  0  0  0  0  0  0  0  0  0  0  0
  160.9070  208.5330  151.9340 C   0  0  0  0  0  3  0  0  0  0  0  0
  161.0440  206.6230  153.4200 C   0  0  0  0  0  3  0  0  0  0  0  0
  161.4460  203.5810  151.4460 C   0  0  0  0  0  0  0  0  0  0  0  0
  160.9070  208.0080  153.2360 C   0  0  0  0  0  0  0  0  0  0  0  0
  161.3140  205.4540  149.9270 C   0  0  0  0  0  3  0  0  0  0  0  0
  161.3110  204.4350  152.4980 N   0  0  0  0  0  2  0  0  0  0  0  0
  161.0420  207.6890  150.8270 C   0  0  0  0  0  3  0  0  0  0  0  0
  161.1790  205.7750  152.3190 C   0  0  0  0  0  0  0  0  0  0  0  0
  161.4500  204.0740  150.1290 C   0  0  0  0  0  0  0  0  0  0  0  0
  161.1780  206.3130  151.0160 C   0  0  0  0  0  0  0  0  0  0  0  0
  159.5580  202.0020  149.2220 O   0  0  0  0  0  0  0  0  0  0  0  0
  161.5920  203.1620  149.0300 N   0  0  0  0  0  2  0  0  0  0  0  0
  160.6540  202.1570  148.6210 C   0  0  0  0  0  0  0  0  0  0  0  0
  160.9680  201.3040  147.4440 C   0  0  0  0  0  2  0  0  0  0  0  0
  160.3650  201.9110  146.1940 C   0  0  0  0  0  2  0  0  0  0  0  0
  161.2930  202.8710  145.6250 N   0  0  0  0  0  2  0  0  0  0  0  0
  160.5760  203.6620  144.7930 O   0  0  0  0  0  0  0  0  0  0  0  0
  161.2760  204.8700  144.7660 C   0  0  0  0  0  3  0  0  0  0  0  0
  162.0080  205.0610  146.0790 C   0  0  0  0  0  2  0  0  0  0  0  0
  160.3410  206.0060  145.1270 C   0  0  0  0  0  2  0  0  0  0  0  0
  161.0690  206.1930  146.4410 C   0  0  0  0  0  2  0  0  0  0  0  0
  160.0650  209.9470  154.3160 O   0  0  0  0  0  0  0  0  0  0  0  0
  160.7630  208.9010  154.3990 C   0  0  0  0  0  0  0  0  0  0  0  0
  161.4130  208.5940  155.6290 N   0  0  0  0  0  1  0  0  0  0  0  0
  2  5  1  0  0  0  0
  4  1  2  0  0  0  0
  4  7  1  0  0  0  0
  5  3  2  0  0  0  0
  5 24  1  0  0  0  0
  6 10  2  0  0  0  0
  6 11  1  0  0  0  0
  8 11  1  0  0  0  0
  8  2  2  0  0  0  0
  9  7  1  0  0  0  0
  9  3  1  0  0  0  0
 10  4  1  0  0  0  0
 11  9  2  0  0  0  0
 13 10  1  0  0  0  0
 14 13  1  0  0  0  0
 14 12  2  0  0  0  0
 15 14  1  0  0  0  0
 16 15  1  0  0  0  0
 17 16  1  0  0  0  0
 18 17  1  0  0  0  0
 19 18  1  0  0  0  0
 19 21  1  0  0  0  0
 19 20  1  0  0  0  0
 20 22  1  0  0  0  0
 21 22  1  0  0  0  0
 23 24  2  0  0  0  0
 24 25  1  0  0  0  0
M  END
>  <MODEL>
2

>  <REMARK>
 VINA RESULT:      -7.8      2.206      3.748
  Name = 
  7 active torsions:
  status: ('A' for Active; 'I' for Inactive)
    1  A    between atoms: C_1  and  C_17
    2  A    between atoms: C_1  and  C_20
    3  A    between atoms: C_2  and  O_18
    4  A    between atoms: N_6  and  O_18
    5  A    between atoms: N_6  and  C_20
    6  A    between atoms: C_11  and  C_21
    7  A    between atoms: N_15  and  C_23
                            x       y       z     vdW  Elec       q    Type
                         _______ _______ _______ _____ _____    ______ ____

>  <TORSDO>
F 7

$$$$
=
 OpenBabel11072415253D

 25 27  0  0  0  0  0  0  0  0999 V2000
  161.3620  204.0550  150.8750 O   0  0  0  0  0  0  0  0  0  0  0  0
  160.8980  209.3460  154.1260 C   0  0  0  0  0  3  0  0  0  0  0  0
  161.2170  206.9720  154.4970 C   0  0  0  0  0  3  0  0  0  0  0  0
  161.2390  205.2390  151.2860 C   0  0  0  0  0  0  0  0  0  0  0  0
  161.0860  208.2720  155.0100 C   0  0  0  0  0  0  0  0  0  0  0  0
  160.9190  207.5960  150.8690 C   0  0  0  0  0  3  0  0  0  0  0  0
  161.2880  205.4900  152.6230 N   0  0  0  0  0  2  0  0  0  0  0  0
  160.8410  209.1290  152.7450 C   0  0  0  0  0  3  0  0  0  0  0  0
  161.1620  206.7490  153.1190 C   0  0  0  0  0  0  0  0  0  0  0  0
  161.0520  206.2910  150.3730 C   0  0  0  0  0  0  0  0  0  0  0  0
  160.9730  207.8340  152.2400 C   0  0  0  0  0  0  0  0  0  0  0  0
  162.7810  207.3590  148.2350 O   0  0  0  0  0  0  0  0  0  0  0  0
  161.0020  206.0100  148.9660 N   0  0  0  0  0  2  0  0  0  0  0  0
  161.8530  206.5550  147.9500 C   0  0  0  0  0  0  0  0  0  0  0  0
  161.6580  206.1380  146.5350 C   0  0  0  0  0  2  0  0  0  0  0  0
  162.4720  204.8920  146.2510 C   0  0  0  0  0  2  0  0  0  0  0  0
  161.6170  203.7230  146.3430 N   0  0  0  0  0  2  0  0  0  0  0  0
  161.7850  203.2140  147.5860 O   0  0  0  0  0  0  0  0  0  0  0  0
  160.7970  202.2360  147.7030 C   0  0  0  0  0  3  0  0  0  0  0  0
  161.2890  201.1240  148.6070 C   0  0  0  0  0  2  0  0  0  0  0  0
  160.8690  201.2970  146.5160 C   0  0  0  0  0  2  0  0  0  0  0  0
  161.3660  200.1880  147.4180 C   0  0  0  0  0  2  0  0  0  0  0  0
  160.1520  208.2390  157.1910 O   0  0  0  0  0  0  0  0  0  0  0  0
  161.1450  208.5060  156.4630 C   0  0  0  0  0  0  0  0  0  0  0  0
  162.3230  209.0390  157.0620 N   0  0  0  0  0  1  0  0  0  0  0  0
  1  4  2  0  0  0  0
  2  5  1  0  0  0  0
  3  5  2  0  0  0  0
  4  7  1  0  0  0  0
  5 24  1  0  0  0  0
  6 11  1  0  0  0  0
  7  9  1  0  0  0  0
  8  2  2  0  0  0  0
  9  3  1  0  0  0  0
 10  6  2  0  0  0  0
 10  4  1  0  0  0  0
 11  8  1  0  0  0  0
 11  9  2  0  0  0  0
 13 10  1  0  0  0  0
 14 12  2  0  0  0  0
 14 13  1  0  0  0  0
 15 14  1  0  0  0  0
 16 17  1  0  0  0  0
 16 15  1  0  0  0  0
 17 18  1  0  0  0  0
 18 19  1  0  0  0  0
 19 20  1  0  0  0  0
 21 22  1  0  0  0  0
 21 19  1  0  0  0  0
 22 20  1  0  0  0  0
 24 25  1  0  0  0  0
 24 23  2  0  0  0  0
M  END
>  <MODEL>
3

>  <REMARK>
 VINA RESULT:      -7.6      1.662      2.403
  Name = 
  7 active torsions:
  status: ('A' for Active; 'I' for Inactive)
    1  A    between atoms: C_1  and  C_17
    2  A    between atoms: C_1  and  C_20
    3  A    between atoms: C_2  and  O_18
    4  A    between atoms: N_6  and  O_18
    5  A    between atoms: N_6  and  C_20
    6  A    between atoms: C_11  and  C_21
    7  A    between atoms: N_15  and  C_23
                            x       y       z     vdW  Elec       q    Type
                         _______ _______ _______ _____ _____    ______ ____

>  <TORSDO>
F 7

$$$$
=
 OpenBabel11072415253D

 25 27  0  0  0  0  0  0  0  0999 V2000
  161.9980  209.6030  150.9010 O   0  0  0  0  0  0  0  0  0  0  0  0
  161.3540  204.2000  147.8740 C   0  0  0  0  0  3  0  0  0  0  0  0
  162.1950  206.4410  147.4940 C   0  0  0  0  0  3  0  0  0  0  0  0
  161.7580  208.4260  150.5240 C   0  0  0  0  0  0  0  0  0  0  0  0
  161.9510  205.1410  147.0220 C   0  0  0  0  0  0  0  0  0  0  0  0
  160.9080  206.2060  150.9480 C   0  0  0  0  0  3  0  0  0  0  0  0
  162.0840  208.0510  149.2570 N   0  0  0  0  0  2  0  0  0  0  0  0
  161.0030  204.5460  149.1830 C   0  0  0  0  0  3  0  0  0  0  0  0
  161.8480  206.7930  148.8000 C   0  0  0  0  0  0  0  0  0  0  0  0
  161.1600  207.5070  151.4030 C   0  0  0  0  0  0  0  0  0  0  0  0
  161.2490  205.8390  149.6480 C   0  0  0  0  0  0  0  0  0  0  0  0
  161.3890  205.9600  153.9040 O   0  0  0  0  0  0  0  0  0  0  0  0
  160.8210  207.9180  152.7370 N   0  0  0  0  0  2  0  0  0  0  0  0
  160.9360  207.1360  153.9330 C   0  0  0  0  0  0  0  0  0  0  0  0
  160.5430  207.7350  155.2360 C   0  0  0  0  0  2  0  0  0  0  0  0
  161.5530  208.7900  155.6410 C   0  0  0  0  0  2  0  0  0  0  0  0
  160.9140  210.0930  155.6540 N   0  0  0  0  0  2  0  0  0  0  0  0
  161.3180  210.7370  154.5340 O   0  0  0  0  0  0  0  0  0  0  0  0
  160.3380  211.7060  154.3110 C   0  0  0  0  0  3  0  0  0  0  0  0
  158.9700  211.0530  154.3160 C   0  0  0  0  0  2  0  0  0  0  0  0
  160.2060  211.9620  152.8240 C   0  0  0  0  0  2  0  0  0  0  0  0
  158.8420  211.3050  152.8280 C   0  0  0  0  0  2  0  0  0  0  0  0
  163.4640  204.3160  145.3910 O   0  0  0  0  0  0  0  0  0  0  0  0
  162.3170  204.7710  145.6440 C   0  0  0  0  0  0  0  0  0  0  0  0
  161.3800  204.9250  144.5810 N   0  0  0  0  0  1  0  0  0  0  0  0
  2  8  1  0  0  0  0
  3  9  2  0  0  0  0
  4  1  2  0  0  0  0
  4 10  1  0  0  0  0
  5  3  1  0  0  0  0
  5  2  2  0  0  0  0
  6 10  2  0  0  0  0
  7  4  1  0  0  0  0
  8 11  2  0  0  0  0
  9  7  1  0  0  0  0
  9 11  1  0  0  0  0
 10 13  1  0  0  0  0
 11  6  1  0  0  0  0
 12 14  2  0  0  0  0
 13 14  1  0  0  0  0
 14 15  1  0  0  0  0
 15 16  1  0  0  0  0
 16 17  1  0  0  0  0
 18 17  1  0  0  0  0
 19 20  1  0  0  0  0
 19 18  1  0  0  0  0
 21 22  1  0  0  0  0
 21 19  1  0  0  0  0
 22 20  1  0  0  0  0
 23 24  2  0  0  0  0
 24  5  1  0  0  0  0
 25 24  1  0  0  0  0
M  END
>  <MODEL>
4

>  <REMARK>
 VINA RESULT:      -7.4      2.136      8.162
  Name = 
  7 active torsions:
  status: ('A' for Active; 'I' for Inactive)
    1  A    between atoms: C_1  and  C_17
    2  A    between atoms: C_1  and  C_20
    3  A    between atoms: C_2  and  O_18
    4  A    between atoms: N_6  and  O_18
    5  A    between atoms: N_6  and  C_20
    6  A    between atoms: C_11  and  C_21
    7  A    between atoms: N_15  and  C_23
                            x       y       z     vdW  Elec       q    Type
                         _______ _______ _______ _____ _____    ______ ____

>  <TORSDO>
F 7

$$$$
=
 OpenBabel11072415253D

 25 27  0  0  0  0  0  0  0  0999 V2000
  161.9700  209.3170  149.5130 O   0  0  0  0  0  0  0  0  0  0  0  0
  160.8880  203.3350  150.8630 C   0  0  0  0  0  3  0  0  0  0  0  0
  161.2260  204.7610  148.9320 C   0  0  0  0  0  3  0  0  0  0  0  0
  161.7530  208.1960  150.0430 C   0  0  0  0  0  0  0  0  0  0  0  0
  160.9830  203.4880  149.4710 C   0  0  0  0  0  0  0  0  0  0  0  0
  161.4210  206.8140  151.9960 C   0  0  0  0  0  3  0  0  0  0  0  0
  161.6060  207.0990  149.2520 N   0  0  0  0  0  2  0  0  0  0  0  0
  161.0320  204.4380  151.7110 C   0  0  0  0  0  3  0  0  0  0  0  0
  161.3720  205.8670  149.7730 C   0  0  0  0  0  0  0  0  0  0  0  0
  161.6640  208.0790  151.4410 C   0  0  0  0  0  0  0  0  0  0  0  0
  161.2740  205.7020  151.1700 C   0  0  0  0  0  0  0  0  0  0  0  0
  159.5610  209.8210  152.5560 O   0  0  0  0  0  0  0  0  0  0  0  0
  161.8200  209.2450  152.2630 N   0  0  0  0  0  2  0  0  0  0  0  0
  160.7740  210.0780  152.7820 C   0  0  0  0  0  0  0  0  0  0  0  0
  161.1270  211.2480  153.6300 C   0  0  0  0  0  2  0  0  0  0  0  0
  160.1040  211.4060  154.7370 C   0  0  0  0  0  2  0  0  0  0  0  0
  160.5070  210.6130  155.8840 N   0  0  0  0  0  2  0  0  0  0  0  0
  159.5220  209.7090  156.0990 O   0  0  0  0  0  0  0  0  0  0  0  0
  160.1720  208.6070  156.6570 C   0  0  0  0  0  3  0  0  0  0  0  0
  161.4420  208.3210  155.8820 C   0  0  0  0  0  2  0  0  0  0  0  0
  159.5600  207.3300  156.1170 C   0  0  0  0  0  2  0  0  0  0  0  0
  160.8270  207.0480  155.3380 C   0  0  0  0  0  2  0  0  0  0  0  0
  160.9470  202.4540  147.3350 O   0  0  0  0  0  0  0  0  0  0  0  0
  160.8300  202.3220  148.5820 C   0  0  0  0  0  0  0  0  0  0  0  0
  160.5460  201.0350  149.1230 N   0  0  0  0  0  1  0  0  0  0  0  0
  1  4  2  0  0  0  0
  2  8  1  0  0  0  0
  3  5  1  0  0  0  0
  3  9  2  0  0  0  0
  4 10  1  0  0  0  0
  5  2  2  0  0  0  0
  7  9  1  0  0  0  0
  7  4  1  0  0  0  0
  9 11  1  0  0  0  0
 10  6  2  0  0  0  0
 10 13  1  0  0  0  0
 11  8  2  0  0  0  0
 11  6  1  0  0  0  0
 12 14  2  0  0  0  0
 13 14  1  0  0  0  0
 14 15  1  0  0  0  0
 15 16  1  0  0  0  0
 16 17  1  0  0  0  0
 17 18  1  0  0  0  0
 18 19  1  0  0  0  0
 20 19  1  0  0  0  0
 21 19  1  0  0  0  0
 22 20  1  0  0  0  0
 22 21  1  0  0  0  0
 23 24  2  0  0  0  0
 24 25  1  0  0  0  0
 24  5  1  0  0  0  0
M  END
>  <MODEL>
5

>  <REMARK>
 VINA RESULT:      -7.4      1.905      7.569
  Name = 
  7 active torsions:
  status: ('A' for Active; 'I' for Inactive)
    1  A    between atoms: C_1  and  C_17
    2  A    between atoms: C_1  and  C_20
    3  A    between atoms: C_2  and  O_18
    4  A    between atoms: N_6  and  O_18
    5  A    between atoms: N_6  and  C_20
    6  A    between atoms: C_11  and  C_21
    7  A    between atoms: N_15  and  C_23
                            x       y       z     vdW  Elec       q    Type
                         _______ _______ _______ _____ _____    ______ ____

>  <TORSDO>
F 7

$$$$
=
 OpenBabel11072415253D

 25 27  0  0  0  0  0  0  0  0999 V2000
  161.5970  207.6080  149.1670 O   0  0  0  0  0  0  0  0  0  0  0  0
  160.6650  201.4520  149.0440 C   0  0  0  0  0  3  0  0  0  0  0  0
  161.2190  203.2670  147.5360 C   0  0  0  0  0  3  0  0  0  0  0  0
  161.3650  206.3940  149.4090 C   0  0  0  0  0  0  0  0  0  0  0  0
  160.9680  201.9020  147.7500 C   0  0  0  0  0  0  0  0  0  0  0  0
  160.8120  204.6180  150.9490 C   0  0  0  0  0  3  0  0  0  0  0  0
  161.4080  205.4890  148.3930 N   0  0  0  0  0  2  0  0  0  0  0  0
  160.6110  202.3500  150.1150 C   0  0  0  0  0  3  0  0  0  0  0  0
  161.1660  204.1690  148.6010 C   0  0  0  0  0  0  0  0  0  0  0  0
  161.0650  205.9770  150.7180 C   0  0  0  0  0  0  0  0  0  0  0  0
  160.8610  203.7060  149.8970 C   0  0  0  0  0  0  0  0  0  0  0  0
  161.4560  205.5330  153.6070 O   0  0  0  0  0  0  0  0  0  0  0  0
  161.0220  206.9430  151.7790 N   0  0  0  0  0  2  0  0  0  0  0  0
  161.2080  206.6910  153.1780 C   0  0  0  0  0  0  0  0  0  0  0  0
  161.1380  207.8260  154.1380 C   0  0  0  0  0  2  0  0  0  0  0  0
  160.5230  207.3590  155.4410 C   0  0  0  0  0  2  0  0  0  0  0  0
  159.7580  208.4420  156.0300 N   0  0  0  0  0  2  0  0  0  0  0  0
  160.6530  209.3510  156.4830 O   0  0  0  0  0  0  0  0  0  0  0  0
  159.9240  210.5360  156.5990 C   0  0  0  0  0  3  0  0  0  0  0  0
  159.1550  210.7850  155.3180 C   0  0  0  0  0  2  0  0  0  0  0  0
  160.8200  211.7160  156.2860 C   0  0  0  0  0  2  0  0  0  0  0  0
  160.0550  211.9620  155.0030 C   0  0  0  0  0  2  0  0  0  0  0  0
  161.5760  199.8280  146.7680 O   0  0  0  0  0  0  0  0  0  0  0  0
  161.0230  200.9520  146.6250 C   0  0  0  0  0  0  0  0  0  0  0  0
  160.4550  201.2920  145.3640 N   0  0  0  0  0  1  0  0  0  0  0  0
  1  4  2  0  0  0  0
  2  8  1  0  0  0  0
  3  5  1  0  0  0  0
  3  9  2  0  0  0  0
  4 10  1  0  0  0  0
  5  2  2  0  0  0  0
  7  9  1  0  0  0  0
  7  4  1  0  0  0  0
  9 11  1  0  0  0  0
 10  6  2  0  0  0  0
 10 13  1  0  0  0  0
 11  8  2  0  0  0  0
 11  6  1  0  0  0  0
 13 14  1  0  0  0  0
 14 12  2  0  0  0  0
 14 15  1  0  0  0  0
 15 16  1  0  0  0  0
 16 17  1  0  0  0  0
 17 18  1  0  0  0  0
 18 19  1  0  0  0  0
 20 19  1  0  0  0  0
 21 19  1  0  0  0  0
 22 20  1  0  0  0  0
 22 21  1  0  0  0  0
 24 23  2  0  0  0  0
 24  5  1  0  0  0  0
 25 24  1  0  0  0  0
M  END
>  <MODEL>
6

>  <REMARK>
 VINA RESULT:      -7.4      2.057      8.634
  Name = 
  7 active torsions:
  status: ('A' for Active; 'I' for Inactive)
    1  A    between atoms: C_1  and  C_17
    2  A    between atoms: C_1  and  C_20
    3  A    between atoms: C_2  and  O_18
    4  A    between atoms: N_6  and  O_18
    5  A    between atoms: N_6  and  C_20
    6  A    between atoms: C_11  and  C_21
    7  A    between atoms: N_15  and  C_23
                            x       y       z     vdW  Elec       q    Type
                         _______ _______ _______ _____ _____    ______ ____

>  <TORSDO>
F 7

$$$$
=
 OpenBabel11072415253D

 25 27  0  0  0  0  0  0  0  0999 V2000
  160.8360  204.5110  152.4930 O   0  0  0  0  0  0  0  0  0  0  0  0
  161.2150  203.4650  146.3660 C   0  0  0  0  0  3  0  0  0  0  0  0
  160.8370  202.2480  148.4280 C   0  0  0  0  0  3  0  0  0  0  0  0
  160.9570  204.5680  151.2420 C   0  0  0  0  0  0  0  0  0  0  0  0
  160.9630  202.2540  147.0300 C   0  0  0  0  0  0  0  0  0  0  0  0
  161.3380  205.8220  149.2130 C   0  0  0  0  0  3  0  0  0  0  0  0
  160.8410  203.4290  150.5060 N   0  0  0  0  0  2  0  0  0  0  0  0
  161.3420  204.6580  147.0860 C   0  0  0  0  0  3  0  0  0  0  0  0
  160.9620  203.4360  149.1530 C   0  0  0  0  0  0  0  0  0  0  0  0
  161.2090  205.7980  150.6080 C   0  0  0  0  0  0  0  0  0  0  0  0
  161.2160  204.6460  148.4760 C   0  0  0  0  0  0  0  0  0  0  0  0
  162.3310  208.4070  149.8130 O   0  0  0  0  0  0  0  0  0  0  0  0
  161.3300  206.9910  151.3980 N   0  0  0  0  0  2  0  0  0  0  0  0
  161.8910  208.2430  150.9820 C   0  0  0  0  0  0  0  0  0  0  0  0
  161.9230  209.3810  151.9400 C   0  0  0  0  0  2  0  0  0  0  0  0
  160.5490  209.5790  152.5470 C   0  0  0  0  0  2  0  0  0  0  0  0
  160.6870  210.1030  153.8940 N   0  0  0  0  0  2  0  0  0  0  0  0
  159.9300  209.3180  154.6970 O   0  0  0  0  0  0  0  0  0  0  0  0
  160.8470  208.4920  155.3490 C   0  0  0  0  0  3  0  0  0  0  0  0
  160.4450  207.0430  155.1630 C   0  0  0  0  0  2  0  0  0  0  0  0
  160.4900  208.3980  156.8180 C   0  0  0  0  0  2  0  0  0  0  0  0
  160.0830  206.9520  156.6300 C   0  0  0  0  0  2  0  0  0  0  0  0
  161.3880  199.9470  146.6740 O   0  0  0  0  0  0  0  0  0  0  0  0
  160.8310  201.0010  146.2670 C   0  0  0  0  0  0  0  0  0  0  0  0
  160.0730  200.9670  145.0600 N   0  0  0  0  0  1  0  0  0  0  0  0
  2  5  2  0  0  0  0
  2  8  1  0  0  0  0
  3  9  2  0  0  0  0
  4  1  2  0  0  0  0
  5  3  1  0  0  0  0
  6 10  2  0  0  0  0
  7  4  1  0  0  0  0
  8 11  2  0  0  0  0
  9  7  1  0  0  0  0
 10  4  1  0  0  0  0
 10 13  1  0  0  0  0
 11  9  1  0  0  0  0
 11  6  1  0  0  0  0
 12 14  2  0  0  0  0
 14 13  1  0  0  0  0
 14 15  1  0  0  0  0
 15 16  1  0  0  0  0
 16 17  1  0  0  0  0
 17 18  1  0  0  0  0
 18 19  1  0  0  0  0
 19 21  1  0  0  0  0
 20 19  1  0  0  0  0
 20 22  1  0  0  0  0
 22 21  1  0  0  0  0
 24 23  2  0  0  0  0
 24  5  1  0  0  0  0
 25 24  1  0  0  0  0
M  END
>  <MODEL>
7

>  <REMARK>
 VINA RESULT:      -7.3      2.140      8.051
  Name = 
  7 active torsions:
  status: ('A' for Active; 'I' for Inactive)
    1  A    between atoms: C_1  and  C_17
    2  A    between atoms: C_1  and  C_20
    3  A    between atoms: C_2  and  O_18
    4  A    between atoms: N_6  and  O_18
    5  A    between atoms: N_6  and  C_20
    6  A    between atoms: C_11  and  C_21
    7  A    between atoms: N_15  and  C_23
                            x       y       z     vdW  Elec       q    Type
                         _______ _______ _______ _____ _____    ______ ____

>  <TORSDO>
F 7

$$$$
=
 OpenBabel11072415253D

 25 27  0  0  0  0  0  0  0  0999 V2000
  161.5640  208.1330  149.2490 O   0  0  0  0  0  0  0  0  0  0  0  0
  160.7930  201.9690  149.6840 C   0  0  0  0  0  3  0  0  0  0  0  0
  161.2290  203.6620  148.0050 C   0  0  0  0  0  3  0  0  0  0  0  0
  161.3760  206.9390  149.6020 C   0  0  0  0  0  0  0  0  0  0  0  0
  161.0250  202.3150  148.3430 C   0  0  0  0  0  0  0  0  0  0  0  0
  160.9410  205.2870  151.3090 C   0  0  0  0  0  3  0  0  0  0  0  0
  161.3970  205.9530  148.6640 N   0  0  0  0  0  2  0  0  0  0  0  0
  160.7630  202.9530  150.6770 C   0  0  0  0  0  3  0  0  0  0  0  0
  161.2000  204.6500  148.9920 C   0  0  0  0  0  0  0  0  0  0  0  0
  161.1460  206.6270  150.9540 C   0  0  0  0  0  0  0  0  0  0  0  0
  160.9660  204.2910  150.3360 C   0  0  0  0  0  0  0  0  0  0  0  0
  160.9370  206.3880  153.8860 O   0  0  0  0  0  0  0  0  0  0  0  0
  161.1260  207.6780  151.9310 N   0  0  0  0  0  2  0  0  0  0  0  0
  161.0130  207.5280  153.3530 C   0  0  0  0  0  0  0  0  0  0  0  0
  161.0190  208.7390  154.2160 C   0  0  0  0  0  2  0  0  0  0  0  0
  161.4820  209.9380  153.4140 C   0  0  0  0  0  2  0  0  0  0  0  0
  161.0390  211.1560  154.0670 N   0  0  0  0  0  2  0  0  0  0  0  0
  160.2890  211.8320  153.1650 O   0  0  0  0  0  0  0  0  0  0  0  0
  159.3870  212.5680  153.9360 C   0  0  0  0  0  3  0  0  0  0  0  0
  158.7920  211.6770  155.0070 C   0  0  0  0  0  2  0  0  0  0  0  0
  158.0440  212.6170  153.2370 C   0  0  0  0  0  2  0  0  0  0  0  0
  157.4510  211.7220  154.3050 C   0  0  0  0  0  2  0  0  0  0  0  0
  161.4520  200.1110  147.5740 O   0  0  0  0  0  0  0  0  0  0  0  0
  161.0550  201.2750  147.3000 C   0  0  0  0  0  0  0  0  0  0  0  0
  160.6370  201.5730  145.9710 N   0  0  0  0  0  1  0  0  0  0  0  0
  1  4  2  0  0  0  0
  2  8  1  0  0  0  0
  3  5  1  0  0  0  0
  3  9  2  0  0  0  0
  4 10  1  0  0  0  0
  5  2  2  0  0  0  0
  7  9  1  0  0  0  0
  7  4  1  0  0  0  0
  9 11  1  0  0  0  0
 10  6  2  0  0  0  0
 10 13  1  0  0  0  0
 11  8  2  0  0  0  0
 11  6  1  0  0  0  0
 13 14  1  0  0  0  0
 14 12  2  0  0  0  0
 14 15  1  0  0  0  0
 16 17  1  0  0  0  0
 16 15  1  0  0  0  0
 18 19  1  0  0  0  0
 18 17  1  0  0  0  0
 19 20  1  0  0  0  0
 21 19  1  0  0  0  0
 21 22  1  0  0  0  0
 22 20  1  0  0  0  0
 24 23  2  0  0  0  0
 24  5  1  0  0  0  0
 25 24  1  0  0  0  0
M  END
>  <MODEL>
8

>  <REMARK>
 VINA RESULT:      -7.3      2.529      8.309
  Name = 
  7 active torsions:
  status: ('A' for Active; 'I' for Inactive)
    1  A    between atoms: C_1  and  C_17
    2  A    between atoms: C_1  and  C_20
    3  A    between atoms: C_2  and  O_18
    4  A    between atoms: N_6  and  O_18
    5  A    between atoms: N_6  and  C_20
    6  A    between atoms: C_11  and  C_21
    7  A    between atoms: N_15  and  C_23
                            x       y       z     vdW  Elec       q    Type
                         _______ _______ _______ _____ _____    ______ ____

>  <TORSDO>
F 7

$$$$
=
 OpenBabel11072415253D

 25 27  0  0  0  0  0  0  0  0999 V2000
  161.8150  207.6960  148.8150 O   0  0  0  0  0  0  0  0  0  0  0  0
  160.5510  201.6010  148.9930 C   0  0  0  0  0  3  0  0  0  0  0  0
  161.2470  203.2970  147.4080 C   0  0  0  0  0  3  0  0  0  0  0  0
  161.5100  206.5110  149.1150 C   0  0  0  0  0  0  0  0  0  0  0  0
  160.9160  201.9610  147.6870 C   0  0  0  0  0  0  0  0  0  0  0  0
  160.8150  204.8540  150.7280 C   0  0  0  0  0  3  0  0  0  0  0  0
  161.5320  205.5500  148.1500 N   0  0  0  0  0  2  0  0  0  0  0  0
  160.5140  202.5580  150.0110 C   0  0  0  0  0  3  0  0  0  0  0  0
  161.2130  204.2580  148.4210 C   0  0  0  0  0  0  0  0  0  0  0  0
  161.1480  206.1830  150.4330 C   0  0  0  0  0  0  0  0  0  0  0  0
  160.8440  203.8850  149.7290 C   0  0  0  0  0  0  0  0  0  0  0  0
  161.3540  205.8730  153.3590 O   0  0  0  0  0  0  0  0  0  0  0  0
  161.1280  207.2080  151.4390 N   0  0  0  0  0  2  0  0  0  0  0  0
  161.2200  207.0210  152.8580 C   0  0  0  0  0  0  0  0  0  0  0  0
  161.1920  208.2090  153.7520 C   0  0  0  0  0  2  0  0  0  0  0  0
  161.4050  209.4690  152.9380 C   0  0  0  0  0  2  0  0  0  0  0  0
  161.7450  210.5660  153.8250 N   0  0  0  0  0  2  0  0  0  0  0  0
  160.8310  210.5580  154.8240 O   0  0  0  0  0  0  0  0  0  0  0  0
  161.4920  211.1330  155.9110 C   0  0  0  0  0  3  0  0  0  0  0  0
  162.9460  210.7040  155.9040 C   0  0  0  0  0  2  0  0  0  0  0  0
  161.2560  210.2940  157.1500 C   0  0  0  0  0  2  0  0  0  0  0  0
  162.7070  209.8610  157.1390 C   0  0  0  0  0  2  0  0  0  0  0  0
  161.5360  199.8480  146.8020 O   0  0  0  0  0  0  0  0  0  0  0  0
  160.9520  200.9490  146.6170 C   0  0  0  0  0  0  0  0  0  0  0  0
  160.3290  201.2030  145.3610 N   0  0  0  0  0  1  0  0  0  0  0  0
  1  4  2  0  0  0  0
  2  8  1  0  0  0  0
  3  5  1  0  0  0  0
  3  9  2  0  0  0  0
  4 10  1  0  0  0  0
  5  2  2  0  0  0  0
  7  9  1  0  0  0  0
  7  4  1  0  0  0  0
  9 11  1  0  0  0  0
 10  6  2  0  0  0  0
 10 13  1  0  0  0  0
 11  8  2  0  0  0  0
 11  6  1  0  0  0  0
 13 14  1  0  0  0  0
 14 12  2  0  0  0  0
 14 15  1  0  0  0  0
 16 15  1  0  0  0  0
 16 17  1  0  0  0  0
 17 18  1  0  0  0  0
 18 19  1  0  0  0  0
 19 21  1  0  0  0  0
 20 19  1  0  0  0  0
 20 22  1  0  0  0  0
 22 21  1  0  0  0  0
 24 23  2  0  0  0  0
 24  5  1  0  0  0  0
 25 24  1  0  0  0  0
M  END
>  <MODEL>
9

>  <REMARK>
 VINA RESULT:      -7.3      2.096      8.427
  Name = 
  7 active torsions:
  status: ('A' for Active; 'I' for Inactive)
    1  A    between atoms: C_1  and  C_17
    2  A    between atoms: C_1  and  C_20
    3  A    between atoms: C_2  and  O_18
    4  A    between atoms: N_6  and  O_18
    5  A    between atoms: N_6  and  C_20
    6  A    between atoms: C_11  and  C_21
    7  A    between atoms: N_15  and  C_23
                            x       y       z     vdW  Elec       q    Type
                         _______ _______ _______ _____ _____    ______ ____

>  <TORSDO>
F 7

$$$$
