=
 OpenBabel11072410063D

 69 73  0  0  1  0  0  0  0  0999 V2000
  160.8750  208.0200  154.7970 C   0  0  1  0  0  3  0  0  0  0  0  0
  161.8950  209.3720  156.3450 C   0  0  0  0  0  0  0  0  0  0  0  0
  158.5550  208.8290  155.2800 C   0  0  0  0  0  1  0  0  0  0  0  0
  162.7840  209.7680  157.1430 O   0  0  0  0  0  0  0  0  0  0  0  0
  162.0620  208.2810  155.5220 O   0  0  0  0  0  0  0  0  0  0  0  0
  160.5570  209.9880  156.2170 C   0  0  2  0  0  3  0  0  0  0  0  0
  159.9830  209.2530  155.0090 C   0  0  1  0  0  3  0  0  0  0  0  0
  161.1890  207.7480  153.3270 C   0  0  2  0  0  3  0  0  0  0  0  0
  160.1410  208.1670  152.5010 O   0  0  0  0  0  1  0  0  0  0  0  0
  161.4810  206.2760  153.0960 C   0  0  0  0  0  2  0  0  0  0  0  0
  160.8110  202.7760  149.2500 C   0  0  0  0  0  0  0  0  0  0  0  0
  160.1770  204.4890  152.2300 C   0  0  0  0  0  2  0  0  0  0  0  0
  160.1880  202.1980  148.1490 O   0  0  0  0  0  1  0  0  0  0  0  0
  160.9220  204.0700  149.3240 C   0  0  0  0  0  0  0  0  0  0  0  0
  161.7090  205.7840  150.8060 C   0  0  0  0  0  2  0  0  0  0  0  0
  160.6300  202.1770  151.6250 N   0  0  0  0  0  2  0  0  0  0  0  0
  161.1990  203.3490  152.2780 C   0  0  0  0  0  2  0  0  0  0  0  0
  160.7580  205.8100  151.9250 N   0  0  0  0  0  0  0  0  0  0  0  0
  161.3580  201.9370  150.3790 C   0  0  1  0  0  3  0  0  0  0  0  0
  161.0680  205.3490  149.5230 C   0  0  0  0  0  0  0  0  0  0  0  0
  160.5160  207.5660  148.8630 O   0  0  0  0  0  1  0  0  0  0  0  0
  160.8760  206.3020  148.3930 C   0  0  1  0  0  3  0  0  0  0  0  0
  162.0940  206.3840  147.5160 C   0  0  0  0  0  0  0  0  0  0  0  0
  162.8940  207.2960  147.6790 O   0  0  0  0  0  0  0  0  0  0  0  0
  163.0870  205.9010  145.2730 C   0  0  0  0  0  3  0  0  0  0  0  0
  161.1740  204.6390  146.0950 O   0  0  0  0  0  0  0  0  0  0  0  0
  163.2960  204.2870  147.0970 C   0  0  0  0  0  1  0  0  0  0  0  0
  162.4790  206.0920  144.1530 N   0  0  0  0  0  0  0  0  0  0  0  0
  162.3670  205.3120  146.4760 C   0  0  2  0  0  0  0  0  0  0  0  0
  160.3960  205.4880  145.2770 C   0  0  1  0  0  3  0  0  0  0  0  0
  161.1040  205.6930  143.9420 C   0  0  0  0  0  2  0  0  0  0  0  0
  159.0170  204.8810  145.0760 C   0  0  0  0  0  2  0  0  0  0  0  0
  158.0970  202.8550  144.2160 O   0  0  0  0  0  0  0  0  0  0  0  0
  160.3900  202.8210  144.5760 N   0  0  0  0  0  1  0  0  0  0  0  0
  159.1270  203.4740  144.5890 C   0  0  0  0  0  0  0  0  0  0  0  0
  162.1930  200.1870  148.9540 O   0  0  0  0  0  1  0  0  0  0  0  0
  161.3700  200.4470  150.0540 C   0  0  0  0  0  2  0  0  0  0  0  0
  160.6590  211.4750  155.9130 C   0  0  0  0  0  2  0  0  0  0  0  0
  159.5130  211.9130  155.0120 C   0  0  1  0  0  3  0  0  0  0  0  0
  158.3450  212.3770  155.8880 C   0  0  1  0  0  3  0  0  0  0  0  0
  158.3800  213.7530  156.1370 O   0  0  0  0  0  1  0  0  0  0  0  0
  156.3990  212.8540  154.3200 C   0  0  0  0  0  1  0  0  0  0  0  0
  156.9840  211.9140  155.3650 C   0  0  2  0  0  3  0  0  0  0  0  0
  155.0460  212.7240  156.7930 N   0  0  0  0  0  1  0  0  0  0  0  0
  156.1040  210.6990  157.2170 O   0  0  0  0  0  0  0  0  0  0  0  0
  156.0240  211.7270  156.4970 C   0  0  0  0  0  0  0  0  0  0  0  0
  159.9970  212.9860  154.0320 C   0  0  0  0  0  2  0  0  0  0  0  0
  158.8730  213.4880  153.1370 C   0  0  0  0  0  2  0  0  0  0  0  0
  159.1160  213.1320  151.7480 N   0  0  0  0  0  0  0  0  0  0  0  0
  157.9820  213.6620  151.0100 C   0  0  0  0  0  2  0  0  0  0  0  0
  158.4260  214.1980  149.6500 C   0  0  0  0  0  2  0  0  0  0  0  0
  155.9580  214.2280  149.0160 C   0  0  0  0  0  3  0  0  0  0  0  0
  156.6410  214.3630  146.3100 C   0  0  0  0  0  0  0  0  0  0  0  0
  157.6460  214.3180  147.2820 C   0  0  0  0  0  3  0  0  0  0  0  0
  155.2960  214.3410  146.6910 C   0  0  0  0  0  3  0  0  0  0  0  0
  157.0020  214.4310  144.8710 C   0  0  0  0  0  1  0  0  0  0  0  0
  154.9560  214.2720  148.0440 C   0  0  0  0  0  3  0  0  0  0  0  0
  157.3140  214.2530  148.6410 C   0  0  0  0  0  0  0  0  0  0  0  0
  160.2920  213.8860  151.3310 C   0  0  0  0  0  2  0  0  0  0  0  0
  161.3070  212.9530  150.6870 C   0  0  0  0  0  2  0  0  0  0  0  0
  160.8050  211.5190  150.6930 C   0  0  0  0  0  2  0  0  0  0  0  0
  161.6860  210.6250  149.8290 C   0  0  1  0  0  0  0  0  0  0  0  0
  163.0030  210.5480  150.3090 O   0  0  0  0  0  0  0  0  0  0  0  0
  162.2080  209.3890  150.4400 C   0  0  0  0  0  2  0  0  0  0  0  0
  161.6270  210.6840  148.3080 C   0  0  0  0  0  2  0  0  0  0  0  0
  161.0410  212.0110  147.8470 C   0  0  0  0  0  2  0  0  0  0  0  0
  161.5590  213.2440  145.8690 F   0  0  0  0  0  0  0  0  0  0  0  0
  162.0680  212.8410  147.0910 C   0  0  0  0  0  3  0  0  0  0  0  0
  162.4490  213.9420  147.8350 F   0  0  0  0  0  0  0  0  0  0  0  0
  1  8  1  6  0  0  0
  1  7  1  0  0  0  0
  1  5  1  0  0  0  0
  2  4  2  0  0  0  0
  5  2  1  0  0  0  0
  6 38  1  6  0  0  0
  6  2  1  0  0  0  0
  7  3  1  1  0  0  0
  7  6  1  0  0  0  0
  8  9  1  6  0  0  0
 10  8  1  0  0  0  0
 11 14  2  0  0  0  0
 11 19  1  0  0  0  0
 12 17  1  0  0  0  0
 13 11  1  0  0  0  0
 14 20  2  0  0  0  0
 15 18  1  0  0  0  0
 16 17  1  0  0  0  0
 18 12  1  0  0  0  0
 18 10  1  0  0  0  0
 19 37  1  6  0  0  0
 19 16  1  0  0  0  0
 20 15  1  0  0  0  0
 22 21  1  1  0  0  0
 22 20  1  0  0  0  0
 23 24  2  0  0  0  0
 23 22  1  0  0  0  0
 25 29  1  0  0  0  0
 26 29  1  0  0  0  0
 28 25  2  0  0  0  0
 29 27  1  1  0  0  0
 29 23  1  0  0  0  0
 30 32  1  6  0  0  0
 30 26  1  0  0  0  0
 31 28  1  0  0  0  0
 31 30  1  0  0  0  0
 33 35  2  0  0  0  0
 34 35  1  0  0  0  0
 35 32  1  0  0  0  0
 36 37  1  0  0  0  0
 39 47  1  6  0  0  0
 39 40  1  0  0  0  0
 39 38  1  0  0  0  0
 40 41  1  6  0  0  0
 43 42  1  6  0  0  0
 43 40  1  0  0  0  0
 43 46  1  0  0  0  0
 46 44  1  0  0  0  0
 46 45  2  0  0  0  0
 48 47  1  0  0  0  0
 49 48  1  0  0  0  0
 50 49  1  0  0  0  0
 51 50  1  0  0  0  0
 53 55  2  0  0  0  0
 53 54  1  0  0  0  0
 54 58  2  0  0  0  0
 55 57  1  0  0  0  0
 56 53  1  0  0  0  0
 57 52  2  0  0  0  0
 58 52  1  0  0  0  0
 58 51  1  0  0  0  0
 59 49  1  0  0  0  0
 60 61  1  0  0  0  0
 60 59  1  0  0  0  0
 62 65  1  6  0  0  0
 62 63  1  0  0  0  0
 62 64  1  0  0  0  0
 62 61  1  0  0  0  0
 63 64  1  0  0  0  0
 66 65  1  0  0  0  0
 67 68  1  0  0  0  0
 68 69  1  0  0  0  0
 68 66  1  0  0  0  0
M  END
>  <MODEL>
1

>  <REMARK>
 VINA RESULT:       0.7      0.000      0.000
  Name = 
  27 active torsions:
  status: ('A' for Active; 'I' for Inactive)
    1  A    between atoms: C_1  and  N_15
    2  A    between atoms: C_1  and  C_54
    3  A    between atoms: C_2  and  C_6
    4  A    between atoms: C_2  and  C_54
    5  A    between atoms: C_6  and  C_27
    6  A    between atoms: C_10  and  C_61
    7  A    between atoms: C_10  and  C_69
    8  A    between atoms: N_15  and  C_61
    9  A    between atoms: N_15  and  C_66
   10  A    between atoms: C_18  and  C_36
   11  A    between atoms: C_23  and  C_42
   12  A    between atoms: C_23  and  C_46
   13  A    between atoms: C_25  and  C_30
   14  A    between atoms: C_25  and  C_67
   15  A    between atoms: C_26  and  C_39
   16  A    between atoms: C_26  and  C_51
   17  A    between atoms: C_27  and  C_36
   18  A    between atoms: C_29  and  C_43
   19  A    between atoms: C_35  and  C_51
   20  A    between atoms: C_35  and  C_66
   21  A    between atoms: C_39  and  C_53
   22  A    between atoms: C_42  and  C_60
   23  A    between atoms: C_43  and  C_50
   24  A    between atoms: C_45  and  C_55
   25  A    between atoms: C_51  and  C_68
   26  A    between atoms: N_52  and  C_67
   27  A    between atoms: C_64  and  C_68
                            x       y       z     vdW  Elec       q    Type
                         _______ _______ _______ _____ _____    ______ ____

>  <TORSDO>
F 27

$$$$
=
 OpenBabel11072410063D

 69 73  0  0  1  0  0  0  0  0999 V2000
  161.6700  212.2470  144.7020 C   0  0  1  0  0  3  0  0  0  0  0  0
  162.5850  212.8420  146.7210 C   0  0  0  0  0  0  0  0  0  0  0  0
  159.4760  211.5070  145.6550 C   0  0  0  0  0  1  0  0  0  0  0  0
  163.4820  213.1000  147.5650 O   0  0  0  0  0  0  0  0  0  0  0  0
  162.8570  212.5840  145.3960 O   0  0  0  0  0  0  0  0  0  0  0  0
  161.1450  212.7400  147.0420 C   0  0  2  0  0  3  0  0  0  0  0  0
  160.5200  212.6040  145.6560 C   0  0  1  0  0  3  0  0  0  0  0  0
  161.5970  212.9840  143.3670 C   0  0  2  0  0  3  0  0  0  0  0  0
  162.7620  213.7220  143.1350 O   0  0  0  0  0  1  0  0  0  0  0  0
  160.3820  213.8930  143.3130 C   0  0  0  0  0  2  0  0  0  0  0  0
  157.8090  212.7520  138.8890 C   0  0  0  0  0  0  0  0  0  0  0  0
  158.6070  214.4520  141.8360 C   0  0  0  0  0  2  0  0  0  0  0  0
  157.3820  212.9440  137.5790 O   0  0  0  0  0  1  0  0  0  0  0  0
  159.0430  213.0080  139.2100 C   0  0  0  0  0  0  0  0  0  0  0  0
  160.4950  213.0500  141.1190 C   0  0  0  0  0  2  0  0  0  0  0  0
  156.6510  213.2800  140.9890 N   0  0  0  0  0  2  0  0  0  0  0  0
  157.7340  213.2000  141.9610 C   0  0  0  0  0  2  0  0  0  0  0  0
  160.0560  214.1930  141.9290 N   0  0  0  0  0  0  0  0  0  0  0  0
  156.8690  212.2610  139.9630 C   0  0  1  0  0  3  0  0  0  0  0  0
  160.2420  213.2560  139.6560 C   0  0  0  0  0  0  0  0  0  0  0  0
  162.4430  214.0880  139.3090 O   0  0  0  0  0  1  0  0  0  0  0  0
  161.3670  213.4440  138.6960 C   0  0  1  0  0  3  0  0  0  0  0  0
  161.8010  212.1440  138.0810 C   0  0  0  0  0  0  0  0  0  0  0  0
  162.9660  212.0010  137.7300 O   0  0  0  0  0  0  0  0  0  0  0  0
  160.1850  210.6680  139.2900 C   0  0  0  0  0  3  0  0  0  0  0  0
  161.4390  209.8460  137.3720 O   0  0  0  0  0  0  0  0  0  0  0  0
  159.7080  211.4310  137.0170 C   0  0  0  0  0  1  0  0  0  0  0  0
  160.5200  209.6180  139.9580 N   0  0  0  0  0  0  0  0  0  0  0  0
  160.8220  210.9900  137.9480 C   0  0  2  0  0  0  0  0  0  0  0  0
  162.2950  209.2460  138.3210 C   0  0  1  0  0  3  0  0  0  0  0  0
  161.4600  208.6430  139.4460 C   0  0  0  0  0  2  0  0  0  0  0  0
  163.1450  208.1830  137.6430 C   0  0  0  0  0  2  0  0  0  0  0  0
  161.2010  206.9530  137.0120 O   0  0  0  0  0  0  0  0  0  0  0  0
  162.9430  205.6750  137.8630 N   0  0  0  0  0  1  0  0  0  0  0  0
  162.3710  206.9180  137.4740 C   0  0  0  0  0  0  0  0  0  0  0  0
  154.4760  212.2050  140.2130 O   0  0  0  0  0  1  0  0  0  0  0  0
  155.5340  211.7810  139.4030 C   0  0  0  0  0  2  0  0  0  0  0  0
  160.6360  214.0060  147.7130 C   0  0  0  0  0  2  0  0  0  0  0  0
  160.0610  213.6870  149.0850 C   0  0  1  0  0  3  0  0  0  0  0  0
  158.5640  214.0080  149.0810 C   0  0  1  0  0  3  0  0  0  0  0  0
  158.0030  213.9230  147.8010 O   0  0  0  0  0  1  0  0  0  0  0  0
  156.2900  213.5340  150.1210 C   0  0  0  0  0  1  0  0  0  0  0  0
  157.7760  213.2030  150.1150 C   0  0  2  0  0  3  0  0  0  0  0  0
  158.1340  212.4240  152.5060 N   0  0  0  0  0  1  0  0  0  0  0  0
  159.0210  214.4290  151.7370 O   0  0  0  0  0  0  0  0  0  0  0  0
  158.3580  213.3910  151.4800 C   0  0  0  0  0  0  0  0  0  0  0  0
  160.3660  212.2320  149.4550 C   0  0  0  0  0  2  0  0  0  0  0  0
  161.8410  211.8980  149.2860 C   0  0  0  0  0  2  0  0  0  0  0  0
  162.1340  210.5660  149.7900 N   0  0  0  0  0  0  0  0  0  0  0  0
  161.1990  210.3530  150.8820 C   0  0  0  0  0  2  0  0  0  0  0  0
  161.7440  210.9430  152.1820 C   0  0  0  0  0  2  0  0  0  0  0  0
  161.1180  208.7770  153.3690 C   0  0  0  0  0  3  0  0  0  0  0  0
  160.7820  210.1720  155.7660 C   0  0  0  0  0  0  0  0  0  0  0  0
  161.1660  210.8570  154.6080 C   0  0  0  0  0  3  0  0  0  0  0  0
  160.5660  208.7920  155.7250 C   0  0  0  0  0  3  0  0  0  0  0  0
  160.6000  210.9120  157.0410 C   0  0  0  0  0  1  0  0  0  0  0  0
  160.7340  208.0950  154.5260 C   0  0  0  0  0  3  0  0  0  0  0  0
  161.3390  210.1660  153.4020 C   0  0  0  0  0  0  0  0  0  0  0  0
  161.7740  209.6360  148.7270 C   0  0  0  0  0  2  0  0  0  0  0  0
  162.5850  208.3550  148.8590 C   0  0  0  0  0  2  0  0  0  0  0  0
  161.8260  207.3140  149.6630 C   0  0  0  0  0  2  0  0  0  0  0  0
  161.3300  206.1840  148.7680 C   0  0  1  0  0  0  0  0  0  0  0  0
  160.4390  206.6350  147.7820 O   0  0  0  0  0  0  0  0  0  0  0  0
  161.7170  206.2220  147.3450 C   0  0  0  0  0  2  0  0  0  0  0  0
  160.9190  204.8360  149.3460 C   0  0  0  0  0  2  0  0  0  0  0  0
  160.3460  205.0080  150.7460 C   0  0  0  0  0  2  0  0  0  0  0  0
  161.9230  205.6220  152.4310 F   0  0  0  0  0  0  0  0  0  0  0  0
  161.3270  204.5380  151.8100 C   0  0  0  0  0  3  0  0  0  0  0  0
  160.6890  203.7440  152.7460 F   0  0  0  0  0  0  0  0  0  0  0  0
  1  8  1  6  0  0  0
  1  5  1  0  0  0  0
  1  7  1  0  0  0  0
  2  6  1  0  0  0  0
  2  4  2  0  0  0  0
  5  2  1  0  0  0  0
  6 38  1  6  0  0  0
  7  3  1  1  0  0  0
  7  6  1  0  0  0  0
  8  9  1  1  0  0  0
 10  8  1  0  0  0  0
 11 14  2  0  0  0  0
 11 19  1  0  0  0  0
 12 18  1  0  0  0  0
 12 17  1  0  0  0  0
 13 11  1  0  0  0  0
 14 20  2  0  0  0  0
 15 18  1  0  0  0  0
 16 17  1  0  0  0  0
 18 10  1  0  0  0  0
 19 37  1  6  0  0  0
 19 16  1  0  0  0  0
 20 15  1  0  0  0  0
 22 21  1  1  0  0  0
 22 20  1  0  0  0  0
 23 22  1  0  0  0  0
 24 23  2  0  0  0  0
 25 28  2  0  0  0  0
 26 29  1  0  0  0  0
 26 30  1  0  0  0  0
 29 27  1  6  0  0  0
 29 23  1  0  0  0  0
 29 25  1  0  0  0  0
 30 32  1  6  0  0  0
 30 31  1  0  0  0  0
 31 28  1  0  0  0  0
 33 35  2  0  0  0  0
 35 32  1  0  0  0  0
 35 34  1  0  0  0  0
 37 36  1  0  0  0  0
 39 38  1  6  0  0  0
 39 47  1  0  0  0  0
 40 41  1  6  0  0  0
 40 39  1  0  0  0  0
 40 43  1  0  0  0  0
 43 42  1  1  0  0  0
 43 46  1  0  0  0  0
 46 45  2  0  0  0  0
 46 44  1  0  0  0  0
 48 47  1  0  0  0  0
 48 49  1  0  0  0  0
 49 50  1  0  0  0  0
 50 51  1  0  0  0  0
 51 58  1  0  0  0  0
 52 58  2  0  0  0  0
 52 57  1  0  0  0  0
 53 56  1  0  0  0  0
 54 53  2  0  0  0  0
 55 53  1  0  0  0  0
 57 55  2  0  0  0  0
 58 54  1  0  0  0  0
 59 60  1  0  0  0  0
 59 49  1  0  0  0  0
 60 61  1  0  0  0  0
 62 65  1  1  0  0  0
 62 61  1  0  0  0  0
 63 62  1  0  0  0  0
 64 63  1  0  0  0  0
 64 62  1  0  0  0  0
 65 66  1  0  0  0  0
 66 68  1  0  0  0  0
 68 67  1  0  0  0  0
 68 69  1  0  0  0  0
M  END
>  <MODEL>
2

>  <REMARK>
 VINA RESULT:       0.8      5.594     10.041
  Name = 
  27 active torsions:
  status: ('A' for Active; 'I' for Inactive)
    1  A    between atoms: C_1  and  N_15
    2  A    between atoms: C_1  and  C_54
    3  A    between atoms: C_2  and  C_6
    4  A    between atoms: C_2  and  C_54
    5  A    between atoms: C_6  and  C_27
    6  A    between atoms: C_10  and  C_61
    7  A    between atoms: C_10  and  C_69
    8  A    between atoms: N_15  and  C_61
    9  A    between atoms: N_15  and  C_66
   10  A    between atoms: C_18  and  C_36
   11  A    between atoms: C_23  and  C_42
   12  A    between atoms: C_23  and  C_46
   13  A    between atoms: C_25  and  C_30
   14  A    between atoms: C_25  and  C_67
   15  A    between atoms: C_26  and  C_39
   16  A    between atoms: C_26  and  C_51
   17  A    between atoms: C_27  and  C_36
   18  A    between atoms: C_29  and  C_43
   19  A    between atoms: C_35  and  C_51
   20  A    between atoms: C_35  and  C_66
   21  A    between atoms: C_39  and  C_53
   22  A    between atoms: C_42  and  C_60
   23  A    between atoms: C_43  and  C_50
   24  A    between atoms: C_45  and  C_55
   25  A    between atoms: C_51  and  C_68
   26  A    between atoms: N_52  and  C_67
   27  A    between atoms: C_64  and  C_68
                            x       y       z     vdW  Elec       q    Type
                         _______ _______ _______ _____ _____    ______ ____

>  <TORSDO>
F 27

$$$$
=
 OpenBabel11072410063D

 69 73  0  0  1  0  0  0  0  0999 V2000
  160.7980  207.9660  154.2330 C   0  0  1  0  0  3  0  0  0  0  0  0
  161.9470  209.2840  155.7190 C   0  0  0  0  0  0  0  0  0  0  0  0
  158.5270  208.5980  155.0760 C   0  0  0  0  0  1  0  0  0  0  0  0
  162.9150  209.6860  156.4170 O   0  0  0  0  0  0  0  0  0  0  0  0
  162.0580  208.2570  154.8090 O   0  0  0  0  0  0  0  0  0  0  0  0
  160.5730  209.8220  155.8130 C   0  0  2  0  0  3  0  0  0  0  0  0
  159.8790  209.1250  154.6460 C   0  0  1  0  0  3  0  0  0  0  0  0
  160.9210  207.8030  152.7200 C   0  0  2  0  0  3  0  0  0  0  0  0
  159.6890  207.9990  152.0890 O   0  0  0  0  0  1  0  0  0  0  0  0
  161.4800  206.4370  152.3630 C   0  0  0  0  0  2  0  0  0  0  0  0
  160.6580  202.5780  148.9100 C   0  0  0  0  0  0  0  0  0  0  0  0
  160.1350  204.5860  151.7220 C   0  0  0  0  0  2  0  0  0  0  0  0
  159.9950  201.9000  147.8930 O   0  0  0  0  0  1  0  0  0  0  0  0
  160.7810  203.8720  148.8500 C   0  0  0  0  0  0  0  0  0  0  0  0
  161.6290  205.7160  150.1280 C   0  0  0  0  0  2  0  0  0  0  0  0
  160.5500  202.2210  151.3370 N   0  0  0  0  0  2  0  0  0  0  0  0
  161.1490  203.4460  151.8510 C   0  0  0  0  0  2  0  0  0  0  0  0
  160.7150  205.8640  151.2680 N   0  0  0  0  0  0  0  0  0  0  0  0
  161.2360  201.8500  150.0990 C   0  0  1  0  0  3  0  0  0  0  0  0
  160.9430  205.1620  148.9160 C   0  0  0  0  0  0  0  0  0  0  0  0
  160.0710  207.1910  148.0320 O   0  0  0  0  0  1  0  0  0  0  0  0
  160.7210  206.0000  147.7030 C   0  0  1  0  0  3  0  0  0  0  0  0
  162.0040  206.2760  146.9700 C   0  0  0  0  0  0  0  0  0  0  0  0
  162.6480  207.2830  147.2400 O   0  0  0  0  0  0  0  0  0  0  0  0
  162.9010  205.9970  144.6530 C   0  0  0  0  0  3  0  0  0  0  0  0
  161.6150  204.2280  145.7210 O   0  0  0  0  0  0  0  0  0  0  0  0
  163.8090  204.6820  146.5030 C   0  0  0  0  0  1  0  0  0  0  0  0
  162.1680  205.8930  143.5990 N   0  0  0  0  0  0  0  0  0  0  0  0
  162.5340  205.2880  145.9470 C   0  0  2  0  0  0  0  0  0  0  0  0
  160.5250  204.7040  144.9610 C   0  0  1  0  0  3  0  0  0  0  0  0
  160.9990  205.0400  143.5500 C   0  0  0  0  0  2  0  0  0  0  0  0
  159.4250  203.6560  144.9310 C   0  0  0  0  0  2  0  0  0  0  0  0
  161.2480  202.1390  144.6770 O   0  0  0  0  0  0  0  0  0  0  0  0
  159.1500  201.1490  144.7870 N   0  0  0  0  0  1  0  0  0  0  0  0
  160.0050  202.2860  144.8010 C   0  0  0  0  0  0  0  0  0  0  0  0
  161.0160  199.9920  148.5850 O   0  0  0  0  0  1  0  0  0  0  0  0
  161.2260  200.3350  149.9240 C   0  0  0  0  0  2  0  0  0  0  0  0
  160.5520  211.3270  155.6000 C   0  0  0  0  0  2  0  0  0  0  0  0
  159.3420  211.7290  154.7700 C   0  0  1  0  0  3  0  0  0  0  0  0
  158.1970  212.1070  155.7150 C   0  0  1  0  0  3  0  0  0  0  0  0
  158.4530  213.2900  156.4170 O   0  0  0  0  0  1  0  0  0  0  0  0
  156.1700  213.4950  155.0520 C   0  0  0  0  0  1  0  0  0  0  0  0
  156.8320  212.1250  155.0250 C   0  0  2  0  0  3  0  0  0  0  0  0
  155.2670  210.1380  154.7980 N   0  0  0  0  0  1  0  0  0  0  0  0
  155.7200  211.0960  156.8650 O   0  0  0  0  0  0  0  0  0  0  0  0
  155.9280  211.0950  155.6250 C   0  0  0  0  0  0  0  0  0  0  0  0
  159.7210  212.8540  153.8010 C   0  0  0  0  0  2  0  0  0  0  0  0
  158.5570  213.2450  152.9000 C   0  0  0  0  0  2  0  0  0  0  0  0
  158.9280  213.1390  151.4970 N   0  0  0  0  0  0  0  0  0  0  0  0
  157.7600  213.5840  150.7560 C   0  0  0  0  0  2  0  0  0  0  0  0
  158.1720  214.2040  149.4220 C   0  0  0  0  0  2  0  0  0  0  0  0
  157.2920  214.2540  147.0310 C   0  0  0  0  0  3  0  0  0  0  0  0
  154.6670  214.3500  147.9840 C   0  0  0  0  0  0  0  0  0  0  0  0
  155.7360  214.2990  148.8860 C   0  0  0  0  0  3  0  0  0  0  0  0
  154.9120  214.3520  146.6080 C   0  0  0  0  0  3  0  0  0  0  0  0
  153.2720  214.4050  148.4880 C   0  0  0  0  0  1  0  0  0  0  0  0
  156.2250  214.3050  146.1320 C   0  0  0  0  0  3  0  0  0  0  0  0
  157.0550  214.2490  148.4170 C   0  0  0  0  0  0  0  0  0  0  0  0
  159.9800  214.1220  151.2750 C   0  0  0  0  0  2  0  0  0  0  0  0
  160.9940  213.5820  150.2760 C   0  0  0  0  0  2  0  0  0  0  0  0
  160.3220  213.2280  148.9610 C   0  0  0  0  0  2  0  0  0  0  0  0
  161.3480  213.0640  147.8460 C   0  0  1  0  0  0  0  0  0  0  0  0
  162.6620  212.9950  148.3360 O   0  0  0  0  0  0  0  0  0  0  0  0
  162.1160  211.8050  147.8090 C   0  0  0  0  0  2  0  0  0  0  0  0
  161.2530  213.8650  146.5550 C   0  0  0  0  0  2  0  0  0  0  0  0
  160.0020  213.4830  145.7790 C   0  0  0  0  0  2  0  0  0  0  0  0
  160.5910  212.1520  143.8850 F   0  0  0  0  0  0  0  0  0  0  0  0
  160.2660  213.4380  144.2810 C   0  0  0  0  0  3  0  0  0  0  0  0
  159.1660  213.8900  143.5770 F   0  0  0  0  0  0  0  0  0  0  0  0
  1  8  1  6  0  0  0
  1  7  1  0  0  0  0
  1  5  1  0  0  0  0
  2  6  1  0  0  0  0
  2  4  2  0  0  0  0
  5  2  1  0  0  0  0
  6 38  1  6  0  0  0
  7  3  1  1  0  0  0
  7  6  1  0  0  0  0
  8  9  1  6  0  0  0
 10  8  1  0  0  0  0
 11 19  1  0  0  0  0
 12 17  1  0  0  0  0
 13 11  1  0  0  0  0
 14 11  2  0  0  0  0
 14 20  2  0  0  0  0
 15 18  1  0  0  0  0
 16 17  1  0  0  0  0
 18 12  1  0  0  0  0
 18 10  1  0  0  0  0
 19 37  1  6  0  0  0
 19 16  1  0  0  0  0
 20 15  1  0  0  0  0
 22 21  1  1  0  0  0
 22 20  1  0  0  0  0
 23 24  2  0  0  0  0
 23 22  1  0  0  0  0
 25 29  1  0  0  0  0
 26 29  1  0  0  0  0
 28 25  2  0  0  0  0
 29 27  1  1  0  0  0
 29 23  1  0  0  0  0
 30 32  1  6  0  0  0
 30 26  1  0  0  0  0
 31 28  1  0  0  0  0
 31 30  1  0  0  0  0
 33 35  2  0  0  0  0
 34 35  1  0  0  0  0
 35 32  1  0  0  0  0
 36 37  1  0  0  0  0
 39 47  1  1  0  0  0
 39 38  1  0  0  0  0
 39 40  1  0  0  0  0
 40 41  1  6  0  0  0
 43 42  1  1  0  0  0
 43 46  1  0  0  0  0
 43 40  1  0  0  0  0
 44 46  1  0  0  0  0
 46 45  2  0  0  0  0
 48 47  1  0  0  0  0
 49 48  1  0  0  0  0
 50 49  1  0  0  0  0
 51 50  1  0  0  0  0
 52 58  1  0  0  0  0
 53 56  1  0  0  0  0
 53 54  1  0  0  0  0
 55 53  2  0  0  0  0
 57 55  1  0  0  0  0
 57 52  2  0  0  0  0
 58 54  2  0  0  0  0
 58 51  1  0  0  0  0
 59 49  1  0  0  0  0
 60 59  1  0  0  0  0
 61 60  1  0  0  0  0
 62 65  1  6  0  0  0
 62 63  1  0  0  0  0
 62 61  1  0  0  0  0
 64 62  1  0  0  0  0
 64 63  1  0  0  0  0
 66 65  1  0  0  0  0
 67 68  1  0  0  0  0
 68 66  1  0  0  0  0
 69 68  1  0  0  0  0
M  END
>  <MODEL>
3

>  <REMARK>
 VINA RESULT:       1.4      1.271      1.728
  Name = 
  27 active torsions:
  status: ('A' for Active; 'I' for Inactive)
    1  A    between atoms: C_1  and  N_15
    2  A    between atoms: C_1  and  C_54
    3  A    between atoms: C_2  and  C_6
    4  A    between atoms: C_2  and  C_54
    5  A    between atoms: C_6  and  C_27
    6  A    between atoms: C_10  and  C_61
    7  A    between atoms: C_10  and  C_69
    8  A    between atoms: N_15  and  C_61
    9  A    between atoms: N_15  and  C_66
   10  A    between atoms: C_18  and  C_36
   11  A    between atoms: C_23  and  C_42
   12  A    between atoms: C_23  and  C_46
   13  A    between atoms: C_25  and  C_30
   14  A    between atoms: C_25  and  C_67
   15  A    between atoms: C_26  and  C_39
   16  A    between atoms: C_26  and  C_51
   17  A    between atoms: C_27  and  C_36
   18  A    between atoms: C_29  and  C_43
   19  A    between atoms: C_35  and  C_51
   20  A    between atoms: C_35  and  C_66
   21  A    between atoms: C_39  and  C_53
   22  A    between atoms: C_42  and  C_60
   23  A    between atoms: C_43  and  C_50
   24  A    between atoms: C_45  and  C_55
   25  A    between atoms: C_51  and  C_68
   26  A    between atoms: N_52  and  C_67
   27  A    between atoms: C_64  and  C_68
                            x       y       z     vdW  Elec       q    Type
                         _______ _______ _______ _____ _____    ______ ____

>  <TORSDO>
F 27

$$$$
=
 OpenBabel11072410063D

 69 73  0  0  1  0  0  0  0  0999 V2000
  160.4230  212.8670  146.6640 C   0  0  1  0  0  3  0  0  0  0  0  0
  160.8660  213.3170  148.8710 C   0  0  0  0  0  0  0  0  0  0  0  0
  161.4930  210.6030  146.6730 C   0  0  0  0  0  1  0  0  0  0  0  0
  161.0500  214.0070  149.9070 O   0  0  0  0  0  0  0  0  0  0  0  0
  160.4710  213.8620  147.6700 O   0  0  0  0  0  0  0  0  0  0  0  0
  161.0860  211.8560  148.7930 C   0  0  2  0  0  3  0  0  0  0  0  0
  160.5420  211.5260  147.4050 C   0  0  1  0  0  3  0  0  0  0  0  0
  159.1410  212.9900  145.8440 C   0  0  2  0  0  3  0  0  0  0  0  0
  158.0210  212.6370  146.6010 O   0  0  0  0  0  1  0  0  0  0  0  0
  159.2140  212.1400  144.5880 C   0  0  0  0  0  2  0  0  0  0  0  0
  159.0830  213.7120  139.5880 C   0  0  0  0  0  0  0  0  0  0  0  0
  158.7530  213.9010  143.0620 C   0  0  0  0  0  2  0  0  0  0  0  0
  159.4830  214.4380  138.4710 O   0  0  0  0  0  1  0  0  0  0  0  0
  159.9790  213.2030  140.3820 C   0  0  0  0  0  0  0  0  0  0  0  0
  160.1570  211.9810  142.4390 C   0  0  0  0  0  2  0  0  0  0  0  0
  157.2570  214.1730  141.1630 N   0  0  0  0  0  2  0  0  0  0  0  0
  157.5870  213.2930  142.2770 C   0  0  0  0  0  2  0  0  0  0  0  0
  159.7670  212.9230  143.4960 N   0  0  0  0  0  0  0  0  0  0  0  0
  157.6240  213.5050  139.9150 C   0  0  1  0  0  3  0  0  0  0  0  0
  160.7790  212.6710  141.2620 C   0  0  0  0  0  0  0  0  0  0  0  0
  162.9820  212.3910  142.1120 O   0  0  0  0  0  1  0  0  0  0  0  0
  162.2260  212.5060  140.9440 C   0  0  1  0  0  3  0  0  0  0  0  0
  162.4690  211.3360  140.0330 C   0  0  0  0  0  0  0  0  0  0  0  0
  162.5670  210.2110  140.5080 O   0  0  0  0  0  0  0  0  0  0  0  0
  161.2890  212.2470  138.0260 C   0  0  0  0  0  3  0  0  0  0  0  0
  162.7400  210.3000  137.8500 O   0  0  0  0  0  0  0  0  0  0  0  0
  163.7180  212.4300  138.2270 C   0  0  0  0  0  1  0  0  0  0  0  0
  160.3690  211.6180  137.3770 N   0  0  0  0  0  0  0  0  0  0  0  0
  162.5330  211.5320  138.5280 C   0  0  2  0  0  0  0  0  0  0  0  0
  161.5500  209.5400  137.8810 C   0  0  1  0  0  3  0  0  0  0  0  0
  160.4920  210.2210  137.0190 C   0  0  0  0  0  2  0  0  0  0  0  0
  161.8320  208.1300  137.3870 C   0  0  0  0  0  2  0  0  0  0  0  0
  163.0790  206.5360  138.6490 O   0  0  0  0  0  0  0  0  0  0  0  0
  160.9710  207.0270  139.4900 N   0  0  0  0  0  1  0  0  0  0  0  0
  162.0140  207.1960  138.5370 C   0  0  0  0  0  0  0  0  0  0  0  0
  155.9570  212.8670  138.3020 O   0  0  0  0  0  1  0  0  0  0  0  0
  156.6990  213.9480  138.7870 C   0  0  0  0  0  2  0  0  0  0  0  0
  160.2790  211.1170  149.8490 C   0  0  0  0  0  2  0  0  0  0  0  0
  161.1380  210.0650  150.5340 C   0  0  1  0  0  3  0  0  0  0  0  0
  161.7610  209.1620  149.4640 C   0  0  1  0  0  3  0  0  0  0  0  0
  163.0870  208.8250  149.7570 O   0  0  0  0  0  1  0  0  0  0  0  0
  160.2820  207.3070  150.3840 C   0  0  0  0  0  1  0  0  0  0  0  0
  160.9060  207.9340  149.1460 C   0  0  2  0  0  3  0  0  0  0  0  0
  162.3890  207.2790  147.1910 N   0  0  0  0  0  1  0  0  0  0  0  0
  161.7470  205.7300  148.8000 O   0  0  0  0  0  0  0  0  0  0  0  0
  161.7060  206.9200  148.3920 C   0  0  0  0  0  0  0  0  0  0  0  0
  162.1780  210.7400  151.4330 C   0  0  0  0  0  2  0  0  0  0  0  0
  162.4290  209.9470  152.7090 C   0  0  0  0  0  2  0  0  0  0  0  0
  161.4640  210.2990  153.7380 N   0  0  0  0  0  0  0  0  0  0  0  0
  160.7990  211.4950  153.2490 C   0  0  0  0  0  2  0  0  0  0  0  0
  160.1790  212.2800  154.4040 C   0  0  0  0  0  2  0  0  0  0  0  0
  158.0050  213.4750  154.9820 C   0  0  0  0  0  3  0  0  0  0  0  0
  157.4820  213.8660  152.2660 C   0  0  0  0  0  0  0  0  0  0  0  0
  158.6480  213.2030  152.6640 C   0  0  0  0  0  3  0  0  0  0  0  0
  156.5800  214.3340  153.2250 C   0  0  0  0  0  3  0  0  0  0  0  0
  157.2000  214.0720  150.8220 C   0  0  0  0  0  1  0  0  0  0  0  0
  156.8420  214.1370  154.5840 C   0  0  0  0  0  3  0  0  0  0  0  0
  158.9200  213.0040  154.0230 C   0  0  0  0  0  0  0  0  0  0  0  0
  160.4730  209.2310  153.7540 C   0  0  0  0  0  2  0  0  0  0  0  0
  160.7210  208.3100  154.9400 C   0  0  0  0  0  2  0  0  0  0  0  0
  160.2480  206.8980  154.6380 C   0  0  0  0  0  2  0  0  0  0  0  0
  161.2020  206.1920  153.6820 C   0  0  1  0  0  0  0  0  0  0  0  0
  161.2970  206.8440  152.4420 O   0  0  0  0  0  0  0  0  0  0  0  0
  162.4270  206.9130  153.2860 C   0  0  0  0  0  2  0  0  0  0  0  0
  161.2050  204.6750  153.5390 C   0  0  0  0  0  2  0  0  0  0  0  0
  160.2450  204.2410  152.4410 C   0  0  0  0  0  2  0  0  0  0  0  0
  161.7340  202.5140  151.7300 F   0  0  0  0  0  0  0  0  0  0  0  0
  160.9840  203.5880  151.2820 C   0  0  0  0  0  3  0  0  0  0  0  0
  160.0970  203.1750  150.3060 F   0  0  0  0  0  0  0  0  0  0  0  0
  1  8  1  1  0  0  0
  1  7  1  0  0  0  0
  1  5  1  0  0  0  0
  2  4  2  0  0  0  0
  5  2  1  0  0  0  0
  6  2  1  0  0  0  0
  6 38  1  1  0  0  0
  7  3  1  6  0  0  0
  7  6  1  0  0  0  0
  8  9  1  1  0  0  0
 10  8  1  0  0  0  0
 11 19  1  0  0  0  0
 11 14  2  0  0  0  0
 12 18  1  0  0  0  0
 13 11  1  0  0  0  0
 14 20  2  0  0  0  0
 15 18  1  0  0  0  0
 16 17  1  0  0  0  0
 17 12  1  0  0  0  0
 18 10  1  0  0  0  0
 19 37  1  6  0  0  0
 19 16  1  0  0  0  0
 20 15  1  0  0  0  0
 22 20  1  0  0  0  0
 22 21  1  1  0  0  0
 23 24  2  0  0  0  0
 23 22  1  0  0  0  0
 25 29  1  0  0  0  0
 26 30  1  0  0  0  0
 26 29  1  0  0  0  0
 28 25  2  0  0  0  0
 29 27  1  6  0  0  0
 29 23  1  0  0  0  0
 30 32  1  6  0  0  0
 31 28  1  0  0  0  0
 31 30  1  0  0  0  0
 32 35  1  0  0  0  0
 35 33  2  0  0  0  0
 35 34  1  0  0  0  0
 36 37  1  0  0  0  0
 39 38  1  6  0  0  0
 39 47  1  0  0  0  0
 40 41  1  1  0  0  0
 40 39  1  0  0  0  0
 43 40  1  0  0  0  0
 43 42  1  1  0  0  0
 44 46  1  0  0  0  0
 46 45  2  0  0  0  0
 46 43  1  0  0  0  0
 47 48  1  0  0  0  0
 48 49  1  0  0  0  0
 49 59  1  0  0  0  0
 50 49  1  0  0  0  0
 50 51  1  0  0  0  0
 53 54  2  0  0  0  0
 53 55  1  0  0  0  0
 54 58  1  0  0  0  0
 55 57  2  0  0  0  0
 56 53  1  0  0  0  0
 57 52  1  0  0  0  0
 58 51  1  0  0  0  0
 58 52  2  0  0  0  0
 59 60  1  0  0  0  0
 61 60  1  0  0  0  0
 62 65  1  1  0  0  0
 62 61  1  0  0  0  0
 63 64  1  0  0  0  0
 63 62  1  0  0  0  0
 64 62  1  0  0  0  0
 66 65  1  0  0  0  0
 68 67  1  0  0  0  0
 68 66  1  0  0  0  0
 69 68  1  0  0  0  0
M  END
>  <MODEL>
4

>  <REMARK>
 VINA RESULT:       2.0      5.369      9.634
  Name = 
  27 active torsions:
  status: ('A' for Active; 'I' for Inactive)
    1  A    between atoms: C_1  and  N_15
    2  A    between atoms: C_1  and  C_54
    3  A    between atoms: C_2  and  C_6
    4  A    between atoms: C_2  and  C_54
    5  A    between atoms: C_6  and  C_27
    6  A    between atoms: C_10  and  C_61
    7  A    between atoms: C_10  and  C_69
    8  A    between atoms: N_15  and  C_61
    9  A    between atoms: N_15  and  C_66
   10  A    between atoms: C_18  and  C_36
   11  A    between atoms: C_23  and  C_42
   12  A    between atoms: C_23  and  C_46
   13  A    between atoms: C_25  and  C_30
   14  A    between atoms: C_25  and  C_67
   15  A    between atoms: C_26  and  C_39
   16  A    between atoms: C_26  and  C_51
   17  A    between atoms: C_27  and  C_36
   18  A    between atoms: C_29  and  C_43
   19  A    between atoms: C_35  and  C_51
   20  A    between atoms: C_35  and  C_66
   21  A    between atoms: C_39  and  C_53
   22  A    between atoms: C_42  and  C_60
   23  A    between atoms: C_43  and  C_50
   24  A    between atoms: C_45  and  C_55
   25  A    between atoms: C_51  and  C_68
   26  A    between atoms: N_52  and  C_67
   27  A    between atoms: C_64  and  C_68
                            x       y       z     vdW  Elec       q    Type
                         _______ _______ _______ _____ _____    ______ ____

>  <TORSDO>
F 27

$$$$
=
 OpenBabel11072410063D

 69 73  0  0  1  0  0  0  0  0999 V2000
  161.6970  212.1290  144.6790 C   0  0  1  0  0  3  0  0  0  0  0  0
  162.4780  212.6600  146.7700 C   0  0  0  0  0  0  0  0  0  0  0  0
  159.4230  211.4250  145.4560 C   0  0  0  0  0  1  0  0  0  0  0  0
  163.3180  212.8780  147.6820 O   0  0  0  0  0  0  0  0  0  0  0  0
  162.8380  212.4230  145.4630 O   0  0  0  0  0  0  0  0  0  0  0  0
  161.0170  212.5870  146.9850 C   0  0  2  0  0  3  0  0  0  0  0  0
  160.4900  212.4950  145.5560 C   0  0  1  0  0  3  0  0  0  0  0  0
  161.7380  212.8960  143.3590 C   0  0  2  0  0  3  0  0  0  0  0  0
  162.8780  213.7000  143.2770 O   0  0  0  0  0  1  0  0  0  0  0  0
  160.4880  213.7400  143.1800 C   0  0  0  0  0  2  0  0  0  0  0  0
  158.0780  212.7460  138.6310 C   0  0  0  0  0  0  0  0  0  0  0  0
  158.8870  214.4480  141.5740 C   0  0  0  0  0  2  0  0  0  0  0  0
  157.7590  212.9380  137.2910 O   0  0  0  0  0  1  0  0  0  0  0  0
  159.3120  212.8680  139.0250 C   0  0  0  0  0  0  0  0  0  0  0  0
  160.6360  212.8090  141.0240 C   0  0  0  0  0  2  0  0  0  0  0  0
  156.8620  213.4810  140.6340 N   0  0  0  0  0  2  0  0  0  0  0  0
  157.8660  213.3110  141.6770 C   0  0  0  0  0  2  0  0  0  0  0  0
  160.2860  214.0250  141.7700 N   0  0  0  0  0  0  0  0  0  0  0  0
  157.0210  212.4070  139.6540 C   0  0  1  0  0  3  0  0  0  0  0  0
  160.5010  212.9900  139.5420 C   0  0  0  0  0  0  0  0  0  0  0  0
  162.7680  213.6580  139.2740 O   0  0  0  0  0  1  0  0  0  0  0  0
  161.6980  213.0110  138.6530 C   0  0  1  0  0  3  0  0  0  0  0  0
  162.0910  211.6300  138.2120 C   0  0  0  0  0  0  0  0  0  0  0  0
  163.2340  211.4230  137.8230 O   0  0  0  0  0  0  0  0  0  0  0  0
  160.1460  210.6850  139.4670 C   0  0  0  0  0  3  0  0  0  0  0  0
  161.7630  209.2270  138.3800 O   0  0  0  0  0  0  0  0  0  0  0  0
  160.2680  210.4860  137.0340 C   0  0  0  0  0  1  0  0  0  0  0  0
  160.2480  209.9900  140.5480 N   0  0  0  0  0  0  0  0  0  0  0  0
  161.1010  210.4820  138.3020 C   0  0  2  0  0  0  0  0  0  0  0  0
  162.3320  209.0730  139.6630 C   0  0  1  0  0  3  0  0  0  0  0  0
  161.2190  208.9270  140.6960 C   0  0  0  0  0  2  0  0  0  0  0  0
  163.2490  207.8610  139.6740 C   0  0  0  0  0  2  0  0  0  0  0  0
  162.2060  206.0120  138.5860 O   0  0  0  0  0  0  0  0  0  0  0  0
  161.9480  206.0720  140.8930 N   0  0  0  0  0  1  0  0  0  0  0  0
  162.4540  206.5980  139.6710 C   0  0  0  0  0  0  0  0  0  0  0  0
  155.3520  210.7240  139.2380 O   0  0  0  0  0  1  0  0  0  0  0  0
  155.6760  212.0670  139.0210 C   0  0  0  0  0  2  0  0  0  0  0  0
  160.4910  213.8510  147.6460 C   0  0  0  0  0  2  0  0  0  0  0  0
  159.8480  213.5230  148.9860 C   0  0  1  0  0  3  0  0  0  0  0  0
  158.3620  213.8880  148.9240 C   0  0  1  0  0  3  0  0  0  0  0  0
  157.5750  212.8390  148.4370 O   0  0  0  0  0  1  0  0  0  0  0  0
  158.7350  214.1500  151.4280 C   0  0  0  0  0  1  0  0  0  0  0  0
  157.8290  214.4510  150.2430 C   0  0  2  0  0  3  0  0  0  0  0  0
  155.5420  213.7110  149.4230 N   0  0  0  0  0  1  0  0  0  0  0  0
  156.0560  213.7770  151.6880 O   0  0  0  0  0  0  0  0  0  0  0  0
  156.4430  213.9520  150.5030 C   0  0  0  0  0  0  0  0  0  0  0  0
  160.0950  212.0540  149.3400 C   0  0  0  0  0  2  0  0  0  0  0  0
  161.5770  211.7500  149.5090 C   0  0  0  0  0  2  0  0  0  0  0  0
  161.7750  210.5770  150.3460 N   0  0  0  0  0  0  0  0  0  0  0  0
  160.5820  210.4880  151.1720 C   0  0  0  0  0  2  0  0  0  0  0  0
  160.5390  211.6320  152.1830 C   0  0  0  0  0  2  0  0  0  0  0  0
  158.5160  211.9150  153.7060 C   0  0  0  0  0  3  0  0  0  0  0  0
  159.5730  210.0350  155.4830 C   0  0  0  0  0  0  0  0  0  0  0  0
  160.2730  210.3640  154.3160 C   0  0  0  0  0  3  0  0  0  0  0  0
  158.3460  210.6460  155.7590 C   0  0  0  0  0  3  0  0  0  0  0  0
  160.1340  209.0390  156.4300 C   0  0  0  0  0  1  0  0  0  0  0  0
  157.8190  211.5860  154.8710 C   0  0  0  0  0  3  0  0  0  0  0  0
  159.7500  211.3030  153.4190 C   0  0  0  0  0  0  0  0  0  0  0  0
  161.7660  209.4270  149.4510 C   0  0  0  0  0  2  0  0  0  0  0  0
  162.8640  208.4510  149.8490 C   0  0  0  0  0  2  0  0  0  0  0  0
  162.3150  207.0400  149.9720 C   0  0  0  0  0  2  0  0  0  0  0  0
  161.4680  206.6720  148.7600 C   0  0  1  0  0  0  0  0  0  0  0  0
  160.6010  205.5990  149.0200 O   0  0  0  0  0  0  0  0  0  0  0  0
  160.0100  206.8720  148.8620 C   0  0  0  0  0  2  0  0  0  0  0  0
  162.0700  206.6030  147.3630 C   0  0  0  0  0  2  0  0  0  0  0  0
  162.7620  205.2660  147.1440 C   0  0  0  0  0  2  0  0  0  0  0  0
  162.5330  203.4500  145.6100 F   0  0  0  0  0  0  0  0  0  0  0  0
  162.6750  204.8250  145.6910 C   0  0  0  0  0  3  0  0  0  0  0  0
  161.6220  205.4510  145.0510 F   0  0  0  0  0  0  0  0  0  0  0  0
  1  8  1  6  0  0  0
  1  5  1  0  0  0  0
  1  7  1  0  0  0  0
  2  6  1  0  0  0  0
  2  4  2  0  0  0  0
  5  2  1  0  0  0  0
  6 38  1  6  0  0  0
  7  3  1  1  0  0  0
  7  6  1  0  0  0  0
  8  9  1  1  0  0  0
 10  8  1  0  0  0  0
 11 14  2  0  0  0  0
 11 19  1  0  0  0  0
 12 17  1  0  0  0  0
 12 18  1  0  0  0  0
 13 11  1  0  0  0  0
 14 20  2  0  0  0  0
 15 18  1  0  0  0  0
 16 17  1  0  0  0  0
 18 10  1  0  0  0  0
 19 37  1  6  0  0  0
 19 16  1  0  0  0  0
 20 15  1  0  0  0  0
 22 21  1  1  0  0  0
 22 20  1  0  0  0  0
 23 29  1  0  0  0  0
 23 22  1  0  0  0  0
 24 23  2  0  0  0  0
 25 28  2  0  0  0  0
 26 30  1  0  0  0  0
 28 31  1  0  0  0  0
 29 27  1  6  0  0  0
 29 26  1  0  0  0  0
 29 25  1  0  0  0  0
 30 32  1  6  0  0  0
 30 31  1  0  0  0  0
 33 35  2  0  0  0  0
 35 32  1  0  0  0  0
 35 34  1  0  0  0  0
 37 36  1  0  0  0  0
 39 38  1  6  0  0  0
 39 47  1  0  0  0  0
 40 41  1  1  0  0  0
 40 39  1  0  0  0  0
 40 43  1  0  0  0  0
 43 46  1  0  0  0  0
 43 42  1  1  0  0  0
 44 46  1  0  0  0  0
 46 45  2  0  0  0  0
 47 48  1  0  0  0  0
 48 49  1  0  0  0  0
 49 50  1  0  0  0  0
 50 51  1  0  0  0  0
 51 58  1  0  0  0  0
 52 57  1  0  0  0  0
 53 55  1  0  0  0  0
 53 56  1  0  0  0  0
 54 53  2  0  0  0  0
 57 55  2  0  0  0  0
 58 52  2  0  0  0  0
 58 54  1  0  0  0  0
 59 60  1  0  0  0  0
 59 49  1  0  0  0  0
 60 61  1  0  0  0  0
 62 65  1  6  0  0  0
 62 64  1  0  0  0  0
 62 63  1  0  0  0  0
 62 61  1  0  0  0  0
 64 63  1  0  0  0  0
 66 65  1  0  0  0  0
 67 68  1  0  0  0  0
 68 66  1  0  0  0  0
 69 68  1  0  0  0  0
M  END
>  <MODEL>
5

>  <REMARK>
 VINA RESULT:       2.1      5.298      9.687
  Name = 
  27 active torsions:
  status: ('A' for Active; 'I' for Inactive)
    1  A    between atoms: C_1  and  N_15
    2  A    between atoms: C_1  and  C_54
    3  A    between atoms: C_2  and  C_6
    4  A    between atoms: C_2  and  C_54
    5  A    between atoms: C_6  and  C_27
    6  A    between atoms: C_10  and  C_61
    7  A    between atoms: C_10  and  C_69
    8  A    between atoms: N_15  and  C_61
    9  A    between atoms: N_15  and  C_66
   10  A    between atoms: C_18  and  C_36
   11  A    between atoms: C_23  and  C_42
   12  A    between atoms: C_23  and  C_46
   13  A    between atoms: C_25  and  C_30
   14  A    between atoms: C_25  and  C_67
   15  A    between atoms: C_26  and  C_39
   16  A    between atoms: C_26  and  C_51
   17  A    between atoms: C_27  and  C_36
   18  A    between atoms: C_29  and  C_43
   19  A    between atoms: C_35  and  C_51
   20  A    between atoms: C_35  and  C_66
   21  A    between atoms: C_39  and  C_53
   22  A    between atoms: C_42  and  C_60
   23  A    between atoms: C_43  and  C_50
   24  A    between atoms: C_45  and  C_55
   25  A    between atoms: C_51  and  C_68
   26  A    between atoms: N_52  and  C_67
   27  A    between atoms: C_64  and  C_68
                            x       y       z     vdW  Elec       q    Type
                         _______ _______ _______ _____ _____    ______ ____

>  <TORSDO>
F 27

$$$$
