=
 OpenBabel11072415173D

 40 47  0  0  1  0  0  0  0  0999 V2000
  162.1120  210.6990  153.4310 C   0  0  0  0  0  1  0  0  0  0  0  0
  158.5790  211.1470  152.3750 O   0  0  0  0  0  1  0  0  0  0  0  0
  161.1370  211.0690  150.4900 N   0  0  0  0  0  2  0  0  0  0  0  0
  160.4680  212.1450  151.2180 C   0  0  2  0  0  3  0  0  0  0  0  0
  159.8990  211.5820  152.5420 C   0  0  2  0  0  0  0  0  0  0  0  0
  160.9940  209.8840  151.3250 C   0  0  2  0  0  3  0  0  0  0  0  0
  160.7760  210.3500  152.7610 C   0  0  1  0  0  3  0  0  0  0  0  0
  160.0350  213.6690  149.1220 C   0  0  0  0  0  0  0  0  0  0  0  0
  157.1890  213.4110  148.3110 C   0  0  0  0  0  3  0  0  0  0  0  0
  161.8600  212.6590  147.1160 C   0  0  0  0  0  3  0  0  0  0  0  0
  157.1340  213.3230  149.6460 C   0  0  0  0  0  3  0  0  0  0  0  0
  160.5860  212.5000  146.9190 N   0  0  0  0  0  0  0  0  0  0  0  0
  159.6040  213.0250  147.8210 C   0  0  2  0  0  3  0  0  0  0  0  0
  158.2000  212.8040  150.5290 C   0  0  0  0  0  3  0  0  0  0  0  0
  159.5160  212.8930  150.3110 C   0  0  0  0  0  0  0  0  0  0  0  0
  161.5240  213.9160  149.1750 C   0  0  0  0  0  3  0  0  0  0  0  0
  162.3670  213.4220  148.2670 C   0  0  0  0  0  3  0  0  0  0  0  0
  158.3210  212.9920  147.4620 C   0  0  0  0  0  3  0  0  0  0  0  0
  159.8470  211.1500  155.7190 N   0  0  0  0  0  0  0  0  0  0  0  0
  159.2980  212.1480  154.9740 C   0  0  0  0  0  0  0  0  0  0  0  0
  157.4990  213.8710  154.5910 C   0  0  0  0  0  2  0  0  0  0  0  0
  159.2410  210.6890  156.8460 C   0  0  0  0  0  3  0  0  0  0  0  0
  159.9660  212.6140  153.6990 C   0  0  2  0  0  3  0  0  0  0  0  0
  158.0250  211.2290  157.2610 C   0  0  0  0  0  3  0  0  0  0  0  0
  159.5590  213.9200  153.3130 O   0  0  0  0  0  0  0  0  0  0  0  0
  158.0790  212.7220  155.3600 C   0  0  0  0  0  0  0  0  0  0  0  0
  158.1500  213.9700  153.2120 C   0  0  0  0  0  2  0  0  0  0  0  0
  157.4440  212.2580  156.5130 C   0  0  0  0  0  3  0  0  0  0  0  0
  162.1590  208.9190  151.1190 C   0  0  0  0  0  2  0  0  0  0  0  0
  161.7000  207.4670  151.2120 C   0  0  0  0  0  2  0  0  0  0  0  0
  160.1080  206.6090  149.4780 C   0  0  0  0  0  2  0  0  0  0  0  0
  160.9990  205.4410  149.8220 C   0  0  1  0  0  0  0  0  0  0  0  0
  161.5850  206.8440  149.8210 C   0  0  2  0  0  3  0  0  0  0  0  0
  161.6480  203.2650  149.3240 O   0  0  0  0  0  0  0  0  0  0  0  0
  160.8250  204.6620  151.1240 C   0  0  1  0  0  3  0  0  0  0  0  0
  161.7760  204.8300  147.5920 O   0  0  0  0  0  0  0  0  0  0  0  0
  159.7670  203.5540  151.0150 C   0  0  0  0  0  2  0  0  0  0  0  0
  161.2120  203.2390  150.6870 C   0  0  1  0  0  0  0  0  0  0  0  0
  161.4920  204.5250  148.7840 C   0  0  0  0  0  0  0  0  0  0  0  0
  162.0140  202.5910  151.6240 O   0  0  0  0  0  1  0  0  0  0  0  0
  3  4  1  0  0  0  0
  3  6  1  0  0  0  0
  4 15  1  6  0  0  0
  4  5  1  0  0  0  0
  5  2  1  6  0  0  0
  5  7  1  0  0  0  0
  5 23  1  0  0  0  0
  6 29  1  1  0  0  0
  6  7  1  0  0  0  0
  7  1  1  6  0  0  0
  8 16  1  0  0  0  0
  8 15  2  0  0  0  0
  9 11  1  0  0  0  0
 10 17  1  0  0  0  0
 11 14  2  0  0  0  0
 12 10  2  0  0  0  0
 12 13  1  0  0  0  0
 13 18  1  6  0  0  0
 13  8  1  0  0  0  0
 15 14  1  0  0  0  0
 17 16  2  0  0  0  0
 18  9  2  0  0  0  0
 19 22  1  0  0  0  0
 20 26  1  0  0  0  0
 20 19  2  0  0  0  0
 21 26  1  0  0  0  0
 22 24  2  0  0  0  0
 23 25  1  6  0  0  0
 23 20  1  0  0  0  0
 26 28  2  0  0  0  0
 27 25  1  0  0  0  0
 27 21  1  0  0  0  0
 28 24  1  0  0  0  0
 29 30  1  0  0  0  0
 31 33  1  0  0  0  0
 32 31  1  6  0  0  0
 32 35  1  0  0  0  0
 33 32  1  0  0  0  0
 33 30  1  1  0  0  0
 34 38  1  0  0  0  0
 35 37  1  6  0  0  0
 36 39  2  0  0  0  0
 38 37  1  0  0  0  0
 38 35  1  0  0  0  0
 38 40  1  1  0  0  0
 39 34  1  0  0  0  0
 39 32  1  0  0  0  0
M  END
>  <MODEL>
1

>  <REMARK>
 VINA RESULT:      -5.3      0.000      0.000
  Name = 
  5 active torsions:
  status: ('A' for Active; 'I' for Inactive)
    1  A    between atoms: C_4  and  C_14
    2  A    between atoms: C_8  and  C_14
    3  A    between atoms: C_8  and  C_29
    4  A    between atoms: C_17  and  C_25
    5  A    between atoms: C_27  and  C_28
                            x       y       z     vdW  Elec       q    Type
                         _______ _______ _______ _____ _____    ______ ____

>  <TORSDO>
F 5

$$$$
=
 OpenBabel11072415173D

 40 47  0  0  1  0  0  0  0  0999 V2000
  162.6450  210.2330  152.8360 C   0  0  0  0  0  1  0  0  0  0  0  0
  158.9690  210.6870  152.5660 O   0  0  0  0  0  1  0  0  0  0  0  0
  161.1350  211.2960  150.3220 N   0  0  0  0  0  2  0  0  0  0  0  0
  160.5870  212.0900  151.4200 C   0  0  2  0  0  3  0  0  0  0  0  0
  160.2860  211.1560  152.6160 C   0  0  2  0  0  0  0  0  0  0  0  0
  161.1770  209.9260  150.8120 C   0  0  2  0  0  3  0  0  0  0  0  0
  161.2160  209.9780  152.3360 C   0  0  1  0  0  3  0  0  0  0  0  0
  159.7370  214.0770  149.9260 C   0  0  0  0  0  0  0  0  0  0  0  0
  156.7970  213.8390  149.5810 C   0  0  0  0  0  3  0  0  0  0  0  0
  161.1800  213.7650  147.4360 C   0  0  0  0  0  3  0  0  0  0  0  0
  156.9930  213.3990  150.8300 C   0  0  0  0  0  3  0  0  0  0  0  0
  159.8950  213.5720  147.4270 N   0  0  0  0  0  0  0  0  0  0  0  0
  159.0870  213.7690  148.5940 C   0  0  2  0  0  3  0  0  0  0  0  0
  158.2160  212.7430  151.3400 C   0  0  0  0  0  3  0  0  0  0  0  0
  159.4660  212.9810  150.9300 C   0  0  0  0  0  0  0  0  0  0  0  0
  161.2050  214.4070  149.7850 C   0  0  0  0  0  3  0  0  0  0  0  0
  161.8750  214.2310  148.6450 C   0  0  0  0  0  3  0  0  0  0  0  0
  157.7600  213.7400  148.4670 C   0  0  0  0  0  3  0  0  0  0  0  0
  161.5640  210.0040  155.3230 N   0  0  0  0  0  0  0  0  0  0  0  0
  160.5480  210.8950  155.1580 C   0  0  0  0  0  0  0  0  0  0  0  0
  158.3820  211.9270  155.9300 C   0  0  0  0  0  2  0  0  0  0  0  0
  161.5680  209.1120  156.3490 C   0  0  0  0  0  3  0  0  0  0  0  0
  160.5420  211.8470  153.9830 C   0  0  2  0  0  3  0  0  0  0  0  0
  160.5130  209.0850  157.2600 C   0  0  0  0  0  3  0  0  0  0  0  0
  159.7160  212.9830  154.2020 O   0  0  0  0  0  0  0  0  0  0  0  0
  159.4710  210.9040  156.0560 C   0  0  0  0  0  0  0  0  0  0  0  0
  158.4090  212.5650  154.5420 C   0  0  0  0  0  2  0  0  0  0  0  0
  159.4600  209.9940  157.1130 C   0  0  0  0  0  3  0  0  0  0  0  0
  162.3050  209.1370  150.1540 C   0  0  0  0  0  2  0  0  0  0  0  0
  162.1980  207.6470  150.4670 C   0  0  0  0  0  2  0  0  0  0  0  0
  160.4210  206.7520  148.9450 C   0  0  0  0  0  2  0  0  0  0  0  0
  161.1800  205.5430  149.4350 C   0  0  1  0  0  0  0  0  0  0  0  0
  161.9320  206.8440  149.1940 C   0  0  2  0  0  3  0  0  0  0  0  0
  161.5310  203.2520  149.2590 O   0  0  0  0  0  0  0  0  0  0  0  0
  160.9840  204.9970  150.8470 C   0  0  1  0  0  3  0  0  0  0  0  0
  161.7540  204.5110  147.3010 O   0  0  0  0  0  0  0  0  0  0  0  0
  159.7950  204.0310  150.9500 C   0  0  0  0  0  2  0  0  0  0  0  0
  161.1710  203.4870  150.6230 C   0  0  1  0  0  0  0  0  0  0  0  0
  161.5000  204.4260  148.5350 C   0  0  0  0  0  0  0  0  0  0  0  0
  161.9380  202.8890  151.6210 O   0  0  0  0  0  1  0  0  0  0  0  0
  3  6  1  0  0  0  0
  3  4  1  0  0  0  0
  4 15  1  6  0  0  0
  4  5  1  0  0  0  0
  5  2  1  6  0  0  0
  5 23  1  0  0  0  0
  6 29  1  6  0  0  0
  6  7  1  0  0  0  0
  7  5  1  0  0  0  0
  7  1  1  6  0  0  0
  8 15  2  0  0  0  0
  9 11  1  0  0  0  0
 10 17  1  0  0  0  0
 11 14  2  0  0  0  0
 12 10  2  0  0  0  0
 12 13  1  0  0  0  0
 13 18  1  6  0  0  0
 13  8  1  0  0  0  0
 15 14  1  0  0  0  0
 16  8  1  0  0  0  0
 17 16  2  0  0  0  0
 18  9  2  0  0  0  0
 19 22  1  0  0  0  0
 20 19  2  0  0  0  0
 20 26  1  0  0  0  0
 21 26  1  0  0  0  0
 22 24  2  0  0  0  0
 23 25  1  1  0  0  0
 23 20  1  0  0  0  0
 25 27  1  0  0  0  0
 26 28  2  0  0  0  0
 27 21  1  0  0  0  0
 28 24  1  0  0  0  0
 29 30  1  0  0  0  0
 31 33  1  0  0  0  0
 32 31  1  6  0  0  0
 32 35  1  0  0  0  0
 33 32  1  0  0  0  0
 33 30  1  1  0  0  0
 34 38  1  0  0  0  0
 35 37  1  6  0  0  0
 36 39  2  0  0  0  0
 38 35  1  0  0  0  0
 38 37  1  0  0  0  0
 38 40  1  1  0  0  0
 39 34  1  0  0  0  0
 39 32  1  0  0  0  0
M  END
>  <MODEL>
2

>  <REMARK>
 VINA RESULT:      -5.3      1.032      1.370
  Name = 
  5 active torsions:
  status: ('A' for Active; 'I' for Inactive)
    1  A    between atoms: C_4  and  C_14
    2  A    between atoms: C_8  and  C_14
    3  A    between atoms: C_8  and  C_29
    4  A    between atoms: C_17  and  C_25
    5  A    between atoms: C_27  and  C_28
                            x       y       z     vdW  Elec       q    Type
                         _______ _______ _______ _____ _____    ______ ____

>  <TORSDO>
F 5

$$$$
=
 OpenBabel11072415173D

 40 47  0  0  1  0  0  0  0  0999 V2000
  162.7060  206.6790  148.2820 C   0  0  0  0  0  1  0  0  0  0  0  0
  160.0790  206.1480  150.8530 O   0  0  0  0  0  1  0  0  0  0  0  0
  162.0010  208.6650  150.5840 N   0  0  0  0  0  2  0  0  0  0  0  0
  162.1350  207.3770  151.2620 C   0  0  2  0  0  3  0  0  0  0  0  0
  161.4060  206.2920  150.4330 C   0  0  2  0  0  0  0  0  0  0  0  0
  161.2250  208.3960  149.3820 C   0  0  2  0  0  3  0  0  0  0  0  0
  161.3930  206.9190  149.0400 C   0  0  1  0  0  3  0  0  0  0  0  0
  161.6860  208.8580  153.3850 C   0  0  0  0  0  0  0  0  0  0  0  0
  160.1070  207.2840  155.3470 C   0  0  0  0  0  3  0  0  0  0  0  0
  160.2350  211.1450  152.3650 C   0  0  0  0  0  3  0  0  0  0  0  0
  160.9020  206.3630  154.7870 C   0  0  0  0  0  3  0  0  0  0  0  0
  159.6050  210.3210  153.1480 N   0  0  0  0  0  0  0  0  0  0  0  0
  160.2580  209.1990  153.7550 C   0  0  0  0  0  0  0  0  0  0  0  0
  161.4460  206.4010  153.4140 C   0  0  0  0  0  3  0  0  0  0  0  0
  161.7680  207.5010  152.7250 C   0  0  0  0  0  0  0  0  0  0  0  0
  162.3470  209.9530  152.5810 C   0  0  0  0  0  2  0  0  0  0  0  0
  161.6700  210.9890  152.0850 C   0  0  0  0  0  3  0  0  0  0  0  0
  159.6080  208.5100  154.6920 C   0  0  0  0  0  3  0  0  0  0  0  0
  161.7420  204.0140  148.2000 N   0  0  0  0  0  0  0  0  0  0  0  0
  161.5620  203.8880  149.5440 C   0  0  0  0  0  0  0  0  0  0  0  0
  160.6640  202.6260  151.5330 C   0  0  0  0  0  2  0  0  0  0  0  0
  161.2090  203.1210  147.3250 C   0  0  0  0  0  3  0  0  0  0  0  0
  162.1260  204.9180  150.4970 C   0  0  2  0  0  3  0  0  0  0  0  0
  160.4490  202.0490  147.7900 C   0  0  0  0  0  3  0  0  0  0  0  0
  162.2700  204.4200  151.8200 O   0  0  0  0  0  0  0  0  0  0  0  0
  160.8090  202.8200  150.0530 C   0  0  0  0  0  0  0  0  0  0  0  0
  161.0330  203.9090  152.2760 C   0  0  0  0  0  2  0  0  0  0  0  0
  160.2540  201.8960  149.1670 C   0  0  0  0  0  3  0  0  0  0  0  0
  161.5810  209.3710  148.2640 C   0  0  0  0  0  2  0  0  0  0  0  0
  162.0620  210.7070  148.8240 C   0  0  0  0  0  2  0  0  0  0  0  0
  162.7470  213.0470  148.2460 C   0  0  0  0  0  2  0  0  0  0  0  0
  161.2390  213.0390  148.1800 C   0  0  1  0  0  0  0  0  0  0  0  0
  162.0060  211.7960  147.7530 C   0  0  2  0  0  3  0  0  0  0  0  0
  159.3020  214.1900  147.6100 O   0  0  0  0  0  0  0  0  0  0  0  0
  160.3860  213.0400  149.4470 C   0  0  1  0  0  3  0  0  0  0  0  0
  160.9100  213.9280  145.9330 O   0  0  0  0  0  0  0  0  0  0  0  0
  160.1460  214.4530  149.9970 C   0  0  0  0  0  2  0  0  0  0  0  0
  159.1690  213.8670  148.9980 C   0  0  1  0  0  0  0  0  0  0  0  0
  160.5180  213.7580  147.1210 C   0  0  0  0  0  0  0  0  0  0  0  0
  157.9630  213.3260  149.4370 O   0  0  0  0  0  1  0  0  0  0  0  0
  3  4  1  0  0  0  0
  4 15  1  1  0  0  0
  5 23  1  0  0  0  0
  5  2  1  1  0  0  0
  5  4  1  0  0  0  0
  6 29  1  6  0  0  0
  6  3  1  0  0  0  0
  7  1  1  1  0  0  0
  7  6  1  0  0  0  0
  7  5  1  0  0  0  0
  8 13  1  0  0  0  0
 10 12  1  0  0  0  0
 11  9  1  0  0  0  0
 12 13  2  0  0  0  0
 13 18  1  0  0  0  0
 14 11  2  0  0  0  0
 15  8  2  0  0  0  0
 15 14  1  0  0  0  0
 16  8  1  0  0  0  0
 17 10  2  0  0  0  0
 17 16  1  0  0  0  0
 18  9  2  0  0  0  0
 19 20  1  0  0  0  0
 20 26  2  0  0  0  0
 21 27  1  0  0  0  0
 22 24  1  0  0  0  0
 22 19  2  0  0  0  0
 23 20  1  6  0  0  0
 23 25  1  0  0  0  0
 24 28  2  0  0  0  0
 25 27  1  0  0  0  0
 26 21  1  0  0  0  0
 28 26  1  0  0  0  0
 29 30  1  0  0  0  0
 32 31  1  1  0  0  0
 32 35  1  0  0  0  0
 33 32  1  0  0  0  0
 33 31  1  0  0  0  0
 33 30  1  1  0  0  0
 34 38  1  0  0  0  0
 35 37  1  1  0  0  0
 36 39  2  0  0  0  0
 38 40  1  1  0  0  0
 38 35  1  0  0  0  0
 38 37  1  0  0  0  0
 39 34  1  0  0  0  0
 39 32  1  0  0  0  0
M  END
>  <MODEL>
3

>  <REMARK>
 VINA RESULT:      -4.8      2.728      8.582
  Name = 
  5 active torsions:
  status: ('A' for Active; 'I' for Inactive)
    1  A    between atoms: C_4  and  C_14
    2  A    between atoms: C_8  and  C_14
    3  A    between atoms: C_8  and  C_29
    4  A    between atoms: C_17  and  C_25
    5  A    between atoms: C_27  and  C_28
                            x       y       z     vdW  Elec       q    Type
                         _______ _______ _______ _____ _____    ______ ____

>  <TORSDO>
F 5

$$$$
=
 OpenBabel11072415173D

 40 47  0  0  1  0  0  0  0  0999 V2000
  162.7060  207.3980  151.3430 C   0  0  0  0  0  1  0  0  0  0  0  0
  159.7320  209.4680  152.1590 O   0  0  0  0  0  1  0  0  0  0  0  0
  161.5420  209.6740  149.5540 N   0  0  0  0  0  2  0  0  0  0  0  0
  161.6300  210.2830  150.8800 C   0  0  2  0  0  3  0  0  0  0  0  0
  161.1000  209.2800  151.9320 C   0  0  2  0  0  0  0  0  0  0  0  0
  160.9820  208.3470  149.7690 C   0  0  2  0  0  3  0  0  0  0  0  0
  161.2780  207.9450  151.2100 C   0  0  1  0  0  3  0  0  0  0  0  0
  161.4300  212.6790  149.8220 C   0  0  0  0  0  0  0  0  0  0  0  0
  158.8890  213.9250  150.7220 C   0  0  0  0  0  3  0  0  0  0  0  0
  161.4890  212.2050  146.9670 C   0  0  0  0  0  3  0  0  0  0  0  0
  159.2740  213.2150  151.7890 C   0  0  0  0  0  3  0  0  0  0  0  0
  160.3850  212.6460  147.4910 N   0  0  0  0  0  0  0  0  0  0  0  0
  160.2800  212.9740  148.8830 C   0  0  2  0  0  3  0  0  0  0  0  0
  160.0820  211.9770  151.7670 C   0  0  0  0  0  3  0  0  0  0  0  0
  161.0290  211.6710  150.8740 C   0  0  0  0  0  0  0  0  0  0  0  0
  162.6920  212.2990  149.0830 C   0  0  0  0  0  3  0  0  0  0  0  0
  162.7090  212.0490  147.7720 C   0  0  0  0  0  3  0  0  0  0  0  0
  159.1840  213.5980  149.3130 C   0  0  0  0  0  3  0  0  0  0  0  0
  161.1790  207.2670  154.4280 N   0  0  0  0  0  0  0  0  0  0  0  0
  161.2070  208.6280  154.4140 C   0  0  0  0  0  0  0  0  0  0  0  0
  160.6620  210.8480  155.4740 C   0  0  0  0  0  2  0  0  0  0  0  0
  160.5540  206.5780  155.4200 C   0  0  0  0  0  3  0  0  0  0  0  0
  161.8700  209.3740  153.2780 C   0  0  2  0  0  3  0  0  0  0  0  0
  159.9110  207.2610  156.4510 C   0  0  0  0  0  3  0  0  0  0  0  0
  162.2270  210.7030  153.6290 O   0  0  0  0  0  0  0  0  0  0  0  0
  160.5770  209.3520  155.4360 C   0  0  0  0  0  0  0  0  0  0  0  0
  161.0920  211.3920  154.1120 C   0  0  0  0  0  2  0  0  0  0  0  0
  159.9290  208.6600  156.4600 C   0  0  0  0  0  3  0  0  0  0  0  0
  161.4620  207.3660  148.7040 C   0  0  0  0  0  2  0  0  0  0  0  0
  160.3870  206.3340  148.3730 C   0  0  0  0  0  2  0  0  0  0  0  0
  162.3520  204.8020  148.6360 C   0  0  0  0  0  2  0  0  0  0  0  0
  161.4290  204.1120  147.6630 C   0  0  1  0  0  0  0  0  0  0  0  0
  160.8310  204.9340  148.7950 C   0  0  2  0  0  3  0  0  0  0  0  0
  160.9540  202.1870  146.4480 O   0  0  0  0  0  0  0  0  0  0  0  0
  161.3130  204.5720  146.2110 C   0  0  1  0  0  3  0  0  0  0  0  0
  161.1980  201.9470  148.7610 O   0  0  0  0  0  0  0  0  0  0  0  0
  162.3890  203.9530  145.3060 C   0  0  0  0  0  2  0  0  0  0  0  0
  161.0640  203.2390  145.4840 C   0  0  1  0  0  0  0  0  0  0  0  0
  161.2060  202.6600  147.7190 C   0  0  0  0  0  0  0  0  0  0  0  0
  160.0810  203.3410  144.5030 O   0  0  0  0  0  1  0  0  0  0  0  0
  3  6  1  0  0  0  0
  3  4  1  0  0  0  0
  4 15  1  6  0  0  0
  4  5  1  0  0  0  0
  5  2  1  1  0  0  0
  5 23  1  0  0  0  0
  6 29  1  6  0  0  0
  6  7  1  0  0  0  0
  7  1  1  6  0  0  0
  7  5  1  0  0  0  0
  8 15  2  0  0  0  0
  9 11  1  0  0  0  0
 10 12  2  0  0  0  0
 10 17  1  0  0  0  0
 12 13  1  0  0  0  0
 13 18  1  6  0  0  0
 13  8  1  0  0  0  0
 14 11  2  0  0  0  0
 15 14  1  0  0  0  0
 16  8  1  0  0  0  0
 17 16  2  0  0  0  0
 18  9  2  0  0  0  0
 19 22  1  0  0  0  0
 20 19  2  0  0  0  0
 20 26  1  0  0  0  0
 22 24  2  0  0  0  0
 23 25  1  1  0  0  0
 23 20  1  0  0  0  0
 24 28  1  0  0  0  0
 25 27  1  0  0  0  0
 26 21  1  0  0  0  0
 26 28  2  0  0  0  0
 27 21  1  0  0  0  0
 30 29  1  0  0  0  0
 31 33  1  0  0  0  0
 32 39  1  0  0  0  0
 32 31  1  1  0  0  0
 32 33  1  0  0  0  0
 33 30  1  6  0  0  0
 34 39  1  0  0  0  0
 35 37  1  6  0  0  0
 35 32  1  0  0  0  0
 37 38  1  0  0  0  0
 38 40  1  6  0  0  0
 38 35  1  0  0  0  0
 38 34  1  0  0  0  0
 39 36  2  0  0  0  0
M  END
>  <MODEL>
4

>  <REMARK>
 VINA RESULT:      -4.5      2.145      3.479
  Name = 
  5 active torsions:
  status: ('A' for Active; 'I' for Inactive)
    1  A    between atoms: C_4  and  C_14
    2  A    between atoms: C_8  and  C_14
    3  A    between atoms: C_8  and  C_29
    4  A    between atoms: C_17  and  C_25
    5  A    between atoms: C_27  and  C_28
                            x       y       z     vdW  Elec       q    Type
                         _______ _______ _______ _____ _____    ______ ____

>  <TORSDO>
F 5

$$$$
=
 OpenBabel11072415173D

 40 47  0  0  1  0  0  0  0  0999 V2000
  162.9130  207.9830  149.0560 C   0  0  0  0  0  1  0  0  0  0  0  0
  160.2090  207.9330  151.6020 O   0  0  0  0  0  1  0  0  0  0  0  0
  162.1120  210.3770  150.8900 N   0  0  0  0  0  2  0  0  0  0  0  0
  162.2370  209.2540  151.8170 C   0  0  2  0  0  3  0  0  0  0  0  0
  161.5470  208.0130  151.2010 C   0  0  2  0  0  0  0  0  0  0  0  0
  161.3780  209.8590  149.7440 C   0  0  2  0  0  3  0  0  0  0  0  0
  161.5730  208.3460  149.7110 C   0  0  1  0  0  3  0  0  0  0  0  0
  161.0620  210.9490  153.4440 C   0  0  0  0  0  0  0  0  0  0  0  0
  160.4230  209.5600  155.9900 C   0  0  0  0  0  3  0  0  0  0  0  0
  158.6940  211.7920  152.0090 C   0  0  0  0  0  3  0  0  0  0  0  0
  161.5820  209.0020  155.6220 C   0  0  0  0  0  3  0  0  0  0  0  0
  158.5370  211.0770  153.0830 N   0  0  0  0  0  0  0  0  0  0  0  0
  159.6450  210.6710  153.8970 C   0  0  0  0  0  0  0  0  0  0  0  0
  162.0690  208.8390  154.2370 C   0  0  0  0  0  3  0  0  0  0  0  0
  161.8210  209.6630  153.2130 C   0  0  0  0  0  0  0  0  0  0  0  0
  161.1140  211.8920  152.2650 C   0  0  0  0  0  2  0  0  0  0  0  0
  160.0250  212.2530  151.5850 C   0  0  0  0  0  3  0  0  0  0  0  0
  159.3980  210.1080  155.0800 C   0  0  0  0  0  3  0  0  0  0  0  0
  161.9240  205.3140  149.5080 N   0  0  0  0  0  0  0  0  0  0  0  0
  161.7340  205.4750  150.8470 C   0  0  0  0  0  0  0  0  0  0  0  0
  160.8310  204.6570  153.0530 C   0  0  0  0  0  2  0  0  0  0  0  0
  161.4070  204.2490  148.8400 C   0  0  0  0  0  3  0  0  0  0  0  0
  162.2790  206.6910  151.5620 C   0  0  2  0  0  3  0  0  0  0  0  0
  160.6540  203.2930  149.5180 C   0  0  0  0  0  3  0  0  0  0  0  0
  162.4170  206.4890  152.9620 O   0  0  0  0  0  0  0  0  0  0  0  0
  160.9870  204.5330  151.5670 C   0  0  0  0  0  0  0  0  0  0  0  0
  161.1810  206.0730  153.5080 C   0  0  0  0  0  2  0  0  0  0  0  0
  160.4480  203.4350  150.8950 C   0  0  0  0  0  3  0  0  0  0  0  0
  161.7600  210.5960  148.4640 C   0  0  0  0  0  2  0  0  0  0  0  0
  162.2440  212.0130  148.7620 C   0  0  0  0  0  2  0  0  0  0  0  0
  162.7320  214.1700  147.5850 C   0  0  0  0  0  2  0  0  0  0  0  0
  161.8800  213.3720  146.6290 C   0  0  1  0  0  0  0  0  0  0  0  0
  162.8740  212.6440  147.5210 C   0  0  2  0  0  3  0  0  0  0  0  0
  160.9790  213.1960  144.4930 O   0  0  0  0  0  0  0  0  0  0  0  0
  160.3750  213.2190  146.8390 C   0  0  1  0  0  3  0  0  0  0  0  0
  163.3000  213.4310  144.6470 O   0  0  0  0  0  0  0  0  0  0  0  0
  159.5720  214.3870  146.2490 C   0  0  0  0  0  2  0  0  0  0  0  0
  159.8640  213.1740  145.3890 C   0  0  1  0  0  0  0  0  0  0  0  0
  162.1610  213.3560  145.1860 C   0  0  0  0  0  0  0  0  0  0  0  0
  158.8820  212.2040  145.1980 O   0  0  0  0  0  1  0  0  0  0  0  0
  3  4  1  0  0  0  0
  4 15  1  1  0  0  0
  5 23  1  0  0  0  0
  5  2  1  1  0  0  0
  5  4  1  0  0  0  0
  6 29  1  6  0  0  0
  6  3  1  0  0  0  0
  7  1  1  1  0  0  0
  7  6  1  0  0  0  0
  7  5  1  0  0  0  0
  8 13  1  0  0  0  0
 10 12  1  0  0  0  0
 11  9  1  0  0  0  0
 12 13  2  0  0  0  0
 13 18  1  0  0  0  0
 14 11  2  0  0  0  0
 15  8  2  0  0  0  0
 15 14  1  0  0  0  0
 16  8  1  0  0  0  0
 17 10  2  0  0  0  0
 17 16  1  0  0  0  0
 18  9  2  0  0  0  0
 19 20  1  0  0  0  0
 20 26  2  0  0  0  0
 21 27  1  0  0  0  0
 22 19  2  0  0  0  0
 22 24  1  0  0  0  0
 23 20  1  1  0  0  0
 23 25  1  0  0  0  0
 24 28  2  0  0  0  0
 25 27  1  0  0  0  0
 26 21  1  0  0  0  0
 28 26  1  0  0  0  0
 29 30  1  0  0  0  0
 32 35  1  0  0  0  0
 32 33  1  0  0  0  0
 32 31  1  1  0  0  0
 33 31  1  0  0  0  0
 33 30  1  1  0  0  0
 34 39  1  0  0  0  0
 34 38  1  0  0  0  0
 35 37  1  1  0  0  0
 36 39  2  0  0  0  0
 38 40  1  6  0  0  0
 38 37  1  0  0  0  0
 38 35  1  0  0  0  0
 39 32  1  0  0  0  0
M  END
>  <MODEL>
5

>  <REMARK>
 VINA RESULT:      -4.4      3.026      7.836
  Name = 
  5 active torsions:
  status: ('A' for Active; 'I' for Inactive)
    1  A    between atoms: C_4  and  C_14
    2  A    between atoms: C_8  and  C_14
    3  A    between atoms: C_8  and  C_29
    4  A    between atoms: C_17  and  C_25
    5  A    between atoms: C_27  and  C_28
                            x       y       z     vdW  Elec       q    Type
                         _______ _______ _______ _____ _____    ______ ____

>  <TORSDO>
F 5

$$$$
=
 OpenBabel11072415173D

 40 47  0  0  1  0  0  0  0  0999 V2000
  161.3730  210.1310  151.0100 C   0  0  0  0  0  1  0  0  0  0  0  0
  162.5790  206.6970  151.7500 O   0  0  0  0  0  1  0  0  0  0  0  0
  161.6170  207.8140  148.9350 N   0  0  0  0  0  2  0  0  0  0  0  0
  160.9100  207.2040  150.0590 C   0  0  2  0  0  3  0  0  0  0  0  0
  161.6000  207.6250  151.3780 C   0  0  2  0  0  0  0  0  0  0  0  0
  162.7000  208.5870  149.5270 C   0  0  2  0  0  3  0  0  0  0  0  0
  162.3070  208.9140  150.9640 C   0  0  1  0  0  3  0  0  0  0  0  0
  160.4600  205.1950  148.4270 C   0  0  0  0  0  0  0  0  0  0  0  0
  161.2890  202.6680  149.7500 C   0  0  0  0  0  3  0  0  0  0  0  0
  162.0550  205.8040  146.0890 C   0  0  0  0  0  3  0  0  0  0  0  0
  160.8100  203.4000  150.7640 C   0  0  0  0  0  3  0  0  0  0  0  0
  162.3960  204.7800  146.8130 N   0  0  0  0  0  0  0  0  0  0  0  0
  161.6290  204.3600  147.9480 C   0  0  0  0  0  0  0  0  0  0  0  0
  160.8100  204.8750  150.8490 C   0  0  0  0  0  3  0  0  0  0  0  0
  160.7040  205.7230  149.8210 C   0  0  0  0  0  0  0  0  0  0  0  0
  160.0820  206.2730  147.4380 C   0  0  0  0  0  2  0  0  0  0  0  0
  160.8360  206.5730  146.3790 C   0  0  0  0  0  3  0  0  0  0  0  0
  161.9260  203.1960  148.5270 C   0  0  0  0  0  3  0  0  0  0  0  0
  161.1700  210.0860  153.3900 N   0  0  0  0  0  0  0  0  0  0  0  0
  161.0660  208.7490  153.6250 C   0  0  0  0  0  0  0  0  0  0  0  0
  161.2730  206.7660  155.1670 C   0  0  0  0  0  2  0  0  0  0  0  0
  161.6370  210.9410  154.3390 C   0  0  0  0  0  3  0  0  0  0  0  0
  160.5870  207.8100  152.5400 C   0  0  2  0  0  3  0  0  0  0  0  0
  162.0340  210.4580  155.5850 C   0  0  0  0  0  3  0  0  0  0  0  0
  160.0930  206.5820  153.0570 O   0  0  0  0  0  0  0  0  0  0  0  0
  161.4500  208.2240  154.8680 C   0  0  0  0  0  0  0  0  0  0  0  0
  161.0760  205.9770  153.8730 C   0  0  0  0  0  2  0  0  0  0  0  0
  161.9330  209.0880  155.8510 C   0  0  0  0  0  3  0  0  0  0  0  0
  163.0630  209.7870  148.6570 C   0  0  0  0  0  2  0  0  0  0  0  0
  161.8480  210.6770  148.4050 C   0  0  0  0  0  2  0  0  0  0  0  0
  161.3400  213.1260  148.5510 C   0  0  0  0  0  2  0  0  0  0  0  0
  161.2580  212.7830  147.0840 C   0  0  1  0  0  0  0  0  0  0  0  0
  162.2830  212.0720  147.9550 C   0  0  2  0  0  3  0  0  0  0  0  0
  161.0440  213.5610  144.9040 O   0  0  0  0  0  0  0  0  0  0  0  0
  160.0600  212.0330  146.5060 C   0  0  1  0  0  3  0  0  0  0  0  0
  162.7950  214.4440  146.1750 O   0  0  0  0  0  0  0  0  0  0  0  0
  158.8980  212.9660  146.1380 C   0  0  0  0  0  2  0  0  0  0  0  0
  159.9570  212.6510  145.1010 C   0  0  1  0  0  0  0  0  0  0  0  0
  161.7900  213.6900  146.0570 C   0  0  0  0  0  0  0  0  0  0  0  0
  159.7060  211.7000  144.1150 O   0  0  0  0  0  1  0  0  0  0  0  0
  3  6  1  0  0  0  0
  3  4  1  0  0  0  0
  4 15  1  6  0  0  0
  4  5  1  0  0  0  0
  5  2  1  1  0  0  0
  5 23  1  0  0  0  0
  6 29  1  6  0  0  0
  6  7  1  0  0  0  0
  7  1  1  6  0  0  0
  7  5  1  0  0  0  0
  8 15  2  0  0  0  0
  9 11  1  0  0  0  0
 10 17  2  0  0  0  0
 10 12  1  0  0  0  0
 11 14  2  0  0  0  0
 12 13  2  0  0  0  0
 13  8  1  0  0  0  0
 13 18  1  0  0  0  0
 15 14  1  0  0  0  0
 16  8  1  0  0  0  0
 17 16  1  0  0  0  0
 18  9  2  0  0  0  0
 19 20  2  0  0  0  0
 19 22  1  0  0  0  0
 20 26  1  0  0  0  0
 22 24  2  0  0  0  0
 23 25  1  1  0  0  0
 23 20  1  0  0  0  0
 24 28  1  0  0  0  0
 25 27  1  0  0  0  0
 26 21  1  0  0  0  0
 26 28  2  0  0  0  0
 27 21  1  0  0  0  0
 30 29  1  0  0  0  0
 32 33  1  0  0  0  0
 32 31  1  1  0  0  0
 33 30  1  1  0  0  0
 33 31  1  0  0  0  0
 34 38  1  0  0  0  0
 34 39  1  0  0  0  0
 35 37  1  1  0  0  0
 35 32  1  0  0  0  0
 38 40  1  6  0  0  0
 38 37  1  0  0  0  0
 38 35  1  0  0  0  0
 39 36  2  0  0  0  0
 39 32  1  0  0  0  0
M  END
>  <MODEL>
6

>  <REMARK>
 VINA RESULT:      -4.0      3.270      7.491
  Name = 
  5 active torsions:
  status: ('A' for Active; 'I' for Inactive)
    1  A    between atoms: C_4  and  C_14
    2  A    between atoms: C_8  and  C_14
    3  A    between atoms: C_8  and  C_29
    4  A    between atoms: C_17  and  C_25
    5  A    between atoms: C_27  and  C_28
                            x       y       z     vdW  Elec       q    Type
                         _______ _______ _______ _____ _____    ______ ____

>  <TORSDO>
F 5

$$$$
=
 OpenBabel11072415173D

 40 47  0  0  1  0  0  0  0  0999 V2000
  162.9070  207.0430  147.6130 C   0  0  0  0  0  1  0  0  0  0  0  0
  160.2870  206.4450  150.1760 O   0  0  0  0  0  1  0  0  0  0  0  0
  162.4090  208.8100  150.1350 N   0  0  0  0  0  2  0  0  0  0  0  0
  162.4450  207.4490  150.6640 C   0  0  2  0  0  3  0  0  0  0  0  0
  161.6140  206.5260  149.7410 C   0  0  2  0  0  0  0  0  0  0  0  0
  161.5930  208.7410  148.9310 C   0  0  2  0  0  3  0  0  0  0  0  0
  161.6310  207.3020  148.4250 C   0  0  1  0  0  3  0  0  0  0  0  0
  161.9190  208.7340  152.8940 C   0  0  0  0  0  0  0  0  0  0  0  0
  160.5660  206.8830  154.7820 C   0  0  0  0  0  3  0  0  0  0  0  0
  160.2170  210.9250  152.0700 C   0  0  0  0  0  3  0  0  0  0  0  0
  161.4300  206.0860  154.1420 C   0  0  0  0  0  3  0  0  0  0  0  0
  159.6970  209.9920  152.8100 N   0  0  0  0  0  2  0  0  0  0  0  0
  160.4770  208.9040  153.3220 C   0  0  0  0  0  0  0  0  0  0  0  0
  161.9240  206.2690  152.7610 C   0  0  0  0  0  3  0  0  0  0  0  0
  162.1140  207.4390  152.1410 C   0  0  0  0  0  0  0  0  0  0  0  0
  162.4430  209.9410  152.1510 C   0  0  0  0  0  3  0  0  0  0  0  0
  161.6510  210.9340  151.7440 C   0  0  0  0  0  3  0  0  0  0  0  0
  159.9280  208.0930  154.2260 C   0  0  0  0  0  3  0  0  0  0  0  0
  162.2890  204.7380  147.1650 N   0  0  0  0  0  0  0  0  0  0  0  0
  161.8130  204.3550  148.3820 C   0  0  0  0  0  0  0  0  0  0  0  0
  160.4280  202.8130  149.8150 C   0  0  0  0  0  2  0  0  0  0  0  0
  161.9060  204.1080  146.0220 C   0  0  0  0  0  3  0  0  0  0  0  0
  162.2170  205.0990  149.6350 C   0  0  2  0  0  3  0  0  0  0  0  0
  160.9990  203.0510  146.0730 C   0  0  0  0  0  3  0  0  0  0  0  0
  162.0390  204.3250  150.8140 O   0  0  0  0  0  0  0  0  0  0  0  0
  160.9040  203.2930  148.4770 C   0  0  0  0  0  0  0  0  0  0  0  0
  160.7040  203.8670  150.8870 C   0  0  0  0  0  2  0  0  0  0  0  0
  160.5000  202.6380  147.3130 C   0  0  0  0  0  3  0  0  0  0  0  0
  162.0110  209.8030  147.9180 C   0  0  0  0  0  2  0  0  0  0  0  0
  160.9410  210.8810  147.7690 C   0  0  0  0  0  2  0  0  0  0  0  0
  160.5870  213.3590  147.6610 C   0  0  0  0  0  2  0  0  0  0  0  0
  160.8390  212.9250  146.2380 C   0  0  1  0  0  0  0  0  0  0  0  0
  161.5690  212.2160  147.3700 C   0  0  2  0  0  3  0  0  0  0  0  0
  161.2150  213.5670  144.0360 O   0  0  0  0  0  0  0  0  0  0  0  0
  159.7670  212.2060  145.4220 C   0  0  1  0  0  3  0  0  0  0  0  0
  162.6640  214.4330  145.6530 O   0  0  0  0  0  0  0  0  0  0  0  0
  158.7980  213.1760  144.7320 C   0  0  0  0  0  2  0  0  0  0  0  0
  160.0520  212.7340  144.0060 C   0  0  1  0  0  0  0  0  0  0  0  0
  161.6670  213.7300  145.3290 C   0  0  0  0  0  0  0  0  0  0  0  0
  159.9800  211.7350  143.0380 O   0  0  0  0  0  1  0  0  0  0  0  0
  3  4  1  0  0  0  0
  4 15  1  1  0  0  0
  5  2  1  1  0  0  0
  5  4  1  0  0  0  0
  6 29  1  6  0  0  0
  6  3  1  0  0  0  0
  7  1  1  1  0  0  0
  7  6  1  0  0  0  0
  7  5  1  0  0  0  0
  8 13  1  0  0  0  0
 10 12  1  0  0  0  0
 11  9  2  0  0  0  0
 12 13  1  0  0  0  0
 13 18  2  0  0  0  0
 14 11  1  0  0  0  0
 15 14  2  0  0  0  0
 15  8  1  0  0  0  0
 16  8  2  0  0  0  0
 17 10  2  0  0  0  0
 17 16  1  0  0  0  0
 18  9  1  0  0  0  0
 19 20  1  0  0  0  0
 20 26  2  0  0  0  0
 21 27  1  0  0  0  0
 22 24  1  0  0  0  0
 22 19  2  0  0  0  0
 23 20  1  6  0  0  0
 23  5  1  0  0  0  0
 23 25  1  0  0  0  0
 24 28  2  0  0  0  0
 25 27  1  0  0  0  0
 26 21  1  0  0  0  0
 28 26  1  0  0  0  0
 30 29  1  0  0  0  0
 32 33  1  0  0  0  0
 32 31  1  1  0  0  0
 33 31  1  0  0  0  0
 33 30  1  1  0  0  0
 34 39  1  0  0  0  0
 35 37  1  1  0  0  0
 35 32  1  0  0  0  0
 38 40  1  6  0  0  0
 38 34  1  0  0  0  0
 38 37  1  0  0  0  0
 38 35  1  0  0  0  0
 39 36  2  0  0  0  0
 39 32  1  0  0  0  0
M  END
>  <MODEL>
7

>  <REMARK>
 VINA RESULT:      -3.0      3.341      8.899
  Name = 
  5 active torsions:
  status: ('A' for Active; 'I' for Inactive)
    1  A    between atoms: C_4  and  C_14
    2  A    between atoms: C_8  and  C_14
    3  A    between atoms: C_8  and  C_29
    4  A    between atoms: C_17  and  C_25
    5  A    between atoms: C_27  and  C_28
                            x       y       z     vdW  Elec       q    Type
                         _______ _______ _______ _____ _____    ______ ____

>  <TORSDO>
F 5

$$$$
=
 OpenBabel11072415173D

 40 47  0  0  1  0  0  0  0  0999 V2000
  160.2710  208.8750  151.6970 C   0  0  0  0  0  1  0  0  0  0  0  0
  161.1730  212.2320  153.0040 O   0  0  0  0  0  1  0  0  0  0  0  0
  159.7240  209.8940  154.5950 N   0  0  0  0  0  2  0  0  0  0  0  0
  159.2310  210.9750  153.7450 C   0  0  2  0  0  3  0  0  0  0  0  0
  160.2590  211.2440  152.6210 C   0  0  2  0  0  0  0  0  0  0  0  0
  161.0050  209.5010  154.0250 C   0  0  2  0  0  3  0  0  0  0  0  0
  161.0070  209.9130  152.5560 C   0  0  1  0  0  3  0  0  0  0  0  0
  157.3220  212.4070  154.8450 C   0  0  1  0  0  3  0  0  0  0  0  0
  158.4780  214.0370  157.0410 C   0  0  0  0  0  3  0  0  0  0  0  0
  155.4170  210.4460  155.7960 C   0  0  0  0  0  3  0  0  0  0  0  0
  159.4590  214.0140  156.1310 C   0  0  0  0  0  3  0  0  0  0  0  0
  156.0690  211.1430  156.6780 N   0  0  0  0  0  0  0  0  0  0  0  0
  156.9820  212.1830  156.3020 C   0  0  0  0  0  0  0  0  0  0  0  0
  159.7130  212.9360  155.1520 C   0  0  0  0  0  3  0  0  0  0  0  0
  158.7890  212.1550  154.5830 C   0  0  0  0  0  0  0  0  0  0  0  0
  156.4100  211.6370  153.9180 C   0  0  0  0  0  3  0  0  0  0  0  0
  155.5570  210.7100  154.3560 C   0  0  0  0  0  3  0  0  0  0  0  0
  157.4670  212.9820  157.2530 C   0  0  0  0  0  3  0  0  0  0  0  0
  161.4080  211.2610  149.6260 N   0  0  0  0  0  0  0  0  0  0  0  0
  160.5500  212.1300  150.2280 C   0  0  0  0  0  0  0  0  0  0  0  0
  159.6060  214.4510  150.5020 C   0  0  0  0  0  2  0  0  0  0  0  0
  162.3150  211.6790  148.7040 C   0  0  0  0  0  3  0  0  0  0  0  0
  159.5810  211.6490  151.2850 C   0  0  2  0  0  3  0  0  0  0  0  0
  162.3920  213.0270  148.3580 C   0  0  0  0  0  3  0  0  0  0  0  0
  158.4780  212.5290  151.4580 O   0  0  0  0  0  0  0  0  0  0  0  0
  160.5920  213.4930  149.9030 C   0  0  0  0  0  0  0  0  0  0  0  0
  158.9470  213.8330  151.7350 C   0  0  0  0  0  2  0  0  0  0  0  0
  161.5180  213.9390  148.9600 C   0  0  0  0  0  3  0  0  0  0  0  0
  161.3020  208.0280  154.2920 C   0  0  0  0  0  2  0  0  0  0  0  0
  161.9490  207.3630  153.0800 C   0  0  0  0  0  2  0  0  0  0  0  0
  162.8770  205.1080  152.5060 C   0  0  0  0  0  2  0  0  0  0  0  0
  161.6250  205.2520  151.6770 C   0  0  1  0  0  0  0  0  0  0  0  0
  161.6650  205.8610  153.0700 C   0  0  2  0  0  3  0  0  0  0  0  0
  160.1000  204.2370  150.2460 O   0  0  0  0  0  0  0  0  0  0  0  0
  161.5910  206.1370  150.4320 C   0  0  1  0  0  3  0  0  0  0  0  0
  160.4560  203.2100  152.3160 O   0  0  0  0  0  0  0  0  0  0  0  0
  162.0890  205.4110  149.1750 C   0  0  0  0  0  2  0  0  0  0  0  0
  160.6160  205.3620  149.5290 C   0  0  1  0  0  0  0  0  0  0  0  0
  160.7040  204.1240  151.4810 C   0  0  0  0  0  0  0  0  0  0  0  0
  159.7140  206.1980  148.8740 O   0  0  0  0  0  1  0  0  0  0  0  0
  4 15  1  1  0  0  0
  4  3  1  0  0  0  0
  5  2  1  1  0  0  0
  5  4  1  0  0  0  0
  6 29  1  6  0  0  0
  6  3  1  0  0  0  0
  7  1  1  6  0  0  0
  7  5  1  0  0  0  0
  7  6  1  0  0  0  0
  8 16  1  6  0  0  0
  8 13  1  0  0  0  0
  9 18  1  0  0  0  0
 10 12  2  0  0  0  0
 11  9  2  0  0  0  0
 13 12  1  0  0  0  0
 13 18  2  0  0  0  0
 14 11  1  0  0  0  0
 15  8  1  0  0  0  0
 15 14  2  0  0  0  0
 16 17  2  0  0  0  0
 17 10  1  0  0  0  0
 19 20  1  0  0  0  0
 21 27  1  0  0  0  0
 22 19  2  0  0  0  0
 23 20  1  6  0  0  0
 23 25  1  0  0  0  0
 23  5  1  0  0  0  0
 24 22  1  0  0  0  0
 24 28  2  0  0  0  0
 25 27  1  0  0  0  0
 26 20  2  0  0  0  0
 26 21  1  0  0  0  0
 28 26  1  0  0  0  0
 30 29  1  0  0  0  0
 31 33  1  0  0  0  0
 32 31  1  6  0  0  0
 32 33  1  0  0  0  0
 33 30  1  6  0  0  0
 34 39  1  0  0  0  0
 35 37  1  6  0  0  0
 35 32  1  0  0  0  0
 37 38  1  0  0  0  0
 38 40  1  6  0  0  0
 38 34  1  0  0  0  0
 38 35  1  0  0  0  0
 39 32  1  0  0  0  0
 39 36  2  0  0  0  0
M  END
>  <MODEL>
8

>  <REMARK>
 VINA RESULT:      -2.8      1.773      5.821
  Name = 
  5 active torsions:
  status: ('A' for Active; 'I' for Inactive)
    1  A    between atoms: C_4  and  C_14
    2  A    between atoms: C_8  and  C_14
    3  A    between atoms: C_8  and  C_29
    4  A    between atoms: C_17  and  C_25
    5  A    between atoms: C_27  and  C_28
                            x       y       z     vdW  Elec       q    Type
                         _______ _______ _______ _____ _____    ______ ____

>  <TORSDO>
F 5

$$$$
=
 OpenBabel11072415173D

 40 47  0  0  1  0  0  0  0  0999 V2000
  161.4920  211.1610  153.7030 C   0  0  0  0  0  1  0  0  0  0  0  0
  158.0850  211.4990  152.2640 O   0  0  0  0  0  1  0  0  0  0  0  0
  160.8300  211.4230  150.6650 N   0  0  0  0  0  2  0  0  0  0  0  0
  160.0670  212.5050  151.2840 C   0  0  2  0  0  3  0  0  0  0  0  0
  159.3710  211.9680  152.5570 C   0  0  2  0  0  0  0  0  0  0  0  0
  160.6220  210.2600  151.5170 C   0  0  2  0  0  3  0  0  0  0  0  0
  160.2420  210.7630  152.9060 C   0  0  1  0  0  3  0  0  0  0  0  0
  159.8300  213.9930  149.1310 C   0  0  0  0  0  0  0  0  0  0  0  0
  157.1180  213.6080  147.9830 C   0  0  0  0  0  3  0  0  0  0  0  0
  161.9280  213.0460  147.3750 C   0  0  0  0  0  3  0  0  0  0  0  0
  156.9040  213.5280  149.3020 C   0  0  0  0  0  3  0  0  0  0  0  0
  160.6940  212.8310  147.0270 N   0  0  0  0  0  0  0  0  0  0  0  0
  159.5890  213.3210  147.7960 C   0  0  2  0  0  3  0  0  0  0  0  0
  157.8740  213.0620  150.3150 C   0  0  0  0  0  3  0  0  0  0  0  0
  159.2020  213.2050  150.2580 C   0  0  0  0  0  0  0  0  0  0  0  0
  161.2900  214.3030  149.3620 C   0  0  0  0  0  3  0  0  0  0  0  0
  162.2580  213.8380  148.5700 C   0  0  0  0  0  3  0  0  0  0  0  0
  158.3620  213.2300  147.2830 C   0  0  0  0  0  3  0  0  0  0  0  0
  158.7890  211.6440  155.6940 N   0  0  0  0  0  0  0  0  0  0  0  0
  158.4100  212.6360  154.8430 C   0  0  0  0  0  0  0  0  0  0  0  0
  156.7700  214.4110  154.1280 C   0  0  0  0  0  2  0  0  0  0  0  0
  157.9920  211.2430  156.7200 C   0  0  0  0  0  3  0  0  0  0  0  0
  159.2940  213.0350  153.6820 C   0  0  2  0  0  3  0  0  0  0  0  0
  156.7480  211.8410  156.9170 C   0  0  0  0  0  3  0  0  0  0  0  0
  159.0090  214.3410  153.2000 O   0  0  0  0  0  0  0  0  0  0  0  0
  157.1700  213.2680  155.0110 C   0  0  0  0  0  0  0  0  0  0  0  0
  157.6380  214.4410  152.8710 C   0  0  0  0  0  2  0  0  0  0  0  0
  156.3390  212.8660  156.0580 C   0  0  0  0  0  3  0  0  0  0  0  0
  161.8200  209.3170  151.4670 C   0  0  0  0  0  2  0  0  0  0  0  0
  161.8670  208.5480  150.1490 C   0  0  0  0  0  2  0  0  0  0  0  0
  160.5930  206.4080  150.4200 C   0  0  0  0  0  2  0  0  0  0  0  0
  161.3570  206.5890  151.7080 C   0  0  1  0  0  0  0  0  0  0  0  0
  161.9890  207.0460  150.4010 C   0  0  2  0  0  3  0  0  0  0  0  0
  162.0020  205.6720  153.7440 O   0  0  0  0  0  0  0  0  0  0  0  0
  160.9130  207.6010  152.7630 C   0  0  1  0  0  3  0  0  0  0  0  0
  162.5110  204.4440  151.8220 O   0  0  0  0  0  0  0  0  0  0  0  0
  159.8520  207.0350  153.7170 C   0  0  0  0  0  2  0  0  0  0  0  0
  161.3190  206.8880  154.0640 C   0  0  1  0  0  0  0  0  0  0  0  0
  161.9980  205.4510  152.3830 C   0  0  0  0  0  0  0  0  0  0  0  0
  161.9060  207.7510  154.9860 O   0  0  0  0  0  1  0  0  0  0  0  0
  3  4  1  0  0  0  0
  3  6  1  0  0  0  0
  4 15  1  6  0  0  0
  4  5  1  0  0  0  0
  5  2  1  6  0  0  0
  5  7  1  0  0  0  0
  5 23  1  0  0  0  0
  6 29  1  1  0  0  0
  6  7  1  0  0  0  0
  7  1  1  1  0  0  0
  8 16  1  0  0  0  0
  8 15  2  0  0  0  0
  9 11  1  0  0  0  0
 10 17  1  0  0  0  0
 11 14  2  0  0  0  0
 12 10  2  0  0  0  0
 12 13  1  0  0  0  0
 13 18  1  6  0  0  0
 13  8  1  0  0  0  0
 15 14  1  0  0  0  0
 17 16  2  0  0  0  0
 18  9  2  0  0  0  0
 19 22  1  0  0  0  0
 20 26  1  0  0  0  0
 20 19  2  0  0  0  0
 21 26  1  0  0  0  0
 22 24  2  0  0  0  0
 23 25  1  6  0  0  0
 23 20  1  0  0  0  0
 26 28  2  0  0  0  0
 27 25  1  0  0  0  0
 27 21  1  0  0  0  0
 28 24  1  0  0  0  0
 30 29  1  0  0  0  0
 32 31  1  6  0  0  0
 32 39  1  0  0  0  0
 32 35  1  0  0  0  0
 33 30  1  1  0  0  0
 33 31  1  0  0  0  0
 33 32  1  0  0  0  0
 34 38  1  0  0  0  0
 35 37  1  1  0  0  0
 35 38  1  0  0  0  0
 36 39  2  0  0  0  0
 37 38  1  0  0  0  0
 38 40  1  1  0  0  0
 39 34  1  0  0  0  0
M  END
>  <MODEL>
9

>  <REMARK>
 VINA RESULT:      -2.8      1.496      2.109
  Name = 
  5 active torsions:
  status: ('A' for Active; 'I' for Inactive)
    1  A    between atoms: C_4  and  C_14
    2  A    between atoms: C_8  and  C_14
    3  A    between atoms: C_8  and  C_29
    4  A    between atoms: C_17  and  C_25
    5  A    between atoms: C_27  and  C_28
                            x       y       z     vdW  Elec       q    Type
                         _______ _______ _______ _____ _____    ______ ____

>  <TORSDO>
F 5

$$$$
