=
 OpenBabel11072412253D

 33 36  0  0  1  0  0  0  0  0999 V2000
  161.1670  208.5680  154.1350 O   0  0  0  0  0  0  0  0  0  0  0  0
  160.6170  210.0530  151.7050 N   0  0  0  0  0  0  0  0  0  0  0  0
  160.4420  209.5960  154.1310 C   0  0  0  0  0  0  0  0  0  0  0  0
  159.8550  210.0390  155.3600 N   0  0  0  0  0  0  0  0  0  0  0  0
  158.9920  211.0110  155.4020 C   0  0  0  0  0  0  0  0  0  0  0  0
  158.4370  211.4060  156.6510 N   0  0  0  0  0  1  0  0  0  0  0  0
  159.0840  211.3830  152.9760 C   0  0  0  0  0  0  0  0  0  0  0  0
  160.1120  210.3260  152.8770 C   0  0  0  0  0  0  0  0  0  0  0  0
  158.5680  211.7040  154.1690 C   0  0  0  0  0  3  0  0  0  0  0  0
  162.8880  209.5230  151.5580 O   0  0  0  0  0  0  0  0  0  0  0  0
  161.6920  209.1610  151.3800 C   0  0  0  0  0  0  0  0  0  0  0  0
  161.1690  206.7380  151.5470 C   0  0  0  0  0  3  0  0  0  0  0  0
  161.0530  206.4640  148.7730 C   0  0  0  0  0  3  0  0  0  0  0  0
  161.3920  207.8620  150.7370 C   0  0  0  0  0  0  0  0  0  0  0  0
  161.5430  208.7650  148.5040 F   0  0  0  0  0  0  0  0  0  0  0  0
  160.8320  205.3560  149.5930 C   0  0  0  0  0  3  0  0  0  0  0  0
  161.3330  207.7130  149.3350 C   0  0  0  0  0  0  0  0  0  0  0  0
  160.8920  205.4920  150.9800 C   0  0  0  0  0  3  0  0  0  0  0  0
  158.6740  212.0770  151.7910 N   0  0  0  0  0  2  0  0  0  0  0  0
  161.7290  211.8300  147.8610 C   0  0  0  0  0  3  0  0  0  0  0  0
  160.4510  213.8020  150.7460 N   0  0  0  0  0  2  0  0  0  0  0  0
  156.9210  213.5950  150.9360 C   0  0  0  0  0  2  0  0  0  0  0  0
  158.5420  214.4490  148.6610 O   0  0  0  0  0  0  0  0  0  0  0  0
  159.2800  214.4530  151.3280 C   0  0  0  0  0  2  0  0  0  0  0  0
  159.5870  213.5500  148.4160 C   0  0  0  0  0  0  0  0  0  0  0  0
  157.2100  214.0670  148.6940 N   0  0  0  0  0  0  0  0  0  0  0  0
  157.0860  213.0090  149.6120 N   0  0  0  0  0  2  0  0  0  0  0  0
  159.7070  212.9510  147.1550 C   0  0  0  0  0  3  0  0  0  0  0  0
  160.5410  213.2670  149.4170 C   0  0  0  0  0  0  0  0  0  0  0  0
  156.8790  213.5810  147.4740 O   0  0  0  0  0  1  0  0  0  0  0  0
  158.1960  213.4590  151.7700 C   0  0  2  0  0  3  0  0  0  0  0  0
  160.7730  212.0920  146.8770 C   0  0  0  0  0  3  0  0  0  0  0  0
  161.6110  212.4140  149.1240 C   0  0  0  0  0  3  0  0  0  0  0  0
  2  8  2  0  0  0  0
  3  1  2  0  0  0  0
  3  4  1  0  0  0  0
  4  5  2  0  0  0  0
  5  6  1  0  0  0  0
  7  9  2  0  0  0  0
  8  7  1  0  0  0  0
  8  3  1  0  0  0  0
  9  5  1  0  0  0  0
 11 10  2  0  0  0  0
 11  2  1  0  0  0  0
 13 17  2  0  0  0  0
 13 16  1  0  0  0  0
 14 11  1  0  0  0  0
 14 12  2  0  0  0  0
 15 17  1  0  0  0  0
 16 18  2  0  0  0  0
 17 14  1  0  0  0  0
 18 12  1  0  0  0  0
 19  7  1  0  0  0  0
 20 33  1  0  0  0  0
 21 24  1  0  0  0  0
 22 31  1  0  0  0  0
 23 26  1  0  0  0  0
 24 31  1  0  0  0  0
 25 23  1  0  0  0  0
 25 29  1  0  0  0  0
 26 27  1  0  0  0  0
 27 22  1  0  0  0  0
 28 25  2  0  0  0  0
 29 21  1  0  0  0  0
 30 26  1  0  0  0  0
 31 19  1  6  0  0  0
 32 28  1  0  0  0  0
 32 20  2  0  0  0  0
 33 29  2  0  0  0  0
M  END
>  <MODEL>
1

>  <REMARK>
 VINA RESULT:      -7.5      0.000      0.000
  Name = 
  4 active torsions:
  status: ('A' for Active; 'I' for Inactive)
    1  A    between atoms: N_1  and  C_24
    2  A    between atoms: N_1  and  C_29
    3  A    between atoms: N_6  and  C_21
    4  A    between atoms: C_13  and  C_21
                            x       y       z     vdW  Elec       q    Type
                         _______ _______ _______ _____ _____    ______ ____

>  <TORSDO>
F 4

$$$$
=
 OpenBabel11072412253D

 33 36  0  0  1  0  0  0  0  0999 V2000
  162.0010  207.6630  147.7160 O   0  0  0  0  0  0  0  0  0  0  0  0
  160.9220  207.2000  150.3690 N   0  0  0  0  0  0  0  0  0  0  0  0
  161.8680  208.5920  148.5540 C   0  0  0  0  0  0  0  0  0  0  0  0
  162.2780  209.9170  148.1950 N   0  0  0  0  0  0  0  0  0  0  0  0
  162.2930  210.8920  149.0550 C   0  0  0  0  0  0  0  0  0  0  0  0
  162.7140  212.1870  148.6440 N   0  0  0  0  0  1  0  0  0  0  0  0
  161.4620  209.4750  150.8830 C   0  0  0  0  0  0  0  0  0  0  0  0
  161.3690  208.3470  149.9340 C   0  0  0  0  0  0  0  0  0  0  0  0
  161.8910  210.6710  150.4590 C   0  0  0  0  0  3  0  0  0  0  0  0
  160.1400  206.0930  148.4660 O   0  0  0  0  0  0  0  0  0  0  0  0
  160.6390  206.0090  149.6210 C   0  0  0  0  0  0  0  0  0  0  0  0
  160.9190  204.6090  151.6550 C   0  0  0  0  0  3  0  0  0  0  0  0
  161.1490  202.2740  150.1450 C   0  0  0  0  0  3  0  0  0  0  0  0
  160.8370  204.6870  150.2560 C   0  0  0  0  0  0  0  0  0  0  0  0
  160.8880  203.5170  148.1450 F   0  0  0  0  0  0  0  0  0  0  0  0
  161.2280  202.2140  151.5370 C   0  0  0  0  0  3  0  0  0  0  0  0
  160.9570  203.5010  149.5010 C   0  0  0  0  0  0  0  0  0  0  0  0
  161.1140  203.3820  152.2930 C   0  0  0  0  0  3  0  0  0  0  0  0
  161.0600  209.2840  152.2450 N   0  0  0  0  0  2  0  0  0  0  0  0
  157.4110  212.0550  154.2080 C   0  0  0  0  0  3  0  0  0  0  0  0
  161.0550  211.3280  153.9910 N   0  0  0  0  0  2  0  0  0  0  0  0
  161.6470  207.8410  154.1640 C   0  0  0  0  0  2  0  0  0  0  0  0
  160.1840  209.5030  156.0690 O   0  0  0  0  0  0  0  0  0  0  0  0
  162.0980  210.3400  154.2540 C   0  0  0  0  0  2  0  0  0  0  0  0
  159.2630  210.3320  155.4170 C   0  0  0  0  0  0  0  0  0  0  0  0
  160.1870  208.1240  155.9300 N   0  0  0  0  0  0  0  0  0  0  0  0
  160.2440  207.8260  154.5580 N   0  0  0  0  0  2  0  0  0  0  0  0
  157.9070  210.2740  155.7660 C   0  0  0  0  0  3  0  0  0  0  0  0
  159.6930  211.2510  154.4360 C   0  0  0  0  0  0  0  0  0  0  0  0
  159.0070  207.6490  156.3960 O   0  0  0  0  0  1  0  0  0  0  0  0
  161.9880  209.0970  153.3590 C   0  0  2  0  0  3  0  0  0  0  0  0
  156.9830  211.1300  155.1640 C   0  0  0  0  0  3  0  0  0  0  0  0
  158.7590  212.1120  153.8460 C   0  0  0  0  0  3  0  0  0  0  0  0
  1  3  2  0  0  0  0
  3  8  1  0  0  0  0
  4  3  1  0  0  0  0
  4  5  2  0  0  0  0
  5  9  1  0  0  0  0
  6  5  1  0  0  0  0
  7 19  1  0  0  0  0
  8  2  2  0  0  0  0
  8  7  1  0  0  0  0
  9  7  2  0  0  0  0
 10 11  2  0  0  0  0
 11 14  1  0  0  0  0
 11  2  1  0  0  0  0
 12 18  1  0  0  0  0
 13 16  1  0  0  0  0
 14 12  2  0  0  0  0
 15 17  1  0  0  0  0
 16 18  2  0  0  0  0
 17 13  2  0  0  0  0
 17 14  1  0  0  0  0
 20 32  1  0  0  0  0
 21 24  1  0  0  0  0
 21 29  1  0  0  0  0
 22 27  1  0  0  0  0
 25 28  1  0  0  0  0
 25 23  1  0  0  0  0
 26 23  1  0  0  0  0
 26 30  1  0  0  0  0
 27 26  1  0  0  0  0
 29 25  2  0  0  0  0
 31 19  1  6  0  0  0
 31 22  1  0  0  0  0
 31 24  1  0  0  0  0
 32 28  2  0  0  0  0
 33 20  2  0  0  0  0
 33 29  1  0  0  0  0
M  END
>  <MODEL>
2

>  <REMARK>
 VINA RESULT:      -6.1      3.414      6.392
  Name = 
  4 active torsions:
  status: ('A' for Active; 'I' for Inactive)
    1  A    between atoms: N_1  and  C_24
    2  A    between atoms: N_1  and  C_29
    3  A    between atoms: N_6  and  C_21
    4  A    between atoms: C_13  and  C_21
                            x       y       z     vdW  Elec       q    Type
                         _______ _______ _______ _____ _____    ______ ____

>  <TORSDO>
F 4

$$$$
=
 OpenBabel11072412253D

 33 36  0  0  1  0  0  0  0  0999 V2000
  162.0720  206.9920  153.0330 O   0  0  0  0  0  0  0  0  0  0  0  0
  160.9650  209.6140  152.4710 N   0  0  0  0  0  0  0  0  0  0  0  0
  161.3830  207.6210  153.8770 C   0  0  0  0  0  0  0  0  0  0  0  0
  161.1210  207.0170  155.1500 N   0  0  0  0  0  0  0  0  0  0  0  0
  160.3090  207.5520  156.0130 C   0  0  0  0  0  0  0  0  0  0  0  0
  160.0820  206.9050  157.2600 N   0  0  0  0  0  1  0  0  0  0  0  0
  159.8100  209.4710  154.5630 C   0  0  0  0  0  0  0  0  0  0  0  0
  160.7660  208.9400  153.5710 C   0  0  0  0  0  0  0  0  0  0  0  0
  159.6060  208.8150  155.7130 C   0  0  0  0  0  3  0  0  0  0  0  0
  163.0080  209.9920  151.4020 O   0  0  0  0  0  0  0  0  0  0  0  0
  161.9160  209.3620  151.4270 C   0  0  0  0  0  0  0  0  0  0  0  0
  160.8440  207.2690  150.6230 C   0  0  0  0  0  3  0  0  0  0  0  0
  161.5700  207.7880  147.9790 C   0  0  0  0  0  3  0  0  0  0  0  0
  161.5590  208.4400  150.3260 C   0  0  0  0  0  0  0  0  0  0  0  0
  162.6180  209.8070  148.6410 F   0  0  0  0  0  0  0  0  0  0  0  0
  160.8590  206.6290  148.2920 C   0  0  0  0  0  3  0  0  0  0  0  0
  161.9240  208.6930  148.9860 C   0  0  0  0  0  0  0  0  0  0  0  0
  160.4970  206.3680  149.6140 C   0  0  0  0  0  3  0  0  0  0  0  0
  159.1320  210.7050  154.2960 N   0  0  0  0  0  2  0  0  0  0  0  0
  158.9210  213.3270  150.0620 C   0  0  0  0  0  3  0  0  0  0  0  0
  159.8110  213.2310  153.6740 N   0  0  0  0  0  2  0  0  0  0  0  0
  157.2420  211.6810  155.5540 C   0  0  0  0  0  2  0  0  0  0  0  0
  157.0060  213.9640  153.7480 O   0  0  0  0  0  0  0  0  0  0  0  0
  159.2940  213.0850  155.0320 C   0  0  0  0  0  2  0  0  0  0  0  0
  157.6450  213.7150  152.5270 C   0  0  0  0  0  0  0  0  0  0  0  0
  156.0120  213.1460  154.2610 N   0  0  0  0  0  0  0  0  0  0  0  0
  156.5110  211.8320  154.3020 N   0  0  0  0  0  2  0  0  0  0  0  0
  156.9210  213.8120  151.3320 C   0  0  0  0  0  3  0  0  0  0  0  0
  159.0200  213.3990  152.4880 C   0  0  0  0  0  0  0  0  0  0  0  0
  154.9710  213.1520  153.3950 O   0  0  0  0  0  1  0  0  0  0  0  0
  158.7540  211.6760  155.3220 C   0  0  2  0  0  3  0  0  0  0  0  0
  157.5550  213.6170  150.1030 C   0  0  0  0  0  3  0  0  0  0  0  0
  159.6470  213.2170  151.2490 C   0  0  0  0  0  3  0  0  0  0  0  0
  1  3  2  0  0  0  0
  2  8  2  0  0  0  0
  3  4  1  0  0  0  0
  4  5  2  0  0  0  0
  5  6  1  0  0  0  0
  7  9  2  0  0  0  0
  8  3  1  0  0  0  0
  8  7  1  0  0  0  0
  9  5  1  0  0  0  0
 10 11  2  0  0  0  0
 11  2  1  0  0  0  0
 13 16  2  0  0  0  0
 13 17  1  0  0  0  0
 14 12  1  0  0  0  0
 14 11  1  0  0  0  0
 15 17  1  0  0  0  0
 16 18  1  0  0  0  0
 17 14  2  0  0  0  0
 18 12  2  0  0  0  0
 19  7  1  0  0  0  0
 20 32  2  0  0  0  0
 20 33  1  0  0  0  0
 21 24  1  0  0  0  0
 23 26  1  0  0  0  0
 24 31  1  0  0  0  0
 25 23  1  0  0  0  0
 26 27  1  0  0  0  0
 27 22  1  0  0  0  0
 28 25  2  0  0  0  0
 29 25  1  0  0  0  0
 29 21  1  0  0  0  0
 30 26  1  0  0  0  0
 31 19  1  6  0  0  0
 31 22  1  0  0  0  0
 32 28  1  0  0  0  0
 33 29  2  0  0  0  0
M  END
>  <MODEL>
3

>  <REMARK>
 VINA RESULT:      -5.1      2.611      3.476
  Name = 
  4 active torsions:
  status: ('A' for Active; 'I' for Inactive)
    1  A    between atoms: N_1  and  C_24
    2  A    between atoms: N_1  and  C_29
    3  A    between atoms: N_6  and  C_21
    4  A    between atoms: C_13  and  C_21
                            x       y       z     vdW  Elec       q    Type
                         _______ _______ _______ _____ _____    ______ ____

>  <TORSDO>
F 4

$$$$
=
 OpenBabel11072412253D

 33 36  0  0  1  0  0  0  0  0999 V2000
  162.7020  209.7720  150.9610 O   0  0  0  0  0  0  0  0  0  0  0  0
  161.7380  209.1950  148.2860 N   0  0  0  0  0  0  0  0  0  0  0  0
  162.0400  208.7350  150.6990 C   0  0  0  0  0  0  0  0  0  0  0  0
  161.7690  207.7980  151.7490 N   0  0  0  0  0  0  0  0  0  0  0  0
  161.2090  206.6470  151.5200 C   0  0  0  0  0  0  0  0  0  0  0  0
  160.9680  205.7550  152.6010 N   0  0  0  0  0  1  0  0  0  0  0  0
  161.0170  207.0650  149.1070 C   0  0  0  0  0  0  0  0  0  0  0  0
  161.5950  208.4080  149.3170 C   0  0  0  0  0  0  0  0  0  0  0  0
  160.8330  206.2450  150.1500 C   0  0  0  0  0  3  0  0  0  0  0  0
  163.3920  210.8440  148.2230 O   0  0  0  0  0  0  0  0  0  0  0  0
  162.1630  210.5650  148.2590 C   0  0  0  0  0  0  0  0  0  0  0  0
  160.9920  212.2830  149.6200 C   0  0  0  0  0  3  0  0  0  0  0  0
  159.4000  213.0590  147.4640 C   0  0  0  0  0  3  0  0  0  0  0  0
  161.1550  211.6420  148.3820 C   0  0  0  0  0  0  0  0  0  0  0  0
  160.4560  211.4530  146.0800 F   0  0  0  0  0  0  0  0  0  0  0  0
  159.2510  213.6860  148.7020 C   0  0  0  0  0  3  0  0  0  0  0  0
  160.3440  212.0400  147.2980 C   0  0  0  0  0  0  0  0  0  0  0  0
  160.0460  213.2980  149.7810 C   0  0  0  0  0  3  0  0  0  0  0  0
  160.6300  206.6650  147.7860 N   0  0  0  0  0  2  0  0  0  0  0  0
  160.7840  201.8120  148.9120 C   0  0  0  0  0  3  0  0  0  0  0  0
  162.6020  204.8380  147.7350 N   0  0  0  0  0  2  0  0  0  0  0  0
  160.6920  206.5830  145.3170 C   0  0  0  0  0  2  0  0  0  0  0  0
  161.5060  203.7780  145.2680 O   0  0  0  0  0  0  0  0  0  0  0  0
  162.7060  205.8370  146.6740 C   0  0  0  0  0  2  0  0  0  0  0  0
  161.2420  203.1510  146.4930 C   0  0  0  0  0  0  0  0  0  0  0  0
  160.5290  204.4200  144.5240 N   0  0  0  0  0  0  0  0  0  0  0  0
  159.8980  205.3610  145.3570 N   0  0  0  0  0  2  0  0  0  0  0  0
  160.4350  202.0060  146.5270 C   0  0  0  0  0  3  0  0  0  0  0  0
  161.8100  203.6420  147.6880 C   0  0  0  0  0  0  0  0  0  0  0  0
  159.5940  203.5050  144.1730 O   0  0  0  0  0  1  0  0  0  0  0  0
  161.4900  206.7730  146.6080 C   0  0  2  0  0  3  0  0  0  0  0  0
  160.2040  201.3390  147.7320 C   0  0  0  0  0  3  0  0  0  0  0  0
  161.5810  202.9580  148.8880 C   0  0  0  0  0  3  0  0  0  0  0  0
  2  8  2  0  0  0  0
  3  1  2  0  0  0  0
  3  4  1  0  0  0  0
  5  4  2  0  0  0  0
  5  6  1  0  0  0  0
  7  8  1  0  0  0  0
  7  9  2  0  0  0  0
  8  3  1  0  0  0  0
  9  5  1  0  0  0  0
 10 11  2  0  0  0  0
 11  2  1  0  0  0  0
 11 14  1  0  0  0  0
 12 18  1  0  0  0  0
 13 16  1  0  0  0  0
 14 12  2  0  0  0  0
 15 17  1  0  0  0  0
 16 18  2  0  0  0  0
 17 13  2  0  0  0  0
 17 14  1  0  0  0  0
 19  7  1  0  0  0  0
 22 27  1  0  0  0  0
 22 31  1  0  0  0  0
 23 25  1  0  0  0  0
 24 21  1  0  0  0  0
 25 28  2  0  0  0  0
 25 29  1  0  0  0  0
 26 23  1  0  0  0  0
 26 27  1  0  0  0  0
 28 32  1  0  0  0  0
 29 21  1  0  0  0  0
 29 33  2  0  0  0  0
 30 26  1  0  0  0  0
 31 24  1  0  0  0  0
 31 19  1  1  0  0  0
 32 20  2  0  0  0  0
 33 20  1  0  0  0  0
M  END
>  <MODEL>
4

>  <REMARK>
 VINA RESULT:      -5.0      4.185      7.968
  Name = 
  4 active torsions:
  status: ('A' for Active; 'I' for Inactive)
    1  A    between atoms: N_1  and  C_24
    2  A    between atoms: N_1  and  C_29
    3  A    between atoms: N_6  and  C_21
    4  A    between atoms: C_13  and  C_21
                            x       y       z     vdW  Elec       q    Type
                         _______ _______ _______ _____ _____    ______ ____

>  <TORSDO>
F 4

$$$$
=
 OpenBabel11072412253D

 33 36  0  0  1  0  0  0  0  0999 V2000
  160.2620  211.8290  154.7920 O   0  0  0  0  0  0  0  0  0  0  0  0
  160.2150  210.9360  152.0320 N   0  0  0  0  0  0  0  0  0  0  0  0
  160.3330  210.6110  154.4820 C   0  0  0  0  0  0  0  0  0  0  0  0
  160.4590  209.6350  155.5240 N   0  0  0  0  0  0  0  0  0  0  0  0
  160.6710  208.3780  155.2690 C   0  0  0  0  0  0  0  0  0  0  0  0
  160.7920  207.4530  156.3430 N   0  0  0  0  0  1  0  0  0  0  0  0
  160.6670  208.7270  152.8370 C   0  0  0  0  0  0  0  0  0  0  0  0
  160.3670  210.1550  153.0660 C   0  0  0  0  0  0  0  0  0  0  0  0
  160.8010  207.8960  153.8790 C   0  0  0  0  0  3  0  0  0  0  0  0
  159.4370  212.8830  153.0610 O   0  0  0  0  0  0  0  0  0  0  0  0
  159.8130  212.3130  152.0010 C   0  0  0  0  0  0  0  0  0  0  0  0
  160.8630  213.0100  149.8600 C   0  0  0  0  0  3  0  0  0  0  0  0
  158.5690  214.3830  149.0610 C   0  0  0  0  0  3  0  0  0  0  0  0
  159.7420  213.0220  150.7050 C   0  0  0  0  0  0  0  0  0  0  0  0
  157.4760  213.7680  151.0700 F   0  0  0  0  0  0  0  0  0  0  0  0
  159.6920  214.3600  148.2320 C   0  0  0  0  0  3  0  0  0  0  0  0
  158.5870  213.7210  150.2930 C   0  0  0  0  0  0  0  0  0  0  0  0
  160.8390  213.6750  148.6320 C   0  0  0  0  0  3  0  0  0  0  0  0
  160.7800  208.2390  151.4940 N   0  0  0  0  0  2  0  0  0  0  0  0
  160.5160  203.2740  151.8480 C   0  0  0  0  0  3  0  0  0  0  0  0
  162.6500  206.3200  151.7060 N   0  0  0  0  0  2  0  0  0  0  0  0
  161.5360  208.5100  149.1570 C   0  0  0  0  0  2  0  0  0  0  0  0
  162.2770  205.6970  148.8990 O   0  0  0  0  0  0  0  0  0  0  0  0
  163.0690  207.4530  150.8850 C   0  0  0  0  0  2  0  0  0  0  0  0
  161.6660  204.9170  149.8890 C   0  0  0  0  0  0  0  0  0  0  0  0
  161.5630  206.4990  148.0230 N   0  0  0  0  0  0  0  0  0  0  0  0
  160.7410  207.3470  148.7840 N   0  0  0  0  0  2  0  0  0  0  0  0
  160.8590  203.8320  149.5200 C   0  0  0  0  0  3  0  0  0  0  0  0
  161.8810  205.1950  151.2560 C   0  0  0  0  0  0  0  0  0  0  0  0
  160.7490  205.7040  147.2880 O   0  0  0  0  0  1  0  0  0  0  0  0
  161.9400  208.4630  150.6320 C   0  0  2  0  0  3  0  0  0  0  0  0
  160.2850  203.0140  150.4950 C   0  0  0  0  0  3  0  0  0  0  0  0
  161.3090  204.3610  152.2240 C   0  0  0  0  0  3  0  0  0  0  0  0
  2  8  2  0  0  0  0
  3  1  2  0  0  0  0
  3  4  1  0  0  0  0
  5  4  2  0  0  0  0
  5  6  1  0  0  0  0
  7  8  1  0  0  0  0
  7  9  2  0  0  0  0
  8  3  1  0  0  0  0
  9  5  1  0  0  0  0
 11  2  1  0  0  0  0
 11 10  2  0  0  0  0
 12 14  1  0  0  0  0
 13 17  1  0  0  0  0
 14 11  1  0  0  0  0
 16 18  1  0  0  0  0
 16 13  2  0  0  0  0
 17 14  2  0  0  0  0
 17 15  1  0  0  0  0
 18 12  2  0  0  0  0
 19  7  1  0  0  0  0
 20 33  1  0  0  0  0
 22 31  1  0  0  0  0
 23 25  1  0  0  0  0
 24 21  1  0  0  0  0
 25 29  1  0  0  0  0
 26 27  1  0  0  0  0
 26 23  1  0  0  0  0
 27 22  1  0  0  0  0
 28 25  2  0  0  0  0
 28 32  1  0  0  0  0
 29 21  1  0  0  0  0
 29 33  2  0  0  0  0
 30 26  1  0  0  0  0
 31 24  1  0  0  0  0
 31 19  1  1  0  0  0
 32 20  2  0  0  0  0
M  END
>  <MODEL>
5

>  <REMARK>
 VINA RESULT:      -5.0      2.822      6.814
  Name = 
  4 active torsions:
  status: ('A' for Active; 'I' for Inactive)
    1  A    between atoms: N_1  and  C_24
    2  A    between atoms: N_1  and  C_29
    3  A    between atoms: N_6  and  C_21
    4  A    between atoms: C_13  and  C_21
                            x       y       z     vdW  Elec       q    Type
                         _______ _______ _______ _____ _____    ______ ____

>  <TORSDO>
F 4

$$$$
=
 OpenBabel11072412253D

 33 36  0  0  1  0  0  0  0  0999 V2000
  162.1780  207.1900  153.3000 O   0  0  0  0  0  0  0  0  0  0  0  0
  161.4590  208.1450  150.6570 N   0  0  0  0  0  0  0  0  0  0  0  0
  161.5770  206.4620  152.4680 C   0  0  0  0  0  0  0  0  0  0  0  0
  161.2530  205.1140  152.8290 N   0  0  0  0  0  0  0  0  0  0  0  0
  160.7550  204.2710  151.9730 C   0  0  0  0  0  0  0  0  0  0  0  0
  160.4560  202.9430  152.3860 N   0  0  0  0  0  1  0  0  0  0  0  0
  160.7490  205.9160  150.1480 C   0  0  0  0  0  0  0  0  0  0  0  0
  161.2590  206.9310  151.0920 C   0  0  0  0  0  0  0  0  0  0  0  0
  160.5070  204.6690  150.5730 C   0  0  0  0  0  3  0  0  0  0  0  0
  163.0540  209.5440  151.6360 O   0  0  0  0  0  0  0  0  0  0  0  0
  161.8370  209.3110  151.4020 C   0  0  0  0  0  0  0  0  0  0  0  0
  160.0840  209.7280  153.1130 C   0  0  0  0  0  3  0  0  0  0  0  0
  159.4490  212.2110  152.0110 C   0  0  0  0  0  3  0  0  0  0  0  0
  160.7860  210.1750  151.9830 C   0  0  0  0  0  0  0  0  0  0  0  0
  161.0990  211.9130  150.3370 F   0  0  0  0  0  0  0  0  0  0  0  0
  158.7620  211.7520  153.1350 C   0  0  0  0  0  3  0  0  0  0  0  0
  160.4560  211.4320  151.4310 C   0  0  0  0  0  0  0  0  0  0  0  0
  159.0780  210.5090  153.6860 C   0  0  0  0  0  3  0  0  0  0  0  0
  160.4860  206.2890  148.7890 N   0  0  0  0  0  2  0  0  0  0  0  0
  160.8660  201.4490  147.6570 C   0  0  0  0  0  3  0  0  0  0  0  0
  162.5790  204.7090  148.1970 N   0  0  0  0  0  2  0  0  0  0  0  0
  160.8310  207.3250  146.5720 C   0  0  0  0  0  2  0  0  0  0  0  0
  161.8480  204.8520  145.3940 O   0  0  0  0  0  0  0  0  0  0  0  0
  162.7290  206.0790  147.7130 C   0  0  0  0  0  2  0  0  0  0  0  0
  161.4940  203.7390  146.1670 C   0  0  0  0  0  0  0  0  0  0  0  0
  160.9160  205.7460  144.8890 N   0  0  0  0  0  0  0  0  0  0  0  0
  160.1290  206.2030  145.9600 N   0  0  0  0  0  2  0  0  0  0  0  0
  160.7740  202.6890  145.5830 C   0  0  0  0  0  3  0  0  0  0  0  0
  161.8870  203.6500  147.5190 C   0  0  0  0  0  0  0  0  0  0  0  0
  160.0970  205.0720  144.0470 O   0  0  0  0  0  1  0  0  0  0  0  0
  161.4630  206.9270  147.9070 C   0  0  2  0  0  3  0  0  0  0  0  0
  160.4590  201.5480  146.3240 C   0  0  0  0  0  3  0  0  0  0  0  0
  161.5750  202.4970  148.2500 C   0  0  0  0  0  3  0  0  0  0  0  0
  2  8  2  0  0  0  0
  2 11  1  0  0  0  0
  3  4  1  0  0  0  0
  3  1  2  0  0  0  0
  5  6  1  0  0  0  0
  5  4  2  0  0  0  0
  7  9  2  0  0  0  0
  7  8  1  0  0  0  0
  8  3  1  0  0  0  0
  9  5  1  0  0  0  0
 11 10  2  0  0  0  0
 11 14  1  0  0  0  0
 12 18  1  0  0  0  0
 13 16  1  0  0  0  0
 14 12  2  0  0  0  0
 15 17  1  0  0  0  0
 16 18  2  0  0  0  0
 17 14  1  0  0  0  0
 17 13  2  0  0  0  0
 19  7  1  0  0  0  0
 20 33  1  0  0  0  0
 22 31  1  0  0  0  0
 23 25  1  0  0  0  0
 24 31  1  0  0  0  0
 24 21  1  0  0  0  0
 25 29  1  0  0  0  0
 26 23  1  0  0  0  0
 26 27  1  0  0  0  0
 27 22  1  0  0  0  0
 28 25  2  0  0  0  0
 28 32  1  0  0  0  0
 29 21  1  0  0  0  0
 29 33  2  0  0  0  0
 30 26  1  0  0  0  0
 31 19  1  1  0  0  0
 32 20  2  0  0  0  0
M  END
>  <MODEL>
6

>  <REMARK>
 VINA RESULT:      -4.9      4.085      7.601
  Name = 
  4 active torsions:
  status: ('A' for Active; 'I' for Inactive)
    1  A    between atoms: N_1  and  C_24
    2  A    between atoms: N_1  and  C_29
    3  A    between atoms: N_6  and  C_21
    4  A    between atoms: C_13  and  C_21
                            x       y       z     vdW  Elec       q    Type
                         _______ _______ _______ _____ _____    ______ ____

>  <TORSDO>
F 4

$$$$
=
 OpenBabel11072412253D

 33 36  0  0  1  0  0  0  0  0999 V2000
  159.6630  213.1180  153.8210 O   0  0  0  0  0  0  0  0  0  0  0  0
  160.1230  211.8400  151.2570 N   0  0  0  0  0  0  0  0  0  0  0  0
  159.8100  211.8730  153.7120 C   0  0  0  0  0  0  0  0  0  0  0  0
  159.7670  211.0620  154.8920 N   0  0  0  0  0  0  0  0  0  0  0  0
  160.0440  209.7910  154.8670 C   0  0  0  0  0  0  0  0  0  0  0  0
  159.9900  209.0350  156.0710 N   0  0  0  0  0  1  0  0  0  0  0  0
  160.4660  209.7910  152.4470 C   0  0  0  0  0  0  0  0  0  0  0  0
  160.1040  211.2220  152.4070 C   0  0  0  0  0  0  0  0  0  0  0  0
  160.4280  209.1230  153.6070 C   0  0  0  0  0  3  0  0  0  0  0  0
  160.5300  214.1310  151.0460 O   0  0  0  0  0  0  0  0  0  0  0  0
  159.7080  213.1800  150.9550 C   0  0  0  0  0  0  0  0  0  0  0  0
  157.4200  213.8270  151.6790 C   0  0  0  0  0  3  0  0  0  0  0  0
  156.4170  213.5810  149.0870 C   0  0  0  0  0  3  0  0  0  0  0  0
  158.2870  213.4480  150.6410 C   0  0  0  0  0  0  0  0  0  0  0  0
  158.5600  212.9580  148.2930 F   0  0  0  0  0  0  0  0  0  0  0  0
  155.5690  213.9580  150.1300 C   0  0  0  0  0  3  0  0  0  0  0  0
  157.7690  213.3240  149.3340 C   0  0  0  0  0  0  0  0  0  0  0  0
  156.0710  214.0790  151.4260 C   0  0  0  0  0  3  0  0  0  0  0  0
  160.8240  209.1220  151.2300 N   0  0  0  0  0  2  0  0  0  0  0  0
  160.4540  204.1650  151.5950 C   0  0  0  0  0  3  0  0  0  0  0  0
  162.6270  207.1840  151.7000 N   0  0  0  0  0  2  0  0  0  0  0  0
  161.8780  209.3590  149.0070 C   0  0  0  0  0  2  0  0  0  0  0  0
  162.6090  206.5340  148.8730 O   0  0  0  0  0  0  0  0  0  0  0  0
  163.1620  208.3030  150.9280 C   0  0  0  0  0  2  0  0  0  0  0  0
  161.8660  205.7730  149.7840 C   0  0  0  0  0  0  0  0  0  0  0  0
  162.0240  207.3350  147.9050 N   0  0  0  0  0  0  0  0  0  0  0  0
  161.1220  208.2000  148.5470 N   0  0  0  0  0  2  0  0  0  0  0  0
  161.1000  204.6930  149.3250 C   0  0  0  0  0  3  0  0  0  0  0  0
  161.9080  206.0630  151.1650 C   0  0  0  0  0  0  0  0  0  0  0  0
  161.3010  206.5400  147.0800 O   0  0  0  0  0  1  0  0  0  0  0  0
  162.0880  209.3220  150.5220 C   0  0  2  0  0  3  0  0  0  0  0  0
  160.3950  203.8920  150.2260 C   0  0  0  0  0  3  0  0  0  0  0  0
  161.2060  205.2460  152.0590 C   0  0  0  0  0  3  0  0  0  0  0  0
  2  8  2  0  0  0  0
  3  1  2  0  0  0  0
  3  4  1  0  0  0  0
  5  4  2  0  0  0  0
  5  6  1  0  0  0  0
  7  9  2  0  0  0  0
  8  7  1  0  0  0  0
  8  3  1  0  0  0  0
  9  5  1  0  0  0  0
 11 10  2  0  0  0  0
 11  2  1  0  0  0  0
 13 17  2  0  0  0  0
 13 16  1  0  0  0  0
 14 11  1  0  0  0  0
 14 12  2  0  0  0  0
 15 17  1  0  0  0  0
 16 18  2  0  0  0  0
 17 14  1  0  0  0  0
 18 12  1  0  0  0  0
 19  7  1  0  0  0  0
 20 33  1  0  0  0  0
 22 31  1  0  0  0  0
 23 25  1  0  0  0  0
 24 21  1  0  0  0  0
 25 29  1  0  0  0  0
 26 27  1  0  0  0  0
 26 23  1  0  0  0  0
 27 22  1  0  0  0  0
 28 25  2  0  0  0  0
 28 32  1  0  0  0  0
 29 21  1  0  0  0  0
 29 33  2  0  0  0  0
 30 26  1  0  0  0  0
 31 24  1  0  0  0  0
 31 19  1  1  0  0  0
 32 20  2  0  0  0  0
M  END
>  <MODEL>
7

>  <REMARK>
 VINA RESULT:      -4.7      2.558      6.566
  Name = 
  4 active torsions:
  status: ('A' for Active; 'I' for Inactive)
    1  A    between atoms: N_1  and  C_24
    2  A    between atoms: N_1  and  C_29
    3  A    between atoms: N_6  and  C_21
    4  A    between atoms: C_13  and  C_21
                            x       y       z     vdW  Elec       q    Type
                         _______ _______ _______ _____ _____    ______ ____

>  <TORSDO>
F 4

$$$$
=
 OpenBabel11072412253D

 33 36  0  0  1  0  0  0  0  0999 V2000
  160.2480  211.4400  155.5030 O   0  0  0  0  0  0  0  0  0  0  0  0
  160.0490  210.6220  152.7270 N   0  0  0  0  0  0  0  0  0  0  0  0
  160.4250  210.2470  155.1450 C   0  0  0  0  0  0  0  0  0  0  0  0
  160.7520  209.2640  156.1340 N   0  0  0  0  0  0  0  0  0  0  0  0
  161.0780  208.0460  155.8160 C   0  0  0  0  0  0  0  0  0  0  0  0
  161.3990  207.1130  156.8410 N   0  0  0  0  0  1  0  0  0  0  0  0
  160.8150  208.4580  153.4080 C   0  0  0  0  0  0  0  0  0  0  0  0
  160.3810  209.8360  153.7150 C   0  0  0  0  0  0  0  0  0  0  0  0
  161.1340  207.6200  154.4030 C   0  0  0  0  0  3  0  0  0  0  0  0
  160.0710  212.8940  152.1830 O   0  0  0  0  0  0  0  0  0  0  0  0
  159.4960  211.9440  152.7830 C   0  0  0  0  0  0  0  0  0  0  0  0
  157.3530  211.1920  153.7900 C   0  0  0  0  0  3  0  0  0  0  0  0
  156.9750  213.6410  155.0740 C   0  0  0  0  0  3  0  0  0  0  0  0
  158.3140  212.2030  153.6330 C   0  0  0  0  0  0  0  0  0  0  0  0
  159.0070  214.4530  154.1670 F   0  0  0  0  0  0  0  0  0  0  0  0
  156.0300  212.6240  155.2200 C   0  0  0  0  0  3  0  0  0  0  0  0
  158.1130  213.4390  154.2850 C   0  0  0  0  0  0  0  0  0  0  0  0
  156.2180  211.4000  154.5770 C   0  0  0  0  0  3  0  0  0  0  0  0
  160.8580  208.0220  152.0430 N   0  0  0  0  0  2  0  0  0  0  0  0
  160.4850  203.0520  151.9870 C   0  0  0  0  0  3  0  0  0  0  0  0
  162.6860  206.0520  151.9630 N   0  0  0  0  0  2  0  0  0  0  0  0
  161.4660  208.4800  149.6920 C   0  0  0  0  0  2  0  0  0  0  0  0
  162.1130  205.6850  149.1440 O   0  0  0  0  0  0  0  0  0  0  0  0
  163.0810  207.2440  151.2160 C   0  0  0  0  0  2  0  0  0  0  0  0
  161.5470  204.8350  150.1030 C   0  0  0  0  0  0  0  0  0  0  0  0
  161.3640  206.5760  148.3910 N   0  0  0  0  0  0  0  0  0  0  0  0
  160.6170  207.3710  149.2760 N   0  0  0  0  0  2  0  0  0  0  0  0
  160.6890  203.8040  149.6980 C   0  0  0  0  0  3  0  0  0  0  0  0
  161.8600  204.9870  151.4710 C   0  0  0  0  0  0  0  0  0  0  0  0
  160.4830  205.8650  147.6480 O   0  0  0  0  0  1  0  0  0  0  0  0
  161.9640  208.2950  151.1270 C   0  0  2  0  0  3  0  0  0  0  0  0
  160.1580  202.9150  150.6360 C   0  0  0  0  0  3  0  0  0  0  0  0
  161.3300  204.0840  152.4000 C   0  0  0  0  0  3  0  0  0  0  0  0
  2 11  1  0  0  0  0
  2  8  2  0  0  0  0
  3  1  2  0  0  0  0
  3  4  1  0  0  0  0
  5  4  2  0  0  0  0
  5  6  1  0  0  0  0
  7  8  1  0  0  0  0
  7  9  2  0  0  0  0
  8  3  1  0  0  0  0
  9  5  1  0  0  0  0
 10 11  2  0  0  0  0
 11 14  1  0  0  0  0
 12 18  1  0  0  0  0
 13 16  1  0  0  0  0
 14 12  2  0  0  0  0
 14 17  1  0  0  0  0
 15 17  1  0  0  0  0
 17 13  2  0  0  0  0
 18 16  2  0  0  0  0
 19  7  1  0  0  0  0
 20 33  1  0  0  0  0
 22 31  1  0  0  0  0
 23 25  1  0  0  0  0
 24 21  1  0  0  0  0
 25 29  1  0  0  0  0
 26 23  1  0  0  0  0
 26 27  1  0  0  0  0
 27 22  1  0  0  0  0
 28 25  2  0  0  0  0
 28 32  1  0  0  0  0
 29 21  1  0  0  0  0
 29 33  2  0  0  0  0
 30 26  1  0  0  0  0
 31 24  1  0  0  0  0
 31 19  1  1  0  0  0
 32 20  2  0  0  0  0
M  END
>  <MODEL>
8

>  <REMARK>
 VINA RESULT:      -4.7      3.501      7.121
  Name = 
  4 active torsions:
  status: ('A' for Active; 'I' for Inactive)
    1  A    between atoms: N_1  and  C_24
    2  A    between atoms: N_1  and  C_29
    3  A    between atoms: N_6  and  C_21
    4  A    between atoms: C_13  and  C_21
                            x       y       z     vdW  Elec       q    Type
                         _______ _______ _______ _____ _____    ______ ____

>  <TORSDO>
F 4

$$$$
