=
 OpenBabel11072413553D

 46 49  0  0  1  0  0  0  0  0999 V2000
  159.5940  209.1530  154.6820 C   0  0  0  0  0  2  0  0  0  0  0  0
  160.9640  211.1910  154.5710 O   0  0  0  0  0  0  0  0  0  0  0  0
  160.7740  212.5440  156.2540 C   0  0  0  0  0  2  0  0  0  0  0  0
  157.8000  212.5340  154.8050 C   0  0  2  0  0  0  0  0  0  0  0  0
  159.6460  210.6750  154.5350 C   0  0  2  0  0  3  0  0  0  0  0  0
  161.3140  211.3180  155.8430 O   0  0  0  0  0  0  0  0  0  0  0  0
  158.6490  211.4260  155.4520 C   0  0  1  0  0  3  0  0  0  0  0  0
  158.3700  213.8410  155.9620 S   0  0  0  0  0  0  0  0  0  0  0  0
  159.2820  212.3530  156.4920 C   0  0  2  0  0  3  0  0  0  0  0  0
  156.3680  209.8280  155.0210 O   0  0  0  0  0  0  0  0  0  0  0  0
  154.1190  210.2570  156.7950 O   0  0  0  0  0  1  0  0  0  0  0  0
  155.3940  214.3020  155.8850 O   0  0  0  0  0  0  0  0  0  0  0  0
  155.0950  212.3200  157.0500 O   0  0  0  0  0  0  0  0  0  0  0  0
  155.5820  213.0600  155.9840 C   0  0  0  0  0  0  0  0  0  0  0  0
  155.3370  210.9330  156.8750 C   0  0  2  0  0  3  0  0  0  0  0  0
  156.0390  210.8740  155.5560 C   0  0  0  0  0  0  0  0  0  0  0  0
  156.2800  212.2300  154.9580 C   0  0  2  0  0  3  0  0  0  0  0  0
  157.0180  213.3620  152.4470 C   0  0  2  0  0  3  0  0  0  0  0  0
  156.2340  214.3070  153.1150 O   0  0  0  0  0  1  0  0  0  0  0  0
  159.0890  214.4530  151.7400 C   0  0  2  0  0  3  0  0  0  0  0  0
  158.1650  212.8780  153.3290 C   0  0  1  0  0  3  0  0  0  0  0  0
  157.7010  214.0340  151.2720 C   0  0  0  0  0  2  0  0  0  0  0  0
  160.0490  213.9070  150.8880 O   0  0  0  0  0  1  0  0  0  0  0  0
  159.2760  213.8960  153.1380 C   0  0  0  0  0  2  0  0  0  0  0  0
  160.8850  208.4430  154.2810 C   0  0  0  0  0  2  0  0  0  0  0  0
  161.3840  208.8940  152.9140 C   0  0  0  0  0  2  0  0  0  0  0  0
  160.5180  208.4550  151.9080 O   0  0  0  0  0  0  0  0  0  0  0  0
  160.8080  205.8490  151.9360 O   0  0  0  0  0  1  0  0  0  0  0  0
  161.2610  207.0960  151.2130 P   0  0  2  0  0  0  0  0  0  0  0  0
  162.9370  207.2500  151.3770 O   0  0  0  0  0  0  0  0  0  0  0  0
  160.8560  206.9720  149.4410 C   0  0  0  0  0  2  0  0  0  0  0  0
  161.8910  207.7090  148.6020 C   0  0  1  0  0  3  0  0  0  0  0  0
  162.1400  207.0290  147.3700 O   0  0  0  0  0  0  0  0  0  0  0  0
  160.2480  205.9920  146.5250 O   0  0  0  0  0  0  0  0  0  0  0  0
  161.4320  205.8960  146.9480 C   0  0  0  0  0  0  0  0  0  0  0  0
  161.2370  203.6320  147.9010 C   0  0  0  0  0  1  0  0  0  0  0  0
  162.0710  204.5480  147.0210 C   0  0  1  0  0  3  0  0  0  0  0  0
  162.2450  203.9530  145.6260 C   0  0  0  0  0  3  0  0  0  0  0  0
  162.2990  204.9730  144.6730 O   0  0  0  0  0  1  0  0  0  0  0  0
  161.1720  203.1110  145.3280 O   0  0  0  0  0  1  0  0  0  0  0  0
  161.4670  209.0180  148.3560 O   0  0  0  0  0  0  0  0  0  0  0  0
  162.5740  209.7310  148.3070 O   0  0  0  0  0  0  0  0  0  0  0  0
  163.3830  212.3710  148.2870 O   0  0  0  0  0  1  0  0  0  0  0  0
  162.0910  211.3290  148.6110 P   0  0  0  0  0  0  0  0  0  0  0  0
  160.7870  211.7310  147.6130 O   0  0  0  0  0  0  0  0  0  0  0  0
  161.6820  211.4780  150.0600 O   0  0  0  0  0  1  0  0  0  0  0  0
  2  6  1  0  0  0  0
  3  9  1  0  0  0  0
  4 17  1  0  0  0  0
  4  7  1  0  0  0  0
  4  8  1  1  0  0  0
  5  2  1  0  0  0  0
  5  1  1  1  0  0  0
  5  7  1  0  0  0  0
  6  3  1  0  0  0  0
  7  9  1  0  0  0  0
  8  9  1  0  0  0  0
 10 16  2  0  0  0  0
 11 15  1  0  0  0  0
 12 14  2  0  0  0  0
 14 13  1  0  0  0  0
 15 13  1  0  0  0  0
 16 15  1  0  0  0  0
 17 16  1  0  0  0  0
 17 14  1  0  0  0  0
 18 19  1  0  0  0  0
 18 21  1  0  0  0  0
 20 24  1  0  0  0  0
 21  4  1  0  0  0  0
 22 20  1  0  0  0  0
 22 18  1  0  0  0  0
 23 20  1  0  0  0  0
 24 21  1  0  0  0  0
 25  1  1  0  0  0  0
 26 25  1  0  0  0  0
 27 26  1  0  0  0  0
 29 30  2  0  0  0  0
 29 27  1  0  0  0  0
 29 28  1  0  0  0  0
 31 29  1  0  0  0  0
 32 31  1  0  0  0  0
 33 32  1  0  0  0  0
 34 35  2  0  0  0  0
 35 37  1  0  0  0  0
 35 33  1  0  0  0  0
 37 36  1  0  0  0  0
 38 37  1  0  0  0  0
 39 38  1  0  0  0  0
 40 38  1  0  0  0  0
 41 32  1  0  0  0  0
 42 41  1  0  0  0  0
 42 44  1  0  0  0  0
 43 44  1  0  0  0  0
 44 46  1  0  0  0  0
 45 44  2  0  0  0  0
M  END
>  <MODEL>
1

>  <REMARK>
 VINA RESULT:      -5.1      0.000      0.000
  Name = 
  16 active torsions:
  status: ('A' for Active; 'I' for Inactive)
    1  A    between atoms: C_3  and  O_21
    2  A    between atoms: C_3  and  C_40
    3  A    between atoms: C_3  and  O_46
    4  A    between atoms: O_4  and  P_19
    5  A    between atoms: O_4  and  O_46
    6  A    between atoms: O_6  and  P_12
    7  A    between atoms: O_6  and  C_23
    8  A    between atoms: C_10  and  C_43
    9  A    between atoms: C_11  and  C_27
   10  A    between atoms: C_11  and  C_45
   11  A    between atoms: P_12  and  C_40
   12  A    between atoms: O_21  and  C_38
   13  A    between atoms: C_23  and  C_41
   14  A    between atoms: C_25  and  C_31
   15  A    between atoms: C_25  and  C_41
   16  A    between atoms: C_38  and  C_43
                            x       y       z     vdW  Elec       q    Type
                         _______ _______ _______ _____ _____    ______ ____

>  <TORSDO>
F 16

$$$$
=
 OpenBabel11072413553D

 46 49  0  0  1  0  0  0  0  0999 V2000
  159.8990  210.1520  152.5150 C   0  0  0  0  0  2  0  0  0  0  0  0
  158.1210  211.8500  152.4820 O   0  0  0  0  0  0  0  0  0  0  0  0
  158.7110  213.8410  153.1020 C   0  0  0  0  0  2  0  0  0  0  0  0
  159.0670  211.9500  155.7920 C   0  0  2  0  0  0  0  0  0  0  0  0
  158.9790  211.0840  153.3080 C   0  0  2  0  0  3  0  0  0  0  0  0
  158.8020  212.9070  152.0620 O   0  0  0  0  0  0  0  0  0  0  0  0
  159.7100  211.9080  154.3950 C   0  0  1  0  0  3  0  0  0  0  0  0
  158.9500  213.7820  155.8370 S   0  0  0  0  0  0  0  0  0  0  0  0
  159.6770  213.4260  154.2030 C   0  0  2  0  0  3  0  0  0  0  0  0
  159.7250  209.0380  156.5020 O   0  0  0  0  0  0  0  0  0  0  0  0
  162.5210  209.0160  157.2610 O   0  0  0  0  0  1  0  0  0  0  0  0
  161.5770  213.2500  157.2380 O   0  0  0  0  0  0  0  0  0  0  0  0
  162.4220  211.2000  156.5590 O   0  0  0  0  0  0  0  0  0  0  0  0
  161.3830  212.0540  156.8950 C   0  0  0  0  0  0  0  0  0  0  0  0
  161.9580  209.8800  156.3220 C   0  0  2  0  0  3  0  0  0  0  0  0
  160.4840  209.9930  156.5540 C   0  0  0  0  0  0  0  0  0  0  0  0
  160.0430  211.3930  156.8700 C   0  0  2  0  0  3  0  0  0  0  0  0
  156.7660  211.7820  157.0320 C   0  0  2  0  0  3  0  0  0  0  0  0
  156.7840  213.1780  157.1100 O   0  0  0  0  0  1  0  0  0  0  0  0
  155.3730  211.1450  155.1260 C   0  0  2  0  0  3  0  0  0  0  0  0
  157.6620  211.2850  155.9010 C   0  0  1  0  0  3  0  0  0  0  0  0
  155.3740  211.3310  156.6380 C   0  0  0  0  0  2  0  0  0  0  0  0
  154.9520  209.8510  154.8190 O   0  0  0  0  0  1  0  0  0  0  0  0
  156.8000  211.3400  154.6520 C   0  0  0  0  0  2  0  0  0  0  0  0
  161.3870  210.3990  152.7470 C   0  0  0  0  0  2  0  0  0  0  0  0
  162.1970  209.1110  152.6810 C   0  0  0  0  0  2  0  0  0  0  0  0
  162.1670  208.5780  151.3880 O   0  0  0  0  0  0  0  0  0  0  0  0
  160.9590  206.7790  152.8630 O   0  0  0  0  0  1  0  0  0  0  0  0
  161.7110  206.9530  151.5630 P   0  0  2  0  0  0  0  0  0  0  0  0
  163.1070  205.9980  151.6020 O   0  0  0  0  0  0  0  0  0  0  0  0
  160.6740  206.4160  150.1650 C   0  0  0  0  0  2  0  0  0  0  0  0
  161.4200  205.4090  149.3010 C   0  0  1  0  0  3  0  0  0  0  0  0
  160.7290  204.1600  149.2470 O   0  0  0  0  0  0  0  0  0  0  0  0
  161.3280  203.3270  151.3240 O   0  0  0  0  0  0  0  0  0  0  0  0
  160.9560  203.1040  150.1410 C   0  0  0  0  0  0  0  0  0  0  0  0
  159.3240  201.2840  149.8320 C   0  0  0  0  0  1  0  0  0  0  0  0
  160.7810  201.6920  149.6850 C   0  0  1  0  0  3  0  0  0  0  0  0
  161.2500  201.5240  148.2420 C   0  0  0  0  0  3  0  0  0  0  0  0
  160.1950  201.7770  147.3620 O   0  0  0  0  0  1  0  0  0  0  0  0
  161.7090  200.2210  148.0360 O   0  0  0  0  0  1  0  0  0  0  0  0
  161.6000  205.9200  148.0120 O   0  0  0  0  0  0  0  0  0  0  0  0
  162.0300  204.8990  147.2980 O   0  0  0  0  0  0  0  0  0  0  0  0
  160.9800  203.7890  144.9980 O   0  0  0  0  0  1  0  0  0  0  0  0
  161.5280  205.2220  145.7100 P   0  0  0  0  0  0  0  0  0  0  0  0
  160.2690  206.3520  145.7270 O   0  0  0  0  0  1  0  0  0  0  0  0
  162.6850  205.7680  144.9030 O   0  0  0  0  0  0  0  0  0  0  0  0
  1 25  1  0  0  0  0
  2  5  1  0  0  0  0
  3  9  1  0  0  0  0
  4  8  1  1  0  0  0
  4 21  1  0  0  0  0
  4 17  1  0  0  0  0
  5  1  1  6  0  0  0
  5  7  1  0  0  0  0
  6  2  1  0  0  0  0
  6  3  1  0  0  0  0
  7  4  1  0  0  0  0
  9  7  1  0  0  0  0
  9  8  1  0  0  0  0
 10 16  2  0  0  0  0
 13 14  1  0  0  0  0
 14 12  2  0  0  0  0
 15 16  1  0  0  0  0
 15 13  1  0  0  0  0
 15 11  1  0  0  0  0
 16 17  1  0  0  0  0
 17 14  1  0  0  0  0
 18 19  1  0  0  0  0
 20 22  1  0  0  0  0
 21 18  1  0  0  0  0
 22 18  1  0  0  0  0
 23 20  1  0  0  0  0
 24 20  1  0  0  0  0
 24 21  1  0  0  0  0
 26 25  1  0  0  0  0
 27 29  1  0  0  0  0
 27 26  1  0  0  0  0
 29 30  2  0  0  0  0
 29 28  1  0  0  0  0
 31 29  1  0  0  0  0
 32 31  1  0  0  0  0
 33 32  1  0  0  0  0
 33 35  1  0  0  0  0
 35 34  2  0  0  0  0
 37 36  1  0  0  0  0
 37 35  1  0  0  0  0
 38 37  1  0  0  0  0
 39 38  1  0  0  0  0
 40 38  1  0  0  0  0
 41 32  1  0  0  0  0
 42 41  1  0  0  0  0
 43 44  1  0  0  0  0
 44 45  1  0  0  0  0
 44 42  1  0  0  0  0
 46 44  2  0  0  0  0
M  END
>  <MODEL>
2

>  <REMARK>
 VINA RESULT:      -5.0      2.229      4.676
  Name = 
  16 active torsions:
  status: ('A' for Active; 'I' for Inactive)
    1  A    between atoms: C_3  and  O_21
    2  A    between atoms: C_3  and  C_40
    3  A    between atoms: C_3  and  O_46
    4  A    between atoms: O_4  and  P_19
    5  A    between atoms: O_4  and  O_46
    6  A    between atoms: O_6  and  P_12
    7  A    between atoms: O_6  and  C_23
    8  A    between atoms: C_10  and  C_43
    9  A    between atoms: C_11  and  C_27
   10  A    between atoms: C_11  and  C_45
   11  A    between atoms: P_12  and  C_40
   12  A    between atoms: O_21  and  C_38
   13  A    between atoms: C_23  and  C_41
   14  A    between atoms: C_25  and  C_31
   15  A    between atoms: C_25  and  C_41
   16  A    between atoms: C_38  and  C_43
                            x       y       z     vdW  Elec       q    Type
                         _______ _______ _______ _____ _____    ______ ____

>  <TORSDO>
F 16

$$$$
=
 OpenBabel11072413553D

 46 49  0  0  1  0  0  0  0  0999 V2000
  159.5690  211.0040  152.5780 C   0  0  0  0  0  2  0  0  0  0  0  0
  157.7470  212.5990  152.9980 O   0  0  0  0  0  0  0  0  0  0  0  0
  158.3240  214.4530  153.9630 C   0  0  0  0  0  2  0  0  0  0  0  0
  158.9240  212.0860  156.1940 C   0  0  2  0  0  0  0  0  0  0  0  0
  158.6820  211.7220  153.5980 C   0  0  2  0  0  3  0  0  0  0  0  0
  158.3660  213.7460  152.7540 O   0  0  0  0  0  0  0  0  0  0  0  0
  159.4660  212.3460  154.7780 C   0  0  1  0  0  3  0  0  0  0  0  0
  158.7590  213.8670  156.6100 S   0  0  0  0  0  0  0  0  0  0  0  0
  159.3770  213.8700  154.8940 C   0  0  2  0  0  3  0  0  0  0  0  0
  159.3550  209.0850  156.6700 O   0  0  0  0  0  0  0  0  0  0  0  0
  162.2150  208.7270  156.9590 O   0  0  0  0  0  1  0  0  0  0  0  0
  161.7610  213.0320  157.2600 O   0  0  0  0  0  0  0  0  0  0  0  0
  162.2520  210.9470  156.3710 O   0  0  0  0  0  0  0  0  0  0  0  0
  161.3820  211.8840  156.9060 C   0  0  0  0  0  0  0  0  0  0  0  0
  161.6110  209.6990  156.1610 C   0  0  2  0  0  3  0  0  0  0  0  0
  160.2150  209.9510  156.6350 C   0  0  0  0  0  0  0  0  0  0  0  0
  159.9900  211.3690  157.0750 C   0  0  2  0  0  3  0  0  0  0  0  0
  156.5390  211.9060  157.2600 C   0  0  2  0  0  3  0  0  0  0  0  0
  156.4810  213.3020  157.1990 O   0  0  0  0  0  1  0  0  0  0  0  0
  155.3430  211.0100  155.3260 C   0  0  2  0  0  3  0  0  0  0  0  0
  157.5490  211.3550  156.2590 C   0  0  1  0  0  3  0  0  0  0  0  0
  155.2070  211.3410  156.8060 C   0  0  0  0  0  2  0  0  0  0  0  0
  155.0140  209.6710  155.1190 O   0  0  0  0  0  1  0  0  0  0  0  0
  156.7930  211.2400  154.9470 C   0  0  0  0  0  2  0  0  0  0  0  0
  160.9370  210.5960  153.1180 C   0  0  0  0  0  2  0  0  0  0  0  0
  161.0630  209.0860  153.2760 C   0  0  0  0  0  2  0  0  0  0  0  0
  162.1900  208.6150  152.5940 O   0  0  0  0  0  0  0  0  0  0  0  0
  160.6370  206.5030  152.6150 O   0  0  0  0  0  1  0  0  0  0  0  0
  161.6940  207.2030  151.7930 P   0  0  2  0  0  0  0  0  0  0  0  0
  163.0280  206.1780  151.6220 O   0  0  0  0  0  0  0  0  0  0  0  0
  161.0400  207.5930  150.1380 C   0  0  0  0  0  2  0  0  0  0  0  0
  162.1190  208.2300  149.2720 C   0  0  1  0  0  3  0  0  0  0  0  0
  161.9920  207.8300  147.9070 O   0  0  0  0  0  0  0  0  0  0  0  0
  160.2040  206.5570  147.1660 O   0  0  0  0  0  0  0  0  0  0  0  0
  161.4180  206.6180  147.5000 C   0  0  0  0  0  0  0  0  0  0  0  0
  161.4420  204.2210  148.0710 C   0  0  0  0  0  1  0  0  0  0  0  0
  162.2420  205.3710  147.4830 C   0  0  1  0  0  3  0  0  0  0  0  0
  162.7030  205.0450  146.0650 C   0  0  0  0  0  3  0  0  0  0  0  0
  161.8140  204.1500  145.4650 O   0  0  0  0  0  1  0  0  0  0  0  0
  163.9750  204.4670  146.0960 O   0  0  0  0  0  1  0  0  0  0  0  0
  162.0600  209.6230  149.3770 O   0  0  0  0  0  0  0  0  0  0  0  0
  161.7290  210.0410  148.1720 O   0  0  0  0  0  0  0  0  0  0  0  0
  161.4850  212.2590  149.7980 O   0  0  0  0  0  1  0  0  0  0  0  0
  161.8570  211.7320  148.2340 P   0  0  0  0  0  0  0  0  0  0  0  0
  163.4360  212.2000  147.8500 O   0  0  0  0  0  1  0  0  0  0  0  0
  160.8910  212.3600  147.2550 O   0  0  0  0  0  0  0  0  0  0  0  0
  1 25  1  0  0  0  0
  2  5  1  0  0  0  0
  3  9  1  0  0  0  0
  4 21  1  0  0  0  0
  4  8  1  1  0  0  0
  4 17  1  0  0  0  0
  5  1  1  6  0  0  0
  5  7  1  0  0  0  0
  6  2  1  0  0  0  0
  6  3  1  0  0  0  0
  7  9  1  0  0  0  0
  7  4  1  0  0  0  0
  9  8  1  0  0  0  0
 13 14  1  0  0  0  0
 14 17  1  0  0  0  0
 14 12  2  0  0  0  0
 15 13  1  0  0  0  0
 15 16  1  0  0  0  0
 15 11  1  0  0  0  0
 16 10  2  0  0  0  0
 16 17  1  0  0  0  0
 19 18  1  0  0  0  0
 20 22  1  0  0  0  0
 21 18  1  0  0  0  0
 22 18  1  0  0  0  0
 23 20  1  0  0  0  0
 24 20  1  0  0  0  0
 24 21  1  0  0  0  0
 25 26  1  0  0  0  0
 27 26  1  0  0  0  0
 29 27  1  0  0  0  0
 29 28  1  0  0  0  0
 30 29  2  0  0  0  0
 31 29  1  0  0  0  0
 32 41  1  0  0  0  0
 32 31  1  0  0  0  0
 33 32  1  0  0  0  0
 34 35  2  0  0  0  0
 35 33  1  0  0  0  0
 37 35  1  0  0  0  0
 37 36  1  0  0  0  0
 38 40  1  0  0  0  0
 38 37  1  0  0  0  0
 39 38  1  0  0  0  0
 42 44  1  0  0  0  0
 42 41  1  0  0  0  0
 44 43  1  0  0  0  0
 45 44  1  0  0  0  0
 46 44  2  0  0  0  0
M  END
>  <MODEL>
3

>  <REMARK>
 VINA RESULT:      -4.3      1.475      3.731
  Name = 
  16 active torsions:
  status: ('A' for Active; 'I' for Inactive)
    1  A    between atoms: C_3  and  O_21
    2  A    between atoms: C_3  and  C_40
    3  A    between atoms: C_3  and  O_46
    4  A    between atoms: O_4  and  P_19
    5  A    between atoms: O_4  and  O_46
    6  A    between atoms: O_6  and  P_12
    7  A    between atoms: O_6  and  C_23
    8  A    between atoms: C_10  and  C_43
    9  A    between atoms: C_11  and  C_27
   10  A    between atoms: C_11  and  C_45
   11  A    between atoms: P_12  and  C_40
   12  A    between atoms: O_21  and  C_38
   13  A    between atoms: C_23  and  C_41
   14  A    between atoms: C_25  and  C_31
   15  A    between atoms: C_25  and  C_41
   16  A    between atoms: C_38  and  C_43
                            x       y       z     vdW  Elec       q    Type
                         _______ _______ _______ _____ _____    ______ ____

>  <TORSDO>
F 16

$$$$
=
 OpenBabel11072413553D

 46 49  0  0  1  0  0  0  0  0999 V2000
  159.5880  210.3150  152.4180 C   0  0  0  0  0  2  0  0  0  0  0  0
  158.0790  212.2140  152.8200 O   0  0  0  0  0  0  0  0  0  0  0  0
  158.9890  213.9610  153.7250 C   0  0  0  0  0  2  0  0  0  0  0  0
  159.2100  211.5820  156.0120 C   0  0  2  0  0  0  0  0  0  0  0  0
  158.8590  211.2020  153.4300 C   0  0  2  0  0  3  0  0  0  0  0  0
  158.8850  213.2290  152.5350 O   0  0  0  0  0  0  0  0  0  0  0  0
  159.7620  211.7090  154.5820 C   0  0  1  0  0  3  0  0  0  0  0  0
  159.3650  213.3740  156.3810 S   0  0  0  0  0  0  0  0  0  0  0  0
  159.9410  213.2270  154.6570 C   0  0  2  0  0  3  0  0  0  0  0  0
  159.3100  208.5320  156.3290 O   0  0  0  0  0  0  0  0  0  0  0  0
  162.1010  207.8640  156.7270 O   0  0  0  0  0  1  0  0  0  0  0  0
  162.0690  212.1700  157.2610 O   0  0  0  0  0  0  0  0  0  0  0  0
  162.3920  210.0970  156.2730 O   0  0  0  0  0  0  0  0  0  0  0  0
  161.5950  211.0880  156.8230 C   0  0  0  0  0  0  0  0  0  0  0  0
  161.6400  208.9350  155.9610 C   0  0  2  0  0  3  0  0  0  0  0  0
  160.2540  209.3040  156.3840 C   0  0  0  0  0  0  0  0  0  0  0  0
  160.1510  210.7120  156.8960 C   0  0  2  0  0  3  0  0  0  0  0  0
  156.8470  211.8530  157.1100 C   0  0  2  0  0  3  0  0  0  0  0  0
  157.0320  213.2350  157.0030 O   0  0  0  0  0  1  0  0  0  0  0  0
  155.4820  211.1200  155.2200 C   0  0  2  0  0  3  0  0  0  0  0  0
  157.7300  211.1040  156.1170 C   0  0  1  0  0  3  0  0  0  0  0  0
  155.4310  211.5140  156.6900 C   0  0  0  0  0  2  0  0  0  0  0  0
  154.9220  209.8520  155.0610 O   0  0  0  0  0  1  0  0  0  0  0  0
  156.9440  211.0820  154.8170 C   0  0  0  0  0  2  0  0  0  0  0  0
  161.1100  210.3800  152.5130 C   0  0  0  0  0  2  0  0  0  0  0  0
  161.7470  208.9980  152.4390 C   0  0  0  0  0  2  0  0  0  0  0  0
  161.3930  208.3590  151.2460 O   0  0  0  0  0  0  0  0  0  0  0  0
  160.4980  206.0930  152.2140 O   0  0  0  0  0  0  0  0  0  0  0  0
  161.6810  206.7060  151.5000 P   0  0  2  0  0  0  0  0  0  0  0  0
  163.0570  206.5360  152.4680 O   0  0  0  0  0  1  0  0  0  0  0  0
  161.9680  205.8480  149.9190 C   0  0  0  0  0  2  0  0  0  0  0  0
  160.6920  205.1720  149.4370 C   0  0  1  0  0  3  0  0  0  0  0  0
  160.4790  205.3990  148.0430 O   0  0  0  0  0  0  0  0  0  0  0  0
  161.2080  207.5490  147.5810 O   0  0  0  0  0  0  0  0  0  0  0  0
  161.2080  206.3250  147.2830 C   0  0  0  0  0  0  0  0  0  0  0  0
  162.9380  204.7580  146.4940 C   0  0  0  0  0  1  0  0  0  0  0  0
  161.9790  205.8650  146.0890 C   0  0  1  0  0  3  0  0  0  0  0  0
  161.0380  205.3930  144.9830 C   0  0  0  0  0  3  0  0  0  0  0  0
  161.5240  205.7940  143.7370 O   0  0  0  0  0  1  0  0  0  0  0  0
  159.7670  205.9410  145.1710 O   0  0  0  0  0  1  0  0  0  0  0  0
  160.7440  203.8000  149.7020 O   0  0  0  0  0  0  0  0  0  0  0  0
  161.5710  203.3110  148.8010 O   0  0  0  0  0  0  0  0  0  0  0  0
  160.8010  201.9150  146.5450 O   0  0  0  0  0  0  0  0  0  0  0  0
  160.8280  201.8930  148.2360 P   0  0  0  0  0  0  0  0  0  0  0  0
  161.7020  200.5430  148.7610 O   0  0  0  0  0  1  0  0  0  0  0  0
  159.4110  201.8090  148.7560 O   0  0  0  0  0  1  0  0  0  0  0  0
  1 25  1  0  0  0  0
  2  5  1  0  0  0  0
  3  9  1  0  0  0  0
  4 21  1  0  0  0  0
  4  8  1  1  0  0  0
  4 17  1  0  0  0  0
  5  1  1  6  0  0  0
  5  7  1  0  0  0  0
  6  2  1  0  0  0  0
  6  3  1  0  0  0  0
  7  9  1  0  0  0  0
  7  4  1  0  0  0  0
  9  8  1  0  0  0  0
 10 16  2  0  0  0  0
 13 14  1  0  0  0  0
 14 17  1  0  0  0  0
 14 12  2  0  0  0  0
 15 13  1  0  0  0  0
 15 16  1  0  0  0  0
 15 11  1  0  0  0  0
 16 17  1  0  0  0  0
 19 18  1  0  0  0  0
 20 22  1  0  0  0  0
 21 18  1  0  0  0  0
 22 18  1  0  0  0  0
 23 20  1  0  0  0  0
 24 20  1  0  0  0  0
 24 21  1  0  0  0  0
 26 25  1  0  0  0  0
 27 29  1  0  0  0  0
 27 26  1  0  0  0  0
 29 28  2  0  0  0  0
 29 30  1  0  0  0  0
 31 29  1  0  0  0  0
 32 41  1  0  0  0  0
 32 31  1  0  0  0  0
 33 32  1  0  0  0  0
 35 34  2  0  0  0  0
 35 33  1  0  0  0  0
 37 36  1  0  0  0  0
 37 35  1  0  0  0  0
 38 40  1  0  0  0  0
 38 37  1  0  0  0  0
 39 38  1  0  0  0  0
 42 41  1  0  0  0  0
 43 44  2  0  0  0  0
 44 46  1  0  0  0  0
 44 45  1  0  0  0  0
 44 42  1  0  0  0  0
M  END
>  <MODEL>
4

>  <REMARK>
 VINA RESULT:      -4.2      2.123      5.015
  Name = 
  16 active torsions:
  status: ('A' for Active; 'I' for Inactive)
    1  A    between atoms: C_3  and  O_21
    2  A    between atoms: C_3  and  C_40
    3  A    between atoms: C_3  and  O_46
    4  A    between atoms: O_4  and  P_19
    5  A    between atoms: O_4  and  O_46
    6  A    between atoms: O_6  and  P_12
    7  A    between atoms: O_6  and  C_23
    8  A    between atoms: C_10  and  C_43
    9  A    between atoms: C_11  and  C_27
   10  A    between atoms: C_11  and  C_45
   11  A    between atoms: P_12  and  C_40
   12  A    between atoms: O_21  and  C_38
   13  A    between atoms: C_23  and  C_41
   14  A    between atoms: C_25  and  C_31
   15  A    between atoms: C_25  and  C_41
   16  A    between atoms: C_38  and  C_43
                            x       y       z     vdW  Elec       q    Type
                         _______ _______ _______ _____ _____    ______ ____

>  <TORSDO>
F 16

$$$$
=
 OpenBabel11072413553D

 46 49  0  0  1  0  0  0  0  0999 V2000
  160.2870  208.2390  153.5590 C   0  0  0  0  0  2  0  0  0  0  0  0
  161.7600  210.1960  153.3500 O   0  0  0  0  0  0  0  0  0  0  0  0
  162.3600  211.1240  155.2140 C   0  0  0  0  0  2  0  0  0  0  0  0
  159.0860  211.5610  155.0380 C   0  0  2  0  0  0  0  0  0  0  0  0
  160.4670  209.7510  153.7160 C   0  0  2  0  0  3  0  0  0  0  0  0
  162.5610  210.0090  154.3900 O   0  0  0  0  0  0  0  0  0  0  0  0
  159.9700  210.3020  155.0740 C   0  0  1  0  0  3  0  0  0  0  0  0
  160.1920  212.5400  156.1290 S   0  0  0  0  0  0  0  0  0  0  0  0
  161.0450  210.9380  155.9590 C   0  0  2  0  0  3  0  0  0  0  0  0
  157.6430  213.1090  157.2600 O   0  0  0  0  0  0  0  0  0  0  0  0
  154.8180  212.9370  156.6450 O   0  0  0  0  0  1  0  0  0  0  0  0
  156.5460  209.9570  154.0080 O   0  0  0  0  0  0  0  0  0  0  0  0
  155.6000  211.9490  154.7250 O   0  0  0  0  0  0  0  0  0  0  0  0
  156.6020  210.9920  154.7240 C   0  0  0  0  0  0  0  0  0  0  0  0
  155.8390  212.9560  155.6950 C   0  0  2  0  0  3  0  0  0  0  0  0
  157.1260  212.5220  156.3230 C   0  0  0  0  0  0  0  0  0  0  0  0
  157.7000  211.2860  155.6930 C   0  0  2  0  0  3  0  0  0  0  0  0
  158.4370  213.6710  153.6290 C   0  0  2  0  0  3  0  0  0  0  0  0
  159.1020  214.4340  154.5930 O   0  0  0  0  0  1  0  0  0  0  0  0
  159.9570  213.3310  151.7450 C   0  0  2  0  0  3  0  0  0  0  0  0
  158.9290  212.2270  153.6370 C   0  0  1  0  0  3  0  0  0  0  0  0
  158.8060  214.1890  152.2530 C   0  0  0  0  0  2  0  0  0  0  0  0
  159.6150  212.7820  150.5090 O   0  0  0  0  0  1  0  0  0  0  0  0
  160.1650  212.2180  152.7540 C   0  0  0  0  0  2  0  0  0  0  0  0
  161.3780  207.5630  152.7330 C   0  0  0  0  0  2  0  0  0  0  0  0
  160.8870  207.1840  151.3410 C   0  0  0  0  0  2  0  0  0  0  0  0
  161.9680  206.8700  150.5100 O   0  0  0  0  0  0  0  0  0  0  0  0
  161.3860  208.7380  148.7650 O   0  0  0  0  0  1  0  0  0  0  0  0
  161.4650  207.2380  148.9310 P   0  0  2  0  0  0  0  0  0  0  0  0
  159.9290  206.5750  148.6820 O   0  0  0  0  0  0  0  0  0  0  0  0
  162.6120  206.5330  147.7040 C   0  0  0  0  0  2  0  0  0  0  0  0
  162.6020  205.0120  147.7740 C   0  0  1  0  0  3  0  0  0  0  0  0
  161.7250  204.5450  148.8000 O   0  0  0  0  0  0  0  0  0  0  0  0
  161.1860  202.5260  147.8010 O   0  0  0  0  0  0  0  0  0  0  0  0
  161.1700  203.2590  148.8260 C   0  0  0  0  0  0  0  0  0  0  0  0
  160.3440  201.2450  149.9810 C   0  0  0  0  0  1  0  0  0  0  0  0
  160.5250  202.7510  150.0740 C   0  0  1  0  0  3  0  0  0  0  0  0
  161.3520  203.1240  151.3030 C   0  0  0  0  0  3  0  0  0  0  0  0
  161.8530  201.9720  151.9120 O   0  0  0  0  0  1  0  0  0  0  0  0
  160.5570  203.8130  152.2230 O   0  0  0  0  0  1  0  0  0  0  0  0
  162.2310  204.4760  146.5370 O   0  0  0  0  0  0  0  0  0  0  0  0
  162.3460  205.4740  145.6850 O   0  0  0  0  0  0  0  0  0  0  0  0
  161.4050  205.8770  143.1210 O   0  0  0  0  0  0  0  0  0  0  0  0
  160.9870  205.3590  144.6750 P   0  0  0  0  0  0  0  0  0  0  0  0
  160.4630  203.7520  144.6040 O   0  0  0  0  0  1  0  0  0  0  0  0
  159.8710  206.2300  145.2070 O   0  0  0  0  0  1  0  0  0  0  0  0
  2  5  1  0  0  0  0
  2  6  1  0  0  0  0
  3  9  1  0  0  0  0
  4  7  1  0  0  0  0
  4 17  1  0  0  0  0
  4  8  1  1  0  0  0
  5  1  1  1  0  0  0
  5  7  1  0  0  0  0
  6  3  1  0  0  0  0
  7  9  1  0  0  0  0
  9  8  1  0  0  0  0
 12 14  2  0  0  0  0
 13 15  1  0  0  0  0
 14 13  1  0  0  0  0
 14 17  1  0  0  0  0
 15 16  1  0  0  0  0
 15 11  1  0  0  0  0
 16 10  2  0  0  0  0
 17 16  1  0  0  0  0
 18 21  1  0  0  0  0
 18 19  1  0  0  0  0
 20 22  1  0  0  0  0
 20 24  1  0  0  0  0
 21  4  1  0  0  0  0
 22 18  1  0  0  0  0
 23 20  1  0  0  0  0
 24 21  1  0  0  0  0
 25  1  1  0  0  0  0
 26 25  1  0  0  0  0
 27 26  1  0  0  0  0
 28 29  1  0  0  0  0
 29 27  1  0  0  0  0
 30 29  2  0  0  0  0
 31 32  1  0  0  0  0
 31 29  1  0  0  0  0
 32 33  1  0  0  0  0
 33 35  1  0  0  0  0
 34 35  2  0  0  0  0
 35 37  1  0  0  0  0
 36 37  1  0  0  0  0
 37 38  1  0  0  0  0
 38 39  1  0  0  0  0
 38 40  1  0  0  0  0
 41 32  1  0  0  0  0
 42 41  1  0  0  0  0
 43 44  2  0  0  0  0
 44 46  1  0  0  0  0
 44 42  1  0  0  0  0
 45 44  1  0  0  0  0
M  END
>  <MODEL>
5

>  <REMARK>
 VINA RESULT:      -3.6      2.126      3.931
  Name = 
  16 active torsions:
  status: ('A' for Active; 'I' for Inactive)
    1  A    between atoms: C_3  and  O_21
    2  A    between atoms: C_3  and  C_40
    3  A    between atoms: C_3  and  O_46
    4  A    between atoms: O_4  and  P_19
    5  A    between atoms: O_4  and  O_46
    6  A    between atoms: O_6  and  P_12
    7  A    between atoms: O_6  and  C_23
    8  A    between atoms: C_10  and  C_43
    9  A    between atoms: C_11  and  C_27
   10  A    between atoms: C_11  and  C_45
   11  A    between atoms: P_12  and  C_40
   12  A    between atoms: O_21  and  C_38
   13  A    between atoms: C_23  and  C_41
   14  A    between atoms: C_25  and  C_31
   15  A    between atoms: C_25  and  C_41
   16  A    between atoms: C_38  and  C_43
                            x       y       z     vdW  Elec       q    Type
                         _______ _______ _______ _____ _____    ______ ____

>  <TORSDO>
F 16

$$$$
=
 OpenBabel11072413553D

 46 49  0  0  1  0  0  0  0  0999 V2000
  159.7510  208.2930  155.2370 C   0  0  0  0  0  2  0  0  0  0  0  0
  161.4050  210.0590  154.7980 O   0  0  0  0  0  0  0  0  0  0  0  0
  161.9480  211.2820  156.5030 C   0  0  0  0  0  2  0  0  0  0  0  0
  158.7480  211.9180  155.9610 C   0  0  2  0  0  0  0  0  0  0  0  0
  160.0530  209.7900  155.1250 C   0  0  2  0  0  3  0  0  0  0  0  0
  162.1080  210.0180  155.9220 O   0  0  0  0  0  0  0  0  0  0  0  0
  159.5110  210.6280  156.3090 C   0  0  1  0  0  3  0  0  0  0  0  0
  159.8550  213.0040  156.9440 S   0  0  0  0  0  0  0  0  0  0  0  0
  160.5720  211.3400  157.1510 C   0  0  2  0  0  3  0  0  0  0  0  0
  157.1060  214.1610  157.2600 O   0  0  0  0  0  0  0  0  0  0  0  0
  154.3560  213.6860  156.4830 O   0  0  0  0  0  1  0  0  0  0  0  0
  156.3070  209.9710  155.3840 O   0  0  0  0  0  0  0  0  0  0  0  0
  155.3160  212.0580  155.1810 O   0  0  0  0  0  0  0  0  0  0  0  0
  156.3020  211.2030  155.6470 C   0  0  0  0  0  0  0  0  0  0  0  0
  155.4690  213.3670  155.7060 C   0  0  2  0  0  3  0  0  0  0  0  0
  156.6790  213.2440  156.5760 C   0  0  0  0  0  0  0  0  0  0  0  0
  157.2990  211.8770  156.5320 C   0  0  2  0  0  3  0  0  0  0  0  0
  158.7990  213.8050  154.1460 C   0  0  2  0  0  3  0  0  0  0  0  0
  159.7460  214.4530  154.9450 O   0  0  0  0  0  1  0  0  0  0  0  0
  159.9900  212.5890  152.3910 C   0  0  2  0  0  3  0  0  0  0  0  0
  158.7530  212.3110  154.4530 C   0  0  1  0  0  3  0  0  0  0  0  0
  159.2450  213.8810  152.6990 C   0  0  0  0  0  2  0  0  0  0  0  0
  159.4050  211.9690  151.2870 O   0  0  0  0  0  1  0  0  0  0  0  0
  159.8530  211.6930  153.6070 C   0  0  0  0  0  2  0  0  0  0  0  0
  160.9240  207.3900  154.8660 C   0  0  0  0  0  2  0  0  0  0  0  0
  161.4160  207.6480  153.4470 C   0  0  0  0  0  2  0  0  0  0  0  0
  160.5290  207.0990  152.5140 O   0  0  0  0  0  0  0  0  0  0  0  0
  161.3900  205.1990  150.9270 O   0  0  0  0  0  0  0  0  0  0  0  0
  161.4690  206.6890  151.1620 P   0  0  2  0  0  0  0  0  0  0  0  0
  163.0780  207.1130  151.4690 O   0  0  0  0  0  1  0  0  0  0  0  0
  160.9010  207.5860  149.6820 C   0  0  0  0  0  2  0  0  0  0  0  0
  162.0880  208.0700  148.8600 C   0  0  1  0  0  3  0  0  0  0  0  0
  162.4790  207.0970  147.8900 O   0  0  0  0  0  0  0  0  0  0  0  0
  160.3690  206.6910  147.0230 O   0  0  0  0  0  0  0  0  0  0  0  0
  161.5710  206.3330  147.1430 C   0  0  0  0  0  0  0  0  0  0  0  0
  162.0360  203.9440  147.5240 C   0  0  0  0  0  1  0  0  0  0  0  0
  162.0220  205.0640  146.4970 C   0  0  1  0  0  3  0  0  0  0  0  0
  161.1230  204.7070  145.3150 C   0  0  0  0  0  3  0  0  0  0  0  0
  160.8770  203.3320  145.2970 O   0  0  0  0  0  1  0  0  0  0  0  0
  161.7400  205.0720  144.1170 O   0  0  0  0  0  1  0  0  0  0  0  0
  161.7790  209.2820  148.2350 O   0  0  0  0  0  0  0  0  0  0  0  0
  161.8780  210.1900  149.1840 O   0  0  0  0  0  0  0  0  0  0  0  0
  160.8150  211.5860  147.0520 O   0  0  0  0  0  0  0  0  0  0  0  0
  161.8620  211.6830  148.3780 P   0  0  0  0  0  0  0  0  0  0  0  0
  161.3200  212.8930  149.4270 O   0  0  0  0  0  1  0  0  0  0  0  0
  163.2520  212.0230  147.8900 O   0  0  0  0  0  1  0  0  0  0  0  0
  2  5  1  0  0  0  0
  2  6  1  0  0  0  0
  3  9  1  0  0  0  0
  4  7  1  0  0  0  0
  4 17  1  0  0  0  0
  4  8  1  1  0  0  0
  5  1  1  1  0  0  0
  5  7  1  0  0  0  0
  6  3  1  0  0  0  0
  7  9  1  0  0  0  0
  8  9  1  0  0  0  0
 12 14  2  0  0  0  0
 13 14  1  0  0  0  0
 13 15  1  0  0  0  0
 14 17  1  0  0  0  0
 15 11  1  0  0  0  0
 15 16  1  0  0  0  0
 16 10  2  0  0  0  0
 17 16  1  0  0  0  0
 18 21  1  0  0  0  0
 18 19  1  0  0  0  0
 20 22  1  0  0  0  0
 20 24  1  0  0  0  0
 21  4  1  0  0  0  0
 22 18  1  0  0  0  0
 23 20  1  0  0  0  0
 24 21  1  0  0  0  0
 25  1  1  0  0  0  0
 26 25  1  0  0  0  0
 27 26  1  0  0  0  0
 28 29  2  0  0  0  0
 29 30  1  0  0  0  0
 29 27  1  0  0  0  0
 31 29  1  0  0  0  0
 32 31  1  0  0  0  0
 33 32  1  0  0  0  0
 34 35  2  0  0  0  0
 35 33  1  0  0  0  0
 37 35  1  0  0  0  0
 37 36  1  0  0  0  0
 38 37  1  0  0  0  0
 39 38  1  0  0  0  0
 40 38  1  0  0  0  0
 41 32  1  0  0  0  0
 41 42  1  0  0  0  0
 43 44  2  0  0  0  0
 44 42  1  0  0  0  0
 44 45  1  0  0  0  0
 46 44  1  0  0  0  0
M  END
>  <MODEL>
6

>  <REMARK>
 VINA RESULT:      -3.5      1.287      2.044
  Name = 
  16 active torsions:
  status: ('A' for Active; 'I' for Inactive)
    1  A    between atoms: C_3  and  O_21
    2  A    between atoms: C_3  and  C_40
    3  A    between atoms: C_3  and  O_46
    4  A    between atoms: O_4  and  P_19
    5  A    between atoms: O_4  and  O_46
    6  A    between atoms: O_6  and  P_12
    7  A    between atoms: O_6  and  C_23
    8  A    between atoms: C_10  and  C_43
    9  A    between atoms: C_11  and  C_27
   10  A    between atoms: C_11  and  C_45
   11  A    between atoms: P_12  and  C_40
   12  A    between atoms: O_21  and  C_38
   13  A    between atoms: C_23  and  C_41
   14  A    between atoms: C_25  and  C_31
   15  A    between atoms: C_25  and  C_41
   16  A    between atoms: C_38  and  C_43
                            x       y       z     vdW  Elec       q    Type
                         _______ _______ _______ _____ _____    ______ ____

>  <TORSDO>
F 16

$$$$
=
 OpenBabel11072413553D

 46 49  0  0  1  0  0  0  0  0999 V2000
  160.1620  208.1920  155.4680 C   0  0  0  0  0  2  0  0  0  0  0  0
  161.6990  210.0130  154.8610 O   0  0  0  0  0  0  0  0  0  0  0  0
  162.1120  211.4540  156.4270 C   0  0  0  0  0  2  0  0  0  0  0  0
  158.8900  211.7920  155.7590 C   0  0  2  0  0  0  0  0  0  0  0  0
  160.3620  209.6850  155.1920 C   0  0  2  0  0  3  0  0  0  0  0  0
  162.3750  210.1480  155.9940 O   0  0  0  0  0  0  0  0  0  0  0  0
  159.7320  210.6080  156.2640 C   0  0  1  0  0  3  0  0  0  0  0  0
  159.8930  213.0590  156.6320 S   0  0  0  0  0  0  0  0  0  0  0  0
  160.7190  211.4840  157.0390 C   0  0  2  0  0  3  0  0  0  0  0  0
  157.2460  213.9190  157.2400 O   0  0  0  0  0  0  0  0  0  0  0  0
  154.5040  213.5410  156.3870 O   0  0  0  0  0  1  0  0  0  0  0  0
  156.4440  209.9280  154.9710 O   0  0  0  0  0  0  0  0  0  0  0  0
  155.4710  212.0330  154.9510 O   0  0  0  0  0  0  0  0  0  0  0  0
  156.4440  211.1300  155.3480 C   0  0  0  0  0  0  0  0  0  0  0  0
  155.6250  213.2860  155.5970 C   0  0  2  0  0  3  0  0  0  0  0  0
  156.8220  213.0730  156.4680 C   0  0  0  0  0  0  0  0  0  0  0  0
  157.4340  211.7110  156.3050 C   0  0  2  0  0  3  0  0  0  0  0  0
  158.1730  213.2510  153.7060 C   0  0  2  0  0  3  0  0  0  0  0  0
  158.4760  214.3730  154.4830 O   0  0  0  0  0  1  0  0  0  0  0  0
  160.0850  212.7950  152.2510 C   0  0  2  0  0  3  0  0  0  0  0  0
  158.9070  212.0150  154.2160 C   0  0  1  0  0  3  0  0  0  0  0  0
  158.7170  213.4640  152.3070 C   0  0  0  0  0  2  0  0  0  0  0  0
  160.1100  211.8790  151.2000 O   0  0  0  0  0  1  0  0  0  0  0  0
  160.2780  212.0640  153.5660 C   0  0  0  0  0  2  0  0  0  0  0  0
  161.4230  207.3500  155.2880 C   0  0  0  0  0  2  0  0  0  0  0  0
  161.8040  207.1990  153.8200 C   0  0  0  0  0  2  0  0  0  0  0  0
  160.7500  206.6300  153.0970 O   0  0  0  0  0  0  0  0  0  0  0  0
  161.3740  204.0850  153.1520 O   0  0  0  0  0  1  0  0  0  0  0  0
  161.4150  205.3080  152.2660 P   0  0  2  0  0  0  0  0  0  0  0  0
  163.0250  205.6600  151.8850 O   0  0  0  0  0  0  0  0  0  0  0  0
  160.5040  204.9900  150.7210 C   0  0  0  0  0  2  0  0  0  0  0  0
  161.3080  204.0780  149.8040 C   0  0  1  0  0  3  0  0  0  0  0  0
  160.4630  203.1440  149.1300 O   0  0  0  0  0  0  0  0  0  0  0  0
  160.7490  200.9220  149.7220 O   0  0  0  0  0  0  0  0  0  0  0  0
  160.8320  201.8230  148.8440 C   0  0  0  0  0  0  0  0  0  0  0  0
  161.7020  199.9940  147.4400 C   0  0  0  0  0  1  0  0  0  0  0  0
  161.3560  201.4730  147.4890 C   0  0  1  0  0  3  0  0  0  0  0  0
  160.3420  201.8310  146.4050 C   0  0  0  0  0  3  0  0  0  0  0  0
  159.8170  200.6680  145.8370 O   0  0  0  0  0  1  0  0  0  0  0  0
  160.9580  202.5850  145.4040 O   0  0  0  0  0  1  0  0  0  0  0  0
  162.0260  204.8390  148.8760 O   0  0  0  0  0  0  0  0  0  0  0  0
  161.3040  204.8030  147.7750 O   0  0  0  0  0  0  0  0  0  0  0  0
  163.6090  205.0170  146.2700 O   0  0  0  0  0  1  0  0  0  0  0  0
  162.1430  205.7670  146.6590 P   0  0  0  0  0  0  0  0  0  0  0  0
  161.2200  205.9490  145.2540 O   0  0  0  0  0  0  0  0  0  0  0  0
  162.4240  207.1270  147.2580 O   0  0  0  0  0  1  0  0  0  0  0  0
  2  5  1  0  0  0  0
  2  6  1  0  0  0  0
  3  9  1  0  0  0  0
  4  7  1  0  0  0  0
  4 17  1  0  0  0  0
  4  8  1  1  0  0  0
  5  1  1  1  0  0  0
  5  7  1  0  0  0  0
  6  3  1  0  0  0  0
  7  9  1  0  0  0  0
  8  9  1  0  0  0  0
 12 14  2  0  0  0  0
 13 14  1  0  0  0  0
 13 15  1  0  0  0  0
 14 17  1  0  0  0  0
 15 11  1  0  0  0  0
 15 16  1  0  0  0  0
 16 10  2  0  0  0  0
 17 16  1  0  0  0  0
 18 21  1  0  0  0  0
 18 19  1  0  0  0  0
 20 22  1  0  0  0  0
 20 24  1  0  0  0  0
 21  4  1  0  0  0  0
 22 18  1  0  0  0  0
 23 20  1  0  0  0  0
 24 21  1  0  0  0  0
 25  1  1  0  0  0  0
 26 25  1  0  0  0  0
 27 26  1  0  0  0  0
 29 27  1  0  0  0  0
 29 28  1  0  0  0  0
 30 29  2  0  0  0  0
 31 29  1  0  0  0  0
 32 31  1  0  0  0  0
 33 32  1  0  0  0  0
 35 33  1  0  0  0  0
 35 34  2  0  0  0  0
 36 37  1  0  0  0  0
 37 35  1  0  0  0  0
 38 37  1  0  0  0  0
 39 38  1  0  0  0  0
 40 38  1  0  0  0  0
 41 32  1  0  0  0  0
 42 41  1  0  0  0  0
 43 44  1  0  0  0  0
 44 46  1  0  0  0  0
 44 42  1  0  0  0  0
 45 44  2  0  0  0  0
M  END
>  <MODEL>
7

>  <REMARK>
 VINA RESULT:      -3.2      2.163      3.347
  Name = 
  16 active torsions:
  status: ('A' for Active; 'I' for Inactive)
    1  A    between atoms: C_3  and  O_21
    2  A    between atoms: C_3  and  C_40
    3  A    between atoms: C_3  and  O_46
    4  A    between atoms: O_4  and  P_19
    5  A    between atoms: O_4  and  O_46
    6  A    between atoms: O_6  and  P_12
    7  A    between atoms: O_6  and  C_23
    8  A    between atoms: C_10  and  C_43
    9  A    between atoms: C_11  and  C_27
   10  A    between atoms: C_11  and  C_45
   11  A    between atoms: P_12  and  C_40
   12  A    between atoms: O_21  and  C_38
   13  A    between atoms: C_23  and  C_41
   14  A    between atoms: C_25  and  C_31
   15  A    between atoms: C_25  and  C_41
   16  A    between atoms: C_38  and  C_43
                            x       y       z     vdW  Elec       q    Type
                         _______ _______ _______ _____ _____    ______ ____

>  <TORSDO>
F 16

$$$$
=
 OpenBabel11072413553D

 46 49  0  0  1  0  0  0  0  0999 V2000
  159.9890  209.8400  152.5110 C   0  0  0  0  0  2  0  0  0  0  0  0
  158.1470  211.4390  152.2000 O   0  0  0  0  0  0  0  0  0  0  0  0
  158.6450  213.5220  152.5320 C   0  0  0  0  0  2  0  0  0  0  0  0
  159.0130  212.0590  155.4760 C   0  0  2  0  0  0  0  0  0  0  0  0
  159.0150  210.8380  153.1440 C   0  0  2  0  0  3  0  0  0  0  0  0
  158.7960  212.4510  151.6410 O   0  0  0  0  0  0  0  0  0  0  0  0
  159.6890  211.8410  154.1110 C   0  0  1  0  0  3  0  0  0  0  0  0
  158.8230  213.8710  155.2510 S   0  0  0  0  0  0  0  0  0  0  0  0
  159.6010  213.3120  153.6980 C   0  0  2  0  0  3  0  0  0  0  0  0
  160.3570  209.3820  156.1440 O   0  0  0  0  0  0  0  0  0  0  0  0
  162.9590  210.0470  157.2300 O   0  0  0  0  0  1  0  0  0  0  0  0
  160.9120  213.8720  157.2610 O   0  0  0  0  0  0  0  0  0  0  0  0
  162.3460  212.1710  156.6080 O   0  0  0  0  0  0  0  0  0  0  0  0
  161.0860  212.6940  156.8510 C   0  0  0  0  0  0  0  0  0  0  0  0
  162.2840  210.7960  156.2660 C   0  0  2  0  0  3  0  0  0  0  0  0
  160.8200  210.4980  156.3240 C   0  0  0  0  0  0  0  0  0  0  0  0
  159.9860  211.7060  156.6400 C   0  0  2  0  0  3  0  0  0  0  0  0
  156.8530  211.7200  156.9180 C   0  0  2  0  0  3  0  0  0  0  0  0
  156.8660  213.1010  157.1380 O   0  0  0  0  0  1  0  0  0  0  0  0
  155.2780  211.2530  155.1080 C   0  0  2  0  0  3  0  0  0  0  0  0
  157.6320  211.3580  155.6570 C   0  0  1  0  0  3  0  0  0  0  0  0
  155.4320  211.2840  156.6230 C   0  0  0  0  0  2  0  0  0  0  0  0
  154.8400  209.9890  154.7130 O   0  0  0  0  0  1  0  0  0  0  0  0
  156.6470  211.5240  154.5140 C   0  0  0  0  0  2  0  0  0  0  0  0
  161.3100  210.4570  152.0620 C   0  0  0  0  0  2  0  0  0  0  0  0
  162.1970  209.4480  151.3430 C   0  0  0  0  0  2  0  0  0  0  0  0
  162.4510  209.8660  150.0320 O   0  0  0  0  0  0  0  0  0  0  0  0
  163.3990  207.9750  148.4840 O   0  0  0  0  0  1  0  0  0  0  0  0
  162.1090  208.5310  149.0420 P   0  0  2  0  0  0  0  0  0  0  0  0
  161.1290  209.0410  147.7610 O   0  0  0  0  0  0  0  0  0  0  0  0
  161.2260  207.2410  149.9760 C   0  0  0  0  0  2  0  0  0  0  0  0
  160.5240  206.2780  149.0270 C   0  0  1  0  0  3  0  0  0  0  0  0
  161.3840  205.8890  147.9540 O   0  0  0  0  0  0  0  0  0  0  0  0
  161.4190  203.5920  147.6510 O   0  0  0  0  0  0  0  0  0  0  0  0
  161.1900  204.7380  147.1780 C   0  0  0  0  0  0  0  0  0  0  0  0
  159.7980  206.0560  145.6300 C   0  0  0  0  0  1  0  0  0  0  0  0
  160.7310  204.8640  145.7620 C   0  0  1  0  0  3  0  0  0  0  0  0
  161.9210  204.9960  144.8140 C   0  0  0  0  0  3  0  0  0  0  0  0
  162.7600  206.0290  145.2400 O   0  0  0  0  0  1  0  0  0  0  0  0
  161.4740  205.2800  143.5220 O   0  0  0  0  0  1  0  0  0  0  0  0
  160.0800  205.1510  149.7260 O   0  0  0  0  0  0  0  0  0  0  0  0
  160.4880  205.3370  150.9650 O   0  0  0  0  0  0  0  0  0  0  0  0
  160.2150  203.3670  152.8800 O   0  0  0  0  0  1  0  0  0  0  0  0
  161.0500  203.8220  151.4820 P   0  0  0  0  0  0  0  0  0  0  0  0
  160.7810  202.6700  150.2730 O   0  0  0  0  0  0  0  0  0  0  0  0
  162.5300  203.8960  151.7880 O   0  0  0  0  0  1  0  0  0  0  0  0
  2  5  1  0  0  0  0
  3  9  1  0  0  0  0
  4  8  1  1  0  0  0
  4 21  1  0  0  0  0
  4 17  1  0  0  0  0
  5  1  1  6  0  0  0
  5  7  1  0  0  0  0
  6  2  1  0  0  0  0
  6  3  1  0  0  0  0
  7  4  1  0  0  0  0
  9  7  1  0  0  0  0
  9  8  1  0  0  0  0
 10 16  2  0  0  0  0
 13 14  1  0  0  0  0
 14 12  2  0  0  0  0
 15 16  1  0  0  0  0
 15 13  1  0  0  0  0
 15 11  1  0  0  0  0
 16 17  1  0  0  0  0
 17 14  1  0  0  0  0
 18 19  1  0  0  0  0
 20 22  1  0  0  0  0
 21 18  1  0  0  0  0
 22 18  1  0  0  0  0
 23 20  1  0  0  0  0
 24 20  1  0  0  0  0
 24 21  1  0  0  0  0
 25  1  1  0  0  0  0
 26 25  1  0  0  0  0
 27 26  1  0  0  0  0
 28 29  1  0  0  0  0
 29 31  1  0  0  0  0
 29 27  1  0  0  0  0
 30 29  2  0  0  0  0
 32 41  1  0  0  0  0
 32 31  1  0  0  0  0
 33 32  1  0  0  0  0
 35 34  2  0  0  0  0
 35 33  1  0  0  0  0
 36 37  1  0  0  0  0
 37 35  1  0  0  0  0
 38 39  1  0  0  0  0
 38 37  1  0  0  0  0
 40 38  1  0  0  0  0
 41 42  1  0  0  0  0
 42 44  1  0  0  0  0
 44 46  1  0  0  0  0
 44 43  1  0  0  0  0
 45 44  2  0  0  0  0
M  END
>  <MODEL>
8

>  <REMARK>
 VINA RESULT:      -2.9      1.866      4.833
  Name = 
  16 active torsions:
  status: ('A' for Active; 'I' for Inactive)
    1  A    between atoms: C_3  and  O_21
    2  A    between atoms: C_3  and  C_40
    3  A    between atoms: C_3  and  O_46
    4  A    between atoms: O_4  and  P_19
    5  A    between atoms: O_4  and  O_46
    6  A    between atoms: O_6  and  P_12
    7  A    between atoms: O_6  and  C_23
    8  A    between atoms: C_10  and  C_43
    9  A    between atoms: C_11  and  C_27
   10  A    between atoms: C_11  and  C_45
   11  A    between atoms: P_12  and  C_40
   12  A    between atoms: O_21  and  C_38
   13  A    between atoms: C_23  and  C_41
   14  A    between atoms: C_25  and  C_31
   15  A    between atoms: C_25  and  C_41
   16  A    between atoms: C_38  and  C_43
                            x       y       z     vdW  Elec       q    Type
                         _______ _______ _______ _____ _____    ______ ____

>  <TORSDO>
F 16

$$$$
=
 OpenBabel11072413553D

 46 49  0  0  1  0  0  0  0  0999 V2000
  160.6590  209.2010  152.4800 C   0  0  0  0  0  2  0  0  0  0  0  0
  161.1060  208.2380  154.6980 O   0  0  0  0  0  0  0  0  0  0  0  0
  159.4170  208.1860  156.0560 C   0  0  0  0  0  2  0  0  0  0  0  0
  160.0320  211.3970  155.5550 C   0  0  2  0  0  0  0  0  0  0  0  0
  160.7980  209.4240  153.9880 C   0  0  2  0  0  3  0  0  0  0  0  0
  159.9690  207.5900  154.9150 O   0  0  0  0  0  0  0  0  0  0  0  0
  159.6430  210.2490  154.6070 C   0  0  1  0  0  3  0  0  0  0  0  0
  159.0530  210.7510  156.9670 S   0  0  0  0  0  0  0  0  0  0  0  0
  158.7970  209.5150  155.6510 C   0  0  2  0  0  3  0  0  0  0  0  0
  160.1940  212.6030  152.7370 O   0  0  0  0  0  0  0  0  0  0  0  0
  157.7370  214.0910  152.3650 O   0  0  0  0  0  1  0  0  0  0  0  0
  157.7340  213.3050  156.6320 O   0  0  0  0  0  0  0  0  0  0  0  0
  157.2010  213.1320  154.3820 O   0  0  0  0  0  0  0  0  0  0  0  0
  158.0870  213.0680  155.4460 C   0  0  0  0  0  0  0  0  0  0  0  0
  157.8600  212.9380  153.1410 C   0  0  2  0  0  3  0  0  0  0  0  0
  159.2880  212.7440  153.5420 C   0  0  0  0  0  0  0  0  0  0  0  0
  159.4880  212.7590  155.0310 C   0  0  2  0  0  3  0  0  0  0  0  0
  161.9910  210.7720  157.1770 C   0  0  2  0  0  3  0  0  0  0  0  0
  161.4260  209.4950  157.2560 O   0  0  0  0  0  1  0  0  0  0  0  0
  163.8070  210.7000  155.5430 C   0  0  2  0  0  3  0  0  0  0  0  0
  161.5480  211.4890  155.9060 C   0  0  1  0  0  3  0  0  0  0  0  0
  163.4930  210.6350  157.0320 C   0  0  0  0  0  2  0  0  0  0  0  0
  164.7350  211.7150  155.3100 O   0  0  0  0  0  1  0  0  0  0  0  0
  162.5110  211.0250  154.8260 C   0  0  0  0  0  2  0  0  0  0  0  0
  161.9340  208.7070  151.8030 C   0  0  0  0  0  2  0  0  0  0  0  0
  161.6360  207.8720  150.5640 C   0  0  0  0  0  2  0  0  0  0  0  0
  160.6680  206.9030  150.8480 O   0  0  0  0  0  0  0  0  0  0  0  0
  161.5780  205.4400  152.8240 O   0  0  0  0  0  1  0  0  0  0  0  0
  161.5230  205.5130  151.3160 P   0  0  2  0  0  0  0  0  0  0  0  0
  163.1000  205.6160  150.7110 O   0  0  0  0  0  0  0  0  0  0  0  0
  160.7370  204.0130  150.6470 C   0  0  0  0  0  2  0  0  0  0  0  0
  161.4780  203.5270  149.4080 C   0  0  1  0  0  3  0  0  0  0  0  0
  161.3010  202.1220  149.2160 O   0  0  0  0  0  0  0  0  0  0  0  0
  159.3160  201.3180  148.3330 O   0  0  0  0  0  0  0  0  0  0  0  0
  160.5410  201.5670  148.1770 C   0  0  0  0  0  0  0  0  0  0  0  0
  161.4210  199.7400  146.7770 C   0  0  0  0  0  1  0  0  0  0  0  0
  161.1910  201.2390  146.8720 C   0  0  1  0  0  3  0  0  0  0  0  0
  160.3430  201.7350  145.7030 C   0  0  0  0  0  3  0  0  0  0  0  0
  159.9420  200.6570  144.9110 O   0  0  0  0  0  1  0  0  0  0  0  0
  161.0830  202.6230  144.9180 O   0  0  0  0  0  1  0  0  0  0  0  0
  161.0430  204.2290  148.2800 O   0  0  0  0  0  0  0  0  0  0  0  0
  162.1390  204.4890  147.5980 O   0  0  0  0  0  0  0  0  0  0  0  0
  162.7400  205.8580  145.2760 O   0  0  0  0  0  0  0  0  0  0  0  0
  161.7690  205.8550  146.6610 P   0  0  0  0  0  0  0  0  0  0  0  0
  160.1430  205.8080  146.2000 O   0  0  0  0  0  1  0  0  0  0  0  0
  162.0320  207.1140  147.4560 O   0  0  0  0  0  1  0  0  0  0  0  0
  2  6  1  0  0  0  0
  4 21  1  0  0  0  0
  4  8  1  1  0  0  0
  5  1  1  6  0  0  0
  5  7  1  0  0  0  0
  5  2  1  0  0  0  0
  6  3  1  0  0  0  0
  7  4  1  0  0  0  0
  7  9  1  0  0  0  0
  9  3  1  0  0  0  0
  9  8  1  0  0  0  0
 10 16  2  0  0  0  0
 11 15  1  0  0  0  0
 13 14  1  0  0  0  0
 14 12  2  0  0  0  0
 15 16  1  0  0  0  0
 15 13  1  0  0  0  0
 16 17  1  0  0  0  0
 17 14  1  0  0  0  0
 17  4  1  0  0  0  0
 18 19  1  0  0  0  0
 20 22  1  0  0  0  0
 21 18  1  0  0  0  0
 22 18  1  0  0  0  0
 23 20  1  0  0  0  0
 24 20  1  0  0  0  0
 24 21  1  0  0  0  0
 25  1  1  0  0  0  0
 26 27  1  0  0  0  0
 26 25  1  0  0  0  0
 27 29  1  0  0  0  0
 29 28  1  0  0  0  0
 30 29  2  0  0  0  0
 31 29  1  0  0  0  0
 32 31  1  0  0  0  0
 33 32  1  0  0  0  0
 35 34  2  0  0  0  0
 35 33  1  0  0  0  0
 36 37  1  0  0  0  0
 37 35  1  0  0  0  0
 38 37  1  0  0  0  0
 39 38  1  0  0  0  0
 40 38  1  0  0  0  0
 41 32  1  0  0  0  0
 42 41  1  0  0  0  0
 43 44  2  0  0  0  0
 44 46  1  0  0  0  0
 44 42  1  0  0  0  0
 45 44  1  0  0  0  0
M  END
>  <MODEL>
9

>  <REMARK>
 VINA RESULT:      -2.9      2.538      4.586
  Name = 
  16 active torsions:
  status: ('A' for Active; 'I' for Inactive)
    1  A    between atoms: C_3  and  O_21
    2  A    between atoms: C_3  and  C_40
    3  A    between atoms: C_3  and  O_46
    4  A    between atoms: O_4  and  P_19
    5  A    between atoms: O_4  and  O_46
    6  A    between atoms: O_6  and  P_12
    7  A    between atoms: O_6  and  C_23
    8  A    between atoms: C_10  and  C_43
    9  A    between atoms: C_11  and  C_27
   10  A    between atoms: C_11  and  C_45
   11  A    between atoms: P_12  and  C_40
   12  A    between atoms: O_21  and  C_38
   13  A    between atoms: C_23  and  C_41
   14  A    between atoms: C_25  and  C_31
   15  A    between atoms: C_25  and  C_41
   16  A    between atoms: C_38  and  C_43
                            x       y       z     vdW  Elec       q    Type
                         _______ _______ _______ _____ _____    ______ ____

>  <TORSDO>
F 16

$$$$
