=
 OpenBabel11072414593D

 39 42  0  0  1  0  0  0  0  0999 V2000
  160.7010  214.1940  144.3700 C   0  0  2  0  0  3  0  0  0  0  0  0
  161.5370  212.6020  148.6270 C   0  0  0  0  0  2  0  0  0  0  0  0
  158.3690  214.0380  145.0070 N   0  0  0  0  0  0  0  0  0  0  0  0
  159.3090  213.8020  143.9110 C   0  0  2  0  0  3  0  0  0  0  0  0
  157.4410  213.7410  149.8440 C   0  0  0  0  0  0  0  0  0  0  0  0
  160.2420  213.4030  146.6130 C   0  0  2  0  0  3  0  0  0  0  0  0
  159.3420  212.9310  151.1870 C   0  0  0  0  0  3  0  0  0  0  0  0
  160.5430  212.2230  147.5430 C   0  0  0  0  0  2  0  0  0  0  0  0
  162.4800  213.6980  145.8310 C   0  0  0  0  0  2  0  0  0  0  0  0
  157.1550  213.5810  144.6120 O   0  0  0  0  0  1  0  0  0  0  0  0
  161.8650  210.5290  150.2870 C   0  0  0  0  0  0  0  0  0  0  0  0
  159.2180  212.6230  153.5840 C   0  0  0  0  0  0  0  0  0  0  0  0
  155.9570  213.8610  152.3750 O   0  0  0  0  0  1  0  0  0  0  0  0
  162.0660  209.3870  151.1910 C   0  0  0  0  0  2  0  0  0  0  0  0
  157.2800  213.4350  152.3580 C   0  0  0  0  0  0  0  0  0  0  0  0
  161.6740  214.2000  143.1770 C   0  0  0  0  0  2  0  0  0  0  0  0
  161.1040  211.6250  154.6830 O   0  0  0  0  0  0  0  0  0  0  0  0
  163.4880  213.3600  144.7280 C   0  0  0  0  0  2  0  0  0  0  0  0
  160.9130  209.5870  153.3900 C   0  0  0  0  0  2  0  0  0  0  0  0
  159.2810  212.4610  143.4990 O   0  0  0  0  0  1  0  0  0  0  0  0
  160.9020  210.2420  154.7770 C   0  0  1  0  0  3  0  0  0  0  0  0
  156.4030  214.4530  149.7710 O   0  0  0  0  0  0  0  0  0  0  0  0
  157.8880  213.0580  153.5640 C   0  0  0  0  0  3  0  0  0  0  0  0
  158.7260  213.3370  146.2510 C   0  0  1  0  0  3  0  0  0  0  0  0
  161.7180  211.4670  149.5370 C   0  0  0  0  0  0  0  0  0  0  0  0
  161.1270  213.2860  145.4400 N   0  0  2  0  0  0  0  0  0  0  0  0
  157.8740  213.9600  147.3670 C   0  0  0  0  0  2  0  0  0  0  0  0
  158.0990  213.3160  148.6510 N   0  0  0  0  0  2  0  0  0  0  0  0
  162.8160  213.1980  143.3600 C   0  0  0  0  0  2  0  0  0  0  0  0
  159.9430  212.5710  152.3880 C   0  0  0  0  0  3  0  0  0  0  0  0
  158.0100  213.3590  151.1510 C   0  0  0  0  0  0  0  0  0  0  0  0
  159.8440  212.2080  154.8820 C   0  0  0  0  0  2  0  0  0  0  0  0
  162.1990  209.8700  152.6240 C   0  0  0  0  0  2  0  0  0  0  0  0
  162.9060  210.2940  156.0870 O   0  0  0  0  0  0  0  0  0  0  0  0
  161.7380  208.2930  156.1960 N   0  0  0  0  0  2  0  0  0  0  0  0
  161.9090  209.6240  155.7070 C   0  0  0  0  0  0  0  0  0  0  0  0
  160.5740  207.4740  155.8910 C   0  0  2  0  0  3  0  0  0  0  0  0
  160.0790  206.8570  157.1080 N   0  0  0  0  0  1  0  0  0  0  0  0
  160.9680  206.3870  154.9110 C   0  0  0  0  0  1  0  0  0  0  0  0
  1 16  1  6  0  0  0
  1 26  1  0  0  0  0
  2 25  1  0  0  0  0
  3 24  1  0  0  0  0
  4 20  1  1  0  0  0
  4  1  1  0  0  0  0
  4  3  1  0  0  0  0
  5 31  1  0  0  0  0
  6  8  1  1  0  0  0
  7 30  1  0  0  0  0
  8  2  1  0  0  0  0
 10  3  1  0  0  0  0
 11 14  1  0  0  0  0
 12 32  1  0  0  0  0
 14 33  1  0  0  0  0
 15 13  1  0  0  0  0
 15 23  2  0  0  0  0
 16 29  1  0  0  0  0
 17 21  1  0  0  0  0
 17 32  1  0  0  0  0
 18  9  1  0  0  0  0
 19 21  1  0  0  0  0
 21 36  1  1  0  0  0
 22  5  2  0  0  0  0
 23 12  1  0  0  0  0
 24  6  1  0  0  0  0
 24 27  1  1  0  0  0
 25 11  3  0  0  0  0
 26  9  1  1  0  0  0
 26  6  1  0  0  0  0
 27 28  1  0  0  0  0
 28  5  1  0  0  0  0
 29 18  1  0  0  0  0
 30 12  2  0  0  0  0
 31  7  2  0  0  0  0
 31 15  1  0  0  0  0
 33 19  1  0  0  0  0
 36 34  2  0  0  0  0
 36 35  1  0  0  0  0
 37 39  1  6  0  0  0
 37 35  1  0  0  0  0
 37 38  1  0  0  0  0
M  END
>  <MODEL>
1

>  <REMARK>
 VINA RESULT:      -7.3      0.000      0.000
  Name = 
  2 active torsions:
  status: ('A' for Active; 'I' for Inactive)
    1  A    between atoms: C_3  and  N_22
    2  A    between atoms: C_24  and  C_34
                            x       y       z     vdW  Elec       q    Type
                         _______ _______ _______ _____ _____    ______ ____

>  <TORSDO>
F 2

$$$$
