=
 OpenBabel11072414273D

 47 50  0  0  1  0  0  0  0  0999 V2000
  161.4170  210.6840  148.5150 C   0  0  1  0  0  3  0  0  0  0  0  0
  161.0080  212.9220  150.9920 N   0  0  0  0  0  2  0  0  0  0  0  0
  160.9460  208.2290  152.2960 C   0  0  2  0  0  3  0  0  0  0  0  0
  160.9640  208.0880  149.8320 C   0  0  0  0  0  2  0  0  0  0  0  0
  160.7590  212.5730  149.6560 N   0  0  0  0  0  2  0  0  0  0  0  0
  161.8360  208.2870  151.0620 C   0  0  0  0  0  2  0  0  0  0  0  0
  161.2620  209.3240  153.3220 C   0  0  0  0  0  2  0  0  0  0  0  0
  160.1640  210.9890  151.8710 N   0  0  0  0  0  2  0  0  0  0  0  0
  162.3740  209.6750  148.6490 O   0  0  0  0  0  0  0  0  0  0  0  0
  161.9000  211.8840  149.2130 N   0  0  2  0  0  0  0  0  0  0  0  0
  161.3100  210.7340  152.7360 C   0  0  0  0  0  2  0  0  0  0  0  0
  159.9750  212.3800  151.7800 N   0  0  0  0  0  2  0  0  0  0  0  0
  161.9560  211.7890  147.7310 C   0  0  2  0  0  3  0  0  0  0  0  0
  161.6830  208.4600  148.5320 C   0  0  1  0  0  3  0  0  0  0  0  0
  162.6460  207.3530  148.1360 C   0  0  0  0  0  2  0  0  0  0  0  0
  161.9850  205.9880  148.3140 C   0  0  1  0  0  3  0  0  0  0  0  0
  161.2520  205.4570  147.0760 C   0  0  2  0  0  3  0  0  0  0  0  0
  162.6530  204.9780  147.4030 C   0  0  0  0  0  2  0  0  0  0  0  0
  161.3000  206.3740  145.8610 C   0  0  0  0  0  2  0  0  0  0  0  0
  160.4530  204.5590  144.5840 O   0  0  0  0  0  1  0  0  0  0  0  0
  161.4380  205.5450  144.6040 C   0  0  0  0  0  2  0  0  0  0  0  0
  160.8340  212.5270  146.9960 C   0  0  0  0  0  2  0  0  0  0  0  0
  161.2980  212.9800  145.6910 N   0  0  0  0  0  2  0  0  0  0  0  0
  159.5170  212.0500  144.4990 O   0  0  0  0  0  0  0  0  0  0  0  0
  160.5910  212.7130  144.4750 C   0  0  0  0  0  0  0  0  0  0  0  0
  162.2580  213.8290  143.1680 N   0  0  0  0  0  0  0  0  0  0  0  0
  162.7830  214.3300  141.9980 O   0  0  0  0  0  1  0  0  0  0  0  0
  161.1120  213.2190  143.1970 C   0  0  0  0  0  0  0  0  0  0  0  0
  160.2970  213.0540  141.9470 C   0  0  0  0  0  2  0  0  0  0  0  0
  159.5550  211.4780  140.2460 N   0  0  0  0  0  2  0  0  0  0  0  0
  160.3120  211.6040  141.4790 C   0  0  1  0  0  3  0  0  0  0  0  0
  161.6840  211.1870  141.0520 C   0  0  0  0  0  2  0  0  0  0  0  0
  161.6180  210.8690  139.7690 C   0  0  0  0  0  3  0  0  0  0  0  0
  160.2920  211.0590  139.3020 N   0  0  0  0  0  0  0  0  0  0  0  0
  160.9710  206.8430  152.9370 C   0  0  0  0  0  2  0  0  0  0  0  0
  162.2930  206.1300  152.6920 C   0  0  0  0  0  2  0  0  0  0  0  0
  162.0320  204.6910  152.2890 C   0  0  0  0  0  2  0  0  0  0  0  0
  160.9360  204.6290  151.2370 C   0  0  0  0  0  2  0  0  0  0  0  0
  160.8070  203.2480  150.6880 C   0  0  0  0  0  0  0  0  0  0  0  0
  160.4870  203.0670  149.3030 N   0  0  0  0  0  2  0  0  0  0  0  0
  160.9500  202.2560  151.4520 O   0  0  0  0  0  0  0  0  0  0  0  0
  159.1870  201.1240  149.2010 O   0  0  0  0  0  1  0  0  0  0  0  0
  161.5340  200.9020  148.8870 C   0  0  0  0  0  1  0  0  0  0  0  0
  160.3060  201.7650  148.6660 C   0  0  2  0  0  0  0  0  0  0  0  0
  160.1150  201.9560  147.1690 C   0  0  0  0  0  2  0  0  0  0  0  0
  160.8390  201.0010  146.4540 O   0  0  0  0  0  0  0  0  0  0  0  0
  160.3430  201.0860  145.1540 C   0  0  0  0  0  1  0  0  0  0  0  0
  1  9  1  1  0  0  0
  1 10  1  0  0  0  0
  2 12  1  0  0  0  0
  3 35  1  1  0  0  0
  3  7  1  0  0  0  0
  4  6  1  0  0  0  0
  5  2  1  0  0  0  0
  6  3  1  0  0  0  0
  8 11  1  0  0  0  0
 10  5  1  6  0  0  0
 11  7  1  0  0  0  0
 12  8  1  0  0  0  0
 13 22  1  6  0  0  0
 13  1  1  0  0  0  0
 13 10  1  0  0  0  0
 14 15  1  1  0  0  0
 14  9  1  0  0  0  0
 14  4  1  0  0  0  0
 16 15  1  6  0  0  0
 17 19  1  6  0  0  0
 17 18  1  0  0  0  0
 17 16  1  0  0  0  0
 18 16  1  0  0  0  0
 20 21  1  0  0  0  0
 21 19  1  0  0  0  0
 23 22  1  0  0  0  0
 25 24  2  0  0  0  0
 25 23  1  0  0  0  0
 26 28  2  0  0  0  0
 27 26  1  0  0  0  0
 28 25  1  0  0  0  0
 29 28  1  0  0  0  0
 30 31  1  0  0  0  0
 31 29  1  6  0  0  0
 32 31  1  0  0  0  0
 33 32  1  0  0  0  0
 34 33  2  0  0  0  0
 34 30  1  0  0  0  0
 36 35  1  0  0  0  0
 37 36  1  0  0  0  0
 38 37  1  0  0  0  0
 39 38  1  0  0  0  0
 39 41  2  0  0  0  0
 40 39  1  0  0  0  0
 44 43  1  1  0  0  0
 44 42  1  0  0  0  0
 44 40  1  0  0  0  0
 45 44  1  0  0  0  0
 46 45  1  0  0  0  0
 47 46  1  0  0  0  0
M  END
>  <MODEL>
1

>  <REMARK>
 VINA RESULT:      -6.5      0.000      0.000
  Name = 
  17 active torsions:
  status: ('A' for Active; 'I' for Inactive)
    1  A    between atoms: N_1  and  C_38
    2  A    between atoms: C_2  and  C_31
    3  A    between atoms: C_4  and  C_14
    4  A    between atoms: C_4  and  C_47
    5  A    between atoms: C_6  and  C_18
    6  A    between atoms: C_6  and  C_41
    7  A    between atoms: C_9  and  C_12
    8  A    between atoms: C_9  and  C_39
    9  A    between atoms: O_15  and  C_32
   10  A    between atoms: C_16  and  C_36
   11  A    between atoms: C_18  and  C_47
   12  A    between atoms: C_31  and  C_46
   13  A    between atoms: C_32  and  C_42
   14  A    between atoms: C_36  and  C_37
   15  A    between atoms: C_38  and  C_40
   16  A    between atoms: C_39  and  C_45
   17  A    between atoms: C_42  and  N_43
                            x       y       z     vdW  Elec       q    Type
                         _______ _______ _______ _____ _____    ______ ____

>  <TORSDO>
F 17

$$$$
=
 OpenBabel11072414273D

 47 50  0  0  1  0  0  0  0  0999 V2000
  161.4470  205.7050  145.5840 C   0  0  1  0  0  3  0  0  0  0  0  0
  160.3830  202.5380  145.1970 N   0  0  0  0  0  2  0  0  0  0  0  0
  161.3830  203.9360  149.7560 C   0  0  2  0  0  3  0  0  0  0  0  0
  162.1890  205.8550  148.4300 C   0  0  0  0  0  2  0  0  0  0  0  0
  161.1320  203.6080  144.6850 N   0  0  0  0  0  2  0  0  0  0  0  0
  160.9540  205.2060  149.0360 C   0  0  0  0  0  2  0  0  0  0  0  0
  160.4560  202.7450  149.4860 C   0  0  0  0  0  2  0  0  0  0  0  0
  161.4270  202.5100  147.2310 N   0  0  0  0  0  2  0  0  0  0  0  0
  160.8310  206.5280  146.5300 O   0  0  0  0  0  0  0  0  0  0  0  0
  160.4420  204.7760  145.0460 N   0  0  2  0  0  0  0  0  0  0  0  0
  160.1910  202.4820  148.0050 C   0  0  0  0  0  2  0  0  0  0  0  0
  161.2240  201.7870  146.0410 N   0  0  0  0  0  2  0  0  0  0  0  0
  160.8880  205.9560  144.2600 C   0  0  2  0  0  3  0  0  0  0  0  0
  161.8440  206.9430  147.4070 C   0  0  1  0  0  3  0  0  0  0  0  0
  161.4200  208.2140  148.1240 C   0  0  0  0  0  2  0  0  0  0  0  0
  162.2920  208.4440  149.3560 C   0  0  1  0  0  3  0  0  0  0  0  0
  162.4030  209.9050  149.8080 C   0  0  2  0  0  3  0  0  0  0  0  0
  161.4370  208.9580  150.4950 C   0  0  0  0  0  2  0  0  0  0  0  0
  161.6210  210.8980  148.9590 C   0  0  0  0  0  2  0  0  0  0  0  0
  161.8880  212.5420  147.2650 O   0  0  0  0  0  1  0  0  0  0  0  0
  162.5830  211.8060  148.2240 C   0  0  0  0  0  2  0  0  0  0  0  0
  161.9210  205.6500  143.1720 C   0  0  0  0  0  2  0  0  0  0  0  0
  161.4670  206.1630  141.8860 N   0  0  0  0  0  2  0  0  0  0  0  0
  163.5240  207.1000  141.2930 O   0  0  0  0  0  0  0  0  0  0  0  0
  162.3190  206.8790  140.9850 C   0  0  0  0  0  0  0  0  0  0  0  0
  162.1070  206.7150  138.6070 N   0  0  0  0  0  0  0  0  0  0  0  0
  161.6490  207.1230  137.3730 O   0  0  0  0  0  1  0  0  0  0  0  0
  161.7940  207.3490  139.6960 C   0  0  0  0  0  0  0  0  0  0  0  0
  160.9280  208.5740  139.6500 C   0  0  0  0  0  2  0  0  0  0  0  0
  161.8310  210.4950  138.4560 N   0  0  0  0  0  2  0  0  0  0  0  0
  161.7720  209.8390  139.7510 C   0  0  1  0  0  3  0  0  0  0  0  0
  161.0990  210.8710  140.5990 C   0  0  0  0  0  2  0  0  0  0  0  0
  160.8700  211.9240  139.8310 C   0  0  0  0  0  3  0  0  0  0  0  0
  161.3320  211.6610  138.5160 N   0  0  0  0  0  0  0  0  0  0  0  0
  161.5580  204.1760  151.2540 C   0  0  0  0  0  2  0  0  0  0  0  0
  160.8800  205.4610  151.7040 C   0  0  0  0  0  2  0  0  0  0  0  0
  161.7260  206.1450  152.7610 C   0  0  0  0  0  2  0  0  0  0  0  0
  160.9870  206.1750  154.0900 C   0  0  0  0  0  2  0  0  0  0  0  0
  160.9490  207.5590  154.6430 C   0  0  0  0  0  0  0  0  0  0  0  0
  160.4990  208.6370  153.8150 N   0  0  0  0  0  2  0  0  0  0  0  0
  161.3430  207.7730  155.8220 O   0  0  0  0  0  0  0  0  0  0  0  0
  159.6600  210.1570  155.3840 O   0  0  0  0  0  1  0  0  0  0  0  0
  159.8680  210.8940  153.1320 C   0  0  0  0  0  1  0  0  0  0  0  0
  160.4500  210.0340  154.2390 C   0  0  2  0  0  0  0  0  0  0  0  0
  161.8590  210.5230  154.5390 C   0  0  0  0  0  2  0  0  0  0  0  0
  161.9340  211.0490  155.8290 O   0  0  0  0  0  0  0  0  0  0  0  0
  163.2130  210.7140  156.2690 C   0  0  0  0  0  1  0  0  0  0  0  0
  1  9  1  1  0  0  0
  2 12  1  0  0  0  0
  3 35  1  1  0  0  0
  4  6  1  0  0  0  0
  5  2  1  0  0  0  0
  6  3  1  0  0  0  0
  7  3  1  0  0  0  0
  8 11  1  0  0  0  0
  9 14  1  0  0  0  0
 10  5  1  6  0  0  0
 10  1  1  0  0  0  0
 11  7  1  0  0  0  0
 12  8  1  0  0  0  0
 13 22  1  6  0  0  0
 13 10  1  0  0  0  0
 13  1  1  0  0  0  0
 14 15  1  1  0  0  0
 14  4  1  0  0  0  0
 16 15  1  6  0  0  0
 16 17  1  0  0  0  0
 16 18  1  0  0  0  0
 17 19  1  6  0  0  0
 17 18  1  0  0  0  0
 20 21  1  0  0  0  0
 21 19  1  0  0  0  0
 23 22  1  0  0  0  0
 25 24  2  0  0  0  0
 25 23  1  0  0  0  0
 26 28  2  0  0  0  0
 27 26  1  0  0  0  0
 28 25  1  0  0  0  0
 29 28  1  0  0  0  0
 30 34  1  0  0  0  0
 30 31  1  0  0  0  0
 31 29  1  6  0  0  0
 31 32  1  0  0  0  0
 33 32  1  0  0  0  0
 34 33  2  0  0  0  0
 35 36  1  0  0  0  0
 36 37  1  0  0  0  0
 37 38  1  0  0  0  0
 38 39  1  0  0  0  0
 39 41  2  0  0  0  0
 40 44  1  0  0  0  0
 40 39  1  0  0  0  0
 44 43  1  6  0  0  0
 44 45  1  0  0  0  0
 44 42  1  0  0  0  0
 45 46  1  0  0  0  0
 46 47  1  0  0  0  0
M  END
>  <MODEL>
2

>  <REMARK>
 VINA RESULT:      -6.1      3.240      7.427
  Name = 
  17 active torsions:
  status: ('A' for Active; 'I' for Inactive)
    1  A    between atoms: N_1  and  C_38
    2  A    between atoms: C_2  and  C_31
    3  A    between atoms: C_4  and  C_14
    4  A    between atoms: C_4  and  C_47
    5  A    between atoms: C_6  and  C_18
    6  A    between atoms: C_6  and  C_41
    7  A    between atoms: C_9  and  C_12
    8  A    between atoms: C_9  and  C_39
    9  A    between atoms: O_15  and  C_32
   10  A    between atoms: C_16  and  C_36
   11  A    between atoms: C_18  and  C_47
   12  A    between atoms: C_31  and  C_46
   13  A    between atoms: C_32  and  C_42
   14  A    between atoms: C_36  and  C_37
   15  A    between atoms: C_38  and  C_40
   16  A    between atoms: C_39  and  C_45
   17  A    between atoms: C_42  and  N_43
                            x       y       z     vdW  Elec       q    Type
                         _______ _______ _______ _____ _____    ______ ____

>  <TORSDO>
F 17

$$$$
=
 OpenBabel11072414273D

 47 50  0  0  1  0  0  0  0  0999 V2000
  161.8830  207.2520  148.4500 C   0  0  1  0  0  3  0  0  0  0  0  0
  161.1330  204.7780  150.6020 N   0  0  0  0  0  2  0  0  0  0  0  0
  161.7930  209.1970  152.5430 C   0  0  2  0  0  3  0  0  0  0  0  0
  162.4790  209.5470  150.1980 C   0  0  0  0  0  2  0  0  0  0  0  0
  161.8030  205.1710  149.4340 N   0  0  0  0  0  2  0  0  0  0  0  0
  161.2820  209.4560  151.1320 C   0  0  0  0  0  2  0  0  0  0  0  0
  160.9920  208.1240  153.2890 C   0  0  0  0  0  2  0  0  0  0  0  0
  162.0810  206.3780  151.9310 N   0  0  0  0  0  2  0  0  0  0  0  0
  161.1520  208.4420  148.4870 O   0  0  0  0  0  0  0  0  0  0  0  0
  160.9930  206.1440  148.8260 N   0  0  2  0  0  0  0  0  0  0  0  0
  160.8200  206.8200  152.5140 C   0  0  0  0  0  2  0  0  0  0  0  0
  161.9990  204.9930  151.6900 N   0  0  0  0  0  2  0  0  0  0  0  0
  161.3640  206.3760  147.4060 C   0  0  2  0  0  3  0  0  0  0  0  0
  162.0820  209.4660  148.7200 C   0  0  1  0  0  3  0  0  0  0  0  0
  161.5120  210.7980  148.2620 C   0  0  0  0  0  2  0  0  0  0  0  0
  162.3990  211.9470  148.7380 C   0  0  1  0  0  3  0  0  0  0  0  0
  162.5610  213.0980  147.7380 C   0  0  2  0  0  3  0  0  0  0  0  0
  161.5680  213.2050  148.8790 C   0  0  0  0  0  2  0  0  0  0  0  0
  161.8080  212.9160  146.4260 C   0  0  0  0  0  2  0  0  0  0  0  0
  161.5130  213.9110  144.2900 O   0  0  0  0  0  1  0  0  0  0  0  0
  162.3800  213.8470  145.3800 C   0  0  0  0  0  2  0  0  0  0  0  0
  162.4690  205.4590  146.8730 C   0  0  0  0  0  2  0  0  0  0  0  0
  161.9900  204.0860  146.7900 N   0  0  0  0  0  2  0  0  0  0  0  0
  160.8930  204.3670  144.7460 O   0  0  0  0  0  0  0  0  0  0  0  0
  161.2070  203.5970  145.6960 C   0  0  0  0  0  0  0  0  0  0  0  0
  160.0820  201.7510  144.6680 N   0  0  0  0  0  0  0  0  0  0  0  0
  159.6460  200.4460  144.6060 O   0  0  0  0  0  1  0  0  0  0  0  0
  160.7760  202.1920  145.6730 C   0  0  0  0  0  0  0  0  0  0  0  0
  161.1170  201.2930  146.8260 C   0  0  0  0  0  2  0  0  0  0  0  0
  159.5970  201.8480  148.6470 N   0  0  0  0  0  0  0  0  0  0  0  0
  160.9510  202.0260  148.1520 C   0  0  1  0  0  3  0  0  0  0  0  0
  161.7690  201.3850  149.2290 C   0  0  0  0  0  3  0  0  0  0  0  0
  160.9300  200.9590  150.1600 C   0  0  0  0  0  3  0  0  0  0  0  0
  159.5990  201.2590  149.7710 N   0  0  0  0  0  0  0  0  0  0  0  0
  161.8780  210.4910  153.3500 C   0  0  0  0  0  2  0  0  0  0  0  0
  160.9880  210.4480  154.5840 C   0  0  0  0  0  2  0  0  0  0  0  0
  161.8040  210.7860  155.8170 C   0  0  0  0  0  2  0  0  0  0  0  0
  160.8910  211.2510  156.9410 C   0  0  0  0  0  2  0  0  0  0  0  0
  159.8630  212.2030  156.4290 C   0  0  0  0  0  0  0  0  0  0  0  0
  158.5560  211.7190  156.1010 N   0  0  0  0  0  2  0  0  0  0  0  0
  160.1630  213.4160  156.2610 O   0  0  0  0  0  0  0  0  0  0  0  0
  157.7060  213.8890  155.8950 O   0  0  0  0  0  1  0  0  0  0  0  0
  156.1470  212.1090  156.1310 C   0  0  0  0  0  1  0  0  0  0  0  0
  157.4830  212.5520  155.5640 C   0  0  2  0  0  0  0  0  0  0  0  0
  157.4360  212.4040  154.0500 C   0  0  0  0  0  2  0  0  0  0  0  0
  158.5830  212.9440  153.4670 O   0  0  0  0  0  0  0  0  0  0  0  0
  158.4780  212.6110  152.1170 C   0  0  0  0  0  1  0  0  0  0  0  0
  1  9  1  6  0  0  0
  1 10  1  0  0  0  0
  2 12  1  0  0  0  0
  3  7  1  0  0  0  0
  3 35  1  1  0  0  0
  4  6  1  0  0  0  0
  5  2  1  0  0  0  0
  6  3  1  0  0  0  0
  8 11  1  0  0  0  0
  9 14  1  0  0  0  0
 10  5  1  1  0  0  0
 11  7  1  0  0  0  0
 12  8  1  0  0  0  0
 13 22  1  1  0  0  0
 13  1  1  0  0  0  0
 13 10  1  0  0  0  0
 14 15  1  1  0  0  0
 14  4  1  0  0  0  0
 16 15  1  6  0  0  0
 16 18  1  0  0  0  0
 17 19  1  6  0  0  0
 17 16  1  0  0  0  0
 17 18  1  0  0  0  0
 20 21  1  0  0  0  0
 21 19  1  0  0  0  0
 23 22  1  0  0  0  0
 24 25  2  0  0  0  0
 25 23  1  0  0  0  0
 26 28  2  0  0  0  0
 27 26  1  0  0  0  0
 28 25  1  0  0  0  0
 28 29  1  0  0  0  0
 30 34  2  0  0  0  0
 31 29  1  6  0  0  0
 31 30  1  0  0  0  0
 31 32  1  0  0  0  0
 32 33  2  0  0  0  0
 34 33  1  0  0  0  0
 35 36  1  0  0  0  0
 36 37  1  0  0  0  0
 37 38  1  0  0  0  0
 39 38  1  0  0  0  0
 40 39  1  0  0  0  0
 41 39  2  0  0  0  0
 44 42  1  0  0  0  0
 44 40  1  0  0  0  0
 44 43  1  1  0  0  0
 45 44  1  0  0  0  0
 46 45  1  0  0  0  0
 47 46  1  0  0  0  0
M  END
>  <MODEL>
3

>  <REMARK>
 VINA RESULT:      -5.7      4.061      9.439
  Name = 
  17 active torsions:
  status: ('A' for Active; 'I' for Inactive)
    1  A    between atoms: N_1  and  C_38
    2  A    between atoms: C_2  and  C_31
    3  A    between atoms: C_4  and  C_14
    4  A    between atoms: C_4  and  C_47
    5  A    between atoms: C_6  and  C_18
    6  A    between atoms: C_6  and  C_41
    7  A    between atoms: C_9  and  C_12
    8  A    between atoms: C_9  and  C_39
    9  A    between atoms: O_15  and  C_32
   10  A    between atoms: C_16  and  C_36
   11  A    between atoms: C_18  and  C_47
   12  A    between atoms: C_31  and  C_46
   13  A    between atoms: C_32  and  C_42
   14  A    between atoms: C_36  and  C_37
   15  A    between atoms: C_38  and  C_40
   16  A    between atoms: C_39  and  C_45
   17  A    between atoms: C_42  and  N_43
                            x       y       z     vdW  Elec       q    Type
                         _______ _______ _______ _____ _____    ______ ____

>  <TORSDO>
F 17

$$$$
=
 OpenBabel11072414273D

 47 50  0  0  1  0  0  0  0  0999 V2000
  161.0500  210.5390  150.2850 C   0  0  1  0  0  3  0  0  0  0  0  0
  160.7430  211.7370  153.4130 N   0  0  0  0  0  2  0  0  0  0  0  0
  161.0360  206.8940  152.9780 C   0  0  2  0  0  3  0  0  0  0  0  0
  160.8470  207.6200  150.6270 C   0  0  0  0  0  2  0  0  0  0  0  0
  160.3980  211.8560  152.0580 N   0  0  0  0  0  2  0  0  0  0  0  0
  161.8120  207.4460  151.7910 C   0  0  0  0  0  2  0  0  0  0  0  0
  161.3830  207.5850  154.3020 C   0  0  0  0  0  2  0  0  0  0  0  0
  160.0780  209.5580  153.6040 N   0  0  0  0  0  2  0  0  0  0  0  0
  162.0670  209.6250  149.9940 O   0  0  0  0  0  0  0  0  0  0  0  0
  161.5300  211.4560  151.3300 N   0  0  2  0  0  0  0  0  0  0  0  0
  161.3060  209.1090  154.2500 C   0  0  0  0  0  2  0  0  0  0  0  0
  159.8110  210.8750  154.0220 N   0  0  0  0  0  2  0  0  0  0  0  0
  161.4620  211.8860  149.9090 C   0  0  2  0  0  3  0  0  0  0  0  0
  161.4320  208.4770  149.4990 C   0  0  1  0  0  3  0  0  0  0  0  0
  162.4120  207.6560  148.6780 C   0  0  0  0  0  2  0  0  0  0  0  0
  162.0070  206.1840  148.6850 C   0  0  1  0  0  3  0  0  0  0  0  0
  161.1930  205.7300  147.4660 C   0  0  2  0  0  3  0  0  0  0  0  0
  162.6850  205.4650  147.5370 C   0  0  0  0  0  2  0  0  0  0  0  0
  160.9200  206.8200  146.4380 C   0  0  0  0  0  2  0  0  0  0  0  0
  161.2430  205.6660  144.3870 O   0  0  0  0  0  1  0  0  0  0  0  0
  160.2660  206.2130  145.2160 C   0  0  0  0  0  2  0  0  0  0  0  0
  160.2440  212.7440  149.5530 C   0  0  0  0  0  2  0  0  0  0  0  0
  160.2480  213.0620  148.1320 N   0  0  0  0  0  2  0  0  0  0  0  0
  157.9220  213.0760  147.9120 O   0  0  0  0  0  0  0  0  0  0  0  0
  159.0510  213.2200  147.3640 C   0  0  0  0  0  0  0  0  0  0  0  0
  158.1050  213.3660  145.1700 N   0  0  0  0  0  0  0  0  0  0  0  0
  158.1370  213.6590  143.8240 O   0  0  0  0  0  1  0  0  0  0  0  0
  159.1340  213.5610  145.9360 C   0  0  0  0  0  0  0  0  0  0  0  0
  160.4190  214.1000  145.3770 C   0  0  0  0  0  2  0  0  0  0  0  0
  161.3570  212.8240  143.5270 N   0  0  0  0  0  2  0  0  0  0  0  0
  161.3520  212.9660  144.9730 C   0  0  1  0  0  3  0  0  0  0  0  0
  162.7790  213.3110  145.2620 C   0  0  0  0  0  2  0  0  0  0  0  0
  163.4250  213.3190  144.1070 C   0  0  0  0  0  3  0  0  0  0  0  0
  162.5200  213.0150  143.0570 N   0  0  0  0  0  0  0  0  0  0  0  0
  161.1880  205.3780  153.0860 C   0  0  0  0  0  2  0  0  0  0  0  0
  161.9770  204.8040  151.9180 C   0  0  0  0  0  2  0  0  0  0  0  0
  161.0630  203.9690  151.0420 C   0  0  0  0  0  2  0  0  0  0  0  0
  161.3240  202.4870  151.2680 C   0  0  0  0  0  2  0  0  0  0  0  0
  160.8680  201.6850  150.0960 C   0  0  0  0  0  0  0  0  0  0  0  0
  161.1650  202.1420  148.7710 N   0  0  0  0  0  2  0  0  0  0  0  0
  160.2000  200.6320  150.2810 O   0  0  0  0  0  0  0  0  0  0  0  0
  159.3730  201.1870  147.6070 O   0  0  0  0  0  1  0  0  0  0  0  0
  161.5050  200.1530  147.3980 C   0  0  0  0  0  1  0  0  0  0  0  0
  160.7420  201.4560  147.5530 C   0  0  2  0  0  0  0  0  0  0  0  0
  161.0390  202.3350  146.3470 C   0  0  0  0  0  2  0  0  0  0  0  0
  160.5730  201.7380  145.1760 O   0  0  0  0  0  0  0  0  0  0  0  0
  159.7050  202.6790  144.6250 C   0  0  0  0  0  1  0  0  0  0  0  0
  1  9  1  6  0  0  0
  1 10  1  0  0  0  0
  2 12  1  0  0  0  0
  3 35  1  1  0  0  0
  3  7  1  0  0  0  0
  4  6  1  0  0  0  0
  5  2  1  0  0  0  0
  6  3  1  0  0  0  0
  8 12  1  0  0  0  0
  8 11  1  0  0  0  0
 10  5  1  1  0  0  0
 11  7  1  0  0  0  0
 13 22  1  1  0  0  0
 13  1  1  0  0  0  0
 13 10  1  0  0  0  0
 14 15  1  1  0  0  0
 14  9  1  0  0  0  0
 14  4  1  0  0  0  0
 16 15  1  6  0  0  0
 17 19  1  6  0  0  0
 17 18  1  0  0  0  0
 17 16  1  0  0  0  0
 18 16  1  0  0  0  0
 20 21  1  0  0  0  0
 21 19  1  0  0  0  0
 23 22  1  0  0  0  0
 25 24  2  0  0  0  0
 25 23  1  0  0  0  0
 26 28  2  0  0  0  0
 27 26  1  0  0  0  0
 28 25  1  0  0  0  0
 29 28  1  0  0  0  0
 30 31  1  0  0  0  0
 31 32  1  0  0  0  0
 31 29  1  6  0  0  0
 33 32  1  0  0  0  0
 34 30  1  0  0  0  0
 34 33  2  0  0  0  0
 36 35  1  0  0  0  0
 37 38  1  0  0  0  0
 37 36  1  0  0  0  0
 39 41  2  0  0  0  0
 39 38  1  0  0  0  0
 40 39  1  0  0  0  0
 44 43  1  6  0  0  0
 44 42  1  0  0  0  0
 44 40  1  0  0  0  0
 45 44  1  0  0  0  0
 46 45  1  0  0  0  0
 47 46  1  0  0  0  0
M  END
>  <MODEL>
4

>  <REMARK>
 VINA RESULT:      -5.4      2.124      2.583
  Name = 
  17 active torsions:
  status: ('A' for Active; 'I' for Inactive)
    1  A    between atoms: N_1  and  C_38
    2  A    between atoms: C_2  and  C_31
    3  A    between atoms: C_4  and  C_14
    4  A    between atoms: C_4  and  C_47
    5  A    between atoms: C_6  and  C_18
    6  A    between atoms: C_6  and  C_41
    7  A    between atoms: C_9  and  C_12
    8  A    between atoms: C_9  and  C_39
    9  A    between atoms: O_15  and  C_32
   10  A    between atoms: C_16  and  C_36
   11  A    between atoms: C_18  and  C_47
   12  A    between atoms: C_31  and  C_46
   13  A    between atoms: C_32  and  C_42
   14  A    between atoms: C_36  and  C_37
   15  A    between atoms: C_38  and  C_40
   16  A    between atoms: C_39  and  C_45
   17  A    between atoms: C_42  and  N_43
                            x       y       z     vdW  Elec       q    Type
                         _______ _______ _______ _____ _____    ______ ____

>  <TORSDO>
F 17

$$$$
=
 OpenBabel11072414273D

 47 50  0  0  1  0  0  0  0  0999 V2000
  161.3040  205.6000  151.8060 C   0  0  1  0  0  3  0  0  0  0  0  0
  162.0040  206.2020  148.5720 N   0  0  0  0  0  2  0  0  0  0  0  0
  161.2550  210.1120  151.3780 C   0  0  2  0  0  3  0  0  0  0  0  0
  160.6390  208.2590  152.8870 C   0  0  0  0  0  2  0  0  0  0  0  0
  161.3670  205.3800  149.5140 N   0  0  0  0  0  2  0  0  0  0  0  0
  161.8070  209.0490  152.3180 C   0  0  0  0  0  2  0  0  0  0  0  0
  162.0390  210.2270  150.0660 C   0  0  0  0  0  2  0  0  0  0  0  0
  161.0040  208.1340  149.2730 N   0  0  0  0  0  2  0  0  0  0  0  0
  162.0260  206.2640  152.8020 O   0  0  0  0  0  0  0  0  0  0  0  0
  162.1900  205.3820  150.6530 N   0  0  2  0  0  0  0  0  0  0  0  0
  162.2440  208.8980  149.3420 C   0  0  0  0  0  2  0  0  0  0  0  0
  161.1030  207.2200  148.2070 N   0  0  0  0  0  2  0  0  0  0  0  0
  161.8610  204.2710  151.5830 C   0  0  2  0  0  3  0  0  0  0  0  0
  161.0820  206.9610  153.5710 C   0  0  1  0  0  3  0  0  0  0  0  0
  161.6580  207.2670  154.9430 C   0  0  0  0  0  2  0  0  0  0  0  0
  160.6160  206.9960  156.0270 C   0  0  1  0  0  3  0  0  0  0  0  0
  160.0990  208.2430  156.7550 C   0  0  2  0  0  3  0  0  0  0  0  0
  159.2950  207.6210  155.6290 C   0  0  0  0  0  2  0  0  0  0  0  0
  160.7030  209.5580  156.2790 C   0  0  0  0  0  2  0  0  0  0  0  0
  162.8300  210.5770  156.5630 O   0  0  0  0  0  1  0  0  0  0  0  0
  161.7600  210.0160  157.2600 C   0  0  0  0  0  2  0  0  0  0  0  0
  160.7790  203.3100  151.0810 C   0  0  0  0  0  2  0  0  0  0  0  0
  161.2410  202.6080  149.8910 N   0  0  0  0  0  2  0  0  0  0  0  0
  159.1080  201.9630  149.1860 O   0  0  0  0  0  0  0  0  0  0  0  0
  160.3530  201.9560  148.9760 C   0  0  0  0  0  0  0  0  0  0  0  0
  161.4790  200.1320  147.9090 N   0  0  0  0  0  0  0  0  0  0  0  0
  162.0080  199.4680  146.8250 O   0  0  0  0  0  1  0  0  0  0  0  0
  160.8920  201.2830  147.7850 C   0  0  0  0  0  0  0  0  0  0  0  0
  160.7850  201.9510  146.4440 C   0  0  0  0  0  2  0  0  0  0  0  0
  162.4920  203.6760  146.6490 N   0  0  0  0  0  0  0  0  0  0  0  0
  161.0610  203.4460  146.5600 C   0  0  1  0  0  3  0  0  0  0  0  0
  160.7030  204.1600  145.2950 C   0  0  0  0  0  3  0  0  0  0  0  0
  161.8140  204.7020  144.8210 C   0  0  0  0  0  3  0  0  0  0  0  0
  162.8990  204.3840  145.6780 N   0  0  0  0  0  0  0  0  0  0  0  0
  161.1370  211.4650  152.0760 C   0  0  0  0  0  2  0  0  0  0  0  0
  159.9440  212.2620  151.5690 C   0  0  0  0  0  2  0  0  0  0  0  0
  158.7920  212.1400  152.5480 C   0  0  0  0  0  2  0  0  0  0  0  0
  159.3110  211.7810  153.9310 C   0  0  0  0  0  2  0  0  0  0  0  0
  158.3220  212.1590  154.9820 C   0  0  0  0  0  0  0  0  0  0  0  0
  157.0520  211.4970  155.0250 N   0  0  0  0  0  2  0  0  0  0  0  0
  158.5990  213.0760  155.8010 O   0  0  0  0  0  0  0  0  0  0  0  0
  156.5460  211.9660  157.2610 O   0  0  0  0  0  1  0  0  0  0  0  0
  154.9760  210.6840  156.0160 C   0  0  0  0  0  1  0  0  0  0  0  0
  155.9970  211.8060  155.9870 C   0  0  2  0  0  0  0  0  0  0  0  0
  155.2920  213.0880  155.5720 C   0  0  0  0  0  2  0  0  0  0  0  0
  155.8320  213.5850  154.3860 O   0  0  0  0  0  0  0  0  0  0  0  0
  154.7250  213.9750  153.6340 C   0  0  0  0  0  1  0  0  0  0  0  0
  1  9  1  1  0  0  0
  2  5  1  0  0  0  0
  3 35  1  1  0  0  0
  3  6  1  0  0  0  0
  4 14  1  0  0  0  0
  6  4  1  0  0  0  0
  7  3  1  0  0  0  0
  8 11  1  0  0  0  0
  9 14  1  0  0  0  0
 10  5  1  6  0  0  0
 10 13  1  0  0  0  0
 10  1  1  0  0  0  0
 11  7  1  0  0  0  0
 12  2  1  0  0  0  0
 12  8  1  0  0  0  0
 13 22  1  6  0  0  0
 13  1  1  0  0  0  0
 14 15  1  1  0  0  0
 16 15  1  6  0  0  0
 16 17  1  0  0  0  0
 17 19  1  6  0  0  0
 18 16  1  0  0  0  0
 18 17  1  0  0  0  0
 19 21  1  0  0  0  0
 20 21  1  0  0  0  0
 23 22  1  0  0  0  0
 25 24  2  0  0  0  0
 25 23  1  0  0  0  0
 27 26  1  0  0  0  0
 28 26  2  0  0  0  0
 28 25  1  0  0  0  0
 29 28  1  0  0  0  0
 31 29  1  6  0  0  0
 31 30  1  0  0  0  0
 32 31  1  0  0  0  0
 33 32  2  0  0  0  0
 33 34  1  0  0  0  0
 34 30  2  0  0  0  0
 36 35  1  0  0  0  0
 36 37  1  0  0  0  0
 37 38  1  0  0  0  0
 38 39  1  0  0  0  0
 39 40  1  0  0  0  0
 39 41  2  0  0  0  0
 40 44  1  0  0  0  0
 44 43  1  1  0  0  0
 44 42  1  0  0  0  0
 45 44  1  0  0  0  0
 46 45  1  0  0  0  0
 47 46  1  0  0  0  0
M  END
>  <MODEL>
5

>  <REMARK>
 VINA RESULT:      -4.9      4.990     10.015
  Name = 
  17 active torsions:
  status: ('A' for Active; 'I' for Inactive)
    1  A    between atoms: N_1  and  C_38
    2  A    between atoms: C_2  and  C_31
    3  A    between atoms: C_4  and  C_14
    4  A    between atoms: C_4  and  C_47
    5  A    between atoms: C_6  and  C_18
    6  A    between atoms: C_6  and  C_41
    7  A    between atoms: C_9  and  C_12
    8  A    between atoms: C_9  and  C_39
    9  A    between atoms: O_15  and  C_32
   10  A    between atoms: C_16  and  C_36
   11  A    between atoms: C_18  and  C_47
   12  A    between atoms: C_31  and  C_46
   13  A    between atoms: C_32  and  C_42
   14  A    between atoms: C_36  and  C_37
   15  A    between atoms: C_38  and  C_40
   16  A    between atoms: C_39  and  C_45
   17  A    between atoms: C_42  and  N_43
                            x       y       z     vdW  Elec       q    Type
                         _______ _______ _______ _____ _____    ______ ____

>  <TORSDO>
F 17

$$$$
=
 OpenBabel11072414273D

 47 50  0  0  1  0  0  0  0  0999 V2000
  161.4950  206.2560  150.7000 C   0  0  1  0  0  3  0  0  0  0  0  0
  161.5950  202.9060  150.4180 N   0  0  0  0  0  2  0  0  0  0  0  0
  160.7600  205.3910  146.3120 C   0  0  2  0  0  3  0  0  0  0  0  0
  160.6470  207.1620  148.0280 C   0  0  0  0  0  2  0  0  0  0  0  0
  161.2320  204.0210  151.1890 N   0  0  0  0  0  2  0  0  0  0  0  0
  161.5930  206.3250  147.1800 C   0  0  0  0  0  2  0  0  0  0  0  0
  161.3090  203.9600  146.2660 C   0  0  0  0  0  2  0  0  0  0  0  0
  160.4610  203.5690  148.5480 N   0  0  0  0  0  2  0  0  0  0  0  0
  162.2640  207.0430  149.8400 O   0  0  0  0  0  0  0  0  0  0  0  0
  162.2120  204.9970  150.9500 N   0  0  2  0  0  0  0  0  0  0  0  0
  161.5790  203.3490  147.6390 C   0  0  0  0  0  2  0  0  0  0  0  0
  160.5170  202.5990  149.5660 N   0  0  0  0  0  2  0  0  0  0  0  0
  162.1870  206.0770  151.9720 C   0  0  2  0  0  3  0  0  0  0  0  0
  161.3650  207.8870  149.1710 C   0  0  1  0  0  3  0  0  0  0  0  0
  162.0980  209.1040  148.6340 C   0  0  0  0  0  2  0  0  0  0  0  0
  162.3940  210.0870  149.7650 C   0  0  1  0  0  3  0  0  0  0  0  0
  162.3270  211.5680  149.3710 C   0  0  2  0  0  3  0  0  0  0  0  0
  161.1540  210.9030  150.0660 C   0  0  0  0  0  2  0  0  0  0  0  0
  161.9720  211.8260  147.9120 C   0  0  0  0  0  2  0  0  0  0  0  0
  161.5870  213.9920  148.8090 O   0  0  0  0  0  1  0  0  0  0  0  0
  161.1880  213.1160  147.8010 C   0  0  0  0  0  2  0  0  0  0  0  0
  161.1830  205.8650  153.1080 C   0  0  0  0  0  2  0  0  0  0  0  0
  161.2520  206.9690  154.0550 N   0  0  0  0  0  2  0  0  0  0  0  0
  160.4630  208.5810  152.5580 O   0  0  0  0  0  0  0  0  0  0  0  0
  160.8730  208.3090  153.7210 C   0  0  0  0  0  0  0  0  0  0  0  0
  161.0910  209.0490  155.9880 N   0  0  0  0  0  0  0  0  0  0  0  0
  161.1590  210.0040  156.9770 O   0  0  0  0  0  1  0  0  0  0  0  0
  160.9510  209.3680  154.7370 C   0  0  0  0  0  0  0  0  0  0  0  0
  160.8370  210.8060  154.3190 C   0  0  0  0  0  2  0  0  0  0  0  0
  159.3630  212.6440  154.9360 N   0  0  0  0  0  0  0  0  0  0  0  0
  159.3940  211.2870  154.4210 C   0  0  1  0  0  3  0  0  0  0  0  0
  158.7820  211.4480  153.0650 C   0  0  0  0  0  3  0  0  0  0  0  0
  158.4620  212.7250  152.9270 C   0  0  0  0  0  3  0  0  0  0  0  0
  158.8330  213.4360  154.0970 N   0  0  0  0  0  0  0  0  0  0  0  0
  160.5670  205.9590  144.9080 C   0  0  0  0  0  2  0  0  0  0  0  0
  161.6320  205.4580  143.9430 C   0  0  0  0  0  2  0  0  0  0  0  0
  161.2510  205.8280  142.5220 C   0  0  0  0  0  2  0  0  0  0  0  0
  162.4030  206.5480  141.8380 C   0  0  0  0  0  2  0  0  0  0  0  0
  161.9920  207.0460  140.4940 C   0  0  0  0  0  0  0  0  0  0  0  0
  161.5890  208.4120  140.3410 N   0  0  0  0  0  2  0  0  0  0  0  0
  161.9730  206.2550  139.5130 O   0  0  0  0  0  0  0  0  0  0  0  0
  160.4200  208.0550  138.3460 O   0  0  0  0  0  1  0  0  0  0  0  0
  162.3300  209.4700  138.2710 C   0  0  0  0  0  1  0  0  0  0  0  0
  161.1370  209.0000  139.0830 C   0  0  2  0  0  0  0  0  0  0  0  0
  160.2490  210.2000  139.3730 C   0  0  0  0  0  2  0  0  0  0  0  0
  160.8830  211.0820  140.2480 O   0  0  0  0  0  0  0  0  0  0  0  0
  160.1440  212.2600  140.1540 C   0  0  0  0  0  1  0  0  0  0  0  0
  1  9  1  6  0  0  0
  1 10  1  0  0  0  0
  1 13  1  0  0  0  0
  2  5  1  0  0  0  0
  3 35  1  6  0  0  0
  3  6  1  0  0  0  0
  4 14  1  0  0  0  0
  6  4  1  0  0  0  0
  7  3  1  0  0  0  0
  7 11  1  0  0  0  0
  8 12  1  0  0  0  0
 10  5  1  1  0  0  0
 10 13  1  0  0  0  0
 11  8  1  0  0  0  0
 12  2  1  0  0  0  0
 13 22  1  1  0  0  0
 14 15  1  6  0  0  0
 14  9  1  0  0  0  0
 16 15  1  6  0  0  0
 16 18  1  0  0  0  0
 17 19  1  6  0  0  0
 17 16  1  0  0  0  0
 17 18  1  0  0  0  0
 21 19  1  0  0  0  0
 21 20  1  0  0  0  0
 22 23  1  0  0  0  0
 24 25  2  0  0  0  0
 25 23  1  0  0  0  0
 25 28  1  0  0  0  0
 26 27  1  0  0  0  0
 28 26  2  0  0  0  0
 29 28  1  0  0  0  0
 31 29  1  6  0  0  0
 31 30  1  0  0  0  0
 32 31  1  0  0  0  0
 33 32  2  0  0  0  0
 33 34  1  0  0  0  0
 34 30  2  0  0  0  0
 36 35  1  0  0  0  0
 37 36  1  0  0  0  0
 38 37  1  0  0  0  0
 39 38  1  0  0  0  0
 40 39  1  0  0  0  0
 41 39  2  0  0  0  0
 42 44  1  0  0  0  0
 44 43  1  6  0  0  0
 44 45  1  0  0  0  0
 44 40  1  0  0  0  0
 45 46  1  0  0  0  0
 47 46  1  0  0  0  0
M  END
>  <MODEL>
6

>  <REMARK>
 VINA RESULT:      -4.9      3.293     10.032
  Name = 
  17 active torsions:
  status: ('A' for Active; 'I' for Inactive)
    1  A    between atoms: N_1  and  C_38
    2  A    between atoms: C_2  and  C_31
    3  A    between atoms: C_4  and  C_14
    4  A    between atoms: C_4  and  C_47
    5  A    between atoms: C_6  and  C_18
    6  A    between atoms: C_6  and  C_41
    7  A    between atoms: C_9  and  C_12
    8  A    between atoms: C_9  and  C_39
    9  A    between atoms: O_15  and  C_32
   10  A    between atoms: C_16  and  C_36
   11  A    between atoms: C_18  and  C_47
   12  A    between atoms: C_31  and  C_46
   13  A    between atoms: C_32  and  C_42
   14  A    between atoms: C_36  and  C_37
   15  A    between atoms: C_38  and  C_40
   16  A    between atoms: C_39  and  C_45
   17  A    between atoms: C_42  and  N_43
                            x       y       z     vdW  Elec       q    Type
                         _______ _______ _______ _____ _____    ______ ____

>  <TORSDO>
F 17

$$$$
=
 OpenBabel11072414273D

 47 50  0  0  1  0  0  0  0  0999 V2000
  161.3290  207.8180  152.8280 C   0  0  1  0  0  3  0  0  0  0  0  0
  161.2950  204.4660  153.1060 N   0  0  0  0  0  2  0  0  0  0  0  0
  160.9950  206.2560  148.5860 C   0  0  2  0  0  3  0  0  0  0  0  0
  160.7960  208.2910  149.9690 C   0  0  0  0  0  2  0  0  0  0  0  0
  160.9110  205.7050  153.6420 N   0  0  0  0  0  2  0  0  0  0  0  0
  161.7810  207.2960  149.3730 C   0  0  0  0  0  2  0  0  0  0  0  0
  161.4750  204.8210  148.8310 C   0  0  0  0  0  2  0  0  0  0  0  0
  160.3860  204.8430  151.0430 N   0  0  0  0  0  2  0  0  0  0  0  0
  162.2180  208.4260  151.9370 O   0  0  0  0  0  0  0  0  0  0  0  0
  161.9570  206.5960  153.3540 N   0  0  2  0  0  0  0  0  0  0  0  0
  161.5780  204.4400  150.3060 C   0  0  0  0  0  2  0  0  0  0  0  0
  160.2940  204.0550  152.2060 N   0  0  0  0  0  2  0  0  0  0  0  0
  161.8830  207.8320  154.1770 C   0  0  2  0  0  3  0  0  0  0  0  0
  161.4310  209.1740  151.0490 C   0  0  1  0  0  3  0  0  0  0  0  0
  162.2730  210.2610  150.4010 C   0  0  0  0  0  2  0  0  0  0  0  0
  161.9080  210.4060  148.9250 C   0  0  1  0  0  3  0  0  0  0  0  0
  161.3290  211.7710  148.5320 C   0  0  2  0  0  3  0  0  0  0  0  0
  162.7920  211.4550  148.2840 C   0  0  0  0  0  2  0  0  0  0  0  0
  161.2130  212.7700  149.6750 C   0  0  0  0  0  2  0  0  0  0  0  0
  159.4490  213.3750  148.2050 O   0  0  0  0  0  1  0  0  0  0  0  0
  160.0520  213.7050  149.4170 C   0  0  0  0  0  2  0  0  0  0  0  0
  160.7610  207.8430  155.2200 C   0  0  0  0  0  2  0  0  0  0  0  0
  160.0820  209.1320  155.2160 N   0  0  0  0  0  2  0  0  0  0  0  0
  161.3950  210.0660  156.9090 O   0  0  0  0  0  0  0  0  0  0  0  0
  160.4490  210.2100  156.0850 C   0  0  0  0  0  0  0  0  0  0  0  0
  160.3980  212.6030  156.0420 N   0  0  0  0  0  0  0  0  0  0  0  0
  159.7690  213.8270  155.9860 O   0  0  0  0  0  1  0  0  0  0  0  0
  159.7300  211.4900  156.0100 C   0  0  0  0  0  0  0  0  0  0  0  0
  158.2310  211.4940  155.9290 C   0  0  0  0  0  2  0  0  0  0  0  0
  156.7740  212.4890  154.2500 N   0  0  0  0  0  2  0  0  0  0  0  0
  157.7660  211.4530  154.4780 C   0  0  1  0  0  3  0  0  0  0  0  0
  158.8660  211.8570  153.5480 C   0  0  0  0  0  2  0  0  0  0  0  0
  158.4650  212.9470  152.9140 C   0  0  0  0  0  3  0  0  0  0  0  0
  157.1720  213.3120  153.3700 N   0  0  0  0  0  0  0  0  0  0  0  0
  160.9700  206.5880  147.0950 C   0  0  0  0  0  2  0  0  0  0  0  0
  162.3540  206.4880  146.4700 C   0  0  0  0  0  2  0  0  0  0  0  0
  162.2590  205.7980  145.1230 C   0  0  0  0  0  2  0  0  0  0  0  0
  162.7750  204.3710  145.2230 C   0  0  0  0  0  2  0  0  0  0  0  0
  161.6460  203.4100  145.3860 C   0  0  0  0  0  0  0  0  0  0  0  0
  161.8480  202.2050  146.1340 N   0  0  0  0  0  2  0  0  0  0  0  0
  160.5370  203.6510  144.8380 O   0  0  0  0  0  0  0  0  0  0  0  0
  161.3980  199.9110  146.2270 O   0  0  0  0  0  1  0  0  0  0  0  0
  159.7340  201.3270  145.2880 C   0  0  0  0  0  1  0  0  0  0  0  0
  160.8260  201.1800  146.3320 C   0  0  2  0  0  0  0  0  0  0  0  0
  160.2020  201.3450  147.7090 C   0  0  0  0  0  2  0  0  0  0  0  0
  161.1660  201.2020  148.7070 O   0  0  0  0  0  0  0  0  0  0  0  0
  160.4420  201.2140  149.8980 C   0  0  0  0  0  1  0  0  0  0  0  0
  1  9  1  6  0  0  0
  1 10  1  0  0  0  0
  1 13  1  0  0  0  0
  2  5  1  0  0  0  0
  3 35  1  6  0  0  0
  3  7  1  0  0  0  0
  3  6  1  0  0  0  0
  4 14  1  0  0  0  0
  6  4  1  0  0  0  0
  7 11  1  0  0  0  0
  8 12  1  0  0  0  0
 10  5  1  1  0  0  0
 10 13  1  0  0  0  0
 11  8  1  0  0  0  0
 12  2  1  0  0  0  0
 13 22  1  1  0  0  0
 14 15  1  6  0  0  0
 14  9  1  0  0  0  0
 16 15  1  1  0  0  0
 17 16  1  0  0  0  0
 17 19  1  1  0  0  0
 18 17  1  0  0  0  0
 18 16  1  0  0  0  0
 20 21  1  0  0  0  0
 21 19  1  0  0  0  0
 23 22  1  0  0  0  0
 23 25  1  0  0  0  0
 25 24  2  0  0  0  0
 27 26  1  0  0  0  0
 28 26  2  0  0  0  0
 28 25  1  0  0  0  0
 29 28  1  0  0  0  0
 30 31  1  0  0  0  0
 31 29  1  1  0  0  0
 32 31  1  0  0  0  0
 33 34  2  0  0  0  0
 33 32  1  0  0  0  0
 34 30  1  0  0  0  0
 36 35  1  0  0  0  0
 37 38  1  0  0  0  0
 37 36  1  0  0  0  0
 38 39  1  0  0  0  0
 39 40  1  0  0  0  0
 40 44  1  0  0  0  0
 41 39  2  0  0  0  0
 42 44  1  0  0  0  0
 44 43  1  6  0  0  0
 44 45  1  0  0  0  0
 45 46  1  0  0  0  0
 46 47  1  0  0  0  0
M  END
>  <MODEL>
7

>  <REMARK>
 VINA RESULT:      -4.8      4.531      8.468
  Name = 
  17 active torsions:
  status: ('A' for Active; 'I' for Inactive)
    1  A    between atoms: N_1  and  C_38
    2  A    between atoms: C_2  and  C_31
    3  A    between atoms: C_4  and  C_14
    4  A    between atoms: C_4  and  C_47
    5  A    between atoms: C_6  and  C_18
    6  A    between atoms: C_6  and  C_41
    7  A    between atoms: C_9  and  C_12
    8  A    between atoms: C_9  and  C_39
    9  A    between atoms: O_15  and  C_32
   10  A    between atoms: C_16  and  C_36
   11  A    between atoms: C_18  and  C_47
   12  A    between atoms: C_31  and  C_46
   13  A    between atoms: C_32  and  C_42
   14  A    between atoms: C_36  and  C_37
   15  A    between atoms: C_38  and  C_40
   16  A    between atoms: C_39  and  C_45
   17  A    between atoms: C_42  and  N_43
                            x       y       z     vdW  Elec       q    Type
                         _______ _______ _______ _____ _____    ______ ____

>  <TORSDO>
F 17

$$$$
=
 OpenBabel11072414273D

 47 50  0  0  1  0  0  0  0  0999 V2000
  160.9960  210.0550  153.4690 C   0  0  1  0  0  3  0  0  0  0  0  0
  161.6010  207.0240  154.7950 N   0  0  0  0  0  2  0  0  0  0  0  0
  161.4650  207.2610  149.9310 C   0  0  2  0  0  3  0  0  0  0  0  0
  160.7090  209.5170  150.5870 C   0  0  0  0  0  2  0  0  0  0  0  0
  160.9190  208.2460  154.8920 N   0  0  0  0  0  2  0  0  0  0  0  0
  161.9330  208.6370  150.3830 C   0  0  0  0  0  2  0  0  0  0  0  0
  162.1920  206.1120  150.6400 C   0  0  0  0  0  2  0  0  0  0  0  0
  160.8760  206.5500  152.6790 N   0  0  0  0  0  2  0  0  0  0  0  0
  161.8410  210.5520  152.4730 O   0  0  0  0  0  0  0  0  0  0  0  0
  161.7910  209.2220  154.3830 N   0  0  2  0  0  0  0  0  0  0  0  0
  162.2000  206.2240  152.1630 C   0  0  0  0  0  2  0  0  0  0  0  0
  160.8110  206.1470  154.0270 N   0  0  0  0  0  2  0  0  0  0  0  0
  161.3780  210.5970  154.7680 C   0  0  2  0  0  3  0  0  0  0  0  0
  161.0270  210.8020  151.3580 C   0  0  1  0  0  3  0  0  0  0  0  0
  161.7020  211.8050  150.4380 C   0  0  0  0  0  2  0  0  0  0  0  0
  161.9420  211.1860  149.0630 C   0  0  1  0  0  3  0  0  0  0  0  0
  161.6120  212.0990  147.8750 C   0  0  2  0  0  3  0  0  0  0  0  0
  163.0440  211.9430  148.3500 C   0  0  0  0  0  2  0  0  0  0  0  0
  161.1010  213.4830  148.2550 C   0  0  0  0  0  2  0  0  0  0  0  0
  159.8980  212.9820  146.2690 O   0  0  0  0  0  1  0  0  0  0  0  0
  159.9620  213.8730  147.3390 C   0  0  0  0  0  2  0  0  0  0  0  0
  160.1660  210.6670  155.7010 C   0  0  0  0  0  2  0  0  0  0  0  0
  159.0460  211.3090  155.0250 N   0  0  0  0  0  2  0  0  0  0  0  0
  158.6040  212.8280  156.7440 O   0  0  0  0  0  0  0  0  0  0  0  0
  158.3050  212.3910  155.5980 C   0  0  0  0  0  0  0  0  0  0  0  0
  156.2350  213.5900  155.4880 N   0  0  0  0  0  0  0  0  0  0  0  0
  155.1720  214.1670  154.8300 O   0  0  0  0  0  1  0  0  0  0  0  0
  157.1990  213.0020  154.8470 C   0  0  0  0  0  0  0  0  0  0  0  0
  157.1810  212.9100  153.3480 C   0  0  0  0  0  2  0  0  0  0  0  0
  159.1030  214.2030  152.5970 N   0  0  0  0  0  0  0  0  0  0  0  0
  157.6560  214.2150  152.7200 C   0  0  1  0  0  3  0  0  0  0  0  0
  157.2180  214.3190  151.2930 C   0  0  0  0  0  3  0  0  0  0  0  0
  158.3110  214.3750  150.5490 C   0  0  0  0  0  3  0  0  0  0  0  0
  159.4560  214.3010  151.3830 N   0  0  0  0  0  0  0  0  0  0  0  0
  161.5450  207.1160  148.4130 C   0  0  0  0  0  2  0  0  0  0  0  0
  161.8570  205.6870  147.9960 C   0  0  0  0  0  2  0  0  0  0  0  0
  161.2220  205.3940  146.6500 C   0  0  0  0  0  2  0  0  0  0  0  0
  161.8700  204.1730  146.0150 C   0  0  0  0  0  2  0  0  0  0  0  0
  161.2780  202.9170  146.5600 C   0  0  0  0  0  0  0  0  0  0  0  0
  161.4760  202.5850  147.9390 N   0  0  0  0  0  2  0  0  0  0  0  0
  160.6360  202.1460  145.7970 O   0  0  0  0  0  0  0  0  0  0  0  0
  161.4130  200.2470  147.8690 O   0  0  0  0  0  1  0  0  0  0  0  0
  159.4540  201.3860  148.5930 C   0  0  0  0  0  1  0  0  0  0  0  0
  160.9710  201.3700  148.5720 C   0  0  2  0  0  0  0  0  0  0  0  0
  161.4720  201.2990  150.0070 C   0  0  0  0  0  2  0  0  0  0  0  0
  160.5170  201.8080  150.8870 O   0  0  0  0  0  0  0  0  0  0  0  0
  161.1630  202.8590  151.5360 C   0  0  0  0  0  1  0  0  0  0  0  0
  1  9  1  6  0  0  0
  1 10  1  0  0  0  0
  1 13  1  0  0  0  0
  2  5  1  0  0  0  0
  3 35  1  6  0  0  0
  3  6  1  0  0  0  0
  3  7  1  0  0  0  0
  4 14  1  0  0  0  0
  6  4  1  0  0  0  0
  7 11  1  0  0  0  0
  8 12  1  0  0  0  0
 10 13  1  0  0  0  0
 10  5  1  1  0  0  0
 11  8  1  0  0  0  0
 12  2  1  0  0  0  0
 13 22  1  1  0  0  0
 14 15  1  6  0  0  0
 14  9  1  0  0  0  0
 16 15  1  1  0  0  0
 17 19  1  1  0  0  0
 17 18  1  0  0  0  0
 17 16  1  0  0  0  0
 18 16  1  0  0  0  0
 20 21  1  0  0  0  0
 21 19  1  0  0  0  0
 23 25  1  0  0  0  0
 23 22  1  0  0  0  0
 25 24  2  0  0  0  0
 27 26  1  0  0  0  0
 28 26  2  0  0  0  0
 28 25  1  0  0  0  0
 29 28  1  0  0  0  0
 30 31  1  0  0  0  0
 31 29  1  6  0  0  0
 32 31  1  0  0  0  0
 33 32  2  0  0  0  0
 33 34  1  0  0  0  0
 34 30  2  0  0  0  0
 36 35  1  0  0  0  0
 37 36  1  0  0  0  0
 38 39  1  0  0  0  0
 38 37  1  0  0  0  0
 39 40  1  0  0  0  0
 40 44  1  0  0  0  0
 41 39  2  0  0  0  0
 42 44  1  0  0  0  0
 44 43  1  6  0  0  0
 44 45  1  0  0  0  0
 45 46  1  0  0  0  0
 46 47  1  0  0  0  0
M  END
>  <MODEL>
8

>  <REMARK>
 VINA RESULT:      -4.6      4.013      7.776
  Name = 
  17 active torsions:
  status: ('A' for Active; 'I' for Inactive)
    1  A    between atoms: N_1  and  C_38
    2  A    between atoms: C_2  and  C_31
    3  A    between atoms: C_4  and  C_14
    4  A    between atoms: C_4  and  C_47
    5  A    between atoms: C_6  and  C_18
    6  A    between atoms: C_6  and  C_41
    7  A    between atoms: C_9  and  C_12
    8  A    between atoms: C_9  and  C_39
    9  A    between atoms: O_15  and  C_32
   10  A    between atoms: C_16  and  C_36
   11  A    between atoms: C_18  and  C_47
   12  A    between atoms: C_31  and  C_46
   13  A    between atoms: C_32  and  C_42
   14  A    between atoms: C_36  and  C_37
   15  A    between atoms: C_38  and  C_40
   16  A    between atoms: C_39  and  C_45
   17  A    between atoms: C_42  and  N_43
                            x       y       z     vdW  Elec       q    Type
                         _______ _______ _______ _____ _____    ______ ____

>  <TORSDO>
F 17

$$$$
=
 OpenBabel11072414273D

 47 50  0  0  1  0  0  0  0  0999 V2000
  161.5860  209.5600  150.5160 C   0  0  1  0  0  3  0  0  0  0  0  0
  161.9510  209.9890  153.8310 N   0  0  0  0  0  2  0  0  0  0  0  0
  160.7910  205.4940  152.3550 C   0  0  2  0  0  3  0  0  0  0  0  0
  160.5860  206.8000  150.2700 C   0  0  0  0  0  2  0  0  0  0  0  0
  161.5210  210.5220  152.6070 N   0  0  0  0  0  2  0  0  0  0  0  0
  161.5710  206.1040  151.1980 C   0  0  0  0  0  2  0  0  0  0  0  0
  161.4530  205.7260  153.7180 C   0  0  0  0  0  2  0  0  0  0  0  0
  160.7100  208.0770  153.6710 N   0  0  0  0  0  2  0  0  0  0  0  0
  162.2620  208.5160  149.8780 O   0  0  0  0  0  0  0  0  0  0  0  0
  162.4110  210.0370  151.6350 N   0  0  2  0  0  0  0  0  0  0  0  0
  161.8140  207.1830  153.9990 C   0  0  0  0  0  2  0  0  0  0  0  0
  160.8760  209.2740  154.3920 N   0  0  0  0  0  2  0  0  0  0  0  0
  162.3300  210.8060  150.3660 C   0  0  2  0  0  3  0  0  0  0  0  0
  161.2770  207.7280  149.2660 C   0  0  1  0  0  3  0  0  0  0  0  0
  161.8920  206.9110  148.1420 C   0  0  0  0  0  2  0  0  0  0  0  0
  161.2530  205.5250  148.0830 C   0  0  1  0  0  3  0  0  0  0  0  0
  161.4330  204.7840  146.7530 C   0  0  2  0  0  3  0  0  0  0  0  0
  162.3330  204.4730  147.9330 C   0  0  0  0  0  2  0  0  0  0  0  0
  162.2250  205.5460  145.6980 C   0  0  0  0  0  2  0  0  0  0  0  0
  160.2800  206.2070  144.5080 O   0  0  0  0  0  1  0  0  0  0  0  0
  161.4820  205.5130  144.3810 C   0  0  0  0  0  2  0  0  0  0  0  0
  161.3810  212.0070  150.4020 C   0  0  0  0  0  2  0  0  0  0  0  0
  160.3960  211.8410  151.4630 N   0  0  0  0  0  2  0  0  0  0  0  0
  159.1030  213.6850  150.8400 O   0  0  0  0  0  0  0  0  0  0  0  0
  159.2730  212.7130  151.6280 C   0  0  0  0  0  0  0  0  0  0  0  0
  157.2090  213.1580  152.7560 N   0  0  0  0  0  0  0  0  0  0  0  0
  156.2800  212.9750  153.7560 O   0  0  0  0  0  1  0  0  0  0  0  0
  158.3090  212.4700  152.7110 C   0  0  0  0  0  0  0  0  0  0  0  0
  158.6230  211.4510  153.7680 C   0  0  0  0  0  2  0  0  0  0  0  0
  158.3990  211.0560  156.1610 N   0  0  0  0  0  0  0  0  0  0  0  0
  158.5990  212.0840  155.1540 C   0  0  1  0  0  3  0  0  0  0  0  0
  159.9420  212.6300  155.5220 C   0  0  0  0  0  3  0  0  0  0  0  0
  160.3550  211.9740  156.5940 C   0  0  0  0  0  3  0  0  0  0  0  0
  159.3810  211.0100  156.9630 N   0  0  0  0  0  0  0  0  0  0  0  0
  160.5100  204.0120  152.1180 C   0  0  0  0  0  2  0  0  0  0  0  0
  161.5380  203.3820  151.1900 C   0  0  0  0  0  2  0  0  0  0  0  0
  161.2110  201.9160  150.9820 C   0  0  0  0  0  2  0  0  0  0  0  0
  160.1490  201.7600  149.9040 C   0  0  0  0  0  2  0  0  0  0  0  0
  160.7650  201.3420  148.6120 C   0  0  0  0  0  0  0  0  0  0  0  0
  160.1160  201.6800  147.3800 N   0  0  0  0  0  2  0  0  0  0  0  0
  161.8320  200.6710  148.6160 O   0  0  0  0  0  0  0  0  0  0  0  0
  161.5860  202.2000  145.6360 O   0  0  0  0  0  1  0  0  0  0  0  0
  159.4680  201.2850  145.0610 C   0  0  0  0  0  1  0  0  0  0  0  0
  160.6100  201.2970  146.0600 C   0  0  2  0  0  0  0  0  0  0  0  0
  161.2060  199.8990  146.1270 C   0  0  0  0  0  2  0  0  0  0  0  0
  160.6150  199.0660  145.1760 O   0  0  0  0  0  0  0  0  0  0  0  0
  161.4550  197.9540  145.1150 C   0  0  0  0  0  1  0  0  0  0  0  0
  1  9  1  6  0  0  0
  1 10  1  0  0  0  0
  2 12  1  0  0  0  0
  3 35  1  6  0  0  0
  3  7  1  0  0  0  0
  4  6  1  0  0  0  0
  5  2  1  0  0  0  0
  6  3  1  0  0  0  0
  7 11  1  0  0  0  0
  8 11  1  0  0  0  0
  8 12  1  0  0  0  0
 10  5  1  1  0  0  0
 13 22  1  1  0  0  0
 13  1  1  0  0  0  0
 13 10  1  0  0  0  0
 14 15  1  6  0  0  0
 14  9  1  0  0  0  0
 14  4  1  0  0  0  0
 16 15  1  6  0  0  0
 17 19  1  6  0  0  0
 17 18  1  0  0  0  0
 17 16  1  0  0  0  0
 18 16  1  0  0  0  0
 21 20  1  0  0  0  0
 21 19  1  0  0  0  0
 22 23  1  0  0  0  0
 23 25  1  0  0  0  0
 24 25  2  0  0  0  0
 25 28  1  0  0  0  0
 26 27  1  0  0  0  0
 28 26  2  0  0  0  0
 28 29  1  0  0  0  0
 30 34  2  0  0  0  0
 31 29  1  6  0  0  0
 31 32  1  0  0  0  0
 31 30  1  0  0  0  0
 32 33  2  0  0  0  0
 33 34  1  0  0  0  0
 36 35  1  0  0  0  0
 37 36  1  0  0  0  0
 38 37  1  0  0  0  0
 39 41  2  0  0  0  0
 39 38  1  0  0  0  0
 40 39  1  0  0  0  0
 42 44  1  0  0  0  0
 44 43  1  6  0  0  0
 44 45  1  0  0  0  0
 44 40  1  0  0  0  0
 46 45  1  0  0  0  0
 47 46  1  0  0  0  0
M  END
>  <MODEL>
9

>  <REMARK>
 VINA RESULT:      -4.3      4.382      6.867
  Name = 
  17 active torsions:
  status: ('A' for Active; 'I' for Inactive)
    1  A    between atoms: N_1  and  C_38
    2  A    between atoms: C_2  and  C_31
    3  A    between atoms: C_4  and  C_14
    4  A    between atoms: C_4  and  C_47
    5  A    between atoms: C_6  and  C_18
    6  A    between atoms: C_6  and  C_41
    7  A    between atoms: C_9  and  C_12
    8  A    between atoms: C_9  and  C_39
    9  A    between atoms: O_15  and  C_32
   10  A    between atoms: C_16  and  C_36
   11  A    between atoms: C_18  and  C_47
   12  A    between atoms: C_31  and  C_46
   13  A    between atoms: C_32  and  C_42
   14  A    between atoms: C_36  and  C_37
   15  A    between atoms: C_38  and  C_40
   16  A    between atoms: C_39  and  C_45
   17  A    between atoms: C_42  and  N_43
                            x       y       z     vdW  Elec       q    Type
                         _______ _______ _______ _____ _____    ______ ____

>  <TORSDO>
F 17

$$$$
