=
 OpenBabel11072414173D

 34 37  0  0  1  0  0  0  0  0999 V2000
  160.3550  211.5100  152.2880 N   0  0  0  0  0  2  0  0  0  0  0  0
  160.8520  208.0780  154.8480 C   0  0  0  0  0  0  0  0  0  0  0  0
  160.1920  210.8710  154.5020 C   0  0  1  0  0  3  0  0  0  0  0  0
  161.6260  209.5880  152.9570 C   0  0  1  0  0  3  0  0  0  0  0  0
  161.1070  210.9250  153.3330 N   0  0  1  0  0  0  0  0  0  0  0  0
  158.0940  212.2970  155.0010 C   0  0  0  0  0  0  0  0  0  0  0  0
  157.9750  211.8910  156.3260 O   0  0  0  0  0  1  0  0  0  0  0  0
  158.1890  213.3670  150.8400 C   0  0  0  0  0  3  0  0  0  0  0  0
  157.2350  213.4790  152.9370 C   0  0  0  0  0  0  0  0  0  0  0  0
  157.0710  213.1900  154.3780 C   0  0  0  0  0  0  0  0  0  0  0  0
  160.9450  211.0410  155.8060 C   0  0  0  0  0  2  0  0  0  0  0  0
  163.1100  210.3570  156.4830 O   0  0  0  0  0  0  0  0  0  0  0  0
  159.2410  212.1760  152.8350 C   0  0  0  0  0  0  0  0  0  0  0  0
  160.1040  207.1770  155.3090 O   0  0  0  0  0  0  0  0  0  0  0  0
  160.7420  208.4090  153.3790 C   0  0  0  0  0  2  0  0  0  0  0  0
  161.8330  208.6310  155.6860 O   0  0  0  0  0  0  0  0  0  0  0  0
  158.3410  212.9310  152.2130 C   0  0  0  0  0  0  0  0  0  0  0  0
  156.0620  213.6370  155.0490 N   0  0  0  0  0  2  0  0  0  0  0  0
  156.4650  214.1670  152.1690 N   0  0  0  0  0  0  0  0  0  0  0  0
  162.0180  209.9970  155.9730 C   0  0  0  0  0  0  0  0  0  0  0  0
  159.1270  211.8780  154.2380 C   0  0  0  0  0  0  0  0  0  0  0  0
  157.0660  214.0980  150.8610 C   0  0  0  0  0  3  0  0  0  0  0  0
  161.9420  209.5050  151.5360 N   0  0  0  0  0  2  0  0  0  0  0  0
  162.2830  208.1220  151.2550 C   0  0  0  0  0  2  0  0  0  0  0  0
  161.6760  207.7100  149.9220 C   0  0  0  0  0  2  0  0  0  0  0  0
  159.9770  205.9530  150.0230 C   0  0  0  0  0  1  0  0  0  0  0  0
  161.4590  206.1960  149.7760 C   0  0  1  0  0  0  0  0  0  0  0  0
  161.7990  205.7000  148.3500 C   0  0  2  0  0  3  0  0  0  0  0  0
  161.1870  206.5410  147.2390 C   0  0  0  0  0  1  0  0  0  0  0  0
  161.4330  204.3620  148.1790 O   0  0  0  0  0  1  0  0  0  0  0  0
  162.2640  205.4500  150.8590 C   0  0  0  0  0  2  0  0  0  0  0  0
  161.1040  204.9240  152.8830 O   0  0  0  0  0  1  0  0  0  0  0  0
  161.4320  204.5540  151.7250 C   0  0  0  0  0  0  0  0  0  0  0  0
  161.0070  203.3220  151.2480 O   0  0  0  0  0  0  0  0  0  0  0  0
  1 13  1  0  0  0  0
  2 14  2  0  0  0  0
  2 16  1  0  0  0  0
  3 11  1  1  0  0  0
  4 23  1  6  0  0  0
  4  5  1  0  0  0  0
  4 15  1  0  0  0  0
  5  1  1  6  0  0  0
  5  3  1  0  0  0  0
  6  7  1  0  0  0  0
  8 22  2  0  0  0  0
  8 17  1  0  0  0  0
  9 10  1  0  0  0  0
 10  6  1  0  0  0  0
 10 18  2  0  0  0  0
 11 20  1  0  0  0  0
 13 21  1  0  0  0  0
 15  2  1  0  0  0  0
 16 20  1  0  0  0  0
 17 13  2  0  0  0  0
 17  9  1  0  0  0  0
 19  9  2  0  0  0  0
 20 12  2  0  0  0  0
 21  3  1  0  0  0  0
 21  6  2  0  0  0  0
 22 19  1  0  0  0  0
 24 23  1  0  0  0  0
 25 24  1  0  0  0  0
 27 25  1  0  0  0  0
 27 26  1  1  0  0  0
 27 31  1  0  0  0  0
 28 29  1  6  0  0  0
 28 27  1  0  0  0  0
 30 28  1  0  0  0  0
 31 33  1  0  0  0  0
 33 32  1  0  0  0  0
 34 33  2  0  0  0  0
M  END
>  <MODEL>
1

>  <REMARK>
 VINA RESULT:      -6.9      0.000      0.000
  Name = 
  7 active torsions:
  status: ('A' for Active; 'I' for Inactive)
    1  A    between atoms: C_2  and  C_11
    2  A    between atoms: C_3  and  C_21
    3  A    between atoms: C_7  and  N_9
    4  A    between atoms: N_9  and  C_14
    5  A    between atoms: C_11  and  C_21
    6  A    between atoms: C_14  and  C_32
    7  A    between atoms: C_21  and  C_32
                            x       y       z     vdW  Elec       q    Type
                         _______ _______ _______ _____ _____    ______ ____

>  <TORSDO>
F 7

$$$$
=
 OpenBabel11072414173D

 34 37  0  0  1  0  0  0  0  0999 V2000
  160.2880  211.5420  152.5270 N   0  0  0  0  0  2  0  0  0  0  0  0
  160.9340  208.4500  155.4600 C   0  0  0  0  0  0  0  0  0  0  0  0
  160.3540  211.2070  154.8110 C   0  0  1  0  0  3  0  0  0  0  0  0
  161.5480  209.6560  153.3090 C   0  0  1  0  0  3  0  0  0  0  0  0
  161.1300  211.0570  153.5540 N   0  0  1  0  0  0  0  0  0  0  0  0
  158.3870  212.8000  155.3370 C   0  0  0  0  0  0  0  0  0  0  0  0
  158.4040  212.5770  156.7090 O   0  0  0  0  0  1  0  0  0  0  0  0
  158.0480  213.3120  151.0830 C   0  0  0  0  0  3  0  0  0  0  0  0
  157.3450  213.7490  153.2360 C   0  0  0  0  0  0  0  0  0  0  0  0
  157.3360  213.6600  154.7120 C   0  0  0  0  0  0  0  0  0  0  0  0
  161.2570  211.5030  155.9920 C   0  0  0  0  0  2  0  0  0  0  0  0
  163.4560  210.7930  156.5170 O   0  0  0  0  0  0  0  0  0  0  0  0
  159.2720  212.3350  153.0960 C   0  0  0  0  0  0  0  0  0  0  0  0
  160.2080  207.6600  156.1170 O   0  0  0  0  0  0  0  0  0  0  0  0
  160.6700  208.5930  153.9800 C   0  0  0  0  0  2  0  0  0  0  0  0
  162.0270  209.0520  156.1040 O   0  0  0  0  0  0  0  0  0  0  0  0
  158.3380  213.0510  152.4780 C   0  0  0  0  0  0  0  0  0  0  0  0
  156.4300  214.2460  155.4210 N   0  0  0  0  0  2  0  0  0  0  0  0
  156.5210  214.3730  152.4700 N   0  0  0  0  0  0  0  0  0  0  0  0
  162.2990  210.4310  156.1820 C   0  0  0  0  0  0  0  0  0  0  0  0
  159.3080  212.2280  154.5310 C   0  0  0  0  0  0  0  0  0  0  0  0
  156.9650  214.1020  151.1260 C   0  0  0  0  0  3  0  0  0  0  0  0
  161.6950  209.3710  151.8860 N   0  0  0  0  0  2  0  0  0  0  0  0
  161.9230  207.9420  151.7590 C   0  0  0  0  0  2  0  0  0  0  0  0
  160.8210  207.3260  150.9090 C   0  0  0  0  0  2  0  0  0  0  0  0
  162.6230  206.9080  149.3070 C   0  0  0  0  0  1  0  0  0  0  0  0
  161.3300  206.3260  149.8600 C   0  0  1  0  0  0  0  0  0  0  0  0
  161.6500  204.9480  150.4870 C   0  0  2  0  0  3  0  0  0  0  0  0
  160.4340  204.0510  150.6690 C   0  0  0  0  0  1  0  0  0  0  0  0
  162.3110  205.0900  151.7110 O   0  0  0  0  0  1  0  0  0  0  0  0
  160.3100  206.2170  148.7090 C   0  0  0  0  0  2  0  0  0  0  0  0
  160.9440  206.5910  146.4340 O   0  0  0  0  0  0  0  0  0  0  0  0
  160.9100  205.7900  147.4040 C   0  0  0  0  0  0  0  0  0  0  0  0
  161.4430  204.5160  147.2670 O   0  0  0  0  0  1  0  0  0  0  0  0
  1 13  1  0  0  0  0
  2 16  1  0  0  0  0
  2 14  2  0  0  0  0
  3 11  1  1  0  0  0
  4 23  1  6  0  0  0
  4  5  1  0  0  0  0
  4 15  1  0  0  0  0
  5  1  1  6  0  0  0
  5  3  1  0  0  0  0
  6  7  1  0  0  0  0
  8 22  2  0  0  0  0
  8 17  1  0  0  0  0
  9 10  1  0  0  0  0
 10  6  1  0  0  0  0
 10 18  2  0  0  0  0
 11 20  1  0  0  0  0
 13 21  1  0  0  0  0
 15  2  1  0  0  0  0
 16 20  1  0  0  0  0
 17 13  2  0  0  0  0
 17  9  1  0  0  0  0
 19  9  2  0  0  0  0
 20 12  2  0  0  0  0
 21  3  1  0  0  0  0
 21  6  2  0  0  0  0
 22 19  1  0  0  0  0
 24 23  1  0  0  0  0
 25 24  1  0  0  0  0
 27 26  1  6  0  0  0
 27 28  1  0  0  0  0
 27 25  1  0  0  0  0
 28 29  1  1  0  0  0
 28 30  1  0  0  0  0
 31 27  1  0  0  0  0
 32 33  2  0  0  0  0
 33 31  1  0  0  0  0
 34 33  1  0  0  0  0
M  END
>  <MODEL>
2

>  <REMARK>
 VINA RESULT:      -6.3      0.923      2.077
  Name = 
  7 active torsions:
  status: ('A' for Active; 'I' for Inactive)
    1  A    between atoms: C_2  and  C_11
    2  A    between atoms: C_3  and  C_21
    3  A    between atoms: C_7  and  N_9
    4  A    between atoms: N_9  and  C_14
    5  A    between atoms: C_11  and  C_21
    6  A    between atoms: C_14  and  C_32
    7  A    between atoms: C_21  and  C_32
                            x       y       z     vdW  Elec       q    Type
                         _______ _______ _______ _____ _____    ______ ____

>  <TORSDO>
F 7

$$$$
=
 OpenBabel11072414173D

 34 37  0  0  1  0  0  0  0  0999 V2000
  161.3620  209.5690  151.4060 N   0  0  0  0  0  2  0  0  0  0  0  0
  160.7290  205.3370  150.8870 C   0  0  0  0  0  0  0  0  0  0  0  0
  161.3380  207.5890  152.5950 C   0  0  1  0  0  3  0  0  0  0  0  0
  161.7370  207.5540  150.1600 C   0  0  1  0  0  3  0  0  0  0  0  0
  161.9490  208.2830  151.4340 N   0  0  1  0  0  0  0  0  0  0  0  0
  160.2300  208.5960  154.7030 C   0  0  0  0  0  0  0  0  0  0  0  0
  160.1860  207.4000  155.4090 O   0  0  0  0  0  1  0  0  0  0  0  0
  160.0310  212.2720  152.4840 C   0  0  0  0  0  3  0  0  0  0  0  0
  159.6290  211.0330  154.3880 C   0  0  0  0  0  0  0  0  0  0  0  0
  159.6190  209.8400  155.2620 C   0  0  0  0  0  0  0  0  0  0  0  0
  162.3110  206.6240  153.2430 C   0  0  0  0  0  2  0  0  0  0  0  0
  164.0240  205.2610  152.3370 O   0  0  0  0  0  0  0  0  0  0  0  0
  160.7840  209.8420  152.6620 C   0  0  0  0  0  0  0  0  0  0  0  0
  159.7560  204.5480  150.9970 O   0  0  0  0  0  0  0  0  0  0  0  0
  160.5130  206.6310  150.1400 C   0  0  0  0  0  2  0  0  0  0  0  0
  161.9890  204.9190  151.3450 O   0  0  0  0  0  0  0  0  0  0  0  0
  160.2200  210.9680  153.0860 C   0  0  0  0  0  0  0  0  0  0  0  0
  159.0590  209.8560  156.4260 N   0  0  0  0  0  2  0  0  0  0  0  0
  159.1220  212.1930  154.6170 N   0  0  0  0  0  0  0  0  0  0  0  0
  162.8140  205.5950  152.2640 C   0  0  0  0  0  0  0  0  0  0  0  0
  160.8070  208.6590  153.4830 C   0  0  0  0  0  0  0  0  0  0  0  0
  159.3790  212.9660  153.4280 C   0  0  0  0  0  3  0  0  0  0  0  0
  161.7170  208.4530  149.0120 N   0  0  0  0  0  2  0  0  0  0  0  0
  161.3140  207.6640  147.8610 C   0  0  0  0  0  2  0  0  0  0  0  0
  162.4190  206.6790  147.5090 C   0  0  0  0  0  2  0  0  0  0  0  0
  160.4130  205.5570  146.6730 C   0  0  0  0  0  1  0  0  0  0  0  0
  161.9280  205.4380  146.7480 C   0  0  1  0  0  0  0  0  0  0  0  0
  162.4820  205.3920  145.3040 C   0  0  2  0  0  3  0  0  0  0  0  0
  161.4100  205.2330  144.2340 C   0  0  0  0  0  1  0  0  0  0  0  0
  163.4370  204.3820  145.1600 O   0  0  0  0  0  1  0  0  0  0  0  0
  162.2810  204.1670  147.5470 C   0  0  0  0  0  2  0  0  0  0  0  0
  160.5460  202.7950  148.4560 O   0  0  0  0  0  1  0  0  0  0  0  0
  161.2490  203.0850  147.4530 C   0  0  0  0  0  0  0  0  0  0  0  0
  161.0540  202.4100  146.2550 O   0  0  0  0  0  0  0  0  0  0  0  0
  1 13  1  0  0  0  0
  2 14  2  0  0  0  0
  2 16  1  0  0  0  0
  3 11  1  1  0  0  0
  3 21  1  0  0  0  0
  4 23  1  6  0  0  0
  4  5  1  0  0  0  0
  5  1  1  6  0  0  0
  5  3  1  0  0  0  0
  6 10  1  0  0  0  0
  6  7  1  0  0  0  0
  8 17  1  0  0  0  0
  8 22  2  0  0  0  0
  9 19  2  0  0  0  0
  9 10  1  0  0  0  0
 10 18  2  0  0  0  0
 13 17  2  0  0  0  0
 13 21  1  0  0  0  0
 15  4  1  0  0  0  0
 15  2  1  0  0  0  0
 16 20  1  0  0  0  0
 17  9  1  0  0  0  0
 20 12  2  0  0  0  0
 20 11  1  0  0  0  0
 21  6  2  0  0  0  0
 22 19  1  0  0  0  0
 24 23  1  0  0  0  0
 25 24  1  0  0  0  0
 27 26  1  6  0  0  0
 27 25  1  0  0  0  0
 27 31  1  0  0  0  0
 28 29  1  6  0  0  0
 28 27  1  0  0  0  0
 30 28  1  0  0  0  0
 33 31  1  0  0  0  0
 33 32  1  0  0  0  0
 34 33  2  0  0  0  0
M  END
>  <MODEL>
3

>  <REMARK>
 VINA RESULT:      -5.4      2.185      4.132
  Name = 
  7 active torsions:
  status: ('A' for Active; 'I' for Inactive)
    1  A    between atoms: C_2  and  C_11
    2  A    between atoms: C_3  and  C_21
    3  A    between atoms: C_7  and  N_9
    4  A    between atoms: N_9  and  C_14
    5  A    between atoms: C_11  and  C_21
    6  A    between atoms: C_14  and  C_32
    7  A    between atoms: C_21  and  C_32
                            x       y       z     vdW  Elec       q    Type
                         _______ _______ _______ _____ _____    ______ ____

>  <TORSDO>
F 7

$$$$
=
 OpenBabel11072414173D

 34 37  0  0  1  0  0  0  0  0999 V2000
  161.3460  208.9930  150.8950 N   0  0  0  0  0  2  0  0  0  0  0  0
  160.6680  204.7460  151.1870 C   0  0  0  0  0  0  0  0  0  0  0  0
  161.4060  207.2560  152.4170 C   0  0  1  0  0  3  0  0  0  0  0  0
  161.6240  206.7820  150.0050 C   0  0  1  0  0  3  0  0  0  0  0  0
  161.9310  207.7230  151.1090 N   0  0  1  0  0  0  0  0  0  0  0  0
  160.4580  208.6400  154.3850 C   0  0  0  0  0  0  0  0  0  0  0  0
  160.4640  207.5890  155.2950 O   0  0  0  0  0  1  0  0  0  0  0  0
  160.1050  211.8640  151.5650 C   0  0  0  0  0  3  0  0  0  0  0  0
  159.8410  210.9900  153.6840 C   0  0  0  0  0  0  0  0  0  0  0  0
  159.8930  209.9730  154.7550 C   0  0  0  0  0  0  0  0  0  0  0  0
  162.4220  206.4070  153.1540 C   0  0  0  0  0  2  0  0  0  0  0  0
  164.0610  204.8790  152.3860 O   0  0  0  0  0  0  0  0  0  0  0  0
  160.8640  209.4930  152.1200 C   0  0  0  0  0  0  0  0  0  0  0  0
  159.7040  204.0040  151.5060 O   0  0  0  0  0  0  0  0  0  0  0  0
  160.4000  205.8900  150.2390 C   0  0  0  0  0  2  0  0  0  0  0  0
  161.9570  204.3970  151.6200 O   0  0  0  0  0  0  0  0  0  0  0  0
  160.3350  210.6850  152.3750 C   0  0  0  0  0  0  0  0  0  0  0  0
  159.4200  210.2050  155.9350 N   0  0  0  0  0  2  0  0  0  0  0  0
  159.3550  212.1810  153.7370 N   0  0  0  0  0  0  0  0  0  0  0  0
  162.8490  205.2130  152.3410 C   0  0  0  0  0  0  0  0  0  0  0  0
  160.9450  208.4760  153.1350 C   0  0  0  0  0  0  0  0  0  0  0  0
  159.5250  212.7250  152.4140 C   0  0  0  0  0  3  0  0  0  0  0  0
  161.5220  207.4620  148.7200 N   0  0  0  0  0  2  0  0  0  0  0  0
  162.0850  206.5720  147.7200 C   0  0  0  0  0  2  0  0  0  0  0  0
  161.0770  205.4820  147.3860 C   0  0  0  0  0  2  0  0  0  0  0  0
  163.0970  204.7200  146.2350 C   0  0  0  0  0  1  0  0  0  0  0  0
  161.6460  204.3530  146.5120 C   0  0  1  0  0  0  0  0  0  0  0  0
  161.6250  202.9910  147.2460 C   0  0  2  0  0  3  0  0  0  0  0  0
  160.8310  201.9110  146.5250 C   0  0  0  0  0  1  0  0  0  0  0  0
  161.1460  203.1270  148.5530 O   0  0  0  0  0  1  0  0  0  0  0  0
  160.8880  204.3030  145.1710 C   0  0  0  0  0  2  0  0  0  0  0  0
  160.1020  206.5460  144.9060 O   0  0  0  0  0  1  0  0  0  0  0  0
  160.8270  205.6190  144.4570 C   0  0  0  0  0  0  0  0  0  0  0  0
  161.5820  205.8260  143.3110 O   0  0  0  0  0  0  0  0  0  0  0  0
  1 13  1  0  0  0  0
  2 14  2  0  0  0  0
  2 16  1  0  0  0  0
  3 21  1  0  0  0  0
  3 11  1  1  0  0  0
  4 23  1  6  0  0  0
  4 15  1  0  0  0  0
  4  5  1  0  0  0  0
  5  1  1  6  0  0  0
  5  3  1  0  0  0  0
  6 10  1  0  0  0  0
  6  7  1  0  0  0  0
  8 17  1  0  0  0  0
  8 22  2  0  0  0  0
  9 19  2  0  0  0  0
  9 10  1  0  0  0  0
 10 18  2  0  0  0  0
 13 17  2  0  0  0  0
 13 21  1  0  0  0  0
 15  2  1  0  0  0  0
 16 20  1  0  0  0  0
 17  9  1  0  0  0  0
 20 12  2  0  0  0  0
 20 11  1  0  0  0  0
 21  6  2  0  0  0  0
 22 19  1  0  0  0  0
 24 23  1  0  0  0  0
 25 24  1  0  0  0  0
 27 26  1  6  0  0  0
 27 28  1  0  0  0  0
 27 25  1  0  0  0  0
 28 29  1  6  0  0  0
 28 30  1  0  0  0  0
 31 27  1  0  0  0  0
 33 32  1  0  0  0  0
 33 31  1  0  0  0  0
 34 33  2  0  0  0  0
M  END
>  <MODEL>
4

>  <REMARK>
 VINA RESULT:      -4.9      2.249      4.795
  Name = 
  7 active torsions:
  status: ('A' for Active; 'I' for Inactive)
    1  A    between atoms: C_2  and  C_11
    2  A    between atoms: C_3  and  C_21
    3  A    between atoms: C_7  and  N_9
    4  A    between atoms: N_9  and  C_14
    5  A    between atoms: C_11  and  C_21
    6  A    between atoms: C_14  and  C_32
    7  A    between atoms: C_21  and  C_32
                            x       y       z     vdW  Elec       q    Type
                         _______ _______ _______ _____ _____    ______ ____

>  <TORSDO>
F 7

$$$$
=
 OpenBabel11072414173D

 34 37  0  0  1  0  0  0  0  0999 V2000
  160.7880  211.7720  151.8100 N   0  0  0  0  0  2  0  0  0  0  0  0
  159.6310  213.0730  147.8670 C   0  0  0  0  0  0  0  0  0  0  0  0
  161.3870  211.5540  149.5900 C   0  0  1  0  0  3  0  0  0  0  0  0
  160.0940  213.5230  150.3250 C   0  0  1  0  0  3  0  0  0  0  0  0
  161.1440  212.5370  150.6760 N   0  0  1  0  0  0  0  0  0  0  0  0
  162.0110  209.0520  149.7610 C   0  0  0  0  0  0  0  0  0  0  0  0
  162.3440  208.9090  148.4190 O   0  0  0  0  0  1  0  0  0  0  0  0
  160.7080  209.3080  153.8490 C   0  0  0  0  0  3  0  0  0  0  0  0
  161.5500  208.1120  152.0640 C   0  0  0  0  0  0  0  0  0  0  0  0
  162.0170  207.8740  150.6820 C   0  0  0  0  0  0  0  0  0  0  0  0
  162.4650  212.0320  148.6370 C   0  0  0  0  0  2  0  0  0  0  0  0
  163.0530  214.1960  147.8720 O   0  0  0  0  0  0  0  0  0  0  0  0
  161.1960  210.4370  151.6150 C   0  0  0  0  0  0  0  0  0  0  0  0
  158.9070  212.6230  146.9420 O   0  0  0  0  0  0  0  0  0  0  0  0
  159.0850  213.0460  149.2740 C   0  0  0  0  0  2  0  0  0  0  0  0
  160.8450  213.6930  147.5290 O   0  0  0  0  0  0  0  0  0  0  0  0
  161.1390  209.4220  152.4710 C   0  0  0  0  0  0  0  0  0  0  0  0
  162.3570  206.6960  150.2740 N   0  0  0  0  0  2  0  0  0  0  0  0
  161.4110  207.2590  153.0180 N   0  0  0  0  0  0  0  0  0  0  0  0
  162.1210  213.3650  148.0260 C   0  0  0  0  0  0  0  0  0  0  0  0
  161.6540  210.2540  150.2630 C   0  0  0  0  0  0  0  0  0  0  0  0
  160.8900  208.0090  154.1320 C   0  0  0  0  0  3  0  0  0  0  0  0
  159.4010  214.0270  151.5050 N   0  0  0  0  0  2  0  0  0  0  0  0
  158.0580  213.4740  151.4800 C   0  0  0  0  0  2  0  0  0  0  0  0
  157.2850  213.9630  152.6960 C   0  0  0  0  0  2  0  0  0  0  0  0
  157.9550  211.7370  153.4600 C   0  0  0  0  0  1  0  0  0  0  0  0
  157.4880  213.1010  153.9510 C   0  0  1  0  0  0  0  0  0  0  0  0
  158.5840  213.6810  154.8770 C   0  0  2  0  0  3  0  0  0  0  0  0
  159.6170  212.6600  155.3310 C   0  0  0  0  0  1  0  0  0  0  0  0
  158.0240  214.3060  155.9950 O   0  0  0  0  0  1  0  0  0  0  0  0
  156.1430  212.9240  154.6830 C   0  0  0  0  0  2  0  0  0  0  0  0
  156.4710  211.4160  156.5100 O   0  0  0  0  0  1  0  0  0  0  0  0
  155.9900  211.5960  155.3610 C   0  0  0  0  0  0  0  0  0  0  0  0
  155.3030  210.5680  154.7310 O   0  0  0  0  0  0  0  0  0  0  0  0
  2 15  1  0  0  0  0
  3 11  1  1  0  0  0
  3 21  1  0  0  0  0
  3  5  1  0  0  0  0
  4  5  1  0  0  0  0
  4 23  1  1  0  0  0
  5  1  1  1  0  0  0
  6 21  2  0  0  0  0
  6 10  1  0  0  0  0
  7  6  1  0  0  0  0
  8 22  2  0  0  0  0
  9 17  1  0  0  0  0
  9 19  2  0  0  0  0
 10  9  1  0  0  0  0
 12 20  2  0  0  0  0
 13  1  1  0  0  0  0
 13 17  2  0  0  0  0
 14  2  2  0  0  0  0
 15  4  1  0  0  0  0
 16  2  1  0  0  0  0
 16 20  1  0  0  0  0
 17  8  1  0  0  0  0
 18 10  2  0  0  0  0
 19 22  1  0  0  0  0
 20 11  1  0  0  0  0
 21 13  1  0  0  0  0
 24 23  1  0  0  0  0
 24 25  1  0  0  0  0
 25 27  1  0  0  0  0
 27 26  1  6  0  0  0
 27 31  1  0  0  0  0
 27 28  1  0  0  0  0
 28 29  1  1  0  0  0
 28 30  1  0  0  0  0
 31 33  1  0  0  0  0
 33 32  1  0  0  0  0
 34 33  2  0  0  0  0
M  END
>  <MODEL>
5

>  <REMARK>
 VINA RESULT:      -4.9      3.552      8.075
  Name = 
  7 active torsions:
  status: ('A' for Active; 'I' for Inactive)
    1  A    between atoms: C_2  and  C_11
    2  A    between atoms: C_3  and  C_21
    3  A    between atoms: C_7  and  N_9
    4  A    between atoms: N_9  and  C_14
    5  A    between atoms: C_11  and  C_21
    6  A    between atoms: C_14  and  C_32
    7  A    between atoms: C_21  and  C_32
                            x       y       z     vdW  Elec       q    Type
                         _______ _______ _______ _____ _____    ______ ____

>  <TORSDO>
F 7

$$$$
=
 OpenBabel11072414173D

 34 37  0  0  1  0  0  0  0  0999 V2000
  160.8220  211.5850  151.7970 N   0  0  0  0  0  2  0  0  0  0  0  0
  159.6690  212.9880  147.8880 C   0  0  0  0  0  0  0  0  0  0  0  0
  161.3970  211.3920  149.5680 C   0  0  1  0  0  3  0  0  0  0  0  0
  160.1630  213.3810  150.3490 C   0  0  1  0  0  3  0  0  0  0  0  0
  161.1890  212.3610  150.6740 N   0  0  1  0  0  0  0  0  0  0  0  0
  161.9560  208.8710  149.6890 C   0  0  0  0  0  0  0  0  0  0  0  0
  162.2740  208.7450  148.3420 O   0  0  0  0  0  1  0  0  0  0  0  0
  160.6930  209.0870  153.7910 C   0  0  0  0  0  3  0  0  0  0  0  0
  161.4880  207.9030  151.9780 C   0  0  0  0  0  0  0  0  0  0  0  0
  161.9380  207.6770  150.5880 C   0  0  0  0  0  0  0  0  0  0  0  0
  162.4800  211.8590  148.6150 C   0  0  0  0  0  2  0  0  0  0  0  0
  163.1190  214.0200  147.8840 O   0  0  0  0  0  0  0  0  0  0  0  0
  161.1920  210.2440  151.5740 C   0  0  0  0  0  0  0  0  0  0  0  0
  158.9260  212.5750  146.9610 O   0  0  0  0  0  0  0  0  0  0  0  0
  159.1330  212.9500  149.2990 C   0  0  0  0  0  2  0  0  0  0  0  0
  160.8960  213.5820  147.5510 O   0  0  0  0  0  0  0  0  0  0  0  0
  161.1150  209.2150  152.4120 C   0  0  0  0  0  0  0  0  0  0  0  0
  162.2430  206.4990  150.1560 N   0  0  0  0  0  2  0  0  0  0  0  0
  161.3340  207.0360  152.9170 N   0  0  0  0  0  0  0  0  0  0  0  0
  162.1660  213.2110  148.0310 C   0  0  0  0  0  0  0  0  0  0  0  0
  161.6350  210.0730  150.2160 C   0  0  0  0  0  0  0  0  0  0  0  0
  160.8420  207.7790  154.0490 C   0  0  0  0  0  3  0  0  0  0  0  0
  159.4930  213.8820  151.5440 N   0  0  0  0  0  2  0  0  0  0  0  0
  158.1000  213.4820  151.4510 C   0  0  0  0  0  2  0  0  0  0  0  0
  157.2800  214.2590  152.4700 C   0  0  0  0  0  2  0  0  0  0  0  0
  157.6640  214.3830  154.8830 C   0  0  0  0  0  1  0  0  0  0  0  0
  157.0580  213.5100  153.7930 C   0  0  1  0  0  0  0  0  0  0  0  0
  155.5540  213.3240  154.1040 C   0  0  2  0  0  3  0  0  0  0  0  0
  154.6270  214.0540  153.1420 C   0  0  0  0  0  1  0  0  0  0  0  0
  155.2570  213.7030  155.4160 O   0  0  0  0  0  1  0  0  0  0  0  0
  157.8170  212.1680  153.7630 C   0  0  0  0  0  2  0  0  0  0  0  0
  159.5660  211.9190  155.3740 O   0  0  0  0  0  0  0  0  0  0  0  0
  158.3510  211.7430  155.0970 C   0  0  0  0  0  0  0  0  0  0  0  0
  157.5050  211.1690  156.0360 O   0  0  0  0  0  1  0  0  0  0  0  0
  2 15  1  0  0  0  0
  3 11  1  1  0  0  0
  3 21  1  0  0  0  0
  3  5  1  0  0  0  0
  4  5  1  0  0  0  0
  4 23  1  1  0  0  0
  5  1  1  1  0  0  0
  6 21  2  0  0  0  0
  6 10  1  0  0  0  0
  7  6  1  0  0  0  0
  8 22  2  0  0  0  0
  9 17  1  0  0  0  0
  9 19  2  0  0  0  0
 10  9  1  0  0  0  0
 12 20  2  0  0  0  0
 13  1  1  0  0  0  0
 13 17  2  0  0  0  0
 14  2  2  0  0  0  0
 15  4  1  0  0  0  0
 16  2  1  0  0  0  0
 16 20  1  0  0  0  0
 17  8  1  0  0  0  0
 18 10  2  0  0  0  0
 19 22  1  0  0  0  0
 20 11  1  0  0  0  0
 21 13  1  0  0  0  0
 24 23  1  0  0  0  0
 24 25  1  0  0  0  0
 25 27  1  0  0  0  0
 27 28  1  0  0  0  0
 27 26  1  1  0  0  0
 28 29  1  6  0  0  0
 28 30  1  0  0  0  0
 31 27  1  0  0  0  0
 31 33  1  0  0  0  0
 33 32  2  0  0  0  0
 33 34  1  0  0  0  0
M  END
>  <MODEL>
6

>  <REMARK>
 VINA RESULT:      -4.7      3.510      8.152
  Name = 
  7 active torsions:
  status: ('A' for Active; 'I' for Inactive)
    1  A    between atoms: C_2  and  C_11
    2  A    between atoms: C_3  and  C_21
    3  A    between atoms: C_7  and  N_9
    4  A    between atoms: N_9  and  C_14
    5  A    between atoms: C_11  and  C_21
    6  A    between atoms: C_14  and  C_32
    7  A    between atoms: C_21  and  C_32
                            x       y       z     vdW  Elec       q    Type
                         _______ _______ _______ _____ _____    ______ ____

>  <TORSDO>
F 7

$$$$
=
 OpenBabel11072414173D

 34 37  0  0  1  0  0  0  0  0999 V2000
  160.8910  206.6720  148.5030 N   0  0  0  0  0  2  0  0  0  0  0  0
  163.0820  205.7490  152.0980 C   0  0  0  0  0  0  0  0  0  0  0  0
  161.2300  204.9650  150.0210 C   0  0  1  0  0  3  0  0  0  0  0  0
  161.6470  207.3030  150.6910 C   0  0  1  0  0  3  0  0  0  0  0  0
  160.8100  206.3820  149.8850 N   0  0  1  0  0  0  0  0  0  0  0  0
  161.2050  203.0760  148.2570 C   0  0  0  0  0  0  0  0  0  0  0  0
  161.4400  202.0490  149.1640 O   0  0  0  0  0  1  0  0  0  0  0  0
  160.7940  206.2050  145.3400 C   0  0  0  0  0  3  0  0  0  0  0  0
  160.9880  203.9760  145.9030 C   0  0  0  0  0  0  0  0  0  0  0  0
  161.1390  202.8020  146.7890 C   0  0  0  0  0  0  0  0  0  0  0  0
  160.5030  204.2750  151.1590 C   0  0  0  0  0  2  0  0  0  0  0  0
  159.7430  205.0660  153.2590 O   0  0  0  0  0  0  0  0  0  0  0  0
  160.9170  205.4650  147.7770 C   0  0  0  0  0  0  0  0  0  0  0  0
  164.1830  205.2060  152.3730 O   0  0  0  0  0  0  0  0  0  0  0  0
  163.0560  206.7890  151.0040 C   0  0  0  0  0  2  0  0  0  0  0  0
  161.9710  205.4600  152.9060 O   0  0  0  0  0  0  0  0  0  0  0  0
  160.8930  205.2920  146.4600 C   0  0  1  0  0  3  0  0  0  0  0  0
  161.2680  201.6070  146.3160 N   0  0  0  0  0  1  0  0  0  0  0  0
  160.9620  204.0070  144.6170 N   0  0  0  0  0  0  0  0  0  0  0  0
  160.7200  204.9820  152.4710 C   0  0  0  0  0  0  0  0  0  0  0  0
  161.0520  204.3500  148.6780 C   0  0  0  0  0  0  0  0  0  0  0  0
  160.8370  205.3990  144.2680 C   0  0  0  0  0  3  0  0  0  0  0  0
  161.7090  208.6380  150.1070 N   0  0  0  0  0  2  0  0  0  0  0  0
  161.9270  209.5710  151.1980 C   0  0  0  0  0  2  0  0  0  0  0  0
  160.6490  209.7090  152.0110 C   0  0  0  0  0  2  0  0  0  0  0  0
  162.2720  210.3290  153.7340 C   0  0  0  0  0  1  0  0  0  0  0  0
  160.8780  209.7530  153.5300 C   0  0  1  0  0  0  0  0  0  0  0  0
  159.8630  210.6820  154.2380 C   0  0  2  0  0  3  0  0  0  0  0  0
  158.8450  211.3170  153.3010 C   0  0  0  0  0  1  0  0  0  0  0  0
  160.5150  211.6820  154.9650 O   0  0  0  0  0  1  0  0  0  0  0  0
  160.8520  208.3200  154.1010 C   0  0  0  0  0  2  0  0  0  0  0  0
  159.7040  207.8170  156.1370 O   0  0  0  0  0  0  0  0  0  0  0  0
  160.7480  208.2640  155.5940 C   0  0  0  0  0  0  0  0  0  0  0  0
  161.8090  208.6880  156.3830 O   0  0  0  0  0  1  0  0  0  0  0  0
  2 14  2  0  0  0  0
  2 16  1  0  0  0  0
  3 11  1  1  0  0  0
  4 23  1  6  0  0  0
  4 15  1  0  0  0  0
  5  1  1  6  0  0  0
  5  3  1  0  0  0  0
  5  4  1  0  0  0  0
  6 21  1  0  0  0  0
  6  7  1  0  0  0  0
  9 17  1  0  0  0  0
  9 10  1  0  0  0  0
 10  6  2  0  0  0  0
 11 20  1  0  0  0  0
 13  1  1  0  0  0  0
 13 21  2  0  0  0  0
 15  2  1  0  0  0  0
 17  8  1  6  0  0  0
 17 13  1  0  0  0  0
 18 10  1  0  0  0  0
 19  9  2  0  0  0  0
 20 16  1  0  0  0  0
 20 12  2  0  0  0  0
 21  3  1  0  0  0  0
 22 19  1  0  0  0  0
 22  8  2  0  0  0  0
 23 24  1  0  0  0  0
 24 25  1  0  0  0  0
 25 27  1  0  0  0  0
 27 26  1  1  0  0  0
 27 31  1  0  0  0  0
 27 28  1  0  0  0  0
 28 29  1  6  0  0  0
 28 30  1  0  0  0  0
 31 33  1  0  0  0  0
 33 32  2  0  0  0  0
 33 34  1  0  0  0  0
M  END
>  <MODEL>
7

>  <REMARK>
 VINA RESULT:      -4.6      2.965      8.325
  Name = 
  7 active torsions:
  status: ('A' for Active; 'I' for Inactive)
    1  A    between atoms: C_2  and  C_11
    2  A    between atoms: C_3  and  C_21
    3  A    between atoms: C_7  and  N_9
    4  A    between atoms: N_9  and  C_14
    5  A    between atoms: C_11  and  C_21
    6  A    between atoms: C_14  and  C_32
    7  A    between atoms: C_21  and  C_32
                            x       y       z     vdW  Elec       q    Type
                         _______ _______ _______ _____ _____    ______ ____

>  <TORSDO>
F 7

$$$$
=
 OpenBabel11072414173D

 34 37  0  0  1  0  0  0  0  0999 V2000
  161.1150  210.2500  150.7810 N   0  0  0  0  0  2  0  0  0  0  0  0
  162.2490  213.4000  148.0660 C   0  0  0  0  0  0  0  0  0  0  0  0
  160.4620  212.3530  150.0830 C   0  0  1  0  0  3  0  0  0  0  0  0
  161.8570  210.9490  148.6090 C   0  0  1  0  0  3  0  0  0  0  0  0
  160.7710  210.9770  149.6180 N   0  0  1  0  0  0  0  0  0  0  0  0
  159.7290  213.1590  152.4270 C   0  0  0  0  0  0  0  0  0  0  0  0
  159.3630  214.4360  152.0160 O   0  0  0  0  0  1  0  0  0  0  0  0
  161.1250  209.3520  153.8520 C   0  0  0  0  0  3  0  0  0  0  0  0
  160.1940  211.4320  154.2150 C   0  0  0  0  0  0  0  0  0  0  0  0
  159.6890  212.7780  153.8720 C   0  0  0  0  0  0  0  0  0  0  0  0
  159.3870  213.0000  149.2320 C   0  0  0  0  0  2  0  0  0  0  0  0
  158.8820  212.8290  146.9240 O   0  0  0  0  0  0  0  0  0  0  0  0
  160.6440  210.9400  151.9150 C   0  0  0  0  0  0  0  0  0  0  0  0
  162.9330  214.4530  148.1370 O   0  0  0  0  0  0  0  0  0  0  0  0
  162.8220  212.1390  148.6660 C   0  0  0  0  0  2  0  0  0  0  0  0
  161.0570  213.4220  147.3230 O   0  0  0  0  0  0  0  0  0  0  0  0
  160.6720  210.5570  153.1880 C   0  0  0  0  0  0  0  0  0  0  0  0
  159.2880  213.6040  154.7800 N   0  0  0  0  0  2  0  0  0  0  0  0
  160.3140  210.8980  155.3800 N   0  0  0  0  0  0  0  0  0  0  0  0
  159.7780  213.0490  147.7780 C   0  0  0  0  0  0  0  0  0  0  0  0
  160.1500  212.2380  151.5340 C   0  0  0  0  0  0  0  0  0  0  0  0
  160.8910  209.5980  155.1490 C   0  0  0  0  0  3  0  0  0  0  0  0
  162.5950  209.6920  148.6360 N   0  0  0  0  0  2  0  0  0  0  0  0
  161.6600  208.6400  148.2780 C   0  0  0  0  0  2  0  0  0  0  0  0
  162.3470  207.2880  148.3970 C   0  0  0  0  0  2  0  0  0  0  0  0
  160.7170  206.5780  146.7160 C   0  0  0  0  0  1  0  0  0  0  0  0
  161.4750  206.1050  147.9480 C   0  0  1  0  0  0  0  0  0  0  0  0
  162.3320  204.8800  147.5460 C   0  0  2  0  0  3  0  0  0  0  0  0
  162.9860  205.0020  146.1770 C   0  0  0  0  0  1  0  0  0  0  0  0
  161.5840  203.7000  147.6020 O   0  0  0  0  0  1  0  0  0  0  0  0
  160.4540  205.7640  149.0510 C   0  0  0  0  0  2  0  0  0  0  0  0
  161.5780  204.6110  150.8190 O   0  0  0  0  0  0  0  0  0  0  0  0
  161.0470  205.6820  150.4240 C   0  0  0  0  0  0  0  0  0  0  0  0
  161.0290  206.7910  151.2580 O   0  0  0  0  0  1  0  0  0  0  0  0
  1 13  1  0  0  0  0
  2 14  2  0  0  0  0
  2 15  1  0  0  0  0
  3 11  1  6  0  0  0
  3 21  1  0  0  0  0
  4 23  1  1  0  0  0
  4 15  1  0  0  0  0
  4  5  1  0  0  0  0
  5  3  1  0  0  0  0
  5  1  1  1  0  0  0
  6 10  1  0  0  0  0
  7  6  1  0  0  0  0
  8 22  2  0  0  0  0
  9 19  2  0  0  0  0
 10  9  1  0  0  0  0
 10 18  2  0  0  0  0
 12 20  2  0  0  0  0
 13 17  2  0  0  0  0
 16 20  1  0  0  0  0
 16  2  1  0  0  0  0
 17  8  1  0  0  0  0
 17  9  1  0  0  0  0
 20 11  1  0  0  0  0
 21 13  1  0  0  0  0
 21  6  2  0  0  0  0
 22 19  1  0  0  0  0
 24 25  1  0  0  0  0
 24 23  1  0  0  0  0
 27 26  1  6  0  0  0
 27 25  1  0  0  0  0
 27 31  1  0  0  0  0
 28 29  1  6  0  0  0
 28 30  1  0  0  0  0
 28 27  1  0  0  0  0
 31 33  1  0  0  0  0
 33 32  2  0  0  0  0
 33 34  1  0  0  0  0
M  END
>  <MODEL>
8

>  <REMARK>
 VINA RESULT:      -4.0      3.566      5.199
  Name = 
  7 active torsions:
  status: ('A' for Active; 'I' for Inactive)
    1  A    between atoms: C_2  and  C_11
    2  A    between atoms: C_3  and  C_21
    3  A    between atoms: C_7  and  N_9
    4  A    between atoms: N_9  and  C_14
    5  A    between atoms: C_11  and  C_21
    6  A    between atoms: C_14  and  C_32
    7  A    between atoms: C_21  and  C_32
                            x       y       z     vdW  Elec       q    Type
                         _______ _______ _______ _____ _____    ______ ____

>  <TORSDO>
F 7

$$$$
=
 OpenBabel11072414173D

 34 37  0  0  1  0  0  0  0  0999 V2000
  162.5150  207.0660  149.9270 N   0  0  0  0  0  2  0  0  0  0  0  0
  160.7100  206.3830  146.0730 C   0  0  0  0  0  0  0  0  0  0  0  0
  161.8220  205.3570  148.5370 C   0  0  1  0  0  3  0  0  0  0  0  0
  162.3760  207.5650  147.5850 C   0  0  1  0  0  3  0  0  0  0  0  0
  162.6960  206.5540  148.6220 N   0  0  1  0  0  0  0  0  0  0  0  0
  160.9030  203.8660  150.4380 C   0  0  0  0  0  0  0  0  0  0  0  0
  160.4580  202.8500  149.6010 O   0  0  0  0  0  1  0  0  0  0  0  0
  161.9580  207.0900  153.0780 C   0  0  0  0  0  3  0  0  0  0  0  0
  161.0680  204.9960  152.6950 C   0  0  0  0  0  0  0  0  0  0  0  0
  160.6440  203.8180  151.9090 C   0  0  0  0  0  0  0  0  0  0  0  0
  162.4180  204.2960  147.6330 C   0  0  0  0  0  2  0  0  0  0  0  0
  163.7200  204.4500  145.6590 O   0  0  0  0  0  0  0  0  0  0  0  0
  161.9500  206.0650  150.7430 C   0  0  0  0  0  0  0  0  0  0  0  0
  159.5430  206.2040  145.6390 O   0  0  0  0  0  0  0  0  0  0  0  0
  160.9400  207.5100  147.0510 C   0  0  0  0  0  2  0  0  0  0  0  0
  161.7540  205.6170  145.5290 O   0  0  0  0  0  0  0  0  0  0  0  0
  161.7100  206.1010  152.0500 C   0  0  0  0  0  0  0  0  0  0  0  0
  160.0270  202.8240  152.4570 N   0  0  0  0  0  2  0  0  0  0  0  0
  160.9080  205.2160  153.9530 N   0  0  0  0  0  0  0  0  0  0  0  0
  162.6700  204.8210  146.2440 C   0  0  0  0  0  0  0  0  0  0  0  0
  161.5640  204.9340  149.9400 C   0  0  0  0  0  0  0  0  0  0  0  0
  161.4690  206.5220  154.1900 C   0  0  0  0  0  3  0  0  0  0  0  0
  162.7060  208.9170  148.0200 N   0  0  0  0  0  2  0  0  0  0  0  0
  161.4510  209.6070  148.2590 C   0  0  0  0  0  2  0  0  0  0  0  0
  161.7160  210.8860  149.0400 C   0  0  0  0  0  2  0  0  0  0  0  0
  160.6350  213.0770  149.1810 C   0  0  0  0  0  1  0  0  0  0  0  0
  161.4270  212.1710  148.2490 C   0  0  1  0  0  0  0  0  0  0  0  0
  162.7290  212.9060  147.8510 C   0  0  2  0  0  3  0  0  0  0  0  0
  162.6550  214.4200  147.9940 C   0  0  0  0  0  1  0  0  0  0  0  0
  163.1180  212.5800  146.5490 O   0  0  0  0  0  1  0  0  0  0  0  0
  160.5490  211.8400  147.0250 C   0  0  0  0  0  2  0  0  0  0  0  0
  159.7520  213.9300  146.1790 O   0  0  0  0  0  0  0  0  0  0  0  0
  159.4730  212.8480  146.7590 C   0  0  0  0  0  0  0  0  0  0  0  0
  158.1630  212.5860  147.1370 O   0  0  0  0  0  1  0  0  0  0  0  0
  1 13  1  0  0  0  0
  2 15  1  0  0  0  0
  3 11  1  6  0  0  0
  3  5  1  0  0  0  0
  3 21  1  0  0  0  0
  4 23  1  1  0  0  0
  4  5  1  0  0  0  0
  5  1  1  1  0  0  0
  6 10  1  0  0  0  0
  7  6  1  0  0  0  0
  8 22  2  0  0  0  0
  9 19  2  0  0  0  0
 10 18  2  0  0  0  0
 10  9  1  0  0  0  0
 12 20  2  0  0  0  0
 13 17  2  0  0  0  0
 14  2  2  0  0  0  0
 15  4  1  0  0  0  0
 16  2  1  0  0  0  0
 16 20  1  0  0  0  0
 17  9  1  0  0  0  0
 17  8  1  0  0  0  0
 19 22  1  0  0  0  0
 20 11  1  0  0  0  0
 21  6  2  0  0  0  0
 21 13  1  0  0  0  0
 23 24  1  0  0  0  0
 24 25  1  0  0  0  0
 27 25  1  0  0  0  0
 27 26  1  1  0  0  0
 28 29  1  6  0  0  0
 28 27  1  0  0  0  0
 30 28  1  0  0  0  0
 31 27  1  0  0  0  0
 32 33  2  0  0  0  0
 33 31  1  0  0  0  0
 33 34  1  0  0  0  0
M  END
>  <MODEL>
9

>  <REMARK>
 VINA RESULT:      -4.0      5.034      8.743
  Name = 
  7 active torsions:
  status: ('A' for Active; 'I' for Inactive)
    1  A    between atoms: C_2  and  C_11
    2  A    between atoms: C_3  and  C_21
    3  A    between atoms: C_7  and  N_9
    4  A    between atoms: N_9  and  C_14
    5  A    between atoms: C_11  and  C_21
    6  A    between atoms: C_14  and  C_32
    7  A    between atoms: C_21  and  C_32
                            x       y       z     vdW  Elec       q    Type
                         _______ _______ _______ _____ _____    ______ ____

>  <TORSDO>
F 7

$$$$
