=
 OpenBabel11072412003D

 45 49  0  0  1  0  0  0  0  0999 V2000
  157.5610  213.1760  151.2150 C   0  0  2  0  0  3  0  0  0  0  0  0
  164.0780  212.3220  148.2800 C   0  0  0  0  0  1  0  0  0  0  0  0
  159.5790  211.1870  152.0310 C   0  0  0  0  0  2  0  0  0  0  0  0
  160.6480  213.2910  151.5760 O   0  0  0  0  0  1  0  0  0  0  0  0
  160.5770  213.6770  148.6180 N   0  0  0  0  0  2  0  0  0  0  0  0
  160.9520  209.8090  150.6920 C   0  0  1  0  0  3  0  0  0  0  0  0
  156.1060  213.8380  148.8350 C   0  0  0  0  0  0  0  0  0  0  0  0
  155.3690  213.6480  150.1320 C   0  0  2  0  0  3  0  0  0  0  0  0
  155.4590  214.0100  147.7660 O   0  0  0  0  0  0  0  0  0  0  0  0
  162.0710  211.5840  147.2880 O   0  0  0  0  0  1  0  0  0  0  0  0
  157.5840  213.7550  148.8170 C   0  0  0  0  0  0  0  0  0  0  0  0
  160.7970  209.5720  152.9740 O   0  0  0  0  0  1  0  0  0  0  0  0
  158.2450  213.8910  147.6630 C   0  0  0  0  0  3  0  0  0  0  0  0
  159.7060  213.8490  147.4950 C   0  0  0  0  0  0  0  0  0  0  0  0
  158.2600  213.5500  150.0260 O   0  0  0  0  0  0  0  0  0  0  0  0
  154.2460  214.4530  150.1700 F   0  0  0  0  0  0  0  0  0  0  0  0
  162.3160  211.5010  149.6260 O   0  0  0  0  0  0  0  0  0  0  0  0
  160.8630  210.5010  151.9890 N   0  0  0  0  0  0  0  0  0  0  0  0
  162.5750  212.2220  148.4320 C   0  0  1  0  0  0  0  0  0  0  0  0
  162.0330  213.6510  148.5320 C   0  0  0  0  0  2  0  0  0  0  0  0
  156.2610  213.9600  151.3320 C   0  0  0  0  0  2  0  0  0  0  0  0
  161.0720  210.8420  149.5600 C   0  0  0  0  0  2  0  0  0  0  0  0
  160.1970  214.0020  146.2720 C   0  0  0  0  0  2  0  0  0  0  0  0
  159.7560  212.6470  152.4340 C   0  0  1  0  0  3  0  0  0  0  0  0
  158.4210  213.3930  152.4610 C   0  0  0  0  0  2  0  0  0  0  0  0
  160.4710  203.5200  150.3830 C   0  0  0  0  0  3  0  0  0  0  0  0
  160.1780  203.2050  149.0620 C   0  0  0  0  0  0  0  0  0  0  0  0
  161.4580  204.9230  152.2090 C   0  0  1  0  0  3  0  0  0  0  0  0
  162.1680  208.8540  150.6130 C   0  0  2  0  0  3  0  0  0  0  0  0
  162.3190  208.1380  149.2610 C   0  0  0  0  0  0  0  0  0  0  0  0
  159.4570  202.0170  148.7550 N   0  0  0  0  0  1  0  0  0  0  0  0
  161.9280  207.4910  151.2430 C   0  0  2  0  0  3  0  0  0  0  0  0
  161.3550  205.1960  148.3230 C   0  0  0  0  0  0  0  0  0  0  0  0
  161.3310  203.7450  152.9500 O   0  0  0  0  0  1  0  0  0  0  0  0
  160.6350  204.0250  148.0390 C   0  0  0  0  0  3  0  0  0  0  0  0
  161.5640  205.5830  149.6680 C   0  0  0  0  0  0  0  0  0  0  0  0
  161.1990  208.2570  148.4300 O   0  0  0  0  0  1  0  0  0  0  0  0
  162.8270  205.5540  152.5230 C   0  0  0  0  0  2  0  0  0  0  0  0
  162.8190  207.0870  152.4010 C   0  0  0  0  0  2  0  0  0  0  0  0
  162.4140  206.7980  149.9870 C   0  0  1  0  0  3  0  0  0  0  0  0
  163.5010  208.4760  148.6050 O   0  0  0  0  0  1  0  0  0  0  0  0
  161.1960  204.6740  150.7160 C   0  0  0  0  0  0  0  0  0  0  0  0
  161.8810  205.9660  147.2770 O   0  0  0  0  0  0  0  0  0  0  0  0
  163.3580  204.6930  145.9600 C   0  0  0  0  0  2  0  0  0  0  0  0
  162.2580  205.4230  146.0490 C   0  0  0  0  0  3  0  0  0  0  0  0
  1 21  1  1  0  0  0
  1 25  1  0  0  0  0
  3 24  1  0  0  0  0
  6 22  1  6  0  0  0
  6 18  1  0  0  0  0
  7  8  1  0  0  0  0
  8 16  1  6  0  0  0
  8 21  1  0  0  0  0
  9  7  2  0  0  0  0
 10 19  1  0  0  0  0
 11  7  1  0  0  0  0
 11 15  1  0  0  0  0
 13 11  2  0  0  0  0
 14 13  1  0  0  0  0
 14  5  1  0  0  0  0
 15  1  1  0  0  0  0
 18  3  1  0  0  0  0
 18 12  1  0  0  0  0
 19  2  1  6  0  0  0
 19 20  1  0  0  0  0
 19 17  1  0  0  0  0
 20  5  1  0  0  0  0
 22 17  1  0  0  0  0
 23 14  2  0  0  0  0
 24  4  1  6  0  0  0
 24 25  1  0  0  0  0
 26 42  1  0  0  0  0
 27 26  2  0  0  0  0
 28 38  1  0  0  0  0
 28 34  1  1  0  0  0
 29 30  1  6  0  0  0
 29  6  1  0  0  0  0
 29 32  1  0  0  0  0
 30 40  1  0  0  0  0
 31 27  1  0  0  0  0
 32 39  1  1  0  0  0
 33 36  1  0  0  0  0
 35 33  2  0  0  0  0
 35 27  1  0  0  0  0
 36 42  2  0  0  0  0
 37 30  1  0  0  0  0
 39 38  1  0  0  0  0
 40 36  1  6  0  0  0
 40 32  1  0  0  0  0
 41 30  1  0  0  0  0
 42 28  1  0  0  0  0
 43 33  1  0  0  0  0
 44 45  2  0  0  0  0
 45 43  1  0  0  0  0
M  END
>  <MODEL>
1

>  <REMARK>
 VINA RESULT:      -2.4      0.000      0.000
  Name = 
  3 active torsions:
  status: ('A' for Active; 'I' for Inactive)
    1  A    between atoms: C_9  and  C_12
    2  A    between atoms: C_16  and  O_21
    3  A    between atoms: O_21  and  C_40
                            x       y       z     vdW  Elec       q    Type
                         _______ _______ _______ _____ _____    ______ ____

>  <TORSDO>
F 3

$$$$
