=
 OpenBabel11072411433D

 49 53  0  0  1  0  0  0  0  0999 V2000
  161.9360  214.4530  149.4960 C   0  0  0  0  0  2  0  0  0  0  0  0
  159.8310  212.3650  149.5600 C   0  0  0  0  0  2  0  0  0  0  0  0
  162.0290  214.0970  147.0980 C   0  0  0  0  0  3  0  0  0  0  0  0
  160.3750  213.0210  150.8270 C   0  0  1  0  0  3  0  0  0  0  0  0
  161.5650  213.6610  148.2750 C   0  0  0  0  0  0  0  0  0  0  0  0
  160.8920  212.3220  148.4530 C   0  0  1  0  0  3  0  0  0  0  0  0
  160.7950  214.4530  150.5050 C   0  0  0  0  0  2  0  0  0  0  0  0
  161.4950  209.2910  153.3800 C   0  0  2  0  0  3  0  0  0  0  0  0
  159.7070  211.0960  154.4700 C   0  0  2  0  0  3  0  0  0  0  0  0
  160.9390  209.0700  154.8020 C   0  0  1  0  0  3  0  0  0  0  0  0
  162.5860  210.1580  153.4260 O   0  0  0  0  0  1  0  0  0  0  0  0
  159.8940  213.3000  153.7830 C   0  0  1  0  0  3  0  0  0  0  0  0
  159.2490  210.4190  153.1600 C   0  0  1  0  0  3  0  0  0  0  0  0
  158.4040  211.3260  152.2730 C   0  0  0  0  0  2  0  0  0  0  0  0
  160.6020  212.1670  154.2370 O   0  0  0  0  0  0  0  0  0  0  0  0
  160.4410  209.8310  152.4140 C   0  0  0  0  0  2  0  0  0  0  0  0
  159.1210  212.9970  152.1580 P   0  0  2  0  0  4  0  0  0  0  0  0
  160.2880  210.1900  155.4000 O   0  0  0  0  0  0  0  0  0  0  0  0
  160.0950  207.9550  154.8270 O   0  0  0  0  0  0  0  0  0  0  0  0
  160.8040  206.9600  154.1500 C   0  0  0  0  0  1  0  0  0  0  0  0
  156.7790  213.6910  152.5690 C   0  0  0  0  0  1  0  0  0  0  0  0
  157.9060  214.1540  151.8930 O   0  0  0  0  0  0  0  0  0  0  0  0
  158.8930  213.8390  154.8090 C   0  0  0  0  0  2  0  0  0  0  0  0
  159.8800  213.3910  156.9410 O   0  0  0  0  0  1  0  0  0  0  0  0
  159.6160  214.4050  156.0200 C   0  0  0  0  0  2  0  0  0  0  0  0
  163.0090  213.4950  144.9210 C   0  0  0  0  0  3  0  0  0  0  0  0
  160.7150  212.8530  145.3240 C   0  0  0  0  0  3  0  0  0  0  0  0
  161.8970  213.4650  145.7690 C   0  0  0  0  0  0  0  0  0  0  0  0
  161.7740  212.3040  143.2100 C   0  0  0  0  0  0  0  0  0  0  0  0
  162.9510  212.9140  143.6510 C   0  0  0  0  0  3  0  0  0  0  0  0
  160.6540  212.2740  144.0520 C   0  0  0  0  0  3  0  0  0  0  0  0
  161.7370  211.7160  141.9070 N   0  0  0  0  0  2  0  0  0  0  0  0
  162.4980  212.2270  140.8470 N   0  0  0  0  0  2  0  0  0  0  0  0
  162.3180  211.3270  139.7270 C   0  0  0  0  0  1  0  0  0  0  0  0
  161.8680  211.3270  148.7310 O   0  0  0  0  0  0  0  0  0  0  0  0
  161.6650  209.9800  148.4200 C   0  0  0  0  0  0  0  0  0  0  0  0
  161.0110  209.6460  147.3950 O   0  0  0  0  0  0  0  0  0  0  0  0
  162.2200  208.9210  149.3070 C   0  0  0  0  0  2  0  0  0  0  0  0
  162.2380  207.5900  148.5750 C   0  0  0  0  0  2  0  0  0  0  0  0
  160.8400  206.9830  148.5070 C   0  0  2  0  0  3  0  0  0  0  0  0
  160.3530  206.5660  149.8930 C   0  0  0  0  0  1  0  0  0  0  0  0
  161.8800  204.7570  147.8640 C   0  0  1  0  0  3  0  0  0  0  0  0
  160.9600  206.2910  146.0600 C   0  0  0  0  0  2  0  0  0  0  0  0
  161.6680  203.5380  146.9780 C   0  0  0  0  0  2  0  0  0  0  0  0
  161.1100  205.3760  143.8630 O   0  0  0  0  0  0  0  0  0  0  0  0
  160.8260  205.8130  147.5150 C   0  0  2  0  0  3  0  0  0  0  0  0
  161.7580  204.3750  149.1870 F   0  0  0  0  0  0  0  0  0  0  0  0
  161.7160  203.9100  145.5680 N   0  0  0  0  0  2  0  0  0  0  0  0
  161.2300  205.1710  145.1010 C   0  0  0  0  0  0  0  0  0  0  0  0
  1  7  1  0  0  0  0
  3  5  2  0  0  0  0
  4  2  1  6  0  0  0
  4 17  1  0  0  0  0
  5  6  1  0  0  0  0
  5  1  1  0  0  0  0
  6 35  1  1  0  0  0
  6  2  1  0  0  0  0
  7  4  1  0  0  0  0
  8 11  1  1  0  0  0
  8 10  1  0  0  0  0
  9 15  1  6  0  0  0
  9 18  1  0  0  0  0
 10 19  1  6  0  0  0
 10 18  1  0  0  0  0
 12 15  1  0  0  0  0
 12 23  1  1  0  0  0
 13 14  1  6  0  0  0
 13  9  1  0  0  0  0
 16 13  1  0  0  0  0
 16  8  1  0  0  0  0
 17 22  1  6  0  0  0
 17 14  1  0  0  0  0
 17 12  1  0  0  0  0
 20 19  1  0  0  0  0
 22 21  1  0  0  0  0
 23 25  1  0  0  0  0
 25 24  1  0  0  0  0
 26 28  1  0  0  0  0
 27 28  2  0  0  0  0
 28  3  1  0  0  0  0
 29 30  1  0  0  0  0
 29 31  2  0  0  0  0
 30 26  2  0  0  0  0
 31 27  1  0  0  0  0
 32 29  1  0  0  0  0
 33 32  1  0  0  0  0
 34 33  1  0  0  0  0
 36 35  1  0  0  0  0
 36 38  1  0  0  0  0
 37 36  2  0  0  0  0
 39 38  1  0  0  0  0
 40 39  1  0  0  0  0
 40 41  1  1  0  0  0
 42 47  1  1  0  0  0
 43 46  1  0  0  0  0
 44 42  1  0  0  0  0
 45 49  2  0  0  0  0
 46 42  1  0  0  0  0
 46 40  1  1  0  0  0
 48 44  1  0  0  0  0
 49 48  1  0  0  0  0
 49 43  1  0  0  0  0
M  END
>  <MODEL>
1

>  <REMARK>
 VINA RESULT:      -4.2      0.000      0.000
  Name = 
  14 active torsions:
  status: ('A' for Active; 'I' for Inactive)
    1  A    between atoms: C_4  and  C_10
    2  A    between atoms: C_4  and  C_20
    3  A    between atoms: C_5  and  C_22
    4  A    between atoms: C_5  and  C_44
    5  A    between atoms: O_7  and  C_16
    6  A    between atoms: C_10  and  O_46
    7  A    between atoms: N_11  and  N_14
    8  A    between atoms: N_11  and  C_28
    9  A    between atoms: C_13  and  C_20
   10  A    between atoms: C_13  and  C_30
   11  A    between atoms: C_27  and  C_29
   12  A    between atoms: C_32  and  P_41
   13  A    between atoms: P_41  and  O_42
   14  A    between atoms: C_43  and  O_46
                            x       y       z     vdW  Elec       q    Type
                         _______ _______ _______ _____ _____    ______ ____

>  <TORSDO>
F 14

$$$$
=
 OpenBabel11072411433D

 49 53  0  0  1  0  0  0  0  0999 V2000
  161.6350  214.4510  149.8060 C   0  0  0  0  0  2  0  0  0  0  0  0
  159.7370  212.1760  149.6620 C   0  0  0  0  0  2  0  0  0  0  0  0
  161.9080  214.2020  147.4090 C   0  0  0  0  0  3  0  0  0  0  0  0
  160.1380  212.8270  150.9830 C   0  0  1  0  0  3  0  0  0  0  0  0
  161.4160  213.6780  148.5380 C   0  0  0  0  0  0  0  0  0  0  0  0
  160.8640  212.2770  148.6250 C   0  0  1  0  0  3  0  0  0  0  0  0
  160.4390  214.3040  150.7390 C   0  0  0  0  0  2  0  0  0  0  0  0
  161.9790  209.9750  154.1710 C   0  0  2  0  0  3  0  0  0  0  0  0
  159.6650  211.3270  154.8500 C   0  0  2  0  0  3  0  0  0  0  0  0
  161.3660  209.8070  155.5760 C   0  0  1  0  0  3  0  0  0  0  0  0
  162.7800  211.1150  154.1340 O   0  0  0  0  0  1  0  0  0  0  0  0
  159.3070  213.3720  153.8220 C   0  0  1  0  0  3  0  0  0  0  0  0
  159.5430  210.3690  153.6450 C   0  0  1  0  0  3  0  0  0  0  0  0
  158.5740  210.8610  152.5760 C   0  0  0  0  0  2  0  0  0  0  0  0
  160.2510  212.5650  154.4940 O   0  0  0  0  0  0  0  0  0  0  0  0
  160.9180  210.0480  153.0720 C   0  0  0  0  0  2  0  0  0  0  0  0
  158.8130  212.6340  152.2280 P   0  0  2  0  0  4  0  0  0  0  0  0
  160.3770  210.7670  155.9460 O   0  0  0  0  0  0  0  0  0  0  0  0
  160.8620  208.5130  155.7370 O   0  0  0  0  0  0  0  0  0  0  0  0
  160.2710  208.5170  157.0030 C   0  0  0  0  0  1  0  0  0  0  0  0
  157.7240  214.4520  150.9480 C   0  0  0  0  0  1  0  0  0  0  0  0
  157.3600  213.3440  151.7110 O   0  0  0  0  0  0  0  0  0  0  0  0
  158.1000  213.7410  154.6890 C   0  0  0  0  0  2  0  0  0  0  0  0
  156.3090  212.7210  155.9040 O   0  0  0  0  0  1  0  0  0  0  0  0
  157.1320  212.5750  154.7860 C   0  0  0  0  0  2  0  0  0  0  0  0
  163.0620  213.8040  145.2700 C   0  0  0  0  0  3  0  0  0  0  0  0
  160.8380  212.8940  145.5200 C   0  0  0  0  0  3  0  0  0  0  0  0
  161.9170  213.6150  146.0520 C   0  0  0  0  0  0  0  0  0  0  0  0
  162.0610  212.5550  143.4520 C   0  0  0  0  0  0  0  0  0  0  0  0
  163.1370  213.2740  143.9790 C   0  0  0  0  0  3  0  0  0  0  0  0
  160.9090  212.3650  144.2270 C   0  0  0  0  0  3  0  0  0  0  0  0
  162.1590  212.0210  142.1290 N   0  0  0  0  0  2  0  0  0  0  0  0
  161.5630  212.6590  141.0320 N   0  0  0  0  0  2  0  0  0  0  0  0
  162.4750  212.5180  139.9160 C   0  0  0  0  0  1  0  0  0  0  0  0
  161.9110  211.3660  148.9310 O   0  0  0  0  0  0  0  0  0  0  0  0
  161.7660  209.9860  148.7650 C   0  0  0  0  0  0  0  0  0  0  0  0
  161.5410  209.4920  147.6270 O   0  0  0  0  0  0  0  0  0  0  0  0
  161.8750  209.0810  149.9420 C   0  0  0  0  0  2  0  0  0  0  0  0
  161.8510  207.6320  149.4850 C   0  0  0  0  0  2  0  0  0  0  0  0
  161.5320  206.6960  150.6470 C   0  0  2  0  0  3  0  0  0  0  0  0
  162.4350  206.9790  151.8460 C   0  0  0  0  0  1  0  0  0  0  0  0
  160.8260  204.9910  148.9030 C   0  0  1  0  0  3  0  0  0  0  0  0
  161.2370  204.2530  151.2990 C   0  0  0  0  0  2  0  0  0  0  0  0
  161.1380  203.5930  148.3880 C   0  0  0  0  0  2  0  0  0  0  0  0
  160.9820  201.9050  151.6310 O   0  0  0  0  0  0  0  0  0  0  0  0
  161.6290  205.2370  150.1850 C   0  0  2  0  0  3  0  0  0  0  0  0
  161.1730  205.9120  147.9330 F   0  0  0  0  0  0  0  0  0  0  0  0
  160.8530  202.5910  149.4080 N   0  0  0  0  0  2  0  0  0  0  0  0
  161.0520  202.8510  150.8010 C   0  0  0  0  0  0  0  0  0  0  0  0
  1  7  1  0  0  0  0
  3  5  2  0  0  0  0
  4  2  1  6  0  0  0
  4 17  1  0  0  0  0
  5  6  1  0  0  0  0
  5  1  1  0  0  0  0
  6 35  1  1  0  0  0
  6  2  1  0  0  0  0
  7  4  1  0  0  0  0
  8 11  1  1  0  0  0
  8 10  1  0  0  0  0
  9 15  1  6  0  0  0
  9 18  1  0  0  0  0
 10 19  1  6  0  0  0
 10 18  1  0  0  0  0
 12 15  1  0  0  0  0
 12 23  1  1  0  0  0
 13 14  1  6  0  0  0
 13  9  1  0  0  0  0
 16 13  1  0  0  0  0
 16  8  1  0  0  0  0
 17 22  1  6  0  0  0
 17 14  1  0  0  0  0
 17 12  1  0  0  0  0
 19 20  1  0  0  0  0
 21 22  1  0  0  0  0
 23 25  1  0  0  0  0
 25 24  1  0  0  0  0
 26 28  1  0  0  0  0
 27 28  2  0  0  0  0
 28  3  1  0  0  0  0
 29 30  1  0  0  0  0
 29 31  2  0  0  0  0
 30 26  2  0  0  0  0
 31 27  1  0  0  0  0
 32 29  1  0  0  0  0
 33 32  1  0  0  0  0
 34 33  1  0  0  0  0
 36 35  1  0  0  0  0
 36 38  1  0  0  0  0
 37 36  2  0  0  0  0
 39 38  1  0  0  0  0
 39 40  1  0  0  0  0
 40 41  1  1  0  0  0
 42 47  1  6  0  0  0
 42 46  1  0  0  0  0
 44 42  1  0  0  0  0
 44 48  1  0  0  0  0
 46 40  1  1  0  0  0
 46 43  1  0  0  0  0
 48 49  1  0  0  0  0
 49 43  1  0  0  0  0
 49 45  2  0  0  0  0
M  END
>  <MODEL>
2

>  <REMARK>
 VINA RESULT:      -2.9      1.773      2.246
  Name = 
  14 active torsions:
  status: ('A' for Active; 'I' for Inactive)
    1  A    between atoms: C_4  and  C_10
    2  A    between atoms: C_4  and  C_20
    3  A    between atoms: C_5  and  C_22
    4  A    between atoms: C_5  and  C_44
    5  A    between atoms: O_7  and  C_16
    6  A    between atoms: C_10  and  O_46
    7  A    between atoms: N_11  and  N_14
    8  A    between atoms: N_11  and  C_28
    9  A    between atoms: C_13  and  C_20
   10  A    between atoms: C_13  and  C_30
   11  A    between atoms: C_27  and  C_29
   12  A    between atoms: C_32  and  P_41
   13  A    between atoms: P_41  and  O_42
   14  A    between atoms: C_43  and  O_46
                            x       y       z     vdW  Elec       q    Type
                         _______ _______ _______ _____ _____    ______ ____

>  <TORSDO>
F 14

$$$$
=
 OpenBabel11072411433D

 49 53  0  0  1  0  0  0  0  0999 V2000
  162.5390  210.0250  153.5220 C   0  0  0  0  0  2  0  0  0  0  0  0
  160.4110  209.7040  151.4820 C   0  0  0  0  0  2  0  0  0  0  0  0
  160.7960  210.7820  155.0290 C   0  0  0  0  0  3  0  0  0  0  0  0
  161.8870  209.4660  151.1720 C   0  0  1  0  0  3  0  0  0  0  0  0
  161.1270  210.4700  153.7700 C   0  0  0  0  0  0  0  0  0  0  0  0
  160.2340  210.7530  152.5880 C   0  0  1  0  0  3  0  0  0  0  0  0
  162.5840  208.9600  152.4330 C   0  0  0  0  0  2  0  0  0  0  0  0
  161.2070  205.3220  153.1860 C   0  0  2  0  0  3  0  0  0  0  0  0
  161.1610  205.4240  150.4230 C   0  0  2  0  0  3  0  0  0  0  0  0
  160.9200  204.0470  152.3660 C   0  0  1  0  0  3  0  0  0  0  0  0
  160.0320  206.0530  153.3530 O   0  0  0  0  0  1  0  0  0  0  0  0
  160.4950  207.4220  149.4590 C   0  0  1  0  0  3  0  0  0  0  0  0
  162.4940  205.8460  151.0790 C   0  0  1  0  0  3  0  0  0  0  0  0
  163.2220  206.9480  150.3180 C   0  0  0  0  0  2  0  0  0  0  0  0
  160.1990  206.4600  150.4490 O   0  0  0  0  0  0  0  0  0  0  0  0
  162.2820  206.2020  152.5460 C   0  0  0  0  0  2  0  0  0  0  0  0
  162.0760  208.2680  149.8030 P   0  0  2  0  0  4  0  0  0  0  0  0
  160.6020  204.2460  150.9890 O   0  0  0  0  0  0  0  0  0  0  0  0
  161.9790  203.1420  152.4880 O   0  0  0  0  0  0  0  0  0  0  0  0
  161.6510  202.0950  151.6210 C   0  0  0  0  0  1  0  0  0  0  0  0
  162.2380  210.3560  148.4820 C   0  0  0  0  0  1  0  0  0  0  0  0
  162.6270  209.0210  148.3850 O   0  0  0  0  0  0  0  0  0  0  0  0
  160.4360  206.8630  148.0340 C   0  0  0  0  0  2  0  0  0  0  0  0
  161.9390  205.3170  147.0000 O   0  0  0  0  0  1  0  0  0  0  0  0
  161.8350  206.6170  147.4950 C   0  0  0  0  0  2  0  0  0  0  0  0
  159.5280  212.6340  156.0440 C   0  0  0  0  0  3  0  0  0  0  0  0
  158.3170  210.6070  155.5290 C   0  0  0  0  0  3  0  0  0  0  0  0
  159.5190  211.3310  155.5330 C   0  0  0  0  0  0  0  0  0  0  0  0
  157.1580  212.4910  156.5280 C   0  0  0  0  0  0  0  0  0  0  0  0
  158.3550  213.2130  156.5340 C   0  0  0  0  0  3  0  0  0  0  0  0
  157.1420  211.1840  156.0220 C   0  0  0  0  0  3  0  0  0  0  0  0
  155.9700  213.1030  157.0350 N   0  0  0  0  0  2  0  0  0  0  0  0
  155.1500  213.9010  156.2250 N   0  0  0  0  0  2  0  0  0  0  0  0
  153.9990  214.2680  157.0230 C   0  0  0  0  0  1  0  0  0  0  0  0
  160.4970  212.0580  152.0890 O   0  0  0  0  0  0  0  0  0  0  0  0
  159.4710  212.9460  151.7560 C   0  0  0  0  0  0  0  0  0  0  0  0
  158.2630  212.6380  151.9460 O   0  0  0  0  0  0  0  0  0  0  0  0
  159.8000  214.2720  151.1650 C   0  0  0  0  0  2  0  0  0  0  0  0
  159.1820  214.3890  149.7810 C   0  0  0  0  0  2  0  0  0  0  0  0
  160.0040  213.6240  148.7480 C   0  0  2  0  0  3  0  0  0  0  0  0
  161.4670  214.0590  148.7760 C   0  0  0  0  0  1  0  0  0  0  0  0
  158.3550  212.6920  147.0570 C   0  0  1  0  0  3  0  0  0  0  0  0
  160.4480  213.8880  146.2550 C   0  0  0  0  0  2  0  0  0  0  0  0
  157.6270  213.0380  145.7660 C   0  0  0  0  0  2  0  0  0  0  0  0
  160.5850  214.0830  143.8820 O   0  0  0  0  0  0  0  0  0  0  0  0
  159.3800  213.7900  147.3570 C   0  0  2  0  0  3  0  0  0  0  0  0
  157.4300  212.6040  148.0810 F   0  0  0  0  0  0  0  0  0  0  0  0
  158.5730  213.2120  144.6700 N   0  0  0  0  0  2  0  0  0  0  0  0
  159.8740  213.7690  144.8750 C   0  0  0  0  0  0  0  0  0  0  0  0
  1  5  1  0  0  0  0
  2  6  1  0  0  0  0
  3 28  1  0  0  0  0
  4  2  1  1  0  0  0
  4  7  1  0  0  0  0
  5  3  2  0  0  0  0
  6 35  1  6  0  0  0
  6  5  1  0  0  0  0
  7  1  1  0  0  0  0
  8 11  1  6  0  0  0
  9 15  1  1  0  0  0
  9 18  1  0  0  0  0
  9 13  1  0  0  0  0
 10 19  1  6  0  0  0
 10  8  1  0  0  0  0
 12 23  1  6  0  0  0
 12 17  1  0  0  0  0
 12 15  1  0  0  0  0
 13 14  1  6  0  0  0
 13 16  1  0  0  0  0
 16  8  1  0  0  0  0
 17 22  1  6  0  0  0
 17 14  1  0  0  0  0
 17  4  1  0  0  0  0
 18 10  1  0  0  0  0
 20 19  1  0  0  0  0
 22 21  1  0  0  0  0
 24 25  1  0  0  0  0
 25 23  1  0  0  0  0
 26 30  1  0  0  0  0
 27 28  1  0  0  0  0
 27 31  2  0  0  0  0
 28 26  2  0  0  0  0
 29 30  2  0  0  0  0
 29 32  1  0  0  0  0
 31 29  1  0  0  0  0
 33 34  1  0  0  0  0
 33 32  1  0  0  0  0
 36 37  2  0  0  0  0
 36 35  1  0  0  0  0
 38 36  1  0  0  0  0
 39 38  1  0  0  0  0
 40 41  1  6  0  0  0
 40 39  1  0  0  0  0
 42 46  1  0  0  0  0
 42 47  1  1  0  0  0
 43 46  1  0  0  0  0
 44 42  1  0  0  0  0
 45 49  2  0  0  0  0
 46 40  1  1  0  0  0
 48 49  1  0  0  0  0
 48 44  1  0  0  0  0
 49 43  1  0  0  0  0
M  END
>  <MODEL>
3

>  <REMARK>
 VINA RESULT:      -2.7      4.405      9.018
  Name = 
  14 active torsions:
  status: ('A' for Active; 'I' for Inactive)
    1  A    between atoms: C_4  and  C_10
    2  A    between atoms: C_4  and  C_20
    3  A    between atoms: C_5  and  C_22
    4  A    between atoms: C_5  and  C_44
    5  A    between atoms: O_7  and  C_16
    6  A    between atoms: C_10  and  O_46
    7  A    between atoms: N_11  and  N_14
    8  A    between atoms: N_11  and  C_28
    9  A    between atoms: C_13  and  C_20
   10  A    between atoms: C_13  and  C_30
   11  A    between atoms: C_27  and  C_29
   12  A    between atoms: C_32  and  P_41
   13  A    between atoms: P_41  and  O_42
   14  A    between atoms: C_43  and  O_46
                            x       y       z     vdW  Elec       q    Type
                         _______ _______ _______ _____ _____    ______ ____

>  <TORSDO>
F 14

$$$$
=
 OpenBabel11072411433D

 49 53  0  0  1  0  0  0  0  0999 V2000
  161.9670  205.4840  153.1400 C   0  0  0  0  0  2  0  0  0  0  0  0
  160.5060  206.1800  150.6550 C   0  0  0  0  0  2  0  0  0  0  0  0
  161.2350  207.6260  154.0120 C   0  0  0  0  0  3  0  0  0  0  0  0
  161.3360  204.9060  150.7890 C   0  0  1  0  0  3  0  0  0  0  0  0
  161.3390  206.8330  152.9390 C   0  0  0  0  0  0  0  0  0  0  0  0
  161.0660  207.3070  151.5340 C   0  0  1  0  0  3  0  0  0  0  0  0
  161.3070  204.4440  152.2440 C   0  0  0  0  0  2  0  0  0  0  0  0
  162.1260  206.5570  146.5060 C   0  0  2  0  0  3  0  0  0  0  0  0
  161.4760  203.8800  146.7450 C   0  0  2  0  0  3  0  0  0  0  0  0
  162.0770  205.6550  145.2560 C   0  0  1  0  0  3  0  0  0  0  0  0
  163.3660  206.4370  147.1320 O   0  0  0  0  0  1  0  0  0  0  0  0
  162.0540  202.8350  148.7290 C   0  0  1  0  0  3  0  0  0  0  0  0
  160.3980  204.8700  147.2390 C   0  0  1  0  0  3  0  0  0  0  0  0
  159.6040  204.3540  148.4340 C   0  0  0  0  0  2  0  0  0  0  0  0
  162.5030  203.6860  147.6980 O   0  0  0  0  0  0  0  0  0  0  0  0
  161.0080  206.2410  147.5020 C   0  0  0  0  0  2  0  0  0  0  0  0
  160.6970  203.5990  149.6810 P   0  0  2  0  0  4  0  0  0  0  0  0
  162.0520  204.2490  145.4980 O   0  0  0  0  0  0  0  0  0  0  0  0
  161.0070  206.0200  144.4340 O   0  0  0  0  0  0  0  0  0  0  0  0
  161.3870  205.6080  143.1540 C   0  0  0  0  0  1  0  0  0  0  0  0
  160.8200  201.4110  150.8350 C   0  0  0  0  0  1  0  0  0  0  0  0
  159.8740  202.3920  150.5470 O   0  0  0  0  0  0  0  0  0  0  0  0
  161.6980  201.4270  148.2410 C   0  0  0  0  0  2  0  0  0  0  0  0
  161.1560  200.4370  146.1320 O   0  0  0  0  0  1  0  0  0  0  0  0
  160.8430  201.4940  146.9870 C   0  0  0  0  0  2  0  0  0  0  0  0
  161.1760  209.8060  155.1560 C   0  0  0  0  0  3  0  0  0  0  0  0
  159.8840  209.5790  153.1270 C   0  0  0  0  0  3  0  0  0  0  0  0
  160.7500  209.0200  154.0800 C   0  0  0  0  0  0  0  0  0  0  0  0
  159.8960  211.6880  154.3280 C   0  0  0  0  0  0  0  0  0  0  0  0
  160.7560  211.1330  155.2790 C   0  0  0  0  0  3  0  0  0  0  0  0
  159.4600  210.9060  153.2500 C   0  0  0  0  0  3  0  0  0  0  0  0
  159.4780  213.0480  154.4730 N   0  0  0  0  0  2  0  0  0  0  0  0
  158.1540  213.4400  154.2350 N   0  0  0  0  0  2  0  0  0  0  0  0
  157.3520  212.8900  155.3080 C   0  0  0  0  0  1  0  0  0  0  0  0
  162.2550  207.8410  150.9670 O   0  0  0  0  0  0  0  0  0  0  0  0
  162.3980  209.2030  150.6880 C   0  0  0  0  0  0  0  0  0  0  0  0
  162.8110  210.0030  151.5720 O   0  0  0  0  0  0  0  0  0  0  0  0
  162.0580  209.7240  149.3360 C   0  0  0  0  0  2  0  0  0  0  0  0
  161.9770  211.2410  149.3710 C   0  0  0  0  0  2  0  0  0  0  0  0
  162.2260  211.8360  147.9890 C   0  0  2  0  0  3  0  0  0  0  0  0
  163.5770  212.5440  147.9290 C   0  0  0  0  0  1  0  0  0  0  0  0
  160.3640  213.3390  148.8380 C   0  0  1  0  0  3  0  0  0  0  0  0
  160.0760  212.0860  146.6470 C   0  0  0  0  0  2  0  0  0  0  0  0
  159.3800  214.4100  148.3900 C   0  0  0  0  0  2  0  0  0  0  0  0
  158.0180  212.5600  145.5410 O   0  0  0  0  0  0  0  0  0  0  0  0
  161.0690  212.7660  147.6040 C   0  0  2  0  0  3  0  0  0  0  0  0
  161.2850  213.9110  149.6960 F   0  0  0  0  0  0  0  0  0  0  0  0
  158.4300  213.8660  147.4250 N   0  0  0  0  0  2  0  0  0  0  0  0
  158.8050  212.8620  146.4780 C   0  0  0  0  0  0  0  0  0  0  0  0
  2  6  1  0  0  0  0
  3 28  1  0  0  0  0
  4  2  1  1  0  0  0
  4  7  1  0  0  0  0
  5  1  1  0  0  0  0
  5  3  2  0  0  0  0
  6 35  1  6  0  0  0
  6  5  1  0  0  0  0
  7  1  1  0  0  0  0
  8 11  1  1  0  0  0
  8 16  1  0  0  0  0
  9 18  1  6  0  0  0
  9 13  1  0  0  0  0
  9 15  1  0  0  0  0
 10 19  1  1  0  0  0
 10 18  1  0  0  0  0
 10  8  1  0  0  0  0
 12 23  1  6  0  0  0
 12 17  1  0  0  0  0
 13 16  1  1  0  0  0
 13 14  1  0  0  0  0
 14 17  1  0  0  0  0
 15 12  1  0  0  0  0
 17 22  1  1  0  0  0
 17  4  1  0  0  0  0
 20 19  1  0  0  0  0
 22 21  1  0  0  0  0
 24 25  1  0  0  0  0
 25 23  1  0  0  0  0
 26 30  1  0  0  0  0
 27 31  2  0  0  0  0
 27 28  1  0  0  0  0
 28 26  2  0  0  0  0
 29 32  1  0  0  0  0
 29 30  2  0  0  0  0
 31 29  1  0  0  0  0
 33 32  1  0  0  0  0
 33 34  1  0  0  0  0
 36 35  1  0  0  0  0
 36 37  2  0  0  0  0
 38 39  1  0  0  0  0
 38 36  1  0  0  0  0
 40 41  1  1  0  0  0
 40 39  1  0  0  0  0
 42 47  1  1  0  0  0
 43 46  1  0  0  0  0
 44 42  1  0  0  0  0
 45 49  2  0  0  0  0
 46 40  1  1  0  0  0
 46 42  1  0  0  0  0
 48 44  1  0  0  0  0
 49 43  1  0  0  0  0
 49 48  1  0  0  0  0
M  END
>  <MODEL>
4

>  <REMARK>
 VINA RESULT:      -2.3      4.123      9.908
  Name = 
  14 active torsions:
  status: ('A' for Active; 'I' for Inactive)
    1  A    between atoms: C_4  and  C_10
    2  A    between atoms: C_4  and  C_20
    3  A    between atoms: C_5  and  C_22
    4  A    between atoms: C_5  and  C_44
    5  A    between atoms: O_7  and  C_16
    6  A    between atoms: C_10  and  O_46
    7  A    between atoms: N_11  and  N_14
    8  A    between atoms: N_11  and  C_28
    9  A    between atoms: C_13  and  C_20
   10  A    between atoms: C_13  and  C_30
   11  A    between atoms: C_27  and  C_29
   12  A    between atoms: C_32  and  P_41
   13  A    between atoms: P_41  and  O_42
   14  A    between atoms: C_43  and  O_46
                            x       y       z     vdW  Elec       q    Type
                         _______ _______ _______ _____ _____    ______ ____

>  <TORSDO>
F 14

$$$$
=
 OpenBabel11072411433D

 49 53  0  0  1  0  0  0  0  0999 V2000
  162.3550  205.2890  152.6880 C   0  0  0  0  0  2  0  0  0  0  0  0
  160.4880  205.7250  150.4250 C   0  0  0  0  0  2  0  0  0  0  0  0
  161.5760  207.4120  153.5660 C   0  0  0  0  0  3  0  0  0  0  0  0
  161.4360  204.5300  150.4880 C   0  0  1  0  0  3  0  0  0  0  0  0
  161.5890  206.5700  152.5260 C   0  0  0  0  0  0  0  0  0  0  0  0
  161.0720  206.9410  151.1580 C   0  0  1  0  0  3  0  0  0  0  0  0
  161.6620  204.1500  151.9490 C   0  0  0  0  0  2  0  0  0  0  0  0
  162.2680  205.6150  146.0360 C   0  0  2  0  0  3  0  0  0  0  0  0
  161.5390  203.0090  146.6020 C   0  0  2  0  0  3  0  0  0  0  0  0
  162.1910  204.5680  144.9060 C   0  0  1  0  0  3  0  0  0  0  0  0
  163.5050  205.5370  146.6740 O   0  0  0  0  0  1  0  0  0  0  0  0
  162.0890  202.2000  148.7010 C   0  0  1  0  0  3  0  0  0  0  0  0
  160.4920  204.0840  146.9680 C   0  0  1  0  0  3  0  0  0  0  0  0
  159.6850  203.7430  148.2160 C   0  0  0  0  0  2  0  0  0  0  0  0
  162.5620  202.9040  147.5730 O   0  0  0  0  0  0  0  0  0  0  0  0
  161.1430  205.4580  147.0600 C   0  0  0  0  0  2  0  0  0  0  0  0
  160.7570  203.1160  149.5490 P   0  0  2  0  0  4  0  0  0  0  0  0
  162.1240  203.2040  145.3200 O   0  0  0  0  0  0  0  0  0  0  0  0
  161.1300  204.8600  144.0430 O   0  0  0  0  0  0  0  0  0  0  0  0
  161.5730  205.9550  143.2960 C   0  0  0  0  0  1  0  0  0  0  0  0
  158.9850  201.3950  149.7330 C   0  0  0  0  0  1  0  0  0  0  0  0
  159.9000  202.0500  150.5560 O   0  0  0  0  0  0  0  0  0  0  0  0
  161.6910  200.7540  148.3900 C   0  0  0  0  0  2  0  0  0  0  0  0
  161.5910  199.3970  146.4230 O   0  0  0  0  0  1  0  0  0  0  0  0
  161.2070  200.6280  146.9560 C   0  0  0  0  0  2  0  0  0  0  0  0
  160.2270  209.0790  154.7770 C   0  0  0  0  0  3  0  0  0  0  0  0
  161.1480  209.7320  152.6400 C   0  0  0  0  0  3  0  0  0  0  0  0
  160.9870  208.7650  153.6440 C   0  0  0  0  0  0  0  0  0  0  0  0
  159.8070  211.3030  153.9140 C   0  0  0  0  0  0  0  0  0  0  0  0
  159.6440  210.3410  154.9140 C   0  0  0  0  0  3  0  0  0  0  0  0
  160.5620  210.9950  152.7740 C   0  0  0  0  0  3  0  0  0  0  0  0
  159.2010  212.5880  154.0750 N   0  0  0  0  0  2  0  0  0  0  0  0
  158.0110  212.9290  153.4180 N   0  0  0  0  0  2  0  0  0  0  0  0
  156.9220  212.5340  154.2870 C   0  0  0  0  0  1  0  0  0  0  0  0
  162.1140  207.5340  150.3950 O   0  0  0  0  0  0  0  0  0  0  0  0
  161.8560  208.4600  149.3800 C   0  0  0  0  0  0  0  0  0  0  0  0
  161.4010  208.0850  148.2650 O   0  0  0  0  0  0  0  0  0  0  0  0
  162.1240  209.9060  149.6090 C   0  0  0  0  0  2  0  0  0  0  0  0
  161.9290  210.6790  148.3140 C   0  0  0  0  0  2  0  0  0  0  0  0
  161.9490  212.1840  148.5660 C   0  0  2  0  0  3  0  0  0  0  0  0
  160.9790  212.5680  149.6810 C   0  0  0  0  0  1  0  0  0  0  0  0
  160.4160  212.3850  146.5520 C   0  0  1  0  0  3  0  0  0  0  0  0
  162.8790  212.9660  146.3290 C   0  0  0  0  0  2  0  0  0  0  0  0
  160.0630  213.3060  145.3930 C   0  0  0  0  0  2  0  0  0  0  0  0
  163.4790  213.7580  144.1610 O   0  0  0  0  0  0  0  0  0  0  0  0
  161.6570  212.9360  147.2630 C   0  0  2  0  0  3  0  0  0  0  0  0
  159.3450  212.3360  147.4250 F   0  0  0  0  0  0  0  0  0  0  0  0
  161.1930  213.4450  144.4820 N   0  0  0  0  0  2  0  0  0  0  0  0
  162.5460  213.4420  144.9470 C   0  0  0  0  0  0  0  0  0  0  0  0
  2  6  1  0  0  0  0
  3 28  1  0  0  0  0
  4  2  1  1  0  0  0
  4  7  1  0  0  0  0
  5  1  1  0  0  0  0
  5  3  2  0  0  0  0
  6 35  1  6  0  0  0
  6  5  1  0  0  0  0
  7  1  1  0  0  0  0
  8 11  1  1  0  0  0
  8 16  1  0  0  0  0
  9 18  1  6  0  0  0
  9 13  1  0  0  0  0
  9 15  1  0  0  0  0
 10 19  1  1  0  0  0
 10 18  1  0  0  0  0
 10  8  1  0  0  0  0
 12 23  1  6  0  0  0
 12 17  1  0  0  0  0
 13 16  1  1  0  0  0
 13 14  1  0  0  0  0
 14 17  1  0  0  0  0
 15 12  1  0  0  0  0
 17  4  1  0  0  0  0
 17 22  1  1  0  0  0
 20 19  1  0  0  0  0
 21 22  1  0  0  0  0
 24 25  1  0  0  0  0
 25 23  1  0  0  0  0
 26 30  1  0  0  0  0
 27 31  2  0  0  0  0
 27 28  1  0  0  0  0
 28 26  2  0  0  0  0
 29 32  1  0  0  0  0
 29 30  2  0  0  0  0
 31 29  1  0  0  0  0
 33 32  1  0  0  0  0
 33 34  1  0  0  0  0
 36 38  1  0  0  0  0
 36 35  1  0  0  0  0
 37 36  2  0  0  0  0
 39 40  1  0  0  0  0
 39 38  1  0  0  0  0
 40 41  1  1  0  0  0
 42 46  1  0  0  0  0
 42 47  1  1  0  0  0
 43 46  1  0  0  0  0
 44 42  1  0  0  0  0
 45 49  2  0  0  0  0
 46 40  1  1  0  0  0
 48 49  1  0  0  0  0
 48 44  1  0  0  0  0
 49 43  1  0  0  0  0
M  END
>  <MODEL>
5

>  <REMARK>
 VINA RESULT:      -2.0      4.010      9.982
  Name = 
  14 active torsions:
  status: ('A' for Active; 'I' for Inactive)
    1  A    between atoms: C_4  and  C_10
    2  A    between atoms: C_4  and  C_20
    3  A    between atoms: C_5  and  C_22
    4  A    between atoms: C_5  and  C_44
    5  A    between atoms: O_7  and  C_16
    6  A    between atoms: C_10  and  O_46
    7  A    between atoms: N_11  and  N_14
    8  A    between atoms: N_11  and  C_28
    9  A    between atoms: C_13  and  C_20
   10  A    between atoms: C_13  and  C_30
   11  A    between atoms: C_27  and  C_29
   12  A    between atoms: C_32  and  P_41
   13  A    between atoms: P_41  and  O_42
   14  A    between atoms: C_43  and  O_46
                            x       y       z     vdW  Elec       q    Type
                         _______ _______ _______ _____ _____    ______ ____

>  <TORSDO>
F 14

$$$$
=
 OpenBabel11072411433D

 49 53  0  0  1  0  0  0  0  0999 V2000
  161.9870  206.5370  154.3820 C   0  0  0  0  0  2  0  0  0  0  0  0
  160.2270  207.1000  152.0620 C   0  0  0  0  0  2  0  0  0  0  0  0
  161.1290  208.5850  155.3590 C   0  0  0  0  0  3  0  0  0  0  0  0
  161.1910  205.9170  152.0920 C   0  0  1  0  0  3  0  0  0  0  0  0
  161.2070  207.8160  154.2670 C   0  0  0  0  0  0  0  0  0  0  0  0
  160.7520  208.2710  152.9030 C   0  0  1  0  0  3  0  0  0  0  0  0
  161.3510  205.4420  153.5340 C   0  0  0  0  0  2  0  0  0  0  0  0
  161.8900  207.4710  147.7580 C   0  0  2  0  0  3  0  0  0  0  0  0
  161.3280  204.7830  148.0770 C   0  0  2  0  0  3  0  0  0  0  0  0
  161.8590  206.5340  146.5330 C   0  0  1  0  0  3  0  0  0  0  0  0
  163.1390  207.4070  148.3740 O   0  0  0  0  0  1  0  0  0  0  0  0
  161.9560  203.8120  150.0840 C   0  0  1  0  0  3  0  0  0  0  0  0
  160.2240  205.7520  148.5540 C   0  0  1  0  0  3  0  0  0  0  0  0
  159.4570  205.2450  149.7700 C   0  0  0  0  0  2  0  0  0  0  0  0
  162.3690  204.6480  149.0240 O   0  0  0  0  0  0  0  0  0  0  0  0
  160.7930  207.1490  148.7730 C   0  0  0  0  0  2  0  0  0  0  0  0
  160.5840  204.5600  151.0270 P   0  0  2  0  0  4  0  0  0  0  0  0
  161.8800  205.1350  146.8150 O   0  0  0  0  0  0  0  0  0  0  0  0
  160.7710  206.8420  145.7120 O   0  0  0  0  0  0  0  0  0  0  0  0
  160.7420  205.8170  144.7630 C   0  0  0  0  0  1  0  0  0  0  0  0
  160.8140  202.5010  152.3840 C   0  0  0  0  0  1  0  0  0  0  0  0
  159.8070  203.3530  151.9340 O   0  0  0  0  0  0  0  0  0  0  0  0
  161.6400  202.3810  149.6380 C   0  0  0  0  0  2  0  0  0  0  0  0
  160.7780  201.4790  147.5970 O   0  0  0  0  0  1  0  0  0  0  0  0
  160.5000  202.3710  148.6330 C   0  0  0  0  0  2  0  0  0  0  0  0
  159.1360  210.0290  155.2770 C   0  0  0  0  0  3  0  0  0  0  0  0
  161.2440  211.0720  155.8290 C   0  0  0  0  0  3  0  0  0  0  0  0
  160.5130  209.9210  155.4980 C   0  0  0  0  0  0  0  0  0  0  0  0
  159.2200  212.4080  155.7250 C   0  0  0  0  0  0  0  0  0  0  0  0
  158.4910  211.2630  155.3930 C   0  0  0  0  0  3  0  0  0  0  0  0
  160.6010  212.3100  155.9440 C   0  0  0  0  0  3  0  0  0  0  0  0
  158.5410  213.6610  155.8390 N   0  0  0  0  0  2  0  0  0  0  0  0
  157.5440  213.8730  156.8010 N   0  0  0  0  0  2  0  0  0  0  0  0
  156.2760  213.8710  156.1020 C   0  0  0  0  0  1  0  0  0  0  0  0
  161.8200  208.9290  152.2350 O   0  0  0  0  0  0  0  0  0  0  0  0
  161.6670  210.1900  151.6520 C   0  0  0  0  0  0  0  0  0  0  0  0
  162.2410  210.4730  150.5650 O   0  0  0  0  0  0  0  0  0  0  0  0
  160.8210  211.2180  152.3170 C   0  0  0  0  0  2  0  0  0  0  0  0
  159.8810  211.8500  151.3040 C   0  0  0  0  0  2  0  0  0  0  0  0
  160.0570  213.3640  151.2620 C   0  0  2  0  0  3  0  0  0  0  0  0
  159.0530  214.0620  152.1770 C   0  0  0  0  0  1  0  0  0  0  0  0
  158.6100  213.5160  149.1810 C   0  0  1  0  0  3  0  0  0  0  0  0
  161.1360  213.3640  148.9560 C   0  0  0  0  0  2  0  0  0  0  0  0
  158.5020  214.2190  147.8360 C   0  0  0  0  0  2  0  0  0  0  0  0
  161.9010  213.4750  146.7000 O   0  0  0  0  0  0  0  0  0  0  0  0
  159.9610  213.8620  149.8150 C   0  0  2  0  0  3  0  0  0  0  0  0
  157.5750  213.9420  149.9920 F   0  0  0  0  0  0  0  0  0  0  0  0
  159.6180  213.8530  146.9710 N   0  0  0  0  0  2  0  0  0  0  0  0
  160.9260  213.5970  147.4900 C   0  0  0  0  0  0  0  0  0  0  0  0
  2  6  1  0  0  0  0
  3 28  1  0  0  0  0
  4  2  1  1  0  0  0
  4  7  1  0  0  0  0
  5  1  1  0  0  0  0
  5  3  2  0  0  0  0
  6 35  1  6  0  0  0
  6  5  1  0  0  0  0
  7  1  1  0  0  0  0
  8 11  1  1  0  0  0
  8 16  1  0  0  0  0
  9 18  1  6  0  0  0
  9 13  1  0  0  0  0
  9 15  1  0  0  0  0
 10 19  1  1  0  0  0
 10 18  1  0  0  0  0
 10  8  1  0  0  0  0
 12 23  1  6  0  0  0
 12 17  1  0  0  0  0
 13 16  1  1  0  0  0
 13 14  1  0  0  0  0
 14 17  1  0  0  0  0
 15 12  1  0  0  0  0
 17 22  1  1  0  0  0
 17  4  1  0  0  0  0
 20 19  1  0  0  0  0
 22 21  1  0  0  0  0
 24 25  1  0  0  0  0
 25 23  1  0  0  0  0
 26 30  2  0  0  0  0
 26 28  1  0  0  0  0
 27 31  1  0  0  0  0
 28 27  2  0  0  0  0
 29 32  1  0  0  0  0
 29 31  2  0  0  0  0
 30 29  1  0  0  0  0
 32 33  1  0  0  0  0
 34 33  1  0  0  0  0
 36 35  1  0  0  0  0
 36 38  1  0  0  0  0
 37 36  2  0  0  0  0
 39 38  1  0  0  0  0
 40 39  1  0  0  0  0
 40 41  1  1  0  0  0
 42 46  1  0  0  0  0
 42 47  1  1  0  0  0
 43 46  1  0  0  0  0
 44 42  1  0  0  0  0
 45 49  2  0  0  0  0
 46 40  1  1  0  0  0
 48 49  1  0  0  0  0
 48 44  1  0  0  0  0
 49 43  1  0  0  0  0
M  END
>  <MODEL>
6

>  <REMARK>
 VINA RESULT:      -1.6      4.329      9.837
  Name = 
  14 active torsions:
  status: ('A' for Active; 'I' for Inactive)
    1  A    between atoms: C_4  and  C_10
    2  A    between atoms: C_4  and  C_20
    3  A    between atoms: C_5  and  C_22
    4  A    between atoms: C_5  and  C_44
    5  A    between atoms: O_7  and  C_16
    6  A    between atoms: C_10  and  O_46
    7  A    between atoms: N_11  and  N_14
    8  A    between atoms: N_11  and  C_28
    9  A    between atoms: C_13  and  C_20
   10  A    between atoms: C_13  and  C_30
   11  A    between atoms: C_27  and  C_29
   12  A    between atoms: C_32  and  P_41
   13  A    between atoms: P_41  and  O_42
   14  A    between atoms: C_43  and  O_46
                            x       y       z     vdW  Elec       q    Type
                         _______ _______ _______ _____ _____    ______ ____

>  <TORSDO>
F 14

$$$$
