=
 OpenBabel11072411093D

 46 51  0  0  1  0  0  0  0  0999 V2000
  160.8620  205.5890  151.1180 C   0  0  1  0  0  3  0  0  0  0  0  0
  162.2800  209.8910  151.1000 O   0  0  0  0  0  0  0  0  0  0  0  0
  161.9340  208.7760  150.6240 C   0  0  0  0  0  0  0  0  0  0  0  0
  160.7450  206.8710  150.2860 C   0  0  2  0  0  3  0  0  0  0  0  0
  161.8830  206.9630  149.2460 C   0  0  2  0  0  3  0  0  0  0  0  0
  162.5550  208.1790  149.5510 O   0  0  0  0  0  0  0  0  0  0  0  0
  160.8700  208.0430  151.0910 O   0  0  0  0  0  0  0  0  0  0  0  0
  161.3430  207.0440  147.9610 O   0  0  0  0  0  0  0  0  0  0  0  0
  162.3130  206.4720  147.1340 C   0  0  0  0  0  2  0  0  0  0  0  0
  161.8310  206.3950  145.8010 O   0  0  0  0  0  0  0  0  0  0  0  0
  161.4540  205.1770  143.7940 O   0  0  0  0  0  0  0  0  0  0  0  0
  163.0060  204.4960  145.2940 O   0  0  0  0  0  0  0  0  0  0  0  0
  162.1400  205.3340  144.9720 N   0  0  0  0  0  0  0  0  0  0  0  0
  160.4990  203.0920  150.8730 C   0  0  0  0  0  3  0  0  0  0  0  0
  160.8090  201.9930  148.7310 C   0  0  0  0  0  0  0  0  0  0  0  0
  160.8370  204.3270  150.2960 C   0  0  0  0  0  0  0  0  0  0  0  0
  161.1660  204.3830  148.9390 C   0  0  0  0  0  3  0  0  0  0  0  0
  161.1530  203.2200  148.1620 C   0  0  0  0  0  3  0  0  0  0  0  0
  160.4830  201.9340  150.0930 C   0  0  0  0  0  3  0  0  0  0  0  0
  160.7880  200.8230  147.9030 N   0  0  0  0  0  2  0  0  0  0  0  0
  161.6210  199.2730  146.1750 C   0  0  0  0  0  1  0  0  0  0  0  0
  161.3100  200.7200  146.5410 C   0  0  1  0  0  3  0  0  0  0  0  0
  160.4050  201.3610  145.5290 C   0  0  0  0  0  0  0  0  0  0  0  0
  159.7240  200.6360  144.7580 O   0  0  0  0  0  0  0  0  0  0  0  0
  160.3010  202.7450  145.4310 O   0  0  0  0  0  1  0  0  0  0  0  0
  162.0710  205.6520  152.0350 C   0  0  0  0  0  2  0  0  0  0  0  0
  161.6430  205.4300  153.4760 C   0  0  0  0  0  2  0  0  0  0  0  0
  160.6690  206.5150  153.9300 C   0  0  0  0  0  2  0  0  0  0  0  0
  160.2780  207.8460  156.0330 C   0  0  0  0  0  0  0  0  0  0  0  0
  161.6970  208.6780  154.3610 O   0  0  0  0  0  0  0  0  0  0  0  0
  159.7390  207.0390  156.7740 O   0  0  0  0  0  0  0  0  0  0  0  0
  160.9870  209.7240  154.9910 C   0  0  2  0  0  0  0  0  0  0  0  0
  160.8410  211.0130  154.1740 C   0  0  2  0  0  3  0  0  0  0  0  0
  161.2550  207.4830  154.9700 C   0  0  2  0  0  3  0  0  0  0  0  0
  161.8680  210.9120  155.3050 C   0  0  0  0  0  2  0  0  0  0  0  0
  160.0730  209.2900  156.1180 C   0  0  0  0  0  2  0  0  0  0  0  0
  159.4200  212.7770  153.3590 O   0  0  0  0  0  0  0  0  0  0  0  0
  159.7820  212.0790  154.5170 C   0  0  1  0  0  3  0  0  0  0  0  0
  158.4380  211.9230  153.9080 C   0  0  1  0  0  3  0  0  0  0  0  0
  156.8230  212.0960  155.9230 C   0  0  0  0  0  2  0  0  0  0  0  0
  155.1760  213.8700  154.3130 C   0  0  0  0  0  0  0  0  0  0  0  0
  155.1790  214.1100  155.7900 C   0  0  0  0  0  2  0  0  0  0  0  0
  155.6100  212.8360  156.5310 C   0  0  0  0  0  2  0  0  0  0  0  0
  154.2660  214.3500  153.5870 O   0  0  0  0  0  0  0  0  0  0  0  0
  156.2500  213.1260  153.7390 N   0  0  0  0  0  2  0  0  0  0  0  0
  157.3440  212.7230  154.6230 C   0  0  2  0  0  3  0  0  0  0  0  0
  1 26  1  6  0  0  0
  3  7  1  0  0  0  0
  3  2  2  0  0  0  0
  4  7  1  0  0  0  0
  4  1  1  1  0  0  0
  5  8  1  6  0  0  0
  5  6  1  0  0  0  0
  5  4  1  0  0  0  0
  6  3  1  0  0  0  0
  9  8  1  0  0  0  0
 10  9  1  0  0  0  0
 11 13  2  0  0  0  0
 13 12  2  0  0  0  0
 13 10  1  0  0  0  0
 15 19  1  0  0  0  0
 16 14  1  0  0  0  0
 16  1  1  0  0  0  0
 17 16  2  0  0  0  0
 18 15  2  0  0  0  0
 18 17  1  0  0  0  0
 19 14  2  0  0  0  0
 20 15  1  0  0  0  0
 22 21  1  6  0  0  0
 22 20  1  0  0  0  0
 23 22  1  0  0  0  0
 24 23  2  0  0  0  0
 25 23  1  0  0  0  0
 26 27  1  0  0  0  0
 27 28  1  0  0  0  0
 29 36  1  0  0  0  0
 29 31  2  0  0  0  0
 30 34  1  0  0  0  0
 30 32  1  0  0  0  0
 32 35  1  1  0  0  0
 32 36  1  0  0  0  0
 33 38  1  0  0  0  0
 33 32  1  0  0  0  0
 33 35  1  1  0  0  0
 34 28  1  6  0  0  0
 34 29  1  0  0  0  0
 38 37  1  6  0  0  0
 39 37  1  6  0  0  0
 39 38  1  0  0  0  0
 39 46  1  0  0  0  0
 40 43  1  0  0  0  0
 41 42  1  0  0  0  0
 42 43  1  0  0  0  0
 44 41  2  0  0  0  0
 45 41  1  0  0  0  0
 45 46  1  0  0  0  0
 46 40  1  1  0  0  0
M  END
>  <MODEL>
1

>  <REMARK>
 VINA RESULT:      -8.6      0.000      0.000
  Name = 
  15 active torsions:
  status: ('A' for Active; 'I' for Inactive)
    1  A    between atoms: C_4  and  N_40
    2  A    between atoms: O_5  and  C_11
    3  A    between atoms: O_5  and  N_32
    4  A    between atoms: C_10  and  C_24
    5  A    between atoms: C_11  and  O_29
    6  A    between atoms: C_15  and  C_23
    7  A    between atoms: C_16  and  CA_44
    8  A    between atoms: C_19  and  C_23
    9  A    between atoms: C_22  and  C_46
   10  A    between atoms: C_23  and  C_27
   11  A    between atoms: C_27  and  C_28
   12  A    between atoms: C_28  and  C_39
   13  A    between atoms: O_29  and  C_33
   14  A    between atoms: C_31  and  C_39
   15  A    between atoms: N_40  and  CA_44
                            x       y       z     vdW  Elec       q    Type
                         _______ _______ _______ _____ _____    ______ ____

>  <TORSDO>
F 15

$$$$
=
 OpenBabel11072411093D

 46 51  0  0  1  0  0  0  0  0999 V2000
  161.2300  206.0970  151.4710 C   0  0  1  0  0  3  0  0  0  0  0  0
  161.0120  210.5230  152.4060 O   0  0  0  0  0  0  0  0  0  0  0  0
  161.3270  209.4810  151.7720 C   0  0  0  0  0  0  0  0  0  0  0  0
  161.1470  207.4550  150.7630 C   0  0  2  0  0  3  0  0  0  0  0  0
  162.5550  208.0350  150.5100 C   0  0  2  0  0  3  0  0  0  0  0  0
  162.5560  209.2890  151.1820 O   0  0  0  0  0  0  0  0  0  0  0  0
  160.4700  208.4290  151.5560 O   0  0  0  0  0  0  0  0  0  0  0  0
  162.7420  208.2440  149.1420 O   0  0  0  0  0  0  0  0  0  0  0  0
  161.7450  209.1540  148.7840 C   0  0  0  0  0  2  0  0  0  0  0  0
  162.3150  210.2550  148.0930 O   0  0  0  0  0  0  0  0  0  0  0  0
  161.5710  212.0150  149.5060 O   0  0  0  0  0  0  0  0  0  0  0  0
  161.6110  212.2670  147.2570 O   0  0  0  0  0  0  0  0  0  0  0  0
  161.8380  211.5420  148.2470 N   0  0  0  0  0  0  0  0  0  0  0  0
  161.0560  205.0790  149.1550 C   0  0  0  0  0  3  0  0  0  0  0  0
  160.6680  202.7000  148.8670 C   0  0  0  0  0  0  0  0  0  0  0  0
  161.0380  204.9200  150.5510 C   0  0  0  0  0  0  0  0  0  0  0  0
  160.8260  203.6500  151.0930 C   0  0  0  0  0  3  0  0  0  0  0  0
  160.6410  202.5470  150.2540 C   0  0  0  0  0  3  0  0  0  0  0  0
  160.8760  203.9740  148.3200 C   0  0  0  0  0  3  0  0  0  0  0  0
  160.4940  201.5460  148.0350 N   0  0  0  0  0  2  0  0  0  0  0  0
  161.4780  199.7500  146.6610 C   0  0  0  0  0  1  0  0  0  0  0  0
  161.2300  201.2470  146.8070 C   0  0  1  0  0  3  0  0  0  0  0  0
  160.5650  201.8160  145.5870 C   0  0  0  0  0  0  0  0  0  0  0  0
  159.7260  201.1220  144.9570 O   0  0  0  0  0  0  0  0  0  0  0  0
  160.8560  203.1020  145.1430 O   0  0  0  0  0  1  0  0  0  0  0  0
  162.5100  205.9900  152.2800 C   0  0  0  0  0  2  0  0  0  0  0  0
  162.3870  206.7990  153.5590 C   0  0  0  0  0  2  0  0  0  0  0  0
  161.0170  206.5960  154.2040 C   0  0  0  0  0  2  0  0  0  0  0  0
  159.5000  207.3990  156.0470 C   0  0  0  0  0  0  0  0  0  0  0  0
  161.6100  208.3780  155.7510 O   0  0  0  0  0  0  0  0  0  0  0  0
  158.6410  206.5330  156.0950 O   0  0  0  0  0  0  0  0  0  0  0  0
  160.6630  209.3350  156.1790 C   0  0  2  0  0  0  0  0  0  0  0  0
  160.9970  210.7930  155.8480 C   0  0  2  0  0  3  0  0  0  0  0  0
  160.9080  207.1590  155.6290 C   0  0  2  0  0  3  0  0  0  0  0  0
  161.2070  210.2400  157.2600 C   0  0  0  0  0  2  0  0  0  0  0  0
  159.2750  208.7880  156.4410 C   0  0  0  0  0  2  0  0  0  0  0  0
  159.9850  212.6400  154.6810 O   0  0  0  0  0  0  0  0  0  0  0  0
  159.9240  211.9000  155.8680 C   0  0  1  0  0  3  0  0  0  0  0  0
  158.8470  211.8200  154.8510 C   0  0  1  0  0  3  0  0  0  0  0  0
  156.8050  212.1480  156.4060 C   0  0  0  0  0  2  0  0  0  0  0  0
  155.5660  213.6910  154.2760 C   0  0  0  0  0  0  0  0  0  0  0  0
  155.2210  214.0830  155.6780 C   0  0  0  0  0  2  0  0  0  0  0  0
  155.4780  212.9070  156.6330 C   0  0  0  0  0  2  0  0  0  0  0  0
  154.8460  214.0620  153.3110 O   0  0  0  0  0  0  0  0  0  0  0  0
  156.7500  212.9260  154.0510 N   0  0  0  0  0  2  0  0  0  0  0  0
  157.6100  212.6540  155.2020 C   0  0  2  0  0  3  0  0  0  0  0  0
  1 26  1  6  0  0  0
  3  2  2  0  0  0  0
  4  1  1  1  0  0  0
  4  7  1  0  0  0  0
  5  8  1  6  0  0  0
  5  4  1  0  0  0  0
  5  6  1  0  0  0  0
  6  3  1  0  0  0  0
  7  3  1  0  0  0  0
  9  8  1  0  0  0  0
 10 13  1  0  0  0  0
 10  9  1  0  0  0  0
 12 13  2  0  0  0  0
 13 11  2  0  0  0  0
 14 16  1  0  0  0  0
 15 18  2  0  0  0  0
 16 17  2  0  0  0  0
 16  1  1  0  0  0  0
 18 17  1  0  0  0  0
 19 15  1  0  0  0  0
 19 14  2  0  0  0  0
 20 15  1  0  0  0  0
 22 21  1  6  0  0  0
 22 20  1  0  0  0  0
 23 22  1  0  0  0  0
 24 23  2  0  0  0  0
 25 23  1  0  0  0  0
 26 27  1  0  0  0  0
 27 28  1  0  0  0  0
 29 31  2  0  0  0  0
 29 36  1  0  0  0  0
 30 32  1  0  0  0  0
 32 36  1  1  0  0  0
 32 35  1  0  0  0  0
 33 38  1  0  0  0  0
 33 32  1  0  0  0  0
 33 35  1  1  0  0  0
 34 28  1  6  0  0  0
 34 30  1  0  0  0  0
 34 29  1  0  0  0  0
 38 37  1  6  0  0  0
 39 37  1  6  0  0  0
 39 46  1  0  0  0  0
 39 38  1  0  0  0  0
 40 43  1  0  0  0  0
 41 42  1  0  0  0  0
 42 43  1  0  0  0  0
 44 41  2  0  0  0  0
 45 41  1  0  0  0  0
 45 46  1  0  0  0  0
 46 40  1  1  0  0  0
M  END
>  <MODEL>
2

>  <REMARK>
 VINA RESULT:      -8.0      1.640      2.550
  Name = 
  15 active torsions:
  status: ('A' for Active; 'I' for Inactive)
    1  A    between atoms: C_4  and  N_40
    2  A    between atoms: O_5  and  C_11
    3  A    between atoms: O_5  and  N_32
    4  A    between atoms: C_10  and  C_24
    5  A    between atoms: C_11  and  O_29
    6  A    between atoms: C_15  and  C_23
    7  A    between atoms: C_16  and  CA_44
    8  A    between atoms: C_19  and  C_23
    9  A    between atoms: C_22  and  C_46
   10  A    between atoms: C_23  and  C_27
   11  A    between atoms: C_27  and  C_28
   12  A    between atoms: C_28  and  C_39
   13  A    between atoms: O_29  and  C_33
   14  A    between atoms: C_31  and  C_39
   15  A    between atoms: N_40  and  CA_44
                            x       y       z     vdW  Elec       q    Type
                         _______ _______ _______ _____ _____    ______ ____

>  <TORSDO>
F 15

$$$$
=
 OpenBabel11072411093D

 46 51  0  0  1  0  0  0  0  0999 V2000
  161.5200  209.2530  152.1410 C   0  0  1  0  0  3  0  0  0  0  0  0
  162.2220  210.6790  156.3820 O   0  0  0  0  0  0  0  0  0  0  0  0
  161.6060  210.5160  155.2950 C   0  0  0  0  0  0  0  0  0  0  0  0
  160.7590  209.5020  153.4480 C   0  0  2  0  0  3  0  0  0  0  0  0
  160.2450  210.9560  153.5220 C   0  0  2  0  0  3  0  0  0  0  0  0
  160.8340  211.4890  154.7020 O   0  0  0  0  0  0  0  0  0  0  0  0
  161.5940  209.3350  154.5920 O   0  0  0  0  0  0  0  0  0  0  0  0
  158.8550  210.9610  153.6570 O   0  0  0  0  0  0  0  0  0  0  0  0
  158.6320  211.2590  155.0030 C   0  0  0  0  0  2  0  0  0  0  0  0
  157.6240  212.2520  155.1210 O   0  0  0  0  0  0  0  0  0  0  0  0
  155.7770  210.7550  155.1350 O   0  0  0  0  0  0  0  0  0  0  0  0
  155.5820  212.8350  154.2640 O   0  0  0  0  0  0  0  0  0  0  0  0
  156.2990  211.9870  154.8310 N   0  0  0  0  0  0  0  0  0  0  0  0
  161.6090  206.7470  152.5170 C   0  0  0  0  0  3  0  0  0  0  0  0
  161.2570  205.1990  150.6820 C   0  0  0  0  0  0  0  0  0  0  0  0
  161.4280  207.8340  151.6460 C   0  0  0  0  0  0  0  0  0  0  0  0
  161.1710  207.5910  150.2930 C   0  0  0  0  0  3  0  0  0  0  0  0
  161.0870  206.2800  149.8150 C   0  0  0  0  0  3  0  0  0  0  0  0
  161.5200  205.4390  152.0370 C   0  0  0  0  0  3  0  0  0  0  0  0
  161.1470  203.8670  150.1630 N   0  0  0  0  0  2  0  0  0  0  0  0
  161.7880  203.9690  147.7830 C   0  0  0  0  0  1  0  0  0  0  0  0
  160.7560  203.5000  148.8020 C   0  0  1  0  0  3  0  0  0  0  0  0
  160.4740  202.0310  148.6630 C   0  0  0  0  0  0  0  0  0  0  0  0
  160.9030  201.4110  147.6560 O   0  0  0  0  0  0  0  0  0  0  0  0
  159.7510  201.3420  149.6310 O   0  0  0  0  0  1  0  0  0  0  0  0
  161.1100  210.2590  151.0790 C   0  0  0  0  0  2  0  0  0  0  0  0
  162.3330  210.7430  150.3200 C   0  0  0  0  0  2  0  0  0  0  0  0
  161.9970  211.0000  148.8520 C   0  0  0  0  0  2  0  0  0  0  0  0
  160.6850  212.9920  148.0420 C   0  0  0  0  0  0  0  0  0  0  0  0
  162.9220  212.7170  147.3970 O   0  0  0  0  0  0  0  0  0  0  0  0
  159.6930  212.9770  148.7540 O   0  0  0  0  0  0  0  0  0  0  0  0
  162.1620  213.2960  146.3570 C   0  0  2  0  0  0  0  0  0  0  0  0
  162.7290  213.1240  144.9440 C   0  0  2  0  0  3  0  0  0  0  0  0
  162.0210  212.4860  148.4580 C   0  0  2  0  0  3  0  0  0  0  0  0
  162.8780  214.4510  145.6930 C   0  0  0  0  0  2  0  0  0  0  0  0
  160.7080  213.5550  146.6950 C   0  0  0  0  0  2  0  0  0  0  0  0
  162.6030  213.9770  142.6960 O   0  0  0  0  0  0  0  0  0  0  0  0
  161.8600  213.3220  143.6860 C   0  0  1  0  0  3  0  0  0  0  0  0
  162.2850  212.6220  142.4490 C   0  0  1  0  0  3  0  0  0  0  0  0
  160.8540  211.0600  140.9620 C   0  0  0  0  0  2  0  0  0  0  0  0
  160.3680  213.3390  139.2240 C   0  0  0  0  0  0  0  0  0  0  0  0
  159.2770  212.3200  139.3180 C   0  0  0  0  0  2  0  0  0  0  0  0
  159.8500  210.9750  139.7910 C   0  0  0  0  0  2  0  0  0  0  0  0
  160.3950  214.1630  138.2710 O   0  0  0  0  0  0  0  0  0  0  0  0
  161.3500  213.3880  140.2580 N   0  0  0  0  0  2  0  0  0  0  0  0
  161.1720  212.4950  141.4030 C   0  0  2  0  0  3  0  0  0  0  0  0
  1 26  1  6  0  0  0
  3  2  2  0  0  0  0
  4  1  1  6  0  0  0
  4  5  1  0  0  0  0
  4  7  1  0  0  0  0
  5  8  1  1  0  0  0
  5  6  1  0  0  0  0
  6  3  1  0  0  0  0
  7  3  1  0  0  0  0
  8  9  1  0  0  0  0
  9 10  1  0  0  0  0
 12 13  2  0  0  0  0
 13 10  1  0  0  0  0
 13 11  2  0  0  0  0
 15 19  2  0  0  0  0
 16  1  1  0  0  0  0
 16 14  2  0  0  0  0
 17 16  1  0  0  0  0
 18 17  2  0  0  0  0
 18 15  1  0  0  0  0
 19 14  1  0  0  0  0
 20 15  1  0  0  0  0
 22 21  1  6  0  0  0
 22 20  1  0  0  0  0
 23 22  1  0  0  0  0
 23 25  1  0  0  0  0
 24 23  2  0  0  0  0
 27 26  1  0  0  0  0
 28 27  1  0  0  0  0
 29 34  1  0  0  0  0
 29 31  2  0  0  0  0
 30 34  1  0  0  0  0
 32 35  1  1  0  0  0
 32 36  1  0  0  0  0
 32 30  1  0  0  0  0
 33 35  1  6  0  0  0
 33 32  1  0  0  0  0
 34 28  1  6  0  0  0
 36 29  1  0  0  0  0
 38 37  1  6  0  0  0
 38 33  1  0  0  0  0
 39 37  1  6  0  0  0
 39 38  1  0  0  0  0
 41 42  1  0  0  0  0
 41 45  1  0  0  0  0
 42 43  1  0  0  0  0
 43 40  1  0  0  0  0
 44 41  2  0  0  0  0
 45 46  1  0  0  0  0
 46 40  1  6  0  0  0
 46 39  1  0  0  0  0
M  END
>  <MODEL>
3

>  <REMARK>
 VINA RESULT:      -8.0      5.132      9.560
  Name = 
  15 active torsions:
  status: ('A' for Active; 'I' for Inactive)
    1  A    between atoms: C_4  and  N_40
    2  A    between atoms: O_5  and  C_11
    3  A    between atoms: O_5  and  N_32
    4  A    between atoms: C_10  and  C_24
    5  A    between atoms: C_11  and  O_29
    6  A    between atoms: C_15  and  C_23
    7  A    between atoms: C_16  and  CA_44
    8  A    between atoms: C_19  and  C_23
    9  A    between atoms: C_22  and  C_46
   10  A    between atoms: C_23  and  C_27
   11  A    between atoms: C_27  and  C_28
   12  A    between atoms: C_28  and  C_39
   13  A    between atoms: O_29  and  C_33
   14  A    between atoms: C_31  and  C_39
   15  A    between atoms: N_40  and  CA_44
                            x       y       z     vdW  Elec       q    Type
                         _______ _______ _______ _____ _____    ______ ____

>  <TORSDO>
F 15

$$$$
=
 OpenBabel11072411093D

 46 51  0  0  1  0  0  0  0  0999 V2000
  161.4890  208.6150  149.7990 C   0  0  1  0  0  3  0  0  0  0  0  0
  161.5780  204.8710  152.3460 O   0  0  0  0  0  0  0  0  0  0  0  0
  161.4240  205.5710  151.3090 C   0  0  0  0  0  0  0  0  0  0  0  0
  161.8200  207.1220  149.6980 C   0  0  2  0  0  3  0  0  0  0  0  0
  160.5660  206.3000  149.3290 C   0  0  2  0  0  3  0  0  0  0  0  0
  160.4140  205.3730  150.3970 O   0  0  0  0  0  0  0  0  0  0  0  0
  162.2710  206.5900  150.9430 O   0  0  0  0  0  0  0  0  0  0  0  0
  160.7900  205.6020  148.1400 O   0  0  0  0  0  0  0  0  0  0  0  0
  161.3430  206.5470  147.2740 C   0  0  0  0  0  2  0  0  0  0  0  0
  160.9520  206.2700  145.9380 O   0  0  0  0  0  0  0  0  0  0  0  0
  162.8190  204.8370  145.6050 O   0  0  0  0  0  0  0  0  0  0  0  0
  161.4200  205.3400  143.8990 O   0  0  0  0  0  0  0  0  0  0  0  0
  161.7090  205.4690  145.1060 N   0  0  0  0  0  0  0  0  0  0  0  0
  160.3900  208.9480  152.0590 C   0  0  0  0  0  3  0  0  0  0  0  0
  161.5280  210.1520  153.8320 C   0  0  0  0  0  0  0  0  0  0  0  0
  161.4910  209.1430  151.2090 C   0  0  0  0  0  0  0  0  0  0  0  0
  162.6010  209.8510  151.6780 C   0  0  0  0  0  3  0  0  0  0  0  0
  162.6170  210.3540  152.9830 C   0  0  0  0  0  3  0  0  0  0  0  0
  160.4110  209.4470  153.3630 C   0  0  0  0  0  3  0  0  0  0  0  0
  161.5840  210.6640  155.1700 N   0  0  0  0  0  2  0  0  0  0  0  0
  159.3500  210.6510  156.2140 C   0  0  0  0  0  1  0  0  0  0  0  0
  160.8000  210.1910  156.3100 C   0  0  1  0  0  3  0  0  0  0  0  0
  160.8940  208.7030  156.4930 C   0  0  0  0  0  0  0  0  0  0  0  0
  159.8440  208.0100  156.4800 O   0  0  0  0  0  0  0  0  0  0  0  0
  162.1230  208.0770  156.6710 O   0  0  0  0  0  1  0  0  0  0  0  0
  162.3860  209.4270  148.8810 C   0  0  0  0  0  2  0  0  0  0  0  0
  161.6380  210.6450  148.3660 C   0  0  0  0  0  2  0  0  0  0  0  0
  162.4320  211.9240  148.6270 C   0  0  0  0  0  2  0  0  0  0  0  0
  160.4840  213.0360  147.4820 C   0  0  0  0  0  0  0  0  0  0  0  0
  162.6580  213.3260  146.6520 O   0  0  0  0  0  0  0  0  0  0  0  0
  159.5800  212.9120  148.2930 O   0  0  0  0  0  0  0  0  0  0  0  0
  161.7160  213.2840  145.6010 C   0  0  2  0  0  0  0  0  0  0  0  0
  162.2700  212.8900  144.2270 C   0  0  2  0  0  3  0  0  0  0  0  0
  161.9240  213.1440  147.8440 C   0  0  2  0  0  3  0  0  0  0  0  0
  161.9640  214.3530  144.5610 C   0  0  0  0  0  2  0  0  0  0  0  0
  160.2730  213.1430  146.0400 C   0  0  0  0  0  2  0  0  0  0  0  0
  161.3460  213.3500  142.0520 O   0  0  0  0  0  0  0  0  0  0  0  0
  161.3530  212.4060  143.0870 C   0  0  1  0  0  3  0  0  0  0  0  0
  161.9900  212.1220  141.7770 C   0  0  1  0  0  3  0  0  0  0  0  0
  161.8820  210.0730  140.2010 C   0  0  0  0  0  2  0  0  0  0  0  0
  159.5380  211.2760  138.9730 C   0  0  0  0  0  0  0  0  0  0  0  0
  159.5890  209.7810  139.0020 C   0  0  0  0  0  2  0  0  0  0  0  0
  161.0420  209.3060  139.1550 C   0  0  0  0  0  2  0  0  0  0  0  0
  158.7540  211.8750  138.1900 O   0  0  0  0  0  0  0  0  0  0  0  0
  160.3600  212.0070  139.8820 N   0  0  0  0  0  2  0  0  0  0  0  0
  161.1360  211.2420  140.8580 C   0  0  2  0  0  3  0  0  0  0  0  0
  1 26  1  6  0  0  0
  1 16  1  0  0  0  0
  3  2  2  0  0  0  0
  4  1  1  1  0  0  0
  4  7  1  0  0  0  0
  5  8  1  6  0  0  0
  5  4  1  0  0  0  0
  5  6  1  0  0  0  0
  6  3  1  0  0  0  0
  7  3  1  0  0  0  0
  9  8  1  0  0  0  0
 10  9  1  0  0  0  0
 12 13  2  0  0  0  0
 13 11  2  0  0  0  0
 13 10  1  0  0  0  0
 14 19  1  0  0  0  0
 15 20  1  0  0  0  0
 16 17  1  0  0  0  0
 16 14  2  0  0  0  0
 17 18  2  0  0  0  0
 18 15  1  0  0  0  0
 19 15  2  0  0  0  0
 20 22  1  0  0  0  0
 22 21  1  6  0  0  0
 22 23  1  0  0  0  0
 23 25  1  0  0  0  0
 24 23  2  0  0  0  0
 27 28  1  0  0  0  0
 27 26  1  0  0  0  0
 29 34  1  0  0  0  0
 29 31  2  0  0  0  0
 30 34  1  0  0  0  0
 32 35  1  6  0  0  0
 32 36  1  0  0  0  0
 32 30  1  0  0  0  0
 33 35  1  6  0  0  0
 33 32  1  0  0  0  0
 34 28  1  6  0  0  0
 36 29  1  0  0  0  0
 38 37  1  6  0  0  0
 38 33  1  0  0  0  0
 39 37  1  6  0  0  0
 39 38  1  0  0  0  0
 41 42  1  0  0  0  0
 41 45  1  0  0  0  0
 42 43  1  0  0  0  0
 43 40  1  0  0  0  0
 44 41  2  0  0  0  0
 45 46  1  0  0  0  0
 46 40  1  6  0  0  0
 46 39  1  0  0  0  0
M  END
>  <MODEL>
4

>  <REMARK>
 VINA RESULT:      -7.8      5.012     10.197
  Name = 
  15 active torsions:
  status: ('A' for Active; 'I' for Inactive)
    1  A    between atoms: C_4  and  N_40
    2  A    between atoms: O_5  and  C_11
    3  A    between atoms: O_5  and  N_32
    4  A    between atoms: C_10  and  C_24
    5  A    between atoms: C_11  and  O_29
    6  A    between atoms: C_15  and  C_23
    7  A    between atoms: C_16  and  CA_44
    8  A    between atoms: C_19  and  C_23
    9  A    between atoms: C_22  and  C_46
   10  A    between atoms: C_23  and  C_27
   11  A    between atoms: C_27  and  C_28
   12  A    between atoms: C_28  and  C_39
   13  A    between atoms: O_29  and  C_33
   14  A    between atoms: C_31  and  C_39
   15  A    between atoms: N_40  and  CA_44
                            x       y       z     vdW  Elec       q    Type
                         _______ _______ _______ _____ _____    ______ ____

>  <TORSDO>
F 15

$$$$
=
 OpenBabel11072411093D

 46 51  0  0  1  0  0  0  0  0999 V2000
  161.5140  209.3250  151.6970 C   0  0  1  0  0  3  0  0  0  0  0  0
  162.2670  210.5570  155.9900 O   0  0  0  0  0  0  0  0  0  0  0  0
  161.6440  210.4570  154.8990 C   0  0  0  0  0  0  0  0  0  0  0  0
  160.7630  209.5440  153.0160 C   0  0  2  0  0  3  0  0  0  0  0  0
  160.2940  211.0090  153.1500 C   0  0  2  0  0  3  0  0  0  0  0  0
  160.9020  211.4750  154.3480 O   0  0  0  0  0  0  0  0  0  0  0  0
  161.5960  209.3060  154.1500 O   0  0  0  0  0  0  0  0  0  0  0  0
  158.9060  211.0500  153.2900 O   0  0  0  0  0  0  0  0  0  0  0  0
  158.5470  212.3340  152.8760 C   0  0  0  0  0  2  0  0  0  0  0  0
  159.6370  212.9540  152.2100 O   0  0  0  0  0  0  0  0  0  0  0  0
  160.5390  214.4530  150.6000 O   0  0  0  0  0  0  0  0  0  0  0  0
  158.3040  214.1470  150.7820 O   0  0  0  0  0  0  0  0  0  0  0  0
  159.4490  213.8500  151.1760 N   0  0  0  0  0  0  0  0  0  0  0  0
  161.6000  206.8130  152.0320 C   0  0  0  0  0  3  0  0  0  0  0  0
  161.2700  205.2960  150.1670 C   0  0  0  0  0  0  0  0  0  0  0  0
  161.4290  207.9140  151.1770 C   0  0  0  0  0  0  0  0  0  0  0  0
  161.1870  207.6950  149.8180 C   0  0  0  0  0  3  0  0  0  0  0  0
  161.1100  206.3910  149.3170 C   0  0  0  0  0  3  0  0  0  0  0  0
  161.5180  205.5130  151.5290 C   0  0  0  0  0  3  0  0  0  0  0  0
  161.1670  203.9730  149.6240 N   0  0  0  0  0  2  0  0  0  0  0  0
  162.2050  204.1630  147.3950 C   0  0  0  0  0  1  0  0  0  0  0  0
  161.0330  203.6280  148.2100 C   0  0  1  0  0  3  0  0  0  0  0  0
  160.8420  202.1540  147.9940 C   0  0  0  0  0  0  0  0  0  0  0  0
  160.8160  201.3810  148.9870 O   0  0  0  0  0  1  0  0  0  0  0  0
  160.6870  201.6270  146.7160 O   0  0  0  0  0  0  0  0  0  0  0  0
  161.0860  210.3460  150.6580 C   0  0  0  0  0  2  0  0  0  0  0  0
  162.3000  210.8720  149.9130 C   0  0  0  0  0  2  0  0  0  0  0  0
  162.0060  211.0140  148.4210 C   0  0  0  0  0  2  0  0  0  0  0  0
  160.4850  212.7570  147.4240 C   0  0  0  0  0  0  0  0  0  0  0  0
  162.7790  212.7830  146.9410 O   0  0  0  0  0  0  0  0  0  0  0  0
  159.4560  212.6270  148.0700 O   0  0  0  0  0  0  0  0  0  0  0  0
  162.0210  213.2020  145.8250 C   0  0  2  0  0  0  0  0  0  0  0  0
  162.7070  213.0540  144.4630 C   0  0  2  0  0  3  0  0  0  0  0  0
  161.8460  212.4690  147.9520 C   0  0  2  0  0  3  0  0  0  0  0  0
  162.6110  214.4190  145.1500 C   0  0  0  0  0  2  0  0  0  0  0  0
  160.5250  213.2600  146.0530 C   0  0  0  0  0  2  0  0  0  0  0  0
  162.3400  214.1380  142.3440 O   0  0  0  0  0  0  0  0  0  0  0  0
  161.9110  213.0700  143.1430 C   0  0  1  0  0  3  0  0  0  0  0  0
  162.6710  212.8410  141.8890 C   0  0  1  0  0  3  0  0  0  0  0  0
  160.4610  213.1880  140.5880 C   0  0  0  0  0  2  0  0  0  0  0  0
  160.7840  210.4970  139.5350 C   0  0  0  0  0  0  0  0  0  0  0  0
  160.0970  211.4880  138.6490 C   0  0  0  0  0  2  0  0  0  0  0  0
  159.5220  212.6380  139.4900 C   0  0  0  0  0  2  0  0  0  0  0  0
  160.6770  209.2610  139.3180 O   0  0  0  0  0  0  0  0  0  0  0  0
  161.5980  210.9820  140.6020 N   0  0  0  0  0  2  0  0  0  0  0  0
  161.7890  212.4290  140.7050 C   0  0  2  0  0  3  0  0  0  0  0  0
  1 26  1  6  0  0  0
  3  2  2  0  0  0  0
  4  1  1  6  0  0  0
  4  5  1  0  0  0  0
  4  7  1  0  0  0  0
  5  8  1  1  0  0  0
  5  6  1  0  0  0  0
  6  3  1  0  0  0  0
  7  3  1  0  0  0  0
  9  8  1  0  0  0  0
 10  9  1  0  0  0  0
 11 13  2  0  0  0  0
 12 13  2  0  0  0  0
 13 10  1  0  0  0  0
 15 19  2  0  0  0  0
 16  1  1  0  0  0  0
 16 14  2  0  0  0  0
 17 16  1  0  0  0  0
 18 17  2  0  0  0  0
 18 15  1  0  0  0  0
 19 14  1  0  0  0  0
 20 15  1  0  0  0  0
 22 21  1  6  0  0  0
 22 20  1  0  0  0  0
 23 22  1  0  0  0  0
 23 24  1  0  0  0  0
 25 23  2  0  0  0  0
 27 26  1  0  0  0  0
 28 27  1  0  0  0  0
 29 34  1  0  0  0  0
 29 31  2  0  0  0  0
 30 34  1  0  0  0  0
 32 35  1  1  0  0  0
 32 36  1  0  0  0  0
 32 30  1  0  0  0  0
 33 35  1  6  0  0  0
 33 32  1  0  0  0  0
 34 28  1  6  0  0  0
 36 29  1  0  0  0  0
 38 37  1  6  0  0  0
 38 33  1  0  0  0  0
 39 37  1  6  0  0  0
 39 38  1  0  0  0  0
 41 45  1  0  0  0  0
 42 43  1  0  0  0  0
 42 41  1  0  0  0  0
 43 40  1  0  0  0  0
 44 41  2  0  0  0  0
 45 46  1  0  0  0  0
 46 40  1  1  0  0  0
 46 39  1  0  0  0  0
M  END
>  <MODEL>
5

>  <REMARK>
 VINA RESULT:      -7.6      5.022      9.445
  Name = 
  15 active torsions:
  status: ('A' for Active; 'I' for Inactive)
    1  A    between atoms: C_4  and  N_40
    2  A    between atoms: O_5  and  C_11
    3  A    between atoms: O_5  and  N_32
    4  A    between atoms: C_10  and  C_24
    5  A    between atoms: C_11  and  O_29
    6  A    between atoms: C_15  and  C_23
    7  A    between atoms: C_16  and  CA_44
    8  A    between atoms: C_19  and  C_23
    9  A    between atoms: C_22  and  C_46
   10  A    between atoms: C_23  and  C_27
   11  A    between atoms: C_27  and  C_28
   12  A    between atoms: C_28  and  C_39
   13  A    between atoms: O_29  and  C_33
   14  A    between atoms: C_31  and  C_39
   15  A    between atoms: N_40  and  CA_44
                            x       y       z     vdW  Elec       q    Type
                         _______ _______ _______ _____ _____    ______ ____

>  <TORSDO>
F 15

$$$$
=
 OpenBabel11072411093D

 46 51  0  0  1  0  0  0  0  0999 V2000
  162.0410  207.9490  149.1070 C   0  0  1  0  0  3  0  0  0  0  0  0
  161.1160  205.0640  152.4740 O   0  0  0  0  0  0  0  0  0  0  0  0
  161.3980  206.1630  151.9270 C   0  0  0  0  0  0  0  0  0  0  0  0
  161.3390  207.9050  150.4700 C   0  0  2  0  0  3  0  0  0  0  0  0
  162.3280  208.2190  151.6130 C   0  0  2  0  0  3  0  0  0  0  0  0
  162.2860  207.0730  152.4540 O   0  0  0  0  0  0  0  0  0  0  0  0
  160.8210  206.6070  150.7610 O   0  0  0  0  0  0  0  0  0  0  0  0
  161.8840  209.3330  152.3290 O   0  0  0  0  0  0  0  0  0  0  0  0
  160.6490  208.9470  152.8540 C   0  0  0  0  0  2  0  0  0  0  0  0
  160.5130  209.4300  154.1820 O   0  0  0  0  0  0  0  0  0  0  0  0
  160.6870  207.5140  155.5780 O   0  0  0  0  0  0  0  0  0  0  0  0
  161.9480  209.3540  155.9650 O   0  0  0  0  0  0  0  0  0  0  0  0
  161.0910  208.7850  155.2580 N   0  0  0  0  0  0  0  0  0  0  0  0
  162.4910  206.5470  147.0430 C   0  0  0  0  0  3  0  0  0  0  0  0
  161.7360  204.2450  146.9130 C   0  0  0  0  0  0  0  0  0  0  0  0
  161.9440  206.6620  148.3320 C   0  0  0  0  0  0  0  0  0  0  0  0
  161.2890  205.5650  148.8980 C   0  0  0  0  0  3  0  0  0  0  0  0
  161.1860  204.3630  148.1900 C   0  0  0  0  0  3  0  0  0  0  0  0
  162.3890  205.3440  146.3410 C   0  0  0  0  0  3  0  0  0  0  0  0
  161.6290  202.9930  146.2220 N   0  0  0  0  0  2  0  0  0  0  0  0
  160.0260  201.4330  145.1830 C   0  0  0  0  0  1  0  0  0  0  0  0
  160.6400  201.9470  146.4800 C   0  0  1  0  0  3  0  0  0  0  0  0
  161.1960  200.8240  147.3080 C   0  0  0  0  0  0  0  0  0  0  0  0
  161.3110  200.9700  148.5520 O   0  0  0  0  0  1  0  0  0  0  0  0
  161.5800  199.6210  146.7240 O   0  0  0  0  0  0  0  0  0  0  0  0
  161.5660  209.1430  148.2980 C   0  0  0  0  0  2  0  0  0  0  0  0
  162.4000  210.3670  148.6360 C   0  0  0  0  0  2  0  0  0  0  0  0
  161.5780  211.3890  149.4190 C   0  0  0  0  0  2  0  0  0  0  0  0
  160.3110  213.2610  148.3090 C   0  0  0  0  0  0  0  0  0  0  0  0
  162.5660  212.8940  147.7820 O   0  0  0  0  0  0  0  0  0  0  0  0
  159.2950  213.3440  148.9830 O   0  0  0  0  0  0  0  0  0  0  0  0
  161.8460  213.3340  146.6500 C   0  0  2  0  0  0  0  0  0  0  0  0
  162.4590  212.9740  145.2920 C   0  0  2  0  0  3  0  0  0  0  0  0
  161.6280  212.8090  148.8340 C   0  0  2  0  0  3  0  0  0  0  0  0
  162.5930  214.3880  145.8650 C   0  0  0  0  0  2  0  0  0  0  0  0
  160.3840  213.6410  146.9010 C   0  0  0  0  0  2  0  0  0  0  0  0
  162.2010  213.9230  143.0940 O   0  0  0  0  0  0  0  0  0  0  0  0
  161.6330  213.0090  143.9910 C   0  0  1  0  0  3  0  0  0  0  0  0
  162.3060  212.5570  142.7480 C   0  0  1  0  0  3  0  0  0  0  0  0
  161.7120  210.9470  140.8110 C   0  0  0  0  0  2  0  0  0  0  0  0
  160.1100  213.0880  139.6670 C   0  0  0  0  0  0  0  0  0  0  0  0
  159.6410  211.6890  139.4180 C   0  0  0  0  0  2  0  0  0  0  0  0
  160.8070  210.7030  139.5810 C   0  0  0  0  0  2  0  0  0  0  0  0
  159.6920  214.0400  138.9570 O   0  0  0  0  0  0  0  0  0  0  0  0
  161.0050  213.3250  140.7530 N   0  0  0  0  0  2  0  0  0  0  0  0
  161.3330  212.1940  141.6210 C   0  0  2  0  0  3  0  0  0  0  0  0
  1 26  1  6  0  0  0
  3  6  1  0  0  0  0
  3  2  2  0  0  0  0
  4  1  1  6  0  0  0
  4  7  1  0  0  0  0
  4  5  1  0  0  0  0
  5  8  1  1  0  0  0
  5  6  1  0  0  0  0
  7  3  1  0  0  0  0
  8  9  1  0  0  0  0
  9 10  1  0  0  0  0
 10 13  1  0  0  0  0
 13 11  2  0  0  0  0
 13 12  2  0  0  0  0
 14 16  1  0  0  0  0
 15 18  2  0  0  0  0
 16 17  2  0  0  0  0
 16  1  1  0  0  0  0
 18 17  1  0  0  0  0
 19 15  1  0  0  0  0
 19 14  2  0  0  0  0
 20 22  1  0  0  0  0
 20 15  1  0  0  0  0
 22 21  1  6  0  0  0
 22 23  1  0  0  0  0
 23 24  1  0  0  0  0
 25 23  2  0  0  0  0
 26 27  1  0  0  0  0
 27 28  1  0  0  0  0
 29 34  1  0  0  0  0
 29 31  2  0  0  0  0
 30 34  1  0  0  0  0
 32 35  1  1  0  0  0
 32 36  1  0  0  0  0
 32 30  1  0  0  0  0
 33 35  1  6  0  0  0
 33 32  1  0  0  0  0
 34 28  1  6  0  0  0
 36 29  1  0  0  0  0
 38 37  1  6  0  0  0
 38 33  1  0  0  0  0
 39 37  1  6  0  0  0
 39 38  1  0  0  0  0
 41 45  1  0  0  0  0
 42 43  1  0  0  0  0
 42 41  1  0  0  0  0
 43 40  1  0  0  0  0
 44 41  2  0  0  0  0
 45 46  1  0  0  0  0
 46 40  1  6  0  0  0
 46 39  1  0  0  0  0
M  END
>  <MODEL>
6

>  <REMARK>
 VINA RESULT:      -7.5      5.038      8.918
  Name = 
  15 active torsions:
  status: ('A' for Active; 'I' for Inactive)
    1  A    between atoms: C_4  and  N_40
    2  A    between atoms: O_5  and  C_11
    3  A    between atoms: O_5  and  N_32
    4  A    between atoms: C_10  and  C_24
    5  A    between atoms: C_11  and  O_29
    6  A    between atoms: C_15  and  C_23
    7  A    between atoms: C_16  and  CA_44
    8  A    between atoms: C_19  and  C_23
    9  A    between atoms: C_22  and  C_46
   10  A    between atoms: C_23  and  C_27
   11  A    between atoms: C_27  and  C_28
   12  A    between atoms: C_28  and  C_39
   13  A    between atoms: O_29  and  C_33
   14  A    between atoms: C_31  and  C_39
   15  A    between atoms: N_40  and  CA_44
                            x       y       z     vdW  Elec       q    Type
                         _______ _______ _______ _____ _____    ______ ____

>  <TORSDO>
F 15

$$$$
=
 OpenBabel11072411093D

 46 51  0  0  1  0  0  0  0  0999 V2000
  161.4800  207.2960  151.0350 C   0  0  1  0  0  3  0  0  0  0  0  0
  162.3300  206.7500  146.6200 O   0  0  0  0  0  0  0  0  0  0  0  0
  162.1840  207.3640  147.7110 C   0  0  0  0  0  0  0  0  0  0  0  0
  162.3560  207.8730  149.9170 C   0  0  2  0  0  3  0  0  0  0  0  0
  161.6290  209.0160  149.1770 C   0  0  2  0  0  3  0  0  0  0  0  0
  161.5760  208.5930  147.8200 O   0  0  0  0  0  0  0  0  0  0  0  0
  162.6540  206.9010  148.9170 O   0  0  0  0  0  0  0  0  0  0  0  0
  162.3790  210.1900  149.2660 O   0  0  0  0  0  0  0  0  0  0  0  0
  161.8650  210.8550  150.3810 C   0  0  0  0  0  2  0  0  0  0  0  0
  160.8500  211.7640  149.9800 O   0  0  0  0  0  0  0  0  0  0  0  0
  160.7180  214.1370  149.9010 O   0  0  0  0  0  0  0  0  0  0  0  0
  161.7590  212.9750  148.2620 O   0  0  0  0  0  0  0  0  0  0  0  0
  161.1450  212.9560  149.3470 N   0  0  0  0  0  0  0  0  0  0  0  0
  162.0730  204.9590  151.8200 C   0  0  0  0  0  3  0  0  0  0  0  0
  161.0230  203.0090  150.8290 C   0  0  0  0  0  0  0  0  0  0  0  0
  161.3280  205.7990  150.9760 C   0  0  0  0  0  0  0  0  0  0  0  0
  160.4400  205.2330  150.0570 C   0  0  0  0  0  3  0  0  0  0  0  0
  160.2900  203.8440  149.9850 C   0  0  0  0  0  3  0  0  0  0  0  0
  161.9180  203.5730  151.7470 C   0  0  0  0  0  3  0  0  0  0  0  0
  160.8320  201.5900  150.7420 N   0  0  0  0  0  2  0  0  0  0  0  0
  158.8090  201.2020  149.3860 C   0  0  0  0  0  1  0  0  0  0  0  0
  160.2790  200.8620  149.6010 C   0  0  1  0  0  3  0  0  0  0  0  0
  161.0790  201.0670  148.3460 C   0  0  0  0  0  0  0  0  0  0  0  0
  161.8500  200.1570  147.9480 O   0  0  0  0  0  1  0  0  0  0  0  0
  160.9780  202.2450  147.6130 O   0  0  0  0  0  0  0  0  0  0  0  0
  161.9620  207.7700  152.3950 C   0  0  0  0  0  2  0  0  0  0  0  0
  160.8270  207.7050  153.4020 C   0  0  0  0  0  2  0  0  0  0  0  0
  161.2490  206.9330  154.6510 C   0  0  0  0  0  2  0  0  0  0  0  0
  160.3150  208.0110  156.7270 C   0  0  0  0  0  0  0  0  0  0  0  0
  161.9750  209.1020  155.4810 O   0  0  0  0  0  0  0  0  0  0  0  0
  159.7030  207.0990  157.2610 O   0  0  0  0  0  0  0  0  0  0  0  0
  161.0620  210.0290  156.0310 C   0  0  2  0  0  0  0  0  0  0  0  0
  160.9800  211.3830  155.3170 C   0  0  2  0  0  3  0  0  0  0  0  0
  161.5200  207.8250  155.8730 C   0  0  2  0  0  3  0  0  0  0  0  0
  161.7540  211.2330  156.6300 C   0  0  0  0  0  2  0  0  0  0  0  0
  159.9740  209.4220  156.8920 C   0  0  0  0  0  2  0  0  0  0  0  0
  159.4490  212.9340  154.2930 O   0  0  0  0  0  0  0  0  0  0  0  0
  159.7860  212.3380  155.5150 C   0  0  1  0  0  3  0  0  0  0  0  0
  158.5230  212.0000  154.8110 C   0  0  1  0  0  3  0  0  0  0  0  0
  156.5430  211.9170  156.4740 C   0  0  0  0  0  2  0  0  0  0  0  0
  155.2000  213.8840  154.8060 C   0  0  0  0  0  0  0  0  0  0  0  0
  154.9080  213.9340  156.2730 C   0  0  0  0  0  2  0  0  0  0  0  0
  155.2160  212.5750  156.9190 C   0  0  0  0  0  2  0  0  0  0  0  0
  154.4370  214.4530  153.9810 O   0  0  0  0  0  0  0  0  0  0  0  0
  156.3830  213.2170  154.3670 N   0  0  0  0  0  2  0  0  0  0  0  0
  157.2920  212.7050  155.3910 C   0  0  2  0  0  3  0  0  0  0  0  0
  1 26  1  1  0  0  0
  2  3  2  0  0  0  0
  3  6  1  0  0  0  0
  3  7  1  0  0  0  0
  4  1  1  1  0  0  0
  5  8  1  6  0  0  0
  5  4  1  0  0  0  0
  6  5  1  0  0  0  0
  7  4  1  0  0  0  0
  8  9  1  0  0  0  0
 10  9  1  0  0  0  0
 12 13  2  0  0  0  0
 13 11  2  0  0  0  0
 13 10  1  0  0  0  0
 15 19  2  0  0  0  0
 16  1  1  0  0  0  0
 16 14  2  0  0  0  0
 17 16  1  0  0  0  0
 18 17  2  0  0  0  0
 18 15  1  0  0  0  0
 19 14  1  0  0  0  0
 20 15  1  0  0  0  0
 22 21  1  6  0  0  0
 22 20  1  0  0  0  0
 23 22  1  0  0  0  0
 24 23  1  0  0  0  0
 25 23  2  0  0  0  0
 26 27  1  0  0  0  0
 27 28  1  0  0  0  0
 29 36  1  0  0  0  0
 29 31  2  0  0  0  0
 30 34  1  0  0  0  0
 30 32  1  0  0  0  0
 32 35  1  1  0  0  0
 32 36  1  0  0  0  0
 33 38  1  0  0  0  0
 33 32  1  0  0  0  0
 33 35  1  1  0  0  0
 34 28  1  6  0  0  0
 34 29  1  0  0  0  0
 38 37  1  6  0  0  0
 39 37  1  6  0  0  0
 39 46  1  0  0  0  0
 39 38  1  0  0  0  0
 40 43  1  0  0  0  0
 41 42  1  0  0  0  0
 42 43  1  0  0  0  0
 44 41  2  0  0  0  0
 45 41  1  0  0  0  0
 45 46  1  0  0  0  0
 46 40  1  1  0  0  0
M  END
>  <MODEL>
7

>  <REMARK>
 VINA RESULT:      -7.0      1.894      3.484
  Name = 
  15 active torsions:
  status: ('A' for Active; 'I' for Inactive)
    1  A    between atoms: C_4  and  N_40
    2  A    between atoms: O_5  and  C_11
    3  A    between atoms: O_5  and  N_32
    4  A    between atoms: C_10  and  C_24
    5  A    between atoms: C_11  and  O_29
    6  A    between atoms: C_15  and  C_23
    7  A    between atoms: C_16  and  CA_44
    8  A    between atoms: C_19  and  C_23
    9  A    between atoms: C_22  and  C_46
   10  A    between atoms: C_23  and  C_27
   11  A    between atoms: C_27  and  C_28
   12  A    between atoms: C_28  and  C_39
   13  A    between atoms: O_29  and  C_33
   14  A    between atoms: C_31  and  C_39
   15  A    between atoms: N_40  and  CA_44
                            x       y       z     vdW  Elec       q    Type
                         _______ _______ _______ _____ _____    ______ ____

>  <TORSDO>
F 15

$$$$
=
 OpenBabel11072411093D

 46 51  0  0  1  0  0  0  0  0999 V2000
  162.3420  207.2440  150.2520 C   0  0  1  0  0  3  0  0  0  0  0  0
  160.0810  206.2550  146.4540 O   0  0  0  0  0  0  0  0  0  0  0  0
  160.6070  206.0560  147.5820 C   0  0  0  0  0  0  0  0  0  0  0  0
  161.1880  206.3660  149.7550 C   0  0  2  0  0  3  0  0  0  0  0  0
  161.7030  204.9940  149.2720 C   0  0  2  0  0  3  0  0  0  0  0  0
  161.2900  204.9090  147.9140 O   0  0  0  0  0  0  0  0  0  0  0  0
  160.5250  206.9410  148.6300 O   0  0  0  0  0  0  0  0  0  0  0  0
  161.0930  203.9740  150.0050 O   0  0  0  0  0  0  0  0  0  0  0  0
  160.4970  203.1550  149.0430 C   0  0  0  0  0  2  0  0  0  0  0  0
  161.4920  202.4210  148.3450 O   0  0  0  0  0  0  0  0  0  0  0  0
  161.6230  200.0660  148.0460 O   0  0  0  0  0  0  0  0  0  0  0  0
  160.5550  201.3730  146.5380 O   0  0  0  0  0  0  0  0  0  0  0  0
  161.1870  201.2920  147.6100 N   0  0  0  0  0  0  0  0  0  0  0  0
  162.0300  209.6640  150.9410 C   0  0  0  0  0  3  0  0  0  0  0  0
  161.8630  211.4220  149.2760 C   0  0  0  0  0  0  0  0  0  0  0  0
  162.1770  208.7050  149.9250 C   0  0  0  0  0  0  0  0  0  0  0  0
  162.1570  209.1140  148.5890 C   0  0  0  0  0  3  0  0  0  0  0  0
  161.9990  210.4660  148.2680 C   0  0  0  0  0  3  0  0  0  0  0  0
  161.8770  211.0140  150.6160 C   0  0  0  0  0  3  0  0  0  0  0  0
  161.7210  212.8010  148.9120 N   0  0  0  0  0  2  0  0  0  0  0  0
  159.6870  212.8150  147.5180 C   0  0  0  0  0  1  0  0  0  0  0  0
  160.4650  213.4980  148.6370 C   0  0  1  0  0  3  0  0  0  0  0  0
  159.6220  213.6690  149.8680 C   0  0  0  0  0  0  0  0  0  0  0  0
  158.3690  213.6220  149.7730 O   0  0  0  0  0  0  0  0  0  0  0  0
  160.2040  213.8740  151.1150 O   0  0  0  0  0  1  0  0  0  0  0  0
  162.5960  207.0120  151.7310 C   0  0  0  0  0  2  0  0  0  0  0  0
  161.4410  206.2380  152.3420 C   0  0  0  0  0  2  0  0  0  0  0  0
  160.4800  207.1750  153.0710 C   0  0  0  0  0  2  0  0  0  0  0  0
  160.1050  207.8210  155.4770 C   0  0  0  0  0  0  0  0  0  0  0  0
  161.4810  209.1370  154.1070 O   0  0  0  0  0  0  0  0  0  0  0  0
  159.5920  206.8210  155.9540 O   0  0  0  0  0  0  0  0  0  0  0  0
  160.7660  209.9370  155.0250 C   0  0  2  0  0  0  0  0  0  0  0  0
  160.5850  211.4050  154.6260 C   0  0  2  0  0  3  0  0  0  0  0  0
  161.0690  207.8070  154.3420 C   0  0  2  0  0  3  0  0  0  0  0  0
  161.6340  210.9970  155.6640 C   0  0  0  0  0  2  0  0  0  0  0  0
  159.8790  209.1720  155.9860 C   0  0  0  0  0  2  0  0  0  0  0  0
  159.7030  213.6310  154.8810 O   0  0  0  0  0  0  0  0  0  0  0  0
  159.5160  212.3020  155.2800 C   0  0  1  0  0  3  0  0  0  0  0  0
  158.5530  212.9810  154.3780 C   0  0  1  0  0  3  0  0  0  0  0  0
  156.8750  212.6500  156.3180 C   0  0  0  0  0  2  0  0  0  0  0  0
  154.9300  214.1330  154.7460 C   0  0  0  0  0  0  0  0  0  0  0  0
  154.8290  214.2590  156.2340 C   0  0  0  0  0  2  0  0  0  0  0  0
  155.5080  213.0590  156.9130 C   0  0  0  0  0  2  0  0  0  0  0  0
  153.9600  214.4530  154.0100 O   0  0  0  0  0  0  0  0  0  0  0  0
  156.1600  213.6850  154.1790 N   0  0  0  0  0  2  0  0  0  0  0  0
  157.2860  213.4690  155.0880 C   0  0  2  0  0  3  0  0  0  0  0  0
  1 26  1  1  0  0  0
  2  3  2  0  0  0  0
  3  6  1  0  0  0  0
  3  7  1  0  0  0  0
  4  1  1  6  0  0  0
  5  4  1  0  0  0  0
  5  8  1  1  0  0  0
  6  5  1  0  0  0  0
  7  4  1  0  0  0  0
  9  8  1  0  0  0  0
 10  9  1  0  0  0  0
 12 13  2  0  0  0  0
 13 11  2  0  0  0  0
 13 10  1  0  0  0  0
 15 19  2  0  0  0  0
 16  1  1  0  0  0  0
 16 14  2  0  0  0  0
 17 16  1  0  0  0  0
 18 17  2  0  0  0  0
 18 15  1  0  0  0  0
 19 14  1  0  0  0  0
 20 15  1  0  0  0  0
 22 21  1  6  0  0  0
 22 20  1  0  0  0  0
 22 23  1  0  0  0  0
 23 25  1  0  0  0  0
 24 23  2  0  0  0  0
 26 27  1  0  0  0  0
 27 28  1  0  0  0  0
 29 31  2  0  0  0  0
 29 36  1  0  0  0  0
 30 34  1  0  0  0  0
 30 32  1  0  0  0  0
 32 35  1  1  0  0  0
 32 36  1  0  0  0  0
 33 32  1  0  0  0  0
 33 38  1  0  0  0  0
 33 35  1  1  0  0  0
 34 28  1  6  0  0  0
 34 29  1  0  0  0  0
 38 37  1  6  0  0  0
 39 37  1  1  0  0  0
 39 46  1  0  0  0  0
 39 38  1  0  0  0  0
 40 43  1  0  0  0  0
 41 42  1  0  0  0  0
 42 43  1  0  0  0  0
 44 41  2  0  0  0  0
 45 41  1  0  0  0  0
 45 46  1  0  0  0  0
 46 40  1  1  0  0  0
M  END
>  <MODEL>
8

>  <REMARK>
 VINA RESULT:      -6.9      2.362      5.880
  Name = 
  15 active torsions:
  status: ('A' for Active; 'I' for Inactive)
    1  A    between atoms: C_4  and  N_40
    2  A    between atoms: O_5  and  C_11
    3  A    between atoms: O_5  and  N_32
    4  A    between atoms: C_10  and  C_24
    5  A    between atoms: C_11  and  O_29
    6  A    between atoms: C_15  and  C_23
    7  A    between atoms: C_16  and  CA_44
    8  A    between atoms: C_19  and  C_23
    9  A    between atoms: C_22  and  C_46
   10  A    between atoms: C_23  and  C_27
   11  A    between atoms: C_27  and  C_28
   12  A    between atoms: C_28  and  C_39
   13  A    between atoms: O_29  and  C_33
   14  A    between atoms: C_31  and  C_39
   15  A    between atoms: N_40  and  CA_44
                            x       y       z     vdW  Elec       q    Type
                         _______ _______ _______ _____ _____    ______ ____

>  <TORSDO>
F 15

$$$$
=
 OpenBabel11072411093D

 46 51  0  0  1  0  0  0  0  0999 V2000
  161.5860  208.1640  148.7480 C   0  0  1  0  0  3  0  0  0  0  0  0
  161.5050  203.6920  149.4620 O   0  0  0  0  0  0  0  0  0  0  0  0
  161.5340  204.7660  148.8030 C   0  0  0  0  0  0  0  0  0  0  0  0
  162.1260  206.8590  148.1510 C   0  0  2  0  0  3  0  0  0  0  0  0
  161.1310  206.2610  147.1330 C   0  0  2  0  0  3  0  0  0  0  0  0
  160.8310  204.9660  147.6380 O   0  0  0  0  0  0  0  0  0  0  0  0
  162.3050  205.8510  149.1450 O   0  0  0  0  0  0  0  0  0  0  0  0
  161.7460  206.1390  145.8860 O   0  0  0  0  0  0  0  0  0  0  0  0
  161.9870  204.7710  145.7430 C   0  0  0  0  0  2  0  0  0  0  0  0
  160.8480  204.1320  145.1860 O   0  0  0  0  0  0  0  0  0  0  0  0
  159.7810  202.1260  144.4870 O   0  0  0  0  0  0  0  0  0  0  0  0
  161.0900  202.1660  146.3330 O   0  0  0  0  0  0  0  0  0  0  0  0
  160.6040  202.7850  145.3650 N   0  0  0  0  0  0  0  0  0  0  0  0
  160.8960  207.0830  150.9350 C   0  0  0  0  0  3  0  0  0  0  0  0
  161.3410  208.1720  153.0570 C   0  0  0  0  0  0  0  0  0  0  0  0
  161.4970  208.1520  150.2510 C   0  0  0  0  0  0  0  0  0  0  0  0
  162.0080  209.2300  150.9800 C   0  0  0  0  0  3  0  0  0  0  0  0
  161.9290  209.2380  152.3760 C   0  0  0  0  0  3  0  0  0  0  0  0
  160.8230  207.0930  152.3300 C   0  0  0  0  0  3  0  0  0  0  0  0
  161.2930  208.2040  154.4900 N   0  0  0  0  0  2  0  0  0  0  0  0
  159.6150  208.0390  156.2900 C   0  0  0  0  0  1  0  0  0  0  0  0
  160.3370  208.9520  155.3060 C   0  0  1  0  0  3  0  0  0  0  0  0
  160.9700  210.1220  156.0030 C   0  0  0  0  0  0  0  0  0  0  0  0
  160.9710  210.1670  157.2600 O   0  0  0  0  0  1  0  0  0  0  0  0
  161.5600  211.1550  155.2820 O   0  0  0  0  0  0  0  0  0  0  0  0
  162.3690  209.3570  148.2290 C   0  0  0  0  0  2  0  0  0  0  0  0
  161.5070  210.6060  148.2750 C   0  0  0  0  0  2  0  0  0  0  0  0
  162.3650  211.8560  148.4610 C   0  0  0  0  0  2  0  0  0  0  0  0
  160.5250  212.8700  147.0730 C   0  0  0  0  0  0  0  0  0  0  0  0
  162.7660  213.3730  146.6020 O   0  0  0  0  0  0  0  0  0  0  0  0
  159.5220  212.6340  147.7290 O   0  0  0  0  0  0  0  0  0  0  0  0
  162.0010  213.3120  145.4170 C   0  0  2  0  0  0  0  0  0  0  0  0
  162.7880  213.0350  144.1310 C   0  0  2  0  0  3  0  0  0  0  0  0
  161.8790  213.0720  147.6580 C   0  0  2  0  0  3  0  0  0  0  0  0
  162.3110  214.4500  144.4710 C   0  0  0  0  0  2  0  0  0  0  0  0
  160.5260  213.0360  145.6210 C   0  0  0  0  0  2  0  0  0  0  0  0
  161.5700  213.6310  142.1420 O   0  0  0  0  0  0  0  0  0  0  0  0
  162.0980  212.5410  142.8440 C   0  0  1  0  0  3  0  0  0  0  0  0
  162.6780  212.9820  141.5510 C   0  0  1  0  0  3  0  0  0  0  0  0
  160.9530  212.5730  139.6660 C   0  0  0  0  0  2  0  0  0  0  0  0
  161.8290  209.8010  139.6140 C   0  0  0  0  0  0  0  0  0  0  0  0
  161.3610  210.3830  138.3170 C   0  0  0  0  0  2  0  0  0  0  0  0
  160.4520  211.5940  138.5800 C   0  0  0  0  0  2  0  0  0  0  0  0
  161.9070  208.5530  139.7640 O   0  0  0  0  0  0  0  0  0  0  0  0
  162.2270  210.6880  140.6570 N   0  0  0  0  0  2  0  0  0  0  0  0
  162.2450  212.1200  140.3600 C   0  0  2  0  0  3  0  0  0  0  0  0
  1 26  1  1  0  0  0
  1 16  1  0  0  0  0
  3  7  1  0  0  0  0
  3  2  2  0  0  0  0
  4  1  1  1  0  0  0
  4  7  1  0  0  0  0
  5  8  1  6  0  0  0
  5  6  1  0  0  0  0
  5  4  1  0  0  0  0
  6  3  1  0  0  0  0
  9  8  1  0  0  0  0
 10 13  1  0  0  0  0
 10  9  1  0  0  0  0
 11 13  2  0  0  0  0
 13 12  2  0  0  0  0
 14 19  1  0  0  0  0
 15 20  1  0  0  0  0
 16 14  2  0  0  0  0
 16 17  1  0  0  0  0
 17 18  2  0  0  0  0
 18 15  1  0  0  0  0
 19 15  2  0  0  0  0
 20 22  1  0  0  0  0
 22 23  1  0  0  0  0
 22 21  1  1  0  0  0
 23 24  1  0  0  0  0
 25 23  2  0  0  0  0
 26 27  1  0  0  0  0
 27 28  1  0  0  0  0
 29 34  1  0  0  0  0
 29 31  2  0  0  0  0
 30 34  1  0  0  0  0
 32 35  1  6  0  0  0
 32 36  1  0  0  0  0
 32 30  1  0  0  0  0
 33 35  1  6  0  0  0
 33 32  1  0  0  0  0
 34 28  1  6  0  0  0
 36 29  1  0  0  0  0
 38 37  1  1  0  0  0
 38 33  1  0  0  0  0
 39 37  1  6  0  0  0
 39 38  1  0  0  0  0
 41 44  2  0  0  0  0
 41 45  1  0  0  0  0
 42 43  1  0  0  0  0
 42 41  1  0  0  0  0
 43 40  1  0  0  0  0
 46 40  1  1  0  0  0
 46 45  1  0  0  0  0
 46 39  1  0  0  0  0
M  END
>  <MODEL>
9

>  <REMARK>
 VINA RESULT:      -6.4      5.105     10.245
  Name = 
  15 active torsions:
  status: ('A' for Active; 'I' for Inactive)
    1  A    between atoms: C_4  and  N_40
    2  A    between atoms: O_5  and  C_11
    3  A    between atoms: O_5  and  N_32
    4  A    between atoms: C_10  and  C_24
    5  A    between atoms: C_11  and  O_29
    6  A    between atoms: C_15  and  C_23
    7  A    between atoms: C_16  and  CA_44
    8  A    between atoms: C_19  and  C_23
    9  A    between atoms: C_22  and  C_46
   10  A    between atoms: C_23  and  C_27
   11  A    between atoms: C_27  and  C_28
   12  A    between atoms: C_28  and  C_39
   13  A    between atoms: O_29  and  C_33
   14  A    between atoms: C_31  and  C_39
   15  A    between atoms: N_40  and  CA_44
                            x       y       z     vdW  Elec       q    Type
                         _______ _______ _______ _____ _____    ______ ____

>  <TORSDO>
F 15

$$$$
