=
 OpenBabel11072414353D

 36 40  0  0  1  0  0  0  0  0999 V2000
  161.0820  211.1810  152.7840 C   0  0  0  0  0  0  0  0  0  0  0  0
  161.1930  211.4410  151.4010 C   0  0  0  0  0  0  0  0  0  0  0  0
  160.4530  212.6830  149.4060 N   0  0  0  0  0  2  0  0  0  0  0  0
  161.9470  210.1210  153.4130 C   0  0  0  0  0  2  0  0  0  0  0  0
  162.0100  207.9120  155.5490 O   0  0  0  0  0  0  0  0  0  0  0  0
  159.8150  208.7200  155.7930 C   0  0  0  0  0  2  0  0  0  0  0  0
  160.3380  212.3840  150.8010 C   0  0  0  0  0  0  0  0  0  0  0  0
  160.1240  211.8810  153.5620 C   0  0  0  0  0  0  0  0  0  0  0  0
  162.1960  210.6940  150.5410 C   0  0  2  0  0  3  0  0  0  0  0  0
  159.4100  213.0760  151.5720 C   0  0  0  0  0  3  0  0  0  0  0  0
  162.5620  211.4570  149.2630 C   0  0  0  0  0  2  0  0  0  0  0  0
  161.3040  211.8970  148.5210 C   0  0  0  0  0  2  0  0  0  0  0  0
  158.8350  209.3640  155.0130 O   0  0  0  0  0  0  0  0  0  0  0  0
  159.2930  212.8490  152.9420 C   0  0  0  0  0  0  0  0  0  0  0  0
  159.9500  211.5220  154.9830 C   0  0  0  0  0  0  0  0  0  0  0  0
  161.0590  208.4450  154.9990 C   0  0  0  0  0  0  0  0  0  0  0  0
  160.8570  211.7970  155.8140 O   0  0  0  0  0  0  0  0  0  0  0  0
  158.4690  210.8620  156.7690 O   0  0  0  0  0  1  0  0  0  0  0  0
  158.7490  210.7210  155.4030 C   0  0  2  0  0  3  0  0  0  0  0  0
  161.1650  208.8220  153.5540 C   0  0  0  0  0  2  0  0  0  0  0  0
  161.2750  204.3550  150.1350 O   0  0  0  0  0  1  0  0  0  0  0  0
  161.7680  209.2850  150.2470 C   0  0  0  0  0  0  0  0  0  0  0  0
  161.0180  206.6540  149.6630 C   0  0  0  0  0  0  0  0  0  0  0  0
  160.6240  207.2270  150.8750 C   0  0  0  0  0  3  0  0  0  0  0  0
  161.0020  208.5420  151.1660 C   0  0  0  0  0  3  0  0  0  0  0  0
  160.3090  204.8960  146.6030 O   0  0  0  0  0  0  0  0  0  0  0  0
  161.3740  205.1070  147.6410 S   0  0  0  0  0  0  0  0  0  0  0  0
  162.4070  204.0180  147.5710 O   0  0  0  0  0  0  0  0  0  0  0  0
  162.1430  208.7050  149.0280 C   0  0  0  0  0  3  0  0  0  0  0  0
  161.7670  207.3920  148.7440 C   0  0  0  0  0  0  0  0  0  0  0  0
  160.6680  205.2620  149.2640 C   0  0  1  0  0  3  0  0  0  0  0  0
  162.1200  206.7070  147.4730 C   0  0  0  0  0  2  0  0  0  0  0  0
  158.3200  213.6360  153.6500 N   0  0  0  0  0  2  0  0  0  0  0  0
  156.1990  214.4520  152.8100 C   0  0  0  0  0  1  0  0  0  0  0  0
  156.8820  213.4090  153.6670 C   0  0  0  0  0  3  0  0  0  0  0  0
  156.3610  213.5100  155.0880 C   0  0  0  0  0  1  0  0  0  0  0  0
  1  4  1  0  0  0  0
  1  8  1  0  0  0  0
  2  1  2  0  0  0  0
  3  7  1  0  0  0  0
  4 20  1  0  0  0  0
  7  2  1  0  0  0  0
  7 10  2  0  0  0  0
  8 15  1  0  0  0  0
  9 22  1  6  0  0  0
  9  2  1  0  0  0  0
 10 14  1  0  0  0  0
 11  9  1  0  0  0  0
 12 11  1  0  0  0  0
 12  3  1  0  0  0  0
 13 19  1  0  0  0  0
 13  6  1  0  0  0  0
 14  8  2  0  0  0  0
 14 33  1  0  0  0  0
 15 19  1  0  0  0  0
 15 17  2  0  0  0  0
 16  5  2  0  0  0  0
 16  6  1  0  0  0  0
 19 18  1  1  0  0  0
 20 16  1  0  0  0  0
 22 25  1  0  0  0  0
 23 24  1  0  0  0  0
 24 25  2  0  0  0  0
 26 27  2  0  0  0  0
 27 31  1  0  0  0  0
 28 27  2  0  0  0  0
 29 22  2  0  0  0  0
 30 29  1  0  0  0  0
 30 23  2  0  0  0  0
 31 23  1  0  0  0  0
 31 21  1  1  0  0  0
 32 27  1  0  0  0  0
 32 30  1  0  0  0  0
 33 35  1  0  0  0  0
 34 35  1  0  0  0  0
 35 36  1  0  0  0  0
M  END
>  <MODEL>
1

>  <REMARK>
 VINA RESULT:      -5.8      0.000      0.000
  Name = 
  3 active torsions:
  status: ('A' for Active; 'I' for Inactive)
    1  A    between atoms: C_2  and  C_18
    2  A    between atoms: N_10  and  C_17
    3  A    between atoms: N_10  and  C_24
                            x       y       z     vdW  Elec       q    Type
                         _______ _______ _______ _____ _____    ______ ____

>  <TORSDO>
F 3

$$$$
=
 OpenBabel11072414353D

 36 40  0  0  1  0  0  0  0  0999 V2000
  162.1060  208.2940  152.3740 C   0  0  0  0  0  0  0  0  0  0  0  0
  161.5870  208.2980  153.6870 C   0  0  0  0  0  0  0  0  0  0  0  0
  160.5730  207.0820  155.5750 N   0  0  0  0  0  2  0  0  0  0  0  0
  162.5840  209.5840  151.7600 C   0  0  0  0  0  2  0  0  0  0  0  0
  162.7440  211.1770  149.1370 O   0  0  0  0  0  0  0  0  0  0  0  0
  161.6350  209.2310  148.4220 C   0  0  0  0  0  2  0  0  0  0  0  0
  161.0770  207.1070  154.2350 C   0  0  0  0  0  0  0  0  0  0  0  0
  162.1240  207.0910  151.6220 C   0  0  0  0  0  0  0  0  0  0  0  0
  161.5370  209.5750  154.5070 C   0  0  2  0  0  3  0  0  0  0  0  0
  161.1100  205.9270  153.4980 C   0  0  0  0  0  3  0  0  0  0  0  0
  161.4850  209.3060  156.0150 C   0  0  0  0  0  2  0  0  0  0  0  0
  160.3820  208.3050  156.3450 C   0  0  0  0  0  2  0  0  0  0  0  0
  160.8060  208.2300  148.9640 O   0  0  0  0  0  0  0  0  0  0  0  0
  161.6320  205.8950  152.2060 C   0  0  0  0  0  0  0  0  0  0  0  0
  162.5710  207.1280  150.2170 C   0  0  0  0  0  0  0  0  0  0  0  0
  162.0060  210.2580  149.4530 C   0  0  0  0  0  0  0  0  0  0  0  0
  163.7850  207.3370  149.9510 O   0  0  0  0  0  0  0  0  0  0  0  0
  162.1200  206.6150  147.9030 O   0  0  0  0  0  1  0  0  0  0  0  0
  161.5540  207.0380  149.1130 C   0  0  2  0  0  3  0  0  0  0  0  0
  161.5050  210.1690  150.8610 C   0  0  0  0  0  2  0  0  0  0  0  0
  157.6130  214.4530  153.0940 O   0  0  0  0  0  1  0  0  0  0  0  0
  160.4410  210.5010  154.0660 C   0  0  0  0  0  0  0  0  0  0  0  0
  158.3780  212.2300  153.3010 C   0  0  0  0  0  0  0  0  0  0  0  0
  159.5500  212.1820  152.5420 C   0  0  0  0  0  3  0  0  0  0  0  0
  160.5810  211.3170  152.9270 C   0  0  0  0  0  3  0  0  0  0  0  0
  154.7940  212.1130  153.6220 O   0  0  0  0  0  0  0  0  0  0  0  0
  156.0300  212.7190  154.2250 S   0  0  0  0  0  0  0  0  0  0  0  0
  155.6770  213.9080  155.0750 O   0  0  0  0  0  0  0  0  0  0  0  0
  159.2540  210.5460  154.8100 C   0  0  0  0  0  3  0  0  0  0  0  0
  158.2300  211.4120  154.4240 C   0  0  0  0  0  0  0  0  0  0  0  0
  157.2270  213.1170  152.9740 C   0  0  1  0  0  3  0  0  0  0  0  0
  156.9410  211.5160  155.1560 C   0  0  0  0  0  2  0  0  0  0  0  0
  161.6430  204.6210  151.5410 N   0  0  0  0  0  2  0  0  0  0  0  0
  160.4750  202.5400  151.9650 C   0  0  0  0  0  1  0  0  0  0  0  0
  160.4740  203.8320  151.1790 C   0  0  0  0  0  3  0  0  0  0  0  0
  160.5060  203.5150  149.6960 C   0  0  0  0  0  1  0  0  0  0  0  0
  1  2  1  0  0  0  0
  2  7  2  0  0  0  0
  2  9  1  0  0  0  0
  3 12  1  0  0  0  0
  4  1  1  0  0  0  0
  5 16  2  0  0  0  0
  6 13  1  0  0  0  0
  6 16  1  0  0  0  0
  7  3  1  0  0  0  0
  8 14  1  0  0  0  0
  8  1  2  0  0  0  0
  9 22  1  6  0  0  0
  9 11  1  0  0  0  0
 10  7  1  0  0  0  0
 11 12  1  0  0  0  0
 13 19  1  0  0  0  0
 14 10  2  0  0  0  0
 15  8  1  0  0  0  0
 16 20  1  0  0  0  0
 17 15  2  0  0  0  0
 19 18  1  6  0  0  0
 19 15  1  0  0  0  0
 20  4  1  0  0  0  0
 22 29  1  0  0  0  0
 23 30  1  0  0  0  0
 24 25  1  0  0  0  0
 24 23  2  0  0  0  0
 25 22  2  0  0  0  0
 26 27  2  0  0  0  0
 27 28  2  0  0  0  0
 27 32  1  0  0  0  0
 30 29  2  0  0  0  0
 30 32  1  0  0  0  0
 31 21  1  1  0  0  0
 31 23  1  0  0  0  0
 31 27  1  0  0  0  0
 33 14  1  0  0  0  0
 35 33  1  0  0  0  0
 35 34  1  0  0  0  0
 36 35  1  0  0  0  0
M  END
>  <MODEL>
2

>  <REMARK>
 VINA RESULT:      -5.3      3.650      8.189
  Name = 
  3 active torsions:
  status: ('A' for Active; 'I' for Inactive)
    1  A    between atoms: C_2  and  C_18
    2  A    between atoms: N_10  and  C_17
    3  A    between atoms: N_10  and  C_24
                            x       y       z     vdW  Elec       q    Type
                         _______ _______ _______ _____ _____    ______ ____

>  <TORSDO>
F 3

$$$$
=
 OpenBabel11072414353D

 36 40  0  0  1  0  0  0  0  0999 V2000
  161.1190  211.1730  152.8840 C   0  0  0  0  0  0  0  0  0  0  0  0
  161.3310  211.2920  151.4930 C   0  0  0  0  0  0  0  0  0  0  0  0
  160.7350  212.3170  149.3330 N   0  0  0  0  0  2  0  0  0  0  0  0
  161.9380  210.1910  153.6780 C   0  0  0  0  0  2  0  0  0  0  0  0
  161.8510  208.2110  156.0280 O   0  0  0  0  0  0  0  0  0  0  0  0
  159.6410  209.0160  156.0270 C   0  0  0  0  0  2  0  0  0  0  0  0
  160.5190  212.1600  150.7390 C   0  0  0  0  0  0  0  0  0  0  0  0
  160.1030  211.9370  153.5140 C   0  0  0  0  0  0  0  0  0  0  0  0
  162.3970  210.4720  150.7890 C   0  0  2  0  0  3  0  0  0  0  0  0
  159.5340  212.9170  151.3650 C   0  0  0  0  0  3  0  0  0  0  0  0
  162.8530  211.1060  149.4700 C   0  0  0  0  0  2  0  0  0  0  0  0
  161.6520  211.4550  148.5970 C   0  0  0  0  0  2  0  0  0  0  0  0
  158.7200  209.5670  155.1160 O   0  0  0  0  0  0  0  0  0  0  0  0
  159.3170  212.8290  152.7390 C   0  0  0  0  0  0  0  0  0  0  0  0
  159.8270  211.7220  154.9470 C   0  0  0  0  0  0  0  0  0  0  0  0
  160.9420  208.6750  155.3580 C   0  0  0  0  0  0  0  0  0  0  0  0
  160.6690  212.0900  155.8100 O   0  0  0  0  0  0  0  0  0  0  0  0
  158.2200  211.2310  156.6780 O   0  0  0  0  0  1  0  0  0  0  0  0
  158.6000  210.9550  155.3580 C   0  0  2  0  0  3  0  0  0  0  0  0
  161.1520  208.9050  153.8940 C   0  0  0  0  0  2  0  0  0  0  0  0
  159.4950  204.7760  150.2210 O   0  0  0  0  0  1  0  0  0  0  0  0
  161.9960  209.0360  150.6100 C   0  0  0  0  0  0  0  0  0  0  0  0
  161.2460  206.3550  150.3360 C   0  0  0  0  0  0  0  0  0  0  0  0
  160.9910  207.2490  149.2930 C   0  0  0  0  0  3  0  0  0  0  0  0
  161.3660  208.5900  149.4330 C   0  0  0  0  0  3  0  0  0  0  0  0
  162.5710  203.2630  151.6170 O   0  0  0  0  0  0  0  0  0  0  0  0
  161.4830  204.2770  151.8310 S   0  0  0  0  0  0  0  0  0  0  0  0
  160.3820  203.7040  152.6780 O   0  0  0  0  0  0  0  0  0  0  0  0
  162.2600  208.1270  151.6430 C   0  0  0  0  0  3  0  0  0  0  0  0
  161.8820  206.7920  151.5010 C   0  0  0  0  0  0  0  0  0  0  0  0
  160.8830  204.9110  150.2830 C   0  0  1  0  0  3  0  0  0  0  0  0
  162.1310  205.7650  152.5460 C   0  0  0  0  0  2  0  0  0  0  0  0
  158.2930  213.6720  153.2910 N   0  0  0  0  0  2  0  0  0  0  0  0
  156.2610  214.4510  152.2230 C   0  0  0  0  0  1  0  0  0  0  0  0
  156.8560  213.4540  153.1920 C   0  0  0  0  0  3  0  0  0  0  0  0
  156.2120  213.6340  154.5530 C   0  0  0  0  0  1  0  0  0  0  0  0
  1  8  1  0  0  0  0
  1  4  1  0  0  0  0
  2  1  2  0  0  0  0
  3  7  1  0  0  0  0
  4 20  1  0  0  0  0
  7 10  2  0  0  0  0
  7  2  1  0  0  0  0
  8 15  1  0  0  0  0
  9 22  1  6  0  0  0
  9  2  1  0  0  0  0
 10 14  1  0  0  0  0
 11  9  1  0  0  0  0
 12  3  1  0  0  0  0
 12 11  1  0  0  0  0
 13 19  1  0  0  0  0
 13  6  1  0  0  0  0
 14 33  1  0  0  0  0
 14  8  2  0  0  0  0
 15 19  1  0  0  0  0
 15 17  2  0  0  0  0
 16  6  1  0  0  0  0
 16  5  2  0  0  0  0
 19 18  1  1  0  0  0
 20 16  1  0  0  0  0
 22 29  1  0  0  0  0
 23 30  1  0  0  0  0
 24 25  1  0  0  0  0
 24 23  2  0  0  0  0
 25 22  2  0  0  0  0
 26 27  2  0  0  0  0
 27 32  1  0  0  0  0
 27 28  2  0  0  0  0
 30 29  2  0  0  0  0
 30 32  1  0  0  0  0
 31 21  1  1  0  0  0
 31 23  1  0  0  0  0
 31 27  1  0  0  0  0
 34 35  1  0  0  0  0
 35 33  1  0  0  0  0
 35 36  1  0  0  0  0
M  END
>  <MODEL>
3

>  <REMARK>
 VINA RESULT:      -5.1      1.361      1.959
  Name = 
  3 active torsions:
  status: ('A' for Active; 'I' for Inactive)
    1  A    between atoms: C_2  and  C_18
    2  A    between atoms: N_10  and  C_17
    3  A    between atoms: N_10  and  C_24
                            x       y       z     vdW  Elec       q    Type
                         _______ _______ _______ _____ _____    ______ ____

>  <TORSDO>
F 3

$$$$
=
 OpenBabel11072414353D

 36 40  0  0  1  0  0  0  0  0999 V2000
  160.6510  211.3910  151.7950 C   0  0  0  0  0  0  0  0  0  0  0  0
  159.5550  212.1830  152.1990 C   0  0  0  0  0  0  0  0  0  0  0  0
  157.5890  212.5090  153.6480 N   0  0  0  0  0  2  0  0  0  0  0  0
  161.5350  211.8630  150.6710 C   0  0  0  0  0  2  0  0  0  0  0  0
  163.1830  210.9350  148.2490 O   0  0  0  0  0  0  0  0  0  0  0  0
  162.3320  208.8880  149.0330 C   0  0  0  0  0  2  0  0  0  0  0  0
  158.6890  211.7090  153.2020 C   0  0  0  0  0  0  0  0  0  0  0  0
  160.8830  210.1330  152.4110 C   0  0  0  0  0  0  0  0  0  0  0  0
  159.2720  213.5220  151.5440 C   0  0  2  0  0  3  0  0  0  0  0  0
  158.9300  210.4820  153.8120 C   0  0  0  0  0  3  0  0  0  0  0  0
  158.4420  214.4520  152.4370 C   0  0  0  0  0  2  0  0  0  0  0  0
  157.2020  213.7340  152.9570 C   0  0  0  0  0  2  0  0  0  0  0  0
  161.2210  208.4160  149.7590 O   0  0  0  0  0  0  0  0  0  0  0  0
  160.0150  209.6900  153.4420 C   0  0  0  0  0  0  0  0  0  0  0  0
  161.9700  209.2740  151.9040 C   0  0  0  0  0  0  0  0  0  0  0  0
  162.2730  210.3760  148.8390 C   0  0  0  0  0  0  0  0  0  0  0  0
  163.1710  209.6090  152.0870 O   0  0  0  0  0  0  0  0  0  0  0  0
  162.6650  207.1230  151.0640 O   0  0  0  0  0  1  0  0  0  0  0  0
  161.6340  208.0710  151.0670 C   0  0  2  0  0  3  0  0  0  0  0  0
  161.1320  211.1890  149.3680 C   0  0  0  0  0  2  0  0  0  0  0  0
  156.6480  211.6650  145.9880 O   0  0  0  0  0  1  0  0  0  0  0  0
  158.6710  213.3800  150.1750 C   0  0  0  0  0  0  0  0  0  0  0  0
  157.6040  213.0960  147.6040 C   0  0  0  0  0  0  0  0  0  0  0  0
  156.7580  213.0010  148.7130 C   0  0  0  0  0  3  0  0  0  0  0  0
  157.2940  213.1420  149.9980 C   0  0  0  0  0  3  0  0  0  0  0  0
  158.4850  214.4520  144.3880 O   0  0  0  0  0  0  0  0  0  0  0  0
  158.6020  213.2190  145.2390 S   0  0  0  0  0  0  0  0  0  0  0  0
  158.9520  212.0240  144.3960 O   0  0  0  0  0  0  0  0  0  0  0  0
  159.5060  213.4890  149.0560 C   0  0  0  0  0  3  0  0  0  0  0  0
  158.9680  213.3450  147.7770 C   0  0  0  0  0  0  0  0  0  0  0  0
  157.1300  212.9590  146.1990 C   0  0  1  0  0  3  0  0  0  0  0  0
  159.7850  213.4520  146.5400 C   0  0  0  0  0  2  0  0  0  0  0  0
  160.1890  208.4530  154.1520 N   0  0  0  0  0  2  0  0  0  0  0  0
  160.0190  207.6860  156.4450 C   0  0  0  0  0  1  0  0  0  0  0  0
  160.9330  208.2720  155.3910 C   0  0  0  0  0  3  0  0  0  0  0  0
  161.4610  209.6080  155.8750 C   0  0  0  0  0  1  0  0  0  0  0  0
  1  2  2  0  0  0  0
  1  8  1  0  0  0  0
  2  7  1  0  0  0  0
  4  1  1  0  0  0  0
  5 16  2  0  0  0  0
  6 13  1  0  0  0  0
  7  3  1  0  0  0  0
  7 10  2  0  0  0  0
  8 14  2  0  0  0  0
  9 22  1  6  0  0  0
  9  2  1  0  0  0  0
  9 11  1  0  0  0  0
 11 12  1  0  0  0  0
 12  3  1  0  0  0  0
 13 19  1  0  0  0  0
 14 10  1  0  0  0  0
 14 33  1  0  0  0  0
 15 17  2  0  0  0  0
 15  8  1  0  0  0  0
 16  6  1  0  0  0  0
 16 20  1  0  0  0  0
 19 18  1  6  0  0  0
 19 15  1  0  0  0  0
 20  4  1  0  0  0  0
 23 30  2  0  0  0  0
 23 24  1  0  0  0  0
 24 25  2  0  0  0  0
 25 22  1  0  0  0  0
 26 27  2  0  0  0  0
 27 31  1  0  0  0  0
 27 32  1  0  0  0  0
 28 27  2  0  0  0  0
 29 22  2  0  0  0  0
 30 29  1  0  0  0  0
 31 21  1  1  0  0  0
 31 23  1  0  0  0  0
 32 30  1  0  0  0  0
 33 35  1  0  0  0  0
 35 36  1  0  0  0  0
 35 34  1  0  0  0  0
M  END
>  <MODEL>
4

>  <REMARK>
 VINA RESULT:      -4.8      3.835      6.364
  Name = 
  3 active torsions:
  status: ('A' for Active; 'I' for Inactive)
    1  A    between atoms: C_2  and  C_18
    2  A    between atoms: N_10  and  C_17
    3  A    between atoms: N_10  and  C_24
                            x       y       z     vdW  Elec       q    Type
                         _______ _______ _______ _____ _____    ______ ____

>  <TORSDO>
F 3

$$$$
=
 OpenBabel11072414353D

 36 40  0  0  1  0  0  0  0  0999 V2000
  161.8760  208.0860  153.3060 C   0  0  0  0  0  0  0  0  0  0  0  0
  161.3450  208.0510  154.6130 C   0  0  0  0  0  0  0  0  0  0  0  0
  160.0190  206.8930  156.3380 N   0  0  0  0  0  2  0  0  0  0  0  0
  162.6720  209.2840  152.8590 C   0  0  0  0  0  2  0  0  0  0  0  0
  163.2790  211.1070  150.4610 O   0  0  0  0  0  0  0  0  0  0  0  0
  161.7420  209.6020  149.5110 C   0  0  0  0  0  2  0  0  0  0  0  0
  160.5450  206.9630  155.0080 C   0  0  0  0  0  0  0  0  0  0  0  0
  161.6160  207.0200  152.4060 C   0  0  0  0  0  0  0  0  0  0  0  0
  161.5910  209.1860  155.5900 C   0  0  2  0  0  3  0  0  0  0  0  0
  160.3030  205.9150  154.1260 C   0  0  0  0  0  3  0  0  0  0  0  0
  161.4390  208.7490  157.0520 C   0  0  0  0  0  2  0  0  0  0  0  0
  160.1170  208.0180  157.2610 C   0  0  0  0  0  2  0  0  0  0  0  0
  160.6800  208.7760  149.9280 O   0  0  0  0  0  0  0  0  0  0  0  0
  160.8310  205.9180  152.8360 C   0  0  0  0  0  0  0  0  0  0  0  0
  162.0900  207.1230  151.0130 C   0  0  0  0  0  0  0  0  0  0  0  0
  162.3310  210.3660  150.6630 C   0  0  0  0  0  0  0  0  0  0  0  0
  163.3250  207.0580  150.7650 O   0  0  0  0  0  0  0  0  0  0  0  0
  161.5810  207.0350  148.6570 O   0  0  0  0  0  1  0  0  0  0  0  0
  161.1090  207.4280  149.9160 C   0  0  2  0  0  3  0  0  0  0  0  0
  161.7910  210.2270  152.0520 C   0  0  0  0  0  2  0  0  0  0  0  0
  157.5460  214.1660  155.4240 O   0  0  0  0  0  1  0  0  0  0  0  0
  160.7670  210.4020  155.2820 C   0  0  0  0  0  0  0  0  0  0  0  0
  159.1850  212.6330  154.6910 C   0  0  0  0  0  0  0  0  0  0  0  0
  160.2280  212.7560  155.6130 C   0  0  0  0  0  3  0  0  0  0  0  0
  161.0170  211.6380  155.9080 C   0  0  0  0  0  3  0  0  0  0  0  0
  157.3990  213.7030  151.7550 O   0  0  0  0  0  0  0  0  0  0  0  0
  157.2140  213.0470  153.0940 S   0  0  0  0  0  0  0  0  0  0  0  0
  155.7710  213.0900  153.5110 O   0  0  0  0  0  0  0  0  0  0  0  0
  159.7280  210.2950  154.3480 C   0  0  0  0  0  3  0  0  0  0  0  0
  158.9420  211.4110  154.0590 C   0  0  0  0  0  0  0  0  0  0  0  0
  158.2900  213.7620  154.3140 C   0  0  1  0  0  3  0  0  0  0  0  0
  157.8260  211.3820  153.0780 C   0  0  0  0  0  2  0  0  0  0  0  0
  160.5440  204.7760  152.0130 N   0  0  0  0  0  2  0  0  0  0  0  0
  161.1310  203.7610  149.8920 C   0  0  0  0  0  1  0  0  0  0  0  0
  161.5250  203.9340  151.3420 C   0  0  0  0  0  3  0  0  0  0  0  0
  161.5790  202.5730  152.0100 C   0  0  0  0  0  1  0  0  0  0  0  0
  1  2  1  0  0  0  0
  2  7  2  0  0  0  0
  2  9  1  0  0  0  0
  3 12  1  0  0  0  0
  4  1  1  0  0  0  0
  5 16  2  0  0  0  0
  6 13  1  0  0  0  0
  6 16  1  0  0  0  0
  7  3  1  0  0  0  0
  8 14  1  0  0  0  0
  8  1  2  0  0  0  0
  9 22  1  6  0  0  0
  9 11  1  0  0  0  0
 10  7  1  0  0  0  0
 11 12  1  0  0  0  0
 14 10  2  0  0  0  0
 15  8  1  0  0  0  0
 16 20  1  0  0  0  0
 17 15  2  0  0  0  0
 19 18  1  6  0  0  0
 19 13  1  0  0  0  0
 19 15  1  0  0  0  0
 20  4  1  0  0  0  0
 22 25  1  0  0  0  0
 23 24  1  0  0  0  0
 24 25  2  0  0  0  0
 26 27  2  0  0  0  0
 27 28  2  0  0  0  0
 27 31  1  0  0  0  0
 29 22  2  0  0  0  0
 30 29  1  0  0  0  0
 30 23  2  0  0  0  0
 31 23  1  0  0  0  0
 31 21  1  1  0  0  0
 32 27  1  0  0  0  0
 32 30  1  0  0  0  0
 33 14  1  0  0  0  0
 34 35  1  0  0  0  0
 35 36  1  0  0  0  0
 35 33  1  0  0  0  0
M  END
>  <MODEL>
5

>  <REMARK>
 VINA RESULT:      -4.5      3.571      8.045
  Name = 
  3 active torsions:
  status: ('A' for Active; 'I' for Inactive)
    1  A    between atoms: C_2  and  C_18
    2  A    between atoms: N_10  and  C_17
    3  A    between atoms: N_10  and  C_24
                            x       y       z     vdW  Elec       q    Type
                         _______ _______ _______ _____ _____    ______ ____

>  <TORSDO>
F 3

$$$$
=
 OpenBabel11072414353D

 36 40  0  0  1  0  0  0  0  0999 V2000
  160.5660  212.1620  151.6990 C   0  0  0  0  0  0  0  0  0  0  0  0
  161.0010  212.1230  150.3570 C   0  0  0  0  0  0  0  0  0  0  0  0
  160.7070  212.8030  148.0070 N   0  0  0  0  0  2  0  0  0  0  0  0
  161.3090  211.3710  152.7440 C   0  0  0  0  0  2  0  0  0  0  0  0
  160.9690  209.7080  155.3060 O   0  0  0  0  0  0  0  0  0  0  0  0
  158.7390  210.2920  154.8430 C   0  0  0  0  0  2  0  0  0  0  0  0
  160.2670  212.8050  149.3690 C   0  0  0  0  0  0  0  0  0  0  0  0
  159.4050  212.9000  152.0470 C   0  0  0  0  0  0  0  0  0  0  0  0
  162.2280  211.3250  149.9530 C   0  0  2  0  0  3  0  0  0  0  0  0
  159.1380  213.5390  149.7190 C   0  0  0  0  0  3  0  0  0  0  0  0
  162.8540  211.8260  148.6460 C   0  0  0  0  0  2  0  0  0  0  0  0
  161.7950  211.9450  147.5540 C   0  0  0  0  0  2  0  0  0  0  0  0
  157.9470  210.6320  153.7290 O   0  0  0  0  0  0  0  0  0  0  0  0
  158.6980  213.6060  151.0400 C   0  0  0  0  0  0  0  0  0  0  0  0
  158.9060  212.8430  153.4340 C   0  0  0  0  0  0  0  0  0  0  0  0
  160.1560  209.9940  154.4420 C   0  0  0  0  0  0  0  0  0  0  0  0
  159.5610  213.3970  154.3590 O   0  0  0  0  0  0  0  0  0  0  0  0
  157.0700  212.4260  154.9420 O   0  0  0  0  0  1  0  0  0  0  0  0
  157.6880  212.0220  153.7510 C   0  0  2  0  0  3  0  0  0  0  0  0
  160.5940  210.0550  153.0120 C   0  0  0  0  0  2  0  0  0  0  0  0
  159.8890  205.3520  149.7450 O   0  0  0  0  0  1  0  0  0  0  0  0
  161.9690  209.8460  149.9180 C   0  0  0  0  0  0  0  0  0  0  0  0
  161.4750  207.0930  149.9110 C   0  0  0  0  0  0  0  0  0  0  0  0
  161.3360  207.8180  148.7240 C   0  0  0  0  0  3  0  0  0  0  0  0
  161.5820  209.1960  148.7310 C   0  0  0  0  0  3  0  0  0  0  0  0
  162.7860  204.3300  151.8100 O   0  0  0  0  0  0  0  0  0  0  0  0
  161.6060  205.2550  151.7030 S   0  0  0  0  0  0  0  0  0  0  0  0
  160.4220  204.6920  152.4370 O   0  0  0  0  0  0  0  0  0  0  0  0
  162.1210  209.1060  151.0980 C   0  0  0  0  0  3  0  0  0  0  0  0
  161.8700  207.7330  151.0880 C   0  0  0  0  0  0  0  0  0  0  0  0
  161.2330  205.6260  150.0060 C   0  0  1  0  0  3  0  0  0  0  0  0
  162.0130  206.8770  152.2940 C   0  0  0  0  0  2  0  0  0  0  0  0
  157.5360  214.4120  151.2980 N   0  0  0  0  0  2  0  0  0  0  0  0
  155.1340  214.0980  151.3690 C   0  0  0  0  0  1  0  0  0  0  0  0
  156.3200  214.4440  150.4970 C   0  0  0  0  0  3  0  0  0  0  0  0
  156.4210  213.4370  149.3670 C   0  0  0  0  0  1  0  0  0  0  0  0
  1  8  1  0  0  0  0
  1  4  1  0  0  0  0
  2  1  2  0  0  0  0
  3  7  1  0  0  0  0
  4 20  1  0  0  0  0
  7 10  2  0  0  0  0
  7  2  1  0  0  0  0
  8 15  1  0  0  0  0
  9 22  1  6  0  0  0
  9  2  1  0  0  0  0
 10 14  1  0  0  0  0
 11  9  1  0  0  0  0
 12  3  1  0  0  0  0
 12 11  1  0  0  0  0
 13 19  1  0  0  0  0
 13  6  1  0  0  0  0
 14 33  1  0  0  0  0
 14  8  2  0  0  0  0
 15 19  1  0  0  0  0
 15 17  2  0  0  0  0
 16  6  1  0  0  0  0
 16  5  2  0  0  0  0
 19 18  1  1  0  0  0
 20 16  1  0  0  0  0
 22 29  1  0  0  0  0
 23 31  1  0  0  0  0
 23 30  1  0  0  0  0
 24 25  1  0  0  0  0
 24 23  2  0  0  0  0
 25 22  2  0  0  0  0
 27 26  2  0  0  0  0
 27 32  1  0  0  0  0
 27 28  2  0  0  0  0
 30 29  2  0  0  0  0
 30 32  1  0  0  0  0
 31 21  1  1  0  0  0
 31 27  1  0  0  0  0
 35 33  1  0  0  0  0
 35 34  1  0  0  0  0
 36 35  1  0  0  0  0
M  END
>  <MODEL>
6

>  <REMARK>
 VINA RESULT:      -4.1      1.788      2.645
  Name = 
  3 active torsions:
  status: ('A' for Active; 'I' for Inactive)
    1  A    between atoms: C_2  and  C_18
    2  A    between atoms: N_10  and  C_17
    3  A    between atoms: N_10  and  C_24
                            x       y       z     vdW  Elec       q    Type
                         _______ _______ _______ _____ _____    ______ ____

>  <TORSDO>
F 3

$$$$
=
 OpenBabel11072414353D

 36 40  0  0  1  0  0  0  0  0999 V2000
  161.2820  210.4040  152.8060 C   0  0  0  0  0  0  0  0  0  0  0  0
  161.2710  210.8990  151.4840 C   0  0  0  0  0  0  0  0  0  0  0  0
  160.3530  212.4490  149.8020 N   0  0  0  0  0  2  0  0  0  0  0  0
  162.2040  209.2690  153.1670 C   0  0  0  0  0  2  0  0  0  0  0  0
  162.4650  206.7300  154.8780 O   0  0  0  0  0  0  0  0  0  0  0  0
  160.2950  207.4400  155.4430 C   0  0  0  0  0  2  0  0  0  0  0  0
  160.3620  211.9120  151.1300 C   0  0  0  0  0  0  0  0  0  0  0  0
  160.3910  210.9410  153.7710 C   0  0  0  0  0  0  0  0  0  0  0  0
  162.1990  210.3300  150.4260 C   0  0  2  0  0  3  0  0  0  0  0  0
  159.5000  212.4440  152.0840 C   0  0  0  0  0  3  0  0  0  0  0  0
  162.4480  211.3080  149.2720 C   0  0  0  0  0  2  0  0  0  0  0  0
  161.1280  211.8430  148.7260 C   0  0  0  0  0  2  0  0  0  0  0  0
  159.2480  208.1880  154.8710 O   0  0  0  0  0  0  0  0  0  0  0  0
  159.5040  211.9840  153.4000 C   0  0  0  0  0  0  0  0  0  0  0  0
  160.3440  210.3410  155.1180 C   0  0  0  0  0  0  0  0  0  0  0  0
  161.4670  207.3290  154.5100 C   0  0  0  0  0  0  0  0  0  0  0  0
  161.3180  210.4880  155.9050 O   0  0  0  0  0  0  0  0  0  0  0  0
  159.0280  209.3550  156.8830 O   0  0  0  0  0  1  0  0  0  0  0  0
  159.1880  209.4560  155.4950 C   0  0  2  0  0  3  0  0  0  0  0  0
  161.4450  207.9510  153.1490 C   0  0  0  0  0  2  0  0  0  0  0  0
  161.0410  204.1260  149.2590 O   0  0  0  0  0  1  0  0  0  0  0  0
  161.7550  208.9840  149.9320 C   0  0  0  0  0  0  0  0  0  0  0  0
  160.9790  206.4690  148.9810 C   0  0  0  0  0  0  0  0  0  0  0  0
  160.4230  206.9560  150.1670 C   0  0  0  0  0  3  0  0  0  0  0  0
  160.8140  208.2140  150.6410 C   0  0  0  0  0  3  0  0  0  0  0  0
  160.6900  205.0400  145.6900 O   0  0  0  0  0  0  0  0  0  0  0  0
  161.5820  205.0890  146.8980 S   0  0  0  0  0  0  0  0  0  0  0  0
  162.5570  203.9450  146.8840 O   0  0  0  0  0  0  0  0  0  0  0  0
  162.2930  208.4920  148.7350 C   0  0  0  0  0  3  0  0  0  0  0  0
  161.9040  207.2360  148.2680 C   0  0  0  0  0  0  0  0  0  0  0  0
  160.6290  205.1440  148.3970 C   0  0  1  0  0  3  0  0  0  0  0  0
  162.4240  206.6460  147.0070 C   0  0  0  0  0  2  0  0  0  0  0  0
  158.5930  212.6180  154.3130 N   0  0  0  0  0  2  0  0  0  0  0  0
  159.7070  213.9020  156.0390 C   0  0  0  0  0  1  0  0  0  0  0  0
  158.7360  213.9510  154.8800 C   0  0  0  0  0  3  0  0  0  0  0  0
  157.3920  214.4480  155.3750 C   0  0  0  0  0  1  0  0  0  0  0  0
  1  4  1  0  0  0  0
  1  8  1  0  0  0  0
  2  1  2  0  0  0  0
  3  7  1  0  0  0  0
  7  2  1  0  0  0  0
  7 10  2  0  0  0  0
  8 15  1  0  0  0  0
  9 22  1  6  0  0  0
  9  2  1  0  0  0  0
 10 14  1  0  0  0  0
 11  9  1  0  0  0  0
 12 11  1  0  0  0  0
 12  3  1  0  0  0  0
 13  6  1  0  0  0  0
 13 19  1  0  0  0  0
 14  8  2  0  0  0  0
 14 33  1  0  0  0  0
 15 19  1  0  0  0  0
 15 17  2  0  0  0  0
 16  5  2  0  0  0  0
 16  6  1  0  0  0  0
 19 18  1  1  0  0  0
 20  4  1  0  0  0  0
 20 16  1  0  0  0  0
 22 25  1  0  0  0  0
 23 24  1  0  0  0  0
 24 25  2  0  0  0  0
 26 27  2  0  0  0  0
 27 32  1  0  0  0  0
 27 31  1  0  0  0  0
 28 27  2  0  0  0  0
 29 22  2  0  0  0  0
 30 29  1  0  0  0  0
 30 23  2  0  0  0  0
 31 23  1  0  0  0  0
 31 21  1  1  0  0  0
 32 30  1  0  0  0  0
 33 35  1  0  0  0  0
 35 36  1  0  0  0  0
 35 34  1  0  0  0  0
M  END
>  <MODEL>
7

>  <REMARK>
 VINA RESULT:      -3.8      1.079      1.285
  Name = 
  3 active torsions:
  status: ('A' for Active; 'I' for Inactive)
    1  A    between atoms: C_2  and  C_18
    2  A    between atoms: N_10  and  C_17
    3  A    between atoms: N_10  and  C_24
                            x       y       z     vdW  Elec       q    Type
                         _______ _______ _______ _____ _____    ______ ____

>  <TORSDO>
F 3

$$$$
