=
 OpenBabel11072410323D

 32 35  0  0  1  0  0  0  0  0999 V2000
  160.2190  207.3200  155.8790 C   0  0  0  0  0  2  0  0  0  0  0  0
  161.1350  208.3700  153.7430 C   0  0  2  0  0  3  0  0  0  0  0  0
  161.2440  210.0110  152.0150 N   0  0  0  0  0  2  0  0  0  0  0  0
  161.6530  207.4040  156.3910 C   0  0  0  0  0  2  0  0  0  0  0  0
  161.2590  210.7270  153.2920 C   0  0  2  0  0  3  0  0  0  0  0  0
  160.1610  207.3590  154.3480 C   0  0  0  0  0  2  0  0  0  0  0  0
  161.9630  209.8340  155.5690 C   0  0  0  0  0  0  0  0  0  0  0  0
  161.0100  209.7130  154.4060 C   0  0  2  0  0  3  0  0  0  0  0  0
  162.5970  210.9070  155.7500 O   0  0  0  0  0  0  0  0  0  0  0  0
  162.0820  208.7930  156.5530 N   0  0  0  0  0  2  0  0  0  0  0  0
  160.8270  208.6410  152.2940 C   0  0  1  0  0  3  0  0  0  0  0  0
  160.1700  211.7990  153.2980 C   0  0  2  0  0  3  0  0  0  0  0  0
  159.0330  211.3300  153.9560 O   0  0  0  0  0  1  0  0  0  0  0  0
  159.7960  212.1940  151.8800 C   0  0  0  0  0  2  0  0  0  0  0  0
  159.3850  213.5860  151.8490 N   0  0  0  0  0  2  0  0  0  0  0  0
  160.1680  214.2430  150.8160 C   0  0  0  0  0  2  0  0  0  0  0  0
  160.3810  213.3030  149.6390 C   0  0  0  0  0  2  0  0  0  0  0  0
  161.7220  212.6650  148.0040 C   0  0  0  0  0  1  0  0  0  0  0  0
  161.4890  213.7110  148.8950 O   0  0  0  0  0  0  0  0  0  0  0  0
  161.5900  207.6650  151.4120 C   0  0  0  0  0  2  0  0  0  0  0  0
  160.3400  204.8390  150.5500 C   0  0  0  0  0  3  0  0  0  0  0  0
  160.8000  207.3500  150.1490 C   0  0  2  0  0  3  0  0  0  0  0  0
  161.4870  205.5360  148.7270 C   0  0  0  0  0  0  0  0  0  0  0  0
  161.3540  206.8280  146.7670 O   0  0  0  0  0  1  0  0  0  0  0  0
  160.7270  203.6200  149.7390 C   0  0  0  0  0  3  0  0  0  0  0  0
  160.8130  205.8920  149.9060 C   0  0  1  0  0  3  0  0  0  0  0  0
  161.7710  208.9910  148.6810 O   0  0  0  0  0  0  0  0  0  0  0  0
  162.0140  206.7060  147.9900 C   0  0  1  0  0  3  0  0  0  0  0  0
  161.4800  204.2240  148.5830 C   0  0  0  0  0  0  0  0  0  0  0  0
  161.5600  207.8120  148.9200 C   0  0  0  0  0  0  0  0  0  0  0  0
  162.0640  203.4810  147.5530 O   0  0  0  0  0  0  0  0  0  0  0  0
  161.4410  203.2820  146.2910 C   0  0  0  0  0  1  0  0  0  0  0  0
  1  4  1  0  0  0  0
  2  6  1  1  0  0  0
  2  8  1  0  0  0  0
  3 11  1  0  0  0  0
  3  5  1  0  0  0  0
  4 10  1  0  0  0  0
  5 12  1  6  0  0  0
  5  8  1  0  0  0  0
  6  1  1  0  0  0  0
  7  9  2  0  0  0  0
  7 10  1  0  0  0  0
  8  7  1  1  0  0  0
 11 20  1  6  0  0  0
 11  2  1  0  0  0  0
 12 13  1  6  0  0  0
 14 12  1  0  0  0  0
 15 14  1  0  0  0  0
 16 15  1  0  0  0  0
 17 16  1  0  0  0  0
 18 19  1  0  0  0  0
 19 17  1  0  0  0  0
 22 20  1  1  0  0  0
 23 26  1  0  0  0  0
 25 21  2  0  0  0  0
 26 22  1  0  0  0  0
 26 21  1  1  0  0  0
 27 30  2  0  0  0  0
 28 24  1  6  0  0  0
 28 23  1  0  0  0  0
 28 30  1  0  0  0  0
 29 23  2  0  0  0  0
 29 25  1  0  0  0  0
 30 22  1  0  0  0  0
 31 29  1  0  0  0  0
 32 31  1  0  0  0  0
M  END
>  <MODEL>
1

>  <REMARK>
 VINA RESULT:      -7.4      0.000      0.000
  Name = 
  9 active torsions:
  status: ('A' for Active; 'I' for Inactive)
    1  A    between atoms: O_2  and  C_30
    2  A    between atoms: C_7  and  N_24
    3  A    between atoms: C_7  and  C_29
    4  A    between atoms: O_8  and  C_20
    5  A    between atoms: C_11  and  C_19
    6  A    between atoms: C_13  and  C_29
    7  A    between atoms: C_16  and  C_20
    8  A    between atoms: C_16  and  N_24
    9  A    between atoms: C_19  and  C_28
                            x       y       z     vdW  Elec       q    Type
                         _______ _______ _______ _____ _____    ______ ____

>  <TORSDO>
F 9

$$$$
=
 OpenBabel11072410323D

 32 35  0  0  1  0  0  0  0  0999 V2000
  160.1470  207.3190  156.0480 C   0  0  0  0  0  2  0  0  0  0  0  0
  161.1070  208.3640  153.9280 C   0  0  2  0  0  3  0  0  0  0  0  0
  161.2690  210.0130  152.2130 N   0  0  0  0  0  2  0  0  0  0  0  0
  161.5770  207.3700  156.5750 C   0  0  0  0  0  2  0  0  0  0  0  0
  161.2850  210.7200  153.4950 C   0  0  2  0  0  3  0  0  0  0  0  0
  160.1060  207.3690  154.5170 C   0  0  0  0  0  2  0  0  0  0  0  0
  161.9460  209.7980  155.7730 C   0  0  0  0  0  0  0  0  0  0  0  0
  161.0030  209.7040  154.5990 C   0  0  2  0  0  3  0  0  0  0  0  0
  162.6000  210.8570  155.9680 O   0  0  0  0  0  0  0  0  0  0  0  0
  162.0330  208.7480  156.7510 N   0  0  0  0  0  2  0  0  0  0  0  0
  160.8210  208.6510  152.4790 C   0  0  1  0  0  3  0  0  0  0  0  0
  160.2190  211.8150  153.4970 C   0  0  2  0  0  3  0  0  0  0  0  0
  160.1910  212.4600  154.7340 O   0  0  0  0  0  1  0  0  0  0  0  0
  158.8470  211.2300  153.2110 C   0  0  0  0  0  2  0  0  0  0  0  0
  157.8170  212.1420  153.6760 N   0  0  0  0  0  2  0  0  0  0  0  0
  156.9600  211.3970  154.5820 C   0  0  0  0  0  2  0  0  0  0  0  0
  156.3710  212.3250  155.6340 C   0  0  0  0  0  2  0  0  0  0  0  0
  157.4590  213.5910  157.0800 C   0  0  0  0  0  1  0  0  0  0  0  0
  157.1360  213.4880  155.7280 O   0  0  0  0  0  0  0  0  0  0  0  0
  161.5730  207.6650  151.5980 C   0  0  0  0  0  2  0  0  0  0  0  0
  160.3030  204.8130  150.8610 C   0  0  0  0  0  3  0  0  0  0  0  0
  160.7520  207.3090  150.3660 C   0  0  2  0  0  3  0  0  0  0  0  0
  161.4040  205.4480  148.9890 C   0  0  0  0  0  0  0  0  0  0  0  0
  161.2240  206.6740  146.9900 O   0  0  0  0  0  1  0  0  0  0  0  0
  160.6700  203.5670  150.0820 C   0  0  0  0  0  3  0  0  0  0  0  0
  160.7600  205.8430  150.1710 C   0  0  1  0  0  3  0  0  0  0  0  0
  161.6870  208.8990  148.8210 O   0  0  0  0  0  0  0  0  0  0  0  0
  161.9130  206.5920  148.2000 C   0  0  1  0  0  3  0  0  0  0  0  0
  161.3940  204.1310  148.8880 C   0  0  0  0  0  0  0  0  0  0  0  0
  161.4820  207.7290  149.1040 C   0  0  0  0  0  0  0  0  0  0  0  0
  161.9520  203.3540  147.8690 O   0  0  0  0  0  0  0  0  0  0  0  0
  161.1710  202.6050  146.9480 C   0  0  0  0  0  1  0  0  0  0  0  0
  1  4  1  0  0  0  0
  2  6  1  1  0  0  0
  2  8  1  0  0  0  0
  3 11  1  0  0  0  0
  3  5  1  0  0  0  0
  4 10  1  0  0  0  0
  5 12  1  6  0  0  0
  5  8  1  0  0  0  0
  6  1  1  0  0  0  0
  7  9  2  0  0  0  0
  7 10  1  0  0  0  0
  8  7  1  1  0  0  0
 11 20  1  6  0  0  0
 11  2  1  0  0  0  0
 12 13  1  1  0  0  0
 14 12  1  0  0  0  0
 14 15  1  0  0  0  0
 15 16  1  0  0  0  0
 16 17  1  0  0  0  0
 17 19  1  0  0  0  0
 19 18  1  0  0  0  0
 22 20  1  1  0  0  0
 23 26  1  0  0  0  0
 25 21  2  0  0  0  0
 26 22  1  0  0  0  0
 26 21  1  1  0  0  0
 27 30  2  0  0  0  0
 28 24  1  6  0  0  0
 28 23  1  0  0  0  0
 28 30  1  0  0  0  0
 29 23  2  0  0  0  0
 29 25  1  0  0  0  0
 30 22  1  0  0  0  0
 31 29  1  0  0  0  0
 32 31  1  0  0  0  0
M  END
>  <MODEL>
2

>  <REMARK>
 VINA RESULT:      -6.9      1.727      2.903
  Name = 
  9 active torsions:
  status: ('A' for Active; 'I' for Inactive)
    1  A    between atoms: O_2  and  C_30
    2  A    between atoms: C_7  and  N_24
    3  A    between atoms: C_7  and  C_29
    4  A    between atoms: O_8  and  C_20
    5  A    between atoms: C_11  and  C_19
    6  A    between atoms: C_13  and  C_29
    7  A    between atoms: C_16  and  C_20
    8  A    between atoms: C_16  and  N_24
    9  A    between atoms: C_19  and  C_28
                            x       y       z     vdW  Elec       q    Type
                         _______ _______ _______ _____ _____    ______ ____

>  <TORSDO>
F 9

$$$$
=
 OpenBabel11072410323D

 32 35  0  0  1  0  0  0  0  0999 V2000
  162.2410  202.7570  151.7840 C   0  0  0  0  0  2  0  0  0  0  0  0
  161.1960  204.6760  150.4690 C   0  0  2  0  0  3  0  0  0  0  0  0
  160.9520  206.1340  148.5970 N   0  0  0  0  0  2  0  0  0  0  0  0
  160.8290  202.1840  151.8350 C   0  0  0  0  0  2  0  0  0  0  0  0
  160.9690  204.7660  148.0790 C   0  0  2  0  0  3  0  0  0  0  0  0
  162.2310  204.2660  151.5170 C   0  0  0  0  0  2  0  0  0  0  0  0
  160.3980  202.6220  149.3260 C   0  0  0  0  0  0  0  0  0  0  0  0
  161.3020  203.8260  149.2340 C   0  0  2  0  0  3  0  0  0  0  0  0
  159.7350  202.2590  148.3180 O   0  0  0  0  0  0  0  0  0  0  0  0
  160.3590  201.8000  150.5040 N   0  0  0  0  0  2  0  0  0  0  0  0
  161.4290  206.0790  149.9740 C   0  0  1  0  0  3  0  0  0  0  0  0
  162.0180  204.6420  146.9740 C   0  0  2  0  0  3  0  0  0  0  0  0
  162.5450  205.8970  146.6650 O   0  0  0  0  0  1  0  0  0  0  0  0
  161.4110  204.0360  145.7210 C   0  0  0  0  0  2  0  0  0  0  0  0
  161.3360  202.5920  145.8600 N   0  0  0  0  0  2  0  0  0  0  0  0
  160.2120  202.1410  145.0570 C   0  0  0  0  0  2  0  0  0  0  0  0
  160.1900  200.6210  144.9880 C   0  0  0  0  0  2  0  0  0  0  0  0
  161.2060  198.7430  145.5500 C   0  0  0  0  0  1  0  0  0  0  0  0
  161.0980  200.0870  145.9030 O   0  0  0  0  0  0  0  0  0  0  0  0
  160.6640  207.0670  150.8400 C   0  0  0  0  0  2  0  0  0  0  0  0
  160.9350  206.4760  153.9820 C   0  0  0  0  0  3  0  0  0  0  0  0
  161.5950  207.7490  151.8320 C   0  0  2  0  0  3  0  0  0  0  0  0
  160.7020  208.7240  153.8420 C   0  0  0  0  0  0  0  0  0  0  0  0
  161.8610  210.7490  153.5500 O   0  0  0  0  0  1  0  0  0  0  0  0
  160.3590  206.9760  155.2910 C   0  0  0  0  0  2  0  0  0  0  0  0
  161.0980  207.5350  153.2080 C   0  0  0  0  0  0  0  0  0  0  0  0
  161.7760  209.8960  150.7610 O   0  0  0  0  0  0  0  0  0  0  0  0
  160.8890  209.9200  152.9900 C   0  0  1  0  0  3  0  0  0  0  0  0
  160.2500  208.4590  155.0540 C   0  0  0  0  0  0  0  0  0  0  0  0
  161.4470  209.2570  151.7480 C   0  0  0  0  0  0  0  0  0  0  0  0
  159.7440  209.3680  155.9870 O   0  0  0  0  0  0  0  0  0  0  0  0
  160.3840  209.6470  157.2250 C   0  0  0  0  0  1  0  0  0  0  0  0
  1  4  1  0  0  0  0
  2  6  1  1  0  0  0
  3 11  1  0  0  0  0
  5 12  1  6  0  0  0
  5  3  1  0  0  0  0
  5  8  1  0  0  0  0
  6  1  1  0  0  0  0
  7 10  1  0  0  0  0
  8  7  1  1  0  0  0
  8  2  1  0  0  0  0
  9  7  2  0  0  0  0
 10  4  1  0  0  0  0
 11  2  1  0  0  0  0
 11 20  1  1  0  0  0
 12 13  1  6  0  0  0
 14 15  1  0  0  0  0
 14 12  1  0  0  0  0
 16 15  1  0  0  0  0
 17 16  1  0  0  0  0
 17 19  1  0  0  0  0
 18 19  1  0  0  0  0
 21 25  1  0  0  0  0
 22 20  1  6  0  0  0
 22 26  1  0  0  0  0
 23 29  2  0  0  0  0
 26 23  1  0  0  0  0
 26 21  2  0  0  0  0
 27 30  2  0  0  0  0
 28 24  1  1  0  0  0
 28 23  1  0  0  0  0
 29 25  1  0  0  0  0
 29 31  1  0  0  0  0
 30 22  1  0  0  0  0
 30 28  1  0  0  0  0
 31 32  1  0  0  0  0
M  END
>  <MODEL>
3

>  <REMARK>
 VINA RESULT:      -6.7      3.183      8.650
  Name = 
  9 active torsions:
  status: ('A' for Active; 'I' for Inactive)
    1  A    between atoms: O_2  and  C_30
    2  A    between atoms: C_7  and  N_24
    3  A    between atoms: C_7  and  C_29
    4  A    between atoms: O_8  and  C_20
    5  A    between atoms: C_11  and  C_19
    6  A    between atoms: C_13  and  C_29
    7  A    between atoms: C_16  and  C_20
    8  A    between atoms: C_16  and  N_24
    9  A    between atoms: C_19  and  C_28
                            x       y       z     vdW  Elec       q    Type
                         _______ _______ _______ _____ _____    ______ ____

>  <TORSDO>
F 9

$$$$
=
 OpenBabel11072410323D

 32 35  0  0  1  0  0  0  0  0999 V2000
  162.5100  203.1020  151.7970 C   0  0  0  0  0  2  0  0  0  0  0  0
  161.2750  205.1660  150.9500 C   0  0  2  0  0  3  0  0  0  0  0  0
  160.8490  206.9620  149.4400 N   0  0  0  0  0  2  0  0  0  0  0  0
  161.1470  202.4200  151.7620 C   0  0  0  0  0  2  0  0  0  0  0  0
  160.9420  205.7400  148.6410 C   0  0  2  0  0  3  0  0  0  0  0  0
  162.3800  204.6270  151.8600 C   0  0  0  0  0  2  0  0  0  0  0  0
  160.5800  203.3420  149.4160 C   0  0  0  0  0  0  0  0  0  0  0  0
  161.3910  204.6070  149.5610 C   0  0  2  0  0  3  0  0  0  0  0  0
  159.9030  203.1480  148.3710 O   0  0  0  0  0  0  0  0  0  0  0  0
  160.6500  202.2900  150.3920 N   0  0  0  0  0  2  0  0  0  0  0  0
  161.3860  206.6550  150.7610 C   0  0  1  0  0  3  0  0  0  0  0  0
  161.9500  205.9350  147.5090 C   0  0  2  0  0  3  0  0  0  0  0  0
  162.7120  207.0830  147.7330 O   0  0  0  0  0  1  0  0  0  0  0  0
  161.2400  206.0630  146.1730 C   0  0  0  0  0  2  0  0  0  0  0  0
  162.0750  205.5170  145.1180 N   0  0  0  0  0  2  0  0  0  0  0  0
  162.2340  204.0980  145.3880 C   0  0  0  0  0  2  0  0  0  0  0  0
  160.9270  203.3630  145.1340 C   0  0  0  0  0  2  0  0  0  0  0  0
  159.9650  201.3810  144.9790 C   0  0  0  0  0  1  0  0  0  0  0  0
  161.0170  202.0500  145.6010 O   0  0  0  0  0  0  0  0  0  0  0  0
  160.5880  207.3740  151.8370 C   0  0  0  0  0  2  0  0  0  0  0  0
  160.4570  206.9000  155.0070 C   0  0  0  0  0  3  0  0  0  0  0  0
  161.5140  207.9540  152.8980 C   0  0  2  0  0  3  0  0  0  0  0  0
  160.5920  209.1470  154.7720 C   0  0  0  0  0  0  0  0  0  0  0  0
  162.0750  210.9570  154.5370 O   0  0  0  0  0  1  0  0  0  0  0  0
  159.8420  207.5430  156.2330 C   0  0  0  0  0  2  0  0  0  0  0  0
  160.8580  207.8840  154.2210 C   0  0  0  0  0  0  0  0  0  0  0  0
  162.1300  209.9950  151.7830 O   0  0  0  0  0  0  0  0  0  0  0  0
  161.0450  210.2590  153.9060 C   0  0  1  0  0  3  0  0  0  0  0  0
  159.9890  209.0120  155.9380 C   0  0  0  0  0  0  0  0  0  0  0  0
  161.6110  209.4610  152.7510 C   0  0  0  0  0  0  0  0  0  0  0  0
  159.5420  210.0320  156.7850 O   0  0  0  0  0  0  0  0  0  0  0  0
  158.6370  211.0450  156.3690 C   0  0  0  0  0  1  0  0  0  0  0  0
  1  6  1  0  0  0  0
  2  6  1  1  0  0  0
  3 11  1  0  0  0  0
  4  1  1  0  0  0  0
  5 12  1  6  0  0  0
  5  3  1  0  0  0  0
  5  8  1  0  0  0  0
  7 10  1  0  0  0  0
  8  7  1  1  0  0  0
  8  2  1  0  0  0  0
  9  7  2  0  0  0  0
 10  4  1  0  0  0  0
 11  2  1  0  0  0  0
 11 20  1  1  0  0  0
 12 13  1  1  0  0  0
 14 12  1  0  0  0  0
 15 16  1  0  0  0  0
 15 14  1  0  0  0  0
 17 16  1  0  0  0  0
 17 19  1  0  0  0  0
 18 19  1  0  0  0  0
 21 25  1  0  0  0  0
 22 20  1  6  0  0  0
 22 26  1  0  0  0  0
 23 29  2  0  0  0  0
 26 23  1  0  0  0  0
 26 21  2  0  0  0  0
 27 30  2  0  0  0  0
 28 24  1  1  0  0  0
 28 23  1  0  0  0  0
 29 25  1  0  0  0  0
 29 31  1  0  0  0  0
 30 22  1  0  0  0  0
 30 28  1  0  0  0  0
 32 31  1  0  0  0  0
M  END
>  <MODEL>
4

>  <REMARK>
 VINA RESULT:      -6.4      3.029      8.111
  Name = 
  9 active torsions:
  status: ('A' for Active; 'I' for Inactive)
    1  A    between atoms: O_2  and  C_30
    2  A    between atoms: C_7  and  N_24
    3  A    between atoms: C_7  and  C_29
    4  A    between atoms: O_8  and  C_20
    5  A    between atoms: C_11  and  C_19
    6  A    between atoms: C_13  and  C_29
    7  A    between atoms: C_16  and  C_20
    8  A    between atoms: C_16  and  N_24
    9  A    between atoms: C_19  and  C_28
                            x       y       z     vdW  Elec       q    Type
                         _______ _______ _______ _____ _____    ______ ____

>  <TORSDO>
F 9

$$$$
=
 OpenBabel11072410323D

 32 35  0  0  1  0  0  0  0  0999 V2000
  162.3830  211.3930  149.7340 C   0  0  0  0  0  2  0  0  0  0  0  0
  161.1680  209.8100  151.3230 C   0  0  2  0  0  3  0  0  0  0  0  0
  160.6790  208.8260  153.4390 N   0  0  0  0  0  2  0  0  0  0  0  0
  160.9920  211.9020  149.3710 C   0  0  0  0  0  2  0  0  0  0  0  0
  160.6350  210.2780  153.6180 C   0  0  2  0  0  3  0  0  0  0  0  0
  162.3310  209.9890  150.3460 C   0  0  0  0  0  2  0  0  0  0  0  0
  160.2400  212.0540  151.8380 C   0  0  0  0  0  0  0  0  0  0  0  0
  161.1190  210.9290  152.3240 C   0  0  2  0  0  3  0  0  0  0  0  0
  159.4540  212.6270  152.6390 O   0  0  0  0  0  0  0  0  0  0  0  0
  160.3570  212.5750  150.5030 N   0  0  0  0  0  2  0  0  0  0  0  0
  161.3290  208.5690  152.1590 C   0  0  1  0  0  3  0  0  0  0  0  0
  161.5340  210.6850  154.7850 C   0  0  2  0  0  3  0  0  0  0  0  0
  162.0200  209.5520  155.4390 O   0  0  0  0  0  1  0  0  0  0  0  0
  160.7710  211.5430  155.7780 C   0  0  0  0  0  2  0  0  0  0  0  0
  159.4130  211.0450  155.9160 N   0  0  0  0  0  2  0  0  0  0  0  0
  158.5260  212.1960  155.8630 C   0  0  0  0  0  2  0  0  0  0  0  0
  157.2050  211.8740  156.5450 C   0  0  0  0  0  2  0  0  0  0  0  0
  156.0580  212.6960  154.8460 C   0  0  0  0  0  1  0  0  0  0  0  0
  156.2450  211.5330  155.5910 O   0  0  0  0  0  0  0  0  0  0  0  0
  160.6760  207.3860  151.4620 C   0  0  0  0  0  2  0  0  0  0  0  0
  161.6370  205.8530  148.8130 C   0  0  0  0  0  3  0  0  0  0  0  0
  161.6430  206.2130  151.3720 C   0  0  2  0  0  3  0  0  0  0  0  0
  160.9860  204.2050  150.2220 C   0  0  0  0  0  0  0  0  0  0  0  0
  161.6910  202.7990  151.9700 O   0  0  0  0  0  1  0  0  0  0  0  0
  161.2400  204.6490  147.9840 C   0  0  0  0  0  3  0  0  0  0  0  0
  161.4610  205.5190  150.0790 C   0  0  1  0  0  3  0  0  0  0  0  0
  161.2330  205.2240  153.5260 O   0  0  0  0  0  0  0  0  0  0  0  0
  160.7930  203.8130  151.6360 C   0  0  1  0  0  3  0  0  0  0  0  0
  160.8260  203.6520  149.0330 C   0  0  0  0  0  0  0  0  0  0  0  0
  161.2150  205.1010  152.3120 C   0  0  0  0  0  0  0  0  0  0  0  0
  160.3530  202.3670  148.7530 O   0  0  0  0  0  0  0  0  0  0  0  0
  161.2010  201.2930  148.3730 C   0  0  0  0  0  1  0  0  0  0  0  0
  1  6  1  0  0  0  0
  2  6  1  6  0  0  0
  2 11  1  0  0  0  0
  2  8  1  0  0  0  0
  3  5  1  0  0  0  0
  4  1  1  0  0  0  0
  4 10  1  0  0  0  0
  5 12  1  1  0  0  0
  7  9  2  0  0  0  0
  8  7  1  6  0  0  0
  8  5  1  0  0  0  0
 10  7  1  0  0  0  0
 11 20  1  6  0  0  0
 11  3  1  0  0  0  0
 12 13  1  1  0  0  0
 12 14  1  0  0  0  0
 14 15  1  0  0  0  0
 16 15  1  0  0  0  0
 16 17  1  0  0  0  0
 18 19  1  0  0  0  0
 19 17  1  0  0  0  0
 22 20  1  6  0  0  0
 22 30  1  0  0  0  0
 23 28  1  0  0  0  0
 25 21  2  0  0  0  0
 25 29  1  0  0  0  0
 26 21  1  6  0  0  0
 26 23  1  0  0  0  0
 26 22  1  0  0  0  0
 28 24  1  1  0  0  0
 28 30  1  0  0  0  0
 29 23  2  0  0  0  0
 30 27  2  0  0  0  0
 31 29  1  0  0  0  0
 32 31  1  0  0  0  0
M  END
>  <MODEL>
5

>  <REMARK>
 VINA RESULT:      -6.0      2.458      4.804
  Name = 
  9 active torsions:
  status: ('A' for Active; 'I' for Inactive)
    1  A    between atoms: O_2  and  C_30
    2  A    between atoms: C_7  and  N_24
    3  A    between atoms: C_7  and  C_29
    4  A    between atoms: O_8  and  C_20
    5  A    between atoms: C_11  and  C_19
    6  A    between atoms: C_13  and  C_29
    7  A    between atoms: C_16  and  C_20
    8  A    between atoms: C_16  and  N_24
    9  A    between atoms: C_19  and  C_28
                            x       y       z     vdW  Elec       q    Type
                         _______ _______ _______ _____ _____    ______ ____

>  <TORSDO>
F 9

$$$$
=
 OpenBabel11072410323D

 32 35  0  0  1  0  0  0  0  0999 V2000
  160.2970  206.5750  146.9360 C   0  0  0  0  0  2  0  0  0  0  0  0
  161.2530  205.7500  149.1520 C   0  0  2  0  0  3  0  0  0  0  0  0
  161.4680  204.2410  150.9870 N   0  0  0  0  0  2  0  0  0  0  0  0
  161.7440  206.5850  146.4540 C   0  0  0  0  0  2  0  0  0  0  0  0
  161.5740  203.4490  149.7610 C   0  0  2  0  0  3  0  0  0  0  0  0
  160.2080  206.6300  148.4650 C   0  0  0  0  0  2  0  0  0  0  0  0
  162.2470  204.2510  147.4410 C   0  0  0  0  0  0  0  0  0  0  0  0
  161.2620  204.3620  148.5780 C   0  0  2  0  0  3  0  0  0  0  0  0
  162.9770  203.2290  147.3420 O   0  0  0  0  0  0  0  0  0  0  0  0
  162.2960  205.2320  146.3920 N   0  0  0  0  0  2  0  0  0  0  0  0
  160.9390  205.5480  150.6100 C   0  0  1  0  0  3  0  0  0  0  0  0
  160.5830  202.2850  149.8080 C   0  0  2  0  0  3  0  0  0  0  0  0
  161.0520  201.2860  150.6620 O   0  0  0  0  0  1  0  0  0  0  0  0
  160.3770  201.6980  148.4230 C   0  0  0  0  0  2  0  0  0  0  0  0
  161.2310  200.5360  148.2500 N   0  0  0  0  0  2  0  0  0  0  0  0
  161.2060  200.1920  146.8380 C   0  0  0  0  0  2  0  0  0  0  0  0
  160.8310  201.4080  146.0040 C   0  0  0  0  0  2  0  0  0  0  0  0
  159.3960  202.1750  144.5110 C   0  0  0  0  0  1  0  0  0  0  0  0
  160.0650  201.0170  144.9050 O   0  0  0  0  0  0  0  0  0  0  0  0
  161.5930  206.6430  151.4380 C   0  0  0  0  0  2  0  0  0  0  0  0
  160.6160  209.6430  152.0140 C   0  0  0  0  0  3  0  0  0  0  0  0
  160.6580  207.1140  152.5430 C   0  0  2  0  0  3  0  0  0  0  0  0
  161.3450  208.8860  154.0190 C   0  0  0  0  0  0  0  0  0  0  0  0
  160.7200  207.7120  155.9580 O   0  0  0  0  0  1  0  0  0  0  0  0
  161.0270  210.8370  152.8500 C   0  0  0  0  0  2  0  0  0  0  0  0
  160.8300  208.5680  152.7520 C   0  0  0  0  0  0  0  0  0  0  0  0
  161.1450  205.4290  154.1900 O   0  0  0  0  0  0  0  0  0  0  0  0
  161.5800  207.6920  154.8600 C   0  0  1  0  0  3  0  0  0  0  0  0
  161.4930  210.1930  154.1290 C   0  0  0  0  0  0  0  0  0  0  0  0
  161.1380  206.6130  153.8930 C   0  0  0  0  0  0  0  0  0  0  0  0
  161.9960  210.8990  155.2260 O   0  0  0  0  0  0  0  0  0  0  0  0
  161.1670  211.4600  156.2350 C   0  0  0  0  0  1  0  0  0  0  0  0
  1  6  1  0  0  0  0
  2  6  1  6  0  0  0
  2 11  1  0  0  0  0
  4  1  1  0  0  0  0
  5 12  1  1  0  0  0
  5  3  1  0  0  0  0
  8  7  1  6  0  0  0
  8  2  1  0  0  0  0
  8  5  1  0  0  0  0
  9  7  2  0  0  0  0
 10  4  1  0  0  0  0
 10  7  1  0  0  0  0
 11  3  1  0  0  0  0
 11 20  1  1  0  0  0
 12 13  1  1  0  0  0
 14 12  1  0  0  0  0
 15 14  1  0  0  0  0
 16 15  1  0  0  0  0
 17 16  1  0  0  0  0
 18 19  1  0  0  0  0
 19 17  1  0  0  0  0
 21 26  2  0  0  0  0
 21 25  1  0  0  0  0
 22 20  1  6  0  0  0
 22 26  1  0  0  0  0
 22 30  1  0  0  0  0
 23 29  2  0  0  0  0
 23 28  1  0  0  0  0
 25 29  1  0  0  0  0
 26 23  1  0  0  0  0
 28 24  1  1  0  0  0
 29 31  1  0  0  0  0
 30 27  2  0  0  0  0
 30 28  1  0  0  0  0
 31 32  1  0  0  0  0
M  END
>  <MODEL>
6

>  <REMARK>
 VINA RESULT:      -5.6      3.463      9.123
  Name = 
  9 active torsions:
  status: ('A' for Active; 'I' for Inactive)
    1  A    between atoms: O_2  and  C_30
    2  A    between atoms: C_7  and  N_24
    3  A    between atoms: C_7  and  C_29
    4  A    between atoms: O_8  and  C_20
    5  A    between atoms: C_11  and  C_19
    6  A    between atoms: C_13  and  C_29
    7  A    between atoms: C_16  and  C_20
    8  A    between atoms: C_16  and  N_24
    9  A    between atoms: C_19  and  C_28
                            x       y       z     vdW  Elec       q    Type
                         _______ _______ _______ _____ _____    ______ ____

>  <TORSDO>
F 9

$$$$
=
 OpenBabel11072410323D

 32 35  0  0  1  0  0  0  0  0999 V2000
  162.8490  209.6360  150.4380 C   0  0  0  0  0  2  0  0  0  0  0  0
  161.2970  207.9310  151.5280 C   0  0  2  0  0  3  0  0  0  0  0  0
  160.4560  206.6150  153.3300 N   0  0  0  0  0  2  0  0  0  0  0  0
  161.5710  210.3740  150.0530 C   0  0  0  0  0  2  0  0  0  0  0  0
  160.5350  207.9970  153.8050 C   0  0  2  0  0  3  0  0  0  0  0  0
  162.5830  208.1560  150.7320 C   0  0  0  0  0  2  0  0  0  0  0  0
  160.5400  210.1250  152.4090 C   0  0  0  0  0  0  0  0  0  0  0  0
  161.2370  208.8270  152.7330 C   0  0  2  0  0  3  0  0  0  0  0  0
  159.7230  210.6200  153.2300 O   0  0  0  0  0  0  0  0  0  0  0  0
  160.8710  210.8820  151.2330 N   0  0  0  0  0  2  0  0  0  0  0  0
  161.2300  206.5390  152.0960 C   0  0  1  0  0  3  0  0  0  0  0  0
  161.3200  208.0520  155.1150 C   0  0  2  0  0  3  0  0  0  0  0  0
  160.9370  207.0030  155.9530 O   0  0  0  0  0  1  0  0  0  0  0  0
  161.0830  209.3700  155.8300 C   0  0  0  0  0  2  0  0  0  0  0  0
  159.7140  209.4280  156.3130 N   0  0  0  0  0  2  0  0  0  0  0  0
  159.5140  210.7500  156.8830 C   0  0  0  0  0  2  0  0  0  0  0  0
  158.2820  211.4050  156.2760 C   0  0  0  0  0  2  0  0  0  0  0  0
  159.7120  213.0750  156.0680 C   0  0  0  0  0  1  0  0  0  0  0  0
  158.3820  212.7940  156.3740 O   0  0  0  0  0  0  0  0  0  0  0  0
  160.5530  205.6070  151.1040 C   0  0  0  0  0  2  0  0  0  0  0  0
  161.8360  204.9180  148.2450 C   0  0  0  0  0  3  0  0  0  0  0  0
  161.4630  204.4370  150.7570 C   0  0  2  0  0  3  0  0  0  0  0  0
  160.8960  202.9770  148.9310 C   0  0  0  0  0  0  0  0  0  0  0  0
  161.2510  201.0230  150.1910 O   0  0  0  0  0  1  0  0  0  0  0  0
  161.5140  204.0880  147.0200 C   0  0  0  0  0  3  0  0  0  0  0  0
  161.4500  204.2140  149.2950 C   0  0  1  0  0  3  0  0  0  0  0  0
  160.6770  202.8530  152.3890 O   0  0  0  0  0  0  0  0  0  0  0  0
  160.4670  202.1730  150.0980 C   0  0  1  0  0  3  0  0  0  0  0  0
  160.8950  202.8520  147.6170 C   0  0  0  0  0  0  0  0  0  0  0  0
  160.8420  203.1290  151.2110 C   0  0  0  0  0  0  0  0  0  0  0  0
  160.4080  201.7770  146.8670 O   0  0  0  0  0  0  0  0  0  0  0  0
  161.2060  200.6590  146.5060 C   0  0  0  0  0  1  0  0  0  0  0  0
  1  6  1  0  0  0  0
  2  6  1  1  0  0  0
  2 11  1  0  0  0  0
  2  8  1  0  0  0  0
  3  5  1  0  0  0  0
  4  1  1  0  0  0  0
  4 10  1  0  0  0  0
  5 12  1  1  0  0  0
  7  9  2  0  0  0  0
  8  7  1  6  0  0  0
  8  5  1  0  0  0  0
 10  7  1  0  0  0  0
 11 20  1  6  0  0  0
 11  3  1  0  0  0  0
 12 14  1  0  0  0  0
 12 13  1  1  0  0  0
 14 15  1  0  0  0  0
 15 16  1  0  0  0  0
 17 19  1  0  0  0  0
 17 16  1  0  0  0  0
 18 19  1  0  0  0  0
 22 20  1  6  0  0  0
 22 30  1  0  0  0  0
 23 26  1  0  0  0  0
 23 28  1  0  0  0  0
 25 29  1  0  0  0  0
 25 21  2  0  0  0  0
 26 21  1  6  0  0  0
 26 22  1  0  0  0  0
 28 24  1  1  0  0  0
 28 30  1  0  0  0  0
 29 23  2  0  0  0  0
 30 27  2  0  0  0  0
 31 29  1  0  0  0  0
 32 31  1  0  0  0  0
M  END
>  <MODEL>
7

>  <REMARK>
 VINA RESULT:      -5.5      2.492      4.880
  Name = 
  9 active torsions:
  status: ('A' for Active; 'I' for Inactive)
    1  A    between atoms: O_2  and  C_30
    2  A    between atoms: C_7  and  N_24
    3  A    between atoms: C_7  and  C_29
    4  A    between atoms: O_8  and  C_20
    5  A    between atoms: C_11  and  C_19
    6  A    between atoms: C_13  and  C_29
    7  A    between atoms: C_16  and  C_20
    8  A    between atoms: C_16  and  N_24
    9  A    between atoms: C_19  and  C_28
                            x       y       z     vdW  Elec       q    Type
                         _______ _______ _______ _____ _____    ______ ____

>  <TORSDO>
F 9

$$$$
=
 OpenBabel11072410323D

 32 35  0  0  1  0  0  0  0  0999 V2000
  159.7080  204.4280  151.6250 C   0  0  0  0  0  2  0  0  0  0  0  0
  161.3120  205.3370  149.8630 C   0  0  2  0  0  3  0  0  0  0  0  0
  162.3120  207.0360  148.5210 N   0  0  0  0  0  2  0  0  0  0  0  0
  160.9580  203.8850  152.3080 C   0  0  0  0  0  2  0  0  0  0  0  0
  162.3470  207.5050  149.9070 C   0  0  2  0  0  3  0  0  0  0  0  0
  159.9490  204.7010  150.1370 C   0  0  0  0  0  2  0  0  0  0  0  0
  162.2570  206.1000  152.0270 C   0  0  0  0  0  0  0  0  0  0  0  0
  161.5540  206.5180  150.7600 C   0  0  2  0  0  3  0  0  0  0  0  0
  163.1880  206.8120  152.4910 O   0  0  0  0  0  0  0  0  0  0  0  0
  161.8160  204.9660  152.7920 N   0  0  0  0  0  2  0  0  0  0  0  0
  161.3920  205.9060  148.4710 C   0  0  1  0  0  3  0  0  0  0  0  0
  161.7300  208.9000  149.9980 C   0  0  2  0  0  3  0  0  0  0  0  0
  161.9560  209.6070  148.8160 O   0  0  0  0  0  1  0  0  0  0  0  0
  162.3240  209.6750  151.1610 C   0  0  0  0  0  2  0  0  0  0  0  0
  161.2670  210.3540  151.8900 N   0  0  0  0  0  2  0  0  0  0  0  0
  160.5320  209.3390  152.6270 C   0  0  0  0  0  2  0  0  0  0  0  0
  161.0130  209.2830  154.0690 C   0  0  0  0  0  2  0  0  0  0  0  0
  160.1450  208.3150  155.8530 C   0  0  0  0  0  1  0  0  0  0  0  0
  160.7280  208.0330  154.6200 O   0  0  0  0  0  0  0  0  0  0  0  0
  161.9040  204.8460  147.5080 C   0  0  0  0  0  2  0  0  0  0  0  0
  160.9880  202.0580  148.8030 C   0  0  0  0  0  3  0  0  0  0  0  0
  160.7700  203.9420  147.0470 C   0  0  2  0  0  3  0  0  0  0  0  0
  161.1970  201.6190  146.5920 C   0  0  0  0  0  0  0  0  0  0  0  0
  160.0830  201.6690  144.5210 O   0  0  0  0  0  1  0  0  0  0  0  0
  161.2620  200.5780  148.6370 C   0  0  0  0  0  2  0  0  0  0  0  0
  160.9690  202.5810  147.5890 C   0  0  0  0  0  0  0  0  0  0  0  0
  160.7740  204.4980  144.7060 O   0  0  0  0  0  0  0  0  0  0  0  0
  161.1690  202.1890  145.2260 C   0  0  1  0  0  3  0  0  0  0  0  0
  161.3880  200.4350  147.1430 C   0  0  0  0  0  0  0  0  0  0  0  0
  160.9000  203.6400  145.5660 C   0  0  0  0  0  0  0  0  0  0  0  0
  161.6650  199.2300  146.4900 O   0  0  0  0  0  0  0  0  0  0  0  0
  160.8460  198.7010  145.4570 C   0  0  0  0  0  1  0  0  0  0  0  0
  1  4  1  0  0  0  0
  2  6  1  1  0  0  0
  2  8  1  0  0  0  0
  3  5  1  0  0  0  0
  4 10  1  0  0  0  0
  5 12  1  6  0  0  0
  5  8  1  0  0  0  0
  6  1  1  0  0  0  0
  7  9  2  0  0  0  0
  7 10  1  0  0  0  0
  8  7  1  1  0  0  0
 11 20  1  6  0  0  0
 11  3  1  0  0  0  0
 11  2  1  0  0  0  0
 12 13  1  6  0  0  0
 12 14  1  0  0  0  0
 14 15  1  0  0  0  0
 15 16  1  0  0  0  0
 16 17  1  0  0  0  0
 17 19  1  0  0  0  0
 19 18  1  0  0  0  0
 22 20  1  1  0  0  0
 22 26  1  0  0  0  0
 23 29  2  0  0  0  0
 23 26  1  0  0  0  0
 25 21  1  0  0  0  0
 26 21  2  0  0  0  0
 27 30  2  0  0  0  0
 28 24  1  6  0  0  0
 28 30  1  0  0  0  0
 28 23  1  0  0  0  0
 29 25  1  0  0  0  0
 30 22  1  0  0  0  0
 31 29  1  0  0  0  0
 32 31  1  0  0  0  0
M  END
>  <MODEL>
8

>  <REMARK>
 VINA RESULT:      -4.8      2.569      5.208
  Name = 
  9 active torsions:
  status: ('A' for Active; 'I' for Inactive)
    1  A    between atoms: O_2  and  C_30
    2  A    between atoms: C_7  and  N_24
    3  A    between atoms: C_7  and  C_29
    4  A    between atoms: O_8  and  C_20
    5  A    between atoms: C_11  and  C_19
    6  A    between atoms: C_13  and  C_29
    7  A    between atoms: C_16  and  C_20
    8  A    between atoms: C_16  and  N_24
    9  A    between atoms: C_19  and  C_28
                            x       y       z     vdW  Elec       q    Type
                         _______ _______ _______ _____ _____    ______ ____

>  <TORSDO>
F 9

$$$$
=
 OpenBabel11072410323D

 32 35  0  0  1  0  0  0  0  0999 V2000
  162.3700  204.6760  152.3860 C   0  0  0  0  0  2  0  0  0  0  0  0
  161.8630  207.0630  151.6460 C   0  0  2  0  0  3  0  0  0  0  0  0
  161.9650  208.9390  150.1770 N   0  0  0  0  0  2  0  0  0  0  0  0
  160.8570  204.5080  152.4660 C   0  0  0  0  0  2  0  0  0  0  0  0
  161.5660  207.7830  149.3730 C   0  0  2  0  0  3  0  0  0  0  0  0
  162.7810  206.1500  152.4590 C   0  0  0  0  0  2  0  0  0  0  0  0
  160.4600  205.6360  150.1760 C   0  0  0  0  0  0  0  0  0  0  0  0
  161.6670  206.5390  150.2520 C   0  0  2  0  0  3  0  0  0  0  0  0
  159.6770  205.7180  149.1930 O   0  0  0  0  0  0  0  0  0  0  0  0
  160.2390  204.5960  151.1440 N   0  0  0  0  0  2  0  0  0  0  0  0
  162.4660  208.4280  151.4480 C   0  0  1  0  0  3  0  0  0  0  0  0
  162.4860  207.6520  148.1600 C   0  0  2  0  0  3  0  0  0  0  0  0
  162.9600  208.9060  147.7750 O   0  0  0  0  0  1  0  0  0  0  0  0
  161.7500  207.0190  146.9930 C   0  0  0  0  0  2  0  0  0  0  0  0
  162.3020  205.7040  146.7170 N   0  0  0  0  0  2  0  0  0  0  0  0
  162.2120  205.4920  145.2820 C   0  0  0  0  0  2  0  0  0  0  0  0
  161.5680  204.1460  144.9870 C   0  0  0  0  0  2  0  0  0  0  0  0
  160.8210  202.2350  145.8030 C   0  0  0  0  0  1  0  0  0  0  0  0
  161.6180  203.3330  146.1200 O   0  0  0  0  0  0  0  0  0  0  0  0
  162.0550  209.3460  152.5880 C   0  0  0  0  0  2  0  0  0  0  0  0
  159.3300  211.0270  152.3810 C   0  0  0  0  0  3  0  0  0  0  0  0
  160.6850  208.9560  153.1260 C   0  0  2  0  0  3  0  0  0  0  0  0
  159.4900  210.4660  154.5680 C   0  0  0  0  0  0  0  0  0  0  0  0
  159.0000  208.7980  156.1520 O   0  0  0  0  0  1  0  0  0  0  0  0
  158.5530  212.0450  153.1900 C   0  0  0  0  0  3  0  0  0  0  0  0
  159.8360  210.1610  153.2420 C   0  0  1  0  0  3  0  0  0  0  0  0
  161.3850  207.5920  154.9800 O   0  0  0  0  0  0  0  0  0  0  0  0
  160.0420  209.4990  155.5430 C   0  0  1  0  0  3  0  0  0  0  0  0
  158.7530  211.5610  154.6010 C   0  0  0  0  0  0  0  0  0  0  0  0
  160.7800  208.5790  154.5930 C   0  0  0  0  0  0  0  0  0  0  0  0
  158.2310  212.1970  155.7320 O   0  0  0  0  0  0  0  0  0  0  0  0
  157.0260  211.7910  156.3650 C   0  0  0  0  0  1  0  0  0  0  0  0
  1  6  1  0  0  0  0
  1  4  1  0  0  0  0
  2  6  1  1  0  0  0
  3 11  1  0  0  0  0
  5 12  1  6  0  0  0
  5  3  1  0  0  0  0
  5  8  1  0  0  0  0
  7 10  1  0  0  0  0
  8  7  1  1  0  0  0
  8  2  1  0  0  0  0
  9  7  2  0  0  0  0
 10  4  1  0  0  0  0
 11  2  1  0  0  0  0
 11 20  1  1  0  0  0
 12 13  1  6  0  0  0
 14 12  1  0  0  0  0
 15 14  1  0  0  0  0
 16 15  1  0  0  0  0
 17 16  1  0  0  0  0
 17 19  1  0  0  0  0
 18 19  1  0  0  0  0
 21 25  2  0  0  0  0
 22 20  1  1  0  0  0
 22 26  1  0  0  0  0
 22 30  1  0  0  0  0
 23 29  2  0  0  0  0
 23 28  1  0  0  0  0
 25 29  1  0  0  0  0
 26 21  1  1  0  0  0
 26 23  1  0  0  0  0
 28 24  1  6  0  0  0
 29 31  1  0  0  0  0
 30 27  2  0  0  0  0
 30 28  1  0  0  0  0
 31 32  1  0  0  0  0
M  END
>  <MODEL>
9

>  <REMARK>
 VINA RESULT:      -4.6      2.675      7.789
  Name = 
  9 active torsions:
  status: ('A' for Active; 'I' for Inactive)
    1  A    between atoms: O_2  and  C_30
    2  A    between atoms: C_7  and  N_24
    3  A    between atoms: C_7  and  C_29
    4  A    between atoms: O_8  and  C_20
    5  A    between atoms: C_11  and  C_19
    6  A    between atoms: C_13  and  C_29
    7  A    between atoms: C_16  and  C_20
    8  A    between atoms: C_16  and  N_24
    9  A    between atoms: C_19  and  C_28
                            x       y       z     vdW  Elec       q    Type
                         _______ _______ _______ _____ _____    ______ ____

>  <TORSDO>
F 9

$$$$
