=
 OpenBabel11072413123D

 34 38  0  0  1  0  0  0  0  0999 V2000
  161.7250  207.1290  147.5170 C   0  0  0  0  0  1  0  0  0  0  0  0
  161.3030  207.9730  153.9990 C   0  0  0  0  0  0  0  0  0  0  0  0
  161.5740  208.7830  151.7190 C   0  0  0  0  0  0  0  0  0  0  0  0
  161.3080  206.6620  153.5390 C   0  0  0  0  0  3  0  0  0  0  0  0
  161.4290  206.3960  152.1740 C   0  0  0  0  0  0  0  0  0  0  0  0
  161.6910  209.9040  151.0170 C   0  0  0  0  0  3  0  0  0  0  0  0
  159.5170  212.0340  151.2340 O   0  0  0  0  0  0  0  0  0  0  0  0
  156.9220  212.5590  151.9870 O   0  0  0  0  0  1  0  0  0  0  0  0
  158.4050  211.5540  154.5490 N   0  0  2  0  0  0  0  0  0  0  0  0
  158.1090  211.7260  156.8930 C   0  0  0  0  0  3  0  0  0  0  0  0
  159.0720  211.3080  155.8340 C   0  0  1  0  0  3  0  0  0  0  0  0
  161.7740  210.2130  149.5890 C   0  0  0  0  0  0  0  0  0  0  0  0
  161.4500  209.0130  153.0880 C   0  0  0  0  0  3  0  0  0  0  0  0
  158.7030  214.4530  151.8640 O   0  0  0  0  0  0  0  0  0  0  0  0
  156.9430  212.0220  156.3590 C   0  0  0  0  0  3  0  0  0  0  0  0
  158.5370  212.9940  152.2340 P   0  0  2  0  0  0  0  0  0  0  0  0
  161.8560  211.6580  149.1800 C   0  0  0  0  0  0  0  0  0  0  0  0
  160.1910  209.5380  157.2250 C   0  0  0  0  0  2  0  0  0  0  0  0
  160.8690  209.5940  155.8760 C   0  0  1  0  0  3  0  0  0  0  0  0
  160.7990  212.5850  151.3170 C   0  0  0  0  0  2  0  0  0  0  0  0
  161.4240  212.6730  149.9580 C   0  0  0  0  0  3  0  0  0  0  0  0
  161.1070  208.2430  155.3880 N   0  0  0  0  0  2  0  0  0  0  0  0
  161.6960  207.8730  148.7620 N   0  0  0  0  0  0  0  0  0  0  0  0
  159.3720  209.8180  155.9750 C   0  0  2  0  0  3  0  0  0  0  0  0
  161.4230  205.0660  151.7600 O   0  0  0  0  0  1  0  0  0  0  0  0
  161.5420  207.4500  151.2320 C   0  0  0  0  0  0  0  0  0  0  0  0
  161.6050  207.0790  149.9470 C   0  0  0  0  0  3  0  0  0  0  0  0
  158.9760  212.7810  153.9970 C   0  0  0  0  0  2  0  0  0  0  0  0
  157.0070  211.8390  154.8880 C   0  0  0  0  0  2  0  0  0  0  0  0
  161.7590  209.2920  148.6280 C   0  0  0  0  0  3  0  0  0  0  0  0
  163.6990  211.9400  147.6830 O   0  0  0  0  0  0  0  0  0  0  0  0
  162.4580  212.0390  147.8700 C   0  0  0  0  0  0  0  0  0  0  0  0
  160.3750  211.9770  146.7530 O   0  0  0  0  0  1  0  0  0  0  0  0
  161.6220  212.6010  146.7640 C   0  0  0  0  0  2  0  0  0  0  0  0
  1 23  1  0  0  0  0
  2 22  1  0  0  0  0
  3 13  1  0  0  0  0
  4  2  1  0  0  0  0
  5  4  2  0  0  0  0
  6  3  2  0  0  0  0
  7 20  1  0  0  0  0
  7 16  1  0  0  0  0
  8 16  1  0  0  0  0
  9 28  1  1  0  0  0
  9 29  1  0  0  0  0
  9 11  1  0  0  0  0
 11 24  1  0  0  0  0
 11 10  1  1  0  0  0
 12  6  1  0  0  0  0
 13  2  2  0  0  0  0
 15 10  2  0  0  0  0
 16 14  2  6  0  0  0
 16 28  1  0  0  0  0
 17 12  1  0  0  0  0
 17 21  2  0  0  0  0
 19 24  1  0  0  0  0
 19 18  1  1  0  0  0
 21 20  1  0  0  0  0
 22 19  1  0  0  0  0
 23 27  1  0  0  0  0
 24 18  1  1  0  0  0
 25  5  1  0  0  0  0
 26  3  1  0  0  0  0
 26  5  1  0  0  0  0
 27 26  2  0  0  0  0
 29 15  1  0  0  0  0
 30 23  1  0  0  0  0
 30 12  2  0  0  0  0
 31 32  2  0  0  0  0
 32 17  1  0  0  0  0
 33 34  1  0  0  0  0
 34 32  1  0  0  0  0
M  END
>  <MODEL>
1

>  <REMARK>
 VINA RESULT:      -5.8      0.000      0.000
  Name = 
  2 active torsions:
  status: ('A' for Active; 'I' for Inactive)
    1  A    between atoms: C_19  and  C_33
    2  A    between atoms: C_20  and  C_33
                            x       y       z     vdW  Elec       q    Type
                         _______ _______ _______ _____ _____    ______ ____

>  <TORSDO>
F 2

$$$$
