=
 OpenBabel11072415193D

 63 71  0  0  1  0  0  0  0  0999 V2000
  161.5770  205.6270  147.6690 C   0  0  2  0  0  3  0  0  0  0  0  0
  162.2760  207.8000  148.6630 C   0  0  2  0  0  3  0  0  0  0  0  0
  163.0030  209.7370  149.5530 O   0  0  0  0  0  0  0  0  0  0  0  0
  161.9730  211.7450  148.9780 N   0  0  0  0  0  1  0  0  0  0  0  0
  161.9000  209.2530  148.7860 C   0  0  2  0  0  0  0  0  0  0  0  0
  161.3730  210.5140  150.9590 F   0  0  0  0  0  0  0  0  0  0  0  0
  161.2880  207.1270  147.7540 C   0  0  2  0  0  3  0  0  0  0  0  0
  161.0830  208.1140  149.4970 C   0  0  1  0  0  0  0  0  0  0  0  0
  160.2240  207.4060  148.6320 O   0  0  0  0  0  0  0  0  0  0  0  0
  161.8440  210.4730  149.6640 C   0  0  1  0  0  0  0  0  0  0  0  0
  160.8140  208.1060  152.0630 C   0  0  1  0  0  3  0  0  0  0  0  0
  162.1950  208.0820  151.7480 O   0  0  0  0  0  0  0  0  0  0  0  0
  161.3420  207.4070  150.8580 C   0  0  2  0  0  0  0  0  0  0  0  0
  161.4520  203.0510  150.9510 C   0  0  0  0  0  0  0  0  0  0  0  0
  160.4810  203.7820  150.1160 C   0  0  1  0  0  3  0  0  0  0  0  0
  159.6350  201.6490  149.2860 C   0  0  0  0  0  3  0  0  0  0  0  0
  160.4810  205.1790  150.1440 O   0  0  0  0  0  0  0  0  0  0  0  0
  162.3080  203.7510  151.6960 C   0  0  0  0  0  3  0  0  0  0  0  0
  163.3110  205.9310  152.5310 C   0  0  0  0  0  1  0  0  0  0  0  0
  160.4920  200.9280  150.0170 C   0  0  0  0  0  3  0  0  0  0  0  0
  162.2930  205.2290  151.6970 C   0  0  0  0  0  0  0  0  0  0  0  0
  161.3960  205.8950  150.9330 C   0  0  0  0  0  0  0  0  0  0  0  0
  161.5030  201.5500  150.9470 C   0  0  0  0  0  3  0  0  0  0  0  0
  159.6270  203.1210  149.3370 C   0  0  0  0  0  3  0  0  0  0  0  0
  160.5680  207.2370  153.1410 O   0  0  0  0  0  0  0  0  0  0  0  0
  161.9430  208.1260  156.3930 O   0  0  0  0  0  1  0  0  0  0  0  0
  160.7350  207.9940  154.3150 C   0  0  1  0  0  0  0  0  0  0  0  0
  159.8350  207.5300  155.4370 C   0  0  0  0  0  2  0  0  0  0  0  0
  161.3300  207.2420  155.5000 C   0  0  2  0  0  3  0  0  0  0  0  0
  160.8770  209.5170  154.2100 C   0  0  0  0  0  2  0  0  0  0  0  0
  158.9860  210.9270  153.8390 O   0  0  0  0  0  1  0  0  0  0  0  0
  159.6830  210.2290  154.8270 C   0  0  0  0  0  2  0  0  0  0  0  0
  164.0300  206.0630  148.1000 O   0  0  0  0  0  1  0  0  0  0  0  0
  163.4760  204.9830  145.9930 C   0  0  0  0  0  2  0  0  0  0  0  0
  163.4340  204.0660  147.0730 O   0  0  0  0  0  0  0  0  0  0  0  0
  163.0640  205.3930  147.3480 C   0  0  2  0  0  0  0  0  0  0  0  0
  160.6250  204.9340  146.6960 C   0  0  0  0  0  2  0  0  0  0  0  0
  160.2950  205.8880  145.5630 C   0  0  0  0  0  2  0  0  0  0  0  0
  160.6100  204.1070  144.0160 O   0  0  0  0  0  0  0  0  0  0  0  0
  160.7340  205.3380  144.2540 C   0  0  0  0  0  0  0  0  0  0  0  0
  161.3150  206.2150  143.2890 N   0  0  0  0  0  2  0  0  0  0  0  0
  161.8280  205.7310  142.0160 C   0  0  0  0  0  2  0  0  0  0  0  0
  162.3650  206.8940  141.1950 C   0  0  0  0  0  2  0  0  0  0  0  0
  161.3500  207.3860  140.2730 N   0  0  0  0  0  2  0  0  0  0  0  0
  161.9410  207.4340  138.9460 C   0  0  0  0  0  2  0  0  0  0  0  0
  161.3060  208.5640  138.1490 C   0  0  1  0  0  3  0  0  0  0  0  0
  159.9380  208.6240  138.4240 O   0  0  0  0  0  1  0  0  0  0  0  0
  162.2320  210.5940  137.2350 O   0  0  0  0  0  1  0  0  0  0  0  0
  161.9510  209.9220  138.4280 C   0  0  1  0  0  3  0  0  0  0  0  0
  161.0710  210.7830  139.3180 C   0  0  0  0  0  2  0  0  0  0  0  0
  161.5830  212.0920  139.3700 O   0  0  0  0  0  0  0  0  0  0  0  0
  160.5050  212.9960  139.5230 C   0  0  1  0  0  3  0  0  0  0  0  0
  160.2280  213.6620  137.4290 C   0  0  0  0  0  1  0  0  0  0  0  0
  159.6200  212.9160  138.4400 O   0  0  0  0  0  0  0  0  0  0  0  0
  159.7680  212.8310  140.8570 C   0  0  2  0  0  3  0  0  0  0  0  0
  158.3900  212.7820  140.6460 O   0  0  0  0  0  1  0  0  0  0  0  0
  160.0990  213.9830  141.7920 C   0  0  0  0  0  2  0  0  0  0  0  0
  160.1930  213.4890  143.1950 C   0  0  0  0  0  0  0  0  0  0  0  0
  159.0730  212.9240  143.8170 C   0  0  0  0  0  3  0  0  0  0  0  0
  161.4990  213.1060  145.2010 C   0  0  0  0  0  3  0  0  0  0  0  0
  160.3770  212.5490  145.8230 C   0  0  0  0  0  3  0  0  0  0  0  0
  161.4070  213.5790  143.8890 C   0  0  0  0  0  3  0  0  0  0  0  0
  159.1650  212.4560  145.1310 C   0  0  0  0  0  3  0  0  0  0  0  0
  1 37  1  6  0  0  0
  1  7  1  0  0  0  0
  2  5  1  0  0  0  0
  2  8  1  0  0  0  0
  3 10  1  0  0  0  0
  4 10  1  0  0  0  0
  5  8  1  0  0  0  0
  5  3  1  0  0  0  0
  5 10  1  0  0  0  0
  7  9  1  0  0  0  0
  7  2  1  0  0  0  0
  8 13  1  0  0  0  0
  9  8  1  0  0  0  0
 10  6  1  0  0  0  0
 11 25  1  0  0  0  0
 12 11  1  0  0  0  0
 13 22  1  0  0  0  0
 13 12  1  0  0  0  0
 13 11  1  0  0  0  0
 14 18  2  0  0  0  0
 15 17  1  0  0  0  0
 15 14  1  0  0  0  0
 16 24  2  0  0  0  0
 16 20  1  0  0  0  0
 17 22  1  0  0  0  0
 18 21  1  0  0  0  0
 20 23  2  0  0  0  0
 21 19  1  0  0  0  0
 22 21  2  0  0  0  0
 23 14  1  0  0  0  0
 24 15  1  0  0  0  0
 25 27  1  0  0  0  0
 27 28  1  0  0  0  0
 27 29  1  0  0  0  0
 28 29  1  0  0  0  0
 29 26  1  0  0  0  0
 30 27  1  0  0  0  0
 30 32  1  0  0  0  0
 31 32  1  0  0  0  0
 34 35  1  0  0  0  0
 34 36  1  0  0  0  0
 35 36  1  0  0  0  0
 36  1  1  0  0  0  0
 36 33  1  0  0  0  0
 38 37  1  0  0  0  0
 39 40  2  0  0  0  0
 40 38  1  0  0  0  0
 41 40  1  0  0  0  0
 42 41  1  0  0  0  0
 43 42  1  0  0  0  0
 44 43  1  0  0  0  0
 45 44  1  0  0  0  0
 46 47  1  0  0  0  0
 46 49  1  0  0  0  0
 46 45  1  0  0  0  0
 48 49  1  0  0  0  0
 49 50  1  0  0  0  0
 50 51  1  0  0  0  0
 51 52  1  0  0  0  0
 52 55  1  0  0  0  0
 53 54  1  0  0  0  0
 54 52  1  0  0  0  0
 55 57  1  0  0  0  0
 56 55  1  0  0  0  0
 57 58  1  0  0  0  0
 58 59  2  0  0  0  0
 58 62  1  0  0  0  0
 59 63  1  0  0  0  0
 60 61  1  0  0  0  0
 62 60  2  0  0  0  0
 63 61  2  0  0  0  0
M  END
>  <MODEL>
1

>  <REMARK>
 VINA RESULT:      -2.2      0.000      0.000
  Name = 
  24 active torsions:
  status: ('A' for Active; 'I' for Inactive)
    1  A    between atoms: O_3  and  C_44
    2  A    between atoms: O_3  and  C_47
    3  A    between atoms: C_6  and  C_7
    4  A    between atoms: C_6  and  C_28
    5  A    between atoms: C_11  and  C_60
    6  A    between atoms: C_21  and  C_38
    7  A    between atoms: C_21  and  C_46
    8  A    between atoms: O_23  and  C_27
    9  A    between atoms: O_23  and  C_33
   10  A    between atoms: O_24  and  C_44
   11  A    between atoms: C_28  and  C_44
   12  A    between atoms: C_31  and  C_32
   13  A    between atoms: C_31  and  C_37
   14  A    between atoms: C_31  and  C_63
   15  A    between atoms: C_33  and  C_48
   16  A    between atoms: C_34  and  C_48
   17  A    between atoms: C_36  and  C_62
   18  A    between atoms: C_37  and  C_60
   19  A    between atoms: C_38  and  C_47
   20  A    between atoms: N_39  and  C_45
   21  A    between atoms: C_45  and  C_50
   22  A    between atoms: C_46  and  N_52
   23  A    between atoms: C_49  and  C_62
   24  A    between atoms: C_50  and  N_52
                            x       y       z     vdW  Elec       q    Type
                         _______ _______ _______ _____ _____    ______ ____

>  <TORSDO>
F 24

$$$$
=
 OpenBabel11072415193D

 63 71  0  0  1  0  0  0  0  0999 V2000
  161.4270  207.3340  149.0360 C   0  0  2  0  0  3  0  0  0  0  0  0
  160.8470  207.4680  151.4530 C   0  0  2  0  0  3  0  0  0  0  0  0
  160.2270  207.5950  153.6140 O   0  0  0  0  0  0  0  0  0  0  0  0
  161.2880  206.2750  155.2130 N   0  0  0  0  0  1  0  0  0  0  0  0
  161.2740  207.0250  152.8270 C   0  0  2  0  0  0  0  0  0  0  0  0
  161.9500  208.5490  154.7800 F   0  0  0  0  0  0  0  0  0  0  0  0
  161.7660  206.8420  150.4440 C   0  0  2  0  0  3  0  0  0  0  0  0
  162.0900  208.0810  151.9980 C   0  0  1  0  0  0  0  0  0  0  0  0
  162.8820  207.5130  150.9790 O   0  0  0  0  0  0  0  0  0  0  0  0
  161.4120  207.3810  154.2830 C   0  0  1  0  0  0  0  0  0  0  0  0
  161.7880  210.1370  150.4680 C   0  0  1  0  0  3  0  0  0  0  0  0
  162.9380  210.3310  151.2730 O   0  0  0  0  0  0  0  0  0  0  0  0
  161.8800  209.6160  151.8610 C   0  0  2  0  0  0  0  0  0  0  0  0
  159.5110  211.7290  154.8470 C   0  0  0  0  0  0  0  0  0  0  0  0
  158.9050  211.2060  153.6090 C   0  0  1  0  0  3  0  0  0  0  0  0
  156.7290  212.0060  154.3710 C   0  0  0  0  0  3  0  0  0  0  0  0
  159.7200  210.5550  152.6790 O   0  0  0  0  0  0  0  0  0  0  0  0
  160.8180  211.5500  155.0430 C   0  0  0  0  0  3  0  0  0  0  0  0
  163.0990  210.6590  154.3670 C   0  0  0  0  0  1  0  0  0  0  0  0
  157.2160  212.5000  155.5140 C   0  0  0  0  0  3  0  0  0  0  0  0
  161.6530  210.8470  154.0490 C   0  0  0  0  0  0  0  0  0  0  0  0
  161.0940  210.3730  152.9100 C   0  0  0  0  0  0  0  0  0  0  0  0
  158.6760  212.4250  155.8840 C   0  0  0  0  0  3  0  0  0  0  0  0
  157.5990  211.3390  153.3850 C   0  0  0  0  0  3  0  0  0  0  0  0
  161.0750  211.3460  150.3780 O   0  0  0  0  0  0  0  0  0  0  0  0
  161.0650  212.1920  146.8360 O   0  0  0  0  0  1  0  0  0  0  0  0
  161.5010  211.9770  149.1940 C   0  0  1  0  0  0  0  0  0  0  0  0
  162.5120  211.1530  148.4300 C   0  0  0  0  0  2  0  0  0  0  0  0
  161.0900  211.2850  147.9000 C   0  0  2  0  0  3  0  0  0  0  0  0
  161.7970  213.4810  149.2120 C   0  0  0  0  0  2  0  0  0  0  0  0
  159.7170  213.7290  150.3560 O   0  0  0  0  0  1  0  0  0  0  0  0
  160.5230  214.2950  149.3670 C   0  0  0  0  0  2  0  0  0  0  0  0
  159.9980  206.6190  147.0750 O   0  0  0  0  0  1  0  0  0  0  0  0
  159.2390  205.9260  149.2790 C   0  0  0  0  0  2  0  0  0  0  0  0
  160.3040  205.1130  148.8170 O   0  0  0  0  0  0  0  0  0  0  0  0
  160.3160  206.4620  148.4250 C   0  0  2  0  0  0  0  0  0  0  0  0
  162.6780  207.4290  148.1650 C   0  0  0  0  0  2  0  0  0  0  0  0
  163.3410  206.0650  148.1020 C   0  0  0  0  0  2  0  0  0  0  0  0
  162.6890  204.0180  147.0780 O   0  0  0  0  0  0  0  0  0  0  0  0
  162.8150  205.2660  146.9650 C   0  0  0  0  0  0  0  0  0  0  0  0
  162.4820  205.9270  145.7450 N   0  0  0  0  0  2  0  0  0  0  0  0
  162.0270  205.1980  144.5700 C   0  0  0  0  0  2  0  0  0  0  0  0
  161.4090  206.1610  143.5660 C   0  0  0  0  0  2  0  0  0  0  0  0
  161.8900  205.8800  142.2200 N   0  0  0  0  0  2  0  0  0  0  0  0
  161.5010  206.9930  141.3690 C   0  0  0  0  0  2  0  0  0  0  0  0
  162.4600  207.0880  140.1910 C   0  0  1  0  0  3  0  0  0  0  0  0
  162.5030  205.8660  139.5180 O   0  0  0  0  0  1  0  0  0  0  0  0
  161.0740  207.7940  138.3490 O   0  0  0  0  0  1  0  0  0  0  0  0
  162.0910  208.2050  139.2150 C   0  0  1  0  0  3  0  0  0  0  0  0
  161.6720  209.4680  139.9480 C   0  0  0  0  0  2  0  0  0  0  0  0
  162.8040  210.2580  140.2210 O   0  0  0  0  0  0  0  0  0  0  0  0
  162.6450  211.5130  139.5880 C   0  0  1  0  0  3  0  0  0  0  0  0
  164.4800  212.4650  138.7930 C   0  0  0  0  0  1  0  0  0  0  0  0
  163.4390  211.6050  138.4380 O   0  0  0  0  0  0  0  0  0  0  0  0
  161.1810  211.8500  139.2810 C   0  0  2  0  0  3  0  0  0  0  0  0
  160.9060  211.6290  137.9320 O   0  0  0  0  0  1  0  0  0  0  0  0
  160.8860  213.3000  139.6300 C   0  0  0  0  0  2  0  0  0  0  0  0
  160.6050  213.4270  141.0880 C   0  0  0  0  0  0  0  0  0  0  0  0
  159.4350  212.8780  141.6260 C   0  0  0  0  0  3  0  0  0  0  0  0
  161.2600  214.1930  143.2910 C   0  0  0  0  0  3  0  0  0  0  0  0
  160.0880  213.6520  143.8270 C   0  0  0  0  0  3  0  0  0  0  0  0
  161.5180  214.0840  141.9220 C   0  0  0  0  0  3  0  0  0  0  0  0
  159.1760  212.9920  142.9960 C   0  0  0  0  0  3  0  0  0  0  0  0
  1 37  1  6  0  0  0
  1  7  1  0  0  0  0
  2  8  1  0  0  0  0
  2  5  1  0  0  0  0
  3 10  1  0  0  0  0
  5  3  1  0  0  0  0
  5 10  1  0  0  0  0
  7  9  1  0  0  0  0
  7  2  1  0  0  0  0
  8  5  1  0  0  0  0
  9  8  1  0  0  0  0
 10  6  1  0  0  0  0
 10  4  1  0  0  0  0
 11 12  1  0  0  0  0
 11 13  1  0  0  0  0
 12 13  1  0  0  0  0
 13  8  1  0  0  0  0
 13 22  1  0  0  0  0
 14 18  2  0  0  0  0
 14 23  1  0  0  0  0
 15 14  1  0  0  0  0
 16 20  1  0  0  0  0
 17 22  1  0  0  0  0
 17 15  1  0  0  0  0
 20 23  2  0  0  0  0
 21 19  1  0  0  0  0
 21 18  1  0  0  0  0
 22 21  2  0  0  0  0
 24 15  1  0  0  0  0
 24 16  2  0  0  0  0
 25 11  1  0  0  0  0
 26 29  1  0  0  0  0
 27 30  1  0  0  0  0
 27 25  1  0  0  0  0
 28 27  1  0  0  0  0
 29 28  1  0  0  0  0
 29 27  1  0  0  0  0
 30 32  1  0  0  0  0
 32 31  1  0  0  0  0
 33 36  1  0  0  0  0
 35 34  1  0  0  0  0
 36 35  1  0  0  0  0
 36  1  1  0  0  0  0
 36 34  1  0  0  0  0
 38 37  1  0  0  0  0
 40 39  2  0  0  0  0
 40 38  1  0  0  0  0
 41 40  1  0  0  0  0
 42 41  1  0  0  0  0
 43 42  1  0  0  0  0
 44 43  1  0  0  0  0
 45 44  1  0  0  0  0
 46 45  1  0  0  0  0
 47 46  1  0  0  0  0
 48 49  1  0  0  0  0
 49 50  1  0  0  0  0
 49 46  1  0  0  0  0
 50 51  1  0  0  0  0
 52 51  1  0  0  0  0
 54 53  1  0  0  0  0
 54 52  1  0  0  0  0
 55 52  1  0  0  0  0
 55 57  1  0  0  0  0
 56 55  1  0  0  0  0
 57 58  1  0  0  0  0
 58 59  2  0  0  0  0
 58 62  1  0  0  0  0
 59 63  1  0  0  0  0
 60 61  1  0  0  0  0
 62 60  2  0  0  0  0
 63 61  2  0  0  0  0
M  END
>  <MODEL>
2

>  <REMARK>
 VINA RESULT:      -1.7      2.301      5.463
  Name = 
  24 active torsions:
  status: ('A' for Active; 'I' for Inactive)
    1  A    between atoms: O_3  and  C_44
    2  A    between atoms: O_3  and  C_47
    3  A    between atoms: C_6  and  C_7
    4  A    between atoms: C_6  and  C_28
    5  A    between atoms: C_11  and  C_60
    6  A    between atoms: C_21  and  C_38
    7  A    between atoms: C_21  and  C_46
    8  A    between atoms: O_23  and  C_27
    9  A    between atoms: O_23  and  C_33
   10  A    between atoms: O_24  and  C_44
   11  A    between atoms: C_28  and  C_44
   12  A    between atoms: C_31  and  C_32
   13  A    between atoms: C_31  and  C_37
   14  A    between atoms: C_31  and  C_63
   15  A    between atoms: C_33  and  C_48
   16  A    between atoms: C_34  and  C_48
   17  A    between atoms: C_36  and  C_62
   18  A    between atoms: C_37  and  C_60
   19  A    between atoms: C_38  and  C_47
   20  A    between atoms: N_39  and  C_45
   21  A    between atoms: C_45  and  C_50
   22  A    between atoms: C_46  and  N_52
   23  A    between atoms: C_49  and  C_62
   24  A    between atoms: C_50  and  N_52
                            x       y       z     vdW  Elec       q    Type
                         _______ _______ _______ _____ _____    ______ ____

>  <TORSDO>
F 24

$$$$
=
 OpenBabel11072415193D

 63 71  0  0  1  0  0  0  0  0999 V2000
  161.4040  207.1250  148.9260 C   0  0  2  0  0  3  0  0  0  0  0  0
  160.8050  207.3760  151.3290 C   0  0  2  0  0  3  0  0  0  0  0  0
  160.1680  207.6120  153.4760 O   0  0  0  0  0  0  0  0  0  0  0  0
  161.1570  206.3120  155.1370 N   0  0  0  0  0  1  0  0  0  0  0  0
  161.1980  206.9700  152.7240 C   0  0  2  0  0  0  0  0  0  0  0  0
  161.9160  208.5390  154.6260 F   0  0  0  0  0  0  0  0  0  0  0  0
  161.7080  206.6750  150.3560 C   0  0  2  0  0  3  0  0  0  0  0  0
  162.0670  207.9590  151.8650 C   0  0  1  0  0  0  0  0  0  0  0  0
  162.8450  207.3200  150.8780 O   0  0  0  0  0  0  0  0  0  0  0  0
  161.3360  207.3760  154.1670 C   0  0  1  0  0  0  0  0  0  0  0  0
  161.8650  209.9650  150.2540 C   0  0  1  0  0  3  0  0  0  0  0  0
  163.0130  210.1420  151.0650 O   0  0  0  0  0  0  0  0  0  0  0  0
  161.9210  209.4950  151.6670 C   0  0  2  0  0  0  0  0  0  0  0  0
  159.6110  211.8170  154.5420 C   0  0  0  0  0  0  0  0  0  0  0  0
  158.9970  211.2740  153.3160 C   0  0  1  0  0  3  0  0  0  0  0  0
  156.8500  212.1940  154.0190 C   0  0  0  0  0  3  0  0  0  0  0  0
  159.7940  210.5540  152.4220 O   0  0  0  0  0  0  0  0  0  0  0  0
  160.9070  211.5900  154.7620 C   0  0  0  0  0  3  0  0  0  0  0  0
  163.1550  210.5770  154.1490 C   0  0  0  0  0  1  0  0  0  0  0  0
  157.3440  212.7090  155.1500 C   0  0  0  0  0  3  0  0  0  0  0  0
  161.7230  210.8150  153.8050 C   0  0  0  0  0  0  0  0  0  0  0  0
  161.1560  210.3230  152.6780 C   0  0  0  0  0  0  0  0  0  0  0  0
  158.7950  212.5860  155.5420 C   0  0  0  0  0  3  0  0  0  0  0  0
  157.7010  211.4550  153.0710 C   0  0  0  0  0  3  0  0  0  0  0  0
  161.2040  211.1970  150.1090 O   0  0  0  0  0  0  0  0  0  0  0  0
  163.4940  212.2120  147.4680 O   0  0  0  0  0  1  0  0  0  0  0  0
  161.5950  211.7200  148.8630 C   0  0  1  0  0  0  0  0  0  0  0  0
  161.8750  213.2040  148.9190 C   0  0  0  0  0  2  0  0  0  0  0  0
  163.0320  212.2220  148.7870 C   0  0  2  0  0  3  0  0  0  0  0  0
  160.8630  211.2640  147.5960 C   0  0  0  0  0  2  0  0  0  0  0  0
  159.3030  211.9240  145.9140 O   0  0  0  0  0  1  0  0  0  0  0  0
  160.0940  212.4090  146.9570 C   0  0  0  0  0  2  0  0  0  0  0  0
  160.2650  204.8730  148.7720 O   0  0  0  0  0  1  0  0  0  0  0  0
  159.9800  206.3630  146.8720 C   0  0  0  0  0  2  0  0  0  0  0  0
  159.1370  206.7310  147.9510 O   0  0  0  0  0  0  0  0  0  0  0  0
  160.3850  206.1720  148.2770 C   0  0  2  0  0  0  0  0  0  0  0  0
  162.6860  207.2950  148.1130 C   0  0  0  0  0  2  0  0  0  0  0  0
  163.3740  205.9480  147.9900 C   0  0  0  0  0  2  0  0  0  0  0  0
  162.5550  203.9490  146.9920 O   0  0  0  0  0  0  0  0  0  0  0  0
  162.8270  205.1700  146.8480 C   0  0  0  0  0  0  0  0  0  0  0  0
  162.6400  205.8180  145.5900 N   0  0  0  0  0  2  0  0  0  0  0  0
  162.1730  205.1000  144.4130 C   0  0  0  0  0  2  0  0  0  0  0  0
  161.5090  206.0660  143.4430 C   0  0  0  0  0  2  0  0  0  0  0  0
  162.1020  205.9520  142.1160 N   0  0  0  0  0  2  0  0  0  0  0  0
  161.5570  207.0200  141.2930 C   0  0  0  0  0  2  0  0  0  0  0  0
  162.4000  207.1690  140.0350 C   0  0  1  0  0  3  0  0  0  0  0  0
  162.3870  205.9740  139.3140 O   0  0  0  0  0  1  0  0  0  0  0  0
  160.9920  207.8760  138.2110 O   0  0  0  0  0  1  0  0  0  0  0  0
  161.9350  208.3190  139.1430 C   0  0  1  0  0  3  0  0  0  0  0  0
  161.3610  209.4620  139.9630 C   0  0  0  0  0  2  0  0  0  0  0  0
  162.3660  210.4090  140.2300 O   0  0  0  0  0  0  0  0  0  0  0  0
  161.9110  211.6830  139.8150 C   0  0  1  0  0  3  0  0  0  0  0  0
  162.8250  213.4550  140.7790 C   0  0  0  0  0  1  0  0  0  0  0  0
  162.9740  212.5870  139.6970 O   0  0  0  0  0  0  0  0  0  0  0  0
  161.0760  211.6340  138.5300 C   0  0  2  0  0  3  0  0  0  0  0  0
  161.8840  211.8790  137.4200 O   0  0  0  0  0  1  0  0  0  0  0  0
  159.9590  212.6630  138.5840 C   0  0  0  0  0  2  0  0  0  0  0  0
  158.6360  211.9770  138.6110 C   0  0  0  0  0  0  0  0  0  0  0  0
  158.4150  210.8490  137.8120 C   0  0  0  0  0  3  0  0  0  0  0  0
  156.3800  211.8050  139.4790 C   0  0  0  0  0  3  0  0  0  0  0  0
  156.1570  210.6820  138.6750 C   0  0  0  0  0  3  0  0  0  0  0  0
  157.6160  212.4540  139.4460 C   0  0  0  0  0  3  0  0  0  0  0  0
  157.1750  210.2030  137.8430 C   0  0  0  0  0  3  0  0  0  0  0  0
  1 37  1  6  0  0  0
  1  7  1  0  0  0  0
  2  8  1  0  0  0  0
  2  5  1  0  0  0  0
  3 10  1  0  0  0  0
  5  3  1  0  0  0  0
  5 10  1  0  0  0  0
  7  9  1  0  0  0  0
  7  2  1  0  0  0  0
  8  5  1  0  0  0  0
  9  8  1  0  0  0  0
 10  6  1  0  0  0  0
 10  4  1  0  0  0  0
 11 12  1  0  0  0  0
 11 13  1  0  0  0  0
 12 13  1  0  0  0  0
 13  8  1  0  0  0  0
 13 22  1  0  0  0  0
 14 18  2  0  0  0  0
 14 23  1  0  0  0  0
 15 14  1  0  0  0  0
 16 20  1  0  0  0  0
 17 22  1  0  0  0  0
 17 15  1  0  0  0  0
 20 23  2  0  0  0  0
 21 19  1  0  0  0  0
 21 18  1  0  0  0  0
 22 21  2  0  0  0  0
 24 15  1  0  0  0  0
 24 16  2  0  0  0  0
 25 11  1  0  0  0  0
 26 29  1  0  0  0  0
 27 28  1  0  0  0  0
 27 25  1  0  0  0  0
 29 27  1  0  0  0  0
 29 28  1  0  0  0  0
 30 27  1  0  0  0  0
 31 32  1  0  0  0  0
 32 30  1  0  0  0  0
 34 35  1  0  0  0  0
 34 36  1  0  0  0  0
 35 36  1  0  0  0  0
 36 33  1  0  0  0  0
 36  1  1  0  0  0  0
 38 37  1  0  0  0  0
 40 39  2  0  0  0  0
 40 38  1  0  0  0  0
 41 40  1  0  0  0  0
 42 41  1  0  0  0  0
 43 42  1  0  0  0  0
 44 43  1  0  0  0  0
 45 44  1  0  0  0  0
 46 45  1  0  0  0  0
 47 46  1  0  0  0  0
 48 49  1  0  0  0  0
 49 50  1  0  0  0  0
 49 46  1  0  0  0  0
 50 51  1  0  0  0  0
 52 51  1  0  0  0  0
 54 52  1  0  0  0  0
 54 53  1  0  0  0  0
 55 57  1  0  0  0  0
 55 52  1  0  0  0  0
 56 55  1  0  0  0  0
 57 58  1  0  0  0  0
 58 62  1  0  0  0  0
 59 63  1  0  0  0  0
 59 58  2  0  0  0  0
 61 60  1  0  0  0  0
 62 60  2  0  0  0  0
 63 61  2  0  0  0  0
M  END
>  <MODEL>
3

>  <REMARK>
 VINA RESULT:      -1.5      2.490      5.896
  Name = 
  24 active torsions:
  status: ('A' for Active; 'I' for Inactive)
    1  A    between atoms: O_3  and  C_44
    2  A    between atoms: O_3  and  C_47
    3  A    between atoms: C_6  and  C_7
    4  A    between atoms: C_6  and  C_28
    5  A    between atoms: C_11  and  C_60
    6  A    between atoms: C_21  and  C_38
    7  A    between atoms: C_21  and  C_46
    8  A    between atoms: O_23  and  C_27
    9  A    between atoms: O_23  and  C_33
   10  A    between atoms: O_24  and  C_44
   11  A    between atoms: C_28  and  C_44
   12  A    between atoms: C_31  and  C_32
   13  A    between atoms: C_31  and  C_37
   14  A    between atoms: C_31  and  C_63
   15  A    between atoms: C_33  and  C_48
   16  A    between atoms: C_34  and  C_48
   17  A    between atoms: C_36  and  C_62
   18  A    between atoms: C_37  and  C_60
   19  A    between atoms: C_38  and  C_47
   20  A    between atoms: N_39  and  C_45
   21  A    between atoms: C_45  and  C_50
   22  A    between atoms: C_46  and  N_52
   23  A    between atoms: C_49  and  C_62
   24  A    between atoms: C_50  and  N_52
                            x       y       z     vdW  Elec       q    Type
                         _______ _______ _______ _____ _____    ______ ____

>  <TORSDO>
F 24

$$$$
=
 OpenBabel11072415193D

 63 71  0  0  1  0  0  0  0  0999 V2000
  161.7770  205.5060  146.9430 C   0  0  2  0  0  3  0  0  0  0  0  0
  162.4160  207.2060  148.6460 C   0  0  2  0  0  3  0  0  0  0  0  0
  163.0790  208.6940  150.2010 O   0  0  0  0  0  0  0  0  0  0  0  0
  162.6870  210.9670  149.8830 N   0  0  0  0  0  1  0  0  0  0  0  0
  162.2710  208.6560  149.0240 C   0  0  2  0  0  0  0  0  0  0  0  0
  161.2020  209.5750  151.1690 F   0  0  0  0  0  0  0  0  0  0  0  0
  161.7340  206.9870  147.3260 C   0  0  2  0  0  3  0  0  0  0  0  0
  161.0710  207.6450  149.1100 C   0  0  1  0  0  0  0  0  0  0  0  0
  160.4850  207.3530  147.8610 O   0  0  0  0  0  0  0  0  0  0  0  0
  162.1020  209.6630  150.1290 C   0  0  1  0  0  0  0  0  0  0  0  0
  160.7140  205.2080  149.8770 C   0  0  1  0  0  3  0  0  0  0  0  0
  159.5020  205.9230  150.0450 O   0  0  0  0  0  0  0  0  0  0  0  0
  160.6870  206.6520  150.2430 C   0  0  2  0  0  0  0  0  0  0  0  0
  161.4870  207.6200  154.4160 C   0  0  0  0  0  0  0  0  0  0  0  0
  160.3360  208.1960  153.6960 C   0  0  1  0  0  3  0  0  0  0  0  0
  159.6690  209.3470  155.7420 C   0  0  0  0  0  3  0  0  0  0  0  0
  160.1430  207.8630  152.3530 O   0  0  0  0  0  0  0  0  0  0  0  0
  162.2990  206.7890  153.7620 C   0  0  0  0  0  3  0  0  0  0  0  0
  163.0010  205.4790  151.7010 C   0  0  0  0  0  1  0  0  0  0  0  0
  160.6910  208.8560  156.4520 C   0  0  0  0  0  3  0  0  0  0  0  0
  162.0640  206.4460  152.3440 C   0  0  0  0  0  0  0  0  0  0  0  0
  161.0090  206.9810  151.6860 C   0  0  0  0  0  0  0  0  0  0  0  0
  161.7310  207.9350  155.8650 C   0  0  0  0  0  3  0  0  0  0  0  0
  159.4850  209.0090  154.3200 C   0  0  0  0  0  3  0  0  0  0  0  0
  160.9110  204.3620  150.9830 O   0  0  0  0  0  0  0  0  0  0  0  0
  159.7360  200.9160  150.9710 O   0  0  0  0  0  1  0  0  0  0  0  0
  160.7650  203.0440  150.5130 C   0  0  1  0  0  0  0  0  0  0  0  0
  161.8050  202.1070  151.0830 C   0  0  0  0  0  2  0  0  0  0  0  0
  160.3620  202.0170  151.5640 C   0  0  2  0  0  3  0  0  0  0  0  0
  160.4470  202.8070  149.0320 C   0  0  0  0  0  2  0  0  0  0  0  0
  160.9670  201.4600  147.1310 O   0  0  0  0  0  1  0  0  0  0  0  0
  161.3990  201.7950  148.4160 C   0  0  0  0  0  2  0  0  0  0  0  0
  163.4150  206.0960  145.1080 O   0  0  0  0  0  1  0  0  0  0  0  0
  163.5230  203.8240  145.9680 C   0  0  0  0  0  2  0  0  0  0  0  0
  164.1540  204.7410  146.8450 O   0  0  0  0  0  0  0  0  0  0  0  0
  163.0450  205.2110  146.1210 C   0  0  2  0  0  0  0  0  0  0  0  0
  160.4860  205.0750  146.2510 C   0  0  0  0  0  2  0  0  0  0  0  0
  160.2270  205.9930  145.0710 C   0  0  0  0  0  2  0  0  0  0  0  0
  160.8270  204.1770  143.6530 O   0  0  0  0  0  0  0  0  0  0  0  0
  160.7910  205.4260  143.8180 C   0  0  0  0  0  0  0  0  0  0  0  0
  161.3070  206.3100  142.8240 N   0  0  0  0  0  2  0  0  0  0  0  0
  161.9350  205.8200  141.6050 C   0  0  0  0  0  2  0  0  0  0  0  0
  162.5910  206.9720  140.8580 C   0  0  0  0  0  2  0  0  0  0  0  0
  161.5870  207.9130  140.3780 N   0  0  0  0  0  2  0  0  0  0  0  0
  161.4500  207.7220  138.9440 C   0  0  0  0  0  2  0  0  0  0  0  0
  161.6290  209.0580  138.2370 C   0  0  1  0  0  3  0  0  0  0  0  0
  160.5430  209.2950  137.3920 O   0  0  0  0  0  1  0  0  0  0  0  0
  162.7490  211.1320  138.7420 O   0  0  0  0  0  1  0  0  0  0  0  0
  161.7940  210.2260  139.2100 C   0  0  1  0  0  3  0  0  0  0  0  0
  160.4740  210.9380  139.4530 C   0  0  0  0  0  2  0  0  0  0  0  0
  160.7010  212.3140  139.6330 O   0  0  0  0  0  0  0  0  0  0  0  0
  159.9040  212.7680  140.7110 C   0  0  1  0  0  3  0  0  0  0  0  0
  157.9490  213.3190  139.8310 C   0  0  0  0  0  1  0  0  0  0  0  0
  158.5810  212.3280  140.5840 O   0  0  0  0  0  0  0  0  0  0  0  0
  160.4840  212.4000  142.0820 C   0  0  2  0  0  3  0  0  0  0  0  0
  160.4840  211.0150  142.2510 O   0  0  0  0  0  1  0  0  0  0  0  0
  159.6730  213.0480  143.1920 C   0  0  0  0  0  2  0  0  0  0  0  0
  160.4270  212.9880  144.4760 C   0  0  0  0  0  0  0  0  0  0  0  0
  159.7950  212.5340  145.6400 C   0  0  0  0  0  3  0  0  0  0  0  0
  162.4840  213.3080  145.7170 C   0  0  0  0  0  3  0  0  0  0  0  0
  161.8500  212.8610  146.8810 C   0  0  0  0  0  3  0  0  0  0  0  0
  161.7740  213.3740  144.5160 C   0  0  0  0  0  3  0  0  0  0  0  0
  160.5070  212.4730  146.8430 C   0  0  0  0  0  3  0  0  0  0  0  0
  1 37  1  6  0  0  0
  1  7  1  0  0  0  0
  2  5  1  0  0  0  0
  2  8  1  0  0  0  0
  4 10  1  0  0  0  0
  5  8  1  0  0  0  0
  5 10  1  0  0  0  0
  5  3  1  0  0  0  0
  7  9  1  0  0  0  0
  7  2  1  0  0  0  0
  8 13  1  0  0  0  0
  9  8  1  0  0  0  0
 10  3  1  0  0  0  0
 10  6  1  0  0  0  0
 11 12  1  0  0  0  0
 11 13  1  0  0  0  0
 11 25  1  0  0  0  0
 12 13  1  0  0  0  0
 13 22  1  0  0  0  0
 14 23  1  0  0  0  0
 15 24  1  0  0  0  0
 15 14  1  0  0  0  0
 16 20  1  0  0  0  0
 17 15  1  0  0  0  0
 18 14  2  0  0  0  0
 19 21  1  0  0  0  0
 21 18  1  0  0  0  0
 22 21  2  0  0  0  0
 22 17  1  0  0  0  0
 23 20  2  0  0  0  0
 24 16  2  0  0  0  0
 26 29  1  0  0  0  0
 27 25  1  0  0  0  0
 27 28  1  0  0  0  0
 27 29  1  0  0  0  0
 28 29  1  0  0  0  0
 30 27  1  0  0  0  0
 31 32  1  0  0  0  0
 32 30  1  0  0  0  0
 33 36  1  0  0  0  0
 34 36  1  0  0  0  0
 34 35  1  0  0  0  0
 36 35  1  0  0  0  0
 36  1  1  0  0  0  0
 38 37  1  0  0  0  0
 39 40  2  0  0  0  0
 40 38  1  0  0  0  0
 41 40  1  0  0  0  0
 42 41  1  0  0  0  0
 43 42  1  0  0  0  0
 44 43  1  0  0  0  0
 45 44  1  0  0  0  0
 46 45  1  0  0  0  0
 46 49  1  0  0  0  0
 47 46  1  0  0  0  0
 48 49  1  0  0  0  0
 49 50  1  0  0  0  0
 50 51  1  0  0  0  0
 51 52  1  0  0  0  0
 52 55  1  0  0  0  0
 53 54  1  0  0  0  0
 54 52  1  0  0  0  0
 55 56  1  0  0  0  0
 55 57  1  0  0  0  0
 57 58  1  0  0  0  0
 58 62  2  0  0  0  0
 58 59  1  0  0  0  0
 59 63  2  0  0  0  0
 60 61  2  0  0  0  0
 62 60  1  0  0  0  0
 63 61  1  0  0  0  0
M  END
>  <MODEL>
4

>  <REMARK>
 VINA RESULT:      -1.1      1.362      4.170
  Name = 
  24 active torsions:
  status: ('A' for Active; 'I' for Inactive)
    1  A    between atoms: O_3  and  C_44
    2  A    between atoms: O_3  and  C_47
    3  A    between atoms: C_6  and  C_7
    4  A    between atoms: C_6  and  C_28
    5  A    between atoms: C_11  and  C_60
    6  A    between atoms: C_21  and  C_38
    7  A    between atoms: C_21  and  C_46
    8  A    between atoms: O_23  and  C_27
    9  A    between atoms: O_23  and  C_33
   10  A    between atoms: O_24  and  C_44
   11  A    between atoms: C_28  and  C_44
   12  A    between atoms: C_31  and  C_32
   13  A    between atoms: C_31  and  C_37
   14  A    between atoms: C_31  and  C_63
   15  A    between atoms: C_33  and  C_48
   16  A    between atoms: C_34  and  C_48
   17  A    between atoms: C_36  and  C_62
   18  A    between atoms: C_37  and  C_60
   19  A    between atoms: C_38  and  C_47
   20  A    between atoms: N_39  and  C_45
   21  A    between atoms: C_45  and  C_50
   22  A    between atoms: C_46  and  N_52
   23  A    between atoms: C_49  and  C_62
   24  A    between atoms: C_50  and  N_52
                            x       y       z     vdW  Elec       q    Type
                         _______ _______ _______ _____ _____    ______ ____

>  <TORSDO>
F 24

$$$$
=
 OpenBabel11072415193D

 63 71  0  0  1  0  0  0  0  0999 V2000
  161.4770  207.2560  148.8290 C   0  0  2  0  0  3  0  0  0  0  0  0
  160.8990  207.3650  151.2480 C   0  0  2  0  0  3  0  0  0  0  0  0
  160.2810  207.4670  153.4110 O   0  0  0  0  0  0  0  0  0  0  0  0
  161.3770  206.1660  155.0010 N   0  0  0  0  0  1  0  0  0  0  0  0
  161.3390  206.9270  152.6190 C   0  0  2  0  0  0  0  0  0  0  0  0
  161.9830  208.4570  154.5780 F   0  0  0  0  0  0  0  0  0  0  0  0
  161.8310  206.7660  150.2340 C   0  0  2  0  0  3  0  0  0  0  0  0
  162.1290  208.0050  151.7930 C   0  0  1  0  0  0  0  0  0  0  0  0
  162.9320  207.4610  150.7690 O   0  0  0  0  0  0  0  0  0  0  0  0
  161.4730  207.2790  154.0760 C   0  0  1  0  0  0  0  0  0  0  0  0
  161.6950  210.0480  150.2770 C   0  0  1  0  0  3  0  0  0  0  0  0
  162.8880  210.2670  151.0100 O   0  0  0  0  0  0  0  0  0  0  0  0
  161.8810  209.5360  151.6630 C   0  0  2  0  0  0  0  0  0  0  0  0
  159.6580  211.6200  154.7790 C   0  0  0  0  0  0  0  0  0  0  0  0
  158.9910  211.0960  153.5730 C   0  0  1  0  0  3  0  0  0  0  0  0
  156.8530  211.8760  154.4520 C   0  0  0  0  0  3  0  0  0  0  0  0
  159.7610  210.4540  152.5990 O   0  0  0  0  0  0  0  0  0  0  0  0
  160.9750  211.4510  154.9050 C   0  0  0  0  0  3  0  0  0  0  0  0
  163.2240  210.5800  154.1050 C   0  0  0  0  0  1  0  0  0  0  0  0
  157.3960  212.3690  155.5700 C   0  0  0  0  0  3  0  0  0  0  0  0
  161.7620  210.7580  153.8640 C   0  0  0  0  0  0  0  0  0  0  0  0
  161.1460  210.2830  152.7560 C   0  0  0  0  0  0  0  0  0  0  0  0
  158.8740  212.3060  155.8620 C   0  0  0  0  0  3  0  0  0  0  0  0
  157.6740  211.2190  153.4200 C   0  0  0  0  0  3  0  0  0  0  0  0
  160.9560  211.2430  150.2250 O   0  0  0  0  0  0  0  0  0  0  0  0
  161.0460  212.2110  146.7170 O   0  0  0  0  0  1  0  0  0  0  0  0
  161.3930  211.9380  149.0830 C   0  0  1  0  0  0  0  0  0  0  0  0
  162.4830  211.2020  148.3380 C   0  0  0  0  0  2  0  0  0  0  0  0
  161.0790  211.2700  147.7500 C   0  0  2  0  0  3  0  0  0  0  0  0
  161.5990  213.4550  149.1630 C   0  0  0  0  0  2  0  0  0  0  0  0
  160.2740  214.4320  150.8920 O   0  0  0  0  0  1  0  0  0  0  0  0
  160.3070  214.1720  149.5200 C   0  0  0  0  0  2  0  0  0  0  0  0
  159.9410  206.6030  146.9290 O   0  0  0  0  0  1  0  0  0  0  0  0
  159.2130  205.9970  149.1680 C   0  0  0  0  0  2  0  0  0  0  0  0
  160.2080  205.1090  148.6880 O   0  0  0  0  0  0  0  0  0  0  0  0
  160.2930  206.4480  148.2700 C   0  0  2  0  0  0  0  0  0  0  0  0
  162.7020  207.2560  147.9160 C   0  0  0  0  0  2  0  0  0  0  0  0
  163.2820  205.8540  147.8680 C   0  0  0  0  0  2  0  0  0  0  0  0
  164.0450  204.4510  146.1030 O   0  0  0  0  0  0  0  0  0  0  0  0
  163.1830  205.2810  146.5010 C   0  0  0  0  0  0  0  0  0  0  0  0
  162.1210  205.6990  145.6450 N   0  0  0  0  0  2  0  0  0  0  0  0
  162.0040  205.2290  144.2720 C   0  0  0  0  0  2  0  0  0  0  0  0
  161.4880  206.3500  143.3810 C   0  0  0  0  0  2  0  0  0  0  0  0
  161.7470  206.0530  141.9780 N   0  0  0  0  0  2  0  0  0  0  0  0
  161.6690  207.3020  141.2380 C   0  0  0  0  0  2  0  0  0  0  0  0
  162.3960  207.1490  139.9100 C   0  0  1  0  0  3  0  0  0  0  0  0
  162.2890  205.8310  139.4620 O   0  0  0  0  0  1  0  0  0  0  0  0
  161.1970  207.4090  137.8350 O   0  0  0  0  0  1  0  0  0  0  0  0
  161.8780  208.1060  138.8370 C   0  0  1  0  0  3  0  0  0  0  0  0
  160.9780  209.1750  139.4330 C   0  0  0  0  0  2  0  0  0  0  0  0
  159.7030  209.1080  138.8430 O   0  0  0  0  0  0  0  0  0  0  0  0
  159.2440  210.4250  138.6040 C   0  0  1  0  0  3  0  0  0  0  0  0
  157.4000  209.2020  138.5160 C   0  0  0  0  0  1  0  0  0  0  0  0
  157.8510  210.5060  138.7250 O   0  0  0  0  0  0  0  0  0  0  0  0
  159.9400  211.4730  139.4810 C   0  0  2  0  0  3  0  0  0  0  0  0
  159.1440  211.7870  140.5820 O   0  0  0  0  0  1  0  0  0  0  0  0
  160.2220  212.7330  138.6800 C   0  0  0  0  0  2  0  0  0  0  0  0
  161.6840  213.0210  138.6800 C   0  0  0  0  0  0  0  0  0  0  0  0
  162.3220  213.4150  137.4970 C   0  0  0  0  0  3  0  0  0  0  0  0
  163.7880  213.1920  139.8710 C   0  0  0  0  0  3  0  0  0  0  0  0
  164.4250  213.5780  138.6870 C   0  0  0  0  0  3  0  0  0  0  0  0
  162.4190  212.9110  139.8680 C   0  0  0  0  0  3  0  0  0  0  0  0
  163.6930  213.6910  137.5010 C   0  0  0  0  0  3  0  0  0  0  0  0
  1 37  1  6  0  0  0
  1  7  1  0  0  0  0
  2  8  1  0  0  0  0
  2  5  1  0  0  0  0
  3 10  1  0  0  0  0
  5  3  1  0  0  0  0
  5 10  1  0  0  0  0
  7  9  1  0  0  0  0
  7  2  1  0  0  0  0
  8  5  1  0  0  0  0
  9  8  1  0  0  0  0
 10  6  1  0  0  0  0
 10  4  1  0  0  0  0
 11 12  1  0  0  0  0
 11 13  1  0  0  0  0
 12 13  1  0  0  0  0
 13  8  1  0  0  0  0
 13 22  1  0  0  0  0
 14 18  2  0  0  0  0
 14 23  1  0  0  0  0
 15 14  1  0  0  0  0
 16 20  1  0  0  0  0
 17 22  1  0  0  0  0
 17 15  1  0  0  0  0
 20 23  2  0  0  0  0
 21 19  1  0  0  0  0
 21 18  1  0  0  0  0
 22 21  2  0  0  0  0
 24 15  1  0  0  0  0
 24 16  2  0  0  0  0
 25 11  1  0  0  0  0
 26 29  1  0  0  0  0
 27 30  1  0  0  0  0
 27 25  1  0  0  0  0
 28 27  1  0  0  0  0
 29 28  1  0  0  0  0
 29 27  1  0  0  0  0
 30 32  1  0  0  0  0
 32 31  1  0  0  0  0
 33 36  1  0  0  0  0
 35 34  1  0  0  0  0
 36 35  1  0  0  0  0
 36  1  1  0  0  0  0
 36 34  1  0  0  0  0
 38 37  1  0  0  0  0
 39 40  2  0  0  0  0
 40 38  1  0  0  0  0
 41 40  1  0  0  0  0
 42 41  1  0  0  0  0
 43 42  1  0  0  0  0
 44 43  1  0  0  0  0
 45 44  1  0  0  0  0
 46 45  1  0  0  0  0
 47 46  1  0  0  0  0
 48 49  1  0  0  0  0
 49 50  1  0  0  0  0
 49 46  1  0  0  0  0
 51 50  1  0  0  0  0
 52 54  1  0  0  0  0
 52 51  1  0  0  0  0
 52 55  1  0  0  0  0
 53 54  1  0  0  0  0
 55 56  1  0  0  0  0
 57 55  1  0  0  0  0
 58 57  1  0  0  0  0
 58 62  1  0  0  0  0
 59 63  1  0  0  0  0
 59 58  2  0  0  0  0
 61 60  1  0  0  0  0
 62 60  2  0  0  0  0
 63 61  2  0  0  0  0
M  END
>  <MODEL>
5

>  <REMARK>
 VINA RESULT:      -1.0      2.582      5.753
  Name = 
  24 active torsions:
  status: ('A' for Active; 'I' for Inactive)
    1  A    between atoms: O_3  and  C_44
    2  A    between atoms: O_3  and  C_47
    3  A    between atoms: C_6  and  C_7
    4  A    between atoms: C_6  and  C_28
    5  A    between atoms: C_11  and  C_60
    6  A    between atoms: C_21  and  C_38
    7  A    between atoms: C_21  and  C_46
    8  A    between atoms: O_23  and  C_27
    9  A    between atoms: O_23  and  C_33
   10  A    between atoms: O_24  and  C_44
   11  A    between atoms: C_28  and  C_44
   12  A    between atoms: C_31  and  C_32
   13  A    between atoms: C_31  and  C_37
   14  A    between atoms: C_31  and  C_63
   15  A    between atoms: C_33  and  C_48
   16  A    between atoms: C_34  and  C_48
   17  A    between atoms: C_36  and  C_62
   18  A    between atoms: C_37  and  C_60
   19  A    between atoms: C_38  and  C_47
   20  A    between atoms: N_39  and  C_45
   21  A    between atoms: C_45  and  C_50
   22  A    between atoms: C_46  and  N_52
   23  A    between atoms: C_49  and  C_62
   24  A    between atoms: C_50  and  N_52
                            x       y       z     vdW  Elec       q    Type
                         _______ _______ _______ _____ _____    ______ ____

>  <TORSDO>
F 24

$$$$
