=
 OpenBabel11072413283D

 41 46  0  0  1  0  0  0  0  0999 V2000
  161.6360  204.7670  152.8060 O   0  0  0  0  0  0  0  0  0  0  0  0
  161.1490  205.7060  152.1220 C   0  0  0  0  0  0  0  0  0  0  0  0
  161.4470  204.4900  148.4690 C   0  0  0  0  0  0  0  0  0  0  0  0
  161.2450  205.6810  150.6500 C   0  0  0  0  0  0  0  0  0  0  0  0
  161.3510  206.8500  149.9730 C   0  0  0  0  0  3  0  0  0  0  0  0
  161.7520  204.2800  146.2690 N   0  0  0  0  0  0  0  0  0  0  0  0
  161.5390  205.7600  147.8300 C   0  0  2  0  0  3  0  0  0  0  0  0
  161.7320  205.5420  146.4460 N   0  0  0  0  0  0  0  0  0  0  0  0
  161.5770  203.5860  147.5160 C   0  0  0  0  0  3  0  0  0  0  0  0
  161.4930  206.9110  148.4970 C   0  0  0  0  0  0  0  0  0  0  0  0
  161.2470  204.3290  149.9410 C   0  0  0  0  0  3  0  0  0  0  0  0
  161.6420  208.2170  147.7940 C   0  0  0  0  0  2  0  0  0  0  0  0
  162.1080  209.2320  148.7270 N   0  0  0  0  0  2  0  0  0  0  0  0
  161.9760  212.7870  148.7860 N   0  0  0  0  0  0  0  0  0  0  0  0
  161.9060  210.6220  148.4840 C   0  0  0  0  0  0  0  0  0  0  0  0
  162.3290  211.5340  149.2920 N   0  0  0  0  0  0  0  0  0  0  0  0
  161.3390  212.6340  147.6720 C   0  0  0  0  0  0  0  0  0  0  0  0
  161.1980  211.1970  147.3040 C   0  0  0  0  0  2  0  0  0  0  0  0
  160.8250  213.7600  146.8840 C   0  0  0  0  0  0  0  0  0  0  0  0
  159.5120  214.1830  147.0430 O   0  0  0  0  0  1  0  0  0  0  0  0
  161.5800  214.3630  146.0770 O   0  0  0  0  0  0  0  0  0  0  0  0
  160.4400  206.8230  152.8200 C   0  0  0  0  0  2  0  0  0  0  0  0
  162.2720  209.5960  152.1960 C   0  0  0  0  0  1  0  0  0  0  0  0
  161.2140  207.5250  155.1060 C   0  0  0  0  0  2  0  0  0  0  0  0
  162.4830  210.4500  157.2580 C   0  0  0  0  0  2  0  0  0  0  0  0
  161.4110  207.7050  153.6030 C   0  0  2  0  0  3  0  0  0  0  0  0
  160.5980  211.5250  155.8460 C   0  0  2  0  0  3  0  0  0  0  0  0
  161.4470  211.5780  157.1320 C   0  0  0  0  0  2  0  0  0  0  0  0
  161.9210  209.0350  157.0200 C   0  0  0  0  0  2  0  0  0  0  0  0
  161.3120  209.2070  153.3030 C   0  0  1  0  0  0  0  0  0  0  0  0
  161.7140  209.8530  154.6100 C   0  0  2  0  0  3  0  0  0  0  0  0
  160.0060  209.5810  152.9590 O   0  0  0  0  0  1  0  0  0  0  0  0
  161.1640  208.9190  155.6940 C   0  0  1  0  0  3  0  0  0  0  0  0
  161.3660  211.2350  154.6920 O   0  0  0  0  0  0  0  0  0  0  0  0
  159.9050  212.7900  155.6670 N   0  0  0  0  0  2  0  0  0  0  0  0
  157.4610  212.0490  155.5190 C   0  0  2  0  0  3  0  0  0  0  0  0
  155.9880  212.6810  154.6560 S   0  0  0  0  0  0  0  0  0  0  0  0
  157.0150  213.6360  153.4950 C   0  0  0  0  0  2  0  0  0  0  0  0
  158.6110  212.8780  155.0720 C   0  0  0  0  0  0  0  0  0  0  0  0
  158.3900  213.6800  154.0490 C   0  0  0  0  0  3  0  0  0  0  0  0
  157.6740  210.7310  155.1520 F   0  0  0  0  0  0  0  0  0  0  0  0
  2  1  2  0  0  0  0
  2 22  1  0  0  0  0
  3 11  1  0  0  0  0
  4  2  1  0  0  0  0
  5  4  1  0  0  0  0
  6  8  2  0  0  0  0
  6  9  1  0  0  0  0
  7  8  1  1  0  0  0
  7  3  1  0  0  0  0
  7 10  1  0  0  0  0
  9  3  2  0  0  0  0
 10  5  2  0  0  0  0
 11  4  2  0  0  0  0
 12 10  1  0  0  0  0
 12 13  1  0  0  0  0
 14 16  1  0  0  0  0
 15 13  1  0  0  0  0
 15 16  2  0  0  0  0
 17 14  2  0  0  0  0
 18 17  1  0  0  0  0
 18 15  1  0  0  0  0
 19 20  1  0  0  0  0
 19 17  1  0  0  0  0
 21 19  2  0  0  0  0
 26 22  1  6  0  0  0
 26 24  1  0  0  0  0
 27 35  1  6  0  0  0
 27 28  1  0  0  0  0
 28 25  1  0  0  0  0
 29 25  1  0  0  0  0
 30 23  1  6  0  0  0
 30 26  1  0  0  0  0
 30 31  1  0  0  0  0
 31 34  1  1  0  0  0
 31 33  1  0  0  0  0
 32 30  1  0  0  0  0
 33 24  1  6  0  0  0
 33 29  1  0  0  0  0
 34 27  1  0  0  0  0
 36 41  1  6  0  0  0
 37 36  1  0  0  0  0
 38 40  1  0  0  0  0
 38 37  1  0  0  0  0
 39 36  1  0  0  0  0
 39 35  1  0  0  0  0
 40 39  2  0  0  0  0
M  END
>  <MODEL>
1

>  <REMARK>
 VINA RESULT:      -7.8      0.000      0.000
  Name = 
  8 active torsions:
  status: ('A' for Active; 'I' for Inactive)
    1  A    between atoms: N_1  and  C_13
    2  A    between atoms: N_1  and  C_34
    3  A    between atoms: C_6  and  C_12
    4  A    between atoms: C_6  and  C_40
    5  A    between atoms: N_7  and  C_10
    6  A    between atoms: C_8  and  C_40
    7  A    between atoms: C_10  and  C_31
    8  A    between atoms: C_15  and  C_30
                            x       y       z     vdW  Elec       q    Type
                         _______ _______ _______ _____ _____    ______ ____

>  <TORSDO>
F 8

$$$$
=
 OpenBabel11072413283D

 41 46  0  0  1  0  0  0  0  0999 V2000
  161.7060  210.9730  156.7820 O   0  0  0  0  0  0  0  0  0  0  0  0
  161.2160  210.8200  155.6310 C   0  0  0  0  0  0  0  0  0  0  0  0
  157.4100  211.3540  155.2440 C   0  0  0  0  0  0  0  0  0  0  0  0
  159.9020  211.4060  155.3000 C   0  0  0  0  0  0  0  0  0  0  0  0
  159.8510  212.5600  154.5910 C   0  0  0  0  0  3  0  0  0  0  0  0
  155.3580  212.0220  154.6780 N   0  0  0  0  0  0  0  0  0  0  0  0
  157.4410  212.5760  154.5120 C   0  0  0  0  0  0  0  0  0  0  0  0
  156.1100  212.9290  154.1910 N   0  0  0  0  0  0  0  0  0  0  0  0
  156.1380  211.0150  155.3450 C   0  0  0  0  0  3  0  0  0  0  0  0
  158.5720  213.1930  154.1820 C   0  0  0  0  0  0  0  0  0  0  0  0
  158.6400  210.6710  155.7470 C   0  0  0  0  0  2  0  0  0  0  0  0
  158.5620  214.4450  153.3720 C   0  0  0  0  0  2  0  0  0  0  0  0
  157.8780  214.2140  152.1100 N   0  0  0  0  0  2  0  0  0  0  0  0
  158.9620  213.4090  148.8180 N   0  0  0  0  0  0  0  0  0  0  0  0
  158.5920  213.8950  150.9180 C   0  0  0  0  0  0  0  0  0  0  0  0
  158.0010  213.7060  149.7860 N   0  0  0  0  0  0  0  0  0  0  0  0
  160.1340  213.4160  149.3610 C   0  0  0  0  0  0  0  0  0  0  0  0
  160.0720  213.7380  150.8150 C   0  0  0  0  0  2  0  0  0  0  0  0
  161.3640  213.1370  148.6120 C   0  0  0  0  0  0  0  0  0  0  0  0
  162.2340  214.1700  148.2870 O   0  0  0  0  0  1  0  0  0  0  0  0
  161.6480  211.9570  148.2810 O   0  0  0  0  0  0  0  0  0  0  0  0
  161.9990  210.0740  154.5980 C   0  0  0  0  0  2  0  0  0  0  0  0
  159.8860  210.2130  151.9620 C   0  0  0  0  0  1  0  0  0  0  0  0
  161.5980  207.6530  154.0570 C   0  0  0  0  0  2  0  0  0  0  0  0
  160.5230  205.1530  151.3380 C   0  0  0  0  0  2  0  0  0  0  0  0
  161.1220  209.0850  153.8320 C   0  0  2  0  0  3  0  0  0  0  0  0
  162.0410  206.8130  150.0540 C   0  0  2  0  0  3  0  0  0  0  0  0
  161.4340  205.3970  150.1240 C   0  0  0  0  0  2  0  0  0  0  0  0
  161.1360  205.5640  152.6900 C   0  0  0  0  0  2  0  0  0  0  0  0
  161.0550  209.3150  152.3160 C   0  0  1  0  0  0  0  0  0  0  0  0
  160.8470  207.9240  151.7600 C   0  0  2  0  0  3  0  0  0  0  0  0
  162.2460  209.8620  151.8230 O   0  0  0  0  0  1  0  0  0  0  0  0
  161.6500  207.0070  152.6890 C   0  0  1  0  0  3  0  0  0  0  0  0
  161.1020  207.8290  150.3580 O   0  0  0  0  0  0  0  0  0  0  0  0
  162.5960  207.0410  148.7300 N   0  0  0  0  0  2  0  0  0  0  0  0
  160.7490  206.7820  146.9790 C   0  0  2  0  0  3  0  0  0  0  0  0
  160.6210  205.9200  145.3800 S   0  0  0  0  0  0  0  0  0  0  0  0
  162.0360  204.8490  145.7860 C   0  0  0  0  0  2  0  0  0  0  0  0
  162.0690  206.4180  147.5590 C   0  0  0  0  0  0  0  0  0  0  0  0
  162.7210  205.4410  146.9610 C   0  0  0  0  0  3  0  0  0  0  0  0
  159.7400  206.3400  147.8170 F   0  0  0  0  0  0  0  0  0  0  0  0
  2  1  2  0  0  0  0
  3  9  2  0  0  0  0
  3 11  1  0  0  0  0
  4  2  1  0  0  0  0
  4 11  1  0  0  0  0
  5  4  2  0  0  0  0
  6  9  1  0  0  0  0
  7  3  1  0  0  0  0
  8  7  1  0  0  0  0
  8  6  2  0  0  0  0
 10  7  2  0  0  0  0
 10  5  1  0  0  0  0
 12 10  1  0  0  0  0
 13 12  1  0  0  0  0
 14 17  2  0  0  0  0
 14 16  1  0  0  0  0
 15 13  1  0  0  0  0
 16 15  2  0  0  0  0
 17 18  1  0  0  0  0
 18 15  1  0  0  0  0
 19 17  1  0  0  0  0
 20 19  1  0  0  0  0
 21 19  2  0  0  0  0
 22  2  1  0  0  0  0
 25 29  1  0  0  0  0
 26 24  1  0  0  0  0
 26 22  1  1  0  0  0
 27 35  1  6  0  0  0
 27 28  1  0  0  0  0
 27 34  1  0  0  0  0
 28 25  1  0  0  0  0
 30 23  1  6  0  0  0
 30 26  1  0  0  0  0
 31 34  1  6  0  0  0
 31 30  1  0  0  0  0
 31 33  1  0  0  0  0
 32 30  1  0  0  0  0
 33 29  1  1  0  0  0
 33 24  1  0  0  0  0
 36 39  1  0  0  0  0
 36 41  1  1  0  0  0
 37 38  1  0  0  0  0
 37 36  1  0  0  0  0
 38 40  1  0  0  0  0
 39 35  1  0  0  0  0
 40 39  2  0  0  0  0
M  END
>  <MODEL>
2

>  <REMARK>
 VINA RESULT:      -7.8      3.210      7.748
  Name = 
  8 active torsions:
  status: ('A' for Active; 'I' for Inactive)
    1  A    between atoms: N_1  and  C_13
    2  A    between atoms: N_1  and  C_34
    3  A    between atoms: C_6  and  C_12
    4  A    between atoms: C_6  and  C_40
    5  A    between atoms: N_7  and  C_10
    6  A    between atoms: C_8  and  C_40
    7  A    between atoms: C_10  and  C_31
    8  A    between atoms: C_15  and  C_30
                            x       y       z     vdW  Elec       q    Type
                         _______ _______ _______ _____ _____    ______ ____

>  <TORSDO>
F 8

$$$$
=
 OpenBabel11072413283D

 41 46  0  0  1  0  0  0  0  0999 V2000
  162.0830  208.7400  150.5620 O   0  0  0  0  0  0  0  0  0  0  0  0
  162.0020  208.1110  151.6510 C   0  0  0  0  0  0  0  0  0  0  0  0
  160.5730  208.7050  155.1900 C   0  0  0  0  0  0  0  0  0  0  0  0
  161.3550  208.7340  152.8220 C   0  0  0  0  0  0  0  0  0  0  0  0
  160.7650  209.9460  152.6880 C   0  0  0  0  0  3  0  0  0  0  0  0
  159.4950  209.4350  157.0020 N   0  0  0  0  0  0  0  0  0  0  0  0
  159.9900  209.9870  154.9700 C   0  0  0  0  0  0  0  0  0  0  0  0
  159.3280  210.3760  156.1580 N   0  0  0  0  0  0  0  0  0  0  0  0
  160.2710  208.3680  156.4300 C   0  0  0  0  0  3  0  0  0  0  0  0
  160.0580  210.6220  153.8040 C   0  0  0  0  0  0  0  0  0  0  0  0
  161.3510  207.9720  154.1460 C   0  0  0  0  0  2  0  0  0  0  0  0
  159.3920  211.9400  153.6030 C   0  0  0  0  0  2  0  0  0  0  0  0
  160.0420  212.6660  152.5230 N   0  0  0  0  0  2  0  0  0  0  0  0
  158.9100  214.1030  149.4710 N   0  0  0  0  0  0  0  0  0  0  0  0
  159.3140  213.1390  151.3920 C   0  0  0  0  0  0  0  0  0  0  0  0
  159.8800  213.7680  150.4180 N   0  0  0  0  0  0  0  0  0  0  0  0
  157.7560  213.6800  149.8720 C   0  0  0  0  0  0  0  0  0  0  0  0
  157.8450  212.9830  151.1860 C   0  0  0  0  0  2  0  0  0  0  0  0
  156.5220  213.8750  149.1030 C   0  0  0  0  0  0  0  0  0  0  0  0
  156.5700  213.9860  147.7200 O   0  0  0  0  0  0  0  0  0  0  0  0
  155.4110  213.9220  149.6930 O   0  0  0  0  0  1  0  0  0  0  0  0
  162.5320  206.7150  151.7270 C   0  0  0  0  0  2  0  0  0  0  0  0
  159.8410  206.5280  149.6890 C   0  0  0  0  0  1  0  0  0  0  0  0
  161.8990  204.2860  151.8370 C   0  0  0  0  0  2  0  0  0  0  0  0
  160.0700  201.4080  150.0550 C   0  0  0  0  0  2  0  0  0  0  0  0
  161.4490  205.6830  151.4210 C   0  0  2  0  0  3  0  0  0  0  0  0
  161.2970  202.6190  148.1240 C   0  0  2  0  0  3  0  0  0  0  0  0
  160.6620  201.3130  148.6400 C   0  0  0  0  0  2  0  0  0  0  0  0
  161.0170  202.0200  151.1050 C   0  0  0  0  0  2  0  0  0  0  0  0
  161.0180  205.6090  149.9490 C   0  0  1  0  0  0  0  0  0  0  0  0
  160.6160  204.1610  149.7740 C   0  0  2  0  0  3  0  0  0  0  0  0
  162.0750  205.9260  149.0850 O   0  0  0  0  0  1  0  0  0  0  0  0
  161.5810  203.3760  150.6690 C   0  0  1  0  0  3  0  0  0  0  0  0
  160.5110  203.7620  148.4080 O   0  0  0  0  0  0  0  0  0  0  0  0
  161.5170  202.5210  146.6900 N   0  0  0  0  0  2  0  0  0  0  0  0
  160.4550  204.2100  145.0900 C   0  0  2  0  0  3  0  0  0  0  0  0
  160.9880  205.7970  144.3730 S   0  0  0  0  0  0  0  0  0  0  0  0
  162.7360  205.4260  144.7260 C   0  0  0  0  0  2  0  0  0  0  0  0
  161.6130  203.6690  145.8480 C   0  0  0  0  0  0  0  0  0  0  0  0
  162.7680  204.2790  145.6650 C   0  0  0  0  0  3  0  0  0  0  0  0
  160.1240  203.3360  144.0680 F   0  0  0  0  0  0  0  0  0  0  0  0
  1  2  2  0  0  0  0
  2 22  1  0  0  0  0
  2  4  1  0  0  0  0
  3  9  2  0  0  0  0
  4 11  1  0  0  0  0
  5  4  2  0  0  0  0
  5 10  1  0  0  0  0
  7  3  1  0  0  0  0
  7  8  1  0  0  0  0
  8  6  2  0  0  0  0
  9  6  1  0  0  0  0
 10  7  2  0  0  0  0
 11  3  1  0  0  0  0
 12 10  1  0  0  0  0
 13 12  1  0  0  0  0
 14 17  2  0  0  0  0
 14 16  1  0  0  0  0
 15 13  1  0  0  0  0
 16 15  2  0  0  0  0
 17 18  1  0  0  0  0
 18 15  1  0  0  0  0
 19 21  1  0  0  0  0
 19 17  1  0  0  0  0
 20 19  2  0  0  0  0
 25 29  1  0  0  0  0
 26 22  1  6  0  0  0
 26 24  1  0  0  0  0
 27 35  1  6  0  0  0
 27 34  1  0  0  0  0
 27 28  1  0  0  0  0
 28 25  1  0  0  0  0
 30 23  1  6  0  0  0
 30 26  1  0  0  0  0
 31 34  1  6  0  0  0
 31 30  1  0  0  0  0
 31 33  1  0  0  0  0
 32 30  1  0  0  0  0
 33 29  1  1  0  0  0
 33 24  1  0  0  0  0
 36 41  1  6  0  0  0
 36 39  1  0  0  0  0
 37 38  1  0  0  0  0
 37 36  1  0  0  0  0
 38 40  1  0  0  0  0
 39 35  1  0  0  0  0
 40 39  2  0  0  0  0
M  END
>  <MODEL>
3

>  <REMARK>
 VINA RESULT:      -7.5      4.068      8.601
  Name = 
  8 active torsions:
  status: ('A' for Active; 'I' for Inactive)
    1  A    between atoms: N_1  and  C_13
    2  A    between atoms: N_1  and  C_34
    3  A    between atoms: C_6  and  C_12
    4  A    between atoms: C_6  and  C_40
    5  A    between atoms: N_7  and  C_10
    6  A    between atoms: C_8  and  C_40
    7  A    between atoms: C_10  and  C_31
    8  A    between atoms: C_15  and  C_30
                            x       y       z     vdW  Elec       q    Type
                         _______ _______ _______ _____ _____    ______ ____

>  <TORSDO>
F 8

$$$$
=
 OpenBabel11072413283D

 41 46  0  0  1  0  0  0  0  0999 V2000
  161.9680  209.2310  149.8140 O   0  0  0  0  0  0  0  0  0  0  0  0
  161.9750  208.6420  150.9280 C   0  0  0  0  0  0  0  0  0  0  0  0
  160.5050  209.2280  154.4510 C   0  0  0  0  0  0  0  0  0  0  0  0
  161.3570  209.2770  152.1080 C   0  0  0  0  0  0  0  0  0  0  0  0
  160.8950  210.5470  152.0120 C   0  0  0  0  0  3  0  0  0  0  0  0
  159.4500  209.9870  156.2650 N   0  0  0  0  0  0  0  0  0  0  0  0
  160.0590  210.5700  154.2740 C   0  0  0  0  0  0  0  0  0  0  0  0
  159.4030  210.9750  155.4600 N   0  0  0  0  0  0  0  0  0  0  0  0
  160.1330  208.8720  155.6670 C   0  0  0  0  0  3  0  0  0  0  0  0
  160.2250  211.2440  153.1380 C   0  0  0  0  0  0  0  0  0  0  0  0
  161.2370  208.4650  153.3960 C   0  0  0  0  0  2  0  0  0  0  0  0
  159.7000  212.6300  152.9790 C   0  0  0  0  0  2  0  0  0  0  0  0
  158.5300  212.6210  152.1140 N   0  0  0  0  0  2  0  0  0  0  0  0
  157.9580  213.4960  148.7140 N   0  0  0  0  0  0  0  0  0  0  0  0
  158.6020  213.0350  150.7520 C   0  0  0  0  0  0  0  0  0  0  0  0
  157.5690  213.0500  149.9780 N   0  0  0  0  0  0  0  0  0  0  0  0
  159.2250  213.7500  148.7200 C   0  0  0  0  0  0  0  0  0  0  0  0
  159.8380  213.4900  150.0530 C   0  0  0  0  0  2  0  0  0  0  0  0
  159.9490  214.2350  147.5400 C   0  0  0  0  0  0  0  0  0  0  0  0
  161.3230  214.4320  147.5940 O   0  0  0  0  0  1  0  0  0  0  0  0
  159.3310  214.4530  146.4650 O   0  0  0  0  0  0  0  0  0  0  0  0
  162.5790  207.2770  151.0260 C   0  0  0  0  0  2  0  0  0  0  0  0
  159.8680  206.5430  149.1440 C   0  0  0  0  0  1  0  0  0  0  0  0
  161.9910  204.9450  151.7540 C   0  0  0  0  0  2  0  0  0  0  0  0
  160.1950  201.6840  150.7820 C   0  0  0  0  0  2  0  0  0  0  0  0
  161.5110  206.1850  151.0070 C   0  0  2  0  0  3  0  0  0  0  0  0
  161.3770  202.3880  148.5890 C   0  0  2  0  0  3  0  0  0  0  0  0
  160.7720  201.2450  149.4270 C   0  0  0  0  0  2  0  0  0  0  0  0
  161.1430  202.5550  151.6290 C   0  0  0  0  0  2  0  0  0  0  0  0
  161.0650  205.7370  149.6080 C   0  0  1  0  0  0  0  0  0  0  0  0
  160.6870  204.2860  149.8090 C   0  0  2  0  0  3  0  0  0  0  0  0
  162.1050  205.8420  148.6750 O   0  0  0  0  0  1  0  0  0  0  0  0
  161.6760  203.7660  150.8570 C   0  0  1  0  0  3  0  0  0  0  0  0
  160.5730  203.5550  148.5890 O   0  0  0  0  0  0  0  0  0  0  0  0
  161.5820  201.9360  147.2230 N   0  0  0  0  0  2  0  0  0  0  0  0
  159.8820  202.0140  145.3130 C   0  0  2  0  0  3  0  0  0  0  0  0
  159.3180  203.3060  144.1610 S   0  0  0  0  0  0  0  0  0  0  0  0
  160.8110  204.3030  144.4690 C   0  0  0  0  0  2  0  0  0  0  0  0
  161.0010  202.5970  146.1000 C   0  0  0  0  0  0  0  0  0  0  0  0
  161.4740  203.7520  145.6750 C   0  0  0  0  0  3  0  0  0  0  0  0
  160.3450  200.9280  144.5900 F   0  0  0  0  0  0  0  0  0  0  0  0
  1  2  2  0  0  0  0
  2 22  1  0  0  0  0
  2  4  1  0  0  0  0
  3  9  2  0  0  0  0
  4 11  1  0  0  0  0
  5  4  2  0  0  0  0
  5 10  1  0  0  0  0
  7  3  1  0  0  0  0
  7  8  1  0  0  0  0
  8  6  2  0  0  0  0
  9  6  1  0  0  0  0
 10  7  2  0  0  0  0
 11  3  1  0  0  0  0
 12 10  1  0  0  0  0
 13 12  1  0  0  0  0
 14 17  2  0  0  0  0
 14 16  1  0  0  0  0
 15 13  1  0  0  0  0
 16 15  2  0  0  0  0
 17 18  1  0  0  0  0
 18 15  1  0  0  0  0
 19 20  1  0  0  0  0
 19 17  1  0  0  0  0
 21 19  2  0  0  0  0
 25 29  1  0  0  0  0
 26 22  1  6  0  0  0
 26 24  1  0  0  0  0
 27 35  1  6  0  0  0
 27 34  1  0  0  0  0
 27 28  1  0  0  0  0
 28 25  1  0  0  0  0
 30 23  1  6  0  0  0
 30 31  1  0  0  0  0
 30 26  1  0  0  0  0
 31 34  1  6  0  0  0
 31 33  1  0  0  0  0
 32 30  1  0  0  0  0
 33 29  1  1  0  0  0
 33 24  1  0  0  0  0
 36 41  1  6  0  0  0
 36 39  1  0  0  0  0
 37 38  1  0  0  0  0
 37 36  1  0  0  0  0
 38 40  1  0  0  0  0
 39 35  1  0  0  0  0
 40 39  2  0  0  0  0
M  END
>  <MODEL>
4

>  <REMARK>
 VINA RESULT:      -7.5      4.151      8.561
  Name = 
  8 active torsions:
  status: ('A' for Active; 'I' for Inactive)
    1  A    between atoms: N_1  and  C_13
    2  A    between atoms: N_1  and  C_34
    3  A    between atoms: C_6  and  C_12
    4  A    between atoms: C_6  and  C_40
    5  A    between atoms: N_7  and  C_10
    6  A    between atoms: C_8  and  C_40
    7  A    between atoms: C_10  and  C_31
    8  A    between atoms: C_15  and  C_30
                            x       y       z     vdW  Elec       q    Type
                         _______ _______ _______ _____ _____    ______ ____

>  <TORSDO>
F 8

$$$$
=
 OpenBabel11072413283D

 41 46  0  0  1  0  0  0  0  0999 V2000
  161.9560  208.9080  150.4470 O   0  0  0  0  0  0  0  0  0  0  0  0
  161.9610  208.3440  151.5730 C   0  0  0  0  0  0  0  0  0  0  0  0
  160.5040  209.0380  155.0830 C   0  0  0  0  0  0  0  0  0  0  0  0
  161.3720  209.0220  152.7450 C   0  0  0  0  0  0  0  0  0  0  0  0
  160.9820  210.3150  152.6370 C   0  0  0  0  0  3  0  0  0  0  0  0
  159.4820  209.8680  156.8840 N   0  0  0  0  0  0  0  0  0  0  0  0
  160.1350  210.4010  154.8930 C   0  0  0  0  0  0  0  0  0  0  0  0
  159.4950  210.8510  156.0720 N   0  0  0  0  0  0  0  0  0  0  0  0
  160.1050  208.7120  156.2980 C   0  0  0  0  0  3  0  0  0  0  0  0
  160.3460  211.0560  153.7540 C   0  0  0  0  0  0  0  0  0  0  0  0
  161.1990  208.2270  154.0380 C   0  0  0  0  0  2  0  0  0  0  0  0
  159.8990  212.4680  153.5810 C   0  0  0  0  0  2  0  0  0  0  0  0
  158.6890  212.5110  152.7750 N   0  0  0  0  0  2  0  0  0  0  0  0
  157.9780  213.4790  149.4270 N   0  0  0  0  0  0  0  0  0  0  0  0
  158.7060  212.9540  151.4210 C   0  0  0  0  0  0  0  0  0  0  0  0
  157.6380  213.0160  150.6990 N   0  0  0  0  0  0  0  0  0  0  0  0
  159.2500  213.6980  149.3760 C   0  0  0  0  0  0  0  0  0  0  0  0
  159.9190  213.3910  150.6710 C   0  0  0  0  0  2  0  0  0  0  0  0
  159.9290  214.1900  148.1720 C   0  0  0  0  0  0  0  0  0  0  0  0
  161.3040  214.3910  148.1780 O   0  0  0  0  0  1  0  0  0  0  0  0
  159.2720  214.4100  147.1210 O   0  0  0  0  0  0  0  0  0  0  0  0
  162.5320  206.9670  151.6970 C   0  0  0  0  0  2  0  0  0  0  0  0
  159.7810  206.6300  149.7610 C   0  0  0  0  0  1  0  0  0  0  0  0
  161.9770  204.5260  151.9120 C   0  0  0  0  0  2  0  0  0  0  0  0
  160.1790  201.5350  150.2940 C   0  0  0  0  0  2  0  0  0  0  0  0
  161.4710  205.8940  151.4640 C   0  0  2  0  0  3  0  0  0  0  0  0
  161.3030  202.7130  148.2800 C   0  0  2  0  0  3  0  0  0  0  0  0
  160.7260  201.4080  148.8630 C   0  0  0  0  0  2  0  0  0  0  0  0
  161.1410  202.2110  151.2880 C   0  0  0  0  0  2  0  0  0  0  0  0
  160.9940  205.7560  150.0120 C   0  0  1  0  0  0  0  0  0  0  0  0
  160.6300  204.2920  149.9000 C   0  0  2  0  0  3  0  0  0  0  0  0
  162.0110  206.0740  149.1010 O   0  0  0  0  0  1  0  0  0  0  0  0
  161.6480  203.5670  150.7870 C   0  0  1  0  0  3  0  0  0  0  0  0
  160.4920  203.8420  148.5530 O   0  0  0  0  0  0  0  0  0  0  0  0
  161.4770  202.5710  146.8440 N   0  0  0  0  0  2  0  0  0  0  0  0
  160.4590  204.1910  145.1460 C   0  0  2  0  0  3  0  0  0  0  0  0
  160.9980  205.7630  144.4020 S   0  0  0  0  0  0  0  0  0  0  0  0
  162.7350  205.4330  144.8420 C   0  0  0  0  0  2  0  0  0  0  0  0
  161.5920  203.6940  145.9700 C   0  0  0  0  0  0  0  0  0  0  0  0
  162.7430  204.3170  145.8180 C   0  0  0  0  0  3  0  0  0  0  0  0
  160.1870  203.2790  144.1400 F   0  0  0  0  0  0  0  0  0  0  0  0
  1  2  2  0  0  0  0
  2 22  1  0  0  0  0
  2  4  1  0  0  0  0
  3  9  2  0  0  0  0
  4 11  1  0  0  0  0
  5  4  2  0  0  0  0
  5 10  1  0  0  0  0
  7  3  1  0  0  0  0
  7  8  1  0  0  0  0
  8  6  2  0  0  0  0
  9  6  1  0  0  0  0
 10  7  2  0  0  0  0
 11  3  1  0  0  0  0
 12 10  1  0  0  0  0
 13 12  1  0  0  0  0
 14 16  1  0  0  0  0
 15 13  1  0  0  0  0
 16 15  2  0  0  0  0
 17 14  2  0  0  0  0
 17 18  1  0  0  0  0
 18 15  1  0  0  0  0
 19 20  1  0  0  0  0
 19 17  1  0  0  0  0
 21 19  2  0  0  0  0
 25 29  1  0  0  0  0
 26 22  1  6  0  0  0
 26 24  1  0  0  0  0
 27 35  1  6  0  0  0
 27 34  1  0  0  0  0
 27 28  1  0  0  0  0
 28 25  1  0  0  0  0
 30 23  1  6  0  0  0
 30 26  1  0  0  0  0
 31 34  1  6  0  0  0
 31 30  1  0  0  0  0
 31 33  1  0  0  0  0
 32 30  1  0  0  0  0
 33 29  1  1  0  0  0
 33 24  1  0  0  0  0
 36 41  1  6  0  0  0
 36 39  1  0  0  0  0
 37 38  1  0  0  0  0
 37 36  1  0  0  0  0
 38 40  1  0  0  0  0
 39 35  1  0  0  0  0
 40 39  2  0  0  0  0
M  END
>  <MODEL>
5

>  <REMARK>
 VINA RESULT:      -7.3      3.910      8.472
  Name = 
  8 active torsions:
  status: ('A' for Active; 'I' for Inactive)
    1  A    between atoms: N_1  and  C_13
    2  A    between atoms: N_1  and  C_34
    3  A    between atoms: C_6  and  C_12
    4  A    between atoms: C_6  and  C_40
    5  A    between atoms: N_7  and  C_10
    6  A    between atoms: C_8  and  C_40
    7  A    between atoms: C_10  and  C_31
    8  A    between atoms: C_15  and  C_30
                            x       y       z     vdW  Elec       q    Type
                         _______ _______ _______ _____ _____    ______ ____

>  <TORSDO>
F 8

$$$$
=
 OpenBabel11072413283D

 41 46  0  0  1  0  0  0  0  0999 V2000
  161.2320  206.2040  154.9500 O   0  0  0  0  0  0  0  0  0  0  0  0
  161.3260  207.0000  153.9780 C   0  0  0  0  0  0  0  0  0  0  0  0
  159.7940  210.2560  155.3820 C   0  0  0  0  0  0  0  0  0  0  0  0
  160.8540  208.3920  154.1080 C   0  0  0  0  0  0  0  0  0  0  0  0
  160.8900  209.2090  153.0280 C   0  0  0  0  0  3  0  0  0  0  0  0
  158.8930  212.2730  155.6940 N   0  0  0  0  0  0  0  0  0  0  0  0
  159.8810  211.0550  154.2050 C   0  0  0  0  0  0  0  0  0  0  0  0
  159.2900  212.3100  154.4820 N   0  0  0  0  0  0  0  0  0  0  0  0
  159.1910  210.9990  156.2910 C   0  0  0  0  0  3  0  0  0  0  0  0
  160.3980  210.6080  153.0640 C   0  0  0  0  0  0  0  0  0  0  0  0
  160.3130  208.8570  155.4590 C   0  0  0  0  0  2  0  0  0  0  0  0
  160.4240  211.4620  151.8420 C   0  0  0  0  0  2  0  0  0  0  0  0
  161.3600  210.9130  150.8730 N   0  0  0  0  0  2  0  0  0  0  0  0
  162.3850  211.8710  147.6040 N   0  0  0  0  0  0  0  0  0  0  0  0
  161.5760  211.5300  149.6060 C   0  0  0  0  0  0  0  0  0  0  0  0
  162.3880  211.0450  148.7290 N   0  0  0  0  0  0  0  0  0  0  0  0
  161.5730  212.8570  147.7980 C   0  0  0  0  0  0  0  0  0  0  0  0
  160.9180  212.7830  149.1340 C   0  0  0  0  0  2  0  0  0  0  0  0
  161.3420  213.9110  146.8040 C   0  0  0  0  0  0  0  0  0  0  0  0
  160.0650  214.4230  146.6120 O   0  0  0  0  0  1  0  0  0  0  0  0
  162.3040  214.3710  146.1350 O   0  0  0  0  0  0  0  0  0  0  0  0
  161.9560  206.5260  152.7060 C   0  0  0  0  0  2  0  0  0  0  0  0
  159.9990  206.8640  149.9700 C   0  0  0  0  0  1  0  0  0  0  0  0
  161.3090  204.1580  152.1690 C   0  0  0  0  0  2  0  0  0  0  0  0
  160.0880  201.7560  149.4230 C   0  0  0  0  0  2  0  0  0  0  0  0
  161.0100  205.6310  151.9080 C   0  0  2  0  0  3  0  0  0  0  0  0
  161.8420  203.2150  148.2000 C   0  0  2  0  0  3  0  0  0  0  0  0
  161.0770  201.8780  148.2530 C   0  0  0  0  0  2  0  0  0  0  0  0
  160.6790  202.1150  150.8000 C   0  0  0  0  0  2  0  0  0  0  0  0
  161.0400  205.8450  150.3880 C   0  0  1  0  0  0  0  0  0  0  0  0
  160.7040  204.4780  149.8350 C   0  0  2  0  0  3  0  0  0  0  0  0
  162.3090  206.2470  149.9480 O   0  0  0  0  0  1  0  0  0  0  0  0
  161.3530  203.4900  150.8110 C   0  0  1  0  0  3  0  0  0  0  0  0
  161.0110  204.3350  148.4490 O   0  0  0  0  0  0  0  0  0  0  0  0
  162.4820  203.3600  146.9020 N   0  0  0  0  0  2  0  0  0  0  0  0
  162.2770  205.4050  145.3800 C   0  0  2  0  0  3  0  0  0  0  0  0
  161.3940  205.7550  143.8260 S   0  0  0  0  0  0  0  0  0  0  0  0
  160.2660  204.3500  144.0920 C   0  0  0  0  0  2  0  0  0  0  0  0
  161.8630  204.0450  145.8140 C   0  0  0  0  0  0  0  0  0  0  0  0
  160.8470  203.5090  145.1670 C   0  0  0  0  0  3  0  0  0  0  0  0
  161.8960  206.3290  146.3380 F   0  0  0  0  0  0  0  0  0  0  0  0
  2  4  1  0  0  0  0
  2  1  2  0  0  0  0
  3 11  1  0  0  0  0
  3  9  2  0  0  0  0
  4 11  1  0  0  0  0
  5 10  1  0  0  0  0
  5  4  2  0  0  0  0
  6  9  1  0  0  0  0
  7  8  1  0  0  0  0
  7  3  1  0  0  0  0
  8  6  2  0  0  0  0
 10  7  2  0  0  0  0
 12 10  1  0  0  0  0
 13 12  1  0  0  0  0
 14 17  2  0  0  0  0
 14 16  1  0  0  0  0
 15 13  1  0  0  0  0
 16 15  2  0  0  0  0
 17 18  1  0  0  0  0
 18 15  1  0  0  0  0
 19 17  1  0  0  0  0
 20 19  1  0  0  0  0
 21 19  2  0  0  0  0
 22  2  1  0  0  0  0
 25 29  1  0  0  0  0
 26 24  1  0  0  0  0
 26 22  1  1  0  0  0
 27 35  1  6  0  0  0
 27 28  1  0  0  0  0
 27 34  1  0  0  0  0
 28 25  1  0  0  0  0
 30 23  1  6  0  0  0
 30 26  1  0  0  0  0
 31 34  1  6  0  0  0
 31 30  1  0  0  0  0
 31 33  1  0  0  0  0
 32 30  1  0  0  0  0
 33 29  1  1  0  0  0
 33 24  1  0  0  0  0
 36 39  1  0  0  0  0
 36 41  1  1  0  0  0
 37 38  1  0  0  0  0
 37 36  1  0  0  0  0
 38 40  1  0  0  0  0
 39 35  1  0  0  0  0
 40 39  2  0  0  0  0
M  END
>  <MODEL>
6

>  <REMARK>
 VINA RESULT:      -7.2      3.402      8.221
  Name = 
  8 active torsions:
  status: ('A' for Active; 'I' for Inactive)
    1  A    between atoms: N_1  and  C_13
    2  A    between atoms: N_1  and  C_34
    3  A    between atoms: C_6  and  C_12
    4  A    between atoms: C_6  and  C_40
    5  A    between atoms: N_7  and  C_10
    6  A    between atoms: C_8  and  C_40
    7  A    between atoms: C_10  and  C_31
    8  A    between atoms: C_15  and  C_30
                            x       y       z     vdW  Elec       q    Type
                         _______ _______ _______ _____ _____    ______ ____

>  <TORSDO>
F 8

$$$$
=
 OpenBabel11072413283D

 41 46  0  0  1  0  0  0  0  0999 V2000
  161.8150  210.4720  154.7740 O   0  0  0  0  0  0  0  0  0  0  0  0
  160.7550  210.1700  154.1650 C   0  0  0  0  0  0  0  0  0  0  0  0
  157.4240  212.1200  154.3120 C   0  0  0  0  0  0  0  0  0  0  0  0
  159.7070  211.1860  153.9470 C   0  0  0  0  0  0  0  0  0  0  0  0
  159.9220  212.1770  153.0490 C   0  0  0  0  0  3  0  0  0  0  0  0
  155.6860  213.4770  153.9720 N   0  0  0  0  0  0  0  0  0  0  0  0
  157.7330  213.1370  153.3630 C   0  0  0  0  0  0  0  0  0  0  0  0
  156.5860  213.9500  153.2030 N   0  0  0  0  0  0  0  0  0  0  0  0
  156.1740  212.3270  154.6830 C   0  0  0  0  0  3  0  0  0  0  0  0
  158.9060  213.2140  152.7400 C   0  0  0  0  0  0  0  0  0  0  0  0
  158.4000  211.0680  154.7280 C   0  0  0  0  0  2  0  0  0  0  0  0
  159.1700  214.2660  151.7180 C   0  0  0  0  0  2  0  0  0  0  0  0
  158.5680  213.8890  150.4490 N   0  0  0  0  0  2  0  0  0  0  0  0
  159.8690  212.9200  147.2830 N   0  0  0  0  0  0  0  0  0  0  0  0
  159.3610  213.5350  149.3190 C   0  0  0  0  0  0  0  0  0  0  0  0
  158.8420  213.2160  148.1810 N   0  0  0  0  0  0  0  0  0  0  0  0
  161.0090  213.0570  147.8750 C   0  0  0  0  0  0  0  0  0  0  0  0
  160.8520  213.4830  149.2940 C   0  0  0  0  0  2  0  0  0  0  0  0
  162.2920  212.8160  147.2050 C   0  0  0  0  0  0  0  0  0  0  0  0
  162.4310  213.0760  145.8470 O   0  0  0  0  0  0  0  0  0  0  0  0
  163.2780  212.3930  147.8620 O   0  0  0  0  0  1  0  0  0  0  0  0
  160.5900  208.7810  153.6340 C   0  0  0  0  0  2  0  0  0  0  0  0
  162.7580  206.2720  152.9710 C   0  0  0  0  0  1  0  0  0  0  0  0
  161.3310  209.2710  151.2830 C   0  0  0  0  0  2  0  0  0  0  0  0
  162.8270  207.7900  148.0630 C   0  0  0  0  0  2  0  0  0  0  0  0
  161.6180  208.4680  152.5490 C   0  0  2  0  0  3  0  0  0  0  0  0
  161.1470  205.9740  148.8280 C   0  0  2  0  0  3  0  0  0  0  0  0
  161.9350  206.6040  147.6620 C   0  0  0  0  0  2  0  0  0  0  0  0
  162.1170  208.8690  148.9030 C   0  0  0  0  0  2  0  0  0  0  0  0
  161.7080  206.9890  152.1450 C   0  0  1  0  0  0  0  0  0  0  0  0
  162.1190  207.0470  150.6910 C   0  0  2  0  0  3  0  0  0  0  0  0
  160.4720  206.3420  152.2740 O   0  0  0  0  0  1  0  0  0  0  0  0
  161.4140  208.2890  150.1340 C   0  0  1  0  0  3  0  0  0  0  0  0
  161.9300  205.8140  149.9970 O   0  0  0  0  0  0  0  0  0  0  0  0
  160.6140  204.6860  148.4160 N   0  0  0  0  0  2  0  0  0  0  0  0
  160.7550  202.1410  148.6210 C   0  0  2  0  0  3  0  0  0  0  0  0
  161.2190  200.9930  149.9560 S   0  0  0  0  0  0  0  0  0  0  0  0
  160.9530  202.2770  151.2200 C   0  0  0  0  0  2  0  0  0  0  0  0
  160.7600  203.5070  149.2060 C   0  0  0  0  0  0  0  0  0  0  0  0
  160.8580  203.5800  150.5190 C   0  0  0  0  0  3  0  0  0  0  0  0
  159.4800  201.8340  148.1780 F   0  0  0  0  0  0  0  0  0  0  0  0
  2  1  2  0  0  0  0
  3  9  2  0  0  0  0
  3 11  1  0  0  0  0
  4  2  1  0  0  0  0
  4 11  1  0  0  0  0
  5  4  2  0  0  0  0
  6  9  1  0  0  0  0
  7  3  1  0  0  0  0
  8  7  1  0  0  0  0
  8  6  2  0  0  0  0
 10  5  1  0  0  0  0
 10  7  2  0  0  0  0
 12 10  1  0  0  0  0
 13 12  1  0  0  0  0
 14 17  2  0  0  0  0
 14 16  1  0  0  0  0
 15 13  1  0  0  0  0
 16 15  2  0  0  0  0
 17 18  1  0  0  0  0
 18 15  1  0  0  0  0
 19 21  1  0  0  0  0
 19 17  1  0  0  0  0
 20 19  2  0  0  0  0
 22  2  1  0  0  0  0
 24 26  1  0  0  0  0
 25 29  1  0  0  0  0
 26 22  1  1  0  0  0
 27 35  1  6  0  0  0
 27 34  1  0  0  0  0
 28 25  1  0  0  0  0
 28 27  1  0  0  0  0
 30 32  1  0  0  0  0
 30 26  1  0  0  0  0
 30 23  1  1  0  0  0
 31 34  1  6  0  0  0
 31 30  1  0  0  0  0
 33 29  1  6  0  0  0
 33 31  1  0  0  0  0
 33 24  1  0  0  0  0
 35 39  1  0  0  0  0
 36 41  1  1  0  0  0
 36 39  1  0  0  0  0
 36 37  1  0  0  0  0
 37 38  1  0  0  0  0
 39 40  2  0  0  0  0
 40 38  1  0  0  0  0
M  END
>  <MODEL>
7

>  <REMARK>
 VINA RESULT:      -7.2      3.487      8.030
  Name = 
  8 active torsions:
  status: ('A' for Active; 'I' for Inactive)
    1  A    between atoms: N_1  and  C_13
    2  A    between atoms: N_1  and  C_34
    3  A    between atoms: C_6  and  C_12
    4  A    between atoms: C_6  and  C_40
    5  A    between atoms: N_7  and  C_10
    6  A    between atoms: C_8  and  C_40
    7  A    between atoms: C_10  and  C_31
    8  A    between atoms: C_15  and  C_30
                            x       y       z     vdW  Elec       q    Type
                         _______ _______ _______ _____ _____    ______ ____

>  <TORSDO>
F 8

$$$$
=
 OpenBabel11072413283D

 41 46  0  0  1  0  0  0  0  0999 V2000
  160.2190  212.9560  151.2690 O   0  0  0  0  0  0  0  0  0  0  0  0
  160.8600  211.8990  151.0290 C   0  0  0  0  0  0  0  0  0  0  0  0
  160.9800  209.9460  154.3590 C   0  0  0  0  0  0  0  0  0  0  0  0
  160.8890  210.8060  152.0200 C   0  0  0  0  0  0  0  0  0  0  0  0
  160.9770  209.5240  151.5910 C   0  0  0  0  0  3  0  0  0  0  0  0
  161.1820  208.4220  155.9760 N   0  0  0  0  0  0  0  0  0  0  0  0
  161.0560  208.6260  153.8270 C   0  0  0  0  0  0  0  0  0  0  0  0
  161.1840  207.7240  154.9090 N   0  0  0  0  0  0  0  0  0  0  0  0
  161.0560  209.8220  155.6710 C   0  0  0  0  0  3  0  0  0  0  0  0
  161.0520  208.3700  152.5220 C   0  0  0  0  0  0  0  0  0  0  0  0
  160.8450  211.1640  153.5040 C   0  0  0  0  0  2  0  0  0  0  0  0
  161.1840  206.9770  152.0070 C   0  0  0  0  0  2  0  0  0  0  0  0
  161.2800  206.9910  150.5560 N   0  0  0  0  0  2  0  0  0  0  0  0
  161.1760  204.4740  148.0430 N   0  0  0  0  0  0  0  0  0  0  0  0
  161.1990  205.7930  149.7870 C   0  0  0  0  0  0  0  0  0  0  0  0
  161.3010  205.7870  148.5010 N   0  0  0  0  0  0  0  0  0  0  0  0
  160.9970  203.6840  149.0500 C   0  0  0  0  0  0  0  0  0  0  0  0
  160.9880  204.4250  150.3430 C   0  0  0  0  0  2  0  0  0  0  0  0
  160.8260  202.2340  148.9090 C   0  0  0  0  0  0  0  0  0  0  0  0
  160.8920  201.4100  150.0250 O   0  0  0  0  0  1  0  0  0  0  0  0
  160.5970  201.7330  147.7770 O   0  0  0  0  0  0  0  0  0  0  0  0
  161.5560  211.7510  149.7130 C   0  0  0  0  0  2  0  0  0  0  0  0
  162.9770  214.4530  148.2580 C   0  0  0  0  0  1  0  0  0  0  0  0
  159.9110  212.3650  147.9150 C   0  0  0  0  0  2  0  0  0  0  0  0
  159.4210  214.1800  144.5590 C   0  0  0  0  0  2  0  0  0  0  0  0
  161.1210  212.8280  148.7220 C   0  0  2  0  0  3  0  0  0  0  0  0
  161.6920  212.9740  144.2570 C   0  0  2  0  0  3  0  0  0  0  0  0
  160.4530  213.5960  143.5820 C   0  0  0  0  0  2  0  0  0  0  0  0
  159.0150  213.2330  145.7040 C   0  0  0  0  0  2  0  0  0  0  0  0
  162.2000  213.2670  147.7210 C   0  0  1  0  0  0  0  0  0  0  0  0
  161.4040  213.6580  146.4960 C   0  0  2  0  0  3  0  0  0  0  0  0
  163.0770  212.2180  147.4150 O   0  0  0  0  0  1  0  0  0  0  0  0
  160.2230  212.6820  146.4680 C   0  0  1  0  0  3  0  0  0  0  0  0
  162.1980  213.7680  145.3150 O   0  0  0  0  0  0  0  0  0  0  0  0
  162.7330  212.7620  143.2640 N   0  0  0  0  0  2  0  0  0  0  0  0
  161.9000  211.8900  141.0080 C   0  0  2  0  0  3  0  0  0  0  0  0
  161.5850  212.6530  139.3850 S   0  0  0  0  0  0  0  0  0  0  0  0
  162.6360  214.0820  139.7960 C   0  0  0  0  0  2  0  0  0  0  0  0
  162.5080  212.9410  141.8660 C   0  0  0  0  0  0  0  0  0  0  0  0
  162.8830  214.0490  141.2570 C   0  0  0  0  0  3  0  0  0  0  0  0
  162.7970  210.8460  140.8550 F   0  0  0  0  0  0  0  0  0  0  0  0
  2  1  2  0  0  0  0
  2  4  1  0  0  0  0
  3  9  2  0  0  0  0
  4 11  1  0  0  0  0
  5  4  2  0  0  0  0
  5 10  1  0  0  0  0
  7  3  1  0  0  0  0
  7  8  1  0  0  0  0
  8  6  2  0  0  0  0
  9  6  1  0  0  0  0
 10  7  2  0  0  0  0
 11  3  1  0  0  0  0
 12 10  1  0  0  0  0
 13 12  1  0  0  0  0
 14 16  1  0  0  0  0
 14 17  2  0  0  0  0
 15 18  1  0  0  0  0
 15 13  1  0  0  0  0
 16 15  2  0  0  0  0
 17 18  1  0  0  0  0
 19 17  1  0  0  0  0
 19 20  1  0  0  0  0
 21 19  2  0  0  0  0
 22  2  1  0  0  0  0
 24 26  1  0  0  0  0
 25 29  1  0  0  0  0
 26 22  1  6  0  0  0
 27 35  1  6  0  0  0
 27 34  1  0  0  0  0
 28 27  1  0  0  0  0
 28 25  1  0  0  0  0
 30 23  1  1  0  0  0
 30 26  1  0  0  0  0
 31 34  1  6  0  0  0
 31 30  1  0  0  0  0
 32 30  1  0  0  0  0
 33 29  1  1  0  0  0
 33 31  1  0  0  0  0
 33 24  1  0  0  0  0
 36 41  1  6  0  0  0
 36 39  1  0  0  0  0
 37 38  1  0  0  0  0
 37 36  1  0  0  0  0
 38 40  1  0  0  0  0
 39 35  1  0  0  0  0
 40 39  2  0  0  0  0
M  END
>  <MODEL>
8

>  <REMARK>
 VINA RESULT:      -7.2      4.700     10.023
  Name = 
  8 active torsions:
  status: ('A' for Active; 'I' for Inactive)
    1  A    between atoms: N_1  and  C_13
    2  A    between atoms: N_1  and  C_34
    3  A    between atoms: C_6  and  C_12
    4  A    between atoms: C_6  and  C_40
    5  A    between atoms: N_7  and  C_10
    6  A    between atoms: C_8  and  C_40
    7  A    between atoms: C_10  and  C_31
    8  A    between atoms: C_15  and  C_30
                            x       y       z     vdW  Elec       q    Type
                         _______ _______ _______ _____ _____    ______ ____

>  <TORSDO>
F 8

$$$$
=
 OpenBabel11072413283D

 41 46  0  0  1  0  0  0  0  0999 V2000
  162.2210  206.4700  153.6500 O   0  0  0  0  0  0  0  0  0  0  0  0
  161.2990  206.9330  152.9260 C   0  0  0  0  0  0  0  0  0  0  0  0
  161.1770  205.3000  149.4270 C   0  0  0  0  0  0  0  0  0  0  0  0
  161.3310  206.7310  151.4650 C   0  0  0  0  0  0  0  0  0  0  0  0
  161.6710  207.7660  150.6590 C   0  0  0  0  0  3  0  0  0  0  0  0
  161.3420  204.7950  147.2610 N   0  0  0  0  0  0  0  0  0  0  0  0
  161.5270  206.4420  148.6490 C   0  0  0  0  0  0  0  0  0  0  0  0
  161.6140  206.0400  147.2960 N   0  0  0  0  0  0  0  0  0  0  0  0
  161.0640  204.2950  148.5800 C   0  0  0  0  0  3  0  0  0  0  0  0
  161.7660  207.6370  149.1840 C   0  0  0  0  0  0  0  0  0  0  0  0
  161.0020  205.3460  150.9110 C   0  0  0  0  0  2  0  0  0  0  0  0
  162.1780  208.7930  148.3380 C   0  0  0  0  0  2  0  0  0  0  0  0
  162.3030  209.9880  149.1570 N   0  0  0  0  0  2  0  0  0  0  0  0
  161.1530  213.3390  148.8390 N   0  0  0  0  0  0  0  0  0  0  0  0
  161.7170  211.2280  148.7690 C   0  0  0  0  0  0  0  0  0  0  0  0
  161.8350  212.3010  149.4760 N   0  0  0  0  0  0  0  0  0  0  0  0
  160.6200  212.8970  147.7490 C   0  0  0  0  0  0  0  0  0  0  0  0
  160.9100  211.4510  147.5350 C   0  0  0  0  0  2  0  0  0  0  0  0
  159.8280  213.7400  146.8460 C   0  0  0  0  0  0  0  0  0  0  0  0
  158.4460  213.7920  146.9720 O   0  0  0  0  0  1  0  0  0  0  0  0
  160.4000  214.4380  145.9690 O   0  0  0  0  0  0  0  0  0  0  0  0
  160.1570  207.6520  153.5710 C   0  0  0  0  0  2  0  0  0  0  0  0
  162.3810  210.1930  153.3990 C   0  0  0  0  0  1  0  0  0  0  0  0
  159.6290  209.0130  155.6160 C   0  0  0  0  0  2  0  0  0  0  0  0
  159.8800  212.4820  157.2610 C   0  0  0  0  0  2  0  0  0  0  0  0
  160.6430  208.7590  154.5040 C   0  0  2  0  0  3  0  0  0  0  0  0
  159.2490  213.0300  154.8100 C   0  0  2  0  0  3  0  0  0  0  0  0
  159.2470  213.4850  156.2830 C   0  0  0  0  0  2  0  0  0  0  0  0
  159.3600  211.0390  157.1230 C   0  0  0  0  0  2  0  0  0  0  0  0
  160.9280  210.1050  153.8240 C   0  0  1  0  0  0  0  0  0  0  0  0
  160.6250  211.1160  154.9070 C   0  0  2  0  0  3  0  0  0  0  0  0
  160.0920  210.3130  152.7190 O   0  0  0  0  0  1  0  0  0  0  0  0
  159.4500  210.5150  155.6860 C   0  0  1  0  0  3  0  0  0  0  0  0
  160.4790  212.4480  154.4160 O   0  0  0  0  0  0  0  0  0  0  0  0
  158.9450  214.1620  153.9500 N   0  0  0  0  0  2  0  0  0  0  0  0
  156.6100  213.8760  152.9460 C   0  0  2  0  0  3  0  0  0  0  0  0
  155.9130  214.0470  151.2720 S   0  0  0  0  0  0  0  0  0  0  0  0
  157.5620  213.8980  150.5150 C   0  0  0  0  0  2  0  0  0  0  0  0
  158.0800  214.0570  152.8200 C   0  0  0  0  0  0  0  0  0  0  0  0
  158.5660  214.0660  151.5940 C   0  0  0  0  0  3  0  0  0  0  0  0
  156.3420  212.6050  153.4240 F   0  0  0  0  0  0  0  0  0  0  0  0
  2 22  1  0  0  0  0
  2  1  2  0  0  0  0
  3 11  1  0  0  0  0
  4  2  1  0  0  0  0
  5  4  2  0  0  0  0
  6  8  2  0  0  0  0
  6  9  1  0  0  0  0
  7 10  2  0  0  0  0
  7  3  1  0  0  0  0
  8  7  1  0  0  0  0
  9  3  2  0  0  0  0
 10  5  1  0  0  0  0
 11  4  1  0  0  0  0
 12 13  1  0  0  0  0
 12 10  1  0  0  0  0
 14 16  1  0  0  0  0
 15 13  1  0  0  0  0
 15 16  2  0  0  0  0
 17 14  2  0  0  0  0
 18 17  1  0  0  0  0
 18 15  1  0  0  0  0
 19 20  1  0  0  0  0
 19 17  1  0  0  0  0
 21 19  2  0  0  0  0
 26 22  1  6  0  0  0
 26 24  1  0  0  0  0
 27 35  1  6  0  0  0
 27 28  1  0  0  0  0
 28 25  1  0  0  0  0
 29 25  1  0  0  0  0
 30 23  1  6  0  0  0
 30 26  1  0  0  0  0
 30 31  1  0  0  0  0
 31 34  1  6  0  0  0
 31 33  1  0  0  0  0
 32 30  1  0  0  0  0
 33 24  1  1  0  0  0
 33 29  1  0  0  0  0
 34 27  1  0  0  0  0
 36 41  1  6  0  0  0
 37 36  1  0  0  0  0
 38 37  1  0  0  0  0
 38 40  1  0  0  0  0
 39 36  1  0  0  0  0
 39 35  1  0  0  0  0
 40 39  2  0  0  0  0
M  END
>  <MODEL>
9

>  <REMARK>
 VINA RESULT:      -6.7      1.492      1.895
  Name = 
  8 active torsions:
  status: ('A' for Active; 'I' for Inactive)
    1  A    between atoms: N_1  and  C_13
    2  A    between atoms: N_1  and  C_34
    3  A    between atoms: C_6  and  C_12
    4  A    between atoms: C_6  and  C_40
    5  A    between atoms: N_7  and  C_10
    6  A    between atoms: C_8  and  C_40
    7  A    between atoms: C_10  and  C_31
    8  A    between atoms: C_15  and  C_30
                            x       y       z     vdW  Elec       q    Type
                         _______ _______ _______ _____ _____    ______ ____

>  <TORSDO>
F 8

$$$$
