=
 OpenBabel11072413493D

 29 31  0  0  1  0  0  0  0  0999 V2000
  161.9700  206.6240  153.0490 N   0  0  0  0  0  2  0  0  0  0  0  0
  161.0710  206.0880  150.9550 C   0  0  0  0  0  0  0  0  0  0  0  0
  161.6970  207.1800  151.7240 C   0  0  1  0  0  3  0  0  0  0  0  0
  161.2370  205.3570  153.1580 C   0  0  0  0  0  2  0  0  0  0  0  0
  160.8220  204.8900  151.7700 C   0  0  2  0  0  3  0  0  0  0  0  0
  160.7900  206.1690  149.7690 O   0  0  0  0  0  0  0  0  0  0  0  0
  160.7320  208.3550  151.8390 C   0  0  0  0  0  2  0  0  0  0  0  0
  162.5530  209.7480  151.2830 O   0  0  0  0  0  0  0  0  0  0  0  0
  161.4690  209.6560  151.8380 C   0  0  0  0  0  0  0  0  0  0  0  0
  160.8560  210.8460  152.4950 C   0  0  0  0  0  2  0  0  0  0  0  0
  160.0640  210.4170  153.7180 C   0  0  0  0  0  2  0  0  0  0  0  0
  160.2360  208.8680  155.6620 C   0  0  0  0  0  2  0  0  0  0  0  0
  160.7750  208.7680  157.0950 C   0  0  0  0  0  2  0  0  0  0  0  0
  160.9940  209.8780  154.7890 C   0  0  0  0  0  3  0  0  0  0  0  0
  162.5630  210.5030  156.6730 C   0  0  0  0  0  2  0  0  0  0  0  0
  161.5620  211.0210  155.6310 C   0  0  0  0  0  2  0  0  0  0  0  0
  162.2700  209.0730  157.1480 C   0  0  0  0  0  2  0  0  0  0  0  0
  161.7190  203.7490  151.3040 C   0  0  0  0  0  2  0  0  0  0  0  0
  160.9260  202.4630  151.1130 C   0  0  0  0  0  2  0  0  0  0  0  0
  161.1920  202.7900  147.2590 C   0  0  0  0  0  0  0  0  0  0  0  0
  160.8860  202.0650  149.6780 C   0  0  0  0  0  0  0  0  0  0  0  0
  160.8770  201.6590  146.8010 O   0  0  0  0  0  0  0  0  0  0  0  0
  161.2350  203.0210  148.6720 N   0  0  0  0  0  2  0  0  0  0  0  0
  160.5170  200.9000  149.3680 O   0  0  0  0  0  0  0  0  0  0  0  0
  161.5140  203.8880  146.3420 C   0  0  0  0  0  0  0  0  0  0  0  0
  162.3750  204.9320  146.6100 C   0  0  0  0  0  3  0  0  0  0  0  0
  162.3620  205.7030  145.4600 C   0  0  0  0  0  3  0  0  0  0  0  0
  161.4970  205.0810  144.5750 C   0  0  0  0  0  3  0  0  0  0  0  0
  161.0120  204.0010  145.1390 O   0  0  0  0  0  0  0  0  0  0  0  0
  1  4  1  0  0  0  0
  2  3  1  0  0  0  0
  2  5  1  0  0  0  0
  3  7  1  1  0  0  0
  3  1  1  0  0  0  0
  5 18  1  6  0  0  0
  5  4  1  0  0  0  0
  6  2  2  0  0  0  0
  8  9  2  0  0  0  0
  9  7  1  0  0  0  0
  9 10  1  0  0  0  0
 10 11  1  0  0  0  0
 11 14  1  0  0  0  0
 12 13  1  0  0  0  0
 13 17  1  0  0  0  0
 14 16  1  0  0  0  0
 14 12  1  0  0  0  0
 15 17  1  0  0  0  0
 16 15  1  0  0  0  0
 19 18  1  0  0  0  0
 20 23  1  0  0  0  0
 21 19  1  0  0  0  0
 22 20  2  0  0  0  0
 23 21  1  0  0  0  0
 24 21  2  0  0  0  0
 25 26  2  0  0  0  0
 25 20  1  0  0  0  0
 27 26  1  0  0  0  0
 28 29  1  0  0  0  0
 28 27  2  0  0  0  0
 29 25  1  0  0  0  0
M  END
>  <MODEL>
1

>  <REMARK>
 VINA RESULT:      -8.0      0.000      0.000
  Name = 
  9 active torsions:
  status: ('A' for Active; 'I' for Inactive)
    1  A    between atoms: C_2  and  C_3
    2  A    between atoms: C_6  and  C_21
    3  A    between atoms: C_11  and  C_22
    4  A    between atoms: C_12  and  C_13
    5  A    between atoms: C_12  and  C_17
    6  A    between atoms: C_13  and  C_15
    7  A    between atoms: C_16  and  C_21
    8  A    between atoms: C_16  and  C_26
    9  A    between atoms: C_17  and  C_22
                            x       y       z     vdW  Elec       q    Type
                         _______ _______ _______ _____ _____    ______ ____

>  <TORSDO>
F 9

$$$$
=
 OpenBabel11072413493D

 29 31  0  0  1  0  0  0  0  0999 V2000
  162.0240  206.5160  153.0980 N   0  0  0  0  0  2  0  0  0  0  0  0
  161.1930  206.0780  150.9540 C   0  0  0  0  0  0  0  0  0  0  0  0
  161.8440  207.1160  151.7760 C   0  0  1  0  0  3  0  0  0  0  0  0
  161.2170  205.2900  153.1440 C   0  0  0  0  0  2  0  0  0  0  0  0
  160.8400  204.8790  151.7280 C   0  0  2  0  0  3  0  0  0  0  0  0
  160.9720  206.2010  149.7590 O   0  0  0  0  0  0  0  0  0  0  0  0
  160.9420  208.3410  151.8760 C   0  0  0  0  0  2  0  0  0  0  0  0
  162.4770  209.9850  151.1640 O   0  0  0  0  0  0  0  0  0  0  0  0
  161.7490  209.5860  152.0600 C   0  0  0  0  0  0  0  0  0  0  0  0
  161.6350  210.3520  153.3350 C   0  0  0  0  0  2  0  0  0  0  0  0
  160.4430  209.8580  154.1360 C   0  0  0  0  0  2  0  0  0  0  0  0
  158.5690  210.6050  155.5970 C   0  0  0  0  0  2  0  0  0  0  0  0
  157.2110  211.3200  155.5660 C   0  0  0  0  0  2  0  0  0  0  0  0
  159.5000  211.0070  154.4450 C   0  0  0  0  0  3  0  0  0  0  0  0
  157.7990  212.6070  153.4740 C   0  0  0  0  0  2  0  0  0  0  0  0
  158.7050  211.3990  153.2000 C   0  0  0  0  0  2  0  0  0  0  0  0
  157.3260  212.7030  154.9300 C   0  0  0  0  0  2  0  0  0  0  0  0
  161.6920  203.6990  151.2740 C   0  0  0  0  0  2  0  0  0  0  0  0
  160.8440  202.4530  151.0590 C   0  0  0  0  0  2  0  0  0  0  0  0
  161.1680  202.7810  147.2090 C   0  0  0  0  0  0  0  0  0  0  0  0
  160.8300  202.0540  149.6230 C   0  0  0  0  0  0  0  0  0  0  0  0
  160.8730  201.6470  146.7460 O   0  0  0  0  0  0  0  0  0  0  0  0
  161.1860  203.0140  148.6220 N   0  0  0  0  0  2  0  0  0  0  0  0
  160.4790  200.8850  149.3070 O   0  0  0  0  0  0  0  0  0  0  0  0
  161.4920  203.8820  146.2970 C   0  0  0  0  0  0  0  0  0  0  0  0
  162.2890  204.9670  146.5990 C   0  0  0  0  0  3  0  0  0  0  0  0
  162.3080  205.7240  145.4400 C   0  0  0  0  0  3  0  0  0  0  0  0
  161.5250  205.0530  144.5150 C   0  0  0  0  0  3  0  0  0  0  0  0
  161.0570  203.9580  145.0650 O   0  0  0  0  0  0  0  0  0  0  0  0
  1  4  1  0  0  0  0
  2  5  1  0  0  0  0
  2  3  1  0  0  0  0
  3  7  1  1  0  0  0
  3  1  1  0  0  0  0
  5 18  1  6  0  0  0
  5  4  1  0  0  0  0
  6  2  2  0  0  0  0
  7  9  1  0  0  0  0
  8  9  2  0  0  0  0
  9 10  1  0  0  0  0
 10 11  1  0  0  0  0
 11 14  1  0  0  0  0
 13 12  1  0  0  0  0
 14 12  1  0  0  0  0
 15 17  1  0  0  0  0
 16 15  1  0  0  0  0
 16 14  1  0  0  0  0
 17 13  1  0  0  0  0
 19 18  1  0  0  0  0
 20 23  1  0  0  0  0
 21 19  1  0  0  0  0
 22 20  2  0  0  0  0
 23 21  1  0  0  0  0
 24 21  2  0  0  0  0
 25 26  2  0  0  0  0
 25 20  1  0  0  0  0
 27 26  1  0  0  0  0
 28 29  1  0  0  0  0
 28 27  2  0  0  0  0
 29 25  1  0  0  0  0
M  END
>  <MODEL>
2

>  <REMARK>
 VINA RESULT:      -8.0      1.303      2.099
  Name = 
  9 active torsions:
  status: ('A' for Active; 'I' for Inactive)
    1  A    between atoms: C_2  and  C_3
    2  A    between atoms: C_6  and  C_21
    3  A    between atoms: C_11  and  C_22
    4  A    between atoms: C_12  and  C_13
    5  A    between atoms: C_12  and  C_17
    6  A    between atoms: C_13  and  C_15
    7  A    between atoms: C_16  and  C_21
    8  A    between atoms: C_16  and  C_26
    9  A    between atoms: C_17  and  C_22
                            x       y       z     vdW  Elec       q    Type
                         _______ _______ _______ _____ _____    ______ ____

>  <TORSDO>
F 9

$$$$
=
 OpenBabel11072413493D

 29 31  0  0  1  0  0  0  0  0999 V2000
  160.9550  205.4420  151.8210 N   0  0  0  0  0  2  0  0  0  0  0  0
  161.1650  207.6620  152.5320 C   0  0  0  0  0  0  0  0  0  0  0  0
  160.9090  206.8240  151.3450 C   0  0  1  0  0  3  0  0  0  0  0  0
  161.5370  205.4540  153.1680 C   0  0  0  0  0  2  0  0  0  0  0  0
  161.4920  206.8690  153.7270 C   0  0  2  0  0  3  0  0  0  0  0  0
  161.1110  208.8820  152.5240 O   0  0  0  0  0  0  0  0  0  0  0  0
  161.9970  207.0550  150.3020 C   0  0  0  0  0  2  0  0  0  0  0  0
  161.4820  208.3390  148.3920 O   0  0  0  0  0  0  0  0  0  0  0  0
  161.4030  207.2530  148.9450 C   0  0  0  0  0  0  0  0  0  0  0  0
  160.7400  206.1050  148.2590 C   0  0  0  0  0  2  0  0  0  0  0  0
  161.7450  205.3590  147.4000 C   0  0  0  0  0  2  0  0  0  0  0  0
  161.3870  203.0570  146.5190 C   0  0  0  0  0  2  0  0  0  0  0  0
  160.7220  201.7140  146.8530 C   0  0  0  0  0  2  0  0  0  0  0  0
  161.7570  203.8850  147.7580 C   0  0  0  0  0  3  0  0  0  0  0  0
  160.8510  202.1320  149.3410 C   0  0  0  0  0  2  0  0  0  0  0  0
  160.7980  203.6060  148.9160 C   0  0  0  0  0  2  0  0  0  0  0  0
  161.2060  201.1750  148.1960 C   0  0  0  0  0  2  0  0  0  0  0  0
  160.3740  206.9970  154.7560 C   0  0  0  0  0  2  0  0  0  0  0  0
  160.8750  207.6460  156.0390 C   0  0  0  0  0  2  0  0  0  0  0  0
  159.4430  211.1990  155.4390 C   0  0  0  0  0  0  0  0  0  0  0  0
  160.8400  209.1330  155.9390 C   0  0  0  0  0  0  0  0  0  0  0  0
  160.4100  211.9880  155.6170 O   0  0  0  0  0  0  0  0  0  0  0  0
  159.6080  209.7880  155.6160 N   0  0  0  0  0  2  0  0  0  0  0  0
  161.9000  209.7910  156.1120 O   0  0  0  0  0  0  0  0  0  0  0  0
  158.1340  211.7240  155.0420 C   0  0  0  0  0  0  0  0  0  0  0  0
  157.9170  212.8880  154.3320 C   0  0  0  0  0  3  0  0  0  0  0  0
  156.5420  212.9640  154.1920 C   0  0  0  0  0  3  0  0  0  0  0  0
  156.0160  211.8490  154.8230 C   0  0  0  0  0  3  0  0  0  0  0  0
  156.9990  211.1340  155.3160 O   0  0  0  0  0  0  0  0  0  0  0  0
  1  4  1  0  0  0  0
  2  5  1  0  0  0  0
  3  7  1  6  0  0  0
  3  1  1  0  0  0  0
  3  2  1  0  0  0  0
  4  5  1  0  0  0  0
  5 18  1  1  0  0  0
  6  2  2  0  0  0  0
  8  9  2  0  0  0  0
  9  7  1  0  0  0  0
 10  9  1  0  0  0  0
 11 14  1  0  0  0  0
 11 10  1  0  0  0  0
 12 13  1  0  0  0  0
 12 14  1  0  0  0  0
 13 17  1  0  0  0  0
 14 16  1  0  0  0  0
 16 15  1  0  0  0  0
 17 15  1  0  0  0  0
 18 19  1  0  0  0  0
 20 23  1  0  0  0  0
 20 22  2  0  0  0  0
 21 19  1  0  0  0  0
 21 24  2  0  0  0  0
 23 21  1  0  0  0  0
 25 29  1  0  0  0  0
 25 20  1  0  0  0  0
 26 25  2  0  0  0  0
 27 26  1  0  0  0  0
 27 28  2  0  0  0  0
 28 29  1  0  0  0  0
M  END
>  <MODEL>
3

>  <REMARK>
 VINA RESULT:      -7.9      2.859      9.139
  Name = 
  9 active torsions:
  status: ('A' for Active; 'I' for Inactive)
    1  A    between atoms: C_2  and  C_3
    2  A    between atoms: C_6  and  C_21
    3  A    between atoms: C_11  and  C_22
    4  A    between atoms: C_12  and  C_13
    5  A    between atoms: C_12  and  C_17
    6  A    between atoms: C_13  and  C_15
    7  A    between atoms: C_16  and  C_21
    8  A    between atoms: C_16  and  C_26
    9  A    between atoms: C_17  and  C_22
                            x       y       z     vdW  Elec       q    Type
                         _______ _______ _______ _____ _____    ______ ____

>  <TORSDO>
F 9

$$$$
=
 OpenBabel11072413493D

 29 31  0  0  1  0  0  0  0  0999 V2000
  162.1420  206.5130  152.9470 N   0  0  0  0  0  2  0  0  0  0  0  0
  161.3130  205.9990  150.8200 C   0  0  0  0  0  0  0  0  0  0  0  0
  162.0010  207.0490  151.5930 C   0  0  1  0  0  3  0  0  0  0  0  0
  161.2810  205.3290  153.0480 C   0  0  0  0  0  2  0  0  0  0  0  0
  160.8990  204.8590  151.6520 C   0  0  2  0  0  3  0  0  0  0  0  0
  161.1090  206.0670  149.6170 O   0  0  0  0  0  0  0  0  0  0  0  0
  161.1540  208.3160  151.6180 C   0  0  0  0  0  2  0  0  0  0  0  0
  162.5440  210.1350  152.1900 O   0  0  0  0  0  0  0  0  0  0  0  0
  161.9820  209.5190  151.2980 C   0  0  0  0  0  0  0  0  0  0  0  0
  162.1390  209.9430  149.8760 C   0  0  0  0  0  2  0  0  0  0  0  0
  161.9470  211.4450  149.7550 C   0  0  0  0  0  2  0  0  0  0  0  0
  162.9700  212.3800  147.6850 C   0  0  0  0  0  2  0  0  0  0  0  0
  162.7230  213.3830  146.5500 C   0  0  0  0  0  2  0  0  0  0  0  0
  161.6810  211.8300  148.3110 C   0  0  0  0  0  3  0  0  0  0  0  0
  160.2130  213.1980  146.7700 C   0  0  0  0  0  2  0  0  0  0  0  0
  160.5460  212.8510  148.2280 C   0  0  0  0  0  2  0  0  0  0  0  0
  161.4140  213.0850  145.8220 C   0  0  0  0  0  2  0  0  0  0  0  0
  161.7020  203.6200  151.2710 C   0  0  0  0  0  2  0  0  0  0  0  0
  160.7920  202.4260  151.0190 C   0  0  0  0  0  2  0  0  0  0  0  0
  161.1870  202.7700  147.1780 C   0  0  0  0  0  0  0  0  0  0  0  0
  160.8080  202.0310  149.5820 C   0  0  0  0  0  0  0  0  0  0  0  0
  160.9080  201.6350  146.7060 O   0  0  0  0  0  0  0  0  0  0  0  0
  161.1760  202.9970  148.5920 N   0  0  0  0  0  2  0  0  0  0  0  0
  160.4720  200.8610  149.2560 O   0  0  0  0  0  0  0  0  0  0  0  0
  161.5210  203.8760  146.2760 C   0  0  0  0  0  0  0  0  0  0  0  0
  162.4260  204.8830  146.5400 C   0  0  0  0  0  3  0  0  0  0  0  0
  162.4070  205.6800  145.4080 C   0  0  0  0  0  3  0  0  0  0  0  0
  161.4960  205.1080  144.5360 C   0  0  0  0  0  3  0  0  0  0  0  0
  160.9900  204.0330  145.0900 O   0  0  0  0  0  0  0  0  0  0  0  0
  1  4  1  0  0  0  0
  2  3  1  0  0  0  0
  2  5  1  0  0  0  0
  3  7  1  1  0  0  0
  3  1  1  0  0  0  0
  5 18  1  6  0  0  0
  5  4  1  0  0  0  0
  6  2  2  0  0  0  0
  9  7  1  0  0  0  0
  9  8  2  0  0  0  0
 10  9  1  0  0  0  0
 11 10  1  0  0  0  0
 12 14  1  0  0  0  0
 13 12  1  0  0  0  0
 14 11  1  0  0  0  0
 15 16  1  0  0  0  0
 16 14  1  0  0  0  0
 17 13  1  0  0  0  0
 17 15  1  0  0  0  0
 19 18  1  0  0  0  0
 20 23  1  0  0  0  0
 21 19  1  0  0  0  0
 22 20  2  0  0  0  0
 23 21  1  0  0  0  0
 24 21  2  0  0  0  0
 25 26  2  0  0  0  0
 25 20  1  0  0  0  0
 27 26  1  0  0  0  0
 28 29  1  0  0  0  0
 28 27  2  0  0  0  0
 29 25  1  0  0  0  0
M  END
>  <MODEL>
4

>  <REMARK>
 VINA RESULT:      -7.8      2.698      4.598
  Name = 
  9 active torsions:
  status: ('A' for Active; 'I' for Inactive)
    1  A    between atoms: C_2  and  C_3
    2  A    between atoms: C_6  and  C_21
    3  A    between atoms: C_11  and  C_22
    4  A    between atoms: C_12  and  C_13
    5  A    between atoms: C_12  and  C_17
    6  A    between atoms: C_13  and  C_15
    7  A    between atoms: C_16  and  C_21
    8  A    between atoms: C_16  and  C_26
    9  A    between atoms: C_17  and  C_22
                            x       y       z     vdW  Elec       q    Type
                         _______ _______ _______ _____ _____    ______ ____

>  <TORSDO>
F 9

$$$$
=
 OpenBabel11072413493D

 29 31  0  0  1  0  0  0  0  0999 V2000
  160.5630  206.5030  147.3730 N   0  0  0  0  0  2  0  0  0  0  0  0
  162.3590  205.5110  146.2480 C   0  0  0  0  0  0  0  0  0  0  0  0
  161.9610  206.1070  147.5360 C   0  0  1  0  0  3  0  0  0  0  0  0
  160.2470  206.4390  145.9410 C   0  0  0  0  0  2  0  0  0  0  0  0
  161.3090  205.6160  145.2240 C   0  0  2  0  0  3  0  0  0  0  0  0
  163.4450  204.9850  146.0510 O   0  0  0  0  0  0  0  0  0  0  0  0
  162.8200  207.3330  147.8300 C   0  0  0  0  0  2  0  0  0  0  0  0
  161.7290  209.2080  148.7560 O   0  0  0  0  0  0  0  0  0  0  0  0
  162.2530  208.1250  148.9640 C   0  0  0  0  0  0  0  0  0  0  0  0
  162.3050  207.5660  150.3470 C   0  0  0  0  0  2  0  0  0  0  0  0
  161.0340  207.9180  151.1000 C   0  0  0  0  0  2  0  0  0  0  0  0
  161.0400  207.7020  153.5820 C   0  0  0  0  0  2  0  0  0  0  0  0
  160.6850  208.4550  154.8710 C   0  0  0  0  0  2  0  0  0  0  0  0
  161.3680  208.6260  152.4010 C   0  0  0  0  0  3  0  0  0  0  0  0
  160.9870  210.7130  153.7780 C   0  0  0  0  0  2  0  0  0  0  0  0
  160.6070  209.9480  152.5030 C   0  0  0  0  0  2  0  0  0  0  0  0
  161.4010  209.8020  154.9410 C   0  0  0  0  0  2  0  0  0  0  0  0
  160.7690  204.2300  144.8900 C   0  0  0  0  0  2  0  0  0  0  0  0
  161.7040  203.1360  145.3900 C   0  0  0  0  0  2  0  0  0  0  0  0
  160.6040  202.2690  149.0050 C   0  0  0  0  0  0  0  0  0  0  0  0
  161.0850  202.3720  146.5090 C   0  0  0  0  0  0  0  0  0  0  0  0
  160.0270  201.1510  148.9240 O   0  0  0  0  0  0  0  0  0  0  0  0
  161.1140  202.9160  147.8330 N   0  0  0  0  0  2  0  0  0  0  0  0
  160.5710  201.2440  146.2810 O   0  0  0  0  0  0  0  0  0  0  0  0
  160.7630  202.9170  150.3100 C   0  0  0  0  0  0  0  0  0  0  0  0
  160.6600  204.2720  150.5510 C   0  0  0  0  0  3  0  0  0  0  0  0
  160.8790  204.4050  151.9120 C   0  0  0  0  0  3  0  0  0  0  0  0
  161.1010  203.1300  152.4040 C   0  0  0  0  0  3  0  0  0  0  0  0
  161.0230  202.2710  151.4170 O   0  0  0  0  0  0  0  0  0  0  0  0
  1  3  1  0  0  0  0
  2  3  1  0  0  0  0
  3  7  1  6  0  0  0
  4  1  1  0  0  0  0
  5 18  1  1  0  0  0
  5  4  1  0  0  0  0
  5  2  1  0  0  0  0
  6  2  2  0  0  0  0
  7  9  1  0  0  0  0
  8  9  2  0  0  0  0
  9 10  1  0  0  0  0
 10 11  1  0  0  0  0
 11 14  1  0  0  0  0
 12 13  1  0  0  0  0
 13 17  1  0  0  0  0
 14 16  1  0  0  0  0
 14 12  1  0  0  0  0
 15 17  1  0  0  0  0
 16 15  1  0  0  0  0
 18 19  1  0  0  0  0
 19 21  1  0  0  0  0
 20 25  1  0  0  0  0
 21 23  1  0  0  0  0
 22 20  2  0  0  0  0
 23 20  1  0  0  0  0
 24 21  2  0  0  0  0
 25 26  2  0  0  0  0
 25 29  1  0  0  0  0
 26 27  1  0  0  0  0
 27 28  2  0  0  0  0
 29 28  1  0  0  0  0
M  END
>  <MODEL>
5

>  <REMARK>
 VINA RESULT:      -7.8      1.857      4.593
  Name = 
  9 active torsions:
  status: ('A' for Active; 'I' for Inactive)
    1  A    between atoms: C_2  and  C_3
    2  A    between atoms: C_6  and  C_21
    3  A    between atoms: C_11  and  C_22
    4  A    between atoms: C_12  and  C_13
    5  A    between atoms: C_12  and  C_17
    6  A    between atoms: C_13  and  C_15
    7  A    between atoms: C_16  and  C_21
    8  A    between atoms: C_16  and  C_26
    9  A    between atoms: C_17  and  C_22
                            x       y       z     vdW  Elec       q    Type
                         _______ _______ _______ _____ _____    ______ ____

>  <TORSDO>
F 9

$$$$
=
 OpenBabel11072413493D

 29 31  0  0  1  0  0  0  0  0999 V2000
  160.8780  208.8550  152.3610 N   0  0  0  0  0  2  0  0  0  0  0  0
  161.5360  206.7800  151.5030 C   0  0  0  0  0  0  0  0  0  0  0  0
  160.8440  207.4190  152.6370 C   0  0  1  0  0  3  0  0  0  0  0  0
  161.8370  209.0760  151.2730 C   0  0  0  0  0  2  0  0  0  0  0  0
  162.1190  207.7560  150.5700 C   0  0  2  0  0  3  0  0  0  0  0  0
  161.6170  205.5700  151.3530 O   0  0  0  0  0  0  0  0  0  0  0  0
  161.5850  207.1180  153.9350 C   0  0  0  0  0  2  0  0  0  0  0  0
  159.8210  207.0890  155.5010 O   0  0  0  0  0  0  0  0  0  0  0  0
  160.8350  207.6480  155.1150 C   0  0  0  0  0  0  0  0  0  0  0  0
  161.3540  208.8480  155.8340 C   0  0  0  0  0  2  0  0  0  0  0  0
  160.1990  209.6860  156.3530 C   0  0  0  0  0  2  0  0  0  0  0  0
  160.3410  211.5010  154.6530 C   0  0  0  0  0  2  0  0  0  0  0  0
  159.5300  212.6350  154.0100 C   0  0  0  0  0  2  0  0  0  0  0  0
  159.4740  210.3600  155.2020 C   0  0  0  0  0  3  0  0  0  0  0  0
  157.3280  211.4920  154.4860 C   0  0  0  0  0  2  0  0  0  0  0  0
  158.1060  210.8720  155.6550 C   0  0  0  0  0  2  0  0  0  0  0  0
  158.2270  212.1120  153.4090 C   0  0  0  0  0  2  0  0  0  0  0  0
  161.3850  207.6990  149.2350 C   0  0  0  0  0  2  0  0  0  0  0  0
  162.3590  207.5650  148.0720 C   0  0  0  0  0  2  0  0  0  0  0  0
  161.5160  203.8390  147.4110 C   0  0  0  0  0  0  0  0  0  0  0  0
  162.1140  206.3090  147.3080 C   0  0  0  0  0  0  0  0  0  0  0  0
  161.6010  203.6890  146.1620 O   0  0  0  0  0  0  0  0  0  0  0  0
  161.7340  205.1210  148.0100 N   0  0  0  0  0  2  0  0  0  0  0  0
  162.2710  206.3030  146.0580 O   0  0  0  0  0  0  0  0  0  0  0  0
  161.1970  202.6910  148.2650 C   0  0  0  0  0  0  0  0  0  0  0  0
  160.6550  202.7600  149.5320 C   0  0  0  0  0  3  0  0  0  0  0  0
  160.5300  201.4410  149.9340 C   0  0  0  0  0  3  0  0  0  0  0  0
  161.0010  200.6620  148.8900 C   0  0  0  0  0  3  0  0  0  0  0  0
  161.3890  201.4460  147.9130 O   0  0  0  0  0  0  0  0  0  0  0  0
  1  3  1  0  0  0  0
  2  3  1  0  0  0  0
  3  7  1  1  0  0  0
  4  1  1  0  0  0  0
  5 18  1  6  0  0  0
  5  4  1  0  0  0  0
  5  2  1  0  0  0  0
  6  2  2  0  0  0  0
  7  9  1  0  0  0  0
  9  8  2  0  0  0  0
  9 10  1  0  0  0  0
 10 11  1  0  0  0  0
 12 14  1  0  0  0  0
 13 12  1  0  0  0  0
 14 16  1  0  0  0  0
 14 11  1  0  0  0  0
 15 16  1  0  0  0  0
 17 13  1  0  0  0  0
 17 15  1  0  0  0  0
 19 18  1  0  0  0  0
 20 23  1  0  0  0  0
 20 25  1  0  0  0  0
 21 23  1  0  0  0  0
 21 19  1  0  0  0  0
 22 20  2  0  0  0  0
 24 21  2  0  0  0  0
 25 26  2  0  0  0  0
 26 27  1  0  0  0  0
 28 27  2  0  0  0  0
 29 25  1  0  0  0  0
 29 28  1  0  0  0  0
M  END
>  <MODEL>
6

>  <REMARK>
 VINA RESULT:      -7.6      2.097      4.124
  Name = 
  9 active torsions:
  status: ('A' for Active; 'I' for Inactive)
    1  A    between atoms: C_2  and  C_3
    2  A    between atoms: C_6  and  C_21
    3  A    between atoms: C_11  and  C_22
    4  A    between atoms: C_12  and  C_13
    5  A    between atoms: C_12  and  C_17
    6  A    between atoms: C_13  and  C_15
    7  A    between atoms: C_16  and  C_21
    8  A    between atoms: C_16  and  C_26
    9  A    between atoms: C_17  and  C_22
                            x       y       z     vdW  Elec       q    Type
                         _______ _______ _______ _____ _____    ______ ____

>  <TORSDO>
F 9

$$$$
=
 OpenBabel11072413493D

 29 31  0  0  1  0  0  0  0  0999 V2000
  162.0960  205.9000  153.0310 N   0  0  0  0  0  2  0  0  0  0  0  0
  161.0750  207.8800  152.3120 C   0  0  0  0  0  0  0  0  0  0  0  0
  161.5750  207.1800  153.5100 C   0  0  1  0  0  3  0  0  0  0  0  0
  161.6260  205.7170  151.6520 C   0  0  0  0  0  2  0  0  0  0  0  0
  161.1460  207.0510  151.0990 C   0  0  2  0  0  3  0  0  0  0  0  0
  160.6500  209.0250  152.3250 O   0  0  0  0  0  0  0  0  0  0  0  0
  160.4310  206.9440  154.4900 C   0  0  0  0  0  2  0  0  0  0  0  0
  160.3540  207.0860  156.8440 O   0  0  0  0  0  0  0  0  0  0  0  0
  160.7000  207.6140  155.7990 C   0  0  0  0  0  0  0  0  0  0  0  0
  161.4230  208.9200  155.8190 C   0  0  0  0  0  2  0  0  0  0  0  0
  160.5500  209.9910  156.4480 C   0  0  0  0  0  2  0  0  0  0  0  0
  160.2830  211.5310  154.5090 C   0  0  0  0  0  2  0  0  0  0  0  0
  159.3580  212.6090  153.9270 C   0  0  0  0  0  2  0  0  0  0  0  0
  159.5650  210.5360  155.4300 C   0  0  0  0  0  3  0  0  0  0  0  0
  157.3320  211.6840  155.1200 C   0  0  0  0  0  2  0  0  0  0  0  0
  158.3750  211.1910  156.1330 C   0  0  0  0  0  2  0  0  0  0  0  0
  157.9320  212.0870  153.7670 C   0  0  0  0  0  2  0  0  0  0  0  0
  162.1770  207.6280  150.1360 C   0  0  0  0  0  2  0  0  0  0  0  0
  161.5770  207.8620  148.7560 C   0  0  0  0  0  2  0  0  0  0  0  0
  161.5740  204.1480  147.6420 C   0  0  0  0  0  0  0  0  0  0  0  0
  161.7700  206.6730  147.8780 C   0  0  0  0  0  0  0  0  0  0  0  0
  162.0420  204.1450  146.4720 O   0  0  0  0  0  0  0  0  0  0  0  0
  161.3990  205.3760  148.3570 N   0  0  0  0  0  2  0  0  0  0  0  0
  162.2830  206.8220  146.7370 O   0  0  0  0  0  0  0  0  0  0  0  0
  161.2090  202.8830  148.2870 C   0  0  0  0  0  0  0  0  0  0  0  0
  160.8130  202.7370  149.6010 C   0  0  0  0  0  3  0  0  0  0  0  0
  160.5720  201.3810  149.7470 C   0  0  0  0  0  3  0  0  0  0  0  0
  160.8370  200.7970  148.5200 C   0  0  0  0  0  3  0  0  0  0  0  0
  161.2140  201.7270  147.6760 O   0  0  0  0  0  0  0  0  0  0  0  0
  1  3  1  0  0  0  0
  2  6  2  0  0  0  0
  2  3  1  0  0  0  0
  3  7  1  1  0  0  0
  4  1  1  0  0  0  0
  5 18  1  6  0  0  0
  5  4  1  0  0  0  0
  5  2  1  0  0  0  0
  7  9  1  0  0  0  0
  9 10  1  0  0  0  0
  9  8  2  0  0  0  0
 10 11  1  0  0  0  0
 12 14  1  0  0  0  0
 13 12  1  0  0  0  0
 14 16  1  0  0  0  0
 14 11  1  0  0  0  0
 15 16  1  0  0  0  0
 17 13  1  0  0  0  0
 17 15  1  0  0  0  0
 19 18  1  0  0  0  0
 20 25  1  0  0  0  0
 20 23  1  0  0  0  0
 21 23  1  0  0  0  0
 21 19  1  0  0  0  0
 22 20  2  0  0  0  0
 24 21  2  0  0  0  0
 25 26  2  0  0  0  0
 26 27  1  0  0  0  0
 28 27  2  0  0  0  0
 29 25  1  0  0  0  0
 29 28  1  0  0  0  0
M  END
>  <MODEL>
7

>  <REMARK>
 VINA RESULT:      -7.4      2.244      4.113
  Name = 
  9 active torsions:
  status: ('A' for Active; 'I' for Inactive)
    1  A    between atoms: C_2  and  C_3
    2  A    between atoms: C_6  and  C_21
    3  A    between atoms: C_11  and  C_22
    4  A    between atoms: C_12  and  C_13
    5  A    between atoms: C_12  and  C_17
    6  A    between atoms: C_13  and  C_15
    7  A    between atoms: C_16  and  C_21
    8  A    between atoms: C_16  and  C_26
    9  A    between atoms: C_17  and  C_22
                            x       y       z     vdW  Elec       q    Type
                         _______ _______ _______ _____ _____    ______ ____

>  <TORSDO>
F 9

$$$$
=
 OpenBabel11072413493D

 29 31  0  0  1  0  0  0  0  0999 V2000
  161.6730  208.7310  150.8640 N   0  0  0  0  0  2  0  0  0  0  0  0
  161.0790  207.6330  152.8440 C   0  0  0  0  0  0  0  0  0  0  0  0
  161.0880  208.9530  152.1860 C   0  0  1  0  0  3  0  0  0  0  0  0
  162.2830  207.3960  150.8670 C   0  0  0  0  0  2  0  0  0  0  0  0
  161.7450  206.5950  152.0430 C   0  0  2  0  0  3  0  0  0  0  0  0
  160.5720  207.4230  153.9360 O   0  0  0  0  0  0  0  0  0  0  0  0
  161.9500  209.9260  152.9840 C   0  0  0  0  0  2  0  0  0  0  0  0
  161.5720  211.1550  154.9610 O   0  0  0  0  0  0  0  0  0  0  0  0
  161.1120  210.7530  153.9040 C   0  0  0  0  0  0  0  0  0  0  0  0
  159.7180  211.1080  153.5060 C   0  0  0  0  0  2  0  0  0  0  0  0
  159.5800  212.6150  153.3770 C   0  0  0  0  0  2  0  0  0  0  0  0
  157.6060  211.9230  154.7310 C   0  0  0  0  0  2  0  0  0  0  0  0
  156.0730  211.9940  154.7740 C   0  0  0  0  0  2  0  0  0  0  0  0
  158.2530  213.0760  153.9510 C   0  0  0  0  0  3  0  0  0  0  0  0
  156.0120  214.1170  153.4050 C   0  0  0  0  0  2  0  0  0  0  0  0
  157.3320  213.5770  152.8370 C   0  0  0  0  0  2  0  0  0  0  0  0
  155.5830  213.4390  154.7130 C   0  0  0  0  0  2  0  0  0  0  0  0
  160.7200  205.5730  151.5630 C   0  0  0  0  0  2  0  0  0  0  0  0
  161.2040  204.1490  151.8020 C   0  0  0  0  0  2  0  0  0  0  0  0
  161.3420  203.3170  148.0180 C   0  0  0  0  0  0  0  0  0  0  0  0
  161.1310  203.3400  150.5530 C   0  0  0  0  0  0  0  0  0  0  0  0
  161.0470  202.0940  147.9290 O   0  0  0  0  0  0  0  0  0  0  0  0
  161.4210  203.9600  149.2950 N   0  0  0  0  0  2  0  0  0  0  0  0
  160.7890  202.1290  150.6170 O   0  0  0  0  0  0  0  0  0  0  0  0
  161.6020  204.0970  146.8050 C   0  0  0  0  0  0  0  0  0  0  0  0
  162.2610  205.3080  146.7540 C   0  0  0  0  0  3  0  0  0  0  0  0
  162.2680  205.6500  145.4130 C   0  0  0  0  0  3  0  0  0  0  0  0
  161.6150  204.6300  144.7400 C   0  0  0  0  0  3  0  0  0  0  0  0
  161.2340  203.7220  145.6060 O   0  0  0  0  0  0  0  0  0  0  0  0
  1  4  1  0  0  0  0
  1  3  1  0  0  0  0
  2  6  2  0  0  0  0
  3  2  1  0  0  0  0
  3  7  1  1  0  0  0
  4  5  1  0  0  0  0
  5 18  1  6  0  0  0
  5  2  1  0  0  0  0
  7  9  1  0  0  0  0
  9  8  2  0  0  0  0
 10  9  1  0  0  0  0
 11 10  1  0  0  0  0
 11 14  1  0  0  0  0
 12 13  1  0  0  0  0
 14 12  1  0  0  0  0
 15 17  1  0  0  0  0
 16 15  1  0  0  0  0
 16 14  1  0  0  0  0
 17 13  1  0  0  0  0
 18 19  1  0  0  0  0
 20 23  1  0  0  0  0
 21 24  2  0  0  0  0
 21 19  1  0  0  0  0
 22 20  2  0  0  0  0
 23 21  1  0  0  0  0
 25 20  1  0  0  0  0
 26 25  2  0  0  0  0
 27 26  1  0  0  0  0
 28 27  2  0  0  0  0
 28 29  1  0  0  0  0
 29 25  1  0  0  0  0
M  END
>  <MODEL>
8

>  <REMARK>
 VINA RESULT:      -7.3      2.510      3.461
  Name = 
  9 active torsions:
  status: ('A' for Active; 'I' for Inactive)
    1  A    between atoms: C_2  and  C_3
    2  A    between atoms: C_6  and  C_21
    3  A    between atoms: C_11  and  C_22
    4  A    between atoms: C_12  and  C_13
    5  A    between atoms: C_12  and  C_17
    6  A    between atoms: C_13  and  C_15
    7  A    between atoms: C_16  and  C_21
    8  A    between atoms: C_16  and  C_26
    9  A    between atoms: C_17  and  C_22
                            x       y       z     vdW  Elec       q    Type
                         _______ _______ _______ _____ _____    ______ ____

>  <TORSDO>
F 9

$$$$
=
 OpenBabel11072413493D

 29 31  0  0  1  0  0  0  0  0999 V2000
  161.2650  208.5020  151.8050 N   0  0  0  0  0  2  0  0  0  0  0  0
  162.2030  207.9290  149.7390 C   0  0  0  0  0  0  0  0  0  0  0  0
  161.5490  207.3630  150.9330 C   0  0  1  0  0  3  0  0  0  0  0  0
  162.0170  209.6530  151.2900 C   0  0  0  0  0  2  0  0  0  0  0  0
  162.4600  209.3720  149.8620 C   0  0  2  0  0  3  0  0  0  0  0  0
  162.5000  207.2710  148.7530 O   0  0  0  0  0  0  0  0  0  0  0  0
  162.4920  206.3910  151.6320 C   0  0  0  0  0  2  0  0  0  0  0  0
  161.2360  205.5000  153.4190 O   0  0  0  0  0  0  0  0  0  0  0  0
  161.7290  205.3050  152.3200 C   0  0  0  0  0  0  0  0  0  0  0  0
  161.5500  203.9900  151.6370 C   0  0  0  0  0  2  0  0  0  0  0  0
  160.1550  203.8960  151.0430 C   0  0  0  0  0  2  0  0  0  0  0  0
  160.5200  201.6960  149.9320 C   0  0  0  0  0  2  0  0  0  0  0  0
  161.2320  201.0350  148.7450 C   0  0  0  0  0  2  0  0  0  0  0  0
  160.1960  203.1800  149.7060 C   0  0  0  0  0  3  0  0  0  0  0  0
  161.2220  203.1690  147.3930 C   0  0  0  0  0  2  0  0  0  0  0  0
  161.2190  203.8340  148.7760 C   0  0  0  0  0  2  0  0  0  0  0  0
  160.8300  201.6860  147.4240 C   0  0  0  0  0  2  0  0  0  0  0  0
  161.5890  210.1400  148.8750 C   0  0  0  0  0  2  0  0  0  0  0  0
  161.7230  211.6440  149.0710 C   0  0  0  0  0  2  0  0  0  0  0  0
  161.7010  213.1500  145.4990 C   0  0  0  0  0  0  0  0  0  0  0  0
  162.2360  212.3030  147.8370 C   0  0  0  0  0  0  0  0  0  0  0  0
  162.8850  213.5230  145.2810 O   0  0  0  0  0  0  0  0  0  0  0  0
  161.3360  212.5700  146.7560 N   0  0  0  0  0  2  0  0  0  0  0  0
  163.4590  212.5910  147.7500 O   0  0  0  0  0  0  0  0  0  0  0  0
  160.6830  213.3020  144.4550 C   0  0  0  0  0  0  0  0  0  0  0  0
  160.3170  212.3340  143.5420 C   0  0  0  0  0  3  0  0  0  0  0  0
  159.3300  212.9280  142.7740 C   0  0  0  0  0  3  0  0  0  0  0  0
  159.1620  214.2110  143.2680 C   0  0  0  0  0  3  0  0  0  0  0  0
  159.9870  214.3950  144.2710 O   0  0  0  0  0  0  0  0  0  0  0  0
  2  5  1  0  0  0  0
  2  3  1  0  0  0  0
  3  7  1  1  0  0  0
  3  1  1  0  0  0  0
  4  1  1  0  0  0  0
  5 18  1  6  0  0  0
  5  4  1  0  0  0  0
  6  2  2  0  0  0  0
  7  9  1  0  0  0  0
  9  8  2  0  0  0  0
 10  9  1  0  0  0  0
 11 10  1  0  0  0  0
 13 12  1  0  0  0  0
 14 12  1  0  0  0  0
 14 11  1  0  0  0  0
 15 17  1  0  0  0  0
 15 16  1  0  0  0  0
 16 14  1  0  0  0  0
 17 13  1  0  0  0  0
 18 19  1  0  0  0  0
 20 23  1  0  0  0  0
 21 19  1  0  0  0  0
 22 20  2  0  0  0  0
 23 21  1  0  0  0  0
 24 21  2  0  0  0  0
 25 20  1  0  0  0  0
 26 25  2  0  0  0  0
 27 28  2  0  0  0  0
 27 26  1  0  0  0  0
 28 29  1  0  0  0  0
 29 25  1  0  0  0  0
M  END
>  <MODEL>
9

>  <REMARK>
 VINA RESULT:      -7.2      4.697      8.446
  Name = 
  9 active torsions:
  status: ('A' for Active; 'I' for Inactive)
    1  A    between atoms: C_2  and  C_3
    2  A    between atoms: C_6  and  C_21
    3  A    between atoms: C_11  and  C_22
    4  A    between atoms: C_12  and  C_13
    5  A    between atoms: C_12  and  C_17
    6  A    between atoms: C_13  and  C_15
    7  A    between atoms: C_16  and  C_21
    8  A    between atoms: C_16  and  C_26
    9  A    between atoms: C_17  and  C_22
                            x       y       z     vdW  Elec       q    Type
                         _______ _______ _______ _____ _____    ______ ____

>  <TORSDO>
F 9

$$$$
