=
 OpenBabel11072410123D

 37 40  0  0  1  0  0  0  0  0999 V2000
  161.0920  205.4150  153.9020 C   0  0  0  0  0  3  0  0  0  0  0  0
  160.7310  204.2370  153.1530 N   0  0  0  0  0  2  0  0  0  0  0  0
  161.5060  204.2760  152.1260 C   0  0  2  0  0  3  0  0  0  0  0  0
  162.2260  205.4810  152.1050 C   0  0  2  0  0  3  0  0  0  0  0  0
  161.9430  206.1940  153.2930 N   0  0  0  0  0  0  0  0  0  0  0  0
  161.1670  203.9600  150.7540 C   0  0  0  0  0  0  0  0  0  0  0  0
  160.3190  202.8910  150.3450 N   0  0  0  0  0  1  0  0  0  0  0  0
  161.6460  204.9460  149.9710 C   0  0  0  0  0  0  0  0  0  0  0  0
  162.2910  205.9510  150.8650 C   0  0  1  0  0  3  0  0  0  0  0  0
  161.6680  203.9720  147.7180 C   0  0  0  0  0  3  0  0  0  0  0  0
  161.2040  205.4070  144.1840 C   0  0  0  0  0  1  0  0  0  0  0  0
  159.7120  206.5490  148.0550 F   0  0  0  0  0  0  0  0  0  0  0  0
  161.4940  205.0550  148.4940 C   0  0  0  0  0  0  0  0  0  0  0  0
  160.9070  205.2510  145.6630 C   0  0  2  0  0  3  0  0  0  0  0  0
  161.0740  206.3700  147.8830 C   0  0  1  0  0  3  0  0  0  0  0  0
  161.4230  206.4760  146.4020 C   0  0  0  0  0  2  0  0  0  0  0  0
  161.5900  203.9930  146.2130 C   0  0  2  0  0  3  0  0  0  0  0  0
  160.9290  202.7460  145.7190 C   0  0  0  0  0  0  0  0  0  0  0  0
  160.1290  202.7960  144.5870 O   0  0  0  0  0  0  0  0  0  0  0  0
  161.1000  201.6500  146.3170 O   0  0  0  0  0  1  0  0  0  0  0  0
  162.5910  207.3760  150.5270 C   0  0  0  0  0  2  0  0  0  0  0  0
  162.3830  210.4230  151.2580 C   0  0  0  0  0  2  0  0  0  0  0  0
  160.9460  209.2910  152.8070 C   0  0  0  0  0  2  0  0  0  0  0  0
  161.3130  208.2160  150.5140 C   0  0  1  0  0  3  0  0  0  0  0  0
  162.3110  209.7530  152.5630 N   0  0  0  0  0  2  0  0  0  0  0  0
  160.6000  208.1250  151.8720 C   0  0  0  0  0  2  0  0  0  0  0  0
  161.6020  209.6810  150.1540 C   0  0  2  0  0  3  0  0  0  0  0  0
  162.2770  209.8190  148.7940 C   0  0  0  0  0  2  0  0  0  0  0  0
  161.5720  210.8270  147.9410 C   0  0  0  0  0  3  0  0  0  0  0  0
  162.0700  212.0450  147.6990 C   0  0  0  0  0  0  0  0  0  0  0  0
  163.2890  212.4150  148.2670 O   0  0  0  0  0  1  0  0  0  0  0  0
  161.3110  213.0230  146.8230 C   0  0  2  0  0  0  0  0  0  0  0  0
  162.1460  213.3390  145.5900 C   0  0  0  0  0  1  0  0  0  0  0  0
  161.0590  214.3330  147.5820 C   0  0  0  0  0  2  0  0  0  0  0  0
  160.1050  214.1640  148.5910 O   0  0  0  0  0  1  0  0  0  0  0  0
  160.0010  212.4230  146.3710 C   0  0  0  0  0  3  0  0  0  0  0  0
  159.6400  212.3760  145.0870 C   0  0  0  0  0  2  0  0  0  0  0  0
  2  1  1  0  0  0  0
  3  6  1  6  0  0  0
  3  2  1  0  0  0  0
  4  3  1  0  0  0  0
  4  5  1  1  0  0  0
  5  1  2  0  0  0  0
  7  6  1  0  0  0  0
  8  6  2  0  0  0  0
  8  9  1  0  0  0  0
  9 21  1  1  0  0  0
  9  4  1  0  0  0  0
 10 13  2  0  0  0  0
 13  8  1  0  0  0  0
 14 11  1  6  0  0  0
 14 17  1  0  0  0  0
 14 16  1  0  0  0  0
 15 12  1  6  0  0  0
 15 13  1  0  0  0  0
 16 15  1  0  0  0  0
 17 18  1  1  0  0  0
 17 10  1  0  0  0  0
 18 20  1  0  0  0  0
 19 18  2  0  0  0  0
 22 25  1  0  0  0  0
 24 21  1  1  0  0  0
 24 26  1  0  0  0  0
 25 23  1  0  0  0  0
 26 23  1  0  0  0  0
 27 28  1  6  0  0  0
 27 24  1  0  0  0  0
 27 22  1  0  0  0  0
 29 28  1  0  0  0  0
 30 29  2  0  0  0  0
 30 31  1  0  0  0  0
 32 33  1  6  0  0  0
 32 34  1  0  0  0  0
 32 30  1  0  0  0  0
 34 35  1  0  0  0  0
 36 32  1  0  0  0  0
 37 36  2  0  0  0  0
M  END
>  <MODEL>
1

>  <REMARK>
 VINA RESULT:      -7.7      0.000      0.000
  Name = 
  9 active torsions:
  status: ('A' for Active; 'I' for Inactive)
    1  A    between atoms: C_3  and  C_22
    2  A    between atoms: C_4  and  C_12
    3  A    between atoms: C_4  and  C_34
    4  A    between atoms: C_10  and  C_32
    5  A    between atoms: C_11  and  C_23
    6  A    between atoms: C_16  and  C_31
    7  A    between atoms: C_17  and  C_31
    8  A    between atoms: C_21  and  C_31
    9  A    between atoms: C_22  and  C_35
                            x       y       z     vdW  Elec       q    Type
                         _______ _______ _______ _____ _____    ______ ____

>  <TORSDO>
F 9

$$$$
=
 OpenBabel11072410123D

 37 40  0  0  1  0  0  0  0  0999 V2000
  162.7450  211.4120  149.5130 C   0  0  0  0  0  3  0  0  0  0  0  0
  162.4490  210.4290  148.5000 N   0  0  0  0  0  2  0  0  0  0  0  0
  161.6170  209.6340  149.0760 C   0  0  2  0  0  3  0  0  0  0  0  0
  161.4850  209.9670  150.4340 C   0  0  2  0  0  3  0  0  0  0  0  0
  162.2250  211.1470  150.6800 N   0  0  0  0  0  0  0  0  0  0  0  0
  161.5720  208.1900  148.9870 C   0  0  0  0  0  0  0  0  0  0  0  0
  161.8100  207.4330  147.8030 N   0  0  0  0  0  1  0  0  0  0  0  0
  161.4460  207.7010  150.2360 C   0  0  0  0  0  0  0  0  0  0  0  0
  161.4370  208.8640  151.1710 C   0  0  1  0  0  3  0  0  0  0  0  0
  160.8150  205.3660  149.8130 C   0  0  0  0  0  3  0  0  0  0  0  0
  161.1320  202.1080  151.8240 C   0  0  0  0  0  1  0  0  0  0  0  0
  163.4440  205.7340  151.6920 F   0  0  0  0  0  0  0  0  0  0  0  0
  161.4000  206.2640  150.6230 C   0  0  0  0  0  0  0  0  0  0  0  0
  161.5900  203.4480  151.2810 C   0  0  2  0  0  3  0  0  0  0  0  0
  162.0780  205.8130  151.8960 C   0  0  1  0  0  3  0  0  0  0  0  0
  161.5560  204.4730  152.4040 C   0  0  0  0  0  2  0  0  0  0  0  0
  160.6700  203.9030  150.1410 C   0  0  2  0  0  3  0  0  0  0  0  0
  160.8720  203.0810  148.9080 C   0  0  0  0  0  0  0  0  0  0  0  0
  161.8100  203.4780  147.9650 O   0  0  0  0  0  0  0  0  0  0  0  0
  160.2050  202.0280  148.7220 O   0  0  0  0  0  1  0  0  0  0  0  0
  161.7260  208.8260  152.6370 C   0  0  0  0  0  2  0  0  0  0  0  0
  161.2430  210.0750  155.4780 C   0  0  0  0  0  2  0  0  0  0  0  0
  160.9090  207.7170  155.7470 C   0  0  0  0  0  2  0  0  0  0  0  0
  160.4330  208.7360  153.4480 C   0  0  1  0  0  3  0  0  0  0  0  0
  161.8970  208.7930  155.7740 N   0  0  0  0  0  2  0  0  0  0  0  0
  160.4310  207.4640  154.3110 C   0  0  0  0  0  2  0  0  0  0  0  0
  160.2240  209.9810  154.3230 C   0  0  2  0  0  3  0  0  0  0  0  0
  160.1820  211.2640  153.5010 C   0  0  0  0  0  2  0  0  0  0  0  0
  158.8180  211.8780  153.5290 C   0  0  0  0  0  3  0  0  0  0  0  0
  158.4280  212.7330  154.4820 C   0  0  0  0  0  0  0  0  0  0  0  0
  159.3120  213.0690  155.5070 O   0  0  0  0  0  1  0  0  0  0  0  0
  157.0330  213.3270  154.4550 C   0  0  2  0  0  0  0  0  0  0  0  0
  156.9400  214.4260  155.5050 C   0  0  0  0  0  1  0  0  0  0  0  0
  155.9910  212.2510  154.7910 C   0  0  0  0  0  2  0  0  0  0  0  0
  156.2340  211.6770  156.0430 O   0  0  0  0  0  1  0  0  0  0  0  0
  156.7400  213.9310  153.1030 C   0  0  0  0  0  3  0  0  0  0  0  0
  155.5110  213.9630  152.5840 C   0  0  0  0  0  2  0  0  0  0  0  0
  1  5  2  0  0  0  0
  2  1  1  0  0  0  0
  3  2  1  1  0  0  0
  3  4  1  0  0  0  0
  4  5  1  1  0  0  0
  4  9  1  0  0  0  0
  6  3  1  0  0  0  0
  6  8  2  0  0  0  0
  7  6  1  0  0  0  0
  8 13  1  0  0  0  0
  8  9  1  0  0  0  0
  9 21  1  1  0  0  0
 10 17  1  0  0  0  0
 10 13  2  0  0  0  0
 13 15  1  0  0  0  0
 14 11  1  1  0  0  0
 14 16  1  0  0  0  0
 15 12  1  6  0  0  0
 15 16  1  0  0  0  0
 17 18  1  6  0  0  0
 17 14  1  0  0  0  0
 19 18  2  0  0  0  0
 20 18  1  0  0  0  0
 22 25  1  0  0  0  0
 23 25  1  0  0  0  0
 24 21  1  1  0  0  0
 24 26  1  0  0  0  0
 24 27  1  0  0  0  0
 26 23  1  0  0  0  0
 27 28  1  6  0  0  0
 27 22  1  0  0  0  0
 28 29  1  0  0  0  0
 29 30  2  0  0  0  0
 30 31  1  0  0  0  0
 32 30  1  0  0  0  0
 32 34  1  0  0  0  0
 32 33  1  1  0  0  0
 34 35  1  0  0  0  0
 36 32  1  0  0  0  0
 37 36  2  0  0  0  0
M  END
>  <MODEL>
2

>  <REMARK>
 VINA RESULT:      -7.3      3.765      5.949
  Name = 
  9 active torsions:
  status: ('A' for Active; 'I' for Inactive)
    1  A    between atoms: C_3  and  C_22
    2  A    between atoms: C_4  and  C_12
    3  A    between atoms: C_4  and  C_34
    4  A    between atoms: C_10  and  C_32
    5  A    between atoms: C_11  and  C_23
    6  A    between atoms: C_16  and  C_31
    7  A    between atoms: C_17  and  C_31
    8  A    between atoms: C_21  and  C_31
    9  A    between atoms: C_22  and  C_35
                            x       y       z     vdW  Elec       q    Type
                         _______ _______ _______ _____ _____    ______ ____

>  <TORSDO>
F 9

$$$$
=
 OpenBabel11072410123D

 37 40  0  0  1  0  0  0  0  0999 V2000
  160.6390  206.2350  154.2240 C   0  0  0  0  0  3  0  0  0  0  0  0
  160.8660  204.9320  153.6490 N   0  0  0  0  0  2  0  0  0  0  0  0
  161.5710  205.1760  152.6000 C   0  0  2  0  0  3  0  0  0  0  0  0
  161.6770  206.5610  152.3960 C   0  0  2  0  0  3  0  0  0  0  0  0
  161.0700  207.2230  153.4890 N   0  0  0  0  0  0  0  0  0  0  0  0
  161.4510  204.5630  151.2950 C   0  0  0  0  0  0  0  0  0  0  0  0
  161.1830  203.1830  151.0580 N   0  0  0  0  0  1  0  0  0  0  0  0
  161.4600  205.5450  150.3730 C   0  0  0  0  0  0  0  0  0  0  0  0
  161.5610  206.8410  151.1040 C   0  0  1  0  0  3  0  0  0  0  0  0
  161.6490  204.2110  148.3200 C   0  0  0  0  0  3  0  0  0  0  0  0
  161.0560  204.9420  144.5950 C   0  0  0  0  0  1  0  0  0  0  0  0
  159.3620  206.5210  148.2220 F   0  0  0  0  0  0  0  0  0  0  0  0
  161.3200  205.3770  148.9000 C   0  0  0  0  0  0  0  0  0  0  0  0
  160.7590  205.0040  146.0820 C   0  0  2  0  0  3  0  0  0  0  0  0
  160.7380  206.5000  148.0740 C   0  0  1  0  0  3  0  0  0  0  0  0
  161.0940  206.3960  146.5950 C   0  0  0  0  0  2  0  0  0  0  0  0
  161.5940  203.9620  146.8350 C   0  0  2  0  0  3  0  0  0  0  0  0
  161.1140  202.5720  146.5680 C   0  0  0  0  0  0  0  0  0  0  0  0
  160.9780  201.6790  147.6210 O   0  0  0  0  0  1  0  0  0  0  0  0
  160.8250  202.2060  145.3970 O   0  0  0  0  0  0  0  0  0  0  0  0
  161.2020  208.1900  150.5710 C   0  0  0  0  0  2  0  0  0  0  0  0
  161.3930  211.3230  150.7150 C   0  0  0  0  0  2  0  0  0  0  0  0
  161.9840  210.7450  148.4660 C   0  0  0  0  0  2  0  0  0  0  0  0
  162.4540  209.0260  150.3020 C   0  0  1  0  0  3  0  0  0  0  0  0
  160.8780  211.0730  149.3630 N   0  0  0  0  0  2  0  0  0  0  0  0
  162.5600  209.3640  148.8070 C   0  0  0  0  0  2  0  0  0  0  0  0
  162.4730  210.3080  151.1470 C   0  0  2  0  0  3  0  0  0  0  0  0
  162.4080  210.0150  152.6420 C   0  0  0  0  0  2  0  0  0  0  0  0
  161.1520  210.5640  153.2440 C   0  0  0  0  0  3  0  0  0  0  0  0
  161.0630  210.9230  154.5300 C   0  0  0  0  0  0  0  0  0  0  0  0
  162.1720  210.7760  155.3630 O   0  0  0  0  0  1  0  0  0  0  0  0
  159.7640  211.4770  155.0830 C   0  0  2  0  0  0  0  0  0  0  0  0
  160.0330  212.8320  155.7230 C   0  0  0  0  0  1  0  0  0  0  0  0
  159.2010  210.5390  156.1600 C   0  0  0  0  0  2  0  0  0  0  0  0
  159.4070  209.1970  155.8260 O   0  0  0  0  0  1  0  0  0  0  0  0
  158.7540  211.6640  153.9760 C   0  0  0  0  0  3  0  0  0  0  0  0
  157.4380  211.5990  154.1880 C   0  0  0  0  0  2  0  0  0  0  0  0
  2  1  1  0  0  0  0
  3  6  1  6  0  0  0
  3  2  1  0  0  0  0
  4  3  1  0  0  0  0
  4  5  1  1  0  0  0
  5  1  2  0  0  0  0
  7  6  1  0  0  0  0
  8  9  1  0  0  0  0
  8  6  2  0  0  0  0
  9 21  1  1  0  0  0
  9  4  1  0  0  0  0
 10 13  2  0  0  0  0
 13  8  1  0  0  0  0
 14 11  1  6  0  0  0
 14 16  1  0  0  0  0
 14 17  1  0  0  0  0
 15 12  1  6  0  0  0
 15 13  1  0  0  0  0
 16 15  1  0  0  0  0
 17 18  1  1  0  0  0
 17 10  1  0  0  0  0
 18 19  1  0  0  0  0
 20 18  2  0  0  0  0
 22 27  1  0  0  0  0
 23 26  1  0  0  0  0
 23 25  1  0  0  0  0
 24 21  1  6  0  0  0
 24 27  1  0  0  0  0
 25 22  1  0  0  0  0
 26 24  1  0  0  0  0
 27 28  1  1  0  0  0
 28 29  1  0  0  0  0
 29 30  2  0  0  0  0
 30 32  1  0  0  0  0
 30 31  1  0  0  0  0
 32 33  1  1  0  0  0
 32 34  1  0  0  0  0
 35 34  1  0  0  0  0
 36 37  2  0  0  0  0
 36 32  1  0  0  0  0
M  END
>  <MODEL>
3

>  <REMARK>
 VINA RESULT:      -7.0      2.629      4.440
  Name = 
  9 active torsions:
  status: ('A' for Active; 'I' for Inactive)
    1  A    between atoms: C_3  and  C_22
    2  A    between atoms: C_4  and  C_12
    3  A    between atoms: C_4  and  C_34
    4  A    between atoms: C_10  and  C_32
    5  A    between atoms: C_11  and  C_23
    6  A    between atoms: C_16  and  C_31
    7  A    between atoms: C_17  and  C_31
    8  A    between atoms: C_21  and  C_31
    9  A    between atoms: C_22  and  C_35
                            x       y       z     vdW  Elec       q    Type
                         _______ _______ _______ _____ _____    ______ ____

>  <TORSDO>
F 9

$$$$
=
 OpenBabel11072410123D

 37 40  0  0  1  0  0  0  0  0999 V2000
  159.9290  211.2920  157.0410 C   0  0  0  0  0  3  0  0  0  0  0  0
  159.9070  209.8670  157.2600 N   0  0  0  0  0  2  0  0  0  0  0  0
  160.7840  209.4150  156.4340 C   0  0  2  0  0  3  0  0  0  0  0  0
  161.2490  210.4470  155.6040 C   0  0  2  0  0  3  0  0  0  0  0  0
  160.6800  211.6660  156.0420 N   0  0  0  0  0  0  0  0  0  0  0  0
  160.6940  208.2220  155.6180 C   0  0  0  0  0  0  0  0  0  0  0  0
  160.1330  206.9810  156.0400 N   0  0  0  0  0  1  0  0  0  0  0  0
  161.0640  208.5480  154.3650 C   0  0  0  0  0  0  0  0  0  0  0  0
  161.3780  210.0060  154.3580 C   0  0  1  0  0  3  0  0  0  0  0  0
  160.8880  208.1350  151.9520 C   0  0  0  0  0  3  0  0  0  0  0  0
  160.9960  204.9750  149.7680 C   0  0  0  0  0  1  0  0  0  0  0  0
  162.7650  206.0130  153.5500 F   0  0  0  0  0  0  0  0  0  0  0  0
  161.0850  207.6400  153.1850 C   0  0  0  0  0  0  0  0  0  0  0  0
  161.4220  205.8880  150.9020 C   0  0  2  0  0  3  0  0  0  0  0  0
  161.4020  206.1760  153.3770 C   0  0  1  0  0  3  0  0  0  0  0  0
  160.9240  205.3080  152.2170 C   0  0  0  0  0  2  0  0  0  0  0  0
  160.8380  207.2910  150.7040 C   0  0  2  0  0  3  0  0  0  0  0  0
  161.5010  208.0110  149.5740 C   0  0  0  0  0  0  0  0  0  0  0  0
  161.1620  207.6980  148.2660 O   0  0  0  0  0  0  0  0  0  0  0  0
  162.3600  208.9060  149.8000 O   0  0  0  0  0  1  0  0  0  0  0  0
  161.4310  210.8960  153.1590 C   0  0  0  0  0  2  0  0  0  0  0  0
  159.7320  213.3530  152.1860 C   0  0  0  0  0  2  0  0  0  0  0  0
  158.2770  212.0870  153.6080 C   0  0  0  0  0  2  0  0  0  0  0  0
  160.1250  210.8260  152.3660 C   0  0  1  0  0  3  0  0  0  0  0  0
  159.2790  213.1490  153.5690 N   0  0  0  0  0  2  0  0  0  0  0  0
  158.9250  210.7260  153.3210 C   0  0  0  0  0  2  0  0  0  0  0  0
  159.9670  212.0310  151.4260 C   0  0  2  0  0  3  0  0  0  0  0  0
  161.1200  212.1450  150.4350 C   0  0  0  0  0  2  0  0  0  0  0  0
  160.6990  212.8760  149.1990 C   0  0  0  0  0  3  0  0  0  0  0  0
  161.0960  212.5140  147.9730 C   0  0  0  0  0  0  0  0  0  0  0  0
  161.9500  211.4220  147.8220 O   0  0  0  0  0  1  0  0  0  0  0  0
  160.6320  213.2920  146.7570 C   0  0  2  0  0  0  0  0  0  0  0  0
  159.5870  214.3120  147.1880 C   0  0  0  0  0  1  0  0  0  0  0  0
  159.9890  212.3460  145.7340 C   0  0  0  0  0  2  0  0  0  0  0  0
  158.6260  212.6170  145.5740 O   0  0  0  0  0  1  0  0  0  0  0  0
  161.7890  214.0310  146.1280 C   0  0  0  0  0  3  0  0  0  0  0  0
  162.3610  213.6300  144.9910 C   0  0  0  0  0  2  0  0  0  0  0  0
  1  2  1  0  0  0  0
  3  6  1  6  0  0  0
  3  2  1  0  0  0  0
  4  5  1  6  0  0  0
  4  3  1  0  0  0  0
  5  1  2  0  0  0  0
  6  7  1  0  0  0  0
  8  6  2  0  0  0  0
  9 21  1  6  0  0  0
  9  8  1  0  0  0  0
  9  4  1  0  0  0  0
 10 13  2  0  0  0  0
 13 15  1  0  0  0  0
 13  8  1  0  0  0  0
 14 11  1  6  0  0  0
 14 16  1  0  0  0  0
 15 12  1  6  0  0  0
 16 15  1  0  0  0  0
 17 18  1  6  0  0  0
 17 14  1  0  0  0  0
 17 10  1  0  0  0  0
 18 20  1  0  0  0  0
 19 18  2  0  0  0  0
 22 25  1  0  0  0  0
 24 21  1  1  0  0  0
 24 26  1  0  0  0  0
 25 23  1  0  0  0  0
 26 23  1  0  0  0  0
 27 28  1  1  0  0  0
 27 22  1  0  0  0  0
 27 24  1  0  0  0  0
 29 28  1  0  0  0  0
 30 29  2  0  0  0  0
 31 30  1  0  0  0  0
 32 33  1  1  0  0  0
 32 30  1  0  0  0  0
 34 32  1  0  0  0  0
 35 34  1  0  0  0  0
 36 32  1  0  0  0  0
 37 36  2  0  0  0  0
M  END
>  <MODEL>
4

>  <REMARK>
 VINA RESULT:      -6.7      3.168      5.082
  Name = 
  9 active torsions:
  status: ('A' for Active; 'I' for Inactive)
    1  A    between atoms: C_3  and  C_22
    2  A    between atoms: C_4  and  C_12
    3  A    between atoms: C_4  and  C_34
    4  A    between atoms: C_10  and  C_32
    5  A    between atoms: C_11  and  C_23
    6  A    between atoms: C_16  and  C_31
    7  A    between atoms: C_17  and  C_31
    8  A    between atoms: C_21  and  C_31
    9  A    between atoms: C_22  and  C_35
                            x       y       z     vdW  Elec       q    Type
                         _______ _______ _______ _____ _____    ______ ____

>  <TORSDO>
F 9

$$$$
=
 OpenBabel11072410123D

 37 40  0  0  1  0  0  0  0  0999 V2000
  161.4300  211.7250  147.7680 C   0  0  0  0  0  3  0  0  0  0  0  0
  161.1250  212.9460  148.4730 N   0  0  0  0  0  2  0  0  0  0  0  0
  161.3740  212.6610  149.7030 C   0  0  2  0  0  3  0  0  0  0  0  0
  161.6740  211.2960  149.8360 C   0  0  2  0  0  3  0  0  0  0  0  0
  161.7180  210.7180  148.5460 N   0  0  0  0  0  0  0  0  0  0  0  0
  160.6070  213.0430  150.8690 C   0  0  0  0  0  0  0  0  0  0  0  0
  159.9850  214.3110  151.0620 N   0  0  0  0  0  1  0  0  0  0  0  0
  160.4430  211.9480  151.6350 C   0  0  0  0  0  0  0  0  0  0  0  0
  161.1010  210.8090  150.9310 C   0  0  1  0  0  3  0  0  0  0  0  0
  160.3360  211.8270  154.0850 C   0  0  0  0  0  3  0  0  0  0  0  0
  157.4690  211.4780  156.6190 C   0  0  0  0  0  1  0  0  0  0  0  0
  157.7420  213.2050  152.6880 F   0  0  0  0  0  0  0  0  0  0  0  0
  159.6820  211.8670  152.9120 C   0  0  0  0  0  0  0  0  0  0  0  0
  158.1580  212.0020  155.3730 C   0  0  2  0  0  3  0  0  0  0  0  0
  158.1720  211.9040  152.8840 C   0  0  1  0  0  3  0  0  0  0  0  0
  157.5400  211.3400  154.1520 C   0  0  0  0  0  2  0  0  0  0  0  0
  159.6580  211.6910  155.4240 C   0  0  2  0  0  3  0  0  0  0  0  0
  160.3630  212.5320  156.4400 C   0  0  0  0  0  0  0  0  0  0  0  0
  160.0830  213.8880  156.5220 O   0  0  0  0  0  0  0  0  0  0  0  0
  161.2020  212.0180  157.2280 O   0  0  0  0  0  1  0  0  0  0  0  0
  160.8450  209.3550  151.1620 C   0  0  0  0  0  2  0  0  0  0  0  0
  161.2970  206.2550  150.9400 C   0  0  0  0  0  2  0  0  0  0  0  0
  161.7100  206.8020  153.2360 C   0  0  0  0  0  2  0  0  0  0  0  0
  162.1430  208.6130  151.4810 C   0  0  1  0  0  3  0  0  0  0  0  0
  160.6870  206.4170  152.2660 N   0  0  0  0  0  2  0  0  0  0  0  0
  162.1900  208.2340  152.9700 C   0  0  0  0  0  2  0  0  0  0  0  0
  162.3140  207.3650  150.6020 C   0  0  2  0  0  3  0  0  0  0  0  0
  162.3100  207.7020  149.1150 C   0  0  0  0  0  2  0  0  0  0  0  0
  162.5470  206.4800  148.2850 C   0  0  0  0  0  3  0  0  0  0  0  0
  161.6180  205.9680  147.4680 C   0  0  0  0  0  0  0  0  0  0  0  0
  160.3670  206.5780  147.3840 O   0  0  0  0  0  1  0  0  0  0  0  0
  161.9180  204.7280  146.6480 C   0  0  2  0  0  0  0  0  0  0  0  0
  163.4020  204.7040  146.3070 C   0  0  0  0  0  1  0  0  0  0  0  0
  161.1220  204.7530  145.3360 C   0  0  0  0  0  2  0  0  0  0  0  0
  160.8410  203.4590  144.8850 O   0  0  0  0  0  1  0  0  0  0  0  0
  161.5890  203.4810  147.4330 C   0  0  0  0  0  3  0  0  0  0  0  0
  161.0030  203.5230  148.6320 C   0  0  0  0  0  2  0  0  0  0  0  0
  1  2  1  0  0  0  0
  1  5  2  0  0  0  0
  3  2  1  6  0  0  0
  3  4  1  0  0  0  0
  3  6  1  0  0  0  0
  4  5  1  6  0  0  0
  4  9  1  0  0  0  0
  6  7  1  0  0  0  0
  6  8  2  0  0  0  0
  8 13  1  0  0  0  0
  9 21  1  6  0  0  0
  9  8  1  0  0  0  0
 10 17  1  0  0  0  0
 13 10  2  0  0  0  0
 14 17  1  0  0  0  0
 14 11  1  1  0  0  0
 15 12  1  1  0  0  0
 15 13  1  0  0  0  0
 15 16  1  0  0  0  0
 16 14  1  0  0  0  0
 17 18  1  1  0  0  0
 18 19  2  0  0  0  0
 18 20  1  0  0  0  0
 22 25  1  0  0  0  0
 24 21  1  6  0  0  0
 24 26  1  0  0  0  0
 25 23  1  0  0  0  0
 26 23  1  0  0  0  0
 27 28  1  6  0  0  0
 27 22  1  0  0  0  0
 27 24  1  0  0  0  0
 29 28  1  0  0  0  0
 30 29  2  0  0  0  0
 31 30  1  0  0  0  0
 32 33  1  6  0  0  0
 32 36  1  0  0  0  0
 32 30  1  0  0  0  0
 34 32  1  0  0  0  0
 35 34  1  0  0  0  0
 36 37  2  0  0  0  0
M  END
>  <MODEL>
5

>  <REMARK>
 VINA RESULT:      -6.6      3.683      8.925
  Name = 
  9 active torsions:
  status: ('A' for Active; 'I' for Inactive)
    1  A    between atoms: C_3  and  C_22
    2  A    between atoms: C_4  and  C_12
    3  A    between atoms: C_4  and  C_34
    4  A    between atoms: C_10  and  C_32
    5  A    between atoms: C_11  and  C_23
    6  A    between atoms: C_16  and  C_31
    7  A    between atoms: C_17  and  C_31
    8  A    between atoms: C_21  and  C_31
    9  A    between atoms: C_22  and  C_35
                            x       y       z     vdW  Elec       q    Type
                         _______ _______ _______ _____ _____    ______ ____

>  <TORSDO>
F 9

$$$$
=
 OpenBabel11072410123D

 37 40  0  0  1  0  0  0  0  0999 V2000
  161.9050  209.9980  150.2460 C   0  0  0  0  0  3  0  0  0  0  0  0
  161.3750  211.3200  150.0180 N   0  0  0  0  0  2  0  0  0  0  0  0
  161.2080  211.7930  151.2030 C   0  0  2  0  0  3  0  0  0  0  0  0
  161.4570  210.8000  152.1630 C   0  0  2  0  0  3  0  0  0  0  0  0
  161.9290  209.6430  151.5000 N   0  0  0  0  0  0  0  0  0  0  0  0
  160.0960  212.5830  151.6880 C   0  0  0  0  0  0  0  0  0  0  0  0
  159.4350  213.6080  150.9510 N   0  0  0  0  0  1  0  0  0  0  0  0
  159.6980  212.0610  152.8640 C   0  0  0  0  0  0  0  0  0  0  0  0
  160.5610  210.8750  153.1390 C   0  0  1  0  0  3  0  0  0  0  0  0
  157.4660  211.7630  153.8420 C   0  0  0  0  0  3  0  0  0  0  0  0
  155.1860  213.9670  156.0120 C   0  0  0  0  0  1  0  0  0  0  0  0
  159.4560  213.6660  155.5740 F   0  0  0  0  0  0  0  0  0  0  0  0
  158.5600  212.5300  153.7000 C   0  0  0  0  0  0  0  0  0  0  0  0
  156.5010  213.3550  155.5650 C   0  0  2  0  0  3  0  0  0  0  0  0
  158.6730  213.8390  154.4460 C   0  0  1  0  0  3  0  0  0  0  0  0
  157.3190  214.4160  154.8440 C   0  0  0  0  0  2  0  0  0  0  0  0
  156.2440  212.1740  154.6220 C   0  0  2  0  0  3  0  0  0  0  0  0
  155.6850  210.9950  155.3530 C   0  0  0  0  0  0  0  0  0  0  0  0
  155.7010  210.9780  156.7410 O   0  0  0  0  0  1  0  0  0  0  0  0
  155.1930  210.0220  154.7210 O   0  0  0  0  0  0  0  0  0  0  0  0
  160.2540  209.7540  154.0790 C   0  0  0  0  0  2  0  0  0  0  0  0
  160.4690  208.3680  156.8900 C   0  0  0  0  0  2  0  0  0  0  0  0
  161.9100  210.2800  157.0030 C   0  0  0  0  0  2  0  0  0  0  0  0
  161.5320  209.2030  154.7120 C   0  0  1  0  0  3  0  0  0  0  0  0
  160.5440  209.8000  157.2070 N   0  0  0  0  0  2  0  0  0  0  0  0
  162.2510  210.3050  155.5070 C   0  0  0  0  0  2  0  0  0  0  0  0
  161.2450  207.9910  155.6100 C   0  0  2  0  0  3  0  0  0  0  0  0
  160.5640  206.8580  154.8490 C   0  0  0  0  0  2  0  0  0  0  0  0
  161.0460  206.7930  153.4340 C   0  0  0  0  0  3  0  0  0  0  0  0
  161.1450  205.6430  152.7560 C   0  0  0  0  0  0  0  0  0  0  0  0
  160.8010  204.4450  153.3800 O   0  0  0  0  0  1  0  0  0  0  0  0
  161.6380  205.6410  151.3220 C   0  0  2  0  0  0  0  0  0  0  0  0
  163.0470  206.2160  151.2780 C   0  0  0  0  0  1  0  0  0  0  0  0
  160.7320  206.5180  150.4460 C   0  0  0  0  0  2  0  0  0  0  0  0
  161.3140  206.7670  149.1990 O   0  0  0  0  0  1  0  0  0  0  0  0
  161.6810  204.2330  150.7790 C   0  0  0  0  0  3  0  0  0  0  0  0
  161.0410  203.8750  149.6640 C   0  0  0  0  0  2  0  0  0  0  0  0
  1  5  2  0  0  0  0
  2  1  1  0  0  0  0
  3  2  1  6  0  0  0
  3  6  1  0  0  0  0
  3  4  1  0  0  0  0
  4  5  1  6  0  0  0
  4  9  1  0  0  0  0
  6  8  2  0  0  0  0
  7  6  1  0  0  0  0
  8  9  1  0  0  0  0
  8 13  1  0  0  0  0
  9 21  1  6  0  0  0
 10 17  1  0  0  0  0
 13 10  2  0  0  0  0
 13 15  1  0  0  0  0
 14 11  1  6  0  0  0
 15 16  1  0  0  0  0
 15 12  1  1  0  0  0
 16 14  1  0  0  0  0
 17 18  1  1  0  0  0
 17 14  1  0  0  0  0
 18 19  1  0  0  0  0
 20 18  2  0  0  0  0
 22 25  1  0  0  0  0
 23 25  1  0  0  0  0
 24 21  1  1  0  0  0
 24 26  1  0  0  0  0
 24 27  1  0  0  0  0
 26 23  1  0  0  0  0
 27 28  1  6  0  0  0
 27 22  1  0  0  0  0
 29 28  1  0  0  0  0
 30 31  1  0  0  0  0
 30 29  2  0  0  0  0
 32 33  1  6  0  0  0
 32 30  1  0  0  0  0
 34 32  1  0  0  0  0
 35 34  1  0  0  0  0
 36 32  1  0  0  0  0
 37 36  2  0  0  0  0
M  END
>  <MODEL>
6

>  <REMARK>
 VINA RESULT:      -6.5      4.730      9.240
  Name = 
  9 active torsions:
  status: ('A' for Active; 'I' for Inactive)
    1  A    between atoms: C_3  and  C_22
    2  A    between atoms: C_4  and  C_12
    3  A    between atoms: C_4  and  C_34
    4  A    between atoms: C_10  and  C_32
    5  A    between atoms: C_11  and  C_23
    6  A    between atoms: C_16  and  C_31
    7  A    between atoms: C_17  and  C_31
    8  A    between atoms: C_21  and  C_31
    9  A    between atoms: C_22  and  C_35
                            x       y       z     vdW  Elec       q    Type
                         _______ _______ _______ _____ _____    ______ ____

>  <TORSDO>
F 9

$$$$
=
 OpenBabel11072410123D

 37 40  0  0  1  0  0  0  0  0999 V2000
  160.3300  206.9040  154.5250 C   0  0  0  0  0  3  0  0  0  0  0  0
  160.4560  205.4720  154.4020 N   0  0  0  0  0  2  0  0  0  0  0  0
  161.2200  205.3180  153.3780 C   0  0  2  0  0  3  0  0  0  0  0  0
  161.4620  206.5540  152.7600 C   0  0  2  0  0  3  0  0  0  0  0  0
  160.8780  207.5730  153.5490 N   0  0  0  0  0  0  0  0  0  0  0  0
  161.0930  204.3330  152.3240 C   0  0  0  0  0  0  0  0  0  0  0  0
  160.7070  202.9740  152.5140 N   0  0  0  0  0  1  0  0  0  0  0  0
  161.2300  204.9690  151.1450 C   0  0  0  0  0  0  0  0  0  0  0  0
  161.4230  206.4190  151.4400 C   0  0  1  0  0  3  0  0  0  0  0  0
  161.3680  205.0950  148.6970 C   0  0  0  0  0  3  0  0  0  0  0  0
  160.6940  202.6030  145.8520 C   0  0  0  0  0  1  0  0  0  0  0  0
  161.9800  202.1490  149.9330 F   0  0  0  0  0  0  0  0  0  0  0  0
  161.1310  204.3540  149.7920 C   0  0  0  0  0  0  0  0  0  0  0  0
  161.2100  203.0490  147.2070 C   0  0  2  0  0  3  0  0  0  0  0  0
  160.8350  202.8790  149.6640 C   0  0  1  0  0  3  0  0  0  0  0  0
  160.2950  202.4980  148.2890 C   0  0  0  0  0  2  0  0  0  0  0  0
  161.2410  204.5790  147.2870 C   0  0  2  0  0  3  0  0  0  0  0  0
  162.3250  205.1550  146.4330 C   0  0  0  0  0  0  0  0  0  0  0  0
  163.5740  204.5520  146.4110 O   0  0  0  0  0  1  0  0  0  0  0  0
  162.1120  206.1780  145.7290 O   0  0  0  0  0  0  0  0  0  0  0  0
  161.2110  207.5530  150.4900 C   0  0  0  0  0  2  0  0  0  0  0  0
  161.5370  210.5840  149.7340 C   0  0  0  0  0  2  0  0  0  0  0  0
  162.4160  209.3590  147.8710 C   0  0  0  0  0  2  0  0  0  0  0  0
  162.5300  208.2630  150.1810 C   0  0  1  0  0  3  0  0  0  0  0  0
  161.2100  209.9450  148.4520 N   0  0  0  0  0  2  0  0  0  0  0  0
  162.8660  208.1390  148.6870 C   0  0  0  0  0  2  0  0  0  0  0  0
  162.4910  209.7390  150.6040 C   0  0  2  0  0  3  0  0  0  0  0  0
  162.1970  209.9060  152.0910 C   0  0  0  0  0  2  0  0  0  0  0  0
  160.9840  210.7550  152.3080 C   0  0  0  0  0  3  0  0  0  0  0  0
  160.6730  211.2830  153.4980 C   0  0  0  0  0  0  0  0  0  0  0  0
  161.4940  211.0320  154.5960 O   0  0  0  0  0  1  0  0  0  0  0  0
  159.4310  212.1390  153.6550 C   0  0  2  0  0  0  0  0  0  0  0  0
  158.2000  211.2440  153.6140 C   0  0  0  0  0  1  0  0  0  0  0  0
  159.3310  213.1480  152.5030 C   0  0  0  0  0  2  0  0  0  0  0  0
  158.2340  212.8750  151.6790 O   0  0  0  0  0  1  0  0  0  0  0  0
  159.4510  212.8630  154.9800 C   0  0  0  0  0  3  0  0  0  0  0  0
  158.9440  214.0880  155.1350 C   0  0  0  0  0  2  0  0  0  0  0  0
  2  1  1  0  0  0  0
  3  6  1  6  0  0  0
  3  2  1  0  0  0  0
  4  3  1  0  0  0  0
  4  5  1  1  0  0  0
  5  1  2  0  0  0  0
  6  7  1  0  0  0  0
  8  9  1  0  0  0  0
  8  6  2  0  0  0  0
  9 21  1  1  0  0  0
  9  4  1  0  0  0  0
 10 13  2  0  0  0  0
 13  8  1  0  0  0  0
 14 11  1  6  0  0  0
 14 17  1  0  0  0  0
 14 16  1  0  0  0  0
 15 13  1  0  0  0  0
 15 12  1  6  0  0  0
 16 15  1  0  0  0  0
 17 18  1  6  0  0  0
 17 10  1  0  0  0  0
 19 18  1  0  0  0  0
 20 18  2  0  0  0  0
 22 27  1  0  0  0  0
 23 25  1  0  0  0  0
 23 26  1  0  0  0  0
 24 21  1  6  0  0  0
 24 27  1  0  0  0  0
 25 22  1  0  0  0  0
 26 24  1  0  0  0  0
 27 28  1  1  0  0  0
 28 29  1  0  0  0  0
 29 30  2  0  0  0  0
 30 32  1  0  0  0  0
 30 31  1  0  0  0  0
 32 33  1  6  0  0  0
 32 36  1  0  0  0  0
 34 32  1  0  0  0  0
 35 34  1  0  0  0  0
 36 37  2  0  0  0  0
M  END
>  <MODEL>
7

>  <REMARK>
 VINA RESULT:      -6.1      2.721      4.345
  Name = 
  9 active torsions:
  status: ('A' for Active; 'I' for Inactive)
    1  A    between atoms: C_3  and  C_22
    2  A    between atoms: C_4  and  C_12
    3  A    between atoms: C_4  and  C_34
    4  A    between atoms: C_10  and  C_32
    5  A    between atoms: C_11  and  C_23
    6  A    between atoms: C_16  and  C_31
    7  A    between atoms: C_17  and  C_31
    8  A    between atoms: C_21  and  C_31
    9  A    between atoms: C_22  and  C_35
                            x       y       z     vdW  Elec       q    Type
                         _______ _______ _______ _____ _____    ______ ____

>  <TORSDO>
F 9

$$$$
=
 OpenBabel11072410123D

 37 40  0  0  1  0  0  0  0  0999 V2000
  161.3710  201.3480  148.6710 C   0  0  0  0  0  3  0  0  0  0  0  0
  161.5310  201.3150  150.1040 N   0  0  0  0  0  2  0  0  0  0  0  0
  160.8290  202.3120  150.5150 C   0  0  2  0  0  3  0  0  0  0  0  0
  160.3590  203.0600  149.4240 C   0  0  2  0  0  3  0  0  0  0  0  0
  160.7190  202.3890  148.2320 N   0  0  0  0  0  0  0  0  0  0  0  0
  161.1640  203.2530  151.5630 C   0  0  0  0  0  0  0  0  0  0  0  0
  161.8070  202.9200  152.7900 N   0  0  0  0  0  1  0  0  0  0  0  0
  160.9250  204.4940  151.0970 C   0  0  0  0  0  0  0  0  0  0  0  0
  160.4460  204.3570  149.6910 C   0  0  1  0  0  3  0  0  0  0  0  0
  160.4550  206.0650  152.9240 C   0  0  0  0  0  3  0  0  0  0  0  0
  161.7570  209.5620  153.8400 C   0  0  0  0  0  1  0  0  0  0  0  0
  163.4890  206.2160  151.7610 F   0  0  0  0  0  0  0  0  0  0  0  0
  161.1650  205.7720  151.8210 C   0  0  0  0  0  0  0  0  0  0  0  0
  161.8660  208.1290  153.3550 C   0  0  2  0  0  3  0  0  0  0  0  0
  162.2590  206.7010  151.3510 C   0  0  1  0  0  3  0  0  0  0  0  0
  162.0790  208.1320  151.8490 C   0  0  0  0  0  2  0  0  0  0  0  0
  160.5860  207.3550  153.6930 C   0  0  2  0  0  3  0  0  0  0  0  0
  160.4740  207.0870  155.1600 C   0  0  0  0  0  0  0  0  0  0  0  0
  159.2200  206.9510  155.7380 O   0  0  0  0  0  0  0  0  0  0  0  0
  161.5070  206.9770  155.8730 O   0  0  0  0  0  1  0  0  0  0  0  0
  160.4460  205.4260  148.6450 C   0  0  0  0  0  2  0  0  0  0  0  0
  161.2110  207.3650  146.2950 C   0  0  0  0  0  2  0  0  0  0  0  0
  161.8490  205.1770  145.5570 C   0  0  0  0  0  2  0  0  0  0  0  0
  161.8500  205.6340  148.0750 C   0  0  1  0  0  3  0  0  0  0  0  0
  160.7600  206.1500  145.6040 N   0  0  0  0  0  2  0  0  0  0  0  0
  162.1280  204.6160  146.9570 C   0  0  0  0  0  2  0  0  0  0  0  0
  162.0460  207.0670  147.5580 C   0  0  2  0  0  3  0  0  0  0  0  0
  161.8150  208.1090  148.6480 C   0  0  0  0  0  2  0  0  0  0  0  0
  161.6760  209.4790  148.0620 C   0  0  0  0  0  3  0  0  0  0  0  0
  161.8630  210.5950  148.7770 C   0  0  0  0  0  0  0  0  0  0  0  0
  162.1890  210.4970  150.1300 O   0  0  0  0  0  1  0  0  0  0  0  0
  161.7130  211.9560  148.1270 C   0  0  2  0  0  0  0  0  0  0  0  0
  163.0870  212.4670  147.7170 C   0  0  0  0  0  1  0  0  0  0  0  0
  161.1050  212.9560  149.1200 C   0  0  0  0  0  2  0  0  0  0  0  0
  161.6020  214.2470  148.9140 O   0  0  0  0  0  1  0  0  0  0  0  0
  160.8510  211.8610  146.8910 C   0  0  0  0  0  3  0  0  0  0  0  0
  159.7610  212.6110  146.7180 C   0  0  0  0  0  2  0  0  0  0  0  0
  1  2  1  0  0  0  0
  3  2  1  6  0  0  0
  3  6  1  0  0  0  0
  4  5  1  6  0  0  0
  4  9  1  0  0  0  0
  4  3  1  0  0  0  0
  5  1  2  0  0  0  0
  6  7  1  0  0  0  0
  8  6  2  0  0  0  0
  8 13  1  0  0  0  0
  9 21  1  6  0  0  0
  9  8  1  0  0  0  0
 10 17  1  0  0  0  0
 13 10  2  0  0  0  0
 14 17  1  0  0  0  0
 14 11  1  6  0  0  0
 15 12  1  1  0  0  0
 15 13  1  0  0  0  0
 15 16  1  0  0  0  0
 16 14  1  0  0  0  0
 17 18  1  1  0  0  0
 18 19  2  0  0  0  0
 18 20  1  0  0  0  0
 22 27  1  0  0  0  0
 23 25  1  0  0  0  0
 23 26  1  0  0  0  0
 24 21  1  6  0  0  0
 25 22  1  0  0  0  0
 26 24  1  0  0  0  0
 27 24  1  0  0  0  0
 27 28  1  1  0  0  0
 29 28  1  0  0  0  0
 29 30  2  0  0  0  0
 30 31  1  0  0  0  0
 32 33  1  6  0  0  0
 32 30  1  0  0  0  0
 32 34  1  0  0  0  0
 35 34  1  0  0  0  0
 36 32  1  0  0  0  0
 37 36  2  0  0  0  0
M  END
>  <MODEL>
8

>  <REMARK>
 VINA RESULT:      -5.8      3.055      5.615
  Name = 
  9 active torsions:
  status: ('A' for Active; 'I' for Inactive)
    1  A    between atoms: C_3  and  C_22
    2  A    between atoms: C_4  and  C_12
    3  A    between atoms: C_4  and  C_34
    4  A    between atoms: C_10  and  C_32
    5  A    between atoms: C_11  and  C_23
    6  A    between atoms: C_16  and  C_31
    7  A    between atoms: C_17  and  C_31
    8  A    between atoms: C_21  and  C_31
    9  A    between atoms: C_22  and  C_35
                            x       y       z     vdW  Elec       q    Type
                         _______ _______ _______ _____ _____    ______ ____

>  <TORSDO>
F 9

$$$$
=
 OpenBabel11072410123D

 37 40  0  0  1  0  0  0  0  0999 V2000
  160.2060  202.7030  152.7990 C   0  0  0  0  0  3  0  0  0  0  0  0
  160.4590  201.7490  151.7470 N   0  0  0  0  0  2  0  0  0  0  0  0
  161.2330  202.3820  150.9380 C   0  0  2  0  0  3  0  0  0  0  0  0
  161.3630  203.7220  151.3350 C   0  0  2  0  0  3  0  0  0  0  0  0
  160.6900  203.8910  152.5680 N   0  0  0  0  0  0  0  0  0  0  0  0
  161.1940  202.3710  149.4900 C   0  0  0  0  0  0  0  0  0  0  0  0
  160.9320  201.2240  148.6860 N   0  0  0  0  0  1  0  0  0  0  0  0
  161.2710  203.6460  149.0640 C   0  0  0  0  0  0  0  0  0  0  0  0
  161.3340  204.5180  150.2730 C   0  0  1  0  0  3  0  0  0  0  0  0
  160.9660  203.2370  146.6620 C   0  0  0  0  0  3  0  0  0  0  0  0
  161.2470  205.4330  143.5220 C   0  0  0  0  0  1  0  0  0  0  0  0
  160.2290  206.2560  147.6210 F   0  0  0  0  0  0  0  0  0  0  0  0
  161.2260  204.1100  147.6490 C   0  0  0  0  0  0  0  0  0  0  0  0
  160.8640  205.1090  144.9540 C   0  0  2  0  0  3  0  0  0  0  0  0
  161.4020  205.5780  147.3410 C   0  0  1  0  0  3  0  0  0  0  0  0
  161.8130  205.8360  145.8940 C   0  0  0  0  0  2  0  0  0  0  0  0
  160.9520  203.5980  145.1990 C   0  0  2  0  0  3  0  0  0  0  0  0
  159.8550  202.8600  144.5010 C   0  0  0  0  0  0  0  0  0  0  0  0
  159.9620  201.4900  144.3100 O   0  0  0  0  0  1  0  0  0  0  0  0
  158.8300  203.4700  144.0930 O   0  0  0  0  0  0  0  0  0  0  0  0
  161.0190  205.9780  150.3310 C   0  0  0  0  0  2  0  0  0  0  0  0
  160.9090  208.9880  151.2210 C   0  0  0  0  0  2  0  0  0  0  0  0
  162.7090  208.8490  149.6450 C   0  0  0  0  0  2  0  0  0  0  0  0
  162.1500  206.7550  151.0060 C   0  0  1  0  0  3  0  0  0  0  0  0
  161.2720  209.0640  149.7990 N   0  0  0  0  0  2  0  0  0  0  0  0
  163.0680  207.3880  149.9480 C   0  0  0  0  0  2  0  0  0  0  0  0
  161.6080  207.8290  151.9620 C   0  0  2  0  0  3  0  0  0  0  0  0
  160.7200  207.2370  153.0510 C   0  0  0  0  0  2  0  0  0  0  0  0
  161.1620  207.6850  154.4090 C   0  0  0  0  0  3  0  0  0  0  0  0
  160.6870  208.7890  154.9970 C   0  0  0  0  0  0  0  0  0  0  0  0
  159.7510  209.5760  154.3270 O   0  0  0  0  0  1  0  0  0  0  0  0
  161.1700  209.1900  156.3780 C   0  0  2  0  0  0  0  0  0  0  0  0
  160.1450  210.1200  157.0130 C   0  0  0  0  0  1  0  0  0  0  0  0
  162.5050  209.9410  156.2770 C   0  0  0  0  0  2  0  0  0  0  0  0
  162.3060  211.3210  156.1590 O   0  0  0  0  0  1  0  0  0  0  0  0
  161.3230  207.9740  157.2590 C   0  0  0  0  0  3  0  0  0  0  0  0
  160.4440  206.9690  157.2530 C   0  0  0  0  0  2  0  0  0  0  0  0
  2  1  1  0  0  0  0
  3  6  1  6  0  0  0
  3  4  1  0  0  0  0
  3  2  1  0  0  0  0
  4  5  1  1  0  0  0
  5  1  2  0  0  0  0
  7  6  1  0  0  0  0
  8  6  2  0  0  0  0
  8  9  1  0  0  0  0
  9 21  1  1  0  0  0
  9  4  1  0  0  0  0
 10 13  2  0  0  0  0
 13  8  1  0  0  0  0
 14 11  1  6  0  0  0
 14 17  1  0  0  0  0
 14 16  1  0  0  0  0
 15 12  1  6  0  0  0
 15 13  1  0  0  0  0
 16 15  1  0  0  0  0
 17 18  1  6  0  0  0
 17 10  1  0  0  0  0
 19 18  1  0  0  0  0
 20 18  2  0  0  0  0
 22 27  1  0  0  0  0
 23 25  1  0  0  0  0
 23 26  1  0  0  0  0
 24 21  1  6  0  0  0
 24 27  1  0  0  0  0
 25 22  1  0  0  0  0
 26 24  1  0  0  0  0
 27 28  1  1  0  0  0
 28 29  1  0  0  0  0
 29 30  2  0  0  0  0
 30 32  1  0  0  0  0
 31 30  1  0  0  0  0
 32 33  1  1  0  0  0
 32 36  1  0  0  0  0
 34 32  1  0  0  0  0
 35 34  1  0  0  0  0
 37 36  2  0  0  0  0
M  END
>  <MODEL>
9

>  <REMARK>
 VINA RESULT:      -5.5      3.148      5.369
  Name = 
  9 active torsions:
  status: ('A' for Active; 'I' for Inactive)
    1  A    between atoms: C_3  and  C_22
    2  A    between atoms: C_4  and  C_12
    3  A    between atoms: C_4  and  C_34
    4  A    between atoms: C_10  and  C_32
    5  A    between atoms: C_11  and  C_23
    6  A    between atoms: C_16  and  C_31
    7  A    between atoms: C_17  and  C_31
    8  A    between atoms: C_21  and  C_31
    9  A    between atoms: C_22  and  C_35
                            x       y       z     vdW  Elec       q    Type
                         _______ _______ _______ _____ _____    ______ ____

>  <TORSDO>
F 9

$$$$
