=
 OpenBabel11072413593D

 29 32  0  0  1  0  0  0  0  0999 V2000
  160.7970  207.9350  157.1720 N   0  0  0  0  0  2  0  0  0  0  0  0
  160.3020  210.3630  152.4980 C   0  0  0  0  0  2  0  0  0  0  0  0
  161.2120  207.3980  154.7410 C   0  0  2  0  0  3  0  0  0  0  0  0
  162.6060  210.8240  154.4910 O   0  0  0  0  0  0  0  0  0  0  0  0
  160.4560  209.6030  151.2660 N   0  0  0  0  0  2  0  0  0  0  0  0
  162.0540  209.8420  150.6230 S   0  0  0  0  0  0  0  0  0  0  0  0
  160.7630  206.3970  153.7640 N   0  0  0  0  0  0  0  0  0  0  0  0
  163.0130  210.3210  151.6770 O   0  0  0  0  0  0  0  0  0  0  0  0
  160.3220  207.3850  155.9490 C   0  0  0  0  0  0  0  0  0  0  0  0
  162.6230  208.3110  149.9760 C   0  0  0  0  0  3  0  0  0  0  0  0
  162.5230  207.1890  150.6830 C   0  0  0  0  0  3  0  0  0  0  0  0
  160.0480  209.4170  153.6660 C   0  0  0  0  0  2  0  0  0  0  0  0
  161.9900  210.8510  149.5130 O   0  0  0  0  0  0  0  0  0  0  0  0
  159.1410  206.9500  155.8790 O   0  0  0  0  0  0  0  0  0  0  0  0
  162.1480  208.4600  157.2610 C   0  0  0  0  0  2  0  0  0  0  0  0
  162.2750  209.6760  156.4660 N   0  0  0  0  0  2  0  0  0  0  0  0
  162.0470  207.2270  151.9930 O   0  0  0  0  0  0  0  0  0  0  0  0
  162.1240  209.8010  155.0420 C   0  0  0  0  0  0  0  0  0  0  0  0
  161.3600  208.8210  154.1710 C   0  0  1  0  0  3  0  0  0  0  0  0
  161.1800  206.2720  152.5400 C   0  0  0  0  0  0  0  0  0  0  0  0
  161.2090  203.8020  152.1780 C   0  0  0  0  0  3  0  0  0  0  0  0
  160.5820  202.9030  149.9620 C   0  0  1  0  0  3  0  0  0  0  0  0
  161.2060  204.2670  148.0380 C   0  0  0  0  0  2  0  0  0  0  0  0
  161.2240  202.0240  148.9940 N   0  0  0  0  0  2  0  0  0  0  0  0
  160.8600  205.3460  150.2510 C   0  0  0  0  0  3  0  0  0  0  0  0
  161.1910  202.7510  151.3360 C   0  0  0  0  0  3  0  0  0  0  0  0
  160.7880  204.2800  149.4440 C   0  0  0  0  0  0  0  0  0  0  0  0
  160.6360  205.1320  151.7310 C   0  0  2  0  0  3  0  0  0  0  0  0
  161.2660  202.7740  147.7320 C   0  0  0  0  0  2  0  0  0  0  0  0
  1 15  1  0  0  0  0
  2 12  1  0  0  0  0
  3  7  1  6  0  0  0
  3  9  1  0  0  0  0
  4 18  2  0  0  0  0
  5  2  1  0  0  0  0
  6  5  1  0  0  0  0
  6  8  2  0  0  0  0
  9  1  1  0  0  0  0
 10  6  1  0  0  0  0
 10 11  2  0  0  0  0
 11 17  1  0  0  0  0
 13  6  2  0  0  0  0
 14  9  2  0  0  0  0
 16 15  1  0  0  0  0
 17 20  1  0  0  0  0
 18 16  1  0  0  0  0
 19 12  1  1  0  0  0
 19  3  1  0  0  0  0
 19 18  1  0  0  0  0
 20  7  2  0  0  0  0
 22 26  1  1  0  0  0
 23 27  1  0  0  0  0
 24 22  1  0  0  0  0
 25 28  1  0  0  0  0
 26 21  2  0  0  0  0
 27 22  1  0  0  0  0
 27 25  2  0  0  0  0
 28 21  1  0  0  0  0
 28 20  1  1  0  0  0
 29 23  1  0  0  0  0
 29 24  1  0  0  0  0
M  END
>  <MODEL>
1

>  <REMARK>
 VINA RESULT:      -8.5      0.000      0.000
  Name = 
  1 active torsions:
  status: ('A' for Active; 'I' for Inactive)
    1  A    between atoms: C_21  and  C_29
                            x       y       z     vdW  Elec       q    Type
                         _______ _______ _______ _____ _____    ______ ____

>  <TORSDO>
F 1

$$$$
=
 OpenBabel11072413593D

 29 32  0  0  1  0  0  0  0  0999 V2000
  158.3650  213.3770  152.3990 N   0  0  0  0  0  2  0  0  0  0  0  0
  161.5210  210.7580  155.7420 C   0  0  0  0  0  2  0  0  0  0  0  0
  159.4190  211.0890  152.5600 C   0  0  2  0  0  3  0  0  0  0  0  0
  158.4990  211.2030  156.1490 O   0  0  0  0  0  0  0  0  0  0  0  0
  162.0900  209.4770  155.3480 N   0  0  0  0  0  2  0  0  0  0  0  0
  161.1620  208.1820  156.0450 S   0  0  0  0  0  0  0  0  0  0  0  0
  160.3270  210.2600  151.7580 N   0  0  0  0  0  0  0  0  0  0  0  0
  159.7810  208.6320  156.4330 O   0  0  0  0  0  0  0  0  0  0  0  0
  159.4470  212.5100  152.0800 C   0  0  0  0  0  0  0  0  0  0  0  0
  161.0380  206.8910  154.8590 C   0  0  0  0  0  3  0  0  0  0  0  0
  160.6870  207.1480  153.6020 C   0  0  0  0  0  3  0  0  0  0  0  0
  161.0330  211.5120  154.5100 C   0  0  0  0  0  2  0  0  0  0  0  0
  161.8780  207.6650  157.2600 O   0  0  0  0  0  0  0  0  0  0  0  0
  160.4410  212.9620  151.4510 O   0  0  0  0  0  0  0  0  0  0  0  0
  157.2230  212.8750  153.1420 C   0  0  0  0  0  2  0  0  0  0  0  0
  157.6040  212.5650  154.5150 N   0  0  0  0  0  2  0  0  0  0  0  0
  160.3200  208.4400  153.2270 O   0  0  0  0  0  0  0  0  0  0  0  0
  158.5520  211.5760  154.9490 C   0  0  0  0  0  0  0  0  0  0  0  0
  159.6570  211.0070  154.0800 C   0  0  1  0  0  3  0  0  0  0  0  0
  160.6920  209.0400  152.0180 C   0  0  0  0  0  0  0  0  0  0  0  0
  161.8420  209.2160  149.8090 C   0  0  0  0  0  3  0  0  0  0  0  0
  162.4220  207.1470  148.5850 C   0  0  1  0  0  3  0  0  0  0  0  0
  160.8610  205.2880  148.8250 C   0  0  0  0  0  2  0  0  0  0  0  0
  162.1460  206.6350  147.2500 N   0  0  0  0  0  2  0  0  0  0  0  0
  161.0130  207.0070  150.6160 C   0  0  0  0  0  3  0  0  0  0  0  0
  162.2330  208.6450  148.6540 C   0  0  0  0  0  3  0  0  0  0  0  0
  161.4630  206.4540  149.4820 C   0  0  0  0  0  0  0  0  0  0  0  0
  161.5770  208.3500  151.0230 C   0  0  2  0  0  3  0  0  0  0  0  0
  161.5050  205.3280  147.4430 C   0  0  0  0  0  2  0  0  0  0  0  0
  1 15  1  0  0  0  0
  3  7  1  6  0  0  0
  3 19  1  0  0  0  0
  5  2  1  0  0  0  0
  5  6  1  0  0  0  0
  6  8  2  0  0  0  0
  6 13  2  0  0  0  0
  7 20  2  0  0  0  0
  9  1  1  0  0  0  0
  9  3  1  0  0  0  0
 10  6  1  0  0  0  0
 11 10  2  0  0  0  0
 12  2  1  0  0  0  0
 14  9  2  0  0  0  0
 15 16  1  0  0  0  0
 16 18  1  0  0  0  0
 17 11  1  0  0  0  0
 18  4  2  0  0  0  0
 19 12  1  6  0  0  0
 19 18  1  0  0  0  0
 20 17  1  0  0  0  0
 21 28  1  0  0  0  0
 22 26  1  6  0  0  0
 22 27  1  0  0  0  0
 23 27  1  0  0  0  0
 24 29  1  0  0  0  0
 24 22  1  0  0  0  0
 25 28  1  0  0  0  0
 26 21  2  0  0  0  0
 27 25  2  0  0  0  0
 28 20  1  1  0  0  0
 29 23  1  0  0  0  0
M  END
>  <MODEL>
2

>  <REMARK>
 VINA RESULT:      -8.1      2.737      4.992
  Name = 
  1 active torsions:
  status: ('A' for Active; 'I' for Inactive)
    1  A    between atoms: C_21  and  C_29
                            x       y       z     vdW  Elec       q    Type
                         _______ _______ _______ _____ _____    ______ ____

>  <TORSDO>
F 1

$$$$
=
 OpenBabel11072413593D

 29 32  0  0  1  0  0  0  0  0999 V2000
  162.3260  208.9040  157.2170 N   0  0  0  0  0  2  0  0  0  0  0  0
  158.2590  211.4360  154.9720 C   0  0  0  0  0  2  0  0  0  0  0  0
  161.5380  209.4620  154.8860 C   0  0  2  0  0  3  0  0  0  0  0  0
  160.7060  212.8070  156.2480 O   0  0  0  0  0  0  0  0  0  0  0  0
  158.0570  211.3490  153.5330 N   0  0  0  0  0  2  0  0  0  0  0  0
  158.6840  212.7770  152.7630 S   0  0  0  0  0  0  0  0  0  0  0  0
  161.1780  208.7310  153.6630 N   0  0  0  0  0  0  0  0  0  0  0  0
  159.6860  213.4840  153.6320 O   0  0  0  0  0  0  0  0  0  0  0  0
  161.5960  208.5250  156.0570 C   0  0  0  0  0  0  0  0  0  0  0  0
  159.4560  212.2980  151.2590 C   0  0  0  0  0  3  0  0  0  0  0  0
  160.3150  211.2840  151.2230 C   0  0  0  0  0  3  0  0  0  0  0  0
  159.1800  210.3140  155.4370 C   0  0  0  0  0  2  0  0  0  0  0  0
  157.5460  213.7080  152.4570 O   0  0  0  0  0  0  0  0  0  0  0  0
  160.9590  207.4380  156.0480 O   0  0  0  0  0  0  0  0  0  0  0  0
  163.0460  210.1640  157.2480 C   0  0  0  0  0  2  0  0  0  0  0  0
  162.1130  211.2840  157.2610 N   0  0  0  0  0  2  0  0  0  0  0  0
  160.6880  210.6390  152.4020 O   0  0  0  0  0  0  0  0  0  0  0  0
  161.1700  211.6390  156.2360 C   0  0  0  0  0  0  0  0  0  0  0  0
  160.6420  210.6790  155.1860 C   0  0  1  0  0  3  0  0  0  0  0  0
  160.8530  209.2540  152.5190 C   0  0  0  0  0  0  0  0  0  0  0  0
  160.7390  206.8690  151.7880 C   0  0  0  0  0  3  0  0  0  0  0  0
  161.0480  206.3270  149.3960 C   0  0  1  0  0  3  0  0  0  0  0  0
  162.6160  207.7400  148.1720 C   0  0  0  0  0  2  0  0  0  0  0  0
  161.9390  205.4470  148.6520 N   0  0  0  0  0  2  0  0  0  0  0  0
  161.4640  208.6370  150.1860 C   0  0  0  0  0  3  0  0  0  0  0  0
  160.9660  205.9290  150.8510 C   0  0  0  0  0  3  0  0  0  0  0  0
  161.6270  207.6880  149.2540 C   0  0  0  0  0  0  0  0  0  0  0  0
  160.5870  208.3190  151.3760 C   0  0  2  0  0  3  0  0  0  0  0  0
  162.6230  206.3000  147.6710 C   0  0  0  0  0  2  0  0  0  0  0  0
  1 15  1  0  0  0  0
  2 12  1  0  0  0  0
  3  7  1  6  0  0  0
  3 19  1  0  0  0  0
  3  9  1  0  0  0  0
  5  2  1  0  0  0  0
  6  5  1  0  0  0  0
  6  8  2  0  0  0  0
  9  1  1  0  0  0  0
 10  6  1  0  0  0  0
 11 10  2  0  0  0  0
 11 17  1  0  0  0  0
 13  6  2  0  0  0  0
 14  9  2  0  0  0  0
 15 16  1  0  0  0  0
 17 20  1  0  0  0  0
 18  4  2  0  0  0  0
 18 16  1  0  0  0  0
 19 12  1  1  0  0  0
 19 18  1  0  0  0  0
 20  7  2  0  0  0  0
 22 26  1  1  0  0  0
 23 27  1  0  0  0  0
 24 22  1  0  0  0  0
 25 28  1  0  0  0  0
 26 21  2  0  0  0  0
 27 22  1  0  0  0  0
 27 25  2  0  0  0  0
 28 21  1  0  0  0  0
 28 20  1  1  0  0  0
 29 23  1  0  0  0  0
 29 24  1  0  0  0  0
M  END
>  <MODEL>
3

>  <REMARK>
 VINA RESULT:      -6.2      2.591      3.441
  Name = 
  1 active torsions:
  status: ('A' for Active; 'I' for Inactive)
    1  A    between atoms: C_21  and  C_29
                            x       y       z     vdW  Elec       q    Type
                         _______ _______ _______ _____ _____    ______ ____

>  <TORSDO>
F 1

$$$$
=
 OpenBabel11072413593D

 29 32  0  0  1  0  0  0  0  0999 V2000
  161.0500  201.4520  150.6100 N   0  0  0  0  0  2  0  0  0  0  0  0
  163.0140  203.7440  146.2650 C   0  0  0  0  0  2  0  0  0  0  0  0
  160.7380  203.6110  149.3400 C   0  0  2  0  0  3  0  0  0  0  0  0
  160.8750  201.5260  146.2780 O   0  0  0  0  0  0  0  0  0  0  0  0
  162.7110  205.1390  145.9810 N   0  0  0  0  0  2  0  0  0  0  0  0
  161.4290  205.2370  144.8100 S   0  0  0  0  0  0  0  0  0  0  0  0
  160.8570  205.0490  149.6100 N   0  0  0  0  0  0  0  0  0  0  0  0
  160.6280  203.9660  144.7530 O   0  0  0  0  0  0  0  0  0  0  0  0
  161.4030  202.8180  150.4270 C   0  0  0  0  0  0  0  0  0  0  0  0
  160.3720  206.5670  145.2590 C   0  0  0  0  0  3  0  0  0  0  0  0
  159.9310  206.7010  146.5060 C   0  0  0  0  0  3  0  0  0  0  0  0
  162.7300  203.4370  147.7310 C   0  0  0  0  0  2  0  0  0  0  0  0
  162.0210  205.5140  143.4580 O   0  0  0  0  0  0  0  0  0  0  0  0
  162.3080  203.3280  151.1390 O   0  0  0  0  0  0  0  0  0  0  0  0
  160.0230  200.8460  149.7820 C   0  0  0  0  0  2  0  0  0  0  0  0
  160.4870  200.7200  148.4050 N   0  0  0  0  0  2  0  0  0  0  0  0
  160.2280  205.7300  147.4620 O   0  0  0  0  0  0  0  0  0  0  0  0
  160.8390  201.7860  147.5080 C   0  0  0  0  0  0  0  0  0  0  0  0
  161.2400  203.1810  147.9480 C   0  0  1  0  0  3  0  0  0  0  0  0
  160.5700  206.0160  148.7890 C   0  0  0  0  0  0  0  0  0  0  0  0
  161.9660  208.0850  148.7950 C   0  0  0  0  0  3  0  0  0  0  0  0
  161.7580  209.6730  150.6790 C   0  0  1  0  0  3  0  0  0  0  0  0
  161.3090  208.6880  152.8650 C   0  0  0  0  0  2  0  0  0  0  0  0
  162.6910  210.2680  151.6250 N   0  0  0  0  0  2  0  0  0  0  0  0
  160.6200  207.4770  150.8040 C   0  0  0  0  0  3  0  0  0  0  0  0
  162.4710  209.1440  149.4560 C   0  0  0  0  0  3  0  0  0  0  0  0
  161.0930  208.5700  151.4180 C   0  0  0  0  0  0  0  0  0  0  0  0
  160.6990  207.4210  149.2950 C   0  0  2  0  0  3  0  0  0  0  0  0
  162.1800  209.9360  152.9610 C   0  0  0  0  0  2  0  0  0  0  0  0
  2 12  1  0  0  0  0
  3  7  1  1  0  0  0
  3  9  1  0  0  0  0
  4 18  2  0  0  0  0
  5  2  1  0  0  0  0
  6 10  1  0  0  0  0
  6  5  1  0  0  0  0
  8  6  2  0  0  0  0
  9  1  1  0  0  0  0
  9 14  2  0  0  0  0
 10 11  2  0  0  0  0
 11 17  1  0  0  0  0
 13  6  2  0  0  0  0
 15  1  1  0  0  0  0
 16 15  1  0  0  0  0
 17 20  1  0  0  0  0
 18 19  1  0  0  0  0
 18 16  1  0  0  0  0
 19 12  1  1  0  0  0
 19  3  1  0  0  0  0
 20  7  2  0  0  0  0
 21 28  1  0  0  0  0
 21 26  2  0  0  0  0
 22 26  1  6  0  0  0
 22 27  1  0  0  0  0
 22 24  1  0  0  0  0
 23 29  1  0  0  0  0
 24 29  1  0  0  0  0
 25 27  2  0  0  0  0
 27 23  1  0  0  0  0
 28 20  1  1  0  0  0
 28 25  1  0  0  0  0
M  END
>  <MODEL>
4

>  <REMARK>
 VINA RESULT:      -5.7      3.860      7.782
  Name = 
  1 active torsions:
  status: ('A' for Active; 'I' for Inactive)
    1  A    between atoms: C_21  and  C_29
                            x       y       z     vdW  Elec       q    Type
                         _______ _______ _______ _____ _____    ______ ____

>  <TORSDO>
F 1

$$$$
=
 OpenBabel11072413593D

 29 32  0  0  1  0  0  0  0  0999 V2000
  159.3670  213.1650  151.3520 N   0  0  0  0  0  2  0  0  0  0  0  0
  161.9630  210.6560  155.2180 C   0  0  0  0  0  2  0  0  0  0  0  0
  159.9860  210.7920  151.9430 C   0  0  2  0  0  3  0  0  0  0  0  0
  159.0700  211.6930  155.4200 O   0  0  0  0  0  0  0  0  0  0  0  0
  162.2940  209.2450  155.0720 N   0  0  0  0  0  2  0  0  0  0  0  0
  161.1400  208.2780  155.9420 S   0  0  0  0  0  0  0  0  0  0  0  0
  160.7370  209.6870  151.3320 N   0  0  0  0  0  0  0  0  0  0  0  0
  159.8610  209.0260  156.1910 O   0  0  0  0  0  0  0  0  0  0  0  0
  160.2770  212.0790  151.2300 C   0  0  0  0  0  0  0  0  0  0  0  0
  160.7960  206.8420  154.9890 C   0  0  0  0  0  3  0  0  0  0  0  0
  160.5090  206.9330  153.6930 C   0  0  0  0  0  3  0  0  0  0  0  0
  161.6320  211.2560  153.8570 C   0  0  0  0  0  2  0  0  0  0  0  0
  161.7390  207.8630  157.2550 O   0  0  0  0  0  0  0  0  0  0  0  0
  161.3430  212.2300  150.5740 O   0  0  0  0  0  0  0  0  0  0  0  0
  158.1460  213.0120  152.1220 C   0  0  0  0  0  2  0  0  0  0  0  0
  158.4510  212.8850  153.5420 N   0  0  0  0  0  2  0  0  0  0  0  0
  160.3860  208.1830  153.0890 O   0  0  0  0  0  0  0  0  0  0  0  0
  159.2010  211.8350  154.1770 C   0  0  0  0  0  0  0  0  0  0  0  0
  160.1920  210.9350  153.4630 C   0  0  1  0  0  3  0  0  0  0  0  0
  160.8710  208.4860  151.8110 C   0  0  0  0  0  0  0  0  0  0  0  0
  161.6990  207.8990  149.5300 C   0  0  0  0  0  3  0  0  0  0  0  0
  162.1520  205.5300  148.9870 C   0  0  1  0  0  3  0  0  0  0  0  0
  160.6850  203.8910  150.0400 C   0  0  0  0  0  2  0  0  0  0  0  0
  161.7060  204.6140  147.9470 N   0  0  0  0  0  2  0  0  0  0  0  0
  161.0430  206.0990  151.1260 C   0  0  0  0  0  3  0  0  0  0  0  0
  161.9390  206.9710  148.5840 C   0  0  0  0  0  3  0  0  0  0  0  0
  161.3440  205.1930  150.1860 C   0  0  0  0  0  0  0  0  0  0  0  0
  161.6260  207.4870  150.9860 C   0  0  2  0  0  3  0  0  0  0  0  0
  161.1290  203.4580  148.6460 C   0  0  0  0  0  2  0  0  0  0  0  0
  1 15  1  0  0  0  0
  3  9  1  6  0  0  0
  3 19  1  0  0  0  0
  5  2  1  0  0  0  0
  5  6  1  0  0  0  0
  6  8  2  0  0  0  0
  6 13  2  0  0  0  0
  7 20  2  0  0  0  0
  7  3  1  0  0  0  0
  9  1  1  0  0  0  0
 10  6  1  0  0  0  0
 11 10  2  0  0  0  0
 12  2  1  0  0  0  0
 14  9  2  0  0  0  0
 15 16  1  0  0  0  0
 16 18  1  0  0  0  0
 17 11  1  0  0  0  0
 18  4  2  0  0  0  0
 19 12  1  6  0  0  0
 19 18  1  0  0  0  0
 20 17  1  0  0  0  0
 21 28  1  0  0  0  0
 22 26  1  6  0  0  0
 22 27  1  0  0  0  0
 23 27  1  0  0  0  0
 24 29  1  0  0  0  0
 24 22  1  0  0  0  0
 26 21  2  0  0  0  0
 27 25  2  0  0  0  0
 28 25  1  0  0  0  0
 28 20  1  1  0  0  0
 29 23  1  0  0  0  0
M  END
>  <MODEL>
5

>  <REMARK>
 VINA RESULT:      -5.6      2.357      4.704
  Name = 
  1 active torsions:
  status: ('A' for Active; 'I' for Inactive)
    1  A    between atoms: C_21  and  C_29
                            x       y       z     vdW  Elec       q    Type
                         _______ _______ _______ _____ _____    ______ ____

>  <TORSDO>
F 1

$$$$
=
 OpenBabel11072413593D

 29 32  0  0  1  0  0  0  0  0999 V2000
  161.2200  210.4640  152.8980 N   0  0  0  0  0  2  0  0  0  0  0  0
  162.9020  205.4520  152.7080 C   0  0  0  0  0  2  0  0  0  0  0  0
  160.9790  208.4760  151.3630 C   0  0  2  0  0  3  0  0  0  0  0  0
  160.5740  206.4670  154.4520 O   0  0  0  0  0  0  0  0  0  0  0  0
  162.7060  204.6670  151.4980 N   0  0  0  0  0  2  0  0  0  0  0  0
  161.3180  203.6360  151.6840 S   0  0  0  0  0  0  0  0  0  0  0  0
  161.2660  208.1550  149.9580 N   0  0  0  0  0  0  0  0  0  0  0  0
  160.3970  204.1310  152.7640 O   0  0  0  0  0  0  0  0  0  0  0  0
  161.6800  209.7400  151.7630 C   0  0  0  0  0  0  0  0  0  0  0  0
  160.4510  203.5980  150.1560 C   0  0  0  0  0  3  0  0  0  0  0  0
  160.1660  204.7200  149.5020 C   0  0  0  0  0  3  0  0  0  0  0  0
  162.7540  206.9360  152.3960 C   0  0  0  0  0  2  0  0  0  0  0  0
  161.7800  202.2470  152.0220 O   0  0  0  0  0  0  0  0  0  0  0  0
  162.7040  210.1370  151.1460 O   0  0  0  0  0  0  0  0  0  0  0  0
  160.0540  210.0060  153.6320 C   0  0  0  0  0  2  0  0  0  0  0  0
  160.3480  208.7610  154.3310 N   0  0  0  0  0  2  0  0  0  0  0  0
  160.4710  205.9580  150.0680 O   0  0  0  0  0  0  0  0  0  0  0  0
  160.7000  207.4980  153.7430 C   0  0  0  0  0  0  0  0  0  0  0  0
  161.2800  207.3320  152.3500 C   0  0  1  0  0  3  0  0  0  0  0  0
  160.9840  207.0430  149.3470 C   0  0  0  0  0  0  0  0  0  0  0  0
  160.0810  206.6020  147.0620 C   0  0  0  0  0  3  0  0  0  0  0  0
  161.6200  205.8280  145.2880 C   0  0  1  0  0  3  0  0  0  0  0  0
  163.4410  204.3750  146.0100 C   0  0  0  0  0  2  0  0  0  0  0  0
  161.6500  204.6860  144.3850 N   0  0  0  0  0  2  0  0  0  0  0  0
  162.4270  205.9720  147.6240 C   0  0  0  0  0  3  0  0  0  0  0  0
  160.2310  206.0620  145.8370 C   0  0  0  0  0  3  0  0  0  0  0  0
  162.5690  205.4950  146.3800 C   0  0  0  0  0  0  0  0  0  0  0  0
  161.3040  206.9510  147.8850 C   0  0  2  0  0  3  0  0  0  0  0  0
  162.9420  204.0250  144.6120 C   0  0  0  0  0  2  0  0  0  0  0  0
  1 15  1  0  0  0  0
  3  7  1  6  0  0  0
  3  9  1  0  0  0  0
  3 19  1  0  0  0  0
  5  6  1  0  0  0  0
  5  2  1  0  0  0  0
  6 13  2  0  0  0  0
  6  8  2  0  0  0  0
  9  1  1  0  0  0  0
 10  6  1  0  0  0  0
 11 17  1  0  0  0  0
 11 10  2  0  0  0  0
 12  2  1  0  0  0  0
 14  9  2  0  0  0  0
 15 16  1  0  0  0  0
 18 16  1  0  0  0  0
 18  4  2  0  0  0  0
 19 12  1  1  0  0  0
 19 18  1  0  0  0  0
 20  7  2  0  0  0  0
 20 17  1  0  0  0  0
 21 28  1  0  0  0  0
 22 26  1  1  0  0  0
 22 27  1  0  0  0  0
 23 27  1  0  0  0  0
 24 29  1  0  0  0  0
 24 22  1  0  0  0  0
 25 28  1  0  0  0  0
 26 21  2  0  0  0  0
 27 25  2  0  0  0  0
 28 20  1  1  0  0  0
 29 23  1  0  0  0  0
M  END
>  <MODEL>
6

>  <REMARK>
 VINA RESULT:      -5.6      2.847      4.899
  Name = 
  1 active torsions:
  status: ('A' for Active; 'I' for Inactive)
    1  A    between atoms: C_21  and  C_29
                            x       y       z     vdW  Elec       q    Type
                         _______ _______ _______ _____ _____    ______ ____

>  <TORSDO>
F 1

$$$$
