=
 OpenBabel11072415083D

 39 43  0  0  1  0  0  0  0  0999 V2000
  162.1930  206.2520  148.8170 C   0  0  1  0  0  3  0  0  0  0  0  0
  162.1050  206.1040  145.1560 O   0  0  0  0  0  0  0  0  0  0  0  0
  162.3040  205.7320  146.3420 C   0  0  0  0  0  0  0  0  0  0  0  0
  162.1790  207.5970  149.6030 C   0  0  1  0  0  3  0  0  0  0  0  0
  161.9820  209.8500  148.6740 O   0  0  0  0  0  0  0  0  0  0  0  0
  162.7000  204.3270  146.6340 C   0  0  0  0  0  2  0  0  0  0  0  0
  160.9920  203.9710  148.5220 C   0  0  0  0  0  0  0  0  0  0  0  0
  161.6820  203.5700  147.4400 C   0  0  0  0  0  3  0  0  0  0  0  0
  160.9550  205.3850  149.0590 C   0  0  0  0  0  2  0  0  0  0  0  0
  162.0540  208.6040  148.5070 C   0  0  0  0  0  0  0  0  0  0  0  0
  162.0800  208.0080  147.2690 O   0  0  0  0  0  0  0  0  0  0  0  0
  162.1990  206.6550  147.4190 N   0  0  0  0  0  0  0  0  0  0  0  0
  160.1260  203.0000  149.1160 N   0  0  0  0  0  2  0  0  0  0  0  0
  160.6790  201.6530  150.0590 S   0  0  0  0  0  0  0  0  0  0  0  0
  161.6280  200.8340  149.2310 O   0  0  0  0  0  0  0  0  0  0  0  0
  159.5070  200.8000  150.4540 O   0  0  0  0  0  0  0  0  0  0  0  0
  161.5290  202.2160  151.5200 C   0  0  0  0  0  2  0  0  0  0  0  0
  160.6440  203.1810  152.2960 C   0  0  0  0  0  2  0  0  0  0  0  0
  162.5380  204.5760  151.8380 O   0  0  0  0  0  1  0  0  0  0  0  0
  161.1690  205.1400  153.5770 O   0  0  0  0  0  1  0  0  0  0  0  0
  161.2210  204.5900  152.2960 C   0  0  0  0  0  3  0  0  0  0  0  0
  161.0380  207.7390  150.6090 C   0  0  0  0  0  2  0  0  0  0  0  0
  160.4000  208.4780  152.8840 C   0  0  0  0  0  2  0  0  0  0  0  0
  161.5630  208.2570  151.9360 C   0  0  2  0  0  3  0  0  0  0  0  0
  162.2410  209.6040  151.7380 C   0  0  0  0  0  2  0  0  0  0  0  0
  161.6410  210.5470  152.7590 C   0  0  0  0  0  2  0  0  0  0  0  0
  160.2740  209.9830  153.0620 C   0  0  2  0  0  3  0  0  0  0  0  0
  162.0720  208.3900  157.0310 C   0  0  0  0  0  2  0  0  0  0  0  0
  163.0210  210.5820  156.9540 O   0  0  0  0  0  0  0  0  0  0  0  0
  159.7800  210.4250  154.4500 C   0  0  2  0  0  3  0  0  0  0  0  0
  160.7170  210.4390  156.2740 C   0  0  2  0  0  3  0  0  0  0  0  0
  160.0980  208.0430  155.5930 C   0  0  0  0  0  3  0  0  0  0  0  0
  160.7190  211.4010  155.1240 C   0  0  2  0  0  3  0  0  0  0  0  0
  162.0260  209.8470  156.7220 C   0  0  0  0  0  0  0  0  0  0  0  0
  161.1370  207.5500  156.5310 C   0  0  0  0  0  3  0  0  0  0  0  0
  160.0010  209.3630  155.5060 C   0  0  2  0  0  3  0  0  0  0  0  0
  159.1330  213.2740  154.6030 O   0  0  0  0  0  0  0  0  0  0  0  0
  160.2570  213.2270  156.5970 O   0  0  0  0  0  1  0  0  0  0  0  0
  160.0090  212.6670  155.4980 C   0  0  0  0  0  0  0  0  0  0  0  0
  1  9  1  6  0  0  0
  1  4  1  0  0  0  0
  2  3  2  0  0  0  0
  3  6  1  0  0  0  0
  3 12  1  0  0  0  0
  4 22  1  1  0  0  0
  6  8  1  0  0  0  0
  7  9  1  0  0  0  0
  7 13  1  0  0  0  0
  8  7  2  0  0  0  0
 10  5  2  0  0  0  0
 10  4  1  0  0  0  0
 11 12  1  0  0  0  0
 11 10  1  0  0  0  0
 12  1  1  0  0  0  0
 13 14  1  0  0  0  0
 14 16  2  0  0  0  0
 14 17  1  0  0  0  0
 15 14  2  0  0  0  0
 17 18  1  0  0  0  0
 18 21  1  0  0  0  0
 19 21  1  0  0  0  0
 21 20  1  0  0  0  0
 23 27  1  0  0  0  0
 24 22  1  6  0  0  0
 24 23  1  0  0  0  0
 25 24  1  0  0  0  0
 25 26  1  0  0  0  0
 27 26  1  1  0  0  0
 30 27  1  6  0  0  0
 30 33  1  0  0  0  0
 30 36  1  0  0  0  0
 31 34  1  6  0  0  0
 32 35  2  0  0  0  0
 33 39  1  1  0  0  0
 33 31  1  0  0  0  0
 34 29  2  0  0  0  0
 34 28  1  0  0  0  0
 35 28  1  0  0  0  0
 36 32  1  6  0  0  0
 36 31  1  0  0  0  0
 37 39  2  0  0  0  0
 39 38  1  0  0  0  0
M  END
>  <MODEL>
1

>  <REMARK>
 VINA RESULT:      -7.8      0.000      0.000
  Name = 
  9 active torsions:
  status: ('A' for Active; 'I' for Inactive)
    1  A    between atoms: S_7  and  N_23
    2  A    between atoms: S_7  and  C_31
    3  A    between atoms: C_9  and  C_28
    4  A    between atoms: C_10  and  C_39
    5  A    between atoms: C_14  and  C_28
    6  A    between atoms: C_17  and  C_22
    7  A    between atoms: C_17  and  C_31
    8  A    between atoms: C_20  and  C_36
    9  A    between atoms: C_21  and  N_23
                            x       y       z     vdW  Elec       q    Type
                         _______ _______ _______ _____ _____    ______ ____

>  <TORSDO>
F 9

$$$$
=
 OpenBabel11072415083D

 39 43  0  0  1  0  0  0  0  0999 V2000
  160.7460  206.1780  151.1930 C   0  0  1  0  0  3  0  0  0  0  0  0
  161.7320  202.6880  151.7260 O   0  0  0  0  0  0  0  0  0  0  0  0
  161.1760  203.6830  151.1910 C   0  0  0  0  0  0  0  0  0  0  0  0
  160.7980  207.2470  152.3260 C   0  0  1  0  0  3  0  0  0  0  0  0
  161.6200  206.9430  154.6080 O   0  0  0  0  0  0  0  0  0  0  0  0
  160.4760  203.5430  149.8840 C   0  0  0  0  0  2  0  0  0  0  0  0
  161.5600  205.6050  148.7960 C   0  0  0  0  0  0  0  0  0  0  0  0
  161.1070  204.3400  148.7760 C   0  0  0  0  0  3  0  0  0  0  0  0
  161.7080  206.4590  150.0370 C   0  0  0  0  0  2  0  0  0  0  0  0
  161.3730  206.4730  153.4660 C   0  0  0  0  0  0  0  0  0  0  0  0
  161.5570  205.1510  153.1380 O   0  0  0  0  0  0  0  0  0  0  0  0
  161.1660  204.9460  151.8440 N   0  0  0  0  0  0  0  0  0  0  0  0
  162.0610  206.1190  147.5590 N   0  0  0  0  0  2  0  0  0  0  0  0
  161.6670  205.4600  146.0030 S   0  0  0  0  0  0  0  0  0  0  0  0
  162.6410  205.9880  144.9880 O   0  0  0  0  0  0  0  0  0  0  0  0
  160.2770  205.8780  145.6170 O   0  0  0  0  0  0  0  0  0  0  0  0
  161.7710  203.6820  146.0310 C   0  0  0  0  0  2  0  0  0  0  0  0
  160.7010  203.0850  145.1280 C   0  0  0  0  0  2  0  0  0  0  0  0
  160.9620  201.3290  146.7380 O   0  0  0  0  0  1  0  0  0  0  0  0
  160.0680  200.8110  144.7010 O   0  0  0  0  0  1  0  0  0  0  0  0
  160.1520  201.7840  145.6970 C   0  0  0  0  0  3  0  0  0  0  0  0
  161.6540  208.4730  152.0100 C   0  0  0  0  0  2  0  0  0  0  0  0
  159.9060  209.5730  153.3760 C   0  0  0  0  0  2  0  0  0  0  0  0
  161.3790  209.5820  153.0100 C   0  0  2  0  0  3  0  0  0  0  0  0
  161.6760  210.9350  152.3820 C   0  0  0  0  0  2  0  0  0  0  0  0
  160.4560  211.8000  152.6150 C   0  0  0  0  0  2  0  0  0  0  0  0
  159.3080  210.8320  152.7650 C   0  0  2  0  0  3  0  0  0  0  0  0
  159.7950  212.3960  157.1050 C   0  0  0  0  0  2  0  0  0  0  0  0
  159.7050  214.4530  155.8920 O   0  0  0  0  0  0  0  0  0  0  0  0
  158.1550  211.4490  153.5740 C   0  0  2  0  0  3  0  0  0  0  0  0
  158.1640  212.7590  155.1520 C   0  0  2  0  0  3  0  0  0  0  0  0
  158.9180  210.4260  155.9100 C   0  0  0  0  0  3  0  0  0  0  0  0
  158.2450  212.9570  153.6680 C   0  0  2  0  0  3  0  0  0  0  0  0
  159.2890  213.2720  156.0100 C   0  0  0  0  0  0  0  0  0  0  0  0
  159.5810  211.0620  157.0750 C   0  0  0  0  0  3  0  0  0  0  0  0
  158.3350  211.2680  155.0660 C   0  0  2  0  0  3  0  0  0  0  0  0
  156.9030  214.0080  151.8270 O   0  0  0  0  0  0  0  0  0  0  0  0
  156.0490  213.8610  153.9450 O   0  0  0  0  0  1  0  0  0  0  0  0
  156.9960  213.6080  153.1560 C   0  0  0  0  0  0  0  0  0  0  0  0
  1  9  1  6  0  0  0
  1 12  1  0  0  0  0
  1  4  1  0  0  0  0
  3  2  2  0  0  0  0
  3 12  1  0  0  0  0
  4 22  1  6  0  0  0
  4 10  1  0  0  0  0
  6  3  1  0  0  0  0
  7  9  1  0  0  0  0
  8  7  2  0  0  0  0
  8  6  1  0  0  0  0
 10  5  2  0  0  0  0
 11 10  1  0  0  0  0
 12 11  1  0  0  0  0
 13  7  1  0  0  0  0
 14 17  1  0  0  0  0
 14 13  1  0  0  0  0
 15 14  2  0  0  0  0
 16 14  2  0  0  0  0
 18 21  1  0  0  0  0
 18 17  1  0  0  0  0
 20 21  1  0  0  0  0
 21 19  1  0  0  0  0
 24 22  1  6  0  0  0
 24 23  1  0  0  0  0
 25 26  1  0  0  0  0
 25 24  1  0  0  0  0
 27 26  1  1  0  0  0
 27 23  1  0  0  0  0
 29 34  2  0  0  0  0
 30 27  1  6  0  0  0
 30 33  1  0  0  0  0
 30 36  1  0  0  0  0
 31 34  1  1  0  0  0
 32 35  2  0  0  0  0
 33 39  1  6  0  0  0
 33 31  1  0  0  0  0
 34 28  1  0  0  0  0
 35 28  1  0  0  0  0
 36 31  1  0  0  0  0
 36 32  1  6  0  0  0
 37 39  2  0  0  0  0
 39 38  1  0  0  0  0
M  END
>  <MODEL>
2

>  <REMARK>
 VINA RESULT:      -7.4      2.331      4.741
  Name = 
  9 active torsions:
  status: ('A' for Active; 'I' for Inactive)
    1  A    between atoms: S_7  and  N_23
    2  A    between atoms: S_7  and  C_31
    3  A    between atoms: C_9  and  C_28
    4  A    between atoms: C_10  and  C_39
    5  A    between atoms: C_14  and  C_28
    6  A    between atoms: C_17  and  C_22
    7  A    between atoms: C_17  and  C_31
    8  A    between atoms: C_20  and  C_36
    9  A    between atoms: C_21  and  N_23
                            x       y       z     vdW  Elec       q    Type
                         _______ _______ _______ _____ _____    ______ ____

>  <TORSDO>
F 9

$$$$
=
 OpenBabel11072415083D

 39 43  0  0  1  0  0  0  0  0999 V2000
  161.9930  206.1710  148.5800 C   0  0  1  0  0  3  0  0  0  0  0  0
  161.3310  206.0260  144.9780 O   0  0  0  0  0  0  0  0  0  0  0  0
  161.7220  205.6560  146.1160 C   0  0  0  0  0  0  0  0  0  0  0  0
  162.0770  207.5150  149.3640 C   0  0  1  0  0  3  0  0  0  0  0  0
  161.6920  209.7640  148.4870 O   0  0  0  0  0  0  0  0  0  0  0  0
  162.1870  204.2590  146.3360 C   0  0  0  0  0  2  0  0  0  0  0  0
  160.8050  203.8670  148.4680 C   0  0  0  0  0  0  0  0  0  0  0  0
  161.3230  203.4810  147.2890 C   0  0  0  0  0  3  0  0  0  0  0  0
  160.8260  205.2800  149.0100 C   0  0  0  0  0  2  0  0  0  0  0  0
  161.7610  208.5200  148.3060 C   0  0  0  0  0  0  0  0  0  0  0  0
  161.6020  207.9270  147.0760 O   0  0  0  0  0  0  0  0  0  0  0  0
  161.7710  206.5750  147.2000 N   0  0  0  0  0  0  0  0  0  0  0  0
  160.0620  202.8790  149.1880 N   0  0  0  0  0  2  0  0  0  0  0  0
  160.7870  201.5840  150.0870 S   0  0  0  0  0  0  0  0  0  0  0  0
  161.8120  200.9040  149.2240 O   0  0  0  0  0  0  0  0  0  0  0  0
  159.7310  200.5880  150.4750 O   0  0  0  0  0  0  0  0  0  0  0  0
  161.5880  202.2070  151.5510 C   0  0  0  0  0  2  0  0  0  0  0  0
  160.6580  203.1620  152.2850 C   0  0  0  0  0  2  0  0  0  0  0  0
  162.5070  204.6000  151.7810 O   0  0  0  0  0  1  0  0  0  0  0  0
  161.2330  205.0730  153.6160 O   0  0  0  0  0  1  0  0  0  0  0  0
  161.2170  204.5770  152.3120 C   0  0  0  0  0  3  0  0  0  0  0  0
  161.1060  207.6330  150.5380 C   0  0  0  0  0  2  0  0  0  0  0  0
  160.8290  208.4280  152.8660 C   0  0  0  0  0  2  0  0  0  0  0  0
  161.8390  208.0870  151.7870 C   0  0  2  0  0  3  0  0  0  0  0  0
  162.6290  209.3550  151.4970 C   0  0  0  0  0  2  0  0  0  0  0  0
  162.2600  210.3530  152.5740 C   0  0  0  0  0  2  0  0  0  0  0  0
  160.8870  209.9370  153.0440 C   0  0  2  0  0  3  0  0  0  0  0  0
  157.1550  212.4310  154.2160 C   0  0  0  0  0  3  0  0  0  0  0  0
  156.5650  210.2930  155.1050 O   0  0  0  0  0  0  0  0  0  0  0  0
  160.6130  210.4240  154.4770 C   0  0  2  0  0  3  0  0  0  0  0  0
  158.8630  210.9340  155.4170 C   0  0  2  0  0  3  0  0  0  0  0  0
  159.5540  212.7550  153.7450 C   0  0  0  0  0  2  0  0  0  0  0  0
  159.5410  209.6180  155.1770 C   0  0  2  0  0  3  0  0  0  0  0  0
  157.4710  211.1370  154.8820 C   0  0  0  0  0  0  0  0  0  0  0  0
  158.1420  213.2100  153.7190 C   0  0  0  0  0  3  0  0  0  0  0  0
  159.7870  211.6930  154.5060 C   0  0  2  0  0  3  0  0  0  0  0  0
  159.7330  207.7400  156.8280 O   0  0  0  0  0  0  0  0  0  0  0  0
  160.7040  209.7670  157.2610 O   0  0  0  0  0  1  0  0  0  0  0  0
  160.0480  209.0450  156.4650 C   0  0  0  0  0  0  0  0  0  0  0  0
  1  9  1  1  0  0  0
  1  4  1  0  0  0  0
  2  3  2  0  0  0  0
  3  6  1  0  0  0  0
  3 12  1  0  0  0  0
  4 22  1  1  0  0  0
  6  8  1  0  0  0  0
  7  9  1  0  0  0  0
  7 13  1  0  0  0  0
  8  7  2  0  0  0  0
 10  5  2  0  0  0  0
 10  4  1  0  0  0  0
 11 12  1  0  0  0  0
 11 10  1  0  0  0  0
 12  1  1  0  0  0  0
 13 14  1  0  0  0  0
 14 16  2  0  0  0  0
 14 17  1  0  0  0  0
 15 14  2  0  0  0  0
 17 18  1  0  0  0  0
 18 21  1  0  0  0  0
 19 21  1  0  0  0  0
 21 20  1  0  0  0  0
 23 27  1  0  0  0  0
 24 22  1  6  0  0  0
 24 23  1  0  0  0  0
 25 24  1  0  0  0  0
 25 26  1  0  0  0  0
 27 26  1  1  0  0  0
 28 34  1  0  0  0  0
 30 27  1  6  0  0  0
 30 36  1  0  0  0  0
 30 33  1  0  0  0  0
 31 34  1  6  0  0  0
 33 31  1  0  0  0  0
 33 39  1  1  0  0  0
 34 29  2  0  0  0  0
 35 32  1  0  0  0  0
 35 28  2  0  0  0  0
 36 32  1  6  0  0  0
 36 31  1  0  0  0  0
 39 37  2  0  0  0  0
 39 38  1  0  0  0  0
M  END
>  <MODEL>
3

>  <REMARK>
 VINA RESULT:      -7.1      1.401      2.666
  Name = 
  9 active torsions:
  status: ('A' for Active; 'I' for Inactive)
    1  A    between atoms: S_7  and  N_23
    2  A    between atoms: S_7  and  C_31
    3  A    between atoms: C_9  and  C_28
    4  A    between atoms: C_10  and  C_39
    5  A    between atoms: C_14  and  C_28
    6  A    between atoms: C_17  and  C_22
    7  A    between atoms: C_17  and  C_31
    8  A    between atoms: C_20  and  C_36
    9  A    between atoms: C_21  and  N_23
                            x       y       z     vdW  Elec       q    Type
                         _______ _______ _______ _____ _____    ______ ____

>  <TORSDO>
F 9

$$$$
=
 OpenBabel11072415083D

 39 43  0  0  1  0  0  0  0  0999 V2000
  160.5170  204.0450  150.0610 C   0  0  1  0  0  3  0  0  0  0  0  0
  161.3080  200.5540  150.8520 O   0  0  0  0  0  0  0  0  0  0  0  0
  160.8090  201.5360  150.2420 C   0  0  0  0  0  0  0  0  0  0  0  0
  160.6230  205.1880  151.1140 C   0  0  1  0  0  3  0  0  0  0  0  0
  161.4170  205.0060  153.4190 O   0  0  0  0  0  0  0  0  0  0  0  0
  160.1090  201.3400  148.9430 C   0  0  0  0  0  2  0  0  0  0  0  0
  161.3090  203.2560  147.7190 C   0  0  0  0  0  0  0  0  0  0  0  0
  160.7870  202.0190  147.7860 C   0  0  0  0  0  3  0  0  0  0  0  0
  161.4990  204.1880  148.8960 C   0  0  0  0  0  2  0  0  0  0  0  0
  161.1500  204.4680  152.3120 C   0  0  0  0  0  0  0  0  0  0  0  0
  161.2620  203.1180  152.0820 O   0  0  0  0  0  0  0  0  0  0  0  0
  160.8660  202.8420  150.8030 N   0  0  0  0  0  0  0  0  0  0  0  0
  161.8430  203.6510  146.4520 N   0  0  0  0  0  2  0  0  0  0  0  0
  161.3640  205.0860  145.6010 S   0  0  0  0  0  0  0  0  0  0  0  0
  160.5530  204.6930  144.3990 O   0  0  0  0  0  0  0  0  0  0  0  0
  162.5870  205.8320  145.1480 O   0  0  0  0  0  0  0  0  0  0  0  0
  160.3760  206.1350  146.6460 C   0  0  0  0  0  2  0  0  0  0  0  0
  161.0030  207.5190  146.7360 C   0  0  0  0  0  2  0  0  0  0  0  0
  161.6330  209.1020  148.4210 O   0  0  0  0  0  1  0  0  0  0  0  0
  162.9790  207.2900  148.0760 O   0  0  0  0  0  1  0  0  0  0  0  0
  161.6610  207.7470  148.0900 C   0  0  0  0  0  3  0  0  0  0  0  0
  161.5460  206.3390  150.7180 C   0  0  0  0  0  2  0  0  0  0  0  0
  160.6650  207.6280  152.6390 C   0  0  0  0  0  2  0  0  0  0  0  0
  161.9260  207.1580  151.9400 C   0  0  2  0  0  3  0  0  0  0  0  0
  162.6930  208.4010  151.5160 C   0  0  0  0  0  2  0  0  0  0  0  0
  162.0190  209.5780  152.1880 C   0  0  0  0  0  2  0  0  0  0  0  0
  160.5970  209.1330  152.4290 C   0  0  2  0  0  3  0  0  0  0  0  0
  162.1250  208.9070  156.8040 C   0  0  0  0  0  2  0  0  0  0  0  0
  162.9420  211.0560  156.1520 O   0  0  0  0  0  0  0  0  0  0  0  0
  159.9540  209.9130  153.5890 C   0  0  2  0  0  3  0  0  0  0  0  0
  160.7210  210.5300  155.3880 C   0  0  2  0  0  3  0  0  0  0  0  0
  160.3120  207.9960  155.4010 C   0  0  0  0  0  3  0  0  0  0  0  0
  160.7680  211.1170  154.0100 C   0  0  2  0  0  3  0  0  0  0  0  0
  162.0190  210.2050  156.0790 C   0  0  0  0  0  0  0  0  0  0  0  0
  161.2910  207.8840  156.5110 C   0  0  0  0  0  3  0  0  0  0  0  0
  160.1440  209.2220  154.9230 C   0  0  2  0  0  3  0  0  0  0  0  0
  159.5550  213.0160  155.1130 O   0  0  0  0  0  1  0  0  0  0  0  0
  159.5610  212.8120  152.8330 O   0  0  0  0  0  0  0  0  0  0  0  0
  159.9520  212.3730  153.9450 C   0  0  0  0  0  0  0  0  0  0  0  0
  1  9  1  6  0  0  0
  1 12  1  0  0  0  0
  1  4  1  0  0  0  0
  3 12  1  0  0  0  0
  3  2  2  0  0  0  0
  4 22  1  6  0  0  0
  4 10  1  0  0  0  0
  6  3  1  0  0  0  0
  7  8  2  0  0  0  0
  7  9  1  0  0  0  0
  8  6  1  0  0  0  0
 10  5  2  0  0  0  0
 11 10  1  0  0  0  0
 12 11  1  0  0  0  0
 13  7  1  0  0  0  0
 14 13  1  0  0  0  0
 14 17  1  0  0  0  0
 15 14  2  0  0  0  0
 16 14  2  0  0  0  0
 17 18  1  0  0  0  0
 18 21  1  0  0  0  0
 20 21  1  0  0  0  0
 21 19  1  0  0  0  0
 24 22  1  6  0  0  0
 24 23  1  0  0  0  0
 25 24  1  0  0  0  0
 25 26  1  0  0  0  0
 27 26  1  1  0  0  0
 27 23  1  0  0  0  0
 30 27  1  6  0  0  0
 30 33  1  0  0  0  0
 30 36  1  0  0  0  0
 31 34  1  6  0  0  0
 32 35  2  0  0  0  0
 33 39  1  1  0  0  0
 33 31  1  0  0  0  0
 34 29  2  0  0  0  0
 34 28  1  0  0  0  0
 35 28  1  0  0  0  0
 36 31  1  0  0  0  0
 36 32  1  6  0  0  0
 38 39  2  0  0  0  0
 39 37  1  0  0  0  0
M  END
>  <MODEL>
4

>  <REMARK>
 VINA RESULT:      -6.9      1.664      4.134
  Name = 
  9 active torsions:
  status: ('A' for Active; 'I' for Inactive)
    1  A    between atoms: S_7  and  N_23
    2  A    between atoms: S_7  and  C_31
    3  A    between atoms: C_9  and  C_28
    4  A    between atoms: C_10  and  C_39
    5  A    between atoms: C_14  and  C_28
    6  A    between atoms: C_17  and  C_22
    7  A    between atoms: C_17  and  C_31
    8  A    between atoms: C_20  and  C_36
    9  A    between atoms: C_21  and  N_23
                            x       y       z     vdW  Elec       q    Type
                         _______ _______ _______ _____ _____    ______ ____

>  <TORSDO>
F 9

$$$$
=
 OpenBabel11072415083D

 39 43  0  0  1  0  0  0  0  0999 V2000
  160.6770  202.7110  148.6910 C   0  0  1  0  0  3  0  0  0  0  0  0
  161.7430  199.4520  147.3950 O   0  0  0  0  0  0  0  0  0  0  0  0
  161.1490  200.5620  147.4390 C   0  0  0  0  0  0  0  0  0  0  0  0
  160.7560  203.0790  150.2030 C   0  0  1  0  0  3  0  0  0  0  0  0
  161.6720  201.7130  152.0110 O   0  0  0  0  0  0  0  0  0  0  0  0
  160.4010  201.0640  146.2530 C   0  0  0  0  0  2  0  0  0  0  0  0
  161.4070  203.4300  146.3060 C   0  0  0  0  0  0  0  0  0  0  0  0
  160.9740  202.3260  145.6720 C   0  0  0  0  0  3  0  0  0  0  0  0
  161.5890  203.5610  147.8030 C   0  0  0  0  0  2  0  0  0  0  0  0
  161.3880  201.8620  150.7930 C   0  0  0  0  0  0  0  0  0  0  0  0
  161.5820  200.8840  149.8470 O   0  0  0  0  0  0  0  0  0  0  0  0
  161.1430  201.3340  148.6330 N   0  0  0  0  0  0  0  0  0  0  0  0
  161.8500  204.5060  145.4750 N   0  0  0  0  0  2  0  0  0  0  0  0
  160.8240  205.7920  144.9210 S   0  0  0  0  0  0  0  0  0  0  0  0
  159.4040  205.3030  144.8860 O   0  0  0  0  0  0  0  0  0  0  0  0
  161.2380  206.2030  143.5360 O   0  0  0  0  0  0  0  0  0  0  0  0
  160.9260  207.1920  146.0160 C   0  0  0  0  0  2  0  0  0  0  0  0
  160.6240  206.7580  147.4440 C   0  0  0  0  0  2  0  0  0  0  0  0
  161.5850  208.5790  148.6690 O   0  0  0  0  0  1  0  0  0  0  0  0
  162.9740  206.9450  147.8840 O   0  0  0  0  0  1  0  0  0  0  0  0
  161.7090  207.2150  148.4080 C   0  0  0  0  0  3  0  0  0  0  0  0
  161.5780  204.3290  150.5150 C   0  0  0  0  0  2  0  0  0  0  0  0
  160.4100  206.2350  151.5800 C   0  0  0  0  0  2  0  0  0  0  0  0
  161.1420  204.9310  151.8390 C   0  0  2  0  0  3  0  0  0  0  0  0
  162.3610  205.2630  152.6870 C   0  0  0  0  0  2  0  0  0  0  0  0
  162.2010  206.7000  153.1350 C   0  0  0  0  0  2  0  0  0  0  0  0
  161.3190  207.3420  152.0920 C   0  0  2  0  0  3  0  0  0  0  0  0
  161.6430  208.6840  156.5220 C   0  0  0  0  0  2  0  0  0  0  0  0
  163.0070  210.3290  155.4520 O   0  0  0  0  0  0  0  0  0  0  0  0
  160.5790  208.5650  152.6600 C   0  0  2  0  0  3  0  0  0  0  0  0
  160.9850  209.7560  154.2800 C   0  0  2  0  0  3  0  0  0  0  0  0
  160.0890  207.4730  155.0380 C   0  0  0  0  0  3  0  0  0  0  0  0
  161.4870  209.7580  152.8670 C   0  0  2  0  0  3  0  0  0  0  0  0
  161.9800  209.6040  155.3990 C   0  0  0  0  0  0  0  0  0  0  0  0
  160.7210  207.7090  156.3600 C   0  0  0  0  0  3  0  0  0  0  0  0
  160.2910  208.4290  154.1410 C   0  0  2  0  0  3  0  0  0  0  0  0
  161.2910  211.1490  150.7890 O   0  0  0  0  0  0  0  0  0  0  0  0
  160.3250  211.8440  152.7440 O   0  0  0  0  0  1  0  0  0  0  0  0
  160.9790  210.9600  152.1310 C   0  0  0  0  0  0  0  0  0  0  0  0
  1  9  1  6  0  0  0
  1  4  1  0  0  0  0
  2  3  2  0  0  0  0
  3 12  1  0  0  0  0
  4 22  1  6  0  0  0
  4 10  1  0  0  0  0
  6  3  1  0  0  0  0
  7  9  1  0  0  0  0
  8  6  1  0  0  0  0
  8  7  2  0  0  0  0
 10  5  2  0  0  0  0
 11 10  1  0  0  0  0
 12  1  1  0  0  0  0
 12 11  1  0  0  0  0
 13  7  1  0  0  0  0
 14 13  1  0  0  0  0
 14 17  1  0  0  0  0
 15 14  2  0  0  0  0
 16 14  2  0  0  0  0
 17 18  1  0  0  0  0
 18 21  1  0  0  0  0
 20 21  1  0  0  0  0
 21 19  1  0  0  0  0
 23 24  1  0  0  0  0
 24 22  1  6  0  0  0
 24 25  1  0  0  0  0
 25 26  1  0  0  0  0
 27 23  1  1  0  0  0
 27 26  1  0  0  0  0
 30 27  1  1  0  0  0
 30 33  1  0  0  0  0
 30 36  1  0  0  0  0
 31 34  1  1  0  0  0
 32 35  2  0  0  0  0
 33 39  1  6  0  0  0
 33 31  1  0  0  0  0
 34 29  2  0  0  0  0
 34 28  1  0  0  0  0
 35 28  1  0  0  0  0
 36 31  1  0  0  0  0
 36 32  1  1  0  0  0
 37 39  2  0  0  0  0
 39 38  1  0  0  0  0
M  END
>  <MODEL>
5

>  <REMARK>
 VINA RESULT:      -6.5      2.099      4.775
  Name = 
  9 active torsions:
  status: ('A' for Active; 'I' for Inactive)
    1  A    between atoms: S_7  and  N_23
    2  A    between atoms: S_7  and  C_31
    3  A    between atoms: C_9  and  C_28
    4  A    between atoms: C_10  and  C_39
    5  A    between atoms: C_14  and  C_28
    6  A    between atoms: C_17  and  C_22
    7  A    between atoms: C_17  and  C_31
    8  A    between atoms: C_20  and  C_36
    9  A    between atoms: C_21  and  N_23
                            x       y       z     vdW  Elec       q    Type
                         _______ _______ _______ _____ _____    ______ ____

>  <TORSDO>
F 9

$$$$
=
 OpenBabel11072415083D

 39 43  0  0  1  0  0  0  0  0999 V2000
  160.7130  207.5190  150.8370 C   0  0  1  0  0  3  0  0  0  0  0  0
  161.8180  204.3960  149.2670 O   0  0  0  0  0  0  0  0  0  0  0  0
  161.2930  205.5360  149.3730 C   0  0  0  0  0  0  0  0  0  0  0  0
  160.5190  207.6610  152.3760 C   0  0  1  0  0  3  0  0  0  0  0  0
  160.9860  205.9770  154.0860 O   0  0  0  0  0  0  0  0  0  0  0  0
  160.8190  206.2640  148.1640 C   0  0  0  0  0  2  0  0  0  0  0  0
  161.9310  208.5020  148.7670 C   0  0  0  0  0  0  0  0  0  0  0  0
  161.5670  207.5410  147.9000 C   0  0  0  0  0  3  0  0  0  0  0  0
  161.8280  208.4030  150.2730 C   0  0  0  0  0  2  0  0  0  0  0  0
  160.9530  206.3220  152.8760 C   0  0  0  0  0  0  0  0  0  0  0  0
  161.2690  205.4740  151.8410 O   0  0  0  0  0  0  0  0  0  0  0  0
  161.1010  206.1280  150.6510 N   0  0  0  0  0  0  0  0  0  0  0  0
  162.5890  209.6430  148.2080 N   0  0  0  0  0  2  0  0  0  0  0  0
  162.0140  211.2720  148.3710 S   0  0  0  0  0  0  0  0  0  0  0  0
  161.6560  211.5220  149.8080 O   0  0  0  0  0  0  0  0  0  0  0  0
  160.7910  211.4600  147.5180 O   0  0  0  0  0  0  0  0  0  0  0  0
  163.2710  212.4330  147.8790 C   0  0  0  0  0  2  0  0  0  0  0  0
  162.6860  213.8370  147.8160 C   0  0  0  0  0  2  0  0  0  0  0  0
  161.0260  214.3440  146.1650 O   0  0  0  0  0  1  0  0  0  0  0  0
  162.9680  213.3560  145.4830 O   0  0  0  0  0  1  0  0  0  0  0  0
  162.4010  214.2600  146.3820 C   0  0  0  0  0  3  0  0  0  0  0  0
  161.3360  208.7770  153.0240 C   0  0  0  0  0  2  0  0  0  0  0  0
  159.6540  210.5940  153.0680 C   0  0  0  0  0  2  0  0  0  0  0  0
  160.4530  209.6260  153.9210 C   0  0  2  0  0  3  0  0  0  0  0  0
  161.3120  210.4610  154.8600 C   0  0  0  0  0  2  0  0  0  0  0  0
  160.8290  211.8900  154.7350 C   0  0  0  0  0  2  0  0  0  0  0  0
  160.2090  211.9790  153.3620 C   0  0  2  0  0  3  0  0  0  0  0  0
  158.8230  213.9030  149.3740 C   0  0  0  0  0  2  0  0  0  0  0  0
  156.9250  212.5500  149.9060 O   0  0  0  0  0  0  0  0  0  0  0  0
  159.1730  213.1130  153.2870 C   0  0  2  0  0  3  0  0  0  0  0  0
  157.9200  213.6990  151.7720 C   0  0  2  0  0  3  0  0  0  0  0  0
  160.3410  214.3800  151.2580 C   0  0  0  0  0  3  0  0  0  0  0  0
  157.8130  212.6370  152.8250 C   0  0  2  0  0  3  0  0  0  0  0  0
  157.8530  213.2890  150.3250 C   0  0  0  0  0  0  0  0  0  0  0  0
  159.9730  214.4530  149.8220 C   0  0  0  0  0  3  0  0  0  0  0  0
  159.3650  213.9910  152.0680 C   0  0  2  0  0  3  0  0  0  0  0  0
  155.9430  214.1060  153.6240 O   0  0  0  0  0  0  0  0  0  0  0  0
  156.6250  212.3140  154.8740 O   0  0  0  0  0  1  0  0  0  0  0  0
  156.7480  212.9890  153.8190 C   0  0  0  0  0  0  0  0  0  0  0  0
  1  9  1  1  0  0  0
  1  4  1  0  0  0  0
  2  3  2  0  0  0  0
  3 12  1  0  0  0  0
  4 10  1  0  0  0  0
  4 22  1  1  0  0  0
  6  3  1  0  0  0  0
  7  9  1  0  0  0  0
  8  6  1  0  0  0  0
  8  7  2  0  0  0  0
 10  5  2  0  0  0  0
 11 10  1  0  0  0  0
 12  1  1  0  0  0  0
 12 11  1  0  0  0  0
 13 14  1  0  0  0  0
 13  7  1  0  0  0  0
 14 15  2  0  0  0  0
 16 14  2  0  0  0  0
 17 14  1  0  0  0  0
 18 17  1  0  0  0  0
 19 21  1  0  0  0  0
 20 21  1  0  0  0  0
 21 18  1  0  0  0  0
 23 24  1  0  0  0  0
 24 22  1  6  0  0  0
 24 25  1  0  0  0  0
 26 25  1  0  0  0  0
 27 23  1  1  0  0  0
 27 26  1  0  0  0  0
 28 35  1  0  0  0  0
 28 34  1  0  0  0  0
 29 34  2  0  0  0  0
 30 27  1  6  0  0  0
 31 34  1  6  0  0  0
 31 36  1  0  0  0  0
 31 33  1  0  0  0  0
 33 30  1  0  0  0  0
 33 39  1  1  0  0  0
 35 32  2  0  0  0  0
 36 32  1  6  0  0  0
 36 30  1  0  0  0  0
 37 39  2  0  0  0  0
 39 38  1  0  0  0  0
M  END
>  <MODEL>
6

>  <REMARK>
 VINA RESULT:      -6.5      3.579      6.891
  Name = 
  9 active torsions:
  status: ('A' for Active; 'I' for Inactive)
    1  A    between atoms: S_7  and  N_23
    2  A    between atoms: S_7  and  C_31
    3  A    between atoms: C_9  and  C_28
    4  A    between atoms: C_10  and  C_39
    5  A    between atoms: C_14  and  C_28
    6  A    between atoms: C_17  and  C_22
    7  A    between atoms: C_17  and  C_31
    8  A    between atoms: C_20  and  C_36
    9  A    between atoms: C_21  and  N_23
                            x       y       z     vdW  Elec       q    Type
                         _______ _______ _______ _____ _____    ______ ____

>  <TORSDO>
F 9

$$$$
=
 OpenBabel11072415083D

 39 43  0  0  1  0  0  0  0  0999 V2000
  160.6700  204.4900  149.6040 C   0  0  1  0  0  3  0  0  0  0  0  0
  161.4120  200.9510  150.2070 O   0  0  0  0  0  0  0  0  0  0  0  0
  160.9330  201.9720  149.6460 C   0  0  0  0  0  0  0  0  0  0  0  0
  160.7740  205.5710  150.7210 C   0  0  1  0  0  3  0  0  0  0  0  0
  161.5330  205.2500  153.0220 O   0  0  0  0  0  0  0  0  0  0  0  0
  160.2490  201.8580  148.3290 C   0  0  0  0  0  2  0  0  0  0  0  0
  161.4870  203.8250  147.2310 C   0  0  0  0  0  0  0  0  0  0  0  0
  160.9510  202.5930  147.2220 C   0  0  0  0  0  3  0  0  0  0  0  0
  161.6700  204.6870  148.4620 C   0  0  0  0  0  2  0  0  0  0  0  0
  161.2760  204.7790  151.8830 C   0  0  0  0  0  0  0  0  0  0  0  0
  161.3770  203.4420  151.5780 O   0  0  0  0  0  0  0  0  0  0  0  0
  160.9960  203.2430  150.2800 N   0  0  0  0  0  0  0  0  0  0  0  0
  162.0430  204.2850  145.9960 N   0  0  0  0  0  2  0  0  0  0  0  0
  161.1250  205.0730  144.7520 S   0  0  0  0  0  0  0  0  0  0  0  0
  160.3580  206.2130  145.3580 O   0  0  0  0  0  0  0  0  0  0  0  0
  160.1590  204.0960  144.1450 O   0  0  0  0  0  0  0  0  0  0  0  0
  162.2030  205.7120  143.4870 C   0  0  0  0  0  2  0  0  0  0  0  0
  161.4140  205.9640  142.2100 C   0  0  0  0  0  2  0  0  0  0  0  0
  161.4480  207.6770  140.5350 O   0  0  0  0  0  1  0  0  0  0  0  0
  162.7960  205.8560  140.2520 O   0  0  0  0  0  1  0  0  0  0  0  0
  162.2390  206.7300  141.1850 C   0  0  0  0  0  3  0  0  0  0  0  0
  161.7150  206.7320  150.4030 C   0  0  0  0  0  2  0  0  0  0  0  0
  160.7690  207.8320  152.4090 C   0  0  0  0  0  2  0  0  0  0  0  0
  162.0500  207.5030  151.6670 C   0  0  2  0  0  3  0  0  0  0  0  0
  162.7140  208.8250  151.3110 C   0  0  0  0  0  2  0  0  0  0  0  0
  161.9630  209.9040  152.0610 C   0  0  0  0  0  2  0  0  0  0  0  0
  160.5830  209.3370  152.2910 C   0  0  2  0  0  3  0  0  0  0  0  0
  162.0490  208.7630  156.6560 C   0  0  0  0  0  2  0  0  0  0  0  0
  162.8170  210.9820  156.2100 O   0  0  0  0  0  0  0  0  0  0  0  0
  159.9020  209.9940  153.5040 C   0  0  2  0  0  3  0  0  0  0  0  0
  160.6240  210.4690  155.3640 C   0  0  2  0  0  3  0  0  0  0  0  0
  160.2840  207.9340  155.1460 C   0  0  0  0  0  3  0  0  0  0  0  0
  160.6760  211.1770  154.0430 C   0  0  2  0  0  3  0  0  0  0  0  0
  161.9190  210.1170  156.0460 C   0  0  0  0  0  0  0  0  0  0  0  0
  161.2480  207.7490  156.2590 C   0  0  0  0  0  3  0  0  0  0  0  0
  160.0890  209.1930  154.7750 C   0  0  2  0  0  3  0  0  0  0  0  0
  159.6610  213.1230  155.2590 O   0  0  0  0  0  1  0  0  0  0  0  0
  159.2010  212.7720  153.0440 O   0  0  0  0  0  0  0  0  0  0  0  0
  159.8270  212.4120  154.0750 C   0  0  0  0  0  0  0  0  0  0  0  0
  1  9  1  6  0  0  0
  1 12  1  0  0  0  0
  1  4  1  0  0  0  0
  3  2  2  0  0  0  0
  3 12  1  0  0  0  0
  4 22  1  6  0  0  0
  4 10  1  0  0  0  0
  6  3  1  0  0  0  0
  7  9  1  0  0  0  0
  8  7  2  0  0  0  0
  8  6  1  0  0  0  0
 10  5  2  0  0  0  0
 11 10  1  0  0  0  0
 12 11  1  0  0  0  0
 13  7  1  0  0  0  0
 14 15  2  0  0  0  0
 14 13  1  0  0  0  0
 16 14  2  0  0  0  0
 17 14  1  0  0  0  0
 18 17  1  0  0  0  0
 19 21  1  0  0  0  0
 20 21  1  0  0  0  0
 21 18  1  0  0  0  0
 24 22  1  6  0  0  0
 24 23  1  0  0  0  0
 25 24  1  0  0  0  0
 25 26  1  0  0  0  0
 27 26  1  1  0  0  0
 27 23  1  0  0  0  0
 30 27  1  6  0  0  0
 30 33  1  0  0  0  0
 30 36  1  0  0  0  0
 31 34  1  6  0  0  0
 32 35  2  0  0  0  0
 33 39  1  1  0  0  0
 33 31  1  0  0  0  0
 34 29  2  0  0  0  0
 34 28  1  0  0  0  0
 35 28  1  0  0  0  0
 36 32  1  6  0  0  0
 36 31  1  0  0  0  0
 38 39  2  0  0  0  0
 39 37  1  0  0  0  0
M  END
>  <MODEL>
7

>  <REMARK>
 VINA RESULT:      -6.4      2.267      5.206
  Name = 
  9 active torsions:
  status: ('A' for Active; 'I' for Inactive)
    1  A    between atoms: S_7  and  N_23
    2  A    between atoms: S_7  and  C_31
    3  A    between atoms: C_9  and  C_28
    4  A    between atoms: C_10  and  C_39
    5  A    between atoms: C_14  and  C_28
    6  A    between atoms: C_17  and  C_22
    7  A    between atoms: C_17  and  C_31
    8  A    between atoms: C_20  and  C_36
    9  A    between atoms: C_21  and  N_23
                            x       y       z     vdW  Elec       q    Type
                         _______ _______ _______ _____ _____    ______ ____

>  <TORSDO>
F 9

$$$$
=
 OpenBabel11072415083D

 39 43  0  0  1  0  0  0  0  0999 V2000
  160.4920  210.1300  151.7720 C   0  0  1  0  0  3  0  0  0  0  0  0
  160.5340  213.6380  150.7120 O   0  0  0  0  0  0  0  0  0  0  0  0
  160.1420  212.5910  151.2900 C   0  0  0  0  0  0  0  0  0  0  0  0
  161.2510  209.0110  150.9990 C   0  0  1  0  0  3  0  0  0  0  0  0
  162.6990  209.2830  149.0480 O   0  0  0  0  0  0  0  0  0  0  0  0
  159.0180  212.6430  152.2650 C   0  0  0  0  0  2  0  0  0  0  0  0
  160.2000  211.2680  154.0870 C   0  0  0  0  0  0  0  0  0  0  0  0
  159.4200  212.2780  153.6660 C   0  0  0  0  0  3  0  0  0  0  0  0
  161.0210  210.3670  153.1880 C   0  0  0  0  0  2  0  0  0  0  0  0
  161.9380  209.7810  149.9200 C   0  0  0  0  0  0  0  0  0  0  0  0
  161.5990  211.1120  149.9550 O   0  0  0  0  0  0  0  0  0  0  0  0
  160.7340  211.3330  150.9900 N   0  0  0  0  0  0  0  0  0  0  0  0
  160.3590  211.1350  155.5020 N   0  0  0  0  0  2  0  0  0  0  0  0
  161.8700  210.7920  156.2820 S   0  0  0  0  0  0  0  0  0  0  0  0
  162.1760  211.8900  157.2610 O   0  0  0  0  0  0  0  0  0  0  0  0
  162.9640  210.7300  155.2540 O   0  0  0  0  0  0  0  0  0  0  0  0
  161.7860  209.2450  157.1600 C   0  0  0  0  0  2  0  0  0  0  0  0
  161.7970  208.0860  156.1740 C   0  0  0  0  0  2  0  0  0  0  0  0
  159.8050  206.9660  156.8940 O   0  0  0  0  0  1  0  0  0  0  0  0
  160.4000  206.8140  154.6950 O   0  0  0  0  0  1  0  0  0  0  0  0
  160.3850  207.6400  155.8200 C   0  0  0  0  0  3  0  0  0  0  0  0
  162.2590  208.2250  151.8370 C   0  0  0  0  0  2  0  0  0  0  0  0
  161.6390  206.6260  150.0510 C   0  0  0  0  0  2  0  0  0  0  0  0
  162.6680  206.9530  151.1160 C   0  0  2  0  0  3  0  0  0  0  0  0
  162.6910  205.7850  152.0910 C   0  0  0  0  0  2  0  0  0  0  0  0
  161.8740  204.6770  151.4610 C   0  0  0  0  0  2  0  0  0  0  0  0
  160.9150  205.3760  150.5280 C   0  0  2  0  0  3  0  0  0  0  0  0
  162.2240  205.8590  146.1030 C   0  0  0  0  0  2  0  0  0  0  0  0
  163.5490  203.9820  146.7630 O   0  0  0  0  0  0  0  0  0  0  0  0
  160.4460  204.4390  149.4020 C   0  0  2  0  0  3  0  0  0  0  0  0
  161.2880  203.9820  147.5890 C   0  0  2  0  0  3  0  0  0  0  0  0
  160.2860  206.3440  147.5490 C   0  0  0  0  0  3  0  0  0  0  0  0
  161.5120  203.4540  148.9740 C   0  0  2  0  0  3  0  0  0  0  0  0
  162.4510  204.5910  146.8520 C   0  0  0  0  0  0  0  0  0  0  0  0
  161.1790  206.6610  146.4070 C   0  0  0  0  0  3  0  0  0  0  0  0
  160.4280  205.1250  148.0510 C   0  0  2  0  0  3  0  0  0  0  0  0
  160.8540  201.2630  147.9440 O   0  0  0  0  0  0  0  0  0  0  0  0
  160.6900  201.5770  150.2060 O   0  0  0  0  0  1  0  0  0  0  0  0
  161.0210  202.0430  149.0840 C   0  0  0  0  0  0  0  0  0  0  0  0
  1  9  1  1  0  0  0
  2  3  2  0  0  0  0
  3  6  1  0  0  0  0
  4  1  1  0  0  0  0
  4 22  1  1  0  0  0
  5 10  2  0  0  0  0
  6  8  1  0  0  0  0
  7 13  1  0  0  0  0
  8  7  2  0  0  0  0
  9  7  1  0  0  0  0
 10 11  1  0  0  0  0
 10  4  1  0  0  0  0
 11 12  1  0  0  0  0
 12  3  1  0  0  0  0
 12  1  1  0  0  0  0
 13 14  1  0  0  0  0
 14 17  1  0  0  0  0
 14 15  2  0  0  0  0
 16 14  2  0  0  0  0
 18 17  1  0  0  0  0
 20 21  1  0  0  0  0
 21 18  1  0  0  0  0
 21 19  1  0  0  0  0
 23 24  1  0  0  0  0
 24 22  1  1  0  0  0
 24 25  1  0  0  0  0
 26 25  1  0  0  0  0
 27 23  1  6  0  0  0
 27 26  1  0  0  0  0
 28 35  1  0  0  0  0
 28 34  1  0  0  0  0
 29 34  2  0  0  0  0
 30 27  1  1  0  0  0
 31 34  1  1  0  0  0
 31 36  1  0  0  0  0
 31 33  1  0  0  0  0
 33 39  1  6  0  0  0
 33 30  1  0  0  0  0
 35 32  2  0  0  0  0
 36 32  1  1  0  0  0
 36 30  1  0  0  0  0
 37 39  2  0  0  0  0
 39 38  1  0  0  0  0
M  END
>  <MODEL>
8

>  <REMARK>
 VINA RESULT:      -6.3      3.072      8.626
  Name = 
  9 active torsions:
  status: ('A' for Active; 'I' for Inactive)
    1  A    between atoms: S_7  and  N_23
    2  A    between atoms: S_7  and  C_31
    3  A    between atoms: C_9  and  C_28
    4  A    between atoms: C_10  and  C_39
    5  A    between atoms: C_14  and  C_28
    6  A    between atoms: C_17  and  C_22
    7  A    between atoms: C_17  and  C_31
    8  A    between atoms: C_20  and  C_36
    9  A    between atoms: C_21  and  N_23
                            x       y       z     vdW  Elec       q    Type
                         _______ _______ _______ _____ _____    ______ ____

>  <TORSDO>
F 9

$$$$
=
 OpenBabel11072415083D

 39 43  0  0  1  0  0  0  0  0999 V2000
  162.2410  206.5520  149.2400 C   0  0  1  0  0  3  0  0  0  0  0  0
  162.1540  206.2180  145.5910 O   0  0  0  0  0  0  0  0  0  0  0  0
  162.3660  205.9120  146.7940 C   0  0  0  0  0  0  0  0  0  0  0  0
  162.1860  207.9340  149.9580 C   0  0  1  0  0  3  0  0  0  0  0  0
  161.9180  210.1300  148.9170 O   0  0  0  0  0  0  0  0  0  0  0  0
  162.8060  204.5360  147.1550 C   0  0  0  0  0  2  0  0  0  0  0  0
  161.1110  204.2220  149.0620 C   0  0  0  0  0  0  0  0  0  0  0  0
  161.8120  203.7890  148.0000 C   0  0  0  0  0  3  0  0  0  0  0  0
  161.0310  205.6600  149.5280 C   0  0  0  0  0  2  0  0  0  0  0  0
  162.0290  208.8800  148.8130 C   0  0  0  0  0  0  0  0  0  0  0  0
  162.0720  208.2240  147.6060 O   0  0  0  0  0  0  0  0  0  0  0  0
  162.2340  206.8840  147.8230 N   0  0  0  0  0  0  0  0  0  0  0  0
  160.2760  203.2570  149.7070 N   0  0  0  0  0  2  0  0  0  0  0  0
  160.0480  201.6340  149.1360 S   0  0  0  0  0  0  0  0  0  0  0  0
  158.5900  201.2830  149.2300 O   0  0  0  0  0  0  0  0  0  0  0  0
  160.8400  200.6850  149.9910 O   0  0  0  0  0  0  0  0  0  0  0  0
  160.5680  201.4870  147.4400 C   0  0  0  0  0  2  0  0  0  0  0  0
  161.1870  200.1170  147.2020 C   0  0  0  0  0  2  0  0  0  0  0  0
  159.9650  200.1730  145.1420 O   0  0  0  0  0  1  0  0  0  0  0  0
  161.2750  198.3540  145.5770 O   0  0  0  0  0  1  0  0  0  0  0  0
  161.1520  199.7360  145.7280 C   0  0  0  0  0  3  0  0  0  0  0  0
  161.0420  208.0900  150.9580 C   0  0  0  0  0  2  0  0  0  0  0  0
  160.5290  208.6910  153.3040 C   0  0  0  0  0  2  0  0  0  0  0  0
  161.4920  208.9110  152.1530 C   0  0  2  0  0  3  0  0  0  0  0  0
  161.4520  210.3930  151.8130 C   0  0  0  0  0  2  0  0  0  0  0  0
  160.6730  211.0720  152.9180 C   0  0  0  0  0  2  0  0  0  0  0  0
  159.7750  209.9990  153.4850 C   0  0  2  0  0  3  0  0  0  0  0  0
  162.1250  208.4390  157.1680 C   0  0  0  0  0  2  0  0  0  0  0  0
  162.8080  210.7280  157.1340 O   0  0  0  0  0  0  0  0  0  0  0  0
  159.3740  210.3120  154.9360 C   0  0  2  0  0  3  0  0  0  0  0  0
  160.4790  210.3480  156.6640 C   0  0  2  0  0  3  0  0  0  0  0  0
  160.0700  207.9310  155.9020 C   0  0  0  0  0  3  0  0  0  0  0  0
  160.2590  211.3580  155.5780 C   0  0  2  0  0  3  0  0  0  0  0  0
  161.8850  209.8940  156.9520 C   0  0  0  0  0  0  0  0  0  0  0  0
  161.2460  207.5200  156.7080 C   0  0  0  0  0  3  0  0  0  0  0  0
  159.8170  209.2330  155.9020 C   0  0  2  0  0  3  0  0  0  0  0  0
  158.1490  212.3170  156.5380 O   0  0  0  0  0  1  0  0  0  0  0  0
  159.9240  213.6780  156.0510 O   0  0  0  0  0  0  0  0  0  0  0  0
  159.4510  212.5120  156.0900 C   0  0  0  0  0  0  0  0  0  0  0  0
  1  9  1  6  0  0  0
  1  4  1  0  0  0  0
  2  3  2  0  0  0  0
  3  6  1  0  0  0  0
  3 12  1  0  0  0  0
  4 22  1  1  0  0  0
  6  8  1  0  0  0  0
  7  9  1  0  0  0  0
  7 13  1  0  0  0  0
  8  7  2  0  0  0  0
 10  5  2  0  0  0  0
 10  4  1  0  0  0  0
 11 12  1  0  0  0  0
 11 10  1  0  0  0  0
 12  1  1  0  0  0  0
 14 15  2  0  0  0  0
 14 13  1  0  0  0  0
 14 16  2  0  0  0  0
 17 14  1  0  0  0  0
 18 17  1  0  0  0  0
 19 21  1  0  0  0  0
 20 21  1  0  0  0  0
 21 18  1  0  0  0  0
 23 27  1  0  0  0  0
 24 22  1  6  0  0  0
 24 23  1  0  0  0  0
 25 24  1  0  0  0  0
 25 26  1  0  0  0  0
 27 26  1  1  0  0  0
 30 27  1  6  0  0  0
 30 33  1  0  0  0  0
 30 36  1  0  0  0  0
 31 34  1  6  0  0  0
 32 35  2  0  0  0  0
 33 39  1  1  0  0  0
 33 31  1  0  0  0  0
 34 29  2  0  0  0  0
 34 28  1  0  0  0  0
 35 28  1  0  0  0  0
 36 32  1  6  0  0  0
 36 31  1  0  0  0  0
 38 39  2  0  0  0  0
 39 37  1  0  0  0  0
M  END
>  <MODEL>
9

>  <REMARK>
 VINA RESULT:      -6.2      1.620      2.908
  Name = 
  9 active torsions:
  status: ('A' for Active; 'I' for Inactive)
    1  A    between atoms: S_7  and  N_23
    2  A    between atoms: S_7  and  C_31
    3  A    between atoms: C_9  and  C_28
    4  A    between atoms: C_10  and  C_39
    5  A    between atoms: C_14  and  C_28
    6  A    between atoms: C_17  and  C_22
    7  A    between atoms: C_17  and  C_31
    8  A    between atoms: C_20  and  C_36
    9  A    between atoms: C_21  and  N_23
                            x       y       z     vdW  Elec       q    Type
                         _______ _______ _______ _____ _____    ______ ____

>  <TORSDO>
F 9

$$$$
