=
 OpenBabel11072414103D

 28 32  0  0  1  0  0  0  0  0999 V2000
  162.7340  204.1880  146.9540 C   0  0  0  0  0  2  0  0  0  0  0  0
  161.7450  206.2370  146.1200 N   0  0  0  0  0  0  0  0  0  0  0  0
  161.1060  205.8820  147.3940 C   0  0  1  0  0  3  0  0  0  0  0  0
  161.9110  204.7840  148.0620 C   0  0  1  0  0  3  0  0  0  0  0  0
  162.8840  205.3250  145.9690 C   0  0  0  0  0  2  0  0  0  0  0  0
  161.0150  203.7710  148.7760 C   0  0  0  0  0  3  0  0  0  0  0  0
  161.1060  202.3630  148.1750 C   0  0  0  0  0  2  0  0  0  0  0  0
  160.6620  201.3850  150.3750 N   0  0  0  0  0  2  0  0  0  0  0  0
  160.2290  201.4070  148.9790 C   0  0  0  0  0  2  0  0  0  0  0  0
  161.3190  203.7430  150.2730 C   0  0  0  0  0  2  0  0  0  0  0  0
  160.4290  202.7060  150.9560 C   0  0  0  0  0  2  0  0  0  0  0  0
  160.7890  205.9930  145.0270 C   0  0  2  0  0  3  0  0  0  0  0  0
  159.3520  205.9330  145.5390 C   0  0  0  0  0  1  0  0  0  0  0  0
  161.1050  204.7020  144.2590 C   0  0  0  0  0  2  0  0  0  0  0  0
  160.0990  203.5970  144.5510 C   0  0  0  0  0  1  0  0  0  0  0  0
  160.9560  207.1060  148.3000 C   0  0  0  0  0  2  0  0  0  0  0  0
  161.4660  207.9230  152.6590 C   0  0  0  0  0  0  0  0  0  0  0  0
  162.0450  207.4290  150.4010 C   0  0  0  0  0  0  0  0  0  0  0  0
  162.0800  208.6680  149.7100 C   0  0  0  0  0  0  0  0  0  0  0  0
  160.3410  209.9610  153.3520 F   0  0  0  0  0  0  0  0  0  0  0  0
  162.2500  207.4650  149.0200 C   0  0  2  0  0  3  0  0  0  0  0  0
  161.9060  207.0060  151.7670 C   0  0  0  0  0  3  0  0  0  0  0  0
  161.5020  210.2940  151.3070 C   0  0  0  0  0  3  0  0  0  0  0  0
  161.9900  210.0520  150.0780 C   0  0  0  0  0  3  0  0  0  0  0  0
  160.8270  209.2800  152.2500 C   0  0  1  0  0  3  0  0  0  0  0  0
  160.1290  207.0180  154.4900 N   0  0  0  0  0  2  0  0  0  0  0  0
  161.4600  207.5300  154.1150 C   0  0  1  0  0  3  0  0  0  0  0  0
  161.2500  206.0900  154.3020 C   0  0  0  0  0  2  0  0  0  0  0  0
  1  4  1  0  0  0  0
  2  3  1  0  0  0  0
  3  4  1  0  0  0  0
  3 16  1  1  0  0  0
  4  6  1  6  0  0  0
  5  2  1  0  0  0  0
  5  1  1  0  0  0  0
  6 10  1  0  0  0  0
  7  6  1  0  0  0  0
  7  9  1  0  0  0  0
  8 11  1  0  0  0  0
  9  8  1  0  0  0  0
 10 11  1  0  0  0  0
 12 13  1  1  0  0  0
 12  2  1  0  0  0  0
 14 15  1  0  0  0  0
 14 12  1  0  0  0  0
 18 22  1  0  0  0  0
 19 24  1  0  0  0  0
 19 18  2  0  0  0  0
 21 16  1  6  0  0  0
 21 19  1  0  0  0  0
 21 18  1  0  0  0  0
 22 17  2  0  0  0  0
 23 25  1  0  0  0  0
 24 23  2  0  0  0  0
 25 17  1  0  0  0  0
 25 20  1  1  0  0  0
 27 17  1  6  0  0  0
 27 28  1  0  0  0  0
 27 26  1  0  0  0  0
 28 26  1  0  0  0  0
M  END
>  <MODEL>
1

>  <REMARK>
 VINA RESULT:      -7.5      0.000      0.000
  Name = 
  6 active torsions:
  status: ('A' for Active; 'I' for Inactive)
    1  A    between atoms: C_1  and  C_5
    2  A    between atoms: C_1  and  N_7
    3  A    between atoms: C_3  and  C_13
    4  A    between atoms: C_8  and  C_18
    5  A    between atoms: C_9  and  C_15
    6  A    between atoms: C_18  and  C_20
                            x       y       z     vdW  Elec       q    Type
                         _______ _______ _______ _____ _____    ______ ____

>  <TORSDO>
F 6

$$$$
=
 OpenBabel11072414103D

 28 32  0  0  1  0  0  0  0  0999 V2000
  160.8240  211.8140  154.7160 C   0  0  0  0  0  2  0  0  0  0  0  0
  161.4450  209.4720  154.7430 N   0  0  0  0  0  0  0  0  0  0  0  0
  160.2070  209.6290  153.9680 C   0  0  1  0  0  3  0  0  0  0  0  0
  159.9770  211.1030  153.6960 C   0  0  1  0  0  3  0  0  0  0  0  0
  161.9330  210.8290  155.0090 C   0  0  0  0  0  2  0  0  0  0  0  0
  158.4950  211.4740  153.7620 C   0  0  0  0  0  3  0  0  0  0  0  0
  157.8340  211.0670  155.0850 C   0  0  0  0  0  2  0  0  0  0  0  0
  156.3070  212.9730  154.9190 N   0  0  0  0  0  2  0  0  0  0  0  0
  156.3770  211.5230  155.0900 C   0  0  0  0  0  2  0  0  0  0  0  0
  158.2990  212.9650  153.4930 C   0  0  0  0  0  2  0  0  0  0  0  0
  156.8150  213.3100  153.5900 C   0  0  0  0  0  2  0  0  0  0  0  0
  161.1210  208.8220  156.0240 C   0  0  2  0  0  3  0  0  0  0  0  0
  162.2260  209.0330  157.0580 C   0  0  0  0  0  1  0  0  0  0  0  0
  160.8630  207.3180  155.8620 C   0  0  0  0  0  2  0  0  0  0  0  0
  159.4220  206.9430  156.1740 C   0  0  0  0  0  1  0  0  0  0  0  0
  160.2560  208.8160  152.6720 C   0  0  0  0  0  2  0  0  0  0  0  0
  161.3350  205.8640  149.5020 C   0  0  0  0  0  0  0  0  0  0  0  0
  161.6120  207.5090  151.2040 C   0  0  0  0  0  0  0  0  0  0  0  0
  161.5500  206.8250  152.4450 C   0  0  0  0  0  0  0  0  0  0  0  0
  160.3020  203.6970  149.8720 F   0  0  0  0  0  0  0  0  0  0  0  0
  161.6320  208.2190  152.4060 C   0  0  2  0  0  3  0  0  0  0  0  0
  161.6570  207.1400  149.8150 C   0  0  0  0  0  3  0  0  0  0  0  0
  161.1810  204.5670  151.8990 C   0  0  0  0  0  3  0  0  0  0  0  0
  161.5040  205.4520  152.8590 C   0  0  0  0  0  3  0  0  0  0  0  0
  160.6410  204.8860  150.4920 C   0  0  1  0  0  3  0  0  0  0  0  0
  160.5970  206.1750  147.1960 N   0  0  0  0  0  2  0  0  0  0  0  0
  161.5230  205.4300  148.0700 C   0  0  1  0  0  3  0  0  0  0  0  0
  162.0230  206.5170  147.2210 C   0  0  0  0  0  2  0  0  0  0  0  0
  1  5  1  0  0  0  0
  2  5  1  0  0  0  0
  2 12  1  0  0  0  0
  3 16  1  6  0  0  0
  3  2  1  0  0  0  0
  4  6  1  1  0  0  0
  4  3  1  0  0  0  0
  4  1  1  0  0  0  0
  6  7  1  0  0  0  0
  7  9  1  0  0  0  0
  8  9  1  0  0  0  0
 10 11  1  0  0  0  0
 10  6  1  0  0  0  0
 11  8  1  0  0  0  0
 12 13  1  1  0  0  0
 14 12  1  0  0  0  0
 14 15  1  0  0  0  0
 17 22  2  0  0  0  0
 17 25  1  0  0  0  0
 18 21  1  0  0  0  0
 18 19  2  0  0  0  0
 19 24  1  0  0  0  0
 21 19  1  0  0  0  0
 21 16  1  6  0  0  0
 22 18  1  0  0  0  0
 23 24  2  0  0  0  0
 25 20  1  6  0  0  0
 25 23  1  0  0  0  0
 26 28  1  0  0  0  0
 26 27  1  0  0  0  0
 27 17  1  1  0  0  0
 28 27  1  0  0  0  0
M  END
>  <MODEL>
2

>  <REMARK>
 VINA RESULT:      -7.4      3.327      8.780
  Name = 
  6 active torsions:
  status: ('A' for Active; 'I' for Inactive)
    1  A    between atoms: C_1  and  C_5
    2  A    between atoms: C_1  and  N_7
    3  A    between atoms: C_3  and  C_13
    4  A    between atoms: C_8  and  C_18
    5  A    between atoms: C_9  and  C_15
    6  A    between atoms: C_18  and  C_20
                            x       y       z     vdW  Elec       q    Type
                         _______ _______ _______ _____ _____    ______ ____

>  <TORSDO>
F 6

$$$$
=
 OpenBabel11072414103D

 28 32  0  0  1  0  0  0  0  0999 V2000
  158.0730  211.7240  155.2400 C   0  0  0  0  0  2  0  0  0  0  0  0
  158.7330  211.8430  152.9110 N   0  0  0  0  0  0  0  0  0  0  0  0
  159.5750  210.8530  153.5960 C   0  0  1  0  0  3  0  0  0  0  0  0
  158.9820  210.5580  154.9610 C   0  0  1  0  0  3  0  0  0  0  0  0
  157.6780  212.2070  153.8630 C   0  0  0  0  0  2  0  0  0  0  0  0
  160.0630  210.3530  156.0230 C   0  0  0  0  0  3  0  0  0  0  0  0
  160.4270  208.8780  156.2290 C   0  0  0  0  0  2  0  0  0  0  0  0
  162.7190  209.5150  156.8060 N   0  0  0  0  0  2  0  0  0  0  0  0
  161.5480  208.7680  157.2600 C   0  0  0  0  0  2  0  0  0  0  0  0
  161.3050  211.1790  155.6950 C   0  0  0  0  0  2  0  0  0  0  0  0
  162.3750  210.9350  156.7570 C   0  0  0  0  0  2  0  0  0  0  0  0
  159.5460  213.0360  152.6200 C   0  0  2  0  0  3  0  0  0  0  0  0
  158.7700  214.3240  152.8880 C   0  0  0  0  0  1  0  0  0  0  0  0
  160.0590  213.0480  151.1740 C   0  0  0  0  0  2  0  0  0  0  0  0
  159.0970  213.7480  150.2260 C   0  0  0  0  0  1  0  0  0  0  0  0
  159.7310  209.5820  152.7600 C   0  0  0  0  0  2  0  0  0  0  0  0
  161.3330  206.4410  150.0220 C   0  0  0  0  0  0  0  0  0  0  0  0
  161.3120  208.3080  151.5030 C   0  0  0  0  0  0  0  0  0  0  0  0
  161.2950  207.7820  152.8200 C   0  0  0  0  0  0  0  0  0  0  0  0
  160.5950  204.2120  150.6450 F   0  0  0  0  0  0  0  0  0  0  0  0
  161.1860  209.1570  152.6030 C   0  0  2  0  0  3  0  0  0  0  0  0
  161.4630  207.7790  150.1750 C   0  0  0  0  0  3  0  0  0  0  0  0
  161.2640  205.4440  152.5620 C   0  0  0  0  0  3  0  0  0  0  0  0
  161.4220  206.4790  153.4070 C   0  0  0  0  0  3  0  0  0  0  0  0
  160.7420  205.5050  151.1140 C   0  0  1  0  0  3  0  0  0  0  0  0
  160.5400  206.1790  147.7280 N   0  0  0  0  0  2  0  0  0  0  0  0
  161.6370  205.8630  148.6620 C   0  0  1  0  0  3  0  0  0  0  0  0
  161.8120  206.9040  147.6430 C   0  0  0  0  0  2  0  0  0  0  0  0
  2  3  1  0  0  0  0
  2  5  1  0  0  0  0
  3 16  1  6  0  0  0
  3  4  1  0  0  0  0
  4  1  1  0  0  0  0
  4  6  1  1  0  0  0
  5  1  1  0  0  0  0
  6  7  1  0  0  0  0
  7  9  1  0  0  0  0
  8  9  1  0  0  0  0
 10  6  1  0  0  0  0
 10 11  1  0  0  0  0
 11  8  1  0  0  0  0
 12 13  1  6  0  0  0
 12  2  1  0  0  0  0
 14 12  1  0  0  0  0
 15 14  1  0  0  0  0
 17 22  2  0  0  0  0
 17 25  1  0  0  0  0
 18 21  1  0  0  0  0
 18 19  2  0  0  0  0
 19 24  1  0  0  0  0
 21 16  1  6  0  0  0
 21 19  1  0  0  0  0
 22 18  1  0  0  0  0
 23 24  2  0  0  0  0
 25 20  1  6  0  0  0
 25 23  1  0  0  0  0
 26 27  1  0  0  0  0
 27 17  1  1  0  0  0
 28 26  1  0  0  0  0
 28 27  1  0  0  0  0
M  END
>  <MODEL>
3

>  <REMARK>
 VINA RESULT:      -6.8      3.297      8.334
  Name = 
  6 active torsions:
  status: ('A' for Active; 'I' for Inactive)
    1  A    between atoms: C_1  and  C_5
    2  A    between atoms: C_1  and  N_7
    3  A    between atoms: C_3  and  C_13
    4  A    between atoms: C_8  and  C_18
    5  A    between atoms: C_9  and  C_15
    6  A    between atoms: C_18  and  C_20
                            x       y       z     vdW  Elec       q    Type
                         _______ _______ _______ _____ _____    ______ ____

>  <TORSDO>
F 6

$$$$
=
 OpenBabel11072414103D

 28 32  0  0  1  0  0  0  0  0999 V2000
  161.5110  211.3330  154.2750 C   0  0  0  0  0  2  0  0  0  0  0  0
  161.3790  208.9220  154.4890 N   0  0  0  0  0  0  0  0  0  0  0  0
  160.4210  209.3650  153.4670 C   0  0  1  0  0  3  0  0  0  0  0  0
  160.7040  210.8130  153.1170 C   0  0  1  0  0  3  0  0  0  0  0  0
  162.1930  210.0970  154.8180 C   0  0  0  0  0  2  0  0  0  0  0  0
  159.4190  211.6020  152.8600 C   0  0  0  0  0  3  0  0  0  0  0  0
  158.8890  212.3070  154.1140 C   0  0  0  0  0  2  0  0  0  0  0  0
  157.9630  214.0990  152.7270 N   0  0  0  0  0  2  0  0  0  0  0  0
  157.6430  213.1140  153.7590 C   0  0  0  0  0  2  0  0  0  0  0  0
  159.6180  212.5990  151.7200 C   0  0  0  0  0  2  0  0  0  0  0  0
  158.3290  213.3890  151.5020 C   0  0  0  0  0  2  0  0  0  0  0  0
  160.6320  208.5070  155.6890 C   0  0  2  0  0  3  0  0  0  0  0  0
  160.1270  207.0710  155.5680 C   0  0  0  0  0  1  0  0  0  0  0  0
  159.4470  209.4360  155.9830 C   0  0  0  0  0  2  0  0  0  0  0  0
  159.6490  210.2410  157.2590 C   0  0  0  0  0  1  0  0  0  0  0  0
  160.4720  208.4640  152.2310 C   0  0  0  0  0  2  0  0  0  0  0  0
  161.5760  205.4680  149.1120 C   0  0  0  0  0  0  0  0  0  0  0  0
  161.8370  207.0480  150.8760 C   0  0  0  0  0  0  0  0  0  0  0  0
  161.5750  206.3540  152.0850 C   0  0  0  0  0  0  0  0  0  0  0  0
  160.2960  203.4130  149.3140 F   0  0  0  0  0  0  0  0  0  0  0  0
  161.8010  207.7320  152.0920 C   0  0  2  0  0  3  0  0  0  0  0  0
  161.9900  206.6980  149.4900 C   0  0  0  0  0  3  0  0  0  0  0  0
  161.0390  204.1550  151.4440 C   0  0  0  0  0  3  0  0  0  0  0  0
  161.3460  204.9860  152.4550 C   0  0  0  0  0  3  0  0  0  0  0  0
  160.6860  204.5510  149.9980 C   0  0  1  0  0  3  0  0  0  0  0  0
  160.8360  205.5710  146.7870 N   0  0  0  0  0  2  0  0  0  0  0  0
  161.8690  205.0400  147.6950 C   0  0  1  0  0  3  0  0  0  0  0  0
  162.1710  206.1790  146.8210 C   0  0  0  0  0  2  0  0  0  0  0  0
  1  5  1  0  0  0  0
  2  5  1  0  0  0  0
  2 12  1  0  0  0  0
  3 16  1  6  0  0  0
  3  2  1  0  0  0  0
  4  6  1  1  0  0  0
  4  3  1  0  0  0  0
  4  1  1  0  0  0  0
  6  7  1  0  0  0  0
  8  9  1  0  0  0  0
  9  7  1  0  0  0  0
 10  6  1  0  0  0  0
 11 10  1  0  0  0  0
 11  8  1  0  0  0  0
 12 13  1  6  0  0  0
 12 14  1  0  0  0  0
 14 15  1  0  0  0  0
 17 22  2  0  0  0  0
 17 25  1  0  0  0  0
 18 19  2  0  0  0  0
 18 21  1  0  0  0  0
 19 21  1  0  0  0  0
 19 24  1  0  0  0  0
 21 16  1  6  0  0  0
 22 18  1  0  0  0  0
 23 24  2  0  0  0  0
 25 20  1  6  0  0  0
 25 23  1  0  0  0  0
 26 28  1  0  0  0  0
 26 27  1  0  0  0  0
 27 17  1  1  0  0  0
 28 27  1  0  0  0  0
M  END
>  <MODEL>
4

>  <REMARK>
 VINA RESULT:      -6.6      3.155      8.737
  Name = 
  6 active torsions:
  status: ('A' for Active; 'I' for Inactive)
    1  A    between atoms: C_1  and  C_5
    2  A    between atoms: C_1  and  N_7
    3  A    between atoms: C_3  and  C_13
    4  A    between atoms: C_8  and  C_18
    5  A    between atoms: C_9  and  C_15
    6  A    between atoms: C_18  and  C_20
                            x       y       z     vdW  Elec       q    Type
                         _______ _______ _______ _____ _____    ______ ____

>  <TORSDO>
F 6

$$$$
=
 OpenBabel11072414103D

 28 32  0  0  1  0  0  0  0  0999 V2000
  158.9800  211.2830  154.1700 C   0  0  0  0  0  2  0  0  0  0  0  0
  159.9360  210.4290  152.1140 N   0  0  0  0  0  0  0  0  0  0  0  0
  160.4200  209.6180  153.2390 C   0  0  1  0  0  3  0  0  0  0  0  0
  159.6070  209.9500  154.4750 C   0  0  1  0  0  3  0  0  0  0  0  0
  158.8900  211.3000  152.6620 C   0  0  0  0  0  2  0  0  0  0  0  0
  160.4630  209.9490  155.7420 C   0  0  0  0  0  3  0  0  0  0  0  0
  161.1400  208.5980  156.0060 C   0  0  0  0  0  2  0  0  0  0  0  0
  163.0270  209.7400  157.0670 N   0  0  0  0  0  2  0  0  0  0  0  0
  162.0160  208.7000  157.2510 C   0  0  0  0  0  2  0  0  0  0  0  0
  161.4960  211.0730  155.6960 C   0  0  0  0  0  2  0  0  0  0  0  0
  162.3510  211.0330  156.9600 C   0  0  0  0  0  2  0  0  0  0  0  0
  161.0440  211.2660  151.6220 C   0  0  2  0  0  3  0  0  0  0  0  0
  160.5320  212.5250  150.9260 C   0  0  0  0  0  1  0  0  0  0  0  0
  161.9670  210.5010  150.6650 C   0  0  0  0  0  2  0  0  0  0  0  0
  161.9300  211.0670  149.2520 C   0  0  0  0  0  1  0  0  0  0  0  0
  160.3670  208.1250  152.9100 C   0  0  0  0  0  2  0  0  0  0  0  0
  161.3820  205.5760  149.3900 C   0  0  0  0  0  0  0  0  0  0  0  0
  161.6940  206.9970  151.2770 C   0  0  0  0  0  0  0  0  0  0  0  0
  161.6380  206.1660  152.4250 C   0  0  0  0  0  0  0  0  0  0  0  0
  160.3310  203.3880  149.5030 F   0  0  0  0  0  0  0  0  0  0  0  0
  161.7340  207.5530  152.5560 C   0  0  2  0  0  3  0  0  0  0  0  0
  161.7200  206.8000  149.8530 C   0  0  0  0  0  3  0  0  0  0  0  0
  161.2400  203.9950  151.6110 C   0  0  0  0  0  3  0  0  0  0  0  0
  161.5820  204.7530  152.6680 C   0  0  0  0  0  3  0  0  0  0  0  0
  160.6890  204.4890  150.2600 C   0  0  1  0  0  3  0  0  0  0  0  0
  160.5750  206.1220  147.1510 N   0  0  0  0  0  2  0  0  0  0  0  0
  161.5500  205.3190  147.9130 C   0  0  1  0  0  3  0  0  0  0  0  0
  161.9870  206.5170  147.1870 C   0  0  0  0  0  2  0  0  0  0  0  0
  1  4  1  0  0  0  0
  2  5  1  0  0  0  0
  2  3  1  0  0  0  0
  3 16  1  6  0  0  0
  3  4  1  0  0  0  0
  4  6  1  1  0  0  0
  5  1  1  0  0  0  0
  6  7  1  0  0  0  0
  7  9  1  0  0  0  0
  8  9  1  0  0  0  0
 10  6  1  0  0  0  0
 10 11  1  0  0  0  0
 11  8  1  0  0  0  0
 12 13  1  6  0  0  0
 12  2  1  0  0  0  0
 14 12  1  0  0  0  0
 15 14  1  0  0  0  0
 17 22  2  0  0  0  0
 17 25  1  0  0  0  0
 18 19  2  0  0  0  0
 18 21  1  0  0  0  0
 19 21  1  0  0  0  0
 19 24  1  0  0  0  0
 21 16  1  1  0  0  0
 22 18  1  0  0  0  0
 23 24  2  0  0  0  0
 25 20  1  6  0  0  0
 25 23  1  0  0  0  0
 26 28  1  0  0  0  0
 26 27  1  0  0  0  0
 27 17  1  1  0  0  0
 28 27  1  0  0  0  0
M  END
>  <MODEL>
5

>  <REMARK>
 VINA RESULT:      -6.3      2.769      7.786
  Name = 
  6 active torsions:
  status: ('A' for Active; 'I' for Inactive)
    1  A    between atoms: C_1  and  C_5
    2  A    between atoms: C_1  and  N_7
    3  A    between atoms: C_3  and  C_13
    4  A    between atoms: C_8  and  C_18
    5  A    between atoms: C_9  and  C_15
    6  A    between atoms: C_18  and  C_20
                            x       y       z     vdW  Elec       q    Type
                         _______ _______ _______ _____ _____    ______ ____

>  <TORSDO>
F 6

$$$$
=
 OpenBabel11072414103D

 28 32  0  0  1  0  0  0  0  0999 V2000
  162.5110  210.7030  153.0090 C   0  0  0  0  0  2  0  0  0  0  0  0
  161.1140  209.0440  154.0900 N   0  0  0  0  0  0  0  0  0  0  0  0
  160.7540  209.1180  152.6680 C   0  0  1  0  0  3  0  0  0  0  0  0
  161.8070  209.9240  151.9320 C   0  0  1  0  0  3  0  0  0  0  0  0
  162.3300  209.8500  154.2430 C   0  0  0  0  0  2  0  0  0  0  0  0
  161.1960  210.8010  150.8370 C   0  0  0  0  0  3  0  0  0  0  0  0
  160.6300  212.1210  151.3740 C   0  0  0  0  0  2  0  0  0  0  0  0
  161.1650  213.2230  149.2550 N   0  0  0  0  0  2  0  0  0  0  0  0
  160.0940  212.9570  150.2150 C   0  0  0  0  0  2  0  0  0  0  0  0
  162.2110  211.0590  149.7250 C   0  0  0  0  0  2  0  0  0  0  0  0
  161.5830  211.9550  148.6600 C   0  0  0  0  0  2  0  0  0  0  0  0
  160.0350  209.6530  154.8850 C   0  0  2  0  0  3  0  0  0  0  0  0
  160.3760  211.0840  155.2950 C   0  0  0  0  0  1  0  0  0  0  0  0
  159.7060  208.8340  156.1400 C   0  0  0  0  0  2  0  0  0  0  0  0
  159.9990  207.3520  155.9540 C   0  0  0  0  0  1  0  0  0  0  0  0
  160.5840  207.7230  152.0640 C   0  0  0  0  0  2  0  0  0  0  0  0
  161.4740  205.0300  148.6170 C   0  0  0  0  0  0  0  0  0  0  0  0
  161.8540  206.4740  150.4740 C   0  0  0  0  0  0  0  0  0  0  0  0
  161.7330  205.6760  151.6410 C   0  0  0  0  0  0  0  0  0  0  0  0
  160.2840  202.9170  148.7680 F   0  0  0  0  0  0  0  0  0  0  0  0
  161.9150  207.0570  151.7410 C   0  0  2  0  0  3  0  0  0  0  0  0
  161.8840  206.2410  149.0560 C   0  0  0  0  0  3  0  0  0  0  0  0
  161.2070  203.5160  150.8730 C   0  0  0  0  0  3  0  0  0  0  0  0
  161.5840  204.2750  151.9160 C   0  0  0  0  0  3  0  0  0  0  0  0
  160.7030  204.0110  149.5040 C   0  0  1  0  0  3  0  0  0  0  0  0
  160.8320  205.6640  146.3490 N   0  0  0  0  0  2  0  0  0  0  0  0
  161.6420  204.7270  147.1490 C   0  0  1  0  0  3  0  0  0  0  0  0
  162.2870  205.8280  146.4250 C   0  0  0  0  0  2  0  0  0  0  0  0
  1  5  1  0  0  0  0
  2  5  1  0  0  0  0
  2 12  1  0  0  0  0
  3 16  1  6  0  0  0
  3  2  1  0  0  0  0
  4  6  1  6  0  0  0
  4  3  1  0  0  0  0
  4  1  1  0  0  0  0
  6  7  1  0  0  0  0
  8  9  1  0  0  0  0
  9  7  1  0  0  0  0
 10  6  1  0  0  0  0
 11  8  1  0  0  0  0
 11 10  1  0  0  0  0
 12 13  1  1  0  0  0
 12 14  1  0  0  0  0
 15 14  1  0  0  0  0
 17 22  2  0  0  0  0
 17 25  1  0  0  0  0
 18 19  2  0  0  0  0
 18 21  1  0  0  0  0
 19 21  1  0  0  0  0
 19 24  1  0  0  0  0
 21 16  1  6  0  0  0
 22 18  1  0  0  0  0
 23 24  2  0  0  0  0
 25 20  1  6  0  0  0
 25 23  1  0  0  0  0
 26 28  1  0  0  0  0
 26 27  1  0  0  0  0
 27 17  1  1  0  0  0
 28 27  1  0  0  0  0
M  END
>  <MODEL>
6

>  <REMARK>
 VINA RESULT:      -5.8      2.773      8.209
  Name = 
  6 active torsions:
  status: ('A' for Active; 'I' for Inactive)
    1  A    between atoms: C_1  and  C_5
    2  A    between atoms: C_1  and  N_7
    3  A    between atoms: C_3  and  C_13
    4  A    between atoms: C_8  and  C_18
    5  A    between atoms: C_9  and  C_15
    6  A    between atoms: C_18  and  C_20
                            x       y       z     vdW  Elec       q    Type
                         _______ _______ _______ _____ _____    ______ ____

>  <TORSDO>
F 6

$$$$
=
 OpenBabel11072414103D

 28 32  0  0  1  0  0  0  0  0999 V2000
  162.4610  206.2050  153.1200 C   0  0  0  0  0  2  0  0  0  0  0  0
  161.6980  206.0810  150.8230 N   0  0  0  0  0  0  0  0  0  0  0  0
  161.0390  207.2140  151.4850 C   0  0  1  0  0  3  0  0  0  0  0  0
  161.7240  207.4790  152.8120 C   0  0  1  0  0  3  0  0  0  0  0  0
  162.7250  205.6070  151.7580 C   0  0  0  0  0  2  0  0  0  0  0  0
  160.7280  207.8920  153.8980 C   0  0  0  0  0  3  0  0  0  0  0  0
  160.4650  206.7820  154.9220 C   0  0  0  0  0  2  0  0  0  0  0  0
  160.0850  208.4640  156.6600 N   0  0  0  0  0  2  0  0  0  0  0  0
  159.5100  207.2940  155.9970 C   0  0  0  0  0  2  0  0  0  0  0  0
  161.1880  209.1730  154.5910 C   0  0  0  0  0  2  0  0  0  0  0  0
  160.1900  209.5480  155.6850 C   0  0  0  0  0  2  0  0  0  0  0  0
  160.7080  205.0100  150.6200 C   0  0  2  0  0  3  0  0  0  0  0  0
  160.8340  203.9170  151.6800 C   0  0  0  0  0  1  0  0  0  0  0  0
  160.8170  204.3770  149.2270 C   0  0  0  0  0  2  0  0  0  0  0  0
  161.1440  205.4020  148.1510 C   0  0  0  0  0  1  0  0  0  0  0  0
  161.0390  208.4560  150.5900 C   0  0  0  0  0  2  0  0  0  0  0  0
  160.0230  212.7450  151.2910 C   0  0  0  0  0  0  0  0  0  0  0  0
  161.2350  210.6960  151.3930 C   0  0  0  0  0  0  0  0  0  0  0  0
  161.9870  210.6090  150.1930 C   0  0  0  0  0  0  0  0  0  0  0  0
  159.5320  213.9250  149.2240 F   0  0  0  0  0  0  0  0  0  0  0  0
  161.9710  209.5470  151.1010 C   0  0  2  0  0  3  0  0  0  0  0  0
  160.4190  211.6890  152.0370 C   0  0  0  0  0  3  0  0  0  0  0  0
  161.4480  212.5440  148.9710 C   0  0  0  0  0  3  0  0  0  0  0  0
  162.2630  211.4820  149.0880 C   0  0  0  0  0  3  0  0  0  0  0  0
  160.1370  212.7930  149.7400 C   0  0  1  0  0  3  0  0  0  0  0  0
  157.8440  213.5980  151.9860 N   0  0  0  0  0  2  0  0  0  0  0  0
  159.2950  213.8620  151.9960 C   0  0  1  0  0  3  0  0  0  0  0  0
  158.6200  213.4020  153.2150 C   0  0  0  0  0  2  0  0  0  0  0  0
  2  3  1  0  0  0  0
  2  5  1  0  0  0  0
  3 16  1  6  0  0  0
  3  4  1  0  0  0  0
  4  1  1  0  0  0  0
  4  6  1  1  0  0  0
  5  1  1  0  0  0  0
  6 10  1  0  0  0  0
  6  7  1  0  0  0  0
  7  9  1  0  0  0  0
  9  8  1  0  0  0  0
 10 11  1  0  0  0  0
 11  8  1  0  0  0  0
 12  2  1  0  0  0  0
 12 13  1  1  0  0  0
 14 12  1  0  0  0  0
 15 14  1  0  0  0  0
 17 22  2  0  0  0  0
 18 22  1  0  0  0  0
 19 21  1  0  0  0  0
 19 18  2  0  0  0  0
 21 16  1  6  0  0  0
 21 18  1  0  0  0  0
 23 24  2  0  0  0  0
 23 25  1  0  0  0  0
 24 19  1  0  0  0  0
 25 20  1  1  0  0  0
 25 17  1  0  0  0  0
 26 27  1  0  0  0  0
 26 28  1  0  0  0  0
 27 17  1  6  0  0  0
 27 28  1  0  0  0  0
M  END
>  <MODEL>
7

>  <REMARK>
 VINA RESULT:      -5.7      2.809      5.918
  Name = 
  6 active torsions:
  status: ('A' for Active; 'I' for Inactive)
    1  A    between atoms: C_1  and  C_5
    2  A    between atoms: C_1  and  N_7
    3  A    between atoms: C_3  and  C_13
    4  A    between atoms: C_8  and  C_18
    5  A    between atoms: C_9  and  C_15
    6  A    between atoms: C_18  and  C_20
                            x       y       z     vdW  Elec       q    Type
                         _______ _______ _______ _____ _____    ______ ____

>  <TORSDO>
F 6

$$$$
=
 OpenBabel11072414103D

 28 32  0  0  1  0  0  0  0  0999 V2000
  160.2900  204.3010  149.0660 C   0  0  0  0  0  2  0  0  0  0  0  0
  160.9290  205.6140  150.9990 N   0  0  0  0  0  0  0  0  0  0  0  0
  161.3570  206.3160  149.7820 C   0  0  1  0  0  3  0  0  0  0  0  0
  160.7070  205.6610  148.5780 C   0  0  1  0  0  3  0  0  0  0  0  0
  160.0870  204.5000  150.5500 C   0  0  0  0  0  2  0  0  0  0  0  0
  161.6470  205.6200  147.3720 C   0  0  0  0  0  3  0  0  0  0  0  0
  162.4290  204.3060  147.2660 C   0  0  0  0  0  2  0  0  0  0  0  0
  162.4550  204.5050  144.8270 N   0  0  0  0  0  2  0  0  0  0  0  0
  163.2950  204.3260  146.0090 C   0  0  0  0  0  2  0  0  0  0  0  0
  160.8790  205.8990  146.0810 C   0  0  0  0  0  2  0  0  0  0  0  0
  161.8350  205.8280  144.8930 C   0  0  0  0  0  2  0  0  0  0  0  0
  162.1190  205.0710  151.6760 C   0  0  2  0  0  3  0  0  0  0  0  0
  161.9580  203.5850  151.9910 C   0  0  0  0  0  1  0  0  0  0  0  0
  162.4450  205.8290  152.9700 C   0  0  0  0  0  2  0  0  0  0  0  0
  161.1990  206.3830  153.6440 C   0  0  0  0  0  1  0  0  0  0  0  0
  161.0310  207.8090  149.8580 C   0  0  0  0  0  2  0  0  0  0  0  0
  160.5120  211.2030  152.7100 C   0  0  0  0  0  0  0  0  0  0  0  0
  161.5790  209.4410  151.5130 C   0  0  0  0  0  0  0  0  0  0  0  0
  161.9530  209.9730  150.2530 C   0  0  0  0  0  0  0  0  0  0  0  0
  159.5260  213.1540  151.6500 F   0  0  0  0  0  0  0  0  0  0  0  0
  162.1330  208.6170  150.5320 C   0  0  2  0  0  3  0  0  0  0  0  0
  161.0400  209.9590  152.7410 C   0  0  0  0  0  3  0  0  0  0  0  0
  161.2050  212.2030  150.2660 C   0  0  0  0  0  3  0  0  0  0  0  0
  161.9560  211.2750  149.6480 C   0  0  0  0  0  3  0  0  0  0  0  0
  160.1840  211.9650  151.3940 C   0  0  1  0  0  3  0  0  0  0  0  0
  158.7450  211.3060  154.3920 N   0  0  0  0  0  2  0  0  0  0  0  0
  160.0810  211.8100  154.0220 C   0  0  1  0  0  3  0  0  0  0  0  0
  159.9390  210.8030  155.0800 C   0  0  0  0  0  2  0  0  0  0  0  0
  1  5  1  0  0  0  0
  2 12  1  0  0  0  0
  3 16  1  1  0  0  0
  3  2  1  0  0  0  0
  4  6  1  6  0  0  0
  4  1  1  0  0  0  0
  4  3  1  0  0  0  0
  5  2  1  0  0  0  0
  7  6  1  0  0  0  0
  8 11  1  0  0  0  0
  8  9  1  0  0  0  0
  9  7  1  0  0  0  0
 10  6  1  0  0  0  0
 11 10  1  0  0  0  0
 12 13  1  1  0  0  0
 12 14  1  0  0  0  0
 14 15  1  0  0  0  0
 17 22  2  0  0  0  0
 18 22  1  0  0  0  0
 19 21  1  0  0  0  0
 19 18  2  0  0  0  0
 21 16  1  6  0  0  0
 21 18  1  0  0  0  0
 23 25  1  0  0  0  0
 24 19  1  0  0  0  0
 24 23  2  0  0  0  0
 25 20  1  1  0  0  0
 25 17  1  0  0  0  0
 26 28  1  0  0  0  0
 27 17  1  6  0  0  0
 27 26  1  0  0  0  0
 27 28  1  0  0  0  0
M  END
>  <MODEL>
8

>  <REMARK>
 VINA RESULT:      -5.4      2.030      4.736
  Name = 
  6 active torsions:
  status: ('A' for Active; 'I' for Inactive)
    1  A    between atoms: C_1  and  C_5
    2  A    between atoms: C_1  and  N_7
    3  A    between atoms: C_3  and  C_13
    4  A    between atoms: C_8  and  C_18
    5  A    between atoms: C_9  and  C_15
    6  A    between atoms: C_18  and  C_20
                            x       y       z     vdW  Elec       q    Type
                         _______ _______ _______ _____ _____    ______ ____

>  <TORSDO>
F 6

$$$$
=
 OpenBabel11072414103D

 28 32  0  0  1  0  0  0  0  0999 V2000
  162.8900  203.7100  146.3520 C   0  0  0  0  0  2  0  0  0  0  0  0
  162.2140  206.0230  146.0940 N   0  0  0  0  0  0  0  0  0  0  0  0
  161.6030  205.4800  147.3140 C   0  0  1  0  0  3  0  0  0  0  0  0
  162.2480  204.1470  147.6400 C   0  0  1  0  0  3  0  0  0  0  0  0
  163.1700  205.0100  145.6340 C   0  0  0  0  0  2  0  0  0  0  0  0
  161.2380  203.1410  148.1950 C   0  0  0  0  0  3  0  0  0  0  0  0
  161.1050  201.8840  147.3280 C   0  0  0  0  0  2  0  0  0  0  0  0
  160.5950  200.5530  149.3180 N   0  0  0  0  0  2  0  0  0  0  0  0
  160.1250  200.9130  147.9810 C   0  0  0  0  0  2  0  0  0  0  0  0
  161.5820  202.7720  149.6370 C   0  0  0  0  0  2  0  0  0  0  0  0
  160.5730  201.7510  150.1570 C   0  0  0  0  0  2  0  0  0  0  0  0
  161.1670  206.1900  145.0730 C   0  0  2  0  0  3  0  0  0  0  0  0
  159.7740  206.2350  145.6980 C   0  0  0  0  0  1  0  0  0  0  0  0
  161.2080  205.0800  144.0140 C   0  0  0  0  0  2  0  0  0  0  0  0
  160.0920  204.0630  144.2000 C   0  0  0  0  0  1  0  0  0  0  0  0
  161.7180  206.4640  148.4790 C   0  0  0  0  0  2  0  0  0  0  0  0
  161.2570  208.0630  152.6210 C   0  0  0  0  0  0  0  0  0  0  0  0
  160.6550  207.3250  150.4370 C   0  0  0  0  0  0  0  0  0  0  0  0
  160.5700  205.9100  150.4960 C   0  0  0  0  0  0  0  0  0  0  0  0
  162.3300  206.6480  154.2790 F   0  0  0  0  0  0  0  0  0  0  0  0
  160.4260  206.5810  149.2790 C   0  0  2  0  0  3  0  0  0  0  0  0
  160.8310  208.3940  151.3810 C   0  0  0  0  0  3  0  0  0  0  0  0
  161.1240  205.3380  152.7080 C   0  0  0  0  0  3  0  0  0  0  0  0
  160.6220  204.9210  151.5330 C   0  0  0  0  0  3  0  0  0  0  0  0
  161.8460  206.6700  152.9830 C   0  0  1  0  0  3  0  0  0  0  0  0
  162.2640  210.1970  153.2480 N   0  0  0  0  0  2  0  0  0  0  0  0
  161.3010  209.1580  153.6580 C   0  0  1  0  0  3  0  0  0  0  0  0
  160.8220  210.4410  153.1320 C   0  0  0  0  0  2  0  0  0  0  0  0
  1  4  1  0  0  0  0
  2  3  1  0  0  0  0
  3  4  1  0  0  0  0
  3 16  1  1  0  0  0
  4  6  1  6  0  0  0
  5  2  1  0  0  0  0
  5  1  1  0  0  0  0
  6 10  1  0  0  0  0
  7  9  1  0  0  0  0
  7  6  1  0  0  0  0
  8 11  1  0  0  0  0
  9  8  1  0  0  0  0
 10 11  1  0  0  0  0
 12 13  1  1  0  0  0
 12  2  1  0  0  0  0
 14 15  1  0  0  0  0
 14 12  1  0  0  0  0
 17 25  1  0  0  0  0
 18 19  2  0  0  0  0
 18 22  1  0  0  0  0
 19 24  1  0  0  0  0
 21 16  1  6  0  0  0
 21 18  1  0  0  0  0
 21 19  1  0  0  0  0
 22 17  2  0  0  0  0
 23 25  1  0  0  0  0
 24 23  2  0  0  0  0
 25 20  1  1  0  0  0
 26 27  1  0  0  0  0
 27 17  1  6  0  0  0
 28 26  1  0  0  0  0
 28 27  1  0  0  0  0
M  END
>  <MODEL>
9

>  <REMARK>
 VINA RESULT:      -5.4      1.571      2.336
  Name = 
  6 active torsions:
  status: ('A' for Active; 'I' for Inactive)
    1  A    between atoms: C_1  and  C_5
    2  A    between atoms: C_1  and  N_7
    3  A    between atoms: C_3  and  C_13
    4  A    between atoms: C_8  and  C_18
    5  A    between atoms: C_9  and  C_15
    6  A    between atoms: C_18  and  C_20
                            x       y       z     vdW  Elec       q    Type
                         _______ _______ _______ _____ _____    ______ ____

>  <TORSDO>
F 6

$$$$
