=
 OpenBabel11072411113D

 30 36  0  0  1  0  0  0  0  0999 V2000
  161.8240  211.6060  138.5670 C   0  0  2  0  0  3  0  0  0  0  0  0
  161.1400  213.6970  140.6530 C   0  0  0  0  0  0  0  0  0  0  0  0
  155.1640  212.2350  138.7840 N   0  0  0  0  0  0  0  0  0  0  0  0
  162.2460  210.4300  139.4610 C   0  0  1  0  0  3  0  0  0  0  0  0
  158.6100  212.9100  139.1800 C   0  0  0  0  0  2  0  0  0  0  0  0
  161.1340  208.8460  137.6630 C   0  0  0  0  0  0  0  0  0  0  0  0
  160.9860  211.2410  139.7820 C   0  0  1  0  0  3  0  0  0  0  0  0
  161.1510  208.3380  139.9940 O   0  0  0  0  0  0  0  0  0  0  0  0
  161.1010  211.2750  137.2330 C   0  0  0  0  0  2  0  0  0  0  0  0
  162.2360  214.3030  140.5000 O   0  0  0  0  0  0  0  0  0  0  0  0
  161.1430  212.2150  140.9630 C   0  0  1  0  0  3  0  0  0  0  0  0
  157.9360  210.6230  137.0690 C   0  0  1  0  0  3  0  0  0  0  0  0
  162.4290  207.8490  139.6610 C   0  0  0  0  0  2  0  0  0  0  0  0
  160.3000  209.9660  137.1440 C   0  0  2  0  0  3  0  0  0  0  0  0
  157.4410  214.4520  140.6660 C   0  0  0  0  0  3  0  0  0  0  0  0
  158.9900  210.0590  137.9220 C   0  0  2  0  0  3  0  0  0  0  0  0
  161.8410  209.0260  138.9780 C   0  0  2  0  0  0  0  0  0  0  0  0
  157.7570  208.8100  137.3690 S   0  0  0  0  0  0  0  0  0  0  0  0
  159.9120  214.4410  140.5860 N   0  0  0  0  0  2  0  0  0  0  0  0
  156.2080  212.9000  139.3150 C   0  0  0  0  0  0  0  0  0  0  0  0
  156.1940  213.9350  140.2490 C   0  0  0  0  0  3  0  0  0  0  0  0
  155.6550  211.3320  137.9340 N   0  0  0  0  0  0  0  0  0  0  0  0
  157.3700  212.4240  138.7970 C   0  0  0  0  0  0  0  0  0  0  0  0
  157.0070  211.4260  137.9300 C   0  0  0  0  0  0  0  0  0  0  0  0
  158.6520  213.9170  140.1550 C   0  0  0  0  0  0  0  0  0  0  0  0
  161.2510  207.8200  137.0110 O   0  0  0  0  0  0  0  0  0  0  0  0
  162.1180  211.7800  142.0590 C   0  0  0  0  0  2  0  0  0  0  0  0
  161.9880  212.6330  143.2800 C   0  0  0  0  0  0  0  0  0  0  0  0
  160.7590  212.6660  143.9960 N   0  0  0  0  0  1  0  0  0  0  0  0
  162.9470  213.3620  143.6540 O   0  0  0  0  0  0  0  0  0  0  0  0
  1  9  1  6  0  0  0
  1  4  1  0  0  0  0
  1  7  1  0  0  0  0
  2 11  1  0  0  0  0
  3 20  1  0  0  0  0
  4  7  1  0  0  0  0
  5 25  1  0  0  0  0
  6 17  1  0  0  0  0
  7 11  1  0  0  0  0
 10  2  2  0  0  0  0
 11 27  1  0  0  0  0
 12 18  1  0  0  0  0
 12 16  1  0  0  0  0
 12 24  1  0  0  0  0
 13  8  1  0  0  0  0
 14  9  1  0  0  0  0
 14  6  1  0  0  0  0
 14 16  1  0  0  0  0
 17  4  1  0  0  0  0
 17 13  1  0  0  0  0
 17  8  1  0  0  0  0
 18 16  1  0  0  0  0
 19  2  1  0  0  0  0
 20 21  2  0  0  0  0
 21 15  1  0  0  0  0
 22  3  2  0  0  0  0
 23  5  1  0  0  0  0
 23 20  1  0  0  0  0
 24 22  1  0  0  0  0
 24 23  2  0  0  0  0
 25 19  1  0  0  0  0
 25 15  2  0  0  0  0
 26  6  2  0  0  0  0
 27 28  1  0  0  0  0
 28 30  2  0  0  0  0
 28 29  1  0  0  0  0
M  END
>  <MODEL>
1

>  <REMARK>
 VINA RESULT:      -4.2      0.000      0.000
  Name = 
  2 active torsions:
  status: ('A' for Active; 'I' for Inactive)
    1  A    between atoms: C_11  and  C_27
    2  A    between atoms: C_18  and  C_27
                            x       y       z     vdW  Elec       q    Type
                         _______ _______ _______ _____ _____    ______ ____

>  <TORSDO>
F 2

$$$$
=
 OpenBabel11072411113D

 30 36  0  0  1  0  0  0  0  0999 V2000
  159.6730  212.9830  153.9790 C   0  0  2  0  0  3  0  0  0  0  0  0
  160.1980  213.0020  150.9930 C   0  0  0  0  0  0  0  0  0  0  0  0
  161.8110  206.8960  152.1990 N   0  0  0  0  0  0  0  0  0  0  0  0
  158.1360  212.9870  154.0040 C   0  0  1  0  0  3  0  0  0  0  0  0
  161.1600  210.3680  152.1460 C   0  0  0  0  0  3  0  0  0  0  0  0
  158.3060  211.4360  156.1350 C   0  0  0  0  0  0  0  0  0  0  0  0
  158.8980  212.0600  153.0510 C   0  0  1  0  0  3  0  0  0  0  0  0
  156.5290  211.2630  154.5520 O   0  0  0  0  0  0  0  0  0  0  0  0
  160.4110  212.2040  155.1020 C   0  0  0  0  0  2  0  0  0  0  0  0
  160.4530  214.2380  150.9800 O   0  0  0  0  0  0  0  0  0  0  0  0
  158.8910  212.5170  151.5820 C   0  0  1  0  0  3  0  0  0  0  0  0
  160.8650  209.0020  155.0080 C   0  0  1  0  0  3  0  0  0  0  0  0
  156.0140  212.3130  155.3360 C   0  0  0  0  0  2  0  0  0  0  0  0
  159.6880  211.0200  155.7620 C   0  0  2  0  0  3  0  0  0  0  0  0
  161.7570  209.7550  149.8620 C   0  0  0  0  0  3  0  0  0  0  0  0
  159.6470  209.8050  154.8390 C   0  0  2  0  0  3  0  0  0  0  0  0
  157.4700  212.1500  155.1090 C   0  0  2  0  0  0  0  0  0  0  0  0
  159.3620  208.2360  155.7570 S   0  0  0  0  0  0  0  0  0  0  0  0
  161.1320  212.0870  150.3960 N   0  0  0  0  0  2  0  0  0  0  0  0
  161.7170  208.0950  151.5930 C   0  0  0  0  0  0  0  0  0  0  0  0
  161.9490  208.4120  150.2550 C   0  0  0  0  0  3  0  0  0  0  0  0
  161.5010  207.0720  153.4840 N   0  0  0  0  0  2  0  0  0  0  0  0
  161.3530  209.0420  152.4950 C   0  0  0  0  0  0  0  0  0  0  0  0
  161.2110  208.3800  153.6880 C   0  0  0  0  0  0  0  0  0  0  0  0
  161.3300  210.7290  150.8020 C   0  0  0  0  0  0  0  0  0  0  0  0
  157.8860  211.2160  157.2610 O   0  0  0  0  0  0  0  0  0  0  0  0
  157.6470  213.2840  151.1300 C   0  0  0  0  0  2  0  0  0  0  0  0
  157.5380  213.3240  149.6390 C   0  0  0  0  0  0  0  0  0  0  0  0
  158.0230  214.4530  148.9210 N   0  0  0  0  0  1  0  0  0  0  0  0
  156.9770  212.3830  149.0150 O   0  0  0  0  0  0  0  0  0  0  0  0
  1  4  1  0  0  0  0
  1  9  1  1  0  0  0
  2 11  1  0  0  0  0
  3 22  1  0  0  0  0
  4 17  1  0  0  0  0
  5 23  1  0  0  0  0
  6 26  2  0  0  0  0
  7  1  1  0  0  0  0
  7  4  1  0  0  0  0
  8 17  1  0  0  0  0
  8 13  1  0  0  0  0
  9 14  1  0  0  0  0
 10  2  2  0  0  0  0
 11  7  1  0  0  0  0
 12 18  1  0  0  0  0
 14  6  1  0  0  0  0
 15 21  2  0  0  0  0
 15 25  1  0  0  0  0
 16 12  1  0  0  0  0
 16 18  1  0  0  0  0
 16 14  1  0  0  0  0
 17 13  1  0  0  0  0
 17  6  1  0  0  0  0
 19 25  1  0  0  0  0
 19  2  1  0  0  0  0
 20  3  2  0  0  0  0
 20 23  1  0  0  0  0
 21 20  1  0  0  0  0
 22 24  1  0  0  0  0
 23 24  2  0  0  0  0
 24 12  1  0  0  0  0
 25  5  2  0  0  0  0
 27 11  1  0  0  0  0
 28 27  1  0  0  0  0
 29 28  1  0  0  0  0
 30 28  2  0  0  0  0
M  END
>  <MODEL>
2

>  <REMARK>
 VINA RESULT:      -4.1     10.902     14.681
  Name = 
  2 active torsions:
  status: ('A' for Active; 'I' for Inactive)
    1  A    between atoms: C_11  and  C_27
    2  A    between atoms: C_18  and  C_27
                            x       y       z     vdW  Elec       q    Type
                         _______ _______ _______ _____ _____    ______ ____

>  <TORSDO>
F 2

$$$$
=
 OpenBabel11072411113D

 30 36  0  0  1  0  0  0  0  0999 V2000
  158.1560  210.4680  155.0660 C   0  0  2  0  0  3  0  0  0  0  0  0
  160.4270  208.4640  154.9270 C   0  0  0  0  0  0  0  0  0  0  0  0
  161.7950  211.8130  149.6120 N   0  0  0  0  0  0  0  0  0  0  0  0
  158.6310  211.3660  156.2190 C   0  0  1  0  0  3  0  0  0  0  0  0
  160.4120  210.1130  152.3840 C   0  0  0  0  0  3  0  0  0  0  0  0
  157.5600  213.3880  154.9010 C   0  0  0  0  0  0  0  0  0  0  0  0
  159.6040  210.9330  155.1170 C   0  0  1  0  0  3  0  0  0  0  0  0
  159.5150  213.6190  156.2490 O   0  0  0  0  0  0  0  0  0  0  0  0
  157.3640  211.1370  153.9100 C   0  0  0  0  0  2  0  0  0  0  0  0
  159.7720  207.5810  155.5480 O   0  0  0  0  0  0  0  0  0  0  0  0
  160.5960  209.8370  155.5410 C   0  0  1  0  0  3  0  0  0  0  0  0
  158.8040  212.7080  151.4750 C   0  0  1  0  0  3  0  0  0  0  0  0
  158.5440  213.7410  157.2600 C   0  0  0  0  0  2  0  0  0  0  0  0
  157.6150  212.6260  153.6210 C   0  0  2  0  0  3  0  0  0  0  0  0
  162.3810  208.8370  151.7190 C   0  0  0  0  0  3  0  0  0  0  0  0
  158.9580  212.8410  152.9290 C   0  0  2  0  0  3  0  0  0  0  0  0
  158.3360  212.8690  156.0800 C   0  0  2  0  0  0  0  0  0  0  0  0
  159.0370  214.4500  152.0390 S   0  0  0  0  0  0  0  0  0  0  0  0
  161.0460  208.1260  153.6750 N   0  0  0  0  0  2  0  0  0  0  0  0
  161.7570  210.8180  150.5180 C   0  0  2  0  0  3  0  0  0  0  0  0
  162.6300  209.7400  150.6610 C   0  0  0  0  0  3  0  0  0  0  0  0
  160.7580  212.6160  149.8560 N   0  0  0  0  0  0  0  0  0  0  0  0
  160.6880  210.9810  151.3400 C   0  0  0  0  0  0  0  0  0  0  0  0
  160.0680  212.1280  150.9150 C   0  0  0  0  0  0  0  0  0  0  0  0
  161.2890  209.0410  152.6010 C   0  0  0  0  0  0  0  0  0  0  0  0
  156.8760  214.3970  154.9810 O   0  0  0  0  0  0  0  0  0  0  0  0
  161.0070  209.8460  157.0150 C   0  0  0  0  0  2  0  0  0  0  0  0
  162.4140  210.3210  157.1890 C   0  0  0  0  0  0  0  0  0  0  0  0
  162.6940  211.7160  157.2230 N   0  0  0  0  0  1  0  0  0  0  0  0
  163.3630  209.4940  157.2590 O   0  0  0  0  0  0  0  0  0  0  0  0
  1  9  1  6  0  0  0
  1  7  1  0  0  0  0
  1  4  1  0  0  0  0
  2 11  1  0  0  0  0
  2 10  2  0  0  0  0
  3 22  2  0  0  0  0
  3 20  1  0  0  0  0
  5 25  2  0  0  0  0
  6 26  2  0  0  0  0
  6 17  1  0  0  0  0
  7 11  1  0  0  0  0
  7  4  1  0  0  0  0
  8 13  1  0  0  0  0
 11 27  1  0  0  0  0
 12 18  1  0  0  0  0
 12 16  1  0  0  0  0
 14  9  1  0  0  0  0
 14  6  1  0  0  0  0
 15 25  1  0  0  0  0
 16 14  1  0  0  0  0
 17  4  1  0  0  0  0
 17  8  1  0  0  0  0
 17 13  1  0  0  0  0
 18 16  1  0  0  0  0
 19  2  1  0  0  0  0
 20 21  1  0  0  0  0
 20 23  1  0  0  0  0
 21 15  2  0  0  0  0
 22 24  1  0  0  0  0
 23  5  1  0  0  0  0
 24 23  2  0  0  0  0
 24 12  1  0  0  0  0
 25 19  1  0  0  0  0
 27 28  1  0  0  0  0
 28 29  1  0  0  0  0
 28 30  2  0  0  0  0
M  END
>  <MODEL>
3

>  <REMARK>
 VINA RESULT:      -3.1     12.310     15.369
  Name = 
  2 active torsions:
  status: ('A' for Active; 'I' for Inactive)
    1  A    between atoms: C_11  and  C_27
    2  A    between atoms: C_18  and  C_27
                            x       y       z     vdW  Elec       q    Type
                         _______ _______ _______ _____ _____    ______ ____

>  <TORSDO>
F 2

$$$$
=
 OpenBabel11072411113D

 30 36  0  0  1  0  0  0  0  0999 V2000
  159.5960  214.3850  151.1990 C   0  0  2  0  0  3  0  0  0  0  0  0
  161.0640  213.1710  148.8410 C   0  0  0  0  0  0  0  0  0  0  0  0
  161.0560  208.0280  152.6990 N   0  0  0  0  0  0  0  0  0  0  0  0
  158.1630  214.4530  150.6470 C   0  0  1  0  0  3  0  0  0  0  0  0
  161.1000  211.2000  151.1440 C   0  0  0  0  0  3  0  0  0  0  0  0
  157.3410  213.8960  153.0940 C   0  0  0  0  0  0  0  0  0  0  0  0
  159.0140  213.1930  150.4560 C   0  0  1  0  0  3  0  0  0  0  0  0
  156.1810  213.1580  151.1450 O   0  0  0  0  0  0  0  0  0  0  0  0
  159.7710  214.1040  152.7170 C   0  0  0  0  0  2  0  0  0  0  0  0
  161.5290  214.2850  148.4730 O   0  0  0  0  0  0  0  0  0  0  0  0
  159.5710  213.0130  149.0330 C   0  0  1  0  0  3  0  0  0  0  0  0
  159.6420  211.1260  153.9750 C   0  0  1  0  0  3  0  0  0  0  0  0
  155.6370  214.4530  151.2380 C   0  0  0  0  0  2  0  0  0  0  0  0
  158.6690  213.3160  153.4430 C   0  0  2  0  0  3  0  0  0  0  0  0
  162.2900  209.6910  149.6420 C   0  0  0  0  0  3  0  0  0  0  0  0
  158.7140  211.8330  153.0840 C   0  0  2  0  0  3  0  0  0  0  0  0
  157.0310  214.1610  151.6470 C   0  0  2  0  0  0  0  0  0  0  0  0
  157.8640  210.7840  154.3340 S   0  0  0  0  0  0  0  0  0  0  0  0
  161.9590  212.0600  149.0130 N   0  0  0  0  0  2  0  0  0  0  0  0
  161.3850  208.8800  151.7100 C   0  0  0  0  0  0  0  0  0  0  0  0
  162.0960  208.6180  150.5390 C   0  0  0  0  0  3  0  0  0  0  0  0
  160.3800  208.7220  153.6160 N   0  0  0  0  0  2  0  0  0  0  0  0
  160.9240  210.1240  151.9980 C   0  0  0  0  0  0  0  0  0  0  0  0
  160.2820  210.0090  153.2050 C   0  0  0  0  0  0  0  0  0  0  0  0
  161.7640  210.9770  149.9290 C   0  0  0  0  0  0  0  0  0  0  0  0
  156.5430  214.1680  153.9780 O   0  0  0  0  0  0  0  0  0  0  0  0
  158.7040  213.5750  147.9040 C   0  0  0  0  0  2  0  0  0  0  0  0
  158.6270  212.6280  146.7490 C   0  0  0  0  0  0  0  0  0  0  0  0
  159.8010  212.3130  146.0090 N   0  0  0  0  0  1  0  0  0  0  0  0
  157.5190  212.1400  146.3970 O   0  0  0  0  0  0  0  0  0  0  0  0
  1  9  1  1  0  0  0
  2 19  1  0  0  0  0
  2 11  1  0  0  0  0
  3 22  1  0  0  0  0
  4  1  1  0  0  0  0
  4 17  1  0  0  0  0
  5 23  1  0  0  0  0
  6 14  1  0  0  0  0
  6 26  2  0  0  0  0
  7  4  1  0  0  0  0
  7  1  1  0  0  0  0
  8 13  1  0  0  0  0
  8 17  1  0  0  0  0
  9 14  1  0  0  0  0
 10  2  2  0  0  0  0
 11  7  1  0  0  0  0
 12 18  1  0  0  0  0
 13 17  1  0  0  0  0
 15 25  1  0  0  0  0
 15 21  2  0  0  0  0
 16 14  1  0  0  0  0
 16 12  1  0  0  0  0
 16 18  1  0  0  0  0
 17  6  1  0  0  0  0
 19 25  1  0  0  0  0
 20 23  1  0  0  0  0
 20  3  2  0  0  0  0
 21 20  1  0  0  0  0
 23 24  2  0  0  0  0
 24 22  1  0  0  0  0
 24 12  1  0  0  0  0
 25  5  2  0  0  0  0
 27 11  1  0  0  0  0
 28 27  1  0  0  0  0
 29 28  1  0  0  0  0
 30 28  2  0  0  0  0
M  END
>  <MODEL>
4

>  <REMARK>
 VINA RESULT:      -3.0      9.032     13.094
  Name = 
  2 active torsions:
  status: ('A' for Active; 'I' for Inactive)
    1  A    between atoms: C_11  and  C_27
    2  A    between atoms: C_18  and  C_27
                            x       y       z     vdW  Elec       q    Type
                         _______ _______ _______ _____ _____    ______ ____

>  <TORSDO>
F 2

$$$$
=
 OpenBabel11072411113D

 30 36  0  0  1  0  0  0  0  0999 V2000
  161.7470  210.4500  153.5080 C   0  0  2  0  0  3  0  0  0  0  0  0
  159.5970  212.5020  154.1060 C   0  0  0  0  0  0  0  0  0  0  0  0
  159.8820  213.2620  147.7280 N   0  0  0  0  0  0  0  0  0  0  0  0
  160.9640  209.1420  153.7050 C   0  0  1  0  0  3  0  0  0  0  0  0
  160.3740  212.7130  151.1840 C   0  0  0  0  0  3  0  0  0  0  0  0
  162.3950  208.1490  151.7200 C   0  0  0  0  0  0  0  0  0  0  0  0
  160.3530  210.3060  152.9160 C   0  0  1  0  0  3  0  0  0  0  0  0
  160.1330  207.5080  152.1250 O   0  0  0  0  0  0  0  0  0  0  0  0
  162.8500  210.4720  152.4160 C   0  0  0  0  0  2  0  0  0  0  0  0
  160.0310  212.7140  155.2720 O   0  0  0  0  0  0  0  0  0  0  0  0
  159.2690  211.0880  153.6770 C   0  0  1  0  0  3  0  0  0  0  0  0
  162.2040  210.9330  149.2790 C   0  0  1  0  0  3  0  0  0  0  0  0
  160.7660  206.6420  153.0370 C   0  0  0  0  0  2  0  0  0  0  0  0
  162.7100  209.5170  151.2190 C   0  0  2  0  0  3  0  0  0  0  0  0
  158.6730  214.4520  151.0080 C   0  0  0  0  0  3  0  0  0  0  0  0
  161.6310  209.9920  150.2500 C   0  0  2  0  0  3  0  0  0  0  0  0
  161.3020  207.9920  152.7410 C   0  0  2  0  0  0  0  0  0  0  0  0
  161.8340  209.2700  148.5690 S   0  0  0  0  0  0  0  0  0  0  0  0
  159.3690  213.6180  153.2300 N   0  0  0  0  0  2  0  0  0  0  0  0
  159.6420  213.5000  149.0310 C   0  0  2  0  0  3  0  0  0  0  0  0
  158.7550  214.4140  149.5990 C   0  0  0  0  0  3  0  0  0  0  0  0
  160.8100  212.3060  147.6600 N   0  0  0  0  0  0  0  0  0  0  0  0
  160.4250  212.6980  149.7990 C   0  0  0  0  0  0  0  0  0  0  0  0
  161.1540  211.9410  148.9180 C   0  0  0  0  0  0  0  0  0  0  0  0
  159.4600  213.5780  151.8020 C   0  0  0  0  0  0  0  0  0  0  0  0
  163.0360  207.1900  151.3170 O   0  0  0  0  0  0  0  0  0  0  0  0
  158.4440  210.2770  154.6790 C   0  0  0  0  0  2  0  0  0  0  0  0
  157.2740  211.0590  155.1860 C   0  0  0  0  0  0  0  0  0  0  0  0
  157.2030  211.4180  156.5620 N   0  0  0  0  0  1  0  0  0  0  0  0
  156.3270  211.3640  154.4130 O   0  0  0  0  0  0  0  0  0  0  0  0
  1  9  1  6  0  0  0
  1  4  1  0  0  0  0
  2 10  2  0  0  0  0
  3 20  1  0  0  0  0
  5 25  2  0  0  0  0
  6 17  1  0  0  0  0
  7  1  1  0  0  0  0
  7 11  1  0  0  0  0
  7  4  1  0  0  0  0
  8 17  1  0  0  0  0
  8 13  1  0  0  0  0
 11  2  1  0  0  0  0
 11 27  1  0  0  0  0
 12 16  1  0  0  0  0
 14  6  1  0  0  0  0
 14  9  1  0  0  0  0
 15 25  1  0  0  0  0
 16 14  1  0  0  0  0
 17 13  1  0  0  0  0
 17  4  1  0  0  0  0
 18 12  1  0  0  0  0
 18 16  1  0  0  0  0
 19  2  1  0  0  0  0
 20 21  1  0  0  0  0
 20 23  1  0  0  0  0
 21 15  2  0  0  0  0
 22  3  2  0  0  0  0
 22 24  1  0  0  0  0
 23  5  1  0  0  0  0
 24 12  1  0  0  0  0
 24 23  2  0  0  0  0
 25 19  1  0  0  0  0
 26  6  2  0  0  0  0
 27 28  1  0  0  0  0
 28 29  1  0  0  0  0
 30 28  2  0  0  0  0
M  END
>  <MODEL>
5

>  <REMARK>
 VINA RESULT:      -2.8     10.229     12.837
  Name = 
  2 active torsions:
  status: ('A' for Active; 'I' for Inactive)
    1  A    between atoms: C_11  and  C_27
    2  A    between atoms: C_18  and  C_27
                            x       y       z     vdW  Elec       q    Type
                         _______ _______ _______ _____ _____    ______ ____

>  <TORSDO>
F 2

$$$$
=
 OpenBabel11072411113D

 30 36  0  0  1  0  0  0  0  0999 V2000
  161.2140  211.4580  153.5920 C   0  0  2  0  0  3  0  0  0  0  0  0
  161.1980  211.1760  150.5740 C   0  0  0  0  0  0  0  0  0  0  0  0
  161.1330  204.9330  152.1070 N   0  0  0  0  0  0  0  0  0  0  0  0
  159.7740  211.9320  153.8480 C   0  0  1  0  0  3  0  0  0  0  0  0
  161.5290  208.4320  151.8180 C   0  0  0  0  0  3  0  0  0  0  0  0
  159.8460  210.5040  156.0680 C   0  0  0  0  0  0  0  0  0  0  0  0
  160.0550  210.7730  152.8850 C   0  0  1  0  0  3  0  0  0  0  0  0
  157.8520  210.8070  154.7950 O   0  0  0  0  0  0  0  0  0  0  0  0
  161.8730  210.5450  154.6620 C   0  0  0  0  0  2  0  0  0  0  0  0
  161.7980  212.2730  150.4030 O   0  0  0  0  0  0  0  0  0  0  0  0
  159.9280  211.1410  151.3970 C   0  0  1  0  0  3  0  0  0  0  0  0
  161.3460  207.3560  154.8100 C   0  0  1  0  0  3  0  0  0  0  0  0
  157.8100  212.0000  155.5420 C   0  0  0  0  0  2  0  0  0  0  0  0
  160.9600  209.6690  155.5350 C   0  0  2  0  0  3  0  0  0  0  0  0
  161.5170  207.5590  149.5400 C   0  0  0  0  0  3  0  0  0  0  0  0
  160.4070  208.4830  154.7490 C   0  0  2  0  0  3  0  0  0  0  0  0
  159.0920  211.3900  155.1160 C   0  0  2  0  0  0  0  0  0  0  0  0
  159.8370  207.1200  155.8480 S   0  0  0  0  0  0  0  0  0  0  0  0
  161.7050  209.9930  149.9340 N   0  0  0  0  0  2  0  0  0  0  0  0
  161.2920  206.0730  151.4100 C   0  0  0  0  0  0  0  0  0  0  0  0
  161.3720  206.2410  150.0280 C   0  0  0  0  0  3  0  0  0  0  0  0
  161.1150  205.2550  153.4020 N   0  0  0  0  0  2  0  0  0  0  0  0
  161.3830  207.1270  152.2610 C   0  0  0  0  0  0  0  0  0  0  0  0
  161.2610  206.5970  153.5200 C   0  0  0  0  0  0  0  0  0  0  0  0
  161.5640  208.6590  150.4350 C   0  0  0  0  0  0  0  0  0  0  0  0
  159.5810  210.4760  157.2610 O   0  0  0  0  0  0  0  0  0  0  0  0
  158.9050  212.2290  151.0650 C   0  0  0  0  0  2  0  0  0  0  0  0
  159.5570  213.4240  150.4450 C   0  0  0  0  0  0  0  0  0  0  0  0
  160.0880  214.4530  151.2730 N   0  0  0  0  0  1  0  0  0  0  0  0
  159.6000  213.5490  149.1910 O   0  0  0  0  0  0  0  0  0  0  0  0
  1  4  1  0  0  0  0
  1  9  1  1  0  0  0
  2 11  1  0  0  0  0
  3 22  1  0  0  0  0
  4 17  1  0  0  0  0
  5 23  1  0  0  0  0
  6 26  2  0  0  0  0
  7  1  1  0  0  0  0
  7  4  1  0  0  0  0
  8 17  1  0  0  0  0
  8 13  1  0  0  0  0
  9 14  1  0  0  0  0
 10  2  2  0  0  0  0
 11  7  1  0  0  0  0
 12 18  1  0  0  0  0
 14  6  1  0  0  0  0
 15 21  2  0  0  0  0
 15 25  1  0  0  0  0
 16 12  1  0  0  0  0
 16 14  1  0  0  0  0
 16 18  1  0  0  0  0
 17 13  1  0  0  0  0
 17  6  1  0  0  0  0
 19 25  1  0  0  0  0
 19  2  1  0  0  0  0
 20  3  2  0  0  0  0
 20 23  1  0  0  0  0
 21 20  1  0  0  0  0
 22 24  1  0  0  0  0
 23 24  2  0  0  0  0
 24 12  1  0  0  0  0
 25  5  2  0  0  0  0
 27 11  1  0  0  0  0
 28 27  1  0  0  0  0
 28 29  1  0  0  0  0
 30 28  2  0  0  0  0
M  END
>  <MODEL>
6

>  <REMARK>
 VINA RESULT:      -2.5     11.344     14.637
  Name = 
  2 active torsions:
  status: ('A' for Active; 'I' for Inactive)
    1  A    between atoms: C_11  and  C_27
    2  A    between atoms: C_18  and  C_27
                            x       y       z     vdW  Elec       q    Type
                         _______ _______ _______ _____ _____    ______ ____

>  <TORSDO>
F 2

$$$$
=
 OpenBabel11072411113D

 30 36  0  0  1  0  0  0  0  0999 V2000
  160.3370  211.1200  156.3720 C   0  0  2  0  0  3  0  0  0  0  0  0
  158.1880  213.2260  156.0010 C   0  0  0  0  0  0  0  0  0  0  0  0
  159.9700  212.6010  149.8560 N   0  0  0  0  0  0  0  0  0  0  0  0
  159.4810  209.8750  156.6520 C   0  0  1  0  0  3  0  0  0  0  0  0
  159.6280  212.8130  153.3660 C   0  0  0  0  0  3  0  0  0  0  0  0
  161.2930  208.4970  155.3140 C   0  0  0  0  0  0  0  0  0  0  0  0
  159.1140  210.8350  155.5150 C   0  0  1  0  0  3  0  0  0  0  0  0
  158.9760  207.9300  155.3040 O   0  0  0  0  0  0  0  0  0  0  0  0
  161.6640  210.9210  155.5890 C   0  0  0  0  0  2  0  0  0  0  0  0
  158.3490  213.6880  157.1640 O   0  0  0  0  0  0  0  0  0  0  0  0
  157.9140  211.7480  155.8170 C   0  0  1  0  0  3  0  0  0  0  0  0
  161.7790  210.6890  152.3640 C   0  0  1  0  0  3  0  0  0  0  0  0
  159.3460  207.2890  156.5020 C   0  0  0  0  0  2  0  0  0  0  0  0
  161.7680  209.7300  154.6240 C   0  0  2  0  0  3  0  0  0  0  0  0
  158.0820  214.4530  152.4330 C   0  0  0  0  0  3  0  0  0  0  0  0
  160.9620  209.9710  153.3500 C   0  0  2  0  0  3  0  0  0  0  0  0
  159.9890  208.5490  156.0600 C   0  0  2  0  0  0  0  0  0  0  0  0
  161.5200  208.9080  151.9560 S   0  0  0  0  0  0  0  0  0  0  0  0
  158.2120  214.1240  154.8800 N   0  0  0  0  0  2  0  0  0  0  0  0
  159.4450  213.1110  150.9860 C   0  0  2  0  0  3  0  0  0  0  0  0
  158.4860  214.1140  151.1220 C   0  0  0  0  0  3  0  0  0  0  0  0
  160.8520  211.6650  150.2100 N   0  0  0  0  0  0  0  0  0  0  0  0
  159.9970  212.5020  152.0670 C   0  0  0  0  0  0  0  0  0  0  0  0
  160.8810  211.5830  151.5630 C   0  0  0  0  0  0  0  0  0  0  0  0
  158.6300  213.7800  153.5550 C   0  0  0  0  0  0  0  0  0  0  0  0
  161.9720  207.4820  155.2860 O   0  0  0  0  0  0  0  0  0  0  0  0
  156.8490  211.1610  156.7460 C   0  0  0  0  0  2  0  0  0  0  0  0
  155.6140  210.7810  155.9920 C   0  0  0  0  0  0  0  0  0  0  0  0
  154.4300  210.4300  156.7000 N   0  0  0  0  0  1  0  0  0  0  0  0
  155.6270  210.7260  154.7330 O   0  0  0  0  0  0  0  0  0  0  0  0
  1  9  1  6  0  0  0
  1  4  1  0  0  0  0
  2 10  2  0  0  0  0
  3 22  2  0  0  0  0
  3 20  1  0  0  0  0
  5 25  2  0  0  0  0
  6 17  1  0  0  0  0
  7 11  1  0  0  0  0
  7  1  1  0  0  0  0
  7  4  1  0  0  0  0
  8 17  1  0  0  0  0
  8 13  1  0  0  0  0
 11  2  1  0  0  0  0
 11 27  1  0  0  0  0
 12 16  1  0  0  0  0
 14  6  1  0  0  0  0
 14  9  1  0  0  0  0
 15 25  1  0  0  0  0
 16 14  1  0  0  0  0
 17 13  1  0  0  0  0
 17  4  1  0  0  0  0
 18 12  1  0  0  0  0
 18 16  1  0  0  0  0
 19  2  1  0  0  0  0
 20 21  1  0  0  0  0
 20 23  1  0  0  0  0
 21 15  2  0  0  0  0
 22 24  1  0  0  0  0
 23  5  1  0  0  0  0
 24 23  2  0  0  0  0
 24 12  1  0  0  0  0
 25 19  1  0  0  0  0
 26  6  2  0  0  0  0
 28 29  1  0  0  0  0
 28 27  1  0  0  0  0
 30 28  2  0  0  0  0
M  END
>  <MODEL>
7

>  <REMARK>
 VINA RESULT:      -2.1     12.573     15.303
  Name = 
  2 active torsions:
  status: ('A' for Active; 'I' for Inactive)
    1  A    between atoms: C_11  and  C_27
    2  A    between atoms: C_18  and  C_27
                            x       y       z     vdW  Elec       q    Type
                         _______ _______ _______ _____ _____    ______ ____

>  <TORSDO>
F 2

$$$$
=
 OpenBabel11072411113D

 30 36  0  0  1  0  0  0  0  0999 V2000
  161.9870  212.6030  149.1000 C   0  0  2  0  0  3  0  0  0  0  0  0
  162.3520  210.4350  151.1880 C   0  0  0  0  0  0  0  0  0  0  0  0
  156.7740  212.8450  153.2900 N   0  0  0  0  0  0  0  0  0  0  0  0
  161.6040  211.7620  147.8710 C   0  0  1  0  0  3  0  0  0  0  0  0
  159.9670  212.1450  151.9490 C   0  0  0  0  0  2  0  0  0  0  0  0
  159.9960  213.7430  147.1900 C   0  0  0  0  0  0  0  0  0  0  0  0
  160.9690  211.4820  149.2380 C   0  0  1  0  0  3  0  0  0  0  0  0
  159.4970  211.4570  146.7200 O   0  0  0  0  0  0  0  0  0  0  0  0
  161.3400  214.0070  149.2430 C   0  0  0  0  0  2  0  0  0  0  0  0
  163.6100  210.4640  151.0920 O   0  0  0  0  0  0  0  0  0  0  0  0
  161.5140  210.2290  149.9450 C   0  0  1  0  0  3  0  0  0  0  0  0
  158.3690  214.4530  150.4450 C   0  0  1  0  0  3  0  0  0  0  0  0
  160.3260  211.7260  145.6140 C   0  0  0  0  0  2  0  0  0  0  0  0
  159.9670  214.2450  148.5930 C   0  0  2  0  0  3  0  0  0  0  0  0
  159.6890  210.6500  153.8550 C   0  0  0  0  0  3  0  0  0  0  0  0
  158.8510  213.5640  149.3800 C   0  0  2  0  0  3  0  0  0  0  0  0
  160.5490  212.3690  146.9310 C   0  0  2  0  0  0  0  0  0  0  0  0
  157.1980  214.2930  149.0260 S   0  0  0  0  0  0  0  0  0  0  0  0
  161.7450  210.5430  152.4860 N   0  0  0  0  0  2  0  0  0  0  0  0
  157.9520  212.1930  153.2610 C   0  0  0  0  0  0  0  0  0  0  0  0
  158.4120  211.1940  154.1180 C   0  0  0  0  0  3  0  0  0  0  0  0
  156.7740  213.7160  152.2790 N   0  0  0  0  0  0  0  0  0  0  0  0
  158.7100  212.6530  152.2320 C   0  0  0  0  0  0  0  0  0  0  0  0
  157.9500  213.6120  151.6130 C   0  0  0  0  0  0  0  0  0  0  0  0
  160.4550  211.1030  152.7500 C   0  0  0  0  0  0  0  0  0  0  0  0
  159.5980  214.4530  146.2800 O   0  0  0  0  0  0  0  0  0  0  0  0
  161.9760  209.0950  149.0270 C   0  0  0  0  0  2  0  0  0  0  0  0
  161.6510  207.7540  149.6050 C   0  0  0  0  0  0  0  0  0  0  0  0
  162.5700  207.1200  150.4890 N   0  0  0  0  0  1  0  0  0  0  0  0
  160.5880  207.1600  149.2810 O   0  0  0  0  0  0  0  0  0  0  0  0
  1  7  1  0  0  0  0
  1  9  1  6  0  0  0
  2 19  1  0  0  0  0
  4  1  1  0  0  0  0
  4  7  1  0  0  0  0
  5 23  1  0  0  0  0
  5 25  1  0  0  0  0
  6 14  1  0  0  0  0
  7 11  1  0  0  0  0
  8 17  1  0  0  0  0
 10  2  2  0  0  0  0
 11  2  1  0  0  0  0
 12 24  1  0  0  0  0
 13  8  1  0  0  0  0
 13 17  1  0  0  0  0
 14  9  1  0  0  0  0
 14 16  1  0  0  0  0
 15 21  1  0  0  0  0
 16 12  1  0  0  0  0
 17  6  1  0  0  0  0
 17  4  1  0  0  0  0
 18 16  1  0  0  0  0
 18 12  1  0  0  0  0
 19 25  1  0  0  0  0
 20  3  1  0  0  0  0
 20 21  2  0  0  0  0
 22  3  2  0  0  0  0
 23 20  1  0  0  0  0
 24 23  2  0  0  0  0
 24 22  1  0  0  0  0
 25 15  2  0  0  0  0
 26  6  2  0  0  0  0
 27 28  1  0  0  0  0
 27 11  1  0  0  0  0
 28 29  1  0  0  0  0
 30 28  2  0  0  0  0
M  END
>  <MODEL>
8

>  <REMARK>
 VINA RESULT:      -1.9      8.270     11.573
  Name = 
  2 active torsions:
  status: ('A' for Active; 'I' for Inactive)
    1  A    between atoms: C_11  and  C_27
    2  A    between atoms: C_18  and  C_27
                            x       y       z     vdW  Elec       q    Type
                         _______ _______ _______ _____ _____    ______ ____

>  <TORSDO>
F 2

$$$$
=
 OpenBabel11072411113D

 30 36  0  0  1  0  0  0  0  0999 V2000
  162.4730  203.2420  147.0270 C   0  0  2  0  0  3  0  0  0  0  0  0
  161.3180  201.5130  149.2330 C   0  0  0  0  0  0  0  0  0  0  0  0
  160.9750  207.2010  152.2110 N   0  0  0  0  0  0  0  0  0  0  0  0
  161.3040  203.2600  146.0290 C   0  0  1  0  0  3  0  0  0  0  0  0
  161.7060  204.3280  150.2890 C   0  0  0  0  0  2  0  0  0  0  0  0
  161.9880  205.7510  145.4840 C   0  0  0  0  0  0  0  0  0  0  0  0
  161.0540  203.4700  147.5260 C   0  0  1  0  0  3  0  0  0  0  0  0
  159.7270  204.9930  145.4230 O   0  0  0  0  0  0  0  0  0  0  0  0
  163.3470  204.5210  147.1360 C   0  0  0  0  0  2  0  0  0  0  0  0
  161.9560  200.4920  148.8570 O   0  0  0  0  0  0  0  0  0  0  0  0
  160.4440  202.2540  148.2440 C   0  0  1  0  0  3  0  0  0  0  0  0
  162.4850  207.0900  148.9050 C   0  0  1  0  0  3  0  0  0  0  0  0
  160.1230  204.5840  144.1360 C   0  0  0  0  0  2  0  0  0  0  0  0
  162.7060  205.8740  146.7840 C   0  0  2  0  0  3  0  0  0  0  0  0
  160.7460  203.5190  152.3800 C   0  0  0  0  0  3  0  0  0  0  0  0
  161.7500  206.3400  147.8790 C   0  0  2  0  0  3  0  0  0  0  0  0
  161.0660  204.5820  145.2790 C   0  0  2  0  0  0  0  0  0  0  0  0
  161.4420  208.1530  147.8140 S   0  0  0  0  0  0  0  0  0  0  0  0
  161.3910  201.9170  150.6110 N   0  0  0  0  0  2  0  0  0  0  0  0
  161.0200  205.8730  152.0010 C   0  0  0  0  0  0  0  0  0  0  0  0
  160.6120  204.8450  152.8510 C   0  0  0  0  0  3  0  0  0  0  0  0
  161.4740  207.7950  151.1260 N   0  0  0  0  0  0  0  0  0  0  0  0
  161.5570  205.6150  150.7800 C   0  0  0  0  0  0  0  0  0  0  0  0
  161.8330  206.8420  150.2330 C   0  0  0  0  0  0  0  0  0  0  0  0
  161.2640  203.2620  151.0840 C   0  0  0  0  0  0  0  0  0  0  0  0
  162.1760  206.5780  144.6040 O   0  0  0  0  0  0  0  0  0  0  0  0
  159.5270  201.3710  147.3940 C   0  0  0  0  0  2  0  0  0  0  0  0
  160.2530  200.8010  146.2170 C   0  0  0  0  0  0  0  0  0  0  0  0
  159.8340  201.1290  144.8970 N   0  0  0  0  0  1  0  0  0  0  0  0
  161.2060  199.9930  146.3860 O   0  0  0  0  0  0  0  0  0  0  0  0
  1  9  1  6  0  0  0
  1  7  1  0  0  0  0
  2 19  1  0  0  0  0
  4  1  1  0  0  0  0
  4  7  1  0  0  0  0
  5 23  1  0  0  0  0
  5 25  1  0  0  0  0
  6 14  1  0  0  0  0
  7 11  1  0  0  0  0
 10  2  2  0  0  0  0
 11  2  1  0  0  0  0
 12 24  1  0  0  0  0
 13 17  1  0  0  0  0
 13  8  1  0  0  0  0
 14  9  1  0  0  0  0
 14 16  1  0  0  0  0
 15 21  1  0  0  0  0
 16 12  1  0  0  0  0
 17  8  1  0  0  0  0
 17  6  1  0  0  0  0
 17  4  1  0  0  0  0
 18 16  1  0  0  0  0
 18 12  1  0  0  0  0
 19 25  1  0  0  0  0
 20  3  1  0  0  0  0
 20 21  2  0  0  0  0
 22  3  2  0  0  0  0
 23 20  1  0  0  0  0
 24 23  2  0  0  0  0
 24 22  1  0  0  0  0
 25 15  2  0  0  0  0
 26  6  2  0  0  0  0
 27 11  1  0  0  0  0
 28 30  2  0  0  0  0
 28 27  1  0  0  0  0
 29 28  1  0  0  0  0
M  END
>  <MODEL>
9

>  <REMARK>
 VINA RESULT:      -1.4      9.737     12.773
  Name = 
  2 active torsions:
  status: ('A' for Active; 'I' for Inactive)
    1  A    between atoms: C_11  and  C_27
    2  A    between atoms: C_18  and  C_27
                            x       y       z     vdW  Elec       q    Type
                         _______ _______ _______ _____ _____    ______ ____

>  <TORSDO>
F 2

$$$$
