=
 OpenBabel11072410403D

 50 55  0  0  1  0  0  0  0  0999 V2000
  161.1030  210.8590  153.0430 C   0  0  0  0  0  0  0  0  0  0  0  0
  159.3690  211.5410  154.6400 C   0  0  0  0  0  0  0  0  0  0  0  0
  160.2540  211.3980  155.7070 C   0  0  0  0  0  0  0  0  0  0  0  0
  159.8130  211.3350  153.3630 C   0  0  0  0  0  3  0  0  0  0  0  0
  160.1370  212.2300  156.8180 N   0  0  0  0  0  1  0  0  0  0  0  0
  161.9440  210.6670  154.0650 C   0  0  0  0  0  3  0  0  0  0  0  0
  161.5450  210.9670  155.3410 N   0  0  0  0  0  0  0  0  0  0  0  0
  157.9930  212.3060  154.6860 C   0  0  1  0  0  0  0  0  0  0  0  0
  157.7250  212.5100  156.1830 C   0  0  0  0  0  1  0  0  0  0  0  0
  157.7970  213.7540  154.1020 C   0  0  0  0  0  0  0  0  0  0  0  0
  158.7470  214.4010  153.2840 N   0  0  0  0  0  2  0  0  0  0  0  0
  156.6150  214.1840  154.1090 O   0  0  0  0  0  0  0  0  0  0  0  0
  158.4460  214.4510  151.8470 C   0  0  0  0  0  2  0  0  0  0  0  0
  159.7330  214.4200  151.0370 C   0  0  0  0  0  2  0  0  0  0  0  0
  159.9700  213.3570  150.0250 N   0  0  0  0  0  2  0  0  0  0  0  0
  160.9590  213.8830  149.1380 C   0  0  0  0  0  2  0  0  0  0  0  0
  160.7340  213.3560  147.7330 C   0  0  0  0  0  2  0  0  0  0  0  0
  161.6360  213.1660  144.6400 C   0  0  0  0  0  0  0  0  0  0  0  0
  162.1720  212.6760  143.2360 C   0  0  0  0  0  1  0  0  0  0  0  0
  163.0360  213.4850  148.0360 O   0  0  0  0  0  0  0  0  0  0  0  0
  162.5210  213.3480  145.7160 N   0  0  0  0  0  2  0  0  0  0  0  0
  162.1720  213.2550  147.1360 C   0  0  0  0  0  0  0  0  0  0  0  0
  160.4320  213.3320  144.7570 O   0  0  0  0  0  0  0  0  0  0  0  0
  157.0740  211.3980  154.1420 O   0  0  0  0  0  0  0  0  0  0  0  0
  156.0680  211.0910  155.0720 C   0  0  0  0  0  1  0  0  0  0  0  0
  161.3850  210.4200  151.6410 C   0  0  0  0  0  2  0  0  0  0  0  0
  162.4480  209.3240  151.6250 C   0  0  0  0  0  2  0  0  0  0  0  0
  160.9700  205.0930  150.9810 C   0  0  0  0  0  2  0  0  0  0  0  0
  162.7690  206.7550  151.5810 C   0  0  1  0  0  3  0  0  0  0  0  0
  162.9140  204.3950  152.1140 O   0  0  0  0  0  1  0  0  0  0  0  0
  161.7860  207.9610  151.5540 C   0  0  1  0  0  0  0  0  0  0  0  0
  160.6620  206.9160  153.6040 C   0  0  0  0  0  2  0  0  0  0  0  0
  162.0460  205.4820  151.9960 C   0  0  2  0  0  0  0  0  0  0  0  0
  162.8150  207.8860  149.4260 O   0  0  0  0  0  1  0  0  0  0  0  0
  160.4590  207.7610  152.2790 C   0  0  0  0  0  2  0  0  0  0  0  0
  161.1990  205.5420  153.3000 C   0  0  0  0  0  2  0  0  0  0  0  0
  162.0660  207.1230  150.3580 C   0  0  1  0  0  0  0  0  0  0  0  0
  161.4160  205.9260  149.7640 C   0  0  2  0  0  3  0  0  0  0  0  0
  160.8910  205.5090  147.4860 C   0  0  1  0  0  0  0  0  0  0  0  0
  159.5720  205.7710  147.9960 O   0  0  0  0  0  0  0  0  0  0  0  0
  160.6020  206.4510  148.6560 C   0  0  1  0  0  3  0  0  0  0  0  0
  160.9680  201.1200  147.3990 C   0  0  0  0  0  3  0  0  0  0  0  0
  161.1500  201.7600  148.6320 C   0  0  0  0  0  3  0  0  0  0  0  0
  161.0750  203.9290  147.5140 C   0  0  0  0  0  0  0  0  0  0  0  0
  161.1160  203.1720  148.7220 C   0  0  0  0  0  3  0  0  0  0  0  0
  160.8910  201.8470  146.2440 C   0  0  0  0  0  3  0  0  0  0  0  0
  161.3160  203.7920  145.0320 O   0  0  0  0  0  1  0  0  0  0  0  0
  161.1350  203.1980  146.2540 C   0  0  0  0  0  0  0  0  0  0  0  0
  161.4250  206.2510  146.2070 C   0  0  0  0  0  2  0  0  0  0  0  0
  160.5170  206.5740  145.1610 O   0  0  0  0  0  1  0  0  0  0  0  0
  1  4  2  0  0  0  0
  1  6  1  0  0  0  0
  2  8  1  0  0  0  0
  2  3  2  0  0  0  0
  3  5  1  0  0  0  0
  4  2  1  0  0  0  0
  6  7  2  0  0  0  0
  7  3  1  0  0  0  0
  8  9  1  1  0  0  0
 10 12  2  0  0  0  0
 10  8  1  0  0  0  0
 11 10  1  0  0  0  0
 13 11  1  0  0  0  0
 14 13  1  0  0  0  0
 15 14  1  0  0  0  0
 16 15  1  0  0  0  0
 17 16  1  0  0  0  0
 18 23  2  0  0  0  0
 18 21  1  0  0  0  0
 19 18  1  0  0  0  0
 21 22  1  0  0  0  0
 22 17  1  0  0  0  0
 22 20  2  0  0  0  0
 24  8  1  0  0  0  0
 24 25  1  0  0  0  0
 26  1  1  0  0  0  0
 27 26  1  0  0  0  0
 28 33  1  0  0  0  0
 29 33  1  0  0  0  0
 31 29  1  0  0  0  0
 31 27  1  0  0  0  0
 31 35  1  0  0  0  0
 33 30  1  0  0  0  0
 33 36  1  0  0  0  0
 34 37  1  0  0  0  0
 35 32  1  0  0  0  0
 36 32  1  0  0  0  0
 37 31  1  0  0  0  0
 37 29  1  0  0  0  0
 38 37  1  0  0  0  0
 38 28  1  0  0  0  0
 39 44  1  0  0  0  0
 39 40  1  0  0  0  0
 39 41  1  0  0  0  0
 40 41  1  0  0  0  0
 41 38  1  0  0  0  0
 42 43  1  0  0  0  0
 43 45  2  0  0  0  0
 44 45  1  0  0  0  0
 46 48  1  0  0  0  0
 46 42  2  0  0  0  0
 47 48  1  0  0  0  0
 48 44  2  0  0  0  0
 49 39  1  0  0  0  0
 50 49  1  0  0  0  0
M  END
>  <MODEL>
1

>  <REMARK>
 VINA RESULT:      -7.5      0.000      0.000
  Name = 
  15 active torsions:
  status: ('A' for Active; 'I' for Inactive)
    1  A    between atoms: C_1  and  C_34
    2  A    between atoms: C_2  and  C_22
    3  A    between atoms: C_4  and  C_20
    4  A    between atoms: C_4  and  C_29
    5  A    between atoms: C_5  and  C_33
    6  A    between atoms: C_5  and  C_49
    7  A    between atoms: O_6  and  C_22
    8  A    between atoms: C_13  and  C_50
    9  A    between atoms: C_18  and  C_22
   10  A    between atoms: C_21  and  C_37
   11  A    between atoms: C_26  and  N_30
   12  A    between atoms: C_26  and  C_48
   13  A    between atoms: C_34  and  C_37
   14  A    between atoms: N_39  and  C_48
   15  A    between atoms: N_39  and  C_49
                            x       y       z     vdW  Elec       q    Type
                         _______ _______ _______ _____ _____    ______ ____

>  <TORSDO>
F 15

$$$$
=
 OpenBabel11072410403D

 50 55  0  0  1  0  0  0  0  0999 V2000
  160.7990  203.0860  150.1290 C   0  0  0  0  0  0  0  0  0  0  0  0
  161.3800  203.4330  147.7710 C   0  0  0  0  0  0  0  0  0  0  0  0
  161.0980  202.1010  147.4750 C   0  0  0  0  0  0  0  0  0  0  0  0
  161.1730  203.9010  149.0390 C   0  0  0  0  0  3  0  0  0  0  0  0
  160.5920  201.7640  146.2220 N   0  0  0  0  0  1  0  0  0  0  0  0
  160.5780  201.7930  149.8670 C   0  0  0  0  0  3  0  0  0  0  0  0
  160.6830  201.3320  148.5810 N   0  0  0  0  0  0  0  0  0  0  0  0
  161.5400  204.5930  146.7170 C   0  0  1  0  0  0  0  0  0  0  0  0
  162.5060  205.5790  147.3860 C   0  0  0  0  0  1  0  0  0  0  0  0
  162.1910  204.3810  145.3000 C   0  0  0  0  0  0  0  0  0  0  0  0
  161.5620  204.7440  144.0910 N   0  0  0  0  0  2  0  0  0  0  0  0
  163.4340  204.1880  145.3000 O   0  0  0  0  0  0  0  0  0  0  0  0
  162.0480  205.9710  143.4450 C   0  0  0  0  0  2  0  0  0  0  0  0
  161.7900  205.9160  141.9470 C   0  0  0  0  0  2  0  0  0  0  0  0
  161.5060  207.1560  141.1780 N   0  0  0  0  0  2  0  0  0  0  0  0
  162.4690  207.1860  140.1240 C   0  0  0  0  0  2  0  0  0  0  0  0
  162.1750  208.3360  139.1790 C   0  0  0  0  0  2  0  0  0  0  0  0
  159.3710  209.1120  137.7830 C   0  0  0  0  0  0  0  0  0  0  0  0
  157.8700  209.1340  137.2850 C   0  0  0  0  0  1  0  0  0  0  0  0
  162.2440  206.8340  137.4060 O   0  0  0  0  0  0  0  0  0  0  0  0
  160.2750  208.1640  137.2760 N   0  0  0  0  0  2  0  0  0  0  0  0
  161.4600  207.6550  137.9710 C   0  0  0  0  0  0  0  0  0  0  0  0
  159.6890  209.9130  138.6480 O   0  0  0  0  0  0  0  0  0  0  0  0
  160.2580  205.1510  146.6210 O   0  0  0  0  0  0  0  0  0  0  0  0
  160.3330  206.5300  146.3660 C   0  0  0  0  0  1  0  0  0  0  0  0
  160.8630  203.6530  151.5120 C   0  0  0  0  0  2  0  0  0  0  0  0
  162.0050  204.6580  151.6300 C   0  0  0  0  0  2  0  0  0  0  0  0
  160.7920  208.9100  152.6050 C   0  0  0  0  0  2  0  0  0  0  0  0
  162.5170  207.1660  152.0220 C   0  0  1  0  0  3  0  0  0  0  0  0
  162.9120  209.5470  151.7980 O   0  0  0  0  0  1  0  0  0  0  0  0
  161.4480  206.0610  151.7880 C   0  0  1  0  0  0  0  0  0  0  0  0
  160.6770  207.4240  149.7630 C   0  0  0  0  0  2  0  0  0  0  0  0
  161.9530  208.5390  151.6820 C   0  0  2  0  0  0  0  0  0  0  0  0
  162.2020  205.8050  154.0140 O   0  0  0  0  0  1  0  0  0  0  0  0
  160.2430  206.4600  150.9420 C   0  0  0  0  0  2  0  0  0  0  0  0
  161.2760  208.7010  150.2910 C   0  0  0  0  0  2  0  0  0  0  0  0
  161.6390  206.7310  153.1000 C   0  0  1  0  0  0  0  0  0  0  0  0
  161.0140  207.9100  153.7550 C   0  0  2  0  0  3  0  0  0  0  0  0
  160.0160  208.3130  155.8720 C   0  0  1  0  0  0  0  0  0  0  0  0
  158.8460  207.9590  155.1140 O   0  0  0  0  0  0  0  0  0  0  0  0
  160.0280  207.3430  154.6890 C   0  0  1  0  0  3  0  0  0  0  0  0
  160.2660  212.6790  156.2570 C   0  0  0  0  0  3  0  0  0  0  0  0
  159.1410  212.1350  155.6230 C   0  0  0  0  0  3  0  0  0  0  0  0
  160.1010  209.9010  155.8440 C   0  0  0  0  0  0  0  0  0  0  0  0
  159.0000  210.7330  155.4880 C   0  0  0  0  0  3  0  0  0  0  0  0
  161.3070  211.8770  156.6340 C   0  0  0  0  0  3  0  0  0  0  0  0
  162.5280  209.9010  156.4370 O   0  0  0  0  0  1  0  0  0  0  0  0
  161.3340  210.5540  156.2690 C   0  0  0  0  0  0  0  0  0  0  0  0
  160.3270  207.6200  157.2490 C   0  0  0  0  0  2  0  0  0  0  0  0
  160.8600  206.3020  157.2590 O   0  0  0  0  0  1  0  0  0  0  0  0
  1 26  1  0  0  0  0
  2  4  1  0  0  0  0
  3  2  2  0  0  0  0
  3  7  1  0  0  0  0
  4  1  2  0  0  0  0
  5  3  1  0  0  0  0
  6  1  1  0  0  0  0
  7  6  2  0  0  0  0
  8  9  1  1  0  0  0
  8  2  1  0  0  0  0
 10  8  1  0  0  0  0
 11 10  1  0  0  0  0
 12 10  2  0  0  0  0
 13 11  1  0  0  0  0
 14 13  1  0  0  0  0
 15 14  1  0  0  0  0
 16 15  1  0  0  0  0
 17 16  1  0  0  0  0
 18 23  2  0  0  0  0
 19 18  1  0  0  0  0
 20 22  2  0  0  0  0
 21 18  1  0  0  0  0
 21 22  1  0  0  0  0
 22 17  1  0  0  0  0
 24  8  1  0  0  0  0
 25 24  1  0  0  0  0
 26 27  1  0  0  0  0
 27 31  1  0  0  0  0
 28 38  1  0  0  0  0
 29 37  1  0  0  0  0
 31 29  1  0  0  0  0
 31 37  1  0  0  0  0
 32 36  1  0  0  0  0
 32 35  1  0  0  0  0
 33 30  1  0  0  0  0
 33 29  1  0  0  0  0
 33 28  1  0  0  0  0
 35 31  1  0  0  0  0
 36 33  1  0  0  0  0
 37 38  1  0  0  0  0
 37 34  1  0  0  0  0
 38 41  1  0  0  0  0
 39 49  1  0  0  0  0
 40 39  1  0  0  0  0
 41 40  1  0  0  0  0
 41 39  1  0  0  0  0
 42 46  1  0  0  0  0
 43 42  2  0  0  0  0
 44 39  1  0  0  0  0
 44 48  1  0  0  0  0
 45 43  1  0  0  0  0
 45 44  2  0  0  0  0
 48 47  1  0  0  0  0
 48 46  2  0  0  0  0
 49 50  1  0  0  0  0
M  END
>  <MODEL>
2

>  <REMARK>
 VINA RESULT:      -6.6      4.769      9.978
  Name = 
  15 active torsions:
  status: ('A' for Active; 'I' for Inactive)
    1  A    between atoms: C_1  and  C_34
    2  A    between atoms: C_2  and  C_22
    3  A    between atoms: C_4  and  C_20
    4  A    between atoms: C_4  and  C_29
    5  A    between atoms: C_5  and  C_33
    6  A    between atoms: C_5  and  C_49
    7  A    between atoms: O_6  and  C_22
    8  A    between atoms: C_13  and  C_50
    9  A    between atoms: C_18  and  C_22
   10  A    between atoms: C_21  and  C_37
   11  A    between atoms: C_26  and  N_30
   12  A    between atoms: C_26  and  C_48
   13  A    between atoms: C_34  and  C_37
   14  A    between atoms: N_39  and  C_48
   15  A    between atoms: N_39  and  C_49
                            x       y       z     vdW  Elec       q    Type
                         _______ _______ _______ _____ _____    ______ ____

>  <TORSDO>
F 15

$$$$
=
 OpenBabel11072410403D

 50 55  0  0  1  0  0  0  0  0999 V2000
  160.9990  206.9380  154.7050 C   0  0  0  0  0  0  0  0  0  0  0  0
  160.0770  209.2120  154.7030 C   0  0  0  0  0  0  0  0  0  0  0  0
  159.6530  209.0730  156.0230 C   0  0  0  0  0  0  0  0  0  0  0  0
  160.7740  208.1970  154.1080 C   0  0  0  0  0  3  0  0  0  0  0  0
  159.6320  210.1840  156.8630 N   0  0  0  0  0  1  0  0  0  0  0  0
  160.5480  206.7750  155.9540 C   0  0  0  0  0  3  0  0  0  0  0  0
  159.9380  207.8190  156.5990 N   0  0  0  0  0  0  0  0  0  0  0  0
  160.2000  210.5720  153.9170 C   0  0  1  0  0  0  0  0  0  0  0  0
  160.1900  210.1550  152.4410 C   0  0  0  0  0  1  0  0  0  0  0  0
  159.0970  211.6930  153.9650 C   0  0  0  0  0  0  0  0  0  0  0  0
  159.3040  213.0110  153.5080 N   0  0  0  0  0  2  0  0  0  0  0  0
  157.9160  211.2840  154.1130 O   0  0  0  0  0  0  0  0  0  0  0  0
  158.7120  213.3510  152.2070 C   0  0  0  0  0  2  0  0  0  0  0  0
  159.8010  213.7320  151.2150 C   0  0  0  0  0  2  0  0  0  0  0  0
  159.5460  213.6920  149.7520 N   0  0  0  0  0  2  0  0  0  0  0  0
  160.8290  213.7940  149.1330 C   0  0  0  0  0  2  0  0  0  0  0  0
  161.2890  212.4300  148.6540 C   0  0  0  0  0  2  0  0  0  0  0  0
  160.1490  212.5130  145.6360 C   0  0  0  0  0  0  0  0  0  0  0  0
  159.8170  212.1980  144.1220 C   0  0  0  0  0  1  0  0  0  0  0  0
  163.2060  213.1930  147.5810 O   0  0  0  0  0  0  0  0  0  0  0  0
  161.4380  212.9300  146.0100 N   0  0  0  0  0  2  0  0  0  0  0  0
  162.0510  212.7360  147.3260 C   0  0  0  0  0  0  0  0  0  0  0  0
  159.2620  212.3370  146.4560 O   0  0  0  0  0  0  0  0  0  0  0  0
  161.4600  211.0680  154.2790 O   0  0  0  0  0  0  0  0  0  0  0  0
  162.4490  210.6060  153.3960 C   0  0  0  0  0  1  0  0  0  0  0  0
  161.5350  205.8230  153.8640 C   0  0  0  0  0  2  0  0  0  0  0  0
  160.5860  205.5160  152.7090 C   0  0  0  0  0  2  0  0  0  0  0  0
  162.0090  206.2720  148.4770 C   0  0  0  0  0  2  0  0  0  0  0  0
  160.3480  206.5630  150.3520 C   0  0  1  0  0  3  0  0  0  0  0  0
  160.4090  208.0010  148.4030 O   0  0  0  0  0  1  0  0  0  0  0  0
  161.2570  205.8390  151.3870 C   0  0  1  0  0  0  0  0  0  0  0  0
  162.8650  207.8180  151.1560 C   0  0  0  0  0  2  0  0  0  0  0  0
  161.1900  207.2690  149.2990 C   0  0  2  0  0  0  0  0  0  0  0  0
  159.7600  204.2090  150.5530 O   0  0  0  0  0  1  0  0  0  0  0  0
  162.7230  206.2600  151.4020 C   0  0  0  0  0  2  0  0  0  0  0  0
  162.3160  208.2120  149.8100 C   0  0  0  0  0  2  0  0  0  0  0  0
  160.7310  205.1690  150.1690 C   0  0  1  0  0  0  0  0  0  0  0  0
  161.2620  204.9630  148.7960 C   0  0  2  0  0  3  0  0  0  0  0  0
  161.3820  203.0290  147.4240 C   0  0  1  0  0  0  0  0  0  0  0  0
  162.7330  203.0620  147.9160 O   0  0  0  0  0  0  0  0  0  0  0  0
  161.7760  203.5830  148.7930 C   0  0  1  0  0  3  0  0  0  0  0  0
  161.4360  205.4730  143.7770 C   0  0  0  0  0  3  0  0  0  0  0  0
  160.3610  204.5960  143.9690 C   0  0  0  0  0  3  0  0  0  0  0  0
  161.4020  203.7710  146.0170 C   0  0  0  0  0  0  0  0  0  0  0  0
  160.2820  203.7990  145.1360 C   0  0  0  0  0  3  0  0  0  0  0  0
  162.4940  205.4740  144.6430 C   0  0  0  0  0  3  0  0  0  0  0  0
  163.8020  204.4200  146.2590 O   0  0  0  0  0  1  0  0  0  0  0  0
  162.5900  204.5220  145.6270 C   0  0  0  0  0  0  0  0  0  0  0  0
  160.5230  201.7140  147.5080 C   0  0  0  0  0  2  0  0  0  0  0  0
  160.9510  200.6570  148.3580 O   0  0  0  0  0  1  0  0  0  0  0  0
  1  6  1  0  0  0  0
  2  3  2  0  0  0  0
  3  7  1  0  0  0  0
  3  5  1  0  0  0  0
  4  2  1  0  0  0  0
  4  1  2  0  0  0  0
  6  7  2  0  0  0  0
  8  9  1  6  0  0  0
  8 10  1  0  0  0  0
  8 24  1  0  0  0  0
  8  2  1  0  0  0  0
 10 12  2  0  0  0  0
 11 10  1  0  0  0  0
 13 11  1  0  0  0  0
 14 13  1  0  0  0  0
 15 14  1  0  0  0  0
 16 15  1  0  0  0  0
 17 16  1  0  0  0  0
 18 21  1  0  0  0  0
 18 23  2  0  0  0  0
 19 18  1  0  0  0  0
 21 22  1  0  0  0  0
 22 20  2  0  0  0  0
 22 17  1  0  0  0  0
 25 24  1  0  0  0  0
 26  1  1  0  0  0  0
 27 26  1  0  0  0  0
 28 38  1  0  0  0  0
 28 33  1  0  0  0  0
 29 31  1  0  0  0  0
 30 33  1  0  0  0  0
 31 35  1  0  0  0  0
 31 27  1  0  0  0  0
 32 35  1  0  0  0  0
 33 36  1  0  0  0  0
 33 29  1  0  0  0  0
 36 32  1  0  0  0  0
 37 29  1  0  0  0  0
 37 34  1  0  0  0  0
 37 31  1  0  0  0  0
 38 37  1  0  0  0  0
 39 49  1  0  0  0  0
 39 40  1  0  0  0  0
 39 41  1  0  0  0  0
 40 41  1  0  0  0  0
 41 38  1  0  0  0  0
 42 43  2  0  0  0  0
 42 46  1  0  0  0  0
 43 45  1  0  0  0  0
 44 39  1  0  0  0  0
 45 44  2  0  0  0  0
 46 48  2  0  0  0  0
 48 44  1  0  0  0  0
 48 47  1  0  0  0  0
 49 50  1  0  0  0  0
M  END
>  <MODEL>
3

>  <REMARK>
 VINA RESULT:      -6.2      1.901      3.498
  Name = 
  15 active torsions:
  status: ('A' for Active; 'I' for Inactive)
    1  A    between atoms: C_1  and  C_34
    2  A    between atoms: C_2  and  C_22
    3  A    between atoms: C_4  and  C_20
    4  A    between atoms: C_4  and  C_29
    5  A    between atoms: C_5  and  C_33
    6  A    between atoms: C_5  and  C_49
    7  A    between atoms: O_6  and  C_22
    8  A    between atoms: C_13  and  C_50
    9  A    between atoms: C_18  and  C_22
   10  A    between atoms: C_21  and  C_37
   11  A    between atoms: C_26  and  N_30
   12  A    between atoms: C_26  and  C_48
   13  A    between atoms: C_34  and  C_37
   14  A    between atoms: N_39  and  C_48
   15  A    between atoms: N_39  and  C_49
                            x       y       z     vdW  Elec       q    Type
                         _______ _______ _______ _____ _____    ______ ____

>  <TORSDO>
F 15

$$$$
=
 OpenBabel11072410403D

 50 55  0  0  1  0  0  0  0  0999 V2000
  161.1830  207.1420  154.5530 C   0  0  0  0  0  0  0  0  0  0  0  0
  160.3190  209.4370  154.4740 C   0  0  0  0  0  0  0  0  0  0  0  0
  159.5490  209.2180  155.6130 C   0  0  0  0  0  0  0  0  0  0  0  0
  161.1430  208.4470  154.0150 C   0  0  0  0  0  3  0  0  0  0  0  0
  159.3090  210.2660  156.4980 N   0  0  0  0  0  1  0  0  0  0  0  0
  160.4060  206.9040  155.6150 C   0  0  0  0  0  3  0  0  0  0  0  0
  159.6530  207.9170  156.1480 N   0  0  0  0  0  0  0  0  0  0  0  0
  160.6660  210.8450  153.8580 C   0  0  1  0  0  0  0  0  0  0  0  0
  161.5440  210.5180  152.6430 C   0  0  0  0  0  1  0  0  0  0  0  0
  159.5790  211.8050  153.2480 C   0  0  0  0  0  0  0  0  0  0  0  0
  158.4130  212.2020  153.9360 N   0  0  0  0  0  2  0  0  0  0  0  0
  159.9500  212.4790  152.2530 O   0  0  0  0  0  0  0  0  0  0  0  0
  158.4120  213.5630  154.4890 C   0  0  0  0  0  2  0  0  0  0  0  0
  157.3040  214.3890  153.8540 C   0  0  0  0  0  2  0  0  0  0  0  0
  156.0730  213.7390  153.3350 N   0  0  0  0  0  2  0  0  0  0  0  0
  155.7320  214.4530  152.1450 C   0  0  0  0  0  2  0  0  0  0  0  0
  156.8650  214.3640  151.1400 C   0  0  0  0  0  2  0  0  0  0  0  0
  158.1190  213.4630  148.3070 C   0  0  0  0  0  0  0  0  0  0  0  0
  158.6430  213.4210  146.8150 C   0  0  0  0  0  1  0  0  0  0  0  0
  154.8830  214.1060  149.9510 O   0  0  0  0  0  0  0  0  0  0  0  0
  156.7430  213.5460  148.5750 N   0  0  0  0  0  2  0  0  0  0  0  0
  156.1400  214.1230  149.7790 C   0  0  0  0  0  0  0  0  0  0  0  0
  158.9540  213.4660  149.1970 O   0  0  0  0  0  0  0  0  0  0  0  0
  161.4210  211.4810  154.8530 O   0  0  0  0  0  0  0  0  0  0  0  0
  162.5330  210.7020  155.2100 C   0  0  0  0  0  1  0  0  0  0  0  0
  161.9190  206.0740  153.8070 C   0  0  0  0  0  2  0  0  0  0  0  0
  160.9930  205.3750  152.8150 C   0  0  0  0  0  2  0  0  0  0  0  0
  161.6960  206.0320  148.3900 C   0  0  0  0  0  2  0  0  0  0  0  0
  160.3310  206.3100  150.4920 C   0  0  1  0  0  3  0  0  0  0  0  0
  160.0040  207.6670  148.5120 O   0  0  0  0  0  1  0  0  0  0  0  0
  161.4300  205.6790  151.3940 C   0  0  1  0  0  0  0  0  0  0  0  0
  162.8620  207.7310  150.8510 C   0  0  0  0  0  2  0  0  0  0  0  0
  160.9560  207.0160  149.2980 C   0  0  2  0  0  0  0  0  0  0  0  0
  159.9230  203.9380  150.8580 O   0  0  0  0  0  1  0  0  0  0  0  0
  162.8540  206.1790  151.1660 C   0  0  0  0  0  2  0  0  0  0  0  0
  162.0890  208.0390  149.5950 C   0  0  0  0  0  2  0  0  0  0  0  0
  160.7640  204.9320  150.2960 C   0  0  1  0  0  0  0  0  0  0  0  0
  161.0870  204.6990  148.8640 C   0  0  2  0  0  3  0  0  0  0  0  0
  161.3910  202.8460  147.4110 C   0  0  1  0  0  0  0  0  0  0  0  0
  162.7070  202.9250  147.9820 O   0  0  0  0  0  0  0  0  0  0  0  0
  161.6760  203.3500  148.8260 C   0  0  1  0  0  3  0  0  0  0  0  0
  161.5510  205.4730  143.8960 C   0  0  0  0  0  3  0  0  0  0  0  0
  160.4570  204.6070  144.0250 C   0  0  0  0  0  3  0  0  0  0  0  0
  161.4480  203.6590  146.0450 C   0  0  0  0  0  0  0  0  0  0  0  0
  160.3440  203.7520  145.1470 C   0  0  0  0  0  3  0  0  0  0  0  0
  162.5940  205.4100  144.7780 C   0  0  0  0  0  3  0  0  0  0  0  0
  163.8550  204.2500  146.3590 O   0  0  0  0  0  1  0  0  0  0  0  0
  162.6560  204.4070  145.7140 C   0  0  0  0  0  0  0  0  0  0  0  0
  160.6030  201.4850  147.3810 C   0  0  0  0  0  2  0  0  0  0  0  0
  161.2930  200.2760  147.6700 O   0  0  0  0  0  1  0  0  0  0  0  0
  1  6  1  0  0  0  0
  2  3  2  0  0  0  0
  3  7  1  0  0  0  0
  3  5  1  0  0  0  0
  4  2  1  0  0  0  0
  4  1  2  0  0  0  0
  6  7  2  0  0  0  0
  8  9  1  6  0  0  0
  8  2  1  0  0  0  0
  8 24  1  0  0  0  0
 10  8  1  0  0  0  0
 10 11  1  0  0  0  0
 11 13  1  0  0  0  0
 12 10  2  0  0  0  0
 14 13  1  0  0  0  0
 15 14  1  0  0  0  0
 16 15  1  0  0  0  0
 17 16  1  0  0  0  0
 18 21  1  0  0  0  0
 18 23  2  0  0  0  0
 19 18  1  0  0  0  0
 21 22  1  0  0  0  0
 22 20  2  0  0  0  0
 22 17  1  0  0  0  0
 24 25  1  0  0  0  0
 26  1  1  0  0  0  0
 27 26  1  0  0  0  0
 28 38  1  0  0  0  0
 28 33  1  0  0  0  0
 29 31  1  0  0  0  0
 30 33  1  0  0  0  0
 31 27  1  0  0  0  0
 32 35  1  0  0  0  0
 33 36  1  0  0  0  0
 33 29  1  0  0  0  0
 35 31  1  0  0  0  0
 36 32  1  0  0  0  0
 37 29  1  0  0  0  0
 37 34  1  0  0  0  0
 37 31  1  0  0  0  0
 38 37  1  0  0  0  0
 39 40  1  0  0  0  0
 39 41  1  0  0  0  0
 40 41  1  0  0  0  0
 41 38  1  0  0  0  0
 42 43  2  0  0  0  0
 42 46  1  0  0  0  0
 43 45  1  0  0  0  0
 44 39  1  0  0  0  0
 45 44  2  0  0  0  0
 46 48  2  0  0  0  0
 48 44  1  0  0  0  0
 48 47  1  0  0  0  0
 49 39  1  0  0  0  0
 49 50  1  0  0  0  0
M  END
>  <MODEL>
4

>  <REMARK>
 VINA RESULT:      -5.9      2.527      4.358
  Name = 
  15 active torsions:
  status: ('A' for Active; 'I' for Inactive)
    1  A    between atoms: C_1  and  C_34
    2  A    between atoms: C_2  and  C_22
    3  A    between atoms: C_4  and  C_20
    4  A    between atoms: C_4  and  C_29
    5  A    between atoms: C_5  and  C_33
    6  A    between atoms: C_5  and  C_49
    7  A    between atoms: O_6  and  C_22
    8  A    between atoms: C_13  and  C_50
    9  A    between atoms: C_18  and  C_22
   10  A    between atoms: C_21  and  C_37
   11  A    between atoms: C_26  and  N_30
   12  A    between atoms: C_26  and  C_48
   13  A    between atoms: C_34  and  C_37
   14  A    between atoms: N_39  and  C_48
   15  A    between atoms: N_39  and  C_49
                            x       y       z     vdW  Elec       q    Type
                         _______ _______ _______ _____ _____    ______ ____

>  <TORSDO>
F 15

$$$$
=
 OpenBabel11072410403D

 50 55  0  0  1  0  0  0  0  0999 V2000
  161.3080  207.6490  153.4300 C   0  0  0  0  0  0  0  0  0  0  0  0
  160.1620  209.1530  154.9930 C   0  0  0  0  0  0  0  0  0  0  0  0
  159.9550  208.1090  155.8920 C   0  0  0  0  0  0  0  0  0  0  0  0
  160.8670  208.9240  153.8440 C   0  0  0  0  0  3  0  0  0  0  0  0
  159.9410  208.3670  157.2610 N   0  0  0  0  0  1  0  0  0  0  0  0
  161.0660  206.6290  154.2600 C   0  0  0  0  0  3  0  0  0  0  0  0
  160.4520  206.8620  155.4630 N   0  0  0  0  0  0  0  0  0  0  0  0
  160.0240  210.6870  155.3220 C   0  0  1  0  0  0  0  0  0  0  0  0
  160.7060  211.3880  154.1400 C   0  0  0  0  0  1  0  0  0  0  0  0
  158.6360  211.4250  155.4050 C   0  0  0  0  0  0  0  0  0  0  0  0
  158.4680  212.8020  155.1480 N   0  0  0  0  0  2  0  0  0  0  0  0
  157.6240  210.6790  155.3760 O   0  0  0  0  0  0  0  0  0  0  0  0
  157.8800  213.1570  153.8490 C   0  0  0  0  0  2  0  0  0  0  0  0
  158.5310  214.4190  153.3020 C   0  0  0  0  0  2  0  0  0  0  0  0
  159.1880  214.4190  151.9700 N   0  0  0  0  0  2  0  0  0  0  0  0
  158.2610  213.7920  151.0820 C   0  0  0  0  0  2  0  0  0  0  0  0
  158.7980  213.8170  149.6630 C   0  0  0  0  0  2  0  0  0  0  0  0
  158.7820  212.6980  146.6360 C   0  0  0  0  0  0  0  0  0  0  0  0
  158.5960  212.5250  145.0750 C   0  0  0  0  0  1  0  0  0  0  0  0
  156.5490  213.2460  149.5170 O   0  0  0  0  0  0  0  0  0  0  0  0
  157.6680  212.6910  147.4910 N   0  0  0  0  0  2  0  0  0  0  0  0
  157.5860  213.3520  148.7960 C   0  0  0  0  0  0  0  0  0  0  0  0
  159.9160  212.8810  147.0510 O   0  0  0  0  0  0  0  0  0  0  0  0
  160.7730  210.8590  156.4940 O   0  0  0  0  0  0  0  0  0  0  0  0
  162.1460  210.9080  156.2040 C   0  0  0  0  0  1  0  0  0  0  0  0
  161.8280  207.4790  152.0370 C   0  0  0  0  0  2  0  0  0  0  0  0
  160.7100  207.0460  151.0940 C   0  0  0  0  0  2  0  0  0  0  0  0
  161.8820  204.9680  147.2450 C   0  0  0  0  0  2  0  0  0  0  0  0
  160.3160  206.3870  148.6200 C   0  0  1  0  0  3  0  0  0  0  0  0
  160.2320  206.2850  146.2000 O   0  0  0  0  0  1  0  0  0  0  0  0
  161.2990  206.4620  149.8230 C   0  0  1  0  0  0  0  0  0  0  0  0
  162.8340  207.8430  148.3090 C   0  0  0  0  0  2  0  0  0  0  0  0
  161.0790  206.2680  147.3090 C   0  0  2  0  0  0  0  0  0  0  0  0
  159.8080  204.6850  150.2850 O   0  0  0  0  0  1  0  0  0  0  0  0
  162.7520  206.7840  149.4850 C   0  0  0  0  0  2  0  0  0  0  0  0
  162.2040  207.3110  147.0480 C   0  0  0  0  0  2  0  0  0  0  0  0
  160.7300  205.1820  149.3280 C   0  0  1  0  0  0  0  0  0  0  0  0
  161.1930  204.1560  148.3570 C   0  0  2  0  0  3  0  0  0  0  0  0
  160.9680  201.8270  148.7650 C   0  0  1  0  0  0  0  0  0  0  0  0
  162.4010  201.9300  148.7220 O   0  0  0  0  0  0  0  0  0  0  0  0
  161.7450  203.0740  149.1890 C   0  0  1  0  0  3  0  0  0  0  0  0
  160.1350  200.7280  144.5960 C   0  0  0  0  0  3  0  0  0  0  0  0
  159.4310  201.8060  145.1490 C   0  0  0  0  0  3  0  0  0  0  0  0
  160.5080  201.4020  147.3020 C   0  0  0  0  0  0  0  0  0  0  0  0
  159.6730  202.2160  146.4820 C   0  0  0  0  0  3  0  0  0  0  0  0
  160.9650  199.9700  145.3730 C   0  0  0  0  0  3  0  0  0  0  0  0
  161.6450  199.1830  147.4590 O   0  0  0  0  0  1  0  0  0  0  0  0
  161.0130  200.1580  146.7320 C   0  0  0  0  0  0  0  0  0  0  0  0
  160.2440  201.1080  149.9610 C   0  0  0  0  0  2  0  0  0  0  0  0
  158.8660  200.7750  149.8400 O   0  0  0  0  0  1  0  0  0  0  0  0
  1  4  2  0  0  0  0
  1  6  1  0  0  0  0
  2  8  1  0  0  0  0
  2  3  2  0  0  0  0
  3  5  1  0  0  0  0
  4  2  1  0  0  0  0
  6  7  2  0  0  0  0
  7  3  1  0  0  0  0
  8  9  1  6  0  0  0
  8 10  1  0  0  0  0
  8 24  1  0  0  0  0
 11 10  1  0  0  0  0
 12 10  2  0  0  0  0
 13 11  1  0  0  0  0
 14 13  1  0  0  0  0
 15 14  1  0  0  0  0
 16 15  1  0  0  0  0
 17 16  1  0  0  0  0
 18 23  2  0  0  0  0
 18 21  1  0  0  0  0
 19 18  1  0  0  0  0
 21 22  1  0  0  0  0
 22 20  2  0  0  0  0
 22 17  1  0  0  0  0
 25 24  1  0  0  0  0
 26  1  1  0  0  0  0
 27 26  1  0  0  0  0
 28 33  1  0  0  0  0
 28 38  1  0  0  0  0
 29 37  1  0  0  0  0
 29 31  1  0  0  0  0
 30 33  1  0  0  0  0
 31 27  1  0  0  0  0
 32 35  1  0  0  0  0
 33 29  1  0  0  0  0
 35 31  1  0  0  0  0
 36 33  1  0  0  0  0
 36 32  1  0  0  0  0
 37 31  1  0  0  0  0
 37 34  1  0  0  0  0
 38 41  1  0  0  0  0
 38 37  1  0  0  0  0
 39 41  1  0  0  0  0
 39 49  1  0  0  0  0
 40 39  1  0  0  0  0
 40 41  1  0  0  0  0
 42 43  2  0  0  0  0
 42 46  1  0  0  0  0
 43 45  1  0  0  0  0
 44 39  1  0  0  0  0
 45 44  2  0  0  0  0
 46 48  2  0  0  0  0
 48 44  1  0  0  0  0
 48 47  1  0  0  0  0
 50 49  1  0  0  0  0
M  END
>  <MODEL>
5

>  <REMARK>
 VINA RESULT:      -5.7      2.347      4.088
  Name = 
  15 active torsions:
  status: ('A' for Active; 'I' for Inactive)
    1  A    between atoms: C_1  and  C_34
    2  A    between atoms: C_2  and  C_22
    3  A    between atoms: C_4  and  C_20
    4  A    between atoms: C_4  and  C_29
    5  A    between atoms: C_5  and  C_33
    6  A    between atoms: C_5  and  C_49
    7  A    between atoms: O_6  and  C_22
    8  A    between atoms: C_13  and  C_50
    9  A    between atoms: C_18  and  C_22
   10  A    between atoms: C_21  and  C_37
   11  A    between atoms: C_26  and  N_30
   12  A    between atoms: C_26  and  C_48
   13  A    between atoms: C_34  and  C_37
   14  A    between atoms: N_39  and  C_48
   15  A    between atoms: N_39  and  C_49
                            x       y       z     vdW  Elec       q    Type
                         _______ _______ _______ _____ _____    ______ ____

>  <TORSDO>
F 15

$$$$
=
 OpenBabel11072410403D

 50 55  0  0  1  0  0  0  0  0999 V2000
  161.1370  211.7250  150.3550 C   0  0  0  0  0  0  0  0  0  0  0  0
  159.4980  213.2210  149.3080 C   0  0  0  0  0  0  0  0  0  0  0  0
  160.2770  213.3180  148.1580 C   0  0  0  0  0  0  0  0  0  0  0  0
  159.8990  212.4030  150.3280 C   0  0  0  0  0  3  0  0  0  0  0  0
  159.6620  213.4770  146.9180 N   0  0  0  0  0  1  0  0  0  0  0  0
  161.9180  211.8550  149.2770 C   0  0  0  0  0  3  0  0  0  0  0  0
  161.4820  212.5880  148.2050 N   0  0  0  0  0  0  0  0  0  0  0  0
  157.9830  213.6380  149.4280 C   0  0  1  0  0  0  0  0  0  0  0  0
  157.2170  212.3150  149.3000 C   0  0  0  0  0  1  0  0  0  0  0  0
  157.3680  214.2670  150.7330 C   0  0  0  0  0  0  0  0  0  0  0  0
  155.9830  214.4470  150.9340 N   0  0  0  0  0  2  0  0  0  0  0  0
  158.1310  214.2920  151.7320 O   0  0  0  0  0  0  0  0  0  0  0  0
  155.3230  213.4880  151.8290 C   0  0  0  0  0  2  0  0  0  0  0  0
  155.0790  214.1190  153.1910 C   0  0  0  0  0  2  0  0  0  0  0  0
  155.0510  213.2860  154.4210 N   0  0  0  0  0  2  0  0  0  0  0  0
  156.2860  213.5440  155.0910 C   0  0  0  0  0  2  0  0  0  0  0  0
  157.2110  212.3480  154.9620 C   0  0  0  0  0  2  0  0  0  0  0  0
  160.0140  210.9660  155.7660 C   0  0  0  0  0  0  0  0  0  0  0  0
  161.3490  210.5390  156.4990 C   0  0  0  0  0  1  0  0  0  0  0  0
  158.6310  214.1060  154.4180 O   0  0  0  0  0  0  0  0  0  0  0  0
  159.8930  212.2440  155.1950 N   0  0  0  0  0  2  0  0  0  0  0  0
  158.6400  212.9740  154.9890 C   0  0  0  0  0  0  0  0  0  0  0  0
  159.0930  210.1640  155.7600 O   0  0  0  0  0  0  0  0  0  0  0  0
  157.7570  214.4470  148.3060 O   0  0  0  0  0  0  0  0  0  0  0  0
  156.4270  214.3360  147.8720 C   0  0  0  0  0  1  0  0  0  0  0  0
  161.5820  211.0800  151.6300 C   0  0  0  0  0  2  0  0  0  0  0  0
  162.5630  209.9460  151.3460 C   0  0  0  0  0  2  0  0  0  0  0  0
  160.9750  205.7060  151.4130 C   0  0  0  0  0  2  0  0  0  0  0  0
  162.8210  207.3960  151.7160 C   0  0  1  0  0  3  0  0  0  0  0  0
  162.9170  205.1520  152.6250 O   0  0  0  0  0  1  0  0  0  0  0  0
  161.8680  208.6070  151.5040 C   0  0  1  0  0  0  0  0  0  0  0  0
  160.7480  207.9390  153.7070 C   0  0  0  0  0  2  0  0  0  0  0  0
  162.0740  206.2270  152.3400 C   0  0  2  0  0  0  0  0  0  0  0  0
  162.8630  208.1610  149.4060 O   0  0  0  0  0  1  0  0  0  0  0  0
  160.5460  208.5620  152.2660 C   0  0  0  0  0  2  0  0  0  0  0  0
  161.2480  206.5200  153.6250 C   0  0  0  0  0  2  0  0  0  0  0  0
  162.1100  207.5800  150.4580 C   0  0  1  0  0  0  0  0  0  0  0  0
  161.4230  206.3190  150.0730 C   0  0  2  0  0  3  0  0  0  0  0  0
  160.9190  205.5970  147.8670 C   0  0  1  0  0  0  0  0  0  0  0  0
  159.5930  205.8980  148.3330 O   0  0  0  0  0  0  0  0  0  0  0  0
  160.6060  206.6780  148.9020 C   0  0  1  0  0  3  0  0  0  0  0  0
  161.1200  201.2300  148.2750 C   0  0  0  0  0  3  0  0  0  0  0  0
  161.0280  202.0000  149.4420 C   0  0  0  0  0  3  0  0  0  0  0  0
  161.1320  204.0390  148.1040 C   0  0  0  0  0  0  0  0  0  0  0  0
  160.9420  203.4100  149.3690 C   0  0  0  0  0  3  0  0  0  0  0  0
  161.2650  201.8320  147.0560 C   0  0  0  0  0  3  0  0  0  0  0  0
  161.8830  203.6620  145.7510 O   0  0  0  0  0  1  0  0  0  0  0  0
  161.4680  203.1870  146.9680 C   0  0  0  0  0  0  0  0  0  0  0  0
  161.4470  206.1750  146.5030 C   0  0  0  0  0  2  0  0  0  0  0  0
  160.5120  206.5910  145.5160 O   0  0  0  0  0  1  0  0  0  0  0  0
  1 26  1  0  0  0  0
  2  8  1  0  0  0  0
  2  4  2  0  0  0  0
  3  7  2  0  0  0  0
  3  2  1  0  0  0  0
  4  1  1  0  0  0  0
  5  3  1  0  0  0  0
  6  1  2  0  0  0  0
  7  6  1  0  0  0  0
  8  9  1  6  0  0  0
  8 10  1  0  0  0  0
 10 11  1  0  0  0  0
 10 12  2  0  0  0  0
 11 13  1  0  0  0  0
 13 14  1  0  0  0  0
 14 15  1  0  0  0  0
 15 16  1  0  0  0  0
 17 22  1  0  0  0  0
 17 16  1  0  0  0  0
 18 19  1  0  0  0  0
 20 22  2  0  0  0  0
 21 18  1  0  0  0  0
 22 21  1  0  0  0  0
 23 18  2  0  0  0  0
 24  8  1  0  0  0  0
 25 24  1  0  0  0  0
 27 31  1  0  0  0  0
 27 26  1  0  0  0  0
 28 33  1  0  0  0  0
 29 33  1  0  0  0  0
 31 29  1  0  0  0  0
 31 35  1  0  0  0  0
 33 30  1  0  0  0  0
 33 36  1  0  0  0  0
 34 37  1  0  0  0  0
 35 32  1  0  0  0  0
 36 32  1  0  0  0  0
 37 31  1  0  0  0  0
 37 29  1  0  0  0  0
 38 37  1  0  0  0  0
 38 28  1  0  0  0  0
 39 44  1  0  0  0  0
 39 40  1  0  0  0  0
 39 41  1  0  0  0  0
 40 41  1  0  0  0  0
 41 38  1  0  0  0  0
 42 43  1  0  0  0  0
 44 45  1  0  0  0  0
 45 43  2  0  0  0  0
 46 42  2  0  0  0  0
 47 48  1  0  0  0  0
 48 46  1  0  0  0  0
 48 44  2  0  0  0  0
 49 39  1  0  0  0  0
 50 49  1  0  0  0  0
M  END
>  <MODEL>
6

>  <REMARK>
 VINA RESULT:      -5.3      1.923      5.289
  Name = 
  15 active torsions:
  status: ('A' for Active; 'I' for Inactive)
    1  A    between atoms: C_1  and  C_34
    2  A    between atoms: C_2  and  C_22
    3  A    between atoms: C_4  and  C_20
    4  A    between atoms: C_4  and  C_29
    5  A    between atoms: C_5  and  C_33
    6  A    between atoms: C_5  and  C_49
    7  A    between atoms: O_6  and  C_22
    8  A    between atoms: C_13  and  C_50
    9  A    between atoms: C_18  and  C_22
   10  A    between atoms: C_21  and  C_37
   11  A    between atoms: C_26  and  N_30
   12  A    between atoms: C_26  and  C_48
   13  A    between atoms: C_34  and  C_37
   14  A    between atoms: N_39  and  C_48
   15  A    between atoms: N_39  and  C_49
                            x       y       z     vdW  Elec       q    Type
                         _______ _______ _______ _____ _____    ______ ____

>  <TORSDO>
F 15

$$$$
=
 OpenBabel11072410403D

 50 55  0  0  1  0  0  0  0  0999 V2000
  161.5430  211.4650  148.8040 C   0  0  0  0  0  0  0  0  0  0  0  0
  160.0990  212.6630  147.2230 C   0  0  0  0  0  0  0  0  0  0  0  0
  159.3390  213.1860  148.2670 C   0  0  0  0  0  0  0  0  0  0  0  0
  161.1890  211.8870  147.5040 C   0  0  0  0  0  3  0  0  0  0  0  0
  158.7650  214.4480  148.1390 N   0  0  0  0  0  1  0  0  0  0  0  0
  160.7880  211.9180  149.8100 C   0  0  0  0  0  3  0  0  0  0  0  0
  159.7540  212.7790  149.5520 N   0  0  0  0  0  0  0  0  0  0  0  0
  160.0930  213.1820  145.7360 C   0  0  1  0  0  0  0  0  0  0  0  0
  160.8390  212.0930  144.9540 C   0  0  0  0  0  1  0  0  0  0  0  0
  158.7750  213.3650  144.8960 C   0  0  0  0  0  0  0  0  0  0  0  0
  158.7270  214.0370  143.6560 N   0  0  0  0  0  2  0  0  0  0  0  0
  157.8270  212.5970  145.2030 O   0  0  0  0  0  0  0  0  0  0  0  0
  158.6360  213.1920  142.4580 C   0  0  0  0  0  2  0  0  0  0  0  0
  158.9150  214.0150  141.2100 C   0  0  0  0  0  2  0  0  0  0  0  0
  159.4090  213.3670  139.9670 N   0  0  0  0  0  2  0  0  0  0  0  0
  160.5030  212.5410  140.3700 C   0  0  0  0  0  2  0  0  0  0  0  0
  160.7340  211.4440  139.3480 C   0  0  0  0  0  2  0  0  0  0  0  0
  161.7030  208.3680  139.4490 C   0  0  0  0  0  0  0  0  0  0  0  0
  162.1730  206.9320  139.9150 C   0  0  0  0  0  1  0  0  0  0  0  0
  162.9880  211.8060  139.7890 O   0  0  0  0  0  0  0  0  0  0  0  0
  162.5580  209.4750  139.5810 N   0  0  0  0  0  2  0  0  0  0  0  0
  162.1350  210.8700  139.7250 C   0  0  0  0  0  0  0  0  0  0  0  0
  160.5650  208.4760  139.0180 O   0  0  0  0  0  0  0  0  0  0  0  0
  160.8500  214.3610  145.7780 O   0  0  0  0  0  0  0  0  0  0  0  0
  162.2200  214.0780  145.6630 C   0  0  0  0  0  1  0  0  0  0  0  0
  162.5900  210.4080  148.9620 C   0  0  0  0  0  2  0  0  0  0  0  0
  162.8170  210.0920  150.4380 C   0  0  0  0  0  2  0  0  0  0  0  0
  160.8080  206.1580  151.4350 C   0  0  0  0  0  2  0  0  0  0  0  0
  162.7550  207.7570  151.5560 C   0  0  1  0  0  3  0  0  0  0  0  0
  162.4860  205.8810  153.0660 O   0  0  0  0  0  1  0  0  0  0  0  0
  161.9720  208.9010  150.8500 C   0  0  1  0  0  0  0  0  0  0  0  0
  160.4800  208.9800  152.9280 C   0  0  0  0  0  2  0  0  0  0  0  0
  161.8080  206.8690  152.3490 C   0  0  2  0  0  0  0  0  0  0  0  0
  163.2130  207.7980  149.1650 O   0  0  0  0  0  1  0  0  0  0  0  0
  160.5560  209.1580  151.3560 C   0  0  0  0  0  2  0  0  0  0  0  0
  160.8370  207.5750  153.3390 C   0  0  0  0  0  2  0  0  0  0  0  0
  162.2580  207.5980  150.1950 C   0  0  1  0  0  0  0  0  0  0  0  0
  161.5080  206.3200  150.0730 C   0  0  2  0  0  3  0  0  0  0  0  0
  161.2110  204.9830  148.1330 C   0  0  1  0  0  0  0  0  0  0  0  0
  159.8880  205.5330  148.2550 O   0  0  0  0  0  0  0  0  0  0  0  0
  160.9130  206.3600  148.7270 C   0  0  1  0  0  3  0  0  0  0  0  0
  160.6520  201.0780  150.0610 C   0  0  0  0  0  3  0  0  0  0  0  0
  161.1950  202.1210  150.8240 C   0  0  0  0  0  3  0  0  0  0  0  0
  161.1730  203.5680  148.8580 C   0  0  0  0  0  0  0  0  0  0  0  0
  161.3790  203.4050  150.2590 C   0  0  0  0  0  3  0  0  0  0  0  0
  160.4190  201.2440  148.7240 C   0  0  0  0  0  3  0  0  0  0  0  0
  160.8280  202.3420  146.7080 O   0  0  0  0  0  1  0  0  0  0  0  0
  160.8450  202.3790  148.0780 C   0  0  0  0  0  0  0  0  0  0  0  0
  161.9910  205.0490  146.7690 C   0  0  0  0  0  2  0  0  0  0  0  0
  161.2670  204.9440  145.5490 O   0  0  0  0  0  1  0  0  0  0  0  0
  1 26  1  0  0  0  0
  1  6  1  0  0  0  0
  2  4  1  0  0  0  0
  2  3  2  0  0  0  0
  3  7  1  0  0  0  0
  4  1  2  0  0  0  0
  5  3  1  0  0  0  0
  7  6  2  0  0  0  0
  8  9  1  6  0  0  0
  8 24  1  0  0  0  0
  8  2  1  0  0  0  0
 10 12  2  0  0  0  0
 10  8  1  0  0  0  0
 11 10  1  0  0  0  0
 13 11  1  0  0  0  0
 14 13  1  0  0  0  0
 15 16  1  0  0  0  0
 15 14  1  0  0  0  0
 17 22  1  0  0  0  0
 17 16  1  0  0  0  0
 18 21  1  0  0  0  0
 18 19  1  0  0  0  0
 21 22  1  0  0  0  0
 22 20  2  0  0  0  0
 23 18  2  0  0  0  0
 25 24  1  0  0  0  0
 26 27  1  0  0  0  0
 27 31  1  0  0  0  0
 28 33  1  0  0  0  0
 29 33  1  0  0  0  0
 31 35  1  0  0  0  0
 31 29  1  0  0  0  0
 32 36  1  0  0  0  0
 33 30  1  0  0  0  0
 33 36  1  0  0  0  0
 34 37  1  0  0  0  0
 35 32  1  0  0  0  0
 37 31  1  0  0  0  0
 37 29  1  0  0  0  0
 38 37  1  0  0  0  0
 38 28  1  0  0  0  0
 39 40  1  0  0  0  0
 39 41  1  0  0  0  0
 39 44  1  0  0  0  0
 40 41  1  0  0  0  0
 41 38  1  0  0  0  0
 42 43  1  0  0  0  0
 44 45  1  0  0  0  0
 45 43  2  0  0  0  0
 46 42  2  0  0  0  0
 47 48  1  0  0  0  0
 48 46  1  0  0  0  0
 48 44  2  0  0  0  0
 49 39  1  0  0  0  0
 50 49  1  0  0  0  0
M  END
>  <MODEL>
7

>  <REMARK>
 VINA RESULT:      -5.1      3.212      6.122
  Name = 
  15 active torsions:
  status: ('A' for Active; 'I' for Inactive)
    1  A    between atoms: C_1  and  C_34
    2  A    between atoms: C_2  and  C_22
    3  A    between atoms: C_4  and  C_20
    4  A    between atoms: C_4  and  C_29
    5  A    between atoms: C_5  and  C_33
    6  A    between atoms: C_5  and  C_49
    7  A    between atoms: O_6  and  C_22
    8  A    between atoms: C_13  and  C_50
    9  A    between atoms: C_18  and  C_22
   10  A    between atoms: C_21  and  C_37
   11  A    between atoms: C_26  and  N_30
   12  A    between atoms: C_26  and  C_48
   13  A    between atoms: C_34  and  C_37
   14  A    between atoms: N_39  and  C_48
   15  A    between atoms: N_39  and  C_49
                            x       y       z     vdW  Elec       q    Type
                         _______ _______ _______ _____ _____    ______ ____

>  <TORSDO>
F 15

$$$$
=
 OpenBabel11072410403D

 50 55  0  0  1  0  0  0  0  0999 V2000
  161.3550  207.2670  153.4890 C   0  0  0  0  0  0  0  0  0  0  0  0
  160.4300  208.9670  154.9960 C   0  0  0  0  0  0  0  0  0  0  0  0
  160.0080  207.9870  155.8910 C   0  0  0  0  0  0  0  0  0  0  0  0
  161.1280  208.6050  153.8780 C   0  0  0  0  0  3  0  0  0  0  0  0
  159.9870  208.2610  157.2570 N   0  0  0  0  0  1  0  0  0  0  0  0
  160.9060  206.3160  154.3150 C   0  0  0  0  0  3  0  0  0  0  0  0
  160.2960  206.6670  155.4900 N   0  0  0  0  0  0  0  0  0  0  0  0
  160.5500  210.5070  155.3110 C   0  0  1  0  0  0  0  0  0  0  0  0
  161.5070  211.0370  154.2360 C   0  0  0  0  0  1  0  0  0  0  0  0
  159.3340  211.5000  155.2080 C   0  0  0  0  0  0  0  0  0  0  0  0
  158.0830  211.2690  155.8190 N   0  0  0  0  0  2  0  0  0  0  0  0
  159.6200  212.6700  154.8440 O   0  0  0  0  0  0  0  0  0  0  0  0
  157.8050  212.0320  157.0430 C   0  0  0  0  0  2  0  0  0  0  0  0
  156.8970  213.2130  156.7340 C   0  0  0  0  0  2  0  0  0  0  0  0
  155.5050  212.9990  156.2610 N   0  0  0  0  0  2  0  0  0  0  0  0
  155.2150  214.1020  155.4000 C   0  0  0  0  0  2  0  0  0  0  0  0
  156.0700  214.0270  154.1490 C   0  0  0  0  0  2  0  0  0  0  0  0
  156.5590  213.7870  150.9690 C   0  0  0  0  0  0  0  0  0  0  0  0
  156.7410  214.0870  149.4270 C   0  0  0  0  0  1  0  0  0  0  0  0
  153.8640  214.2340  153.4440 O   0  0  0  0  0  0  0  0  0  0  0  0
  155.2950  213.9030  151.5710 N   0  0  0  0  0  2  0  0  0  0  0  0
  155.0450  214.1980  152.9840 C   0  0  0  0  0  0  0  0  0  0  0  0
  157.5570  213.4980  151.6090 O   0  0  0  0  0  0  0  0  0  0  0  0
  161.1540  210.5560  156.5740 O   0  0  0  0  0  0  0  0  0  0  0  0
  162.4650  211.0500  156.4810 C   0  0  0  0  0  1  0  0  0  0  0  0
  161.8920  206.9920  152.1200 C   0  0  0  0  0  2  0  0  0  0  0  0
  160.7520  206.8100  151.1210 C   0  0  0  0  0  2  0  0  0  0  0  0
  161.7920  204.9510  147.1250 C   0  0  0  0  0  2  0  0  0  0  0  0
  160.2650  206.2730  148.6350 C   0  0  1  0  0  3  0  0  0  0  0  0
  160.0820  206.2940  146.2190 O   0  0  0  0  0  1  0  0  0  0  0  0
  161.2960  206.3010  149.8000 C   0  0  1  0  0  0  0  0  0  0  0  0
  162.7480  207.7820  148.2980 C   0  0  0  0  0  2  0  0  0  0  0  0
  160.9750  206.2340  147.2900 C   0  0  2  0  0  0  0  0  0  0  0  0
  159.8500  204.4800  150.2280 O   0  0  0  0  0  1  0  0  0  0  0  0
  162.7290  206.6630  149.4190 C   0  0  0  0  0  2  0  0  0  0  0  0
  162.0740  207.3060  147.0380 C   0  0  0  0  0  2  0  0  0  0  0  0
  160.7240  205.0400  149.2620 C   0  0  1  0  0  0  0  0  0  0  0  0
  161.1600  204.0720  148.2210 C   0  0  2  0  0  3  0  0  0  0  0  0
  160.9740  201.7240  148.5260 C   0  0  1  0  0  0  0  0  0  0  0  0
  162.4030  201.8440  148.4200 O   0  0  0  0  0  0  0  0  0  0  0  0
  161.7610  202.9580  148.9720 C   0  0  1  0  0  3  0  0  0  0  0  0
  159.9560  200.7870  144.3590 C   0  0  0  0  0  3  0  0  0  0  0  0
  159.3280  201.8850  144.9620 C   0  0  0  0  0  3  0  0  0  0  0  0
  160.4480  201.3650  147.0680 C   0  0  0  0  0  0  0  0  0  0  0  0
  159.6320  202.2440  146.2970 C   0  0  0  0  0  3  0  0  0  0  0  0
  160.7680  199.9650  145.0880 C   0  0  0  0  0  3  0  0  0  0  0  0
  161.4690  199.0860  147.1310 O   0  0  0  0  0  1  0  0  0  0  0  0
  160.8680  200.1130  146.4500 C   0  0  0  0  0  0  0  0  0  0  0  0
  160.3150  200.9410  149.7190 C   0  0  0  0  0  2  0  0  0  0  0  0
  158.9030  200.7690  149.7420 O   0  0  0  0  0  1  0  0  0  0  0  0
  1  4  2  0  0  0  0
  1  6  1  0  0  0  0
  2  8  1  0  0  0  0
  2  3  2  0  0  0  0
  3  5  1  0  0  0  0
  4  2  1  0  0  0  0
  6  7  2  0  0  0  0
  7  3  1  0  0  0  0
  8  9  1  6  0  0  0
  8 24  1  0  0  0  0
 10  8  1  0  0  0  0
 10 11  1  0  0  0  0
 11 13  1  0  0  0  0
 12 10  2  0  0  0  0
 14 13  1  0  0  0  0
 15 14  1  0  0  0  0
 16 15  1  0  0  0  0
 17 16  1  0  0  0  0
 18 21  1  0  0  0  0
 18 23  2  0  0  0  0
 19 18  1  0  0  0  0
 21 22  1  0  0  0  0
 22 20  2  0  0  0  0
 22 17  1  0  0  0  0
 25 24  1  0  0  0  0
 26  1  1  0  0  0  0
 27 26  1  0  0  0  0
 28 33  1  0  0  0  0
 28 38  1  0  0  0  0
 29 37  1  0  0  0  0
 29 31  1  0  0  0  0
 30 33  1  0  0  0  0
 31 27  1  0  0  0  0
 32 35  1  0  0  0  0
 33 29  1  0  0  0  0
 35 31  1  0  0  0  0
 36 33  1  0  0  0  0
 36 32  1  0  0  0  0
 37 31  1  0  0  0  0
 37 34  1  0  0  0  0
 38 41  1  0  0  0  0
 38 37  1  0  0  0  0
 39 41  1  0  0  0  0
 39 49  1  0  0  0  0
 40 39  1  0  0  0  0
 40 41  1  0  0  0  0
 42 43  2  0  0  0  0
 42 46  1  0  0  0  0
 43 45  1  0  0  0  0
 44 39  1  0  0  0  0
 45 44  2  0  0  0  0
 46 48  2  0  0  0  0
 48 44  1  0  0  0  0
 48 47  1  0  0  0  0
 49 50  1  0  0  0  0
M  END
>  <MODEL>
8

>  <REMARK>
 VINA RESULT:      -5.0      3.248      5.422
  Name = 
  15 active torsions:
  status: ('A' for Active; 'I' for Inactive)
    1  A    between atoms: C_1  and  C_34
    2  A    between atoms: C_2  and  C_22
    3  A    between atoms: C_4  and  C_20
    4  A    between atoms: C_4  and  C_29
    5  A    between atoms: C_5  and  C_33
    6  A    between atoms: C_5  and  C_49
    7  A    between atoms: O_6  and  C_22
    8  A    between atoms: C_13  and  C_50
    9  A    between atoms: C_18  and  C_22
   10  A    between atoms: C_21  and  C_37
   11  A    between atoms: C_26  and  N_30
   12  A    between atoms: C_26  and  C_48
   13  A    between atoms: C_34  and  C_37
   14  A    between atoms: N_39  and  C_48
   15  A    between atoms: N_39  and  C_49
                            x       y       z     vdW  Elec       q    Type
                         _______ _______ _______ _____ _____    ______ ____

>  <TORSDO>
F 15

$$$$
=
 OpenBabel11072410403D

 50 55  0  0  1  0  0  0  0  0999 V2000
  161.3560  211.6840  148.4570 C   0  0  0  0  0  0  0  0  0  0  0  0
  160.0530  212.7610  146.6790 C   0  0  0  0  0  0  0  0  0  0  0  0
  159.1270  213.2360  147.6050 C   0  0  0  0  0  0  0  0  0  0  0  0
  161.1480  212.0680  147.1140 C   0  0  0  0  0  3  0  0  0  0  0  0
  158.4870  214.4530  147.3800 N   0  0  0  0  0  1  0  0  0  0  0  0
  160.4440  212.0890  149.3470 C   0  0  0  0  0  3  0  0  0  0  0  0
  159.3960  212.8710  148.9390 N   0  0  0  0  0  0  0  0  0  0  0  0
  160.2080  213.2660  145.1950 C   0  0  1  0  0  0  0  0  0  0  0  0
  161.0300  212.1690  144.5080 C   0  0  0  0  0  1  0  0  0  0  0  0
  158.9870  213.4440  144.2170 C   0  0  0  0  0  0  0  0  0  0  0  0
  159.0920  214.0240  142.9350 N   0  0  0  0  0  2  0  0  0  0  0  0
  157.9770  212.7420  144.4800 O   0  0  0  0  0  0  0  0  0  0  0  0
  159.0750  213.0980  141.7960 C   0  0  0  0  0  2  0  0  0  0  0  0
  157.9520  213.4620  140.8360 C   0  0  0  0  0  2  0  0  0  0  0  0
  157.4710  212.4880  139.8220 N   0  0  0  0  0  2  0  0  0  0  0  0
  156.7400  213.2560  138.8660 C   0  0  0  0  0  2  0  0  0  0  0  0
  156.8330  212.6110  137.4960 C   0  0  0  0  0  2  0  0  0  0  0  0
  154.8000  210.2690  138.3890 C   0  0  0  0  0  0  0  0  0  0  0  0
  154.0050  209.1660  139.1970 C   0  0  0  0  0  1  0  0  0  0  0  0
  158.3200  210.8240  137.4450 O   0  0  0  0  0  0  0  0  0  0  0  0
  156.1450  210.0620  138.0380 N   0  0  0  0  0  2  0  0  0  0  0  0
  157.1400  211.1120  137.8080 C   0  0  0  0  0  0  0  0  0  0  0  0
  154.2160  211.3090  138.1300 O   0  0  0  0  0  0  0  0  0  0  0  0
  160.9580  214.4450  145.3070 O   0  0  0  0  0  0  0  0  0  0  0  0
  162.2910  214.2250  144.9260 C   0  0  0  0  0  1  0  0  0  0  0  0
  162.4440  210.7060  148.7690 C   0  0  0  0  0  2  0  0  0  0  0  0
  162.5300  210.4590  150.2730 C   0  0  0  0  0  2  0  0  0  0  0  0
  160.8950  206.3000  151.0030 C   0  0  0  0  0  2  0  0  0  0  0  0
  162.7430  208.0130  151.0960 C   0  0  1  0  0  3  0  0  0  0  0  0
  162.7710  205.9620  152.3870 O   0  0  0  0  0  1  0  0  0  0  0  0
  161.8140  209.1700  150.6290 C   0  0  1  0  0  0  0  0  0  0  0  0
  160.5820  208.9010  152.8580 C   0  0  0  0  0  2  0  0  0  0  0  0
  161.9530  206.9730  151.8780 C   0  0  2  0  0  0  0  0  0  0  0  0
  162.9040  208.3610  148.6930 O   0  0  0  0  0  1  0  0  0  0  0  0
  160.4570  209.2630  151.3210 C   0  0  0  0  0  2  0  0  0  0  0  0
  161.0700  207.4880  153.0500 C   0  0  0  0  0  2  0  0  0  0  0  0
  162.0950  207.9750  149.7910 C   0  0  1  0  0  0  0  0  0  0  0  0
  161.4130  206.6680  149.6000 C   0  0  2  0  0  3  0  0  0  0  0  0
  160.9250  205.5230  147.5770 C   0  0  1  0  0  0  0  0  0  0  0  0
  159.6100  205.9990  147.9120 O   0  0  0  0  0  0  0  0  0  0  0  0
  160.6570  206.8180  148.3450 C   0  0  1  0  0  3  0  0  0  0  0  0
  160.7840  201.3540  148.9460 C   0  0  0  0  0  3  0  0  0  0  0  0
  160.8430  202.3660  149.9130 C   0  0  0  0  0  3  0  0  0  0  0  0
  161.0210  204.0410  148.1470 C   0  0  0  0  0  0  0  0  0  0  0  0
  160.8710  203.7270  149.5290 C   0  0  0  0  0  3  0  0  0  0  0  0
  160.8910  201.6570  147.6170 C   0  0  0  0  0  3  0  0  0  0  0  0
  161.5650  203.0860  145.9030 O   0  0  0  0  0  1  0  0  0  0  0  0
  161.2010  202.9330  147.2160 C   0  0  0  0  0  0  0  0  0  0  0  0
  161.5310  205.7620  146.1460 C   0  0  0  0  0  2  0  0  0  0  0  0
  160.6750  206.1840  145.0900 O   0  0  0  0  0  1  0  0  0  0  0  0
  1 26  1  0  0  0  0
  1  6  1  0  0  0  0
  2  4  1  0  0  0  0
  2  3  2  0  0  0  0
  3  7  1  0  0  0  0
  4  1  2  0  0  0  0
  5  3  1  0  0  0  0
  7  6  2  0  0  0  0
  8  9  1  6  0  0  0
  8 24  1  0  0  0  0
  8  2  1  0  0  0  0
 10 12  2  0  0  0  0
 10  8  1  0  0  0  0
 11 10  1  0  0  0  0
 13 11  1  0  0  0  0
 14 13  1  0  0  0  0
 15 14  1  0  0  0  0
 16 15  1  0  0  0  0
 17 22  1  0  0  0  0
 17 16  1  0  0  0  0
 18 19  1  0  0  0  0
 20 22  2  0  0  0  0
 21 18  1  0  0  0  0
 22 21  1  0  0  0  0
 23 18  2  0  0  0  0
 25 24  1  0  0  0  0
 26 27  1  0  0  0  0
 27 31  1  0  0  0  0
 28 33  1  0  0  0  0
 29 33  1  0  0  0  0
 31 29  1  0  0  0  0
 31 35  1  0  0  0  0
 32 36  1  0  0  0  0
 33 30  1  0  0  0  0
 33 36  1  0  0  0  0
 34 37  1  0  0  0  0
 35 32  1  0  0  0  0
 37 31  1  0  0  0  0
 37 29  1  0  0  0  0
 38 37  1  0  0  0  0
 38 28  1  0  0  0  0
 39 40  1  0  0  0  0
 39 44  1  0  0  0  0
 39 41  1  0  0  0  0
 40 41  1  0  0  0  0
 41 38  1  0  0  0  0
 42 43  1  0  0  0  0
 44 45  1  0  0  0  0
 45 43  2  0  0  0  0
 46 42  2  0  0  0  0
 47 48  1  0  0  0  0
 48 46  1  0  0  0  0
 48 44  2  0  0  0  0
 49 39  1  0  0  0  0
 50 49  1  0  0  0  0
M  END
>  <MODEL>
9

>  <REMARK>
 VINA RESULT:      -4.9      4.015      6.973
  Name = 
  15 active torsions:
  status: ('A' for Active; 'I' for Inactive)
    1  A    between atoms: C_1  and  C_34
    2  A    between atoms: C_2  and  C_22
    3  A    between atoms: C_4  and  C_20
    4  A    between atoms: C_4  and  C_29
    5  A    between atoms: C_5  and  C_33
    6  A    between atoms: C_5  and  C_49
    7  A    between atoms: O_6  and  C_22
    8  A    between atoms: C_13  and  C_50
    9  A    between atoms: C_18  and  C_22
   10  A    between atoms: C_21  and  C_37
   11  A    between atoms: C_26  and  N_30
   12  A    between atoms: C_26  and  C_48
   13  A    between atoms: C_34  and  C_37
   14  A    between atoms: N_39  and  C_48
   15  A    between atoms: N_39  and  C_49
                            x       y       z     vdW  Elec       q    Type
                         _______ _______ _______ _____ _____    ______ ____

>  <TORSDO>
F 15

$$$$
