=
 OpenBabel11072412253D

 33 37  0  0  1  0  0  0  0  0999 V2000
  161.7190  209.4890  152.6940 C   0  0  1  0  0  3  0  0  0  0  0  0
  158.3670  211.3540  154.4620 C   0  0  2  0  0  3  0  0  0  0  0  0
  158.6310  211.4300  152.9740 C   0  0  0  0  0  2  0  0  0  0  0  0
  159.7160  211.0630  155.1250 C   0  0  2  0  0  3  0  0  0  0  0  0
  160.0480  211.9510  152.8600 C   0  0  0  0  0  2  0  0  0  0  0  0
  161.3290  207.1670  152.9020 C   0  0  1  0  0  3  0  0  0  0  0  0
  161.4140  208.3070  150.5790 C   0  0  0  0  0  2  0  0  0  0  0  0
  161.2130  209.6780  151.2760 C   0  0  2  0  0  3  0  0  0  0  0  0
  161.2110  209.1420  154.7080 C   0  0  1  0  0  3  0  0  0  0  0  0
  161.7850  210.3530  153.9520 C   0  0  2  0  0  3  0  0  0  0  0  0
  160.7730  211.5010  154.1230 C   0  0  2  0  0  3  0  0  0  0  0  0
  160.9170  207.0900  151.4140 C   0  0  0  0  0  2  0  0  0  0  0  0
  159.9550  209.5890  155.4330 C   0  0  0  0  0  2  0  0  0  0  0  0
  160.8310  208.5100  153.3770 C   0  0  1  0  0  3  0  0  0  0  0  0
  161.3350  211.6150  149.6650 N   0  0  0  0  0  1  0  0  0  0  0  0
  161.9990  210.7250  150.5530 C   0  0  0  0  0  0  0  0  0  0  0  0
  163.2510  210.7970  150.6870 O   0  0  0  0  0  0  0  0  0  0  0  0
  157.2520  210.3680  154.8060 C   0  0  0  0  0  2  0  0  0  0  0  0
  155.9310  212.4960  155.1060 N   0  0  0  0  0  1  0  0  0  0  0  0
  155.0840  210.4460  155.7990 O   0  0  0  0  0  0  0  0  0  0  0  0
  156.0270  211.0850  155.2590 C   0  0  0  0  0  0  0  0  0  0  0  0
  160.7070  206.1450  153.6230 O   0  0  0  0  0  0  0  0  0  0  0  0
  161.5120  205.1100  153.5000 O   0  0  0  0  0  0  0  0  0  0  0  0
  160.7320  204.1230  153.0350 O   0  0  0  0  0  0  0  0  0  0  0  0
  161.0340  203.4710  151.8420 C   0  0  0  0  0  0  0  0  0  0  0  0
  161.9490  202.6080  151.8220 O   0  0  0  0  0  0  0  0  0  0  0  0
  160.2720  203.7690  150.5910 C   0  0  0  0  0  2  0  0  0  0  0  0
  161.1530  202.6800  146.5010 C   0  0  0  0  0  2  0  0  0  0  0  0
  160.2890  202.0780  148.7730 C   0  0  0  0  0  2  0  0  0  0  0  0
  161.0290  201.5680  147.5390 C   0  0  0  0  0  2  0  0  0  0  0  0
  161.8870  203.8770  147.0980 C   0  0  0  0  0  2  0  0  0  0  0  0
  161.1470  204.3850  148.3320 C   0  0  0  0  0  2  0  0  0  0  0  0
  161.0290  203.2690  149.3720 C   0  0  0  0  0  3  0  0  0  0  0  0
  1 14  1  0  0  0  0
  1 10  1  0  0  0  0
  2 18  1  0  0  0  0
  2  4  1  0  0  0  0
  3  2  1  0  0  0  0
  4 13  1  0  0  0  0
  5  3  1  0  0  0  0
  5 11  1  0  0  0  0
  6 14  1  0  0  0  0
  6 22  1  0  0  0  0
  7  8  1  0  0  0  0
  7 12  1  0  0  0  0
  8  1  1  0  0  0  0
  9 13  1  0  0  0  0
 10 11  1  0  0  0  0
 10  9  1  0  0  0  0
 11  4  1  0  0  0  0
 12  6  1  0  0  0  0
 14  9  1  0  0  0  0
 15 16  1  0  0  0  0
 16 17  2  0  0  0  0
 16  8  1  0  0  0  0
 18 21  1  0  0  0  0
 19 21  1  0  0  0  0
 21 20  2  0  0  0  0
 23 22  1  0  0  0  0
 24 23  1  0  0  0  0
 25 24  1  0  0  0  0
 26 25  2  0  0  0  0
 27 25  1  0  0  0  0
 28 31  1  0  0  0  0
 28 30  1  0  0  0  0
 29 33  1  0  0  0  0
 30 29  1  0  0  0  0
 31 32  1  0  0  0  0
 32 33  1  0  0  0  0
 33 27  1  0  0  0  0
M  END
>  <MODEL>
1

>  <REMARK>
 VINA RESULT:      -6.6      0.000      0.000
  Name = 
  9 active torsions:
  status: ('A' for Active; 'I' for Inactive)
    1  A    between atoms: C_2  and  C_20
    2  A    between atoms: O_4  and  O_11
    3  A    between atoms: O_4  and  C_23
    4  A    between atoms: C_8  and  O_32
    5  A    between atoms: C_10  and  C_23
    6  A    between atoms: C_10  and  C_33
    7  A    between atoms: O_11  and  O_32
    8  A    between atoms: C_12  and  C_26
    9  A    between atoms: C_14  and  C_20
                            x       y       z     vdW  Elec       q    Type
                         _______ _______ _______ _____ _____    ______ ____

>  <TORSDO>
F 9

$$$$
=
 OpenBabel11072412253D

 33 37  0  0  1  0  0  0  0  0999 V2000
  162.0330  206.7380  150.2850 C   0  0  1  0  0  3  0  0  0  0  0  0
  160.8150  208.5380  153.9070 C   0  0  2  0  0  3  0  0  0  0  0  0
  160.4700  209.1370  152.5600 C   0  0  0  0  0  2  0  0  0  0  0  0
  162.0490  207.6610  153.6830 C   0  0  2  0  0  3  0  0  0  0  0  0
  161.7960  209.2660  151.8440 C   0  0  0  0  0  2  0  0  0  0  0  0
  160.8070  204.7220  150.1410 C   0  0  1  0  0  3  0  0  0  0  0  0
  160.4380  206.6380  148.4390 C   0  0  0  0  0  2  0  0  0  0  0  0
  161.1380  207.6100  149.4240 C   0  0  2  0  0  3  0  0  0  0  0  0
  162.2750  205.7520  152.1310 C   0  0  1  0  0  3  0  0  0  0  0  0
  162.9570  206.9680  151.4790 C   0  0  2  0  0  3  0  0  0  0  0  0
  162.6950  208.1710  152.4050 C   0  0  2  0  0  3  0  0  0  0  0  0
  159.8460  205.3650  149.1140 C   0  0  0  0  0  2  0  0  0  0  0  0
  161.7360  206.1820  153.4820 C   0  0  0  0  0  2  0  0  0  0  0  0
  161.1660  205.8380  151.0920 C   0  0  1  0  0  3  0  0  0  0  0  0
  161.4800  209.9560  148.5630 N   0  0  0  0  0  1  0  0  0  0  0  0
  161.9360  208.6120  148.6520 C   0  0  0  0  0  0  0  0  0  0  0  0
  162.9850  208.2680  148.0410 O   0  0  0  0  0  0  0  0  0  0  0  0
  159.6260  207.8280  154.5510 C   0  0  0  0  0  2  0  0  0  0  0  0
  159.9340  209.1250  156.6940 N   0  0  0  0  0  1  0  0  0  0  0  0
  159.6230  206.8210  156.7140 O   0  0  0  0  0  0  0  0  0  0  0  0
  159.7160  207.8810  156.0380 C   0  0  0  0  0  0  0  0  0  0  0  0
  160.1510  203.6990  150.8310 O   0  0  0  0  0  0  0  0  0  0  0  0
  160.7720  202.5970  150.4630 O   0  0  0  0  0  0  0  0  0  0  0  0
  160.2250  202.2760  149.2810 O   0  0  0  0  0  0  0  0  0  0  0  0
  160.9180  201.4940  148.3590 C   0  0  0  0  0  0  0  0  0  0  0  0
  161.6390  200.5480  148.7670 O   0  0  0  0  0  0  0  0  0  0  0  0
  160.7980  201.7530  146.8920 C   0  0  0  0  0  2  0  0  0  0  0  0
  162.4840  205.3430  145.1710 C   0  0  0  0  0  2  0  0  0  0  0  0
  162.4660  203.5920  146.9600 C   0  0  0  0  0  2  0  0  0  0  0  0
  162.7250  205.0640  146.6520 C   0  0  0  0  0  2  0  0  0  0  0  0
  161.0540  204.9690  144.7910 C   0  0  0  0  0  2  0  0  0  0  0  0
  160.7960  203.4980  145.1010 C   0  0  0  0  0  2  0  0  0  0  0  0
  161.0340  203.2230  146.5870 C   0  0  0  0  0  3  0  0  0  0  0  0
  1 14  1  0  0  0  0
  1 10  1  0  0  0  0
  2 18  1  0  0  0  0
  3  2  1  0  0  0  0
  4  2  1  0  0  0  0
  5 11  1  0  0  0  0
  5  3  1  0  0  0  0
  6 22  1  0  0  0  0
  6 14  1  0  0  0  0
  7 12  1  0  0  0  0
  7  8  1  0  0  0  0
  8  1  1  0  0  0  0
  9 13  1  0  0  0  0
 10  9  1  0  0  0  0
 10 11  1  0  0  0  0
 11  4  1  0  0  0  0
 12  6  1  0  0  0  0
 13  4  1  0  0  0  0
 14  9  1  0  0  0  0
 15 16  1  0  0  0  0
 16  8  1  0  0  0  0
 17 16  2  0  0  0  0
 18 21  1  0  0  0  0
 21 19  1  0  0  0  0
 21 20  2  0  0  0  0
 23 22  1  0  0  0  0
 24 23  1  0  0  0  0
 25 26  2  0  0  0  0
 25 24  1  0  0  0  0
 27 25  1  0  0  0  0
 28 30  1  0  0  0  0
 30 29  1  0  0  0  0
 31 32  1  0  0  0  0
 31 28  1  0  0  0  0
 32 33  1  0  0  0  0
 33 27  1  0  0  0  0
 33 29  1  0  0  0  0
M  END
>  <MODEL>
2

>  <REMARK>
 VINA RESULT:      -5.7      2.638      3.809
  Name = 
  9 active torsions:
  status: ('A' for Active; 'I' for Inactive)
    1  A    between atoms: C_2  and  C_20
    2  A    between atoms: O_4  and  O_11
    3  A    between atoms: O_4  and  C_23
    4  A    between atoms: C_8  and  O_32
    5  A    between atoms: C_10  and  C_23
    6  A    between atoms: C_10  and  C_33
    7  A    between atoms: O_11  and  O_32
    8  A    between atoms: C_12  and  C_26
    9  A    between atoms: C_14  and  C_20
                            x       y       z     vdW  Elec       q    Type
                         _______ _______ _______ _____ _____    ______ ____

>  <TORSDO>
F 9

$$$$
=
 OpenBabel11072412253D

 33 37  0  0  1  0  0  0  0  0999 V2000
  160.8630  206.5400  151.0190 C   0  0  1  0  0  3  0  0  0  0  0  0
  162.2310  206.2780  147.0310 C   0  0  2  0  0  3  0  0  0  0  0  0
  162.7860  207.2980  148.0010 C   0  0  0  0  0  2  0  0  0  0  0  0
  160.8460  205.8930  147.5580 C   0  0  2  0  0  3  0  0  0  0  0  0
  161.5700  208.0250  148.5340 C   0  0  0  0  0  2  0  0  0  0  0  0
  161.6070  204.5580  152.0700 C   0  0  1  0  0  3  0  0  0  0  0  0
  162.5050  206.8760  152.7940 C   0  0  0  0  0  2  0  0  0  0  0  0
  161.9840  207.4640  151.4580 C   0  0  2  0  0  3  0  0  0  0  0  0
  160.2900  204.9440  149.7700 C   0  0  1  0  0  3  0  0  0  0  0  0
  159.9430  206.4420  149.8030 C   0  0  2  0  0  3  0  0  0  0  0  0
  160.4130  207.0360  148.4620 C   0  0  2  0  0  3  0  0  0  0  0  0
  162.7500  205.3380  152.7610 C   0  0  0  0  0  2  0  0  0  0  0  0
  160.8280  204.6150  148.3890 C   0  0  0  0  0  2  0  0  0  0  0  0
  161.4510  205.2070  150.7170 C   0  0  1  0  0  3  0  0  0  0  0  0
  162.3210  209.9620  151.3830 N   0  0  0  0  0  1  0  0  0  0  0  0
  161.4830  208.8550  151.6870 C   0  0  0  0  0  0  0  0  0  0  0  0
  160.3440  209.0550  152.1890 O   0  0  0  0  0  0  0  0  0  0  0  0
  163.1860  205.1070  146.8080 C   0  0  0  0  0  2  0  0  0  0  0  0
  161.8050  204.7560  144.7250 N   0  0  0  0  0  1  0  0  0  0  0  0
  163.9240  203.8250  144.9360 O   0  0  0  0  0  0  0  0  0  0  0  0
  163.0120  204.5310  145.4440 C   0  0  0  0  0  0  0  0  0  0  0  0
  161.9690  203.2170  151.9170 O   0  0  0  0  0  0  0  0  0  0  0  0
  160.8250  202.5690  151.8360 O   0  0  0  0  0  0  0  0  0  0  0  0
  161.1060  201.4670  151.1230 O   0  0  0  0  0  0  0  0  0  0  0  0
  160.6400  201.3190  149.8190 C   0  0  0  0  0  0  0  0  0  0  0  0
  159.4020  201.3480  149.5960 O   0  0  0  0  0  0  0  0  0  0  0  0
  161.5920  201.1460  148.6800 C   0  0  0  0  0  2  0  0  0  0  0  0
  160.7630  200.0990  144.5680 C   0  0  0  0  0  2  0  0  0  0  0  0
  160.6820  201.7490  146.4490 C   0  0  0  0  0  2  0  0  0  0  0  0
  159.9650  201.2340  145.2050 C   0  0  0  0  0  2  0  0  0  0  0  0
  160.9580  198.9660  145.5710 C   0  0  0  0  0  2  0  0  0  0  0  0
  161.6730  199.4830  146.8150 C   0  0  0  0  0  2  0  0  0  0  0  0
  160.8680  200.6160  147.4530 C   0  0  0  0  0  3  0  0  0  0  0  0
  1  8  1  0  0  0  0
  2  4  1  0  0  0  0
  2  3  1  0  0  0  0
  3  5  1  0  0  0  0
  4 13  1  0  0  0  0
  4 11  1  0  0  0  0
  6 12  1  0  0  0  0
  8 16  1  0  0  0  0
  8  7  1  0  0  0  0
  9 10  1  0  0  0  0
  9 14  1  0  0  0  0
 10  1  1  0  0  0  0
 11  5  1  0  0  0  0
 11 10  1  0  0  0  0
 12  7  1  0  0  0  0
 13  9  1  0  0  0  0
 14  1  1  0  0  0  0
 14  6  1  0  0  0  0
 15 16  1  0  0  0  0
 16 17  2  0  0  0  0
 18  2  1  0  0  0  0
 19 21  1  0  0  0  0
 20 21  2  0  0  0  0
 21 18  1  0  0  0  0
 22  6  1  0  0  0  0
 23 22  1  0  0  0  0
 24 23  1  0  0  0  0
 25 24  1  0  0  0  0
 26 25  2  0  0  0  0
 27 25  1  0  0  0  0
 28 30  1  0  0  0  0
 28 31  1  0  0  0  0
 29 33  1  0  0  0  0
 30 29  1  0  0  0  0
 31 32  1  0  0  0  0
 32 33  1  0  0  0  0
 33 27  1  0  0  0  0
M  END
>  <MODEL>
3

>  <REMARK>
 VINA RESULT:      -5.7      3.351      6.698
  Name = 
  9 active torsions:
  status: ('A' for Active; 'I' for Inactive)
    1  A    between atoms: C_2  and  C_20
    2  A    between atoms: O_4  and  O_11
    3  A    between atoms: O_4  and  C_23
    4  A    between atoms: C_8  and  O_32
    5  A    between atoms: C_10  and  C_23
    6  A    between atoms: C_10  and  C_33
    7  A    between atoms: O_11  and  O_32
    8  A    between atoms: C_12  and  C_26
    9  A    between atoms: C_14  and  C_20
                            x       y       z     vdW  Elec       q    Type
                         _______ _______ _______ _____ _____    ______ ____

>  <TORSDO>
F 9

$$$$
=
 OpenBabel11072412253D

 33 37  0  0  1  0  0  0  0  0999 V2000
  160.3520  210.8820  154.3130 C   0  0  1  0  0  3  0  0  0  0  0  0
  161.4260  207.4600  152.0800 C   0  0  2  0  0  3  0  0  0  0  0  0
  160.6730  207.3580  153.3880 C   0  0  0  0  0  2  0  0  0  0  0  0
  162.1510  208.8090  152.1060 C   0  0  2  0  0  3  0  0  0  0  0  0
  161.5110  208.1370  154.3780 C   0  0  0  0  0  2  0  0  0  0  0  0
  158.7230  211.9950  153.0110 C   0  0  1  0  0  3  0  0  0  0  0  0
  158.1270  210.9690  155.3130 C   0  0  0  0  0  2  0  0  0  0  0  0
  159.4220  210.1200  155.2380 C   0  0  2  0  0  3  0  0  0  0  0  0
  161.1450  211.0500  152.3680 C   0  0  1  0  0  3  0  0  0  0  0  0
  161.7430  210.6440  153.7260 C   0  0  2  0  0  3  0  0  0  0  0  0
  162.2510  209.1980  153.5720 C   0  0  2  0  0  3  0  0  0  0  0  0
  157.6020  211.4530  153.9280 C   0  0  0  0  0  2  0  0  0  0  0  0
  161.4110  209.9290  151.3810 C   0  0  0  0  0  2  0  0  0  0  0  0
  159.7490  210.8910  152.9520 C   0  0  1  0  0  3  0  0  0  0  0  0
  160.7520  211.0610  157.1630 N   0  0  0  0  0  1  0  0  0  0  0  0
  160.0090  209.9850  156.6070 C   0  0  0  0  0  0  0  0  0  0  0  0
  159.8900  208.9090  157.2550 O   0  0  0  0  0  0  0  0  0  0  0  0
  160.5240  207.2350  150.8690 C   0  0  0  0  0  2  0  0  0  0  0  0
  160.9220  205.9190  148.7530 N   0  0  0  0  0  1  0  0  0  0  0  0
  161.0950  204.9190  150.8440 O   0  0  0  0  0  0  0  0  0  0  0  0
  160.8700  205.9630  150.1740 C   0  0  0  0  0  0  0  0  0  0  0  0
  158.2150  212.2440  151.7330 O   0  0  0  0  0  0  0  0  0  0  0  0
  157.8090  213.4970  151.7730 O   0  0  0  0  0  0  0  0  0  0  0  0
  157.0550  213.6470  150.6740 O   0  0  0  0  0  0  0  0  0  0  0  0
  157.6110  213.5320  149.4010 C   0  0  0  0  0  0  0  0  0  0  0  0
  157.0390  212.8190  148.5380 O   0  0  0  0  0  0  0  0  0  0  0  0
  158.8660  214.2610  149.0450 C   0  0  0  0  0  2  0  0  0  0  0  0
  162.5250  212.7630  147.2960 C   0  0  0  0  0  2  0  0  0  0  0  0
  160.3430  213.9700  147.0700 C   0  0  0  0  0  2  0  0  0  0  0  0
  161.3430  213.0500  146.3740 C   0  0  0  0  0  2  0  0  0  0  0  0
  162.0380  212.1260  148.5940 C   0  0  0  0  0  2  0  0  0  0  0  0
  161.0370  213.0450  149.2870 C   0  0  0  0  0  2  0  0  0  0  0  0
  159.8520  213.3270  148.3620 C   0  0  0  0  0  3  0  0  0  0  0  0
  1  8  1  0  0  0  0
  2  4  1  0  0  0  0
  2  3  1  0  0  0  0
  3  5  1  0  0  0  0
  4 11  1  0  0  0  0
  6 12  1  0  0  0  0
  8  7  1  0  0  0  0
  8 16  1  0  0  0  0
  9 14  1  0  0  0  0
  9 10  1  0  0  0  0
 10  1  1  0  0  0  0
 11 10  1  0  0  0  0
 11  5  1  0  0  0  0
 12  7  1  0  0  0  0
 13  4  1  0  0  0  0
 13  9  1  0  0  0  0
 14  6  1  0  0  0  0
 14  1  1  0  0  0  0
 16 15  1  0  0  0  0
 16 17  2  0  0  0  0
 18  2  1  0  0  0  0
 19 21  1  0  0  0  0
 21 20  2  0  0  0  0
 21 18  1  0  0  0  0
 22 23  1  0  0  0  0
 22  6  1  0  0  0  0
 24 23  1  0  0  0  0
 25 24  1  0  0  0  0
 26 25  2  0  0  0  0
 27 25  1  0  0  0  0
 28 31  1  0  0  0  0
 29 33  1  0  0  0  0
 30 29  1  0  0  0  0
 30 28  1  0  0  0  0
 31 32  1  0  0  0  0
 33 27  1  0  0  0  0
 33 32  1  0  0  0  0
M  END
>  <MODEL>
4

>  <REMARK>
 VINA RESULT:      -5.3      3.434      7.747
  Name = 
  9 active torsions:
  status: ('A' for Active; 'I' for Inactive)
    1  A    between atoms: C_2  and  C_20
    2  A    between atoms: O_4  and  O_11
    3  A    between atoms: O_4  and  C_23
    4  A    between atoms: C_8  and  O_32
    5  A    between atoms: C_10  and  C_23
    6  A    between atoms: C_10  and  C_33
    7  A    between atoms: O_11  and  O_32
    8  A    between atoms: C_12  and  C_26
    9  A    between atoms: C_14  and  C_20
                            x       y       z     vdW  Elec       q    Type
                         _______ _______ _______ _____ _____    ______ ____

>  <TORSDO>
F 9

$$$$
=
 OpenBabel11072412253D

 33 37  0  0  1  0  0  0  0  0999 V2000
  160.1730  211.8730  154.7100 C   0  0  1  0  0  3  0  0  0  0  0  0
  160.8160  208.5660  157.2580 C   0  0  2  0  0  3  0  0  0  0  0  0
  159.4240  209.0440  156.9030 C   0  0  0  0  0  2  0  0  0  0  0  0
  161.7470  209.7620  157.0480 C   0  0  2  0  0  3  0  0  0  0  0  0
  159.4210  210.5160  157.2540 C   0  0  0  0  0  2  0  0  0  0  0  0
  160.9010  211.1710  152.5730 C   0  0  1  0  0  3  0  0  0  0  0  0
  158.4120  211.7220  153.0260 C   0  0  0  0  0  2  0  0  0  0  0  0
  158.6900  211.5980  154.5460 C   0  0  2  0  0  3  0  0  0  0  0  0
  162.0950  211.0500  154.9680 C   0  0  1  0  0  3  0  0  0  0  0  0
  161.1610  211.8700  155.8750 C   0  0  2  0  0  3  0  0  0  0  0  0
  160.8600  210.9950  157.1070 C   0  0  2  0  0  3  0  0  0  0  0  0
  159.4350  210.9650  152.1280 C   0  0  0  0  0  2  0  0  0  0  0  0
  162.4580  209.7700  155.6990 C   0  0  0  0  0  2  0  0  0  0  0  0
  160.9250  210.7830  154.0310 C   0  0  1  0  0  3  0  0  0  0  0  0
  158.3200  213.9450  155.3910 N   0  0  0  0  0  1  0  0  0  0  0  0
  157.8660  212.6020  155.2870 C   0  0  0  0  0  0  0  0  0  0  0  0
  156.7960  212.2600  155.8600 O   0  0  0  0  0  0  0  0  0  0  0  0
  161.2080  207.3000  156.4990 C   0  0  0  0  0  2  0  0  0  0  0  0
  158.8610  206.7770  155.7360 N   0  0  0  0  0  1  0  0  0  0  0  0
  160.6150  206.9280  154.2180 O   0  0  0  0  0  0  0  0  0  0  0  0
  160.2290  207.0030  155.4160 C   0  0  0  0  0  0  0  0  0  0  0  0
  161.7450  210.3310  151.8410 O   0  0  0  0  0  0  0  0  0  0  0  0
  161.1150  209.1760  151.8030 O   0  0  0  0  0  0  0  0  0  0  0  0
  162.0600  208.2820  151.4760 O   0  0  0  0  0  0  0  0  0  0  0  0
  161.8250  207.3130  150.5030 C   0  0  0  0  0  0  0  0  0  0  0  0
  162.5390  207.2890  149.4670 O   0  0  0  0  0  0  0  0  0  0  0  0
  160.7510  206.2900  150.6830 C   0  0  0  0  0  2  0  0  0  0  0  0
  160.8280  202.0690  149.7520 C   0  0  0  0  0  2  0  0  0  0  0  0
  160.7710  203.9230  151.4340 C   0  0  0  0  0  2  0  0  0  0  0  0
  161.2850  202.5160  151.1380 C   0  0  0  0  0  2  0  0  0  0  0  0
  161.3290  203.0460  148.6930 C   0  0  0  0  0  2  0  0  0  0  0  0
  160.8170  204.4510  148.9900 C   0  0  0  0  0  2  0  0  0  0  0  0
  161.2800  204.8980  150.3780 C   0  0  0  0  0  3  0  0  0  0  0  0
  1 10  1  0  0  0  0
  3  5  1  0  0  0  0
  3  2  1  0  0  0  0
  4 11  1  0  0  0  0
  4  2  1  0  0  0  0
  6 14  1  0  0  0  0
  7  8  1  0  0  0  0
  8  1  1  0  0  0  0
  8 16  1  0  0  0  0
  9 13  1  0  0  0  0
  9 10  1  0  0  0  0
 10 11  1  0  0  0  0
 11  5  1  0  0  0  0
 12  6  1  0  0  0  0
 12  7  1  0  0  0  0
 13  4  1  0  0  0  0
 14  1  1  0  0  0  0
 14  9  1  0  0  0  0
 16 15  1  0  0  0  0
 16 17  2  0  0  0  0
 18  2  1  0  0  0  0
 20 21  2  0  0  0  0
 21 19  1  0  0  0  0
 21 18  1  0  0  0  0
 22  6  1  0  0  0  0
 23 22  1  0  0  0  0
 24 23  1  0  0  0  0
 25 27  1  0  0  0  0
 25 24  1  0  0  0  0
 26 25  2  0  0  0  0
 28 30  1  0  0  0  0
 30 29  1  0  0  0  0
 31 32  1  0  0  0  0
 31 28  1  0  0  0  0
 32 33  1  0  0  0  0
 33 27  1  0  0  0  0
 33 29  1  0  0  0  0
M  END
>  <MODEL>
5

>  <REMARK>
 VINA RESULT:      -5.2      2.260      4.501
  Name = 
  9 active torsions:
  status: ('A' for Active; 'I' for Inactive)
    1  A    between atoms: C_2  and  C_20
    2  A    between atoms: O_4  and  O_11
    3  A    between atoms: O_4  and  C_23
    4  A    between atoms: C_8  and  O_32
    5  A    between atoms: C_10  and  C_23
    6  A    between atoms: C_10  and  C_33
    7  A    between atoms: O_11  and  O_32
    8  A    between atoms: C_12  and  C_26
    9  A    between atoms: C_14  and  C_20
                            x       y       z     vdW  Elec       q    Type
                         _______ _______ _______ _____ _____    ______ ____

>  <TORSDO>
F 9

$$$$
=
 OpenBabel11072412253D

 33 37  0  0  1  0  0  0  0  0999 V2000
  161.0960  209.9900  155.5100 C   0  0  1  0  0  3  0  0  0  0  0  0
  158.5160  213.2830  156.0960 C   0  0  2  0  0  3  0  0  0  0  0  0
  160.0180  213.4110  156.2260 C   0  0  0  0  0  2  0  0  0  0  0  0
  158.1890  211.8040  156.3220 C   0  0  2  0  0  3  0  0  0  0  0  0
  160.4130  212.3360  157.2150 C   0  0  0  0  0  2  0  0  0  0  0  0
  160.9460  209.4760  153.2070 C   0  0  1  0  0  3  0  0  0  0  0  0
  163.1560  210.3340  154.2470 C   0  0  0  0  0  2  0  0  0  0  0  0
  162.3510  210.8410  155.4710 C   0  0  2  0  0  3  0  0  0  0  0  0
  159.0430  209.8650  155.0520 C   0  0  1  0  0  3  0  0  0  0  0  0
  159.8340  209.9450  156.3700 C   0  0  2  0  0  3  0  0  0  0  0  0
  159.3720  211.2300  157.0840 C   0  0  2  0  0  3  0  0  0  0  0  0
  162.3070  210.1640  152.9520 C   0  0  0  0  0  2  0  0  0  0  0  0
  158.0320  210.9960  155.0380 C   0  0  0  0  0  2  0  0  0  0  0  0
  160.2920  210.2930  154.2950 C   0  0  1  0  0  3  0  0  0  0  0  0
  163.8770  211.7700  157.2520 N   0  0  0  0  0  1  0  0  0  0  0  0
  163.1660  210.6630  156.7130 C   0  0  0  0  0  0  0  0  0  0  0  0
  163.2670  209.5310  157.2600 O   0  0  0  0  0  0  0  0  0  0  0  0
  157.9920  213.8660  154.7850 C   0  0  0  0  0  2  0  0  0  0  0  0
  155.6680  214.0550  155.7490 N   0  0  0  0  0  1  0  0  0  0  0  0
  156.0240  213.1720  153.6290 O   0  0  0  0  0  0  0  0  0  0  0  0
  156.5180  213.6810  154.6700 C   0  0  0  0  0  0  0  0  0  0  0  0
  160.1680  209.5140  152.0470 O   0  0  0  0  0  0  0  0  0  0  0  0
  160.7630  208.6830  151.2170 O   0  0  0  0  0  0  0  0  0  0  0  0
  160.5720  207.4690  151.7530 O   0  0  0  0  0  0  0  0  0  0  0  0
  161.4190  206.4070  151.4450 C   0  0  0  0  0  0  0  0  0  0  0  0
  162.6420  206.4890  151.7250 O   0  0  0  0  0  0  0  0  0  0  0  0
  160.8890  205.1640  150.8050 C   0  0  0  0  0  2  0  0  0  0  0  0
  161.2850  204.6560  146.5300 C   0  0  0  0  0  2  0  0  0  0  0  0
  160.9590  203.6830  148.8130 C   0  0  0  0  0  2  0  0  0  0  0  0
  161.5740  203.4610  147.4340 C   0  0  0  0  0  2  0  0  0  0  0  0
  161.8370  205.9340  147.1540 C   0  0  0  0  0  2  0  0  0  0  0  0
  161.2240  206.1530  148.5330 C   0  0  0  0  0  2  0  0  0  0  0  0
  161.5200  204.9560  149.4380 C   0  0  0  0  0  3  0  0  0  0  0  0
  1 10  1  0  0  0  0
  2  3  1  0  0  0  0
  2  4  1  0  0  0  0
  3  5  1  0  0  0  0
  4 11  1  0  0  0  0
  6 14  1  0  0  0  0
  7  8  1  0  0  0  0
  8  1  1  0  0  0  0
  8 16  1  0  0  0  0
  9 10  1  0  0  0  0
 10 11  1  0  0  0  0
 11  5  1  0  0  0  0
 12  6  1  0  0  0  0
 12  7  1  0  0  0  0
 13  9  1  0  0  0  0
 13  4  1  0  0  0  0
 14  9  1  0  0  0  0
 14  1  1  0  0  0  0
 16 15  1  0  0  0  0
 16 17  2  0  0  0  0
 18  2  1  0  0  0  0
 20 21  2  0  0  0  0
 21 18  1  0  0  0  0
 21 19  1  0  0  0  0
 22  6  1  0  0  0  0
 23 24  1  0  0  0  0
 23 22  1  0  0  0  0
 25 26  2  0  0  0  0
 25 24  1  0  0  0  0
 27 25  1  0  0  0  0
 28 31  1  0  0  0  0
 28 30  1  0  0  0  0
 29 33  1  0  0  0  0
 30 29  1  0  0  0  0
 31 32  1  0  0  0  0
 32 33  1  0  0  0  0
 33 27  1  0  0  0  0
M  END
>  <MODEL>
6

>  <REMARK>
 VINA RESULT:      -5.2      2.607      3.606
  Name = 
  9 active torsions:
  status: ('A' for Active; 'I' for Inactive)
    1  A    between atoms: C_2  and  C_20
    2  A    between atoms: O_4  and  O_11
    3  A    between atoms: O_4  and  C_23
    4  A    between atoms: C_8  and  O_32
    5  A    between atoms: C_10  and  C_23
    6  A    between atoms: C_10  and  C_33
    7  A    between atoms: O_11  and  O_32
    8  A    between atoms: C_12  and  C_26
    9  A    between atoms: C_14  and  C_20
                            x       y       z     vdW  Elec       q    Type
                         _______ _______ _______ _____ _____    ______ ____

>  <TORSDO>
F 9

$$$$
=
 OpenBabel11072412253D

 33 37  0  0  1  0  0  0  0  0999 V2000
  162.1170  207.9940  151.6040 C   0  0  1  0  0  3  0  0  0  0  0  0
  160.7990  205.4770  148.4780 C   0  0  2  0  0  3  0  0  0  0  0  0
  160.0070  205.6470  149.7570 C   0  0  0  0  0  2  0  0  0  0  0  0
  162.2450  205.8460  148.8170 C   0  0  2  0  0  3  0  0  0  0  0  0
  160.9910  205.3360  150.8640 C   0  0  0  0  0  2  0  0  0  0  0  0
  161.9550  210.1930  150.7520 C   0  0  1  0  0  3  0  0  0  0  0  0
  160.4780  209.4110  152.7290 C   0  0  0  0  0  2  0  0  0  0  0  0
  160.7970  207.9420  152.3500 C   0  0  2  0  0  3  0  0  0  0  0  0
  163.0770  207.9860  149.7290 C   0  0  1  0  0  3  0  0  0  0  0  0
  163.0080  206.9780  150.8900 C   0  0  2  0  0  3  0  0  0  0  0  0
  162.3700  205.6950  150.3250 C   0  0  2  0  0  3  0  0  0  0  0  0
  160.6570  210.4240  151.5600 C   0  0  0  0  0  2  0  0  0  0  0  0
  162.6230  207.2810  148.4650 C   0  0  0  0  0  2  0  0  0  0  0  0
  161.9050  208.7430  150.3360 C   0  0  1  0  0  3  0  0  0  0  0  0
  160.3650  207.6100  154.8130 N   0  0  0  0  0  1  0  0  0  0  0  0
  160.9070  207.1190  153.5940 C   0  0  0  0  0  0  0  0  0  0  0  0
  161.5170  206.0140  153.5830 O   0  0  0  0  0  0  0  0  0  0  0  0
  160.1910  206.2520  147.3100 C   0  0  0  0  0  2  0  0  0  0  0  0
  161.2280  204.3850  145.9660 N   0  0  0  0  0  1  0  0  0  0  0  0
  160.4620  206.3250  144.9410 O   0  0  0  0  0  0  0  0  0  0  0  0
  160.6190  205.6700  146.0060 C   0  0  0  0  0  0  0  0  0  0  0  0
  161.9660  211.0140  149.6210 O   0  0  0  0  0  0  0  0  0  0  0  0
  161.1960  212.0340  149.9410 O   0  0  0  0  0  0  0  0  0  0  0  0
  161.4800  212.9750  149.0280 O   0  0  0  0  0  0  0  0  0  0  0  0
  160.5510  213.3320  148.0530 C   0  0  0  0  0  0  0  0  0  0  0  0
  159.9820  214.4510  148.1200 O   0  0  0  0  0  0  0  0  0  0  0  0
  160.2380  212.4100  146.9190 C   0  0  0  0  0  2  0  0  0  0  0  0
  162.1730  212.7250  143.0650 C   0  0  0  0  0  2  0  0  0  0  0  0
  162.2520  212.9240  145.5590 C   0  0  0  0  0  2  0  0  0  0  0  0
  162.7650  213.4970  144.2410 C   0  0  0  0  0  2  0  0  0  0  0  0
  160.6490  212.7850  143.1090 C   0  0  0  0  0  2  0  0  0  0  0  0
  160.1380  212.2140  144.4280 C   0  0  0  0  0  2  0  0  0  0  0  0
  160.7290  212.9930  145.6040 C   0  0  0  0  0  3  0  0  0  0  0  0
  1  8  1  0  0  0  0
  2  4  1  0  0  0  0
  2  3  1  0  0  0  0
  3  5  1  0  0  0  0
  4 11  1  0  0  0  0
  6 12  1  0  0  0  0
  8  7  1  0  0  0  0
  8 16  1  0  0  0  0
  9 14  1  0  0  0  0
  9 10  1  0  0  0  0
 10  1  1  0  0  0  0
 11  5  1  0  0  0  0
 11 10  1  0  0  0  0
 12  7  1  0  0  0  0
 13  4  1  0  0  0  0
 13  9  1  0  0  0  0
 14  6  1  0  0  0  0
 14  1  1  0  0  0  0
 16 15  1  0  0  0  0
 17 16  2  0  0  0  0
 18  2  1  0  0  0  0
 19 21  1  0  0  0  0
 20 21  2  0  0  0  0
 21 18  1  0  0  0  0
 22 23  1  0  0  0  0
 22  6  1  0  0  0  0
 24 23  1  0  0  0  0
 25 26  2  0  0  0  0
 25 24  1  0  0  0  0
 27 25  1  0  0  0  0
 28 31  1  0  0  0  0
 28 30  1  0  0  0  0
 29 33  1  0  0  0  0
 30 29  1  0  0  0  0
 31 32  1  0  0  0  0
 32 33  1  0  0  0  0
 33 27  1  0  0  0  0
M  END
>  <MODEL>
7

>  <REMARK>
 VINA RESULT:      -5.0      4.193      8.453
  Name = 
  9 active torsions:
  status: ('A' for Active; 'I' for Inactive)
    1  A    between atoms: C_2  and  C_20
    2  A    between atoms: O_4  and  O_11
    3  A    between atoms: O_4  and  C_23
    4  A    between atoms: C_8  and  O_32
    5  A    between atoms: C_10  and  C_23
    6  A    between atoms: C_10  and  C_33
    7  A    between atoms: O_11  and  O_32
    8  A    between atoms: C_12  and  C_26
    9  A    between atoms: C_14  and  C_20
                            x       y       z     vdW  Elec       q    Type
                         _______ _______ _______ _____ _____    ______ ____

>  <TORSDO>
F 9

$$$$
=
 OpenBabel11072412253D

 33 37  0  0  1  0  0  0  0  0999 V2000
  159.6360  211.8730  154.9850 C   0  0  1  0  0  3  0  0  0  0  0  0
  160.6640  207.7790  154.8200 C   0  0  2  0  0  3  0  0  0  0  0  0
  159.2720  208.2400  155.1930 C   0  0  0  0  0  2  0  0  0  0  0  0
  161.6000  208.9540  155.1190 C   0  0  2  0  0  3  0  0  0  0  0  0
  159.4810  209.2180  156.3290 C   0  0  0  0  0  2  0  0  0  0  0  0
  159.7080  212.6300  152.7470 C   0  0  1  0  0  3  0  0  0  0  0  0
  157.4830  212.5720  154.0700 C   0  0  0  0  0  2  0  0  0  0  0  0
  158.1460  211.6070  155.0860 C   0  0  2  0  0  3  0  0  0  0  0  0
  161.4830  211.2420  154.1940 C   0  0  1  0  0  3  0  0  0  0  0  0
  160.8950  211.2810  155.6160 C   0  0  2  0  0  3  0  0  0  0  0  0
  160.8630  209.8260  156.1220 C   0  0  2  0  0  3  0  0  0  0  0  0
  158.1650  212.5860  152.6690 C   0  0  0  0  0  2  0  0  0  0  0  0
  161.9240  209.8190  153.9050 C   0  0  0  0  0  2  0  0  0  0  0  0
  160.0890  211.4660  153.6280 C   0  0  1  0  0  3  0  0  0  0  0  0
  156.3520  211.4250  156.8500 N   0  0  0  0  0  1  0  0  0  0  0  0
  157.6330  211.9020  156.4600 C   0  0  0  0  0  0  0  0  0  0  0  0
  158.3050  212.6080  157.2600 O   0  0  0  0  0  0  0  0  0  0  0  0
  160.7370  207.2440  153.3910 C   0  0  0  0  0  2  0  0  0  0  0  0
  160.9540  204.7330  153.2600 N   0  0  0  0  0  1  0  0  0  0  0  0
  162.8310  206.1020  153.3520 O   0  0  0  0  0  0  0  0  0  0  0  0
  161.5740  206.0120  153.3250 C   0  0  0  0  0  0  0  0  0  0  0  0
  160.2550  212.4640  151.4720 O   0  0  0  0  0  0  0  0  0  0  0  0
  160.6080  211.1960  151.4220 O   0  0  0  0  0  0  0  0  0  0  0  0
  161.6800  211.1710  150.6160 O   0  0  0  0  0  0  0  0  0  0  0  0
  161.8910  210.1130  149.7350 C   0  0  0  0  0  0  0  0  0  0  0  0
  161.9860  210.3420  148.5020 O   0  0  0  0  0  0  0  0  0  0  0  0
  162.0260  208.7120  150.2390 C   0  0  0  0  0  2  0  0  0  0  0  0
  161.5820  205.1000  147.9050 C   0  0  0  0  0  2  0  0  0  0  0  0
  162.6050  207.3610  148.2380 C   0  0  0  0  0  2  0  0  0  0  0  0
  162.0910  206.3580  147.2080 C   0  0  0  0  0  2  0  0  0  0  0  0
  160.4740  205.4570  148.8910 C   0  0  0  0  0  2  0  0  0  0  0  0
  160.9870  206.4600  149.9190 C   0  0  0  0  0  2  0  0  0  0  0  0
  161.4930  207.7220  149.2170 C   0  0  0  0  0  3  0  0  0  0  0  0
  1  8  1  0  0  0  0
  1 10  1  0  0  0  0
  2  4  1  0  0  0  0
  2  3  1  0  0  0  0
  3  5  1  0  0  0  0
  4 11  1  0  0  0  0
  6 14  1  0  0  0  0
  7  8  1  0  0  0  0
  8 16  1  0  0  0  0
  9 10  1  0  0  0  0
 10 11  1  0  0  0  0
 11  5  1  0  0  0  0
 12  6  1  0  0  0  0
 12  7  1  0  0  0  0
 13  9  1  0  0  0  0
 13  4  1  0  0  0  0
 14  9  1  0  0  0  0
 14  1  1  0  0  0  0
 16 15  1  0  0  0  0
 16 17  2  0  0  0  0
 18  2  1  0  0  0  0
 19 21  1  0  0  0  0
 21 20  2  0  0  0  0
 21 18  1  0  0  0  0
 22  6  1  0  0  0  0
 23 22  1  0  0  0  0
 24 23  1  0  0  0  0
 25 27  1  0  0  0  0
 25 24  1  0  0  0  0
 26 25  2  0  0  0  0
 28 31  1  0  0  0  0
 29 33  1  0  0  0  0
 30 28  1  0  0  0  0
 30 29  1  0  0  0  0
 31 32  1  0  0  0  0
 33 32  1  0  0  0  0
 33 27  1  0  0  0  0
M  END
>  <MODEL>
8

>  <REMARK>
 VINA RESULT:      -5.0      2.431      5.789
  Name = 
  9 active torsions:
  status: ('A' for Active; 'I' for Inactive)
    1  A    between atoms: C_2  and  C_20
    2  A    between atoms: O_4  and  O_11
    3  A    between atoms: O_4  and  C_23
    4  A    between atoms: C_8  and  O_32
    5  A    between atoms: C_10  and  C_23
    6  A    between atoms: C_10  and  C_33
    7  A    between atoms: O_11  and  O_32
    8  A    between atoms: C_12  and  C_26
    9  A    between atoms: C_14  and  C_20
                            x       y       z     vdW  Elec       q    Type
                         _______ _______ _______ _____ _____    ______ ____

>  <TORSDO>
F 9

$$$$
=
 OpenBabel11072412253D

 33 37  0  0  1  0  0  0  0  0999 V2000
  162.1120  207.9660  151.7330 C   0  0  1  0  0  3  0  0  0  0  0  0
  160.8140  205.4780  148.5760 C   0  0  2  0  0  3  0  0  0  0  0  0
  160.0160  205.6340  149.8520 C   0  0  0  0  0  2  0  0  0  0  0  0
  162.2580  205.8470  148.9250 C   0  0  2  0  0  3  0  0  0  0  0  0
  160.9950  205.3140  150.9610 C   0  0  0  0  0  2  0  0  0  0  0  0
  161.9500  210.1730  150.9020 C   0  0  1  0  0  3  0  0  0  0  0  0
  160.4650  209.3690  152.8650 C   0  0  0  0  0  2  0  0  0  0  0  0
  160.7890  207.9040  152.4720 C   0  0  2  0  0  3  0  0  0  0  0  0
  163.0810  207.9790  149.8630 C   0  0  1  0  0  3  0  0  0  0  0  0
  163.0080  206.9600  151.0130 C   0  0  2  0  0  3  0  0  0  0  0  0
  162.3760  205.6810  150.4320 C   0  0  2  0  0  3  0  0  0  0  0  0
  160.6470  210.3940  151.7060 C   0  0  0  0  0  2  0  0  0  0  0  0
  162.6340  207.2860  148.5890 C   0  0  0  0  0  2  0  0  0  0  0  0
  161.9040  208.7280  150.4720 C   0  0  1  0  0  3  0  0  0  0  0  0
  160.0820  207.3720  154.8340 N   0  0  0  0  0  1  0  0  0  0  0  0
  160.8950  207.0690  153.7080 C   0  0  0  0  0  0  0  0  0  0  0  0
  161.7310  206.1270  153.7790 O   0  0  0  0  0  0  0  0  0  0  0  0
  160.2110  206.2630  147.4130 C   0  0  0  0  0  2  0  0  0  0  0  0
  160.0860  206.2000  144.8930 N   0  0  0  0  0  1  0  0  0  0  0  0
  161.3920  204.6820  146.0730 O   0  0  0  0  0  0  0  0  0  0  0  0
  160.6100  205.6690  146.1050 C   0  0  0  0  0  0  0  0  0  0  0  0
  161.9640  211.0060  149.7790 O   0  0  0  0  0  0  0  0  0  0  0  0
  161.0200  211.8950  150.0100 O   0  0  0  0  0  0  0  0  0  0  0  0
  161.3050  212.9170  149.1890 O   0  0  0  0  0  0  0  0  0  0  0  0
  161.5280  212.7040  147.8300 C   0  0  0  0  0  0  0  0  0  0  0  0
  162.6530  212.9740  147.3370 O   0  0  0  0  0  0  0  0  0  0  0  0
  160.4540  212.1400  146.9570 C   0  0  0  0  0  2  0  0  0  0  0  0
  156.7070  213.9320  145.7550 C   0  0  0  0  0  2  0  0  0  0  0  0
  159.0090  213.1240  145.1920 C   0  0  0  0  0  2  0  0  0  0  0  0
  157.9380  214.1660  144.8830 C   0  0  0  0  0  2  0  0  0  0  0  0
  157.0890  213.9910  147.2310 C   0  0  0  0  0  2  0  0  0  0  0  0
  158.1610  212.9510  147.5380 C   0  0  0  0  0  2  0  0  0  0  0  0
  159.3940  213.1910  146.6660 C   0  0  0  0  0  3  0  0  0  0  0  0
  1  8  1  0  0  0  0
  2  4  1  0  0  0  0
  2  3  1  0  0  0  0
  3  5  1  0  0  0  0
  4 11  1  0  0  0  0
  6 12  1  0  0  0  0
  8  7  1  0  0  0  0
  8 16  1  0  0  0  0
  9 14  1  0  0  0  0
  9 10  1  0  0  0  0
 10  1  1  0  0  0  0
 11  5  1  0  0  0  0
 11 10  1  0  0  0  0
 12  7  1  0  0  0  0
 13  4  1  0  0  0  0
 13  9  1  0  0  0  0
 14  6  1  0  0  0  0
 14  1  1  0  0  0  0
 16 17  2  0  0  0  0
 16 15  1  0  0  0  0
 18  2  1  0  0  0  0
 19 21  1  0  0  0  0
 20 21  2  0  0  0  0
 21 18  1  0  0  0  0
 22 23  1  0  0  0  0
 22  6  1  0  0  0  0
 24 23  1  0  0  0  0
 25 24  1  0  0  0  0
 26 25  2  0  0  0  0
 27 25  1  0  0  0  0
 28 31  1  0  0  0  0
 29 33  1  0  0  0  0
 30 29  1  0  0  0  0
 30 28  1  0  0  0  0
 31 32  1  0  0  0  0
 33 27  1  0  0  0  0
 33 32  1  0  0  0  0
M  END
>  <MODEL>
9

>  <REMARK>
 VINA RESULT:      -4.8      3.948      8.487
  Name = 
  9 active torsions:
  status: ('A' for Active; 'I' for Inactive)
    1  A    between atoms: C_2  and  C_20
    2  A    between atoms: O_4  and  O_11
    3  A    between atoms: O_4  and  C_23
    4  A    between atoms: C_8  and  O_32
    5  A    between atoms: C_10  and  C_23
    6  A    between atoms: C_10  and  C_33
    7  A    between atoms: O_11  and  O_32
    8  A    between atoms: C_12  and  C_26
    9  A    between atoms: C_14  and  C_20
                            x       y       z     vdW  Elec       q    Type
                         _______ _______ _______ _____ _____    ______ ____

>  <TORSDO>
F 9

$$$$
