=
 OpenBabel11072414133D

 28 33  0  0  1  0  0  0  0  0999 V2000
  161.2840  204.0140  145.8960 C   0  0  2  0  0  3  0  0  0  0  0  0
  160.5960  205.2260  152.6160 N   0  0  0  0  0  1  0  0  0  0  0  0
  160.7770  204.2470  151.6000 C   0  0  0  0  0  0  0  0  0  0  0  0
  161.2970  205.3300  145.1240 C   0  0  0  0  0  2  0  0  0  0  0  0
  160.9140  202.3930  150.5440 C   0  0  0  0  0  0  0  0  0  0  0  0
  160.7190  202.9690  151.8340 N   0  0  0  0  0  0  0  0  0  0  0  0
  161.5070  201.2950  146.4490 C   0  0  0  0  0  2  0  0  0  0  0  0
  161.2240  205.8090  149.4190 C   0  0  1  0  0  3  0  0  0  0  0  0
  160.0770  203.1850  145.4660 C   0  0  0  0  0  2  0  0  0  0  0  0
  161.2920  204.1940  147.4070 C   0  0  0  0  0  0  0  0  0  0  0  0
  161.1920  205.5490  147.9610 N   0  0  0  0  0  0  0  0  0  0  0  0
  161.1240  200.7310  148.8390 C   0  0  0  0  0  3  0  0  0  0  0  0
  161.2770  206.6750  147.1160 N   0  0  0  0  0  2  0  0  0  0  0  0
  161.2780  201.7430  147.8600 C   0  0  0  0  0  0  0  0  0  0  0  0
  161.0010  204.5350  150.1760 C   0  0  0  0  0  0  0  0  0  0  0  0
  161.2440  203.1200  148.2460 C   0  0  0  0  0  0  0  0  0  0  0  0
  160.9330  201.0480  150.1970 C   0  0  0  0  0  3  0  0  0  0  0  0
  160.5510  206.4100  145.8830 C   0  0  0  0  0  2  0  0  0  0  0  0
  160.3470  201.6790  145.5310 C   0  0  0  0  0  2  0  0  0  0  0  0
  161.0740  203.3660  149.6020 C   0  0  0  0  0  0  0  0  0  0  0  0
  162.6940  206.6550  151.2900 C   0  0  0  0  0  2  0  0  0  0  0  0
  162.5860  206.4080  149.7970 C   0  0  2  0  0  3  0  0  0  0  0  0
  162.5290  207.8370  150.3590 C   0  0  1  0  0  3  0  0  0  0  0  0
  161.1270  208.4120  150.5430 C   0  0  0  0  0  2  0  0  0  0  0  0
  160.8530  208.6910  152.0130 C   0  0  0  0  0  2  0  0  0  0  0  0
  160.9120  210.1810  152.3080 C   0  0  0  0  0  3  0  0  0  0  0  0
  159.6640  210.6130  152.7540 O   0  0  0  0  0  1  0  0  0  0  0  0
  161.8670  210.4330  153.2930 O   0  0  0  0  0  1  0  0  0  0  0  0
  1  4  1  6  0  0  0
  1 10  1  0  0  0  0
  3  6  2  0  0  0  0
  3  2  1  0  0  0  0
  4 18  1  0  0  0  0
  5  6  1  0  0  0  0
  7 14  1  0  0  0  0
  8 22  1  0  0  0  0
  8 15  1  1  0  0  0
  9 19  1  0  0  0  0
  9  1  1  0  0  0  0
 10 11  1  0  0  0  0
 10 16  2  0  0  0  0
 11  8  1  0  0  0  0
 12 17  1  0  0  0  0
 13 11  1  0  0  0  0
 14 16  1  0  0  0  0
 14 12  2  0  0  0  0
 15  3  1  0  0  0  0
 16 20  1  0  0  0  0
 17  5  2  0  0  0  0
 18 13  1  0  0  0  0
 19  7  1  0  0  0  0
 20 15  2  0  0  0  0
 20  5  1  0  0  0  0
 22 23  1  0  0  0  0
 22 21  1  1  0  0  0
 23 24  1  1  0  0  0
 23 21  1  0  0  0  0
 24 25  1  0  0  0  0
 25 26  1  0  0  0  0
 26 27  1  0  0  0  0
 26 28  1  0  0  0  0
M  END
>  <MODEL>
1

>  <REMARK>
 VINA RESULT:      -8.6      0.000      0.000
  Name = 
  4 active torsions:
  status: ('A' for Active; 'I' for Inactive)
    1  A    between atoms: C_7  and  C_11
    2  A    between atoms: C_8  and  C_14
    3  A    between atoms: C_8  and  C_22
    4  A    between atoms: C_14  and  C_18
                            x       y       z     vdW  Elec       q    Type
                         _______ _______ _______ _____ _____    ______ ____

>  <TORSDO>
F 4

$$$$
=
 OpenBabel11072414133D

 28 33  0  0  1  0  0  0  0  0999 V2000
  161.2350  203.5780  145.4170 C   0  0  2  0  0  3  0  0  0  0  0  0
  160.7660  206.1060  151.7810 N   0  0  0  0  0  1  0  0  0  0  0  0
  160.8580  204.9390  150.9720 C   0  0  0  0  0  0  0  0  0  0  0  0
  161.3270  204.7160  144.4060 C   0  0  0  0  0  2  0  0  0  0  0  0
  160.8410  202.9110  150.2940 C   0  0  0  0  0  0  0  0  0  0  0  0
  160.7120  203.7370  151.4490 N   0  0  0  0  0  0  0  0  0  0  0  0
  161.2740  201.0060  146.4840 C   0  0  0  0  0  2  0  0  0  0  0  0
  161.3720  206.0150  148.5280 C   0  0  1  0  0  3  0  0  0  0  0  0
  159.9640  202.7730  145.1630 C   0  0  0  0  0  2  0  0  0  0  0  0
  161.2850  204.0440  146.8650 C   0  0  0  0  0  0  0  0  0  0  0  0
  161.2940  205.4830  147.1480 N   0  0  0  0  0  0  0  0  0  0  0  0
  160.8980  200.9420  148.9400 C   0  0  0  0  0  3  0  0  0  0  0  0
  161.4420  206.4170  146.1010 N   0  0  0  0  0  2  0  0  0  0  0  0
  161.1050  201.7330  147.7830 C   0  0  0  0  0  0  0  0  0  0  0  0
  161.0730  204.9300  149.5180 C   0  0  0  0  0  0  0  0  0  0  0  0
  161.1770  203.1570  147.8960 C   0  0  0  0  0  0  0  0  0  0  0  0
  160.7570  201.5270  150.2130 C   0  0  0  0  0  3  0  0  0  0  0  0
  160.6750  205.9740  144.9470 C   0  0  0  0  0  2  0  0  0  0  0  0
  160.1270  201.2910  145.5150 C   0  0  0  0  0  2  0  0  0  0  0  0
  161.0510  203.6710  149.1800 C   0  0  0  0  0  0  0  0  0  0  0  0
  162.8480  207.3700  150.0660 C   0  0  0  0  0  2  0  0  0  0  0  0
  162.7810  206.5730  148.7770 C   0  0  2  0  0  3  0  0  0  0  0  0
  162.8830  208.1060  148.7440 C   0  0  1  0  0  3  0  0  0  0  0  0
  161.5600  208.8460  148.5620 C   0  0  0  0  0  2  0  0  0  0  0  0
  161.6500  210.2510  149.1380 C   0  0  0  0  0  2  0  0  0  0  0  0
  161.9960  211.2640  148.0590 C   0  0  0  0  0  3  0  0  0  0  0  0
  160.8220  211.7270  147.4660 O   0  0  0  0  0  1  0  0  0  0  0  0
  162.6850  212.3400  148.6200 O   0  0  0  0  0  1  0  0  0  0  0  0
  1  4  1  6  0  0  0
  1 10  1  0  0  0  0
  3  6  2  0  0  0  0
  3  2  1  0  0  0  0
  4 18  1  0  0  0  0
  5  6  1  0  0  0  0
  7 14  1  0  0  0  0
  8 22  1  0  0  0  0
  8 15  1  1  0  0  0
  9  1  1  0  0  0  0
  9 19  1  0  0  0  0
 10 11  1  0  0  0  0
 10 16  2  0  0  0  0
 11  8  1  0  0  0  0
 12 17  1  0  0  0  0
 13 11  1  0  0  0  0
 14 16  1  0  0  0  0
 14 12  2  0  0  0  0
 15  3  1  0  0  0  0
 16 20  1  0  0  0  0
 17  5  2  0  0  0  0
 18 13  1  0  0  0  0
 19  7  1  0  0  0  0
 20 15  2  0  0  0  0
 20  5  1  0  0  0  0
 22 21  1  1  0  0  0
 23 24  1  1  0  0  0
 23 22  1  0  0  0  0
 23 21  1  0  0  0  0
 24 25  1  0  0  0  0
 26 28  1  0  0  0  0
 26 25  1  0  0  0  0
 27 26  1  0  0  0  0
M  END
>  <MODEL>
2

>  <REMARK>
 VINA RESULT:      -8.6      1.857      1.978
  Name = 
  4 active torsions:
  status: ('A' for Active; 'I' for Inactive)
    1  A    between atoms: C_7  and  C_11
    2  A    between atoms: C_8  and  C_14
    3  A    between atoms: C_8  and  C_22
    4  A    between atoms: C_14  and  C_18
                            x       y       z     vdW  Elec       q    Type
                         _______ _______ _______ _____ _____    ______ ____

>  <TORSDO>
F 4

$$$$
=
 OpenBabel11072414133D

 28 33  0  0  1  0  0  0  0  0999 V2000
  160.6030  201.3580  148.8330 C   0  0  2  0  0  3  0  0  0  0  0  0
  162.8350  207.8300  148.3390 N   0  0  0  0  0  1  0  0  0  0  0  0
  162.3500  206.6870  147.6450 C   0  0  0  0  0  0  0  0  0  0  0  0
  160.5440  200.9340  150.2970 C   0  0  0  0  0  2  0  0  0  0  0  0
  161.8200  205.2940  146.1110 C   0  0  0  0  0  0  0  0  0  0  0  0
  162.3410  206.6010  146.3470 N   0  0  0  0  0  0  0  0  0  0  0  0
  160.2580  201.3080  146.0710 C   0  0  0  0  0  2  0  0  0  0  0  0
  161.5870  205.0870  149.7080 C   0  0  1  0  0  3  0  0  0  0  0  0
  161.6080  200.4820  148.0900 C   0  0  0  0  0  2  0  0  0  0  0  0
  160.9390  202.8300  148.6380 C   0  0  0  0  0  0  0  0  0  0  0  0
  161.2790  203.6420  149.8110 N   0  0  0  0  0  0  0  0  0  0  0  0
  161.0950  203.3490  144.9260 C   0  0  0  0  0  3  0  0  0  0  0  0
  161.1160  203.1220  151.1130 N   0  0  0  0  0  2  0  0  0  0  0  0
  160.8270  202.6920  146.1510 C   0  0  0  0  0  0  0  0  0  0  0  0
  161.8510  205.4580  148.2800 C   0  0  0  0  0  0  0  0  0  0  0  0
  161.0680  203.3650  147.3910 C   0  0  0  0  0  0  0  0  0  0  0  0
  161.6040  204.6610  144.8940 C   0  0  0  0  0  3  0  0  0  0  0  0
  161.5310  201.7270  151.1300 C   0  0  0  0  0  2  0  0  0  0  0  0
  161.2220  200.2590  146.6250 C   0  0  0  0  0  2  0  0  0  0  0  0
  161.5490  204.6640  147.2910 C   0  0  0  0  0  0  0  0  0  0  0  0
  160.7640  207.3560  150.4520 C   0  0  0  0  0  2  0  0  0  0  0  0
  160.3990  205.8980  150.2460 C   0  0  2  0  0  3  0  0  0  0  0  0
  160.5910  206.4630  151.6620 C   0  0  1  0  0  3  0  0  0  0  0  0
  161.9620  206.2140  152.2850 C   0  0  0  0  0  2  0  0  0  0  0  0
  161.8980  206.3680  153.7970 C   0  0  0  0  0  2  0  0  0  0  0  0
  160.7790  207.3130  154.2040 C   0  0  0  0  0  3  0  0  0  0  0  0
  160.3330  206.9760  155.4810 O   0  0  0  0  0  1  0  0  0  0  0  0
  161.2450  208.6280  154.2090 O   0  0  0  0  0  1  0  0  0  0  0  0
  1  9  1  6  0  0  0
  1  4  1  0  0  0  0
  3 15  1  0  0  0  0
  3  2  1  0  0  0  0
  4 18  1  0  0  0  0
  5  6  1  0  0  0  0
  5 20  1  0  0  0  0
  6  3  2  0  0  0  0
  7 14  1  0  0  0  0
  7 19  1  0  0  0  0
  8 15  1  6  0  0  0
  8 11  1  0  0  0  0
  8 22  1  0  0  0  0
 10  1  1  0  0  0  0
 10 11  1  0  0  0  0
 11 13  1  0  0  0  0
 12 14  2  0  0  0  0
 13 18  1  0  0  0  0
 14 16  1  0  0  0  0
 16 10  2  0  0  0  0
 17 12  1  0  0  0  0
 17  5  2  0  0  0  0
 19  9  1  0  0  0  0
 20 16  1  0  0  0  0
 20 15  2  0  0  0  0
 21 23  1  0  0  0  0
 22 21  1  6  0  0  0
 22 23  1  0  0  0  0
 23 24  1  6  0  0  0
 24 25  1  0  0  0  0
 25 26  1  0  0  0  0
 26 28  1  0  0  0  0
 26 27  1  0  0  0  0
M  END
>  <MODEL>
3

>  <REMARK>
 VINA RESULT:      -8.5      1.652      4.047
  Name = 
  4 active torsions:
  status: ('A' for Active; 'I' for Inactive)
    1  A    between atoms: C_7  and  C_11
    2  A    between atoms: C_8  and  C_14
    3  A    between atoms: C_8  and  C_22
    4  A    between atoms: C_14  and  C_18
                            x       y       z     vdW  Elec       q    Type
                         _______ _______ _______ _____ _____    ______ ____

>  <TORSDO>
F 4

$$$$
=
 OpenBabel11072414133D

 28 33  0  0  1  0  0  0  0  0999 V2000
  161.5810  203.6540  151.6960 C   0  0  2  0  0  3  0  0  0  0  0  0
  160.4550  206.5770  145.5880 N   0  0  0  0  0  1  0  0  0  0  0  0
  160.8800  206.7660  146.9330 C   0  0  0  0  0  0  0  0  0  0  0  0
  161.3180  202.1540  151.6160 C   0  0  0  0  0  2  0  0  0  0  0  0
  161.4600  207.6460  148.7930 C   0  0  0  0  0  0  0  0  0  0  0  0
  161.1050  207.9410  147.4440 N   0  0  0  0  0  0  0  0  0  0  0  0
  162.3960  206.1260  152.6840 C   0  0  0  0  0  2  0  0  0  0  0  0
  161.0220  204.1980  147.8190 C   0  0  1  0  0  3  0  0  0  0  0  0
  160.6040  204.2890  152.6810 C   0  0  0  0  0  2  0  0  0  0  0  0
  161.5070  204.3580  150.3490 C   0  0  0  0  0  0  0  0  0  0  0  0
  161.0900  203.5930  149.1690 N   0  0  0  0  0  0  0  0  0  0  0  0
  162.0850  207.9940  151.0750 C   0  0  0  0  0  3  0  0  0  0  0  0
  160.9420  202.1910  149.2420 N   0  0  0  0  0  2  0  0  0  0  0  0
  162.0330  206.5980  151.3100 C   0  0  0  0  0  0  0  0  0  0  0  0
  161.0710  205.6930  147.9200 C   0  0  0  0  0  0  0  0  0  0  0  0
  161.6800  205.7070  150.2470 C   0  0  0  0  0  0  0  0  0  0  0  0
  161.7900  208.5350  149.8090 C   0  0  0  0  0  3  0  0  0  0  0  0
  160.3280  201.8360  150.5120 C   0  0  0  0  0  2  0  0  0  0  0  0
  161.2050  205.4970  153.4070 C   0  0  0  0  0  2  0  0  0  0  0  0
  161.4220  206.3020  149.0180 C   0  0  0  0  0  0  0  0  0  0  0  0
  162.0980  204.1470  145.5340 C   0  0  0  0  0  2  0  0  0  0  0  0
  162.2040  203.6930  146.9780 C   0  0  2  0  0  3  0  0  0  0  0  0
  161.8290  202.6960  145.8710 C   0  0  1  0  0  3  0  0  0  0  0  0
  160.3350  202.4270  145.7120 C   0  0  0  0  0  2  0  0  0  0  0  0
  160.0780  200.9400  145.5190 C   0  0  0  0  0  2  0  0  0  0  0  0
  161.2560  200.1120  146.0050 C   0  0  0  0  0  3  0  0  0  0  0  0
  161.2030  200.0050  147.3940 O   0  0  0  0  0  1  0  0  0  0  0  0
  161.2060  198.8360  145.4420 O   0  0  0  0  0  1  0  0  0  0  0  0
  1  4  1  6  0  0  0
  1  9  1  0  0  0  0
  2  3  1  0  0  0  0
  3  6  2  0  0  0  0
  3 15  1  0  0  0  0
  5 20  1  0  0  0  0
  5 17  2  0  0  0  0
  6  5  1  0  0  0  0
  7 19  1  0  0  0  0
  8 15  1  1  0  0  0
  8 11  1  0  0  0  0
  9 19  1  0  0  0  0
 10  1  1  0  0  0  0
 11 13  1  0  0  0  0
 11 10  1  0  0  0  0
 12 14  2  0  0  0  0
 13 18  1  0  0  0  0
 14  7  1  0  0  0  0
 15 20  2  0  0  0  0
 16 10  2  0  0  0  0
 16 14  1  0  0  0  0
 17 12  1  0  0  0  0
 18  4  1  0  0  0  0
 20 16  1  0  0  0  0
 21 23  1  0  0  0  0
 22 21  1  6  0  0  0
 22  8  1  0  0  0  0
 23 24  1  1  0  0  0
 23 22  1  0  0  0  0
 25 24  1  0  0  0  0
 25 26  1  0  0  0  0
 26 27  1  0  0  0  0
 28 26  1  0  0  0  0
M  END
>  <MODEL>
4

>  <REMARK>
 VINA RESULT:      -7.8      3.710      7.184
  Name = 
  4 active torsions:
  status: ('A' for Active; 'I' for Inactive)
    1  A    between atoms: C_7  and  C_11
    2  A    between atoms: C_8  and  C_14
    3  A    between atoms: C_8  and  C_22
    4  A    between atoms: C_14  and  C_18
                            x       y       z     vdW  Elec       q    Type
                         _______ _______ _______ _____ _____    ______ ____

>  <TORSDO>
F 4

$$$$
=
 OpenBabel11072414133D

 28 33  0  0  1  0  0  0  0  0999 V2000
  161.3710  210.1870  151.4060 C   0  0  2  0  0  3  0  0  0  0  0  0
  161.9020  203.3950  150.5740 N   0  0  0  0  0  1  0  0  0  0  0  0
  161.5660  204.4590  151.4570 C   0  0  0  0  0  0  0  0  0  0  0  0
  161.7030  210.9030  150.1010 C   0  0  0  0  0  2  0  0  0  0  0  0
  161.0790  205.5970  153.2000 C   0  0  0  0  0  0  0  0  0  0  0  0
  161.3200  204.2750  152.7210 N   0  0  0  0  0  0  0  0  0  0  0  0
  160.5050  209.7600  154.0170 C   0  0  0  0  0  2  0  0  0  0  0  0
  161.6190  206.5940  149.7730 C   0  0  1  0  0  3  0  0  0  0  0  0
  162.3830  210.5860  152.4760 C   0  0  0  0  0  2  0  0  0  0  0  0
  161.3110  208.6720  151.2720 C   0  0  0  0  0  0  0  0  0  0  0  0
  161.6810  208.0580  149.9920 N   0  0  0  0  0  0  0  0  0  0  0  0
  160.6030  207.3790  154.7210 C   0  0  0  0  0  3  0  0  0  0  0  0
  161.9050  208.8580  148.8520 N   0  0  0  0  0  2  0  0  0  0  0  0
  160.7430  208.3210  153.6740 C   0  0  0  0  0  0  0  0  0  0  0  0
  161.5020  205.8800  151.0860 C   0  0  0  0  0  0  0  0  0  0  0  0
  161.0630  207.8780  152.3520 C   0  0  0  0  0  0  0  0  0  0  0  0
  160.7770  206.0000  154.4950 C   0  0  0  0  0  3  0  0  0  0  0  0
  162.6260  210.0610  149.2410 C   0  0  0  0  0  2  0  0  0  0  0  0
  161.7760  210.5990  153.8820 C   0  0  0  0  0  2  0  0  0  0  0  0
  161.2010  206.5050  152.1900 C   0  0  0  0  0  0  0  0  0  0  0  0
  160.4870  204.8550  148.3340 C   0  0  0  0  0  2  0  0  0  0  0  0
  160.4070  206.2640  148.8900 C   0  0  2  0  0  3  0  0  0  0  0  0
  160.7340  206.0270  147.4070 C   0  0  1  0  0  3  0  0  0  0  0  0
  162.2180  206.0630  147.0510 C   0  0  0  0  0  2  0  0  0  0  0  0
  162.4850  205.2560  145.7890 C   0  0  0  0  0  2  0  0  0  0  0  0
  161.2210  205.1060  144.9580 C   0  0  0  0  0  3  0  0  0  0  0  0
  161.4380  205.6350  143.6870 O   0  0  0  0  0  1  0  0  0  0  0  0
  160.8840  203.7560  144.8450 O   0  0  0  0  0  1  0  0  0  0  0  0
  1  4  1  6  0  0  0
  1  9  1  0  0  0  0
  2  3  1  0  0  0  0
  3  6  2  0  0  0  0
  5 17  2  0  0  0  0
  6  5  1  0  0  0  0
  8 11  1  0  0  0  0
  8 15  1  1  0  0  0
  9 19  1  0  0  0  0
 10  1  1  0  0  0  0
 10 16  2  0  0  0  0
 11 10  1  0  0  0  0
 13 18  1  0  0  0  0
 13 11  1  0  0  0  0
 14  7  1  0  0  0  0
 14 12  2  0  0  0  0
 15  3  1  0  0  0  0
 15 20  2  0  0  0  0
 16 14  1  0  0  0  0
 17 12  1  0  0  0  0
 18  4  1  0  0  0  0
 19  7  1  0  0  0  0
 20 16  1  0  0  0  0
 20  5  1  0  0  0  0
 22 21  1  1  0  0  0
 22  8  1  0  0  0  0
 23 24  1  1  0  0  0
 23 21  1  0  0  0  0
 23 22  1  0  0  0  0
 25 24  1  0  0  0  0
 26 25  1  0  0  0  0
 27 26  1  0  0  0  0
 28 26  1  0  0  0  0
M  END
>  <MODEL>
5

>  <REMARK>
 VINA RESULT:      -7.7      3.571      6.824
  Name = 
  4 active torsions:
  status: ('A' for Active; 'I' for Inactive)
    1  A    between atoms: C_7  and  C_11
    2  A    between atoms: C_8  and  C_14
    3  A    between atoms: C_8  and  C_22
    4  A    between atoms: C_14  and  C_18
                            x       y       z     vdW  Elec       q    Type
                         _______ _______ _______ _____ _____    ______ ____

>  <TORSDO>
F 4

$$$$
=
 OpenBabel11072414133D

 28 33  0  0  1  0  0  0  0  0999 V2000
  160.8350  205.0360  152.3580 C   0  0  2  0  0  3  0  0  0  0  0  0
  162.3790  211.2070  149.7800 N   0  0  0  0  0  1  0  0  0  0  0  0
  162.0180  209.8590  149.4980 C   0  0  0  0  0  0  0  0  0  0  0  0
  160.8140  205.0940  153.8820 C   0  0  0  0  0  2  0  0  0  0  0  0
  161.6430  208.0070  148.4990 C   0  0  0  0  0  0  0  0  0  0  0  0
  162.0230  209.3660  148.2940 N   0  0  0  0  0  0  0  0  0  0  0  0
  160.5070  204.0780  149.7650 C   0  0  0  0  0  2  0  0  0  0  0  0
  161.4190  208.9280  151.9820 C   0  0  1  0  0  3  0  0  0  0  0  0
  161.9280  204.0750  151.9010 C   0  0  0  0  0  2  0  0  0  0  0  0
  161.0150  206.3950  151.6990 C   0  0  0  0  0  0  0  0  0  0  0  0
  161.2630  207.5670  152.5450 N   0  0  0  0  0  0  0  0  0  0  0  0
  161.1300  205.7230  148.0100 C   0  0  0  0  0  3  0  0  0  0  0  0
  161.1510  207.4730  153.9480 N   0  0  0  0  0  2  0  0  0  0  0  0
  160.9270  205.4660  149.3870 C   0  0  0  0  0  0  0  0  0  0  0  0
  161.6490  208.8530  150.5030 C   0  0  0  0  0  0  0  0  0  0  0  0
  161.0920  206.5170  150.3430 C   0  0  0  0  0  0  0  0  0  0  0  0
  161.4990  207.0020  147.5500 C   0  0  0  0  0  3  0  0  0  0  0  0
  161.7100  206.2050  154.3930 C   0  0  0  0  0  2  0  0  0  0  0  0
  161.5730  203.3620  150.5930 C   0  0  0  0  0  2  0  0  0  0  0  0
  161.4350  207.7600  149.8240 C   0  0  0  0  0  0  0  0  0  0  0  0
  160.4090  211.2360  152.1700 C   0  0  0  0  0  2  0  0  0  0  0  0
  160.1500  209.7450  152.2710 C   0  0  2  0  0  3  0  0  0  0  0  0
  160.2160  210.6130  153.5370 C   0  0  1  0  0  3  0  0  0  0  0  0
  161.5580  210.6080  154.2640 C   0  0  0  0  0  2  0  0  0  0  0  0
  161.4000  211.1360  155.6820 C   0  0  0  0  0  2  0  0  0  0  0  0
  162.4880  210.5920  156.5940 C   0  0  0  0  0  3  0  0  0  0  0  0
  162.3800  209.2040  156.6640 O   0  0  0  0  0  1  0  0  0  0  0  0
  163.7440  210.9330  156.0910 O   0  0  0  0  0  1  0  0  0  0  0  0
  1  9  1  1  0  0  0
  1  4  1  0  0  0  0
  3  2  1  0  0  0  0
  3 15  1  0  0  0  0
  4 18  1  0  0  0  0
  5 20  1  0  0  0  0
  6  5  1  0  0  0  0
  6  3  2  0  0  0  0
  7 19  1  0  0  0  0
  8 15  1  6  0  0  0
  8 22  1  0  0  0  0
  8 11  1  0  0  0  0
 10  1  1  0  0  0  0
 10 11  1  0  0  0  0
 11 13  1  0  0  0  0
 12 14  2  0  0  0  0
 13 18  1  0  0  0  0
 14  7  1  0  0  0  0
 14 16  1  0  0  0  0
 16 10  2  0  0  0  0
 17 12  1  0  0  0  0
 17  5  2  0  0  0  0
 19  9  1  0  0  0  0
 20 16  1  0  0  0  0
 20 15  2  0  0  0  0
 21 23  1  0  0  0  0
 22 21  1  6  0  0  0
 22 23  1  0  0  0  0
 23 24  1  1  0  0  0
 24 25  1  0  0  0  0
 25 26  1  0  0  0  0
 26 27  1  0  0  0  0
 28 26  1  0  0  0  0
M  END
>  <MODEL>
6

>  <REMARK>
 VINA RESULT:      -7.4      2.744      5.624
  Name = 
  4 active torsions:
  status: ('A' for Active; 'I' for Inactive)
    1  A    between atoms: C_7  and  C_11
    2  A    between atoms: C_8  and  C_14
    3  A    between atoms: C_8  and  C_22
    4  A    between atoms: C_14  and  C_18
                            x       y       z     vdW  Elec       q    Type
                         _______ _______ _______ _____ _____    ______ ____

>  <TORSDO>
F 4

$$$$
=
 OpenBabel11072414133D

 28 33  0  0  1  0  0  0  0  0999 V2000
  161.8380  206.3210  146.8610 C   0  0  2  0  0  3  0  0  0  0  0  0
  160.0340  202.7990  152.4690 N   0  0  0  0  0  1  0  0  0  0  0  0
  160.3880  202.7370  151.0920 C   0  0  0  0  0  0  0  0  0  0  0  0
  161.9720  207.8040  147.1930 C   0  0  0  0  0  2  0  0  0  0  0  0
  160.7090  202.0630  149.0890 C   0  0  0  0  0  0  0  0  0  0  0  0
  160.2980  201.6460  150.3890 N   0  0  0  0  0  0  0  0  0  0  0  0
  161.9810  203.9250  145.4500 C   0  0  0  0  0  2  0  0  0  0  0  0
  161.1820  205.2960  150.6230 C   0  0  1  0  0  3  0  0  0  0  0  0
  160.7240  206.1290  145.8360 C   0  0  0  0  0  2  0  0  0  0  0  0
  161.5930  205.4440  148.0800 C   0  0  0  0  0  0  0  0  0  0  0  0
  161.3950  206.0810  149.3860 N   0  0  0  0  0  0  0  0  0  0  0  0
  161.2090  201.9550  146.7540 C   0  0  0  0  0  3  0  0  0  0  0  0
  161.6140  207.4660  149.5460 N   0  0  0  0  0  2  0  0  0  0  0  0
  161.5180  203.3370  146.7480 C   0  0  0  0  0  0  0  0  0  0  0  0
  160.8430  203.8760  150.2820 C   0  0  0  0  0  0  0  0  0  0  0  0
  161.4130  204.0980  147.9550 C   0  0  0  0  0  0  0  0  0  0  0  0
  160.7920  201.3020  147.9290 C   0  0  0  0  0  3  0  0  0  0  0  0
  161.1040  208.1730  148.3800 C   0  0  0  0  0  2  0  0  0  0  0  0
  160.9880  204.9470  144.8970 C   0  0  0  0  0  2  0  0  0  0  0  0
  161.0170  203.3910  149.0840 C   0  0  0  0  0  0  0  0  0  0  0  0
  162.1920  204.9070  152.9050 C   0  0  0  0  0  2  0  0  0  0  0  0
  162.4600  205.3360  151.4750 C   0  0  2  0  0  3  0  0  0  0  0  0
  162.4450  206.3700  152.6110 C   0  0  1  0  0  3  0  0  0  0  0  0
  161.1350  207.1360  152.7820 C   0  0  0  0  0  2  0  0  0  0  0  0
  160.6660  207.0760  154.2280 C   0  0  0  0  0  2  0  0  0  0  0  0
  160.7210  208.4480  154.8790 C   0  0  0  0  0  3  0  0  0  0  0  0
  161.5950  208.4090  155.9640 O   0  0  0  0  0  1  0  0  0  0  0  0
  161.1710  209.3940  153.9570 O   0  0  0  0  0  1  0  0  0  0  0  0
  1  9  1  6  0  0  0
  1  4  1  0  0  0  0
  1 10  1  0  0  0  0
  3  2  1  0  0  0  0
  4 18  1  0  0  0  0
  5  6  1  0  0  0  0
  6  3  2  0  0  0  0
  7 14  1  0  0  0  0
  8 15  1  6  0  0  0
  8 22  1  0  0  0  0
 10 11  1  0  0  0  0
 11 13  1  0  0  0  0
 11  8  1  0  0  0  0
 12 17  1  0  0  0  0
 14 12  2  0  0  0  0
 14 16  1  0  0  0  0
 15  3  1  0  0  0  0
 16 10  2  0  0  0  0
 16 20  1  0  0  0  0
 17  5  2  0  0  0  0
 18 13  1  0  0  0  0
 19  7  1  0  0  0  0
 19  9  1  0  0  0  0
 20  5  1  0  0  0  0
 20 15  2  0  0  0  0
 22 23  1  0  0  0  0
 22 21  1  1  0  0  0
 23 24  1  6  0  0  0
 23 21  1  0  0  0  0
 24 25  1  0  0  0  0
 25 26  1  0  0  0  0
 26 27  1  0  0  0  0
 28 26  1  0  0  0  0
M  END
>  <MODEL>
7

>  <REMARK>
 VINA RESULT:      -7.3      1.655      2.409
  Name = 
  4 active torsions:
  status: ('A' for Active; 'I' for Inactive)
    1  A    between atoms: C_7  and  C_11
    2  A    between atoms: C_8  and  C_14
    3  A    between atoms: C_8  and  C_22
    4  A    between atoms: C_14  and  C_18
                            x       y       z     vdW  Elec       q    Type
                         _______ _______ _______ _____ _____    ______ ____

>  <TORSDO>
F 4

$$$$
=
 OpenBabel11072414133D

 28 33  0  0  1  0  0  0  0  0999 V2000
  161.6060  205.0070  149.1290 C   0  0  2  0  0  3  0  0  0  0  0  0
  160.2920  210.9920  152.2220 N   0  0  0  0  0  1  0  0  0  0  0  0
  160.5770  209.6080  152.3890 C   0  0  0  0  0  0  0  0  0  0  0  0
  161.6740  205.2010  147.6180 C   0  0  0  0  0  2  0  0  0  0  0  0
  160.8330  207.6560  153.2240 C   0  0  0  0  0  0  0  0  0  0  0  0
  160.5130  209.0090  153.5420 N   0  0  0  0  0  0  0  0  0  0  0  0
  161.8110  203.8040  151.6320 C   0  0  0  0  0  2  0  0  0  0  0  0
  161.2020  208.8750  149.8460 C   0  0  1  0  0  3  0  0  0  0  0  0
  160.4540  204.0670  149.4710 C   0  0  0  0  0  2  0  0  0  0  0  0
  161.4740  206.3090  149.9060 C   0  0  0  0  0  0  0  0  0  0  0  0
  161.3070  207.5640  149.1640 N   0  0  0  0  0  0  0  0  0  0  0  0
  161.2180  205.3150  153.5140 C   0  0  0  0  0  3  0  0  0  0  0  0
  161.4560  207.5910  147.7610 N   0  0  0  0  0  2  0  0  0  0  0  0
  161.4480  205.1720  152.1240 C   0  0  0  0  0  0  0  0  0  0  0  0
  160.9270  208.6780  151.3060 C   0  0  0  0  0  0  0  0  0  0  0  0
  161.3630  206.3130  151.2650 C   0  0  0  0  0  0  0  0  0  0  0  0
  160.9000  206.5640  154.0800 C   0  0  0  0  0  3  0  0  0  0  0  0
  160.8490  206.3990  147.1890 C   0  0  0  0  0  2  0  0  0  0  0  0
  160.7360  203.2210  150.7160 C   0  0  0  0  0  2  0  0  0  0  0  0
  161.0660  207.5190  151.8870 C   0  0  0  0  0  0  0  0  0  0  0  0
  162.3870  211.0890  150.1180 C   0  0  0  0  0  2  0  0  0  0  0  0
  162.5170  209.6480  149.6630 C   0  0  2  0  0  3  0  0  0  0  0  0
  162.4580  210.7880  148.6360 C   0  0  1  0  0  3  0  0  0  0  0  0
  161.0850  211.0430  148.0190 C   0  0  0  0  0  2  0  0  0  0  0  0
  161.0100  212.4500  147.4450 C   0  0  0  0  0  2  0  0  0  0  0  0
  162.3890  212.9570  147.0550 C   0  0  0  0  0  3  0  0  0  0  0  0
  162.3810  213.3290  145.7120 O   0  0  0  0  0  1  0  0  0  0  0  0
  162.7280  214.0610  147.8390 O   0  0  0  0  0  1  0  0  0  0  0  0
  1  4  1  6  0  0  0
  1  9  1  0  0  0  0
  1 10  1  0  0  0  0
  2  3  1  0  0  0  0
  3  6  2  0  0  0  0
  5  6  1  0  0  0  0
  5 17  2  0  0  0  0
  7 14  1  0  0  0  0
  8 15  1  1  0  0  0
  9 19  1  0  0  0  0
 10 16  2  0  0  0  0
 11  8  1  0  0  0  0
 11 10  1  0  0  0  0
 12 17  1  0  0  0  0
 13 11  1  0  0  0  0
 14 12  2  0  0  0  0
 15 20  2  0  0  0  0
 15  3  1  0  0  0  0
 16 20  1  0  0  0  0
 16 14  1  0  0  0  0
 18  4  1  0  0  0  0
 18 13  1  0  0  0  0
 19  7  1  0  0  0  0
 20  5  1  0  0  0  0
 22  8  1  0  0  0  0
 22 21  1  1  0  0  0
 23 24  1  6  0  0  0
 23 22  1  0  0  0  0
 23 21  1  0  0  0  0
 25 24  1  0  0  0  0
 26 25  1  0  0  0  0
 26 28  1  0  0  0  0
 27 26  1  0  0  0  0
M  END
>  <MODEL>
8

>  <REMARK>
 VINA RESULT:      -7.3      3.215      4.926
  Name = 
  4 active torsions:
  status: ('A' for Active; 'I' for Inactive)
    1  A    between atoms: C_7  and  C_11
    2  A    between atoms: C_8  and  C_14
    3  A    between atoms: C_8  and  C_22
    4  A    between atoms: C_14  and  C_18
                            x       y       z     vdW  Elec       q    Type
                         _______ _______ _______ _____ _____    ______ ____

>  <TORSDO>
F 4

$$$$
=
 OpenBabel11072414133D

 28 33  0  0  1  0  0  0  0  0999 V2000
  161.5520  206.7750  147.5070 C   0  0  2  0  0  3  0  0  0  0  0  0
  161.4890  201.5960  152.0100 N   0  0  0  0  0  1  0  0  0  0  0  0
  161.3560  202.9990  151.8140 C   0  0  0  0  0  0  0  0  0  0  0  0
  161.7440  206.2390  146.0920 C   0  0  0  0  0  2  0  0  0  0  0  0
  161.2010  205.1070  152.1400 C   0  0  0  0  0  0  0  0  0  0  0  0
  161.2800  203.8450  152.8000 N   0  0  0  0  0  0  0  0  0  0  0  0
  161.0390  208.5450  149.5940 C   0  0  0  0  0  2  0  0  0  0  0  0
  161.3170  203.1640  149.1000 C   0  0  1  0  0  3  0  0  0  0  0  0
  162.7310  207.6720  147.8750 C   0  0  0  0  0  2  0  0  0  0  0  0
  161.3690  205.6850  148.5530 C   0  0  0  0  0  0  0  0  0  0  0  0
  161.5090  204.2820  148.1480 N   0  0  0  0  0  0  0  0  0  0  0  0
  161.0710  207.4740  151.8370 C   0  0  0  0  0  3  0  0  0  0  0  0
  161.6240  203.9390  146.7840 N   0  0  0  0  0  2  0  0  0  0  0  0
  161.1250  207.3060  150.4320 C   0  0  0  0  0  0  0  0  0  0  0  0
  161.3380  203.6750  150.5090 C   0  0  0  0  0  0  0  0  0  0  0  0
  161.2230  205.9920  149.8730 C   0  0  0  0  0  0  0  0  0  0  0  0
  161.1160  206.3710  152.7100 C   0  0  0  0  0  3  0  0  0  0  0  0
  162.4740  204.9100  146.1130 C   0  0  0  0  0  2  0  0  0  0  0  0
  162.3320  208.8060  148.8230 C   0  0  0  0  0  2  0  0  0  0  0  0
  161.2410  204.9450  150.7870 C   0  0  0  0  0  0  0  0  0  0  0  0
  159.7150  201.3280  149.7650 C   0  0  0  0  0  2  0  0  0  0  0  0
  159.9710  202.4810  148.8130 C   0  0  2  0  0  3  0  0  0  0  0  0
  160.0760  201.0270  148.3260 C   0  0  1  0  0  3  0  0  0  0  0  0
  161.4890  200.4510  148.2870 C   0  0  0  0  0  2  0  0  0  0  0  0
  161.9360  200.2280  146.8500 C   0  0  0  0  0  2  0  0  0  0  0  0
  160.8080  199.6560  146.0080 C   0  0  0  0  0  3  0  0  0  0  0  0
  160.4560  200.5770  145.0220 O   0  0  0  0  0  1  0  0  0  0  0  0
  161.2190  198.4680  145.4050 O   0  0  0  0  0  1  0  0  0  0  0  0
  1  4  1  6  0  0  0
  1  9  1  0  0  0  0
  1 10  1  0  0  0  0
  3  2  1  0  0  0  0
  3  6  2  0  0  0  0
  4 18  1  0  0  0  0
  5 17  2  0  0  0  0
  5  6  1  0  0  0  0
  7 14  1  0  0  0  0
  8 15  1  1  0  0  0
  9 19  1  0  0  0  0
 10 16  2  0  0  0  0
 11 10  1  0  0  0  0
 11  8  1  0  0  0  0
 12 17  1  0  0  0  0
 13 11  1  0  0  0  0
 14 12  2  0  0  0  0
 15 20  2  0  0  0  0
 15  3  1  0  0  0  0
 16 14  1  0  0  0  0
 16 20  1  0  0  0  0
 18 13  1  0  0  0  0
 19  7  1  0  0  0  0
 20  5  1  0  0  0  0
 22  8  1  0  0  0  0
 22 21  1  1  0  0  0
 23 24  1  1  0  0  0
 23 22  1  0  0  0  0
 23 21  1  0  0  0  0
 25 24  1  0  0  0  0
 26 25  1  0  0  0  0
 27 26  1  0  0  0  0
 28 26  1  0  0  0  0
M  END
>  <MODEL>
9

>  <REMARK>
 VINA RESULT:      -6.6      3.859      6.479
  Name = 
  4 active torsions:
  status: ('A' for Active; 'I' for Inactive)
    1  A    between atoms: C_7  and  C_11
    2  A    between atoms: C_8  and  C_14
    3  A    between atoms: C_8  and  C_22
    4  A    between atoms: C_14  and  C_18
                            x       y       z     vdW  Elec       q    Type
                         _______ _______ _______ _____ _____    ______ ____

>  <TORSDO>
F 4

$$$$
