=
 OpenBabel11072414383D

 26 28  0  0  1  0  0  0  0  0999 V2000
  161.5490  206.7780  152.9510 C   0  0  0  0  0  0  0  0  0  0  0  0
  161.5790  206.5600  149.2280 C   0  0  0  0  0  0  0  0  0  0  0  0
  161.1870  206.0530  150.5690 C   0  0  0  0  0  0  0  0  0  0  0  0
  161.5810  207.8210  153.9250 N   0  0  0  0  0  1  0  0  0  0  0  0
  159.8590  202.7630  149.5050 C   0  0  0  0  0  2  0  0  0  0  0  0
  161.0810  207.0260  151.7110 C   0  0  0  0  0  0  0  0  0  0  0  0
  161.2660  204.3440  148.1480 C   0  0  1  0  0  3  0  0  0  0  0  0
  162.0910  203.2230  147.5140 C   0  0  0  0  0  2  0  0  0  0  0  0
  160.6750  204.0180  151.9450 C   0  0  0  0  0  3  0  0  0  0  0  0
  160.8890  204.7300  150.6650 C   0  0  0  0  0  0  0  0  0  0  0  0
  160.9420  201.0150  148.0140 C   0  0  0  0  0  2  0  0  0  0  0  0
  161.5330  207.7880  148.9520 O   0  0  0  0  0  0  0  0  0  0  0  0
  161.9730  205.4840  153.3650 N   0  0  0  0  0  2  0  0  0  0  0  0
  160.7360  203.9350  149.4610 N   0  0  0  0  0  0  0  0  0  0  0  0
  160.6920  201.4930  149.4480 C   0  0  0  0  0  2  0  0  0  0  0  0
  161.1930  204.3200  153.1270 C   0  0  0  0  0  3  0  0  0  0  0  0
  162.1350  205.5920  148.2300 C   0  0  1  0  0  3  0  0  0  0  0  0
  161.1760  202.1280  146.9880 C   0  0  0  0  0  2  0  0  0  0  0  0
  162.3140  206.3310  146.5650 S   0  0  0  0  0  0  0  0  0  0  0  0
  160.6560  205.7950  146.0410 C   0  0  0  0  0  2  0  0  0  0  0  0
  160.7200  205.1880  144.6830 C   0  0  0  0  0  0  0  0  0  0  0  0
  160.1690  204.0780  144.4630 O   0  0  0  0  0  1  0  0  0  0  0  0
  161.4170  205.8280  143.6680 O   0  0  0  0  0  0  0  0  0  0  0  0
  160.4630  208.3740  151.4390 C   0  0  0  0  0  2  0  0  0  0  0  0
  161.4860  209.4920  151.5730 C   0  0  0  0  0  2  0  0  0  0  0  0
  160.8090  210.7300  152.1210 C   0  0  0  0  0  1  0  0  0  0  0  0
  1 13  1  0  0  0  0
  1  4  1  0  0  0  0
  2  3  1  0  0  0  0
  3 10  2  0  0  0  0
  3  6  1  0  0  0  0
  6  1  2  0  0  0  0
  7  8  1  1  0  0  0
  7 17  1  0  0  0  0
  7 14  1  0  0  0  0
  9 16  2  0  0  0  0
 10  9  1  0  0  0  0
 11 15  1  0  0  0  0
 12  2  2  0  0  0  0
 14  5  1  0  0  0  0
 14 10  1  0  0  0  0
 15  5  1  0  0  0  0
 16 13  1  0  0  0  0
 17 19  1  6  0  0  0
 17  2  1  0  0  0  0
 18  8  1  0  0  0  0
 18 11  1  0  0  0  0
 20 19  1  0  0  0  0
 21 20  1  0  0  0  0
 22 21  1  0  0  0  0
 23 21  2  0  0  0  0
 24 25  1  0  0  0  0
 24  6  1  0  0  0  0
 25 26  1  0  0  0  0
M  END
>  <MODEL>
1

>  <REMARK>
 VINA RESULT:      -5.9      0.000      0.000
  Name = 
  5 active torsions:
  status: ('A' for Active; 'I' for Inactive)
    1  A    between atoms: C_3  and  C_11
    2  A    between atoms: C_5  and  C_22
    3  A    between atoms: C_8  and  C_22
    4  A    between atoms: C_11  and  S_14
    5  A    between atoms: S_14  and  C_24
                            x       y       z     vdW  Elec       q    Type
                         _______ _______ _______ _____ _____    ______ ____

>  <TORSDO>
F 5

$$$$
=
 OpenBabel11072414383D

 26 28  0  0  1  0  0  0  0  0999 V2000
  161.5120  209.9320  154.7060 C   0  0  0  0  0  0  0  0  0  0  0  0
  161.7180  208.8250  151.1510 C   0  0  0  0  0  0  0  0  0  0  0  0
  161.2640  208.6500  152.5550 C   0  0  0  0  0  0  0  0  0  0  0  0
  161.4970  211.1790  155.4010 N   0  0  0  0  0  1  0  0  0  0  0  0
  159.9930  205.1840  152.2560 C   0  0  0  0  0  2  0  0  0  0  0  0
  161.1030  209.8680  153.4220 C   0  0  0  0  0  0  0  0  0  0  0  0
  161.4600  206.4100  150.6230 C   0  0  1  0  0  3  0  0  0  0  0  0
  162.3160  205.1800  150.3160 C   0  0  0  0  0  2  0  0  0  0  0  0
  160.6910  206.9990  154.3560 C   0  0  0  0  0  3  0  0  0  0  0  0
  160.9640  207.3860  152.9530 C   0  0  0  0  0  0  0  0  0  0  0  0
  161.1490  203.1420  151.2820 C   0  0  0  0  0  2  0  0  0  0  0  0
  161.6830  209.9490  150.5840 O   0  0  0  0  0  0  0  0  0  0  0  0
  161.9180  208.7820  155.4390 N   0  0  0  0  0  2  0  0  0  0  0  0
  160.8700  206.3220  151.9710 N   0  0  0  0  0  0  0  0  0  0  0  0
  160.8310  203.9480  152.5450 C   0  0  0  0  0  2  0  0  0  0  0  0
  161.1530  207.5840  155.4530 C   0  0  0  0  0  3  0  0  0  0  0  0
  162.3220  207.6520  150.4410 C   0  0  1  0  0  3  0  0  0  0  0  0
  161.4290  203.9790  150.0290 C   0  0  0  0  0  2  0  0  0  0  0  0
  162.5780  207.9710  148.6570 S   0  0  0  0  0  0  0  0  0  0  0  0
  161.0350  207.1310  148.1850 C   0  0  0  0  0  2  0  0  0  0  0  0
  161.2420  206.3400  146.9410 C   0  0  0  0  0  0  0  0  0  0  0  0
  162.3210  205.7170  146.7630 O   0  0  0  0  0  1  0  0  0  0  0  0
  160.2610  206.3190  145.9600 O   0  0  0  0  0  0  0  0  0  0  0  0
  160.4950  211.1020  152.8060 C   0  0  0  0  0  2  0  0  0  0  0  0
  158.9770  211.0150  152.7660 C   0  0  0  0  0  2  0  0  0  0  0  0
  158.3910  211.9690  153.7850 C   0  0  0  0  0  1  0  0  0  0  0  0
  1  4  1  0  0  0  0
  1 13  1  0  0  0  0
  2  3  1  0  0  0  0
  3 10  2  0  0  0  0
  3  6  1  0  0  0  0
  5 15  1  0  0  0  0
  6  1  2  0  0  0  0
  7  8  1  1  0  0  0
  7 14  1  0  0  0  0
  9 16  2  0  0  0  0
 10  9  1  0  0  0  0
 11 15  1  0  0  0  0
 12  2  2  0  0  0  0
 13 16  1  0  0  0  0
 14  5  1  0  0  0  0
 14 10  1  0  0  0  0
 17 19  1  6  0  0  0
 17  7  1  0  0  0  0
 17  2  1  0  0  0  0
 18  8  1  0  0  0  0
 18 11  1  0  0  0  0
 20 19  1  0  0  0  0
 21 20  1  0  0  0  0
 22 21  1  0  0  0  0
 23 21  2  0  0  0  0
 24  6  1  0  0  0  0
 25 24  1  0  0  0  0
 25 26  1  0  0  0  0
M  END
>  <MODEL>
2

>  <REMARK>
 VINA RESULT:      -5.9      2.114      3.353
  Name = 
  5 active torsions:
  status: ('A' for Active; 'I' for Inactive)
    1  A    between atoms: C_3  and  C_11
    2  A    between atoms: C_5  and  C_22
    3  A    between atoms: C_8  and  C_22
    4  A    between atoms: C_11  and  S_14
    5  A    between atoms: S_14  and  C_24
                            x       y       z     vdW  Elec       q    Type
                         _______ _______ _______ _____ _____    ______ ____

>  <TORSDO>
F 5

$$$$
=
 OpenBabel11072414383D

 26 28  0  0  1  0  0  0  0  0999 V2000
  158.7330  210.8950  154.9230 C   0  0  0  0  0  0  0  0  0  0  0  0
  160.8960  208.0350  153.8980 C   0  0  0  0  0  0  0  0  0  0  0  0
  160.4400  209.4440  153.7770 C   0  0  0  0  0  0  0  0  0  0  0  0
  158.1120  211.3400  156.1290 N   0  0  0  0  0  1  0  0  0  0  0  0
  162.2160  210.2890  150.6390 C   0  0  0  0  0  2  0  0  0  0  0  0
  159.8340  210.1170  154.9770 C   0  0  2  0  0  3  0  0  0  0  0  0
  161.8350  207.9960  151.5980 C   0  0  1  0  0  3  0  0  0  0  0  0
  161.5640  207.3620  150.2330 C   0  0  0  0  0  2  0  0  0  0  0  0
  160.0960  211.3820  152.2210 C   0  0  0  0  0  3  0  0  0  0  0  0
  160.6560  210.0610  152.5860 C   0  0  0  0  0  0  0  0  0  0  0  0
  162.2530  209.0210  148.4380 C   0  0  0  0  0  2  0  0  0  0  0  0
  161.0670  207.4940  155.0230 O   0  0  0  0  0  0  0  0  0  0  0  0
  158.1780  211.3510  153.6950 N   0  0  0  0  0  0  0  0  0  0  0  0
  161.5040  209.4330  151.5890 N   0  0  0  0  0  0  0  0  0  0  0  0
  161.6050  210.1430  149.2540 C   0  0  0  0  0  2  0  0  0  0  0  0
  158.9770  211.9310  152.6720 C   0  0  0  0  0  3  0  0  0  0  0  0
  161.0540  207.2220  152.6500 C   0  0  1  0  0  3  0  0  0  0  0  0
  162.6390  207.7730  149.2390 C   0  0  0  0  0  2  0  0  0  0  0  0
  161.8670  205.6120  152.9640 S   0  0  0  0  0  0  0  0  0  0  0  0
  160.4040  204.6620  152.4480 C   0  0  0  0  0  2  0  0  0  0  0  0
  160.7360  203.8050  151.2770 C   0  0  0  0  0  0  0  0  0  0  0  0
  160.9770  202.5810  151.4390 O   0  0  0  0  0  1  0  0  0  0  0  0
  160.8150  204.3640  150.0090 O   0  0  0  0  0  0  0  0  0  0  0  0
  160.4620  209.8640  156.3240 C   0  0  0  0  0  2  0  0  0  0  0  0
  161.7170  210.7020  156.5180 C   0  0  0  0  0  2  0  0  0  0  0  0
  162.8640  209.8040  156.9290 C   0  0  0  0  0  1  0  0  0  0  0  0
  1  6  1  0  0  0  0
  1  4  1  0  0  0  0
  2 12  2  0  0  0  0
  3  2  1  0  0  0  0
  3  6  1  0  0  0  0
  5 14  1  0  0  0  0
  6 24  1  1  0  0  0
  7  8  1  6  0  0  0
  7 17  1  0  0  0  0
  9 10  1  0  0  0  0
  9 16  2  0  0  0  0
 10  3  2  0  0  0  0
 11 18  1  0  0  0  0
 11 15  1  0  0  0  0
 13  1  2  0  0  0  0
 14  7  1  0  0  0  0
 14 10  1  0  0  0  0
 15  5  1  0  0  0  0
 16 13  1  0  0  0  0
 17 19  1  1  0  0  0
 17  2  1  0  0  0  0
 18  8  1  0  0  0  0
 20 19  1  0  0  0  0
 21 22  1  0  0  0  0
 21 20  1  0  0  0  0
 23 21  2  0  0  0  0
 24 25  1  0  0  0  0
 25 26  1  0  0  0  0
M  END
>  <MODEL>
3

>  <REMARK>
 VINA RESULT:      -5.5      3.614      6.263
  Name = 
  5 active torsions:
  status: ('A' for Active; 'I' for Inactive)
    1  A    between atoms: C_3  and  C_11
    2  A    between atoms: C_5  and  C_22
    3  A    between atoms: C_8  and  C_22
    4  A    between atoms: C_11  and  S_14
    5  A    between atoms: S_14  and  C_24
                            x       y       z     vdW  Elec       q    Type
                         _______ _______ _______ _____ _____    ______ ____

>  <TORSDO>
F 5

$$$$
=
 OpenBabel11072414383D

 26 28  0  0  1  0  0  0  0  0999 V2000
  160.5550  202.2140  147.3630 C   0  0  0  0  0  0  0  0  0  0  0  0
  161.3840  205.7620  148.1610 C   0  0  0  0  0  0  0  0  0  0  0  0
  161.3190  204.3190  148.5120 C   0  0  0  0  0  0  0  0  0  0  0  0
  160.5150  201.4010  146.1910 N   0  0  0  0  0  1  0  0  0  0  0  0
  162.1160  204.6310  152.1150 C   0  0  0  0  0  2  0  0  0  0  0  0
  161.3530  203.3010  147.4060 C   0  0  0  0  0  0  0  0  0  0  0  0
  161.4600  206.4770  150.5400 C   0  0  1  0  0  3  0  0  0  0  0  0
  160.5900  207.1890  151.5770 C   0  0  0  0  0  2  0  0  0  0  0  0
  161.0250  202.6500  150.3620 C   0  0  0  0  0  3  0  0  0  0  0  0
  161.2890  204.0070  149.8340 C   0  0  0  0  0  0  0  0  0  0  0  0
  161.0730  206.1660  153.8500 C   0  0  0  0  0  2  0  0  0  0  0  0
  161.7620  206.1440  147.0220 O   0  0  0  0  0  0  0  0  0  0  0  0
  159.7730  201.7960  148.4760 N   0  0  0  0  0  2  0  0  0  0  0  0
  161.5530  205.0340  150.8250 N   0  0  0  0  0  0  0  0  0  0  0  0
  161.0650  204.7770  153.2050 C   0  0  0  0  0  2  0  0  0  0  0  0
  160.3140  201.6900  149.7860 C   0  0  0  0  0  3  0  0  0  0  0  0
  160.8910  206.7650  149.1570 C   0  0  1  0  0  3  0  0  0  0  0  0
  161.3440  207.3280  152.8900 C   0  0  0  0  0  2  0  0  0  0  0  0
  161.2870  208.4850  148.6710 S   0  0  0  0  0  0  0  0  0  0  0  0
  162.4630  208.7050  150.0410 C   0  0  0  0  0  2  0  0  0  0  0  0
  162.3560  210.0850  150.5920 C   0  0  0  0  0  0  0  0  0  0  0  0
  162.5300  210.2880  151.8210 O   0  0  0  0  0  1  0  0  0  0  0  0
  162.0270  211.1420  149.7550 O   0  0  0  0  0  0  0  0  0  0  0  0
  162.2970  203.5360  146.2540 C   0  0  0  0  0  2  0  0  0  0  0  0
  161.5450  203.6930  144.9410 C   0  0  0  0  0  2  0  0  0  0  0  0
  161.7310  205.1010  144.4190 C   0  0  0  0  0  1  0  0  0  0  0  0
  1  6  2  0  0  0  0
  1 13  1  0  0  0  0
  2  3  1  0  0  0  0
  2 17  1  0  0  0  0
  3 10  2  0  0  0  0
  4  1  1  0  0  0  0
  5 15  1  0  0  0  0
  6  3  1  0  0  0  0
  7 14  1  0  0  0  0
  7  8  1  1  0  0  0
  8 18  1  0  0  0  0
 10  9  1  0  0  0  0
 10 14  1  0  0  0  0
 12  2  2  0  0  0  0
 13 16  1  0  0  0  0
 14  5  1  0  0  0  0
 15 11  1  0  0  0  0
 16  9  2  0  0  0  0
 17 19  1  6  0  0  0
 17  7  1  0  0  0  0
 18 11  1  0  0  0  0
 19 20  1  0  0  0  0
 20 21  1  0  0  0  0
 21 22  1  0  0  0  0
 23 21  2  0  0  0  0
 24  6  1  0  0  0  0
 25 24  1  0  0  0  0
 26 25  1  0  0  0  0
M  END
>  <MODEL>
4

>  <REMARK>
 VINA RESULT:      -5.3      1.904      6.115
  Name = 
  5 active torsions:
  status: ('A' for Active; 'I' for Inactive)
    1  A    between atoms: C_3  and  C_11
    2  A    between atoms: C_5  and  C_22
    3  A    between atoms: C_8  and  C_22
    4  A    between atoms: C_11  and  S_14
    5  A    between atoms: S_14  and  C_24
                            x       y       z     vdW  Elec       q    Type
                         _______ _______ _______ _____ _____    ______ ____

>  <TORSDO>
F 5

$$$$
=
 OpenBabel11072414383D

 26 28  0  0  1  0  0  0  0  0999 V2000
  159.9890  209.9500  154.8230 C   0  0  0  0  0  0  0  0  0  0  0  0
  161.1470  206.7440  153.3110 C   0  0  0  0  0  0  0  0  0  0  0  0
  161.0640  208.2280  153.3370 C   0  0  0  0  0  0  0  0  0  0  0  0
  159.6930  210.4260  156.1360 N   0  0  0  0  0  1  0  0  0  0  0  0
  162.5110  208.8820  149.9910 C   0  0  0  0  0  2  0  0  0  0  0  0
  160.8420  208.9190  154.6540 C   0  0  2  0  0  3  0  0  0  0  0  0
  161.6890  206.6810  150.8860 C   0  0  1  0  0  3  0  0  0  0  0  0
  161.0610  206.2610  149.5560 C   0  0  0  0  0  2  0  0  0  0  0  0
  161.0130  210.3230  151.9580 C   0  0  0  0  0  3  0  0  0  0  0  0
  161.2550  208.8770  152.1580 C   0  0  0  0  0  0  0  0  0  0  0  0
  161.8860  207.8500  147.7560 C   0  0  0  0  0  2  0  0  0  0  0  0
  161.3360  206.0790  154.3630 O   0  0  0  0  0  0  0  0  0  0  0  0
  159.3960  210.6410  153.7290 N   0  0  0  0  0  0  0  0  0  0  0  0
  161.7500  208.1490  151.0040 N   0  0  0  0  0  0  0  0  0  0  0  0
  161.6830  209.0200  148.7230 C   0  0  0  0  0  2  0  0  0  0  0  0
  160.1570  211.0920  152.6160 C   0  0  0  0  0  3  0  0  0  0  0  0
  160.8980  206.0350  152.0150 C   0  0  1  0  0  3  0  0  0  0  0  0
  162.0450  206.4780  148.4180 C   0  0  0  0  0  2  0  0  0  0  0  0
  161.2980  204.2510  152.1090 S   0  0  0  0  0  0  0  0  0  0  0  0
  160.1880  203.8300  150.7300 C   0  0  0  0  0  2  0  0  0  0  0  0
  160.7410  202.6830  149.9580 C   0  0  0  0  0  0  0  0  0  0  0  0
  160.9340  201.5770  150.5250 O   0  0  0  0  0  1  0  0  0  0  0  0
  161.0800  202.8450  148.6220 O   0  0  0  0  0  0  0  0  0  0  0  0
  161.5760  208.3960  155.8620 C   0  0  0  0  0  2  0  0  0  0  0  0
  160.6590  208.3040  157.0730 C   0  0  0  0  0  2  0  0  0  0  0  0
  160.1510  206.8850  157.2130 C   0  0  0  0  0  1  0  0  0  0  0  0
  1  4  1  0  0  0  0
  2  3  1  0  0  0  0
  2 12  2  0  0  0  0
  3  6  1  0  0  0  0
  5 14  1  0  0  0  0
  6  1  1  0  0  0  0
  6 24  1  1  0  0  0
  7  8  1  6  0  0  0
  7 14  1  0  0  0  0
  7 17  1  0  0  0  0
  9 10  1  0  0  0  0
  9 16  2  0  0  0  0
 10  3  2  0  0  0  0
 11 18  1  0  0  0  0
 11 15  1  0  0  0  0
 13  1  2  0  0  0  0
 14 10  1  0  0  0  0
 15  5  1  0  0  0  0
 16 13  1  0  0  0  0
 17 19  1  1  0  0  0
 17  2  1  0  0  0  0
 18  8  1  0  0  0  0
 20 19  1  0  0  0  0
 21 22  1  0  0  0  0
 21 20  1  0  0  0  0
 23 21  2  0  0  0  0
 24 25  1  0  0  0  0
 25 26  1  0  0  0  0
M  END
>  <MODEL>
5

>  <REMARK>
 VINA RESULT:      -5.2      3.151      5.370
  Name = 
  5 active torsions:
  status: ('A' for Active; 'I' for Inactive)
    1  A    between atoms: C_3  and  C_11
    2  A    between atoms: C_5  and  C_22
    3  A    between atoms: C_8  and  C_22
    4  A    between atoms: C_11  and  S_14
    5  A    between atoms: S_14  and  C_24
                            x       y       z     vdW  Elec       q    Type
                         _______ _______ _______ _____ _____    ______ ____

>  <TORSDO>
F 5

$$$$
=
 OpenBabel11072414383D

 26 28  0  0  1  0  0  0  0  0999 V2000
  161.0420  205.3400  150.4090 C   0  0  0  0  0  0  0  0  0  0  0  0
  161.1150  208.8690  151.6130 C   0  0  0  0  0  0  0  0  0  0  0  0
  161.3020  207.4090  151.8180 C   0  0  0  0  0  0  0  0  0  0  0  0
  161.2450  204.6680  149.1660 N   0  0  0  0  0  1  0  0  0  0  0  0
  161.7570  207.4600  155.4930 C   0  0  0  0  0  2  0  0  0  0  0  0
  161.6120  206.5430  150.6280 C   0  0  0  0  0  0  0  0  0  0  0  0
  160.8770  209.3190  154.0450 C   0  0  1  0  0  3  0  0  0  0  0  0
  159.8130  209.7400  155.0600 C   0  0  0  0  0  2  0  0  0  0  0  0
  161.1980  205.5200  153.4650 C   0  0  0  0  0  3  0  0  0  0  0  0
  161.2350  206.9530  153.0960 C   0  0  0  0  0  0  0  0  0  0  0  0
  160.3140  208.5770  157.2610 C   0  0  0  0  0  2  0  0  0  0  0  0
  161.4960  209.4380  150.5550 O   0  0  0  0  0  0  0  0  0  0  0  0
  160.2750  204.6650  151.3980 N   0  0  0  0  0  2  0  0  0  0  0  0
  161.2230  207.8940  154.2000 N   0  0  0  0  0  0  0  0  0  0  0  0
  160.6200  207.2900  156.4890 C   0  0  0  0  0  2  0  0  0  0  0  0
  160.7280  204.5160  152.7370 C   0  0  0  0  0  3  0  0  0  0  0  0
  160.3670  209.6490  152.6490 C   0  0  1  0  0  3  0  0  0  0  0  0
  160.4280  209.8690  156.4450 C   0  0  0  0  0  2  0  0  0  0  0  0
  160.4610  211.4550  152.3670 S   0  0  0  0  0  0  0  0  0  0  0  0
  158.6550  211.6590  152.4340 C   0  0  0  0  0  2  0  0  0  0  0  0
  158.3060  212.9080  153.1660 C   0  0  0  0  0  0  0  0  0  0  0  0
  158.0360  213.9580  152.5270 O   0  0  0  0  0  0  0  0  0  0  0  0
  158.3150  212.9250  154.5540 O   0  0  0  0  0  1  0  0  0  0  0  0
  162.5760  207.0730  149.5970 C   0  0  0  0  0  2  0  0  0  0  0  0
  161.8530  207.5040  148.3300 C   0  0  0  0  0  2  0  0  0  0  0  0
  162.3080  206.6410  147.1730 C   0  0  0  0  0  1  0  0  0  0  0  0
  1  6  2  0  0  0  0
  1 13  1  0  0  0  0
  2  3  1  0  0  0  0
  2 17  1  0  0  0  0
  3 10  2  0  0  0  0
  4  1  1  0  0  0  0
  5 15  1  0  0  0  0
  6  3  1  0  0  0  0
  7 14  1  0  0  0  0
  7  8  1  1  0  0  0
  8 18  1  0  0  0  0
 10  9  1  0  0  0  0
 10 14  1  0  0  0  0
 12  2  2  0  0  0  0
 13 16  1  0  0  0  0
 14  5  1  0  0  0  0
 15 11  1  0  0  0  0
 16  9  2  0  0  0  0
 17 19  1  6  0  0  0
 17  7  1  0  0  0  0
 18 11  1  0  0  0  0
 19 20  1  0  0  0  0
 20 21  1  0  0  0  0
 21 23  1  0  0  0  0
 22 21  2  0  0  0  0
 24  6  1  0  0  0  0
 25 24  1  0  0  0  0
 26 25  1  0  0  0  0
M  END
>  <MODEL>
6

>  <REMARK>
 VINA RESULT:      -5.0      3.499      7.492
  Name = 
  5 active torsions:
  status: ('A' for Active; 'I' for Inactive)
    1  A    between atoms: C_3  and  C_11
    2  A    between atoms: C_5  and  C_22
    3  A    between atoms: C_8  and  C_22
    4  A    between atoms: C_11  and  S_14
    5  A    between atoms: S_14  and  C_24
                            x       y       z     vdW  Elec       q    Type
                         _______ _______ _______ _____ _____    ______ ____

>  <TORSDO>
F 5

$$$$
=
 OpenBabel11072414383D

 26 28  0  0  1  0  0  0  0  0999 V2000
  161.3310  210.9700  155.6810 C   0  0  0  0  0  0  0  0  0  0  0  0
  161.0680  210.1410  152.0540 C   0  0  0  0  0  0  0  0  0  0  0  0
  160.9520  209.7860  153.4930 C   0  0  0  0  0  0  0  0  0  0  0  0
  161.1770  212.1370  156.4880 N   0  0  0  0  0  1  0  0  0  0  0  0
  160.4520  206.1390  153.0830 C   0  0  0  0  0  2  0  0  0  0  0  0
  160.7000  210.8810  154.4920 C   0  0  0  0  0  0  0  0  0  0  0  0
  161.2550  207.7670  151.3430 C   0  0  1  0  0  3  0  0  0  0  0  0
  162.2850  206.7950  150.7650 C   0  0  0  0  0  2  0  0  0  0  0  0
  161.1310  207.9500  155.1930 C   0  0  0  0  0  3  0  0  0  0  0  0
  161.0270  208.4670  153.8100 C   0  0  0  0  0  0  0  0  0  0  0  0
  161.8160  204.4880  151.7170 C   0  0  0  0  0  2  0  0  0  0  0  0
  160.6720  211.2550  151.6190 O   0  0  0  0  0  0  0  0  0  0  0  0
  162.1200  209.9100  156.2100 N   0  0  0  0  0  2  0  0  0  0  0  0
  160.9780  207.4670  152.7590 N   0  0  0  0  0  0  0  0  0  0  0  0
  161.5840  205.1240  153.0910 C   0  0  0  0  0  2  0  0  0  0  0  0
  161.6590  208.5660  156.2420 C   0  0  0  0  0  3  0  0  0  0  0  0
  161.7650  209.1870  151.1340 C   0  0  1  0  0  3  0  0  0  0  0  0
  161.6480  205.4350  150.5240 C   0  0  0  0  0  2  0  0  0  0  0  0
  161.5840  209.6560  149.3740 S   0  0  0  0  0  0  0  0  0  0  0  0
  162.7060  211.0790  149.5370 C   0  0  0  0  0  2  0  0  0  0  0  0
  162.2990  212.1630  148.6000 C   0  0  0  0  0  0  0  0  0  0  0  0
  161.1570  212.6820  148.6960 O   0  0  0  0  0  1  0  0  0  0  0  0
  163.1650  212.5750  147.5970 O   0  0  0  0  0  0  0  0  0  0  0  0
  159.7230  211.9680  154.1220 C   0  0  0  0  0  2  0  0  0  0  0  0
  158.2950  211.4450  154.0890 C   0  0  0  0  0  2  0  0  0  0  0  0
  157.8610  211.0770  155.4910 C   0  0  0  0  0  1  0  0  0  0  0  0
  1 13  1  0  0  0  0
  1  4  1  0  0  0  0
  2  3  1  0  0  0  0
  3 10  2  0  0  0  0
  3  6  1  0  0  0  0
  5 15  1  0  0  0  0
  6  1  2  0  0  0  0
  7  8  1  1  0  0  0
  7 14  1  0  0  0  0
  9 16  2  0  0  0  0
 10  9  1  0  0  0  0
 11 15  1  0  0  0  0
 12  2  2  0  0  0  0
 13 16  1  0  0  0  0
 14  5  1  0  0  0  0
 14 10  1  0  0  0  0
 17 19  1  6  0  0  0
 17  7  1  0  0  0  0
 17  2  1  0  0  0  0
 18  8  1  0  0  0  0
 18 11  1  0  0  0  0
 19 20  1  0  0  0  0
 21 22  1  0  0  0  0
 21 20  1  0  0  0  0
 23 21  2  0  0  0  0
 24  6  1  0  0  0  0
 25 24  1  0  0  0  0
 25 26  1  0  0  0  0
M  END
>  <MODEL>
7

>  <REMARK>
 VINA RESULT:      -5.0      3.901      5.488
  Name = 
  5 active torsions:
  status: ('A' for Active; 'I' for Inactive)
    1  A    between atoms: C_3  and  C_11
    2  A    between atoms: C_5  and  C_22
    3  A    between atoms: C_8  and  C_22
    4  A    between atoms: C_11  and  S_14
    5  A    between atoms: S_14  and  C_24
                            x       y       z     vdW  Elec       q    Type
                         _______ _______ _______ _____ _____    ______ ____

>  <TORSDO>
F 5

$$$$
=
 OpenBabel11072414383D

 26 28  0  0  1  0  0  0  0  0999 V2000
  161.2090  208.8570  154.5190 C   0  0  0  0  0  0  0  0  0  0  0  0
  161.6660  210.1410  151.0470 C   0  0  0  0  0  0  0  0  0  0  0  0
  161.1830  209.1230  152.0170 C   0  0  0  0  0  0  0  0  0  0  0  0
  161.0300  209.4260  155.8160 N   0  0  0  0  0  1  0  0  0  0  0  0
  160.3150  206.4680  149.5840 C   0  0  0  0  0  2  0  0  0  0  0  0
  160.8560  209.5550  153.4200 C   0  0  0  0  0  0  0  0  0  0  0  0
  161.6970  208.5260  149.1590 C   0  0  1  0  0  3  0  0  0  0  0  0
  162.6940  207.7920  148.2610 C   0  0  0  0  0  2  0  0  0  0  0  0
  160.7310  206.6860  152.4080 C   0  0  0  0  0  3  0  0  0  0  0  0
  161.0100  207.8590  151.5490 C   0  0  0  0  0  0  0  0  0  0  0  0
  161.7250  205.5140  147.6990 C   0  0  0  0  0  2  0  0  0  0  0  0
  161.5280  211.3740  151.2660 O   0  0  0  0  0  0  0  0  0  0  0  0
  161.7130  207.5280  154.4530 N   0  0  0  0  0  2  0  0  0  0  0  0
  161.0700  207.6020  150.1220 N   0  0  0  0  0  0  0  0  0  0  0  0
  161.2730  205.3680  149.1550 C   0  0  0  0  0  2  0  0  0  0  0  0
  161.0840  206.5180  153.6740 C   0  0  0  0  0  3  0  0  0  0  0  0
  162.4220  209.6790  149.8390 C   0  0  1  0  0  3  0  0  0  0  0  0
  161.9560  206.9530  147.2290 C   0  0  0  0  0  2  0  0  0  0  0  0
  162.7060  211.0280  148.6360 S   0  0  0  0  0  0  0  0  0  0  0  0
  160.9820  211.0080  148.0570 C   0  0  0  0  0  2  0  0  0  0  0  0
  160.7100  212.2040  147.2130 C   0  0  0  0  0  0  0  0  0  0  0  0
  161.6650  212.8910  146.7670 O   0  0  0  0  0  0  0  0  0  0  0  0
  159.4010  212.5840  146.9490 O   0  0  0  0  0  1  0  0  0  0  0  0
  160.1400  210.8680  153.6090 C   0  0  0  0  0  2  0  0  0  0  0  0
  158.6970  210.7870  153.1340 C   0  0  0  0  0  2  0  0  0  0  0  0
  158.2850  212.1200  152.5470 C   0  0  0  0  0  1  0  0  0  0  0  0
  1  4  1  0  0  0  0
  2 12  2  0  0  0  0
  2  3  1  0  0  0  0
  3  6  1  0  0  0  0
  5 14  1  0  0  0  0
  6 24  1  0  0  0  0
  6  1  2  0  0  0  0
  7  8  1  1  0  0  0
  7 17  1  0  0  0  0
  7 14  1  0  0  0  0
  9 16  2  0  0  0  0
 10  3  2  0  0  0  0
 10  9  1  0  0  0  0
 11 15  1  0  0  0  0
 13  1  1  0  0  0  0
 14 10  1  0  0  0  0
 15  5  1  0  0  0  0
 16 13  1  0  0  0  0
 17 19  1  6  0  0  0
 17  2  1  0  0  0  0
 18 11  1  0  0  0  0
 18  8  1  0  0  0  0
 20 19  1  0  0  0  0
 21 20  1  0  0  0  0
 22 21  2  0  0  0  0
 23 21  1  0  0  0  0
 25 24  1  0  0  0  0
 26 25  1  0  0  0  0
M  END
>  <MODEL>
8

>  <REMARK>
 VINA RESULT:      -4.9      3.428      4.540
  Name = 
  5 active torsions:
  status: ('A' for Active; 'I' for Inactive)
    1  A    between atoms: C_3  and  C_11
    2  A    between atoms: C_5  and  C_22
    3  A    between atoms: C_8  and  C_22
    4  A    between atoms: C_11  and  S_14
    5  A    between atoms: S_14  and  C_24
                            x       y       z     vdW  Elec       q    Type
                         _______ _______ _______ _____ _____    ______ ____

>  <TORSDO>
F 5

$$$$
=
 OpenBabel11072414383D

 26 28  0  0  1  0  0  0  0  0999 V2000
  161.5640  203.1840  147.5640 C   0  0  0  0  0  0  0  0  0  0  0  0
  161.2730  204.8710  150.8770 C   0  0  0  0  0  0  0  0  0  0  0  0
  161.2120  204.8770  149.3920 C   0  0  0  0  0  0  0  0  0  0  0  0
  161.3550  201.8680  147.0530 N   0  0  0  0  0  1  0  0  0  0  0  0
  160.9310  208.5370  148.9030 C   0  0  0  0  0  2  0  0  0  0  0  0
  160.9130  203.5900  148.6730 C   0  0  2  0  0  3  0  0  0  0  0  0
  161.5920  207.3330  151.0090 C   0  0  1  0  0  3  0  0  0  0  0  0
  162.6680  208.3560  151.3750 C   0  0  0  0  0  2  0  0  0  0  0  0
  161.5430  206.2390  147.3110 C   0  0  0  0  0  3  0  0  0  0  0  0
  161.3750  206.0750  148.7730 C   0  0  0  0  0  0  0  0  0  0  0  0
  162.3650  210.3900  149.8860 C   0  0  0  0  0  2  0  0  0  0  0  0
  160.7990  203.9190  151.5500 O   0  0  0  0  0  0  0  0  0  0  0  0
  162.4290  204.0400  146.8270 N   0  0  0  0  0  0  0  0  0  0  0  0
  161.3660  207.2990  149.5520 N   0  0  0  0  0  0  0  0  0  0  0  0
  162.1240  209.4570  148.6950 C   0  0  0  0  0  2  0  0  0  0  0  0
  162.0540  205.3610  146.4590 C   0  0  0  0  0  3  0  0  0  0  0  0
  162.0080  205.9790  151.5680 C   0  0  1  0  0  3  0  0  0  0  0  0
  162.1120  209.7670  151.2620 C   0  0  0  0  0  2  0  0  0  0  0  0
  161.7590  205.9560  153.3810 S   0  0  0  0  0  0  0  0  0  0  0  0
  160.6410  207.3910  153.3450 C   0  0  0  0  0  2  0  0  0  0  0  0
  160.7180  208.1340  154.6320 C   0  0  0  0  0  0  0  0  0  0  0  0
  161.2440  209.2760  154.6700 O   0  0  0  0  0  0  0  0  0  0  0  0
  160.2420  207.5530  155.7990 O   0  0  0  0  0  1  0  0  0  0  0  0
  159.8630  202.6790  149.2560 C   0  0  0  0  0  2  0  0  0  0  0  0
  160.3550  201.2420  149.3360 C   0  0  0  0  0  2  0  0  0  0  0  0
  161.2400  201.0800  150.5530 C   0  0  0  0  0  1  0  0  0  0  0  0
  1  6  1  0  0  0  0
  2 12  2  0  0  0  0
  2 17  1  0  0  0  0
  3  2  1  0  0  0  0
  4  1  1  0  0  0  0
  5 14  1  0  0  0  0
  6 24  1  1  0  0  0
  6  3  1  0  0  0  0
  7  8  1  6  0  0  0
  7 17  1  0  0  0  0
  9 10  1  0  0  0  0
 10  3  2  0  0  0  0
 10 14  1  0  0  0  0
 11 18  1  0  0  0  0
 13  1  2  0  0  0  0
 14  7  1  0  0  0  0
 15  5  1  0  0  0  0
 15 11  1  0  0  0  0
 16 13  1  0  0  0  0
 16  9  2  0  0  0  0
 17 19  1  1  0  0  0
 18  8  1  0  0  0  0
 20 19  1  0  0  0  0
 20 21  1  0  0  0  0
 21 22  2  0  0  0  0
 21 23  1  0  0  0  0
 24 25  1  0  0  0  0
 25 26  1  0  0  0  0
M  END
>  <MODEL>
9

>  <REMARK>
 VINA RESULT:      -4.7      3.196      7.222
  Name = 
  5 active torsions:
  status: ('A' for Active; 'I' for Inactive)
    1  A    between atoms: C_3  and  C_11
    2  A    between atoms: C_5  and  C_22
    3  A    between atoms: C_8  and  C_22
    4  A    between atoms: C_11  and  S_14
    5  A    between atoms: S_14  and  C_24
                            x       y       z     vdW  Elec       q    Type
                         _______ _______ _______ _____ _____    ______ ____

>  <TORSDO>
F 5

$$$$
