=
 OpenBabel11072415243D

 25 29  0  0  1  0  0  0  0  0999 V2000
  161.3510  205.1550  144.5920 C   0  0  0  0  0  0  0  0  0  0  0  0
  161.0880  206.2130  143.9650 O   0  0  0  0  0  0  0  0  0  0  0  0
  160.6010  204.1480  151.0380 C   0  0  0  0  0  3  0  0  0  0  0  0
  160.9790  201.7960  150.6460 C   0  0  0  0  0  0  0  0  0  0  0  0
  160.7720  202.7450  145.0920 C   0  0  0  0  0  2  0  0  0  0  0  0
  161.4270  203.2630  148.8120 C   0  0  0  0  0  0  0  0  0  0  0  0
  160.4600  202.9500  146.5650 C   0  0  0  0  0  2  0  0  0  0  0  0
  161.1080  207.0180  149.6100 C   0  0  1  0  0  0  0  0  0  0  0  0
  162.4900  205.1450  145.5640 C   0  0  0  0  0  2  0  0  0  0  0  0
  162.5970  208.6170  148.6410 O   0  0  0  0  0  1  0  0  0  0  0  0
  161.6820  203.4510  147.3370 C   0  0  1  0  0  3  0  0  0  0  0  0
  161.3270  204.4590  149.7500 C   0  0  1  0  0  3  0  0  0  0  0  0
  160.4900  202.8980  151.4820 C   0  0  0  0  0  3  0  0  0  0  0  0
  160.8190  205.7190  149.0210 C   0  0  1  0  0  0  0  0  0  0  0  0
  161.3740  207.9680  148.4660 C   0  0  1  0  0  3  0  0  0  0  0  0
  161.3320  202.0510  149.2820 N   0  0  0  0  0  0  0  0  0  0  0  0
  159.8030  206.4840  149.6290 O   0  0  0  0  0  0  0  0  0  0  0  0
  162.0430  204.9160  147.0130 C   0  0  2  0  0  3  0  0  0  0  0  0
  160.9930  205.9130  147.5270 C   0  0  2  0  0  3  0  0  0  0  0  0
  160.5640  203.9870  144.3640 N   0  0  0  0  0  2  0  0  0  0  0  0
  161.4010  207.2410  147.2590 O   0  0  0  0  0  0  0  0  0  0  0  0
  161.0190  200.6240  151.1010 O   0  0  0  0  0  0  0  0  0  0  0  0
  160.9700  207.5190  152.0570 O   0  0  0  0  0  1  0  0  0  0  0  0
  161.7390  207.1430  150.9640 C   0  0  0  0  0  0  0  0  0  0  0  0
  162.9720  206.9330  151.1100 O   0  0  0  0  0  0  0  0  0  0  0  0
  1  9  1  0  0  0  0
  2  1  2  0  0  0  0
  3 13  2  0  0  0  0
  4 22  2  0  0  0  0
  4 13  1  0  0  0  0
  5  7  1  0  0  0  0
  6 16  2  0  0  0  0
  6 12  1  0  0  0  0
  8 17  1  0  0  0  0
  8 24  1  1  0  0  0
 11  7  1  6  0  0  0
 11  6  1  0  0  0  0
 12  3  1  1  0  0  0
 14  8  1  0  0  0  0
 14 17  1  1  0  0  0
 14 12  1  0  0  0  0
 15 10  1  1  0  0  0
 15  8  1  0  0  0  0
 16  4  1  0  0  0  0
 18  9  1  6  0  0  0
 18 11  1  0  0  0  0
 18 19  1  0  0  0  0
 19 21  1  1  0  0  0
 19 14  1  0  0  0  0
 20  1  1  0  0  0  0
 20  5  1  0  0  0  0
 21 15  1  0  0  0  0
 24 25  2  0  0  0  0
 24 23  1  0  0  0  0
M  END
>  <MODEL>
1

>  <REMARK>
 VINA RESULT:      -7.7      0.000      0.000
  Name = 
  1 active torsions:
  status: ('A' for Active; 'I' for Inactive)
    1  A    between atoms: C_8  and  C_12
                            x       y       z     vdW  Elec       q    Type
                         _______ _______ _______ _____ _____    ______ ____

>  <TORSDO>
F 1

$$$$
=
 OpenBabel11072415243D

 25 29  0  0  1  0  0  0  0  0999 V2000
  161.8200  207.9820  150.0900 C   0  0  0  0  0  0  0  0  0  0  0  0
  162.3310  208.9610  149.4870 O   0  0  0  0  0  0  0  0  0  0  0  0
  161.3920  201.8180  147.8670 C   0  0  0  0  0  3  0  0  0  0  0  0
  160.7390  201.1340  150.0880 C   0  0  0  0  0  0  0  0  0  0  0  0
  161.9540  206.3050  151.9770 C   0  0  0  0  0  2  0  0  0  0  0  0
  160.8050  203.4880  149.6790 C   0  0  0  0  0  0  0  0  0  0  0  0
  162.0570  205.0710  151.0970 C   0  0  0  0  0  2  0  0  0  0  0  0
  161.5420  204.4920  146.0340 C   0  0  1  0  0  0  0  0  0  0  0  0
  160.5530  207.3800  149.5650 C   0  0  0  0  0  2  0  0  0  0  0  0
  160.4750  206.3830  145.0340 O   0  0  0  0  0  1  0  0  0  0  0  0
  160.8160  204.8960  150.2210 C   0  0  1  0  0  3  0  0  0  0  0  0
  160.9310  203.2210  148.1850 C   0  0  1  0  0  3  0  0  0  0  0  0
  161.2470  200.8290  148.7460 C   0  0  0  0  0  3  0  0  0  0  0  0
  161.7260  204.3310  147.4680 C   0  0  1  0  0  0  0  0  0  0  0  0
  161.6020  205.9740  145.7490 C   0  0  1  0  0  3  0  0  0  0  0  0
  160.6460  202.4990  150.5110 N   0  0  0  0  0  0  0  0  0  0  0  0
  162.7360  203.9540  146.5590 O   0  0  0  0  0  0  0  0  0  0  0  0
  160.7300  205.9360  149.0820 C   0  0  2  0  0  3  0  0  0  0  0  0
  161.8200  205.7410  148.0180 C   0  0  2  0  0  3  0  0  0  0  0  0
  162.4540  207.4680  151.2610 N   0  0  0  0  0  2  0  0  0  0  0  0
  161.6590  206.6770  146.9700 O   0  0  0  0  0  0  0  0  0  0  0  0
  160.4560  200.2030  150.8860 O   0  0  0  0  0  0  0  0  0  0  0  0
  161.0420  202.1660  145.2610 O   0  0  0  0  0  1  0  0  0  0  0  0
  160.7320  203.5190  145.2320 C   0  0  0  0  0  0  0  0  0  0  0  0
  159.7850  203.9280  144.5110 O   0  0  0  0  0  0  0  0  0  0  0  0
  1 20  1  0  0  0  0
  2  1  2  0  0  0  0
  3 13  2  0  0  0  0
  4 16  1  0  0  0  0
  4 22  2  0  0  0  0
  6 11  1  0  0  0  0
  6 16  2  0  0  0  0
  7  5  1  0  0  0  0
  8 24  1  6  0  0  0
  8 17  1  0  0  0  0
  8 14  1  0  0  0  0
  9  1  1  0  0  0  0
 11  7  1  6  0  0  0
 12  3  1  1  0  0  0
 12  6  1  0  0  0  0
 13  4  1  0  0  0  0
 14 17  1  1  0  0  0
 14 19  1  0  0  0  0
 14 12  1  0  0  0  0
 15 10  1  1  0  0  0
 15  8  1  0  0  0  0
 15 21  1  0  0  0  0
 18  9  1  1  0  0  0
 18 11  1  0  0  0  0
 19 21  1  6  0  0  0
 19 18  1  0  0  0  0
 20  5  1  0  0  0  0
 24 23  1  0  0  0  0
 25 24  2  0  0  0  0
M  END
>  <MODEL>
2

>  <REMARK>
 VINA RESULT:      -7.5      2.010      4.814
  Name = 
  1 active torsions:
  status: ('A' for Active; 'I' for Inactive)
    1  A    between atoms: C_8  and  C_12
                            x       y       z     vdW  Elec       q    Type
                         _______ _______ _______ _____ _____    ______ ____

>  <TORSDO>
F 1

$$$$
=
 OpenBabel11072415243D

 25 29  0  0  1  0  0  0  0  0999 V2000
  161.6120  207.8990  152.7590 C   0  0  0  0  0  0  0  0  0  0  0  0
  162.2420  208.9870  152.7870 O   0  0  0  0  0  0  0  0  0  0  0  0
  161.5630  203.5400  147.8470 C   0  0  0  0  0  3  0  0  0  0  0  0
  160.4770  201.9780  149.3330 C   0  0  0  0  0  0  0  0  0  0  0  0
  161.3520  205.5360  153.6190 C   0  0  0  0  0  2  0  0  0  0  0  0
  160.6480  204.2340  150.1050 C   0  0  0  0  0  0  0  0  0  0  0  0
  161.6140  204.8440  152.2920 C   0  0  0  0  0  2  0  0  0  0  0  0
  162.1010  206.7270  147.5540 C   0  0  1  0  0  0  0  0  0  0  0  0
  160.4670  207.7410  151.8060 C   0  0  0  0  0  2  0  0  0  0  0  0
  161.2730  208.9640  147.4030 O   0  0  0  0  0  1  0  0  0  0  0  0
  160.5680  205.2230  151.2420 C   0  0  1  0  0  3  0  0  0  0  0  0
  161.0640  204.6760  148.7080 C   0  0  1  0  0  3  0  0  0  0  0  0
  161.2370  202.2770  148.1140 C   0  0  0  0  0  3  0  0  0  0  0  0
  161.9970  205.9030  148.7480 C   0  0  1  0  0  0  0  0  0  0  0  0
  162.2320  208.1580  148.0180 C   0  0  1  0  0  3  0  0  0  0  0  0
  160.3180  202.9940  150.3300 N   0  0  0  0  0  0  0  0  0  0  0  0
  163.1610  205.8880  147.9540 O   0  0  0  0  0  0  0  0  0  0  0  0
  160.7190  206.6740  150.7350 C   0  0  2  0  0  3  0  0  0  0  0  0
  161.9960  206.8820  149.9060 C   0  0  2  0  0  3  0  0  0  0  0  0
  161.9960  206.8400  153.6340 N   0  0  0  0  0  2  0  0  0  0  0  0
  162.0540  208.2070  149.4160 O   0  0  0  0  0  0  0  0  0  0  0  0
  160.0330  200.8190  149.5360 O   0  0  0  0  0  0  0  0  0  0  0  0
  160.0800  206.4440  146.1060 O   0  0  0  0  0  1  0  0  0  0  0  0
  161.4540  206.3240  146.2630 C   0  0  0  0  0  0  0  0  0  0  0  0
  162.1500  205.8500  145.3270 O   0  0  0  0  0  0  0  0  0  0  0  0
  1  2  2  0  0  0  0
  1 20  1  0  0  0  0
  3 13  2  0  0  0  0
  4 22  2  0  0  0  0
  4 16  1  0  0  0  0
  5 20  1  0  0  0  0
  6 16  2  0  0  0  0
  6 11  1  0  0  0  0
  7  5  1  0  0  0  0
  8 24  1  6  0  0  0
  8 17  1  0  0  0  0
  8 15  1  0  0  0  0
  8 14  1  0  0  0  0
  9  1  1  0  0  0  0
 11  7  1  1  0  0  0
 12  3  1  1  0  0  0
 12 14  1  0  0  0  0
 12  6  1  0  0  0  0
 13  4  1  0  0  0  0
 14 17  1  1  0  0  0
 14 19  1  0  0  0  0
 15 10  1  6  0  0  0
 15 21  1  0  0  0  0
 18 11  1  0  0  0  0
 18  9  1  1  0  0  0
 19 21  1  6  0  0  0
 19 18  1  0  0  0  0
 23 24  1  0  0  0  0
 25 24  2  0  0  0  0
M  END
>  <MODEL>
3

>  <REMARK>
 VINA RESULT:      -6.5      2.048      5.041
  Name = 
  1 active torsions:
  status: ('A' for Active; 'I' for Inactive)
    1  A    between atoms: C_8  and  C_12
                            x       y       z     vdW  Elec       q    Type
                         _______ _______ _______ _____ _____    ______ ____

>  <TORSDO>
F 1

$$$$
=
 OpenBabel11072415243D

 25 29  0  0  1  0  0  0  0  0999 V2000
  160.6620  201.5310  147.7270 C   0  0  0  0  0  0  0  0  0  0  0  0
  160.2980  201.3980  146.5300 O   0  0  0  0  0  0  0  0  0  0  0  0
  161.0030  207.1530  151.1020 C   0  0  0  0  0  3  0  0  0  0  0  0
  161.3100  205.8500  153.1110 C   0  0  0  0  0  0  0  0  0  0  0  0
  160.1750  201.1700  150.1810 C   0  0  0  0  0  2  0  0  0  0  0  0
  161.4450  204.6590  151.0430 C   0  0  0  0  0  0  0  0  0  0  0  0
  160.1140  202.6400  150.5580 C   0  0  0  0  0  2  0  0  0  0  0  0
  161.2650  206.8520  147.8810 C   0  0  1  0  0  0  0  0  0  0  0  0
  161.9480  202.2380  148.0250 C   0  0  0  0  0  2  0  0  0  0  0  0
  162.5710  206.3390  145.9460 O   0  0  0  0  0  1  0  0  0  0  0  0
  161.4480  203.3440  150.3040 C   0  0  1  0  0  3  0  0  0  0  0  0
  161.5030  205.9820  150.2900 C   0  0  1  0  0  3  0  0  0  0  0  0
  160.9690  207.1050  152.4320 C   0  0  0  0  0  3  0  0  0  0  0  0
  160.8810  205.8700  148.8840 C   0  0  1  0  0  0  0  0  0  0  0  0
  161.3350  206.1250  146.5590 C   0  0  1  0  0  3  0  0  0  0  0  0
  161.4300  204.6460  152.3450 N   0  0  0  0  0  0  0  0  0  0  0  0
  159.9810  206.8720  148.4650 O   0  0  0  0  0  0  0  0  0  0  0  0
  161.7500  203.5440  148.8030 C   0  0  2  0  0  3  0  0  0  0  0  0
  160.8020  204.5520  148.1370 C   0  0  2  0  0  3  0  0  0  0  0  0
  159.8480  201.0050  148.7730 N   0  0  0  0  0  2  0  0  0  0  0  0
  161.1590  204.7440  146.7830 O   0  0  0  0  0  0  0  0  0  0  0  0
  161.4260  205.8180  154.3640 O   0  0  0  0  0  0  0  0  0  0  0  0
  161.5380  209.2960  148.3410 O   0  0  0  0  0  0  0  0  0  0  0  0
  162.1140  208.0380  148.2290 C   0  0  0  0  0  0  0  0  0  0  0  0
  163.3540  207.9020  148.3940 O   0  0  0  0  0  1  0  0  0  0  0  0
  1  9  1  0  0  0  0
  1 20  1  0  0  0  0
  2  1  2  0  0  0  0
  3 13  2  0  0  0  0
  4 22  2  0  0  0  0
  5  7  1  0  0  0  0
  6 16  2  0  0  0  0
  8 24  1  1  0  0  0
  8 17  1  0  0  0  0
  8 14  1  0  0  0  0
 11  7  1  6  0  0  0
 11  6  1  0  0  0  0
 12  6  1  0  0  0  0
 12  3  1  1  0  0  0
 13  4  1  0  0  0  0
 14 17  1  1  0  0  0
 14 12  1  0  0  0  0
 15 10  1  1  0  0  0
 15 21  1  0  0  0  0
 15  8  1  0  0  0  0
 16  4  1  0  0  0  0
 18  9  1  6  0  0  0
 18 11  1  0  0  0  0
 19 21  1  6  0  0  0
 19 18  1  0  0  0  0
 19 14  1  0  0  0  0
 20  5  1  0  0  0  0
 24 23  2  0  0  0  0
 24 25  1  0  0  0  0
M  END
>  <MODEL>
4

>  <REMARK>
 VINA RESULT:      -6.3      2.162      3.675
  Name = 
  1 active torsions:
  status: ('A' for Active; 'I' for Inactive)
    1  A    between atoms: C_8  and  C_12
                            x       y       z     vdW  Elec       q    Type
                         _______ _______ _______ _____ _____    ______ ____

>  <TORSDO>
F 1

$$$$
=
 OpenBabel11072415243D

 25 29  0  0  1  0  0  0  0  0999 V2000
  161.5920  203.6280  147.4830 C   0  0  0  0  0  0  0  0  0  0  0  0
  161.8570  202.4330  147.7750 O   0  0  0  0  0  0  0  0  0  0  0  0
  162.3390  208.8570  151.3840 C   0  0  0  0  0  3  0  0  0  0  0  0
  161.9560  210.2630  149.4600 C   0  0  0  0  0  0  0  0  0  0  0  0
  162.1660  205.7010  146.1550 C   0  0  0  0  0  2  0  0  0  0  0  0
  161.5110  207.9320  149.1760 C   0  0  0  0  0  0  0  0  0  0  0  0
  162.4790  206.5850  147.3500 C   0  0  0  0  0  2  0  0  0  0  0  0
  161.8370  205.8070  152.3720 C   0  0  1  0  0  0  0  0  0  0  0  0
  160.4520  204.3130  148.1720 C   0  0  0  0  0  2  0  0  0  0  0  0
  160.3510  203.9840  152.8000 O   0  0  0  0  0  1  0  0  0  0  0  0
  161.2570  206.7650  148.2540 C   0  0  1  0  0  3  0  0  0  0  0  0
  161.6140  207.7330  150.6830 C   0  0  1  0  0  3  0  0  0  0  0  0
  162.4470  210.0620  150.8280 C   0  0  0  0  0  3  0  0  0  0  0  0
  162.1230  206.3230  151.0420 C   0  0  1  0  0  0  0  0  0  0  0  0
  161.5730  204.3270  152.2200 C   0  0  1  0  0  3  0  0  0  0  0  0
  161.6040  209.1260  148.6640 N   0  0  0  0  0  0  0  0  0  0  0  0
  163.1410  206.2030  152.0110 O   0  0  0  0  0  0  0  0  0  0  0  0
  160.8990  205.4900  149.0470 C   0  0  2  0  0  3  0  0  0  0  0  0
  161.9500  205.1390  150.1110 C   0  0  2  0  0  3  0  0  0  0  0  0
  162.3770  204.3040  146.5020 N   0  0  0  0  0  2  0  0  0  0  0  0
  161.5450  204.0020  150.8480 O   0  0  0  0  0  0  0  0  0  0  0  0
  161.9140  211.4190  148.9650 O   0  0  0  0  0  0  0  0  0  0  0  0
  161.8490  206.8540  154.6440 O   0  0  0  0  0  1  0  0  0  0  0  0
  161.2060  206.6630  153.4280 C   0  0  0  0  0  0  0  0  0  0  0  0
  160.0810  207.1910  153.2260 O   0  0  0  0  0  0  0  0  0  0  0  0
  1  2  2  0  0  0  0
  1  9  1  0  0  0  0
  4 13  1  0  0  0  0
  5 20  1  0  0  0  0
  5  7  1  0  0  0  0
  6 12  1  0  0  0  0
  8 24  1  1  0  0  0
 11  7  1  1  0  0  0
 11 18  1  0  0  0  0
 11  6  1  0  0  0  0
 12 14  1  0  0  0  0
 12  3  1  6  0  0  0
 13  3  2  0  0  0  0
 14 17  1  1  0  0  0
 14  8  1  0  0  0  0
 15  8  1  0  0  0  0
 15 10  1  6  0  0  0
 16  6  2  0  0  0  0
 16  4  1  0  0  0  0
 17  8  1  0  0  0  0
 18  9  1  6  0  0  0
 18 19  1  0  0  0  0
 19 21  1  1  0  0  0
 19 14  1  0  0  0  0
 20  1  1  0  0  0  0
 21 15  1  0  0  0  0
 22  4  2  0  0  0  0
 24 23  1  0  0  0  0
 25 24  2  0  0  0  0
M  END
>  <MODEL>
5

>  <REMARK>
 VINA RESULT:      -5.9      2.490      5.024
  Name = 
  1 active torsions:
  status: ('A' for Active; 'I' for Inactive)
    1  A    between atoms: C_8  and  C_12
                            x       y       z     vdW  Elec       q    Type
                         _______ _______ _______ _____ _____    ______ ____

>  <TORSDO>
F 1

$$$$
=
 OpenBabel11072415243D

 25 29  0  0  1  0  0  0  0  0999 V2000
  161.2060  205.4350  153.3940 C   0  0  0  0  0  0  0  0  0  0  0  0
  160.6470  204.3220  153.5740 O   0  0  0  0  0  0  0  0  0  0  0  0
  161.2850  208.9090  147.8210 C   0  0  0  0  0  3  0  0  0  0  0  0
  162.1700  210.7720  149.0740 C   0  0  0  0  0  0  0  0  0  0  0  0
  161.2560  207.9210  153.8520 C   0  0  0  0  0  2  0  0  0  0  0  0
  162.0970  208.6690  150.2090 C   0  0  0  0  0  0  0  0  0  0  0  0
  161.0360  208.3610  152.4140 C   0  0  0  0  0  2  0  0  0  0  0  0
  160.9760  205.6860  148.0470 C   0  0  1  0  0  0  0  0  0  0  0  0
  162.3970  205.5180  152.4890 C   0  0  0  0  0  2  0  0  0  0  0  0
  161.9560  203.5230  148.3230 O   0  0  0  0  0  1  0  0  0  0  0  0
  162.1690  207.8920  151.5000 C   0  0  1  0  0  3  0  0  0  0  0  0
  161.8010  207.9720  148.8880 C   0  0  1  0  0  3  0  0  0  0  0  0
  161.5110  210.2190  147.8860 C   0  0  0  0  0  3  0  0  0  0  0  0
  160.9500  206.7020  149.0870 C   0  0  1  0  0  0  0  0  0  0  0  0
  160.9090  204.3460  148.7410 C   0  0  1  0  0  3  0  0  0  0  0  0
  162.3310  209.9510  150.2360 N   0  0  0  0  0  0  0  0  0  0  0  0
  159.8400  206.4980  148.2420 O   0  0  0  0  0  0  0  0  0  0  0  0
  162.1450  206.3700  151.2400 C   0  0  2  0  0  3  0  0  0  0  0  0
  160.9400  205.9320  150.3940 C   0  0  2  0  0  3  0  0  0  0  0  0
  160.6980  206.5930  154.0550 N   0  0  0  0  0  2  0  0  0  0  0  0
  160.9990  204.5430  150.1340 O   0  0  0  0  0  0  0  0  0  0  0  0
  162.5240  211.9790  149.0990 O   0  0  0  0  0  0  0  0  0  0  0  0
  160.9410  206.2030  145.5990 O   0  0  0  0  0  0  0  0  0  0  0  0
  161.6760  205.9160  146.7420 C   0  0  0  0  0  0  0  0  0  0  0  0
  162.9300  205.8250  146.6710 O   0  0  0  0  0  1  0  0  0  0  0  0
  1  2  2  0  0  0  0
  1 20  1  0  0  0  0
  3 13  2  0  0  0  0
  4 22  2  0  0  0  0
  4 16  1  0  0  0  0
  5 20  1  0  0  0  0
  6 16  2  0  0  0  0
  6 11  1  0  0  0  0
  7  5  1  0  0  0  0
  8 24  1  6  0  0  0
  8 17  1  0  0  0  0
  8 15  1  0  0  0  0
  8 14  1  0  0  0  0
  9  1  1  0  0  0  0
 11  7  1  1  0  0  0
 12  3  1  6  0  0  0
 12 14  1  0  0  0  0
 12  6  1  0  0  0  0
 13  4  1  0  0  0  0
 14 17  1  6  0  0  0
 14 19  1  0  0  0  0
 15 10  1  6  0  0  0
 15 21  1  0  0  0  0
 18 11  1  0  0  0  0
 18  9  1  1  0  0  0
 19 21  1  6  0  0  0
 19 18  1  0  0  0  0
 23 24  2  0  0  0  0
 25 24  1  0  0  0  0
M  END
>  <MODEL>
6

>  <REMARK>
 VINA RESULT:      -5.8      3.090      6.729
  Name = 
  1 active torsions:
  status: ('A' for Active; 'I' for Inactive)
    1  A    between atoms: C_8  and  C_12
                            x       y       z     vdW  Elec       q    Type
                         _______ _______ _______ _____ _____    ______ ____

>  <TORSDO>
F 1

$$$$
=
 OpenBabel11072415243D

 25 29  0  0  1  0  0  0  0  0999 V2000
  161.7490  210.1210  151.2200 C   0  0  0  0  0  0  0  0  0  0  0  0
  161.1460  210.4710  152.2670 O   0  0  0  0  0  0  0  0  0  0  0  0
  161.1880  204.3510  148.1360 C   0  0  0  0  0  3  0  0  0  0  0  0
  162.3970  205.3030  146.2760 C   0  0  0  0  0  0  0  0  0  0  0  0
  162.0540  210.3710  148.7230 C   0  0  0  0  0  2  0  0  0  0  0  0
  162.3520  206.5950  148.2870 C   0  0  0  0  0  0  0  0  0  0  0  0
  161.6390  208.9550  148.3600 C   0  0  0  0  0  2  0  0  0  0  0  0
  160.6830  204.8710  151.2990 C   0  0  1  0  0  0  0  0  0  0  0  0
  162.7820  209.0390  151.2980 C   0  0  0  0  0  2  0  0  0  0  0  0
  161.5330  205.1600  153.5150 O   0  0  0  0  0  1  0  0  0  0  0  0
  162.5730  207.9160  148.9820 C   0  0  1  0  0  3  0  0  0  0  0  0
  161.7980  205.3940  149.0410 C   0  0  1  0  0  3  0  0  0  0  0  0
  161.5170  204.2770  146.8480 C   0  0  0  0  0  3  0  0  0  0  0  0
  160.8990  205.8210  150.2190 C   0  0  1  0  0  0  0  0  0  0  0  0
  160.6300  205.6690  152.5810 C   0  0  1  0  0  3  0  0  0  0  0  0
  162.6810  206.4860  147.0310 N   0  0  0  0  0  0  0  0  0  0  0  0
  159.6560  205.1760  150.3830 O   0  0  0  0  0  0  0  0  0  0  0  0
  162.3960  207.7820  150.5100 C   0  0  2  0  0  3  0  0  0  0  0  0
  161.0420  207.1690  150.8980 C   0  0  2  0  0  3  0  0  0  0  0  0
  161.4410  210.7610  149.9820 N   0  0  0  0  0  2  0  0  0  0  0  0
  160.9570  207.0120  152.3010 O   0  0  0  0  0  0  0  0  0  0  0  0
  162.8380  205.1790  145.1050 O   0  0  0  0  0  0  0  0  0  0  0  0
  160.3670  202.4670  150.6840 O   0  0  0  0  0  0  0  0  0  0  0  0
  161.1800  203.4590  151.2150 C   0  0  0  0  0  0  0  0  0  0  0  0
  162.3250  203.1640  151.6470 O   0  0  0  0  0  1  0  0  0  0  0  0
  1  9  1  0  0  0  0
  1  2  2  0  0  0  0
  4 13  1  0  0  0  0
  4 16  1  0  0  0  0
  5 20  1  0  0  0  0
  6 11  1  0  0  0  0
  6 12  1  0  0  0  0
  7  5  1  0  0  0  0
  8 24  1  6  0  0  0
  8 15  1  0  0  0  0
 11  7  1  6  0  0  0
 11 18  1  0  0  0  0
 12  3  1  6  0  0  0
 12 14  1  0  0  0  0
 13  3  2  0  0  0  0
 14 17  1  6  0  0  0
 14 19  1  0  0  0  0
 14  8  1  0  0  0  0
 15 10  1  1  0  0  0
 16  6  2  0  0  0  0
 17  8  1  0  0  0  0
 18 19  1  0  0  0  0
 18  9  1  1  0  0  0
 19 21  1  1  0  0  0
 20  1  1  0  0  0  0
 21 15  1  0  0  0  0
 22  4  2  0  0  0  0
 23 24  2  0  0  0  0
 24 25  1  0  0  0  0
M  END
>  <MODEL>
7

>  <REMARK>
 VINA RESULT:      -5.5      2.610      5.561
  Name = 
  1 active torsions:
  status: ('A' for Active; 'I' for Inactive)
    1  A    between atoms: C_8  and  C_12
                            x       y       z     vdW  Elec       q    Type
                         _______ _______ _______ _____ _____    ______ ____

>  <TORSDO>
F 1

$$$$
=
 OpenBabel11072415243D

 25 29  0  0  1  0  0  0  0  0999 V2000
  161.5430  207.1950  152.1490 C   0  0  0  0  0  0  0  0  0  0  0  0
  161.0320  206.9520  153.2720 O   0  0  0  0  0  0  0  0  0  0  0  0
  161.0030  203.5170  146.7350 C   0  0  0  0  0  3  0  0  0  0  0  0
  161.9560  205.3450  145.4800 C   0  0  0  0  0  0  0  0  0  0  0  0
  161.5740  208.6140  150.0570 C   0  0  0  0  0  2  0  0  0  0  0  0
  162.0440  205.5330  147.8610 C   0  0  0  0  0  0  0  0  0  0  0  0
  161.2060  207.4990  149.0920 C   0  0  0  0  0  2  0  0  0  0  0  0
  160.7980  202.4420  149.7910 C   0  0  1  0  0  0  0  0  0  0  0  0
  162.6400  206.3120  151.6370 C   0  0  0  0  0  2  0  0  0  0  0  0
  161.8540  201.7430  151.8180 O   0  0  0  0  0  1  0  0  0  0  0  0
  162.2590  206.3890  149.0840 C   0  0  1  0  0  3  0  0  0  0  0  0
  161.6410  204.0700  147.9870 C   0  0  1  0  0  3  0  0  0  0  0  0
  161.2010  204.0880  145.5500 C   0  0  0  0  0  3  0  0  0  0  0  0
  160.8450  203.8030  149.2800 C   0  0  1  0  0  0  0  0  0  0  0  0
  160.8310  202.5370  151.2980 C   0  0  1  0  0  3  0  0  0  0  0  0
  162.2480  206.0580  146.6860 N   0  0  0  0  0  0  0  0  0  0  0  0
  159.6650  203.0360  149.1970 O   0  0  0  0  0  0  0  0  0  0  0  0
  162.2480  205.5390  150.3730 C   0  0  2  0  0  3  0  0  0  0  0  0
  160.9800  204.6830  150.5080 C   0  0  2  0  0  3  0  0  0  0  0  0
  161.0720  208.3050  151.3860 N   0  0  0  0  0  2  0  0  0  0  0  0
  161.0490  203.8800  151.6700 O   0  0  0  0  0  0  0  0  0  0  0  0
  162.2800  205.8280  144.3640 O   0  0  0  0  0  0  0  0  0  0  0  0
  160.5560  200.5780  148.1390 O   0  0  0  0  0  0  0  0  0  0  0  0
  161.3650  201.2920  149.0140 C   0  0  0  0  0  0  0  0  0  0  0  0
  162.5670  200.9530  149.1710 O   0  0  0  0  0  1  0  0  0  0  0  0
  1  2  2  0  0  0  0
  4 13  1  0  0  0  0
  4 16  1  0  0  0  0
  5 20  1  0  0  0  0
  6 12  1  0  0  0  0
  6 11  1  0  0  0  0
  7  5  1  0  0  0  0
  8 24  1  6  0  0  0
  8 15  1  0  0  0  0
  9  1  1  0  0  0  0
 11  7  1  1  0  0  0
 11 18  1  0  0  0  0
 12  3  1  6  0  0  0
 12 14  1  0  0  0  0
 13  3  2  0  0  0  0
 14 17  1  6  0  0  0
 14  8  1  0  0  0  0
 14 19  1  0  0  0  0
 15 21  1  0  0  0  0
 15 10  1  6  0  0  0
 16  6  2  0  0  0  0
 17  8  1  0  0  0  0
 18 19  1  0  0  0  0
 18  9  1  1  0  0  0
 19 21  1  1  0  0  0
 20  1  1  0  0  0  0
 22  4  2  0  0  0  0
 23 24  2  0  0  0  0
 24 25  1  0  0  0  0
M  END
>  <MODEL>
8

>  <REMARK>
 VINA RESULT:      -5.4      2.208      5.951
  Name = 
  1 active torsions:
  status: ('A' for Active; 'I' for Inactive)
    1  A    between atoms: C_8  and  C_12
                            x       y       z     vdW  Elec       q    Type
                         _______ _______ _______ _____ _____    ______ ____

>  <TORSDO>
F 1

$$$$
=
 OpenBabel11072415243D

 25 29  0  0  1  0  0  0  0  0999 V2000
  161.3760  210.0190  154.0430 C   0  0  0  0  0  0  0  0  0  0  0  0
  161.9340  211.1310  153.8600 O   0  0  0  0  0  0  0  0  0  0  0  0
  161.8980  204.7130  150.2090 C   0  0  0  0  0  3  0  0  0  0  0  0
  160.8240  203.4320  151.9500 C   0  0  0  0  0  0  0  0  0  0  0  0
  161.2130  207.8840  155.3870 C   0  0  0  0  0  2  0  0  0  0  0  0
  160.8060  205.8080  152.2160 C   0  0  0  0  0  0  0  0  0  0  0  0
  161.5970  206.9440  154.2570 C   0  0  0  0  0  2  0  0  0  0  0  0
  162.2530  207.7930  149.2490 C   0  0  1  0  0  0  0  0  0  0  0  0
  160.3030  209.5750  153.0970 C   0  0  0  0  0  2  0  0  0  0  0  0
  161.2970  209.8770  148.5740 O   0  0  0  0  0  1  0  0  0  0  0  0
  160.5950  207.0100  153.1030 C   0  0  1  0  0  3  0  0  0  0  0  0
  161.2780  205.9680  150.7770 C   0  0  1  0  0  3  0  0  0  0  0  0
  161.6360  203.5170  150.7310 C   0  0  0  0  0  3  0  0  0  0  0  0
  162.1280  207.2400  150.5890 C   0  0  1  0  0  0  0  0  0  0  0  0
  162.2660  209.2960  149.3940 C   0  0  1  0  0  3  0  0  0  0  0  0
  160.5410  204.6240  152.6910 N   0  0  0  0  0  0  0  0  0  0  0  0
  163.3370  207.1410  149.8710 O   0  0  0  0  0  0  0  0  0  0  0  0
  160.6860  208.3240  152.2980 C   0  0  2  0  0  3  0  0  0  0  0  0
  161.9950  208.4430  151.5030 C   0  0  2  0  0  3  0  0  0  0  0  0
  161.7720  209.2050  155.1460 N   0  0  0  0  0  2  0  0  0  0  0  0
  162.0010  209.6320  150.7380 O   0  0  0  0  0  0  0  0  0  0  0  0
  160.4410  202.3140  152.3810 O   0  0  0  0  0  0  0  0  0  0  0  0
  160.3440  206.8860  147.9100 O   0  0  0  0  0  1  0  0  0  0  0  0
  161.7120  207.0740  148.0500 C   0  0  0  0  0  0  0  0  0  0  0  0
  162.4980  206.6160  147.1800 O   0  0  0  0  0  0  0  0  0  0  0  0
  1 20  1  0  0  0  0
  2  1  2  0  0  0  0
  3 13  2  0  0  0  0
  4 22  2  0  0  0  0
  4 16  1  0  0  0  0
  6 16  2  0  0  0  0
  6 11  1  0  0  0  0
  7  5  1  0  0  0  0
  8 24  1  6  0  0  0
  8 15  1  0  0  0  0
  8 17  1  0  0  0  0
  8 14  1  0  0  0  0
  9  1  1  0  0  0  0
 11  7  1  1  0  0  0
 12  3  1  1  0  0  0
 12  6  1  0  0  0  0
 13  4  1  0  0  0  0
 14 17  1  1  0  0  0
 14 12  1  0  0  0  0
 14 19  1  0  0  0  0
 15 10  1  6  0  0  0
 15 21  1  0  0  0  0
 18  9  1  1  0  0  0
 18 11  1  0  0  0  0
 19 21  1  6  0  0  0
 19 18  1  0  0  0  0
 20  5  1  0  0  0  0
 23 24  1  0  0  0  0
 25 24  2  0  0  0  0
M  END
>  <MODEL>
9

>  <REMARK>
 VINA RESULT:      -5.2      3.038      6.086
  Name = 
  1 active torsions:
  status: ('A' for Active; 'I' for Inactive)
    1  A    between atoms: C_8  and  C_12
                            x       y       z     vdW  Elec       q    Type
                         _______ _______ _______ _____ _____    ______ ____

>  <TORSDO>
F 1

$$$$
