=
 OpenBabel11072411063D

 46 50  0  0  1  0  0  0  0  0999 V2000
  159.5900  213.5570  149.0140 C   0  0  0  0  0  0  0  0  0  0  0  0
  160.6120  214.0720  149.4420 O   0  0  0  0  0  0  0  0  0  0  0  0
  158.2070  213.2750  150.1180 S   0  0  0  0  0  0  0  0  0  0  0  0
  160.0670  211.2960  152.7340 N   0  0  0  0  0  0  0  0  0  0  0  0
  158.5250  213.0200  152.7510 O   0  0  0  0  0  0  0  0  0  0  0  0
  159.2940  213.2260  151.5720 C   0  0  1  0  0  3  0  0  0  0  0  0
  158.5020  211.4770  154.4860 O   0  0  0  0  0  0  0  0  0  0  0  0
  160.2450  212.0140  151.4790 C   0  0  0  0  0  2  0  0  0  0  0  0
  158.9940  211.9110  153.4110 C   0  0  0  0  0  0  0  0  0  0  0  0
  160.5760  209.9610  153.0290 C   0  0  2  0  0  3  0  0  0  0  0  0
  161.2210  209.9180  154.3830 C   0  0  0  0  0  0  0  0  0  0  0  0
  162.2680  210.5760  154.6190 O   0  0  0  0  0  0  0  0  0  0  0  0
  160.6400  209.1640  155.3950 O   0  0  0  0  0  1  0  0  0  0  0  0
  161.5200  209.4920  151.9250 C   0  0  0  0  0  2  0  0  0  0  0  0
  161.6310  208.2450  149.0770 C   0  0  0  0  0  3  0  0  0  0  0  0
  161.0810  205.2650  151.1570 C   0  0  0  0  0  0  0  0  0  0  0  0
  161.1380  207.1350  152.7210 C   0  0  0  0  0  3  0  0  0  0  0  0
  161.4180  207.5170  150.3570 C   0  0  2  0  0  3  0  0  0  0  0  0
  161.3450  208.0320  151.6580 C   0  0  0  0  0  0  0  0  0  0  0  0
  161.0050  205.7570  152.4710 C   0  0  0  0  0  3  0  0  0  0  0  0
  161.4000  205.8680  148.7440 N   0  0  0  0  0  0  0  0  0  0  0  0
  160.9430  203.8070  150.8930 C   0  0  0  0  0  1  0  0  0  0  0  0
  161.6190  207.1210  148.0210 C   0  0  0  0  0  3  0  0  0  0  0  0
  161.2900  206.1780  150.1180 C   0  0  0  0  0  0  0  0  0  0  0  0
  159.4640  213.1850  147.5660 C   0  0  2  0  0  3  0  0  0  0  0  0
  161.6610  213.3940  143.3360 N   0  0  0  0  0  0  0  0  0  0  0  0
  160.7970  213.3700  145.4680 C   0  0  0  0  0  0  0  0  0  0  0  0
  162.5260  213.6430  142.2210 C   0  0  0  0  0  0  0  0  0  0  0  0
  160.6840  213.5780  146.7830 C   0  0  0  0  0  2  0  0  0  0  0  0
  159.7670  212.7070  144.6150 C   0  0  0  0  0  3  0  0  0  0  0  0
  163.6010  214.2790  142.3900 O   0  0  0  0  0  0  0  0  0  0  0  0
  161.9870  213.7910  144.6930 C   0  0  0  0  0  3  0  0  0  0  0  0
  160.3700  212.7280  143.2160 C   0  0  0  0  0  3  0  0  0  0  0  0
  162.1740  213.1220  140.8580 C   0  0  1  0  0  3  0  0  0  0  0  0
  162.8890  213.7890  139.8600 O   0  0  0  0  0  1  0  0  0  0  0  0
  162.3520  211.6080  140.7480 C   0  0  0  0  0  2  0  0  0  0  0  0
  161.7850  209.2030  138.0250 C   0  0  0  0  0  3  0  0  0  0  0  0
  161.4470  210.9770  139.7320 C   0  0  0  0  0  0  0  0  0  0  0  0
  163.3200  210.9690  138.2530 F   0  0  0  0  0  0  0  0  0  0  0  0
  160.5840  208.6300  137.9400 C   0  0  0  0  0  3  0  0  0  0  0  0
  161.9770  210.6430  138.3660 C   0  0  1  0  0  3  0  0  0  0  0  0
  159.1120  210.2670  139.1510 C   0  0  0  0  0  3  0  0  0  0  0  0
  159.3020  209.2900  138.2560 C   0  0  0  0  0  3  0  0  0  0  0  0
  160.1430  210.8780  140.0130 C   0  0  0  0  0  3  0  0  0  0  0  0
  158.1820  213.7470  146.9500 C   0  0  0  0  0  2  0  0  0  0  0  0
  157.1790  212.7090  146.7670 N   0  0  0  0  0  1  0  0  0  0  0  0
  1  2  2  0  0  0  0
  1  3  1  0  0  0  0
  4 10  1  0  0  0  0
  4  9  1  0  0  0  0
  5  9  1  0  0  0  0
  6  3  1  6  0  0  0
  6  5  1  0  0  0  0
  8  6  1  0  0  0  0
  8  4  1  0  0  0  0
  9  7  2  0  0  0  0
 10 14  1  6  0  0  0
 10 11  1  0  0  0  0
 11 12  2  0  0  0  0
 11 13  1  0  0  0  0
 16 20  2  0  0  0  0
 18 15  1  1  0  0  0
 18 19  1  0  0  0  0
 19 14  1  0  0  0  0
 19 17  2  0  0  0  0
 20 17  1  0  0  0  0
 21 24  2  0  0  0  0
 22 16  1  0  0  0  0
 23 21  1  0  0  0  0
 23 15  2  0  0  0  0
 24 18  1  0  0  0  0
 24 16  1  0  0  0  0
 25 29  1  6  0  0  0
 25  1  1  0  0  0  0
 26 32  1  0  0  0  0
 27 29  1  0  0  0  0
 28 31  2  0  0  0  0
 28 26  1  0  0  0  0
 30 27  1  0  0  0  0
 32 27  2  0  0  0  0
 33 26  1  0  0  0  0
 33 30  2  0  0  0  0
 34 35  1  6  0  0  0
 34 28  1  0  0  0  0
 36 34  1  0  0  0  0
 37 41  1  0  0  0  0
 38 44  2  0  0  0  0
 38 36  1  0  0  0  0
 40 37  2  0  0  0  0
 40 43  1  0  0  0  0
 41 39  1  1  0  0  0
 41 38  1  0  0  0  0
 42 44  1  0  0  0  0
 43 42  2  0  0  0  0
 45 25  1  0  0  0  0
 46 45  1  0  0  0  0
M  END
>  <MODEL>
1

>  <REMARK>
 VINA RESULT:      -7.8      0.000      0.000
  Name = 
  12 active torsions:
  status: ('A' for Active; 'I' for Inactive)
    1  A    between atoms: C_2  and  C_37
    2  A    between atoms: C_4  and  C_17
    3  A    between atoms: N_5  and  C_37
    4  A    between atoms: C_7  and  C_25
    5  A    between atoms: C_7  and  C_37
    6  A    between atoms: C_11  and  S_15
    7  A    between atoms: C_12  and  C_19
    8  A    between atoms: C_13  and  C_21
    9  A    between atoms: S_15  and  C_33
   10  A    between atoms: C_17  and  C_21
   11  A    between atoms: C_19  and  C_28
   12  A    between atoms: C_19  and  C_33
                            x       y       z     vdW  Elec       q    Type
                         _______ _______ _______ _____ _____    ______ ____

>  <TORSDO>
F 12

$$$$
=
 OpenBabel11072411063D

 46 50  0  0  1  0  0  0  0  0999 V2000
  160.2640  209.4950  155.6500 C   0  0  0  0  0  0  0  0  0  0  0  0
  161.4460  209.7800  155.7650 O   0  0  0  0  0  0  0  0  0  0  0  0
  159.7870  208.0350  154.7290 S   0  0  0  0  0  0  0  0  0  0  0  0
  161.8420  207.2420  151.6690 N   0  0  0  0  0  0  0  0  0  0  0  0
  161.8780  206.6120  153.8940 O   0  0  0  0  0  0  0  0  0  0  0  0
  161.3990  207.9510  153.8990 C   0  0  1  0  0  3  0  0  0  0  0  0
  162.5660  205.0870  152.2840 O   0  0  0  0  0  0  0  0  0  0  0  0
  161.2490  208.3450  152.4150 C   0  0  0  0  0  2  0  0  0  0  0  0
  162.1370  206.2280  152.6010 C   0  0  0  0  0  0  0  0  0  0  0  0
  161.7390  207.0390  150.2280 C   0  0  2  0  0  3  0  0  0  0  0  0
  161.9460  208.3260  149.4860 C   0  0  0  0  0  0  0  0  0  0  0  0
  161.7320  208.3960  148.2470 O   0  0  0  0  0  0  0  0  0  0  0  0
  162.3540  209.4580  150.1780 O   0  0  0  0  0  1  0  0  0  0  0  0
  160.4110  206.3750  149.8740 C   0  0  0  0  0  2  0  0  0  0  0  0
  161.2600  205.4800  147.0170 C   0  0  0  0  0  3  0  0  0  0  0  0
  161.0660  202.2530  148.7660 C   0  0  0  0  0  0  0  0  0  0  0  0
  160.4470  203.9220  150.4320 C   0  0  0  0  0  3  0  0  0  0  0  0
  161.0120  204.5950  148.1870 C   0  0  2  0  0  3  0  0  0  0  0  0
  160.6150  204.9470  149.4850 C   0  0  0  0  0  0  0  0  0  0  0  0
  160.6700  202.5800  150.0730 C   0  0  0  0  0  3  0  0  0  0  0  0
  161.6260  203.1550  146.4940 N   0  0  0  0  0  0  0  0  0  0  0  0
  161.3040  200.8330  148.3870 C   0  0  0  0  0  1  0  0  0  0  0  0
  161.6720  204.4940  145.9060 C   0  0  0  0  0  3  0  0  0  0  0  0
  161.2290  203.2910  147.8430 C   0  0  0  0  0  0  0  0  0  0  0  0
  159.2040  210.3370  156.2960 C   0  0  2  0  0  3  0  0  0  0  0  0
  158.7880  212.6290  152.1310 N   0  0  0  0  0  0  0  0  0  0  0  0
  158.7630  211.5560  154.1660 C   0  0  0  0  0  0  0  0  0  0  0  0
  158.3550  213.2540  150.9170 C   0  0  0  0  0  0  0  0  0  0  0  0
  158.3010  210.9740  155.2770 C   0  0  0  0  0  2  0  0  0  0  0  0
  160.2050  211.6830  153.8020 C   0  0  0  0  0  3  0  0  0  0  0  0
  157.1230  213.3610  150.6710 O   0  0  0  0  0  0  0  0  0  0  0  0
  157.8680  212.1500  153.1460 C   0  0  0  0  0  3  0  0  0  0  0  0
  160.1910  212.4040  152.4620 C   0  0  0  0  0  3  0  0  0  0  0  0
  159.3590  213.8130  149.9520 C   0  0  1  0  0  3  0  0  0  0  0  0
  160.2930  212.8440  149.5750 O   0  0  0  0  0  1  0  0  0  0  0  0
  158.7000  214.4520  148.7290 C   0  0  0  0  0  2  0  0  0  0  0  0
  157.9290  212.9140  145.4800 C   0  0  0  0  0  3  0  0  0  0  0  0
  159.1500  213.8500  147.4310 C   0  0  0  0  0  0  0  0  0  0  0  0
  157.3540  212.2960  147.6740 F   0  0  0  0  0  0  0  0  0  0  0  0
  158.7430  213.1780  144.4570 C   0  0  0  0  0  3  0  0  0  0  0  0
  158.4200  212.6640  146.8670 C   0  0  1  0  0  3  0  0  0  0  0  0
  160.8770  213.8280  145.6120 C   0  0  0  0  0  3  0  0  0  0  0  0
  160.2050  213.3540  144.5560 C   0  0  0  0  0  3  0  0  0  0  0  0
  160.2940  214.2820  146.8900 C   0  0  0  0  0  3  0  0  0  0  0  0
  159.8080  211.3690  157.2500 C   0  0  0  0  0  2  0  0  0  0  0  0
  159.0340  212.6010  157.2600 N   0  0  0  0  0  1  0  0  0  0  0  0
  1  2  2  0  0  0  0
  1 25  1  0  0  0  0
  3  1  1  0  0  0  0
  4  8  1  0  0  0  0
  4  9  1  0  0  0  0
  5  6  1  0  0  0  0
  6  3  1  1  0  0  0
  7  9  2  0  0  0  0
  8  6  1  0  0  0  0
  9  5  1  0  0  0  0
 10 14  1  1  0  0  0
 10  4  1  0  0  0  0
 11 13  1  0  0  0  0
 11 10  1  0  0  0  0
 12 11  2  0  0  0  0
 16 20  2  0  0  0  0
 18 15  1  1  0  0  0
 18 19  1  0  0  0  0
 19 14  1  0  0  0  0
 19 17  2  0  0  0  0
 20 17  1  0  0  0  0
 21 24  2  0  0  0  0
 22 16  1  0  0  0  0
 23 21  1  0  0  0  0
 23 15  2  0  0  0  0
 24 18  1  0  0  0  0
 24 16  1  0  0  0  0
 25 29  1  6  0  0  0
 25 45  1  0  0  0  0
 26 33  1  0  0  0  0
 26 32  1  0  0  0  0
 27 29  1  0  0  0  0
 28 26  1  0  0  0  0
 30 27  1  0  0  0  0
 31 28  2  0  0  0  0
 32 27  2  0  0  0  0
 33 30  2  0  0  0  0
 34 35  1  6  0  0  0
 34 28  1  0  0  0  0
 36 34  1  0  0  0  0
 37 41  1  0  0  0  0
 38 36  1  0  0  0  0
 40 43  1  0  0  0  0
 40 37  2  0  0  0  0
 41 38  1  0  0  0  0
 41 39  1  1  0  0  0
 42 44  1  0  0  0  0
 43 42  2  0  0  0  0
 44 38  2  0  0  0  0
 45 46  1  0  0  0  0
M  END
>  <MODEL>
2

>  <REMARK>
 VINA RESULT:      -7.6      4.441      7.522
  Name = 
  12 active torsions:
  status: ('A' for Active; 'I' for Inactive)
    1  A    between atoms: C_2  and  C_37
    2  A    between atoms: C_4  and  C_17
    3  A    between atoms: N_5  and  C_37
    4  A    between atoms: C_7  and  C_25
    5  A    between atoms: C_7  and  C_37
    6  A    between atoms: C_11  and  S_15
    7  A    between atoms: C_12  and  C_19
    8  A    between atoms: C_13  and  C_21
    9  A    between atoms: S_15  and  C_33
   10  A    between atoms: C_17  and  C_21
   11  A    between atoms: C_19  and  C_28
   12  A    between atoms: C_19  and  C_33
                            x       y       z     vdW  Elec       q    Type
                         _______ _______ _______ _____ _____    ______ ____

>  <TORSDO>
F 12

$$$$
=
 OpenBabel11072411063D

 46 50  0  0  1  0  0  0  0  0999 V2000
  161.9310  212.8130  147.7700 C   0  0  0  0  0  0  0  0  0  0  0  0
  163.0760  212.8500  148.1960 O   0  0  0  0  0  0  0  0  0  0  0  0
  161.1080  211.2350  147.5670 S   0  0  0  0  0  0  0  0  0  0  0  0
  161.8210  208.3880  149.9340 N   0  0  0  0  0  0  0  0  0  0  0  0
  161.7320  210.6940  150.1000 O   0  0  0  0  0  0  0  0  0  0  0  0
  162.1980  210.4370  148.7800 C   0  0  1  0  0  3  0  0  0  0  0  0
  161.1120  209.4120  151.9340 O   0  0  0  0  0  0  0  0  0  0  0  0
  162.1430  208.9050  148.6100 C   0  0  0  0  0  2  0  0  0  0  0  0
  161.5320  209.5000  150.7500 C   0  0  0  0  0  0  0  0  0  0  0  0
  161.4360  207.0150  150.2400 C   0  0  2  0  0  3  0  0  0  0  0  0
  162.1980  206.4920  151.4220 C   0  0  0  0  0  0  0  0  0  0  0  0
  163.4360  206.2730  151.3430 O   0  0  0  0  0  0  0  0  0  0  0  0
  161.5360  206.2730  152.6220 O   0  0  0  0  0  1  0  0  0  0  0  0
  161.5980  206.1260  149.0090 C   0  0  0  0  0  2  0  0  0  0  0  0
  161.5250  203.8650  146.8730 C   0  0  0  0  0  3  0  0  0  0  0  0
  160.5930  202.0250  149.9150 C   0  0  0  0  0  0  0  0  0  0  0  0
  160.9090  204.3330  150.6350 C   0  0  0  0  0  3  0  0  0  0  0  0
  161.2230  203.7260  148.3230 C   0  0  2  0  0  3  0  0  0  0  0  0
  161.2280  204.7120  149.3190 C   0  0  0  0  0  0  0  0  0  0  0  0
  160.5920  202.9950  150.9310 C   0  0  0  0  0  3  0  0  0  0  0  0
  160.9750  201.5960  147.4740 N   0  0  0  0  0  0  0  0  0  0  0  0
  160.2600  200.6090  150.2290 C   0  0  0  0  0  1  0  0  0  0  0  0
  161.3570  202.4300  146.3340 C   0  0  0  0  0  3  0  0  0  0  0  0
  160.9160  202.4270  148.6150 C   0  0  0  0  0  0  0  0  0  0  0  0
  161.1920  214.0770  147.4410 C   0  0  2  0  0  3  0  0  0  0  0  0
  158.0540  213.9860  151.0340 N   0  0  0  0  0  0  0  0  0  0  0  0
  159.3890  213.9950  149.1610 C   0  0  0  0  0  0  0  0  0  0  0  0
  156.8990  214.0050  151.8820 C   0  0  0  0  0  0  0  0  0  0  0  0
  159.7550  214.0100  147.8760 C   0  0  0  0  0  2  0  0  0  0  0  0
  160.3300  214.0110  150.3190 C   0  0  0  0  0  3  0  0  0  0  0  0
  155.7470  214.0580  151.3730 O   0  0  0  0  0  0  0  0  0  0  0  0
  157.9710  213.9650  149.5850 C   0  0  0  0  0  3  0  0  0  0  0  0
  159.4210  213.9930  151.5410 C   0  0  0  0  0  3  0  0  0  0  0  0
  157.0530  213.9290  153.3730 C   0  0  1  0  0  3  0  0  0  0  0  0
  155.9330  214.4530  154.0250 O   0  0  0  0  0  1  0  0  0  0  0  0
  157.3610  212.5110  153.8560 C   0  0  0  0  0  2  0  0  0  0  0  0
  159.2960  210.6360  156.3580 C   0  0  0  0  0  3  0  0  0  0  0  0
  158.2160  212.4790  155.0890 C   0  0  0  0  0  0  0  0  0  0  0  0
  157.0460  210.4880  155.6960 F   0  0  0  0  0  0  0  0  0  0  0  0
  160.3870  211.2130  156.8620 C   0  0  0  0  0  3  0  0  0  0  0  0
  158.0290  211.3800  156.0960 C   0  0  1  0  0  3  0  0  0  0  0  0
  159.9360  213.6550  156.4840 C   0  0  0  0  0  3  0  0  0  0  0  0
  160.5360  212.6550  157.1410 C   0  0  0  0  0  3  0  0  0  0  0  0
  159.0110  213.5240  155.3410 C   0  0  0  0  0  3  0  0  0  0  0  0
  161.3260  214.4390  145.9610 C   0  0  0  0  0  2  0  0  0  0  0  0
  160.0950  214.1710  145.2340 N   0  0  0  0  0  1  0  0  0  0  0  0
  1  2  2  0  0  0  0
  3  1  1  0  0  0  0
  4 10  1  0  0  0  0
  4  9  1  0  0  0  0
  5  9  1  0  0  0  0
  6  3  1  6  0  0  0
  6  5  1  0  0  0  0
  8  6  1  0  0  0  0
  8  4  1  0  0  0  0
  9  7  2  0  0  0  0
 10 14  1  6  0  0  0
 10 11  1  0  0  0  0
 11 13  1  0  0  0  0
 12 11  2  0  0  0  0
 14 19  1  0  0  0  0
 16 22  1  0  0  0  0
 16 20  2  0  0  0  0
 17 20  1  0  0  0  0
 18 15  1  1  0  0  0
 18 24  1  0  0  0  0
 18 19  1  0  0  0  0
 19 17  2  0  0  0  0
 21 24  2  0  0  0  0
 23 15  2  0  0  0  0
 23 21  1  0  0  0  0
 24 16  1  0  0  0  0
 25 45  1  6  0  0  0
 25  1  1  0  0  0  0
 25 29  1  0  0  0  0
 26 33  1  0  0  0  0
 26 28  1  0  0  0  0
 27 32  2  0  0  0  0
 27 30  1  0  0  0  0
 28 34  1  0  0  0  0
 29 27  1  0  0  0  0
 30 33  2  0  0  0  0
 31 28  2  0  0  0  0
 32 26  1  0  0  0  0
 34 36  1  0  0  0  0
 34 35  1  1  0  0  0
 36 38  1  0  0  0  0
 37 40  2  0  0  0  0
 38 44  2  0  0  0  0
 38 41  1  0  0  0  0
 40 43  1  0  0  0  0
 41 39  1  6  0  0  0
 41 37  1  0  0  0  0
 42 43  2  0  0  0  0
 44 42  1  0  0  0  0
 46 45  1  0  0  0  0
M  END
>  <MODEL>
3

>  <REMARK>
 VINA RESULT:      -7.0      5.186      9.502
  Name = 
  12 active torsions:
  status: ('A' for Active; 'I' for Inactive)
    1  A    between atoms: C_2  and  C_37
    2  A    between atoms: C_4  and  C_17
    3  A    between atoms: N_5  and  C_37
    4  A    between atoms: C_7  and  C_25
    5  A    between atoms: C_7  and  C_37
    6  A    between atoms: C_11  and  S_15
    7  A    between atoms: C_12  and  C_19
    8  A    between atoms: C_13  and  C_21
    9  A    between atoms: S_15  and  C_33
   10  A    between atoms: C_17  and  C_21
   11  A    between atoms: C_19  and  C_28
   12  A    between atoms: C_19  and  C_33
                            x       y       z     vdW  Elec       q    Type
                         _______ _______ _______ _____ _____    ______ ____

>  <TORSDO>
F 12

$$$$
=
 OpenBabel11072411063D

 46 50  0  0  1  0  0  0  0  0999 V2000
  160.8490  213.8250  149.3850 C   0  0  0  0  0  0  0  0  0  0  0  0
  161.3100  214.4530  150.3260 O   0  0  0  0  0  0  0  0  0  0  0  0
  159.2400  213.0530  149.5350 S   0  0  0  0  0  0  0  0  0  0  0  0
  159.3340  211.9020  153.1250 N   0  0  0  0  0  0  0  0  0  0  0  0
  157.8600  213.1110  151.8130 O   0  0  0  0  0  0  0  0  0  0  0  0
  159.1510  213.4320  151.3090 C   0  0  1  0  0  3  0  0  0  0  0  0
  157.0130  211.7700  153.5090 O   0  0  0  0  0  0  0  0  0  0  0  0
  160.1370  212.5390  152.0890 C   0  0  0  0  0  2  0  0  0  0  0  0
  157.9890  212.2380  152.8660 C   0  0  0  0  0  0  0  0  0  0  0  0
  159.7620  210.7960  153.9740 C   0  0  2  0  0  3  0  0  0  0  0  0
  159.6590  211.1600  155.4250 C   0  0  0  0  0  0  0  0  0  0  0  0
  159.0940  210.3880  156.2440 O   0  0  0  0  0  1  0  0  0  0  0  0
  160.2160  212.3500  155.8750 O   0  0  0  0  0  0  0  0  0  0  0  0
  161.1680  210.3410  153.5910 C   0  0  0  0  0  2  0  0  0  0  0  0
  161.7500  209.3790  150.6900 C   0  0  0  0  0  3  0  0  0  0  0  0
  161.2450  206.1820  152.4310 C   0  0  0  0  0  0  0  0  0  0  0  0
  160.9250  207.8960  154.1350 C   0  0  0  0  0  3  0  0  0  0  0  0
  161.4540  208.5190  151.8670 C   0  0  2  0  0  3  0  0  0  0  0  0
  161.1710  208.9030  153.1850 C   0  0  0  0  0  0  0  0  0  0  0  0
  160.9600  206.5410  153.7590 C   0  0  0  0  0  3  0  0  0  0  0  0
  161.7960  207.0320  150.1370 N   0  0  0  0  0  0  0  0  0  0  0  0
  161.2840  204.7480  152.0330 C   0  0  0  0  0  1  0  0  0  0  0  0
  161.9790  208.3610  149.5540 C   0  0  0  0  0  3  0  0  0  0  0  0
  161.4890  207.2020  151.5060 C   0  0  0  0  0  0  0  0  0  0  0  0
  161.6000  213.7160  148.0910 C   0  0  2  0  0  3  0  0  0  0  0  0
  161.0960  212.5810  143.4830 N   0  0  0  0  0  0  0  0  0  0  0  0
  161.1300  213.0380  145.7370 C   0  0  0  0  0  0  0  0  0  0  0  0
  160.7140  212.0500  142.2080 C   0  0  0  0  0  0  0  0  0  0  0  0
  160.7800  213.0420  147.0270 C   0  0  0  0  0  2  0  0  0  0  0  0
  162.3380  213.7120  145.1770 C   0  0  0  0  0  3  0  0  0  0  0  0
  159.7070  211.2970  142.1180 O   0  0  0  0  0  0  0  0  0  0  0  0
  160.3380  212.3410  144.6980 C   0  0  0  0  0  3  0  0  0  0  0  0
  162.2830  213.4030  143.6880 C   0  0  0  0  0  3  0  0  0  0  0  0
  161.4870  212.4140  140.9740 C   0  0  1  0  0  3  0  0  0  0  0  0
  162.4300  211.4320  140.6590 O   0  0  0  0  0  1  0  0  0  0  0  0
  160.5760  212.7100  139.7820 C   0  0  0  0  0  2  0  0  0  0  0  0
  162.3770  210.5200  137.4400 C   0  0  0  0  0  3  0  0  0  0  0  0
  160.5760  211.6180  138.7520 C   0  0  0  0  0  0  0  0  0  0  0  0
  162.2670  212.8620  137.6150 F   0  0  0  0  0  0  0  0  0  0  0  0
  161.9110  209.2840  137.2600 C   0  0  0  0  0  3  0  0  0  0  0  0
  161.4900  211.7140  137.5640 C   0  0  1  0  0  3  0  0  0  0  0  0
  159.5010  209.5060  137.9300 C   0  0  0  0  0  3  0  0  0  0  0  0
  160.4850  208.9040  137.2520 C   0  0  0  0  0  3  0  0  0  0  0  0
  159.6400  210.6670  138.8330 C   0  0  0  0  0  3  0  0  0  0  0  0
  162.9580  213.0390  148.2830 C   0  0  0  0  0  2  0  0  0  0  0  0
  162.8930  211.6200  147.9690 N   0  0  0  0  0  1  0  0  0  0  0  0
  1  3  1  0  0  0  0
  1  2  2  0  0  0  0
  4 10  1  0  0  0  0
  5  9  1  0  0  0  0
  6  3  1  6  0  0  0
  6  5  1  0  0  0  0
  6  8  1  0  0  0  0
  8  4  1  0  0  0  0
  9  4  1  0  0  0  0
  9  7  2  0  0  0  0
 10 14  1  6  0  0  0
 10 11  1  0  0  0  0
 11 13  2  0  0  0  0
 11 12  1  0  0  0  0
 16 20  2  0  0  0  0
 18 15  1  1  0  0  0
 18 19  1  0  0  0  0
 19 14  1  0  0  0  0
 19 17  2  0  0  0  0
 20 17  1  0  0  0  0
 21 24  2  0  0  0  0
 22 16  1  0  0  0  0
 23 21  1  0  0  0  0
 23 15  2  0  0  0  0
 24 18  1  0  0  0  0
 24 16  1  0  0  0  0
 25 29  1  6  0  0  0
 25 45  1  0  0  0  0
 25  1  1  0  0  0  0
 26 33  1  0  0  0  0
 26 32  1  0  0  0  0
 27 29  1  0  0  0  0
 28 26  1  0  0  0  0
 30 27  1  0  0  0  0
 31 28  2  0  0  0  0
 32 27  2  0  0  0  0
 33 30  2  0  0  0  0
 34 35  1  6  0  0  0
 34 28  1  0  0  0  0
 36 34  1  0  0  0  0
 37 41  1  0  0  0  0
 38 44  2  0  0  0  0
 38 36  1  0  0  0  0
 40 37  2  0  0  0  0
 41 39  1  1  0  0  0
 41 38  1  0  0  0  0
 42 44  1  0  0  0  0
 43 40  1  0  0  0  0
 43 42  2  0  0  0  0
 46 45  1  0  0  0  0
M  END
>  <MODEL>
4

>  <REMARK>
 VINA RESULT:      -6.8      1.684      2.211
  Name = 
  12 active torsions:
  status: ('A' for Active; 'I' for Inactive)
    1  A    between atoms: C_2  and  C_37
    2  A    between atoms: C_4  and  C_17
    3  A    between atoms: N_5  and  C_37
    4  A    between atoms: C_7  and  C_25
    5  A    between atoms: C_7  and  C_37
    6  A    between atoms: C_11  and  S_15
    7  A    between atoms: C_12  and  C_19
    8  A    between atoms: C_13  and  C_21
    9  A    between atoms: S_15  and  C_33
   10  A    between atoms: C_17  and  C_21
   11  A    between atoms: C_19  and  C_28
   12  A    between atoms: C_19  and  C_33
                            x       y       z     vdW  Elec       q    Type
                         _______ _______ _______ _____ _____    ______ ____

>  <TORSDO>
F 12

$$$$
=
 OpenBabel11072411063D

 46 50  0  0  1  0  0  0  0  0999 V2000
  161.0080  209.0940  154.2610 C   0  0  0  0  0  0  0  0  0  0  0  0
  160.0750  208.9810  153.4810 O   0  0  0  0  0  0  0  0  0  0  0  0
  161.6930  210.7140  154.5980 S   0  0  0  0  0  0  0  0  0  0  0  0
  158.5500  212.7110  155.1850 N   0  0  0  0  0  0  0  0  0  0  0  0
  160.5440  212.3960  156.3140 O   0  0  0  0  0  0  0  0  0  0  0  0
  160.2910  211.1580  155.6620 C   0  0  1  0  0  3  0  0  0  0  0  0
  159.4780  214.4530  156.4700 O   0  0  0  0  0  0  0  0  0  0  0  0
  159.0300  211.3890  154.8030 C   0  0  0  0  0  2  0  0  0  0  0  0
  159.5240  213.2720  156.0360 C   0  0  0  0  0  0  0  0  0  0  0  0
  157.5170  213.4740  154.4920 C   0  0  2  0  0  3  0  0  0  0  0  0
  156.3500  213.7440  155.3940 C   0  0  0  0  0  0  0  0  0  0  0  0
  155.3020  214.2810  154.9470 O   0  0  0  0  0  0  0  0  0  0  0  0
  156.4160  213.3730  156.7300 O   0  0  0  0  0  1  0  0  0  0  0  0
  157.1020  212.7650  153.2050 C   0  0  0  0  0  2  0  0  0  0  0  0
  156.0050  213.6800  150.4410 C   0  0  0  0  0  3  0  0  0  0  0  0
  159.6300  214.0040  149.9310 C   0  0  2  0  0  3  0  0  0  0  0  0
  159.3770  213.1770  152.2100 C   0  0  0  0  0  3  0  0  0  0  0  0
  157.4350  213.5900  150.8430 C   0  0  0  0  0  0  0  0  0  0  0  0
  157.9780  213.1710  152.0650 C   0  0  0  0  0  0  0  0  0  0  0  0
  160.1990  213.5900  151.1470 C   0  0  0  0  0  3  0  0  0  0  0  0
  157.4920  214.3780  148.6760 N   0  0  0  0  0  0  0  0  0  0  0  0
  160.5010  214.4440  148.8060 C   0  0  0  0  0  1  0  0  0  0  0  0
  156.0740  214.2130  148.9950 C   0  0  0  0  0  3  0  0  0  0  0  0
  158.2370  213.9920  149.8120 C   0  0  0  0  0  0  0  0  0  0  0  0
  161.5720  207.8950  154.9650 C   0  0  2  0  0  3  0  0  0  0  0  0
  161.1910  204.3110  151.8380 N   0  0  0  0  0  0  0  0  0  0  0  0
  161.1870  205.9540  153.4480 C   0  0  0  0  0  0  0  0  0  0  0  0
  160.8880  203.1080  151.1200 C   0  0  0  0  0  0  0  0  0  0  0  0
  160.8710  206.6300  154.5570 C   0  0  0  0  0  2  0  0  0  0  0  0
  162.2340  206.3630  152.4660 C   0  0  0  0  0  3  0  0  0  0  0  0
  160.0400  202.2980  151.5820 O   0  0  0  0  0  0  0  0  0  0  0  0
  160.5190  204.6880  153.0670 C   0  0  0  0  0  3  0  0  0  0  0  0
  162.2060  205.2670  151.4090 C   0  0  0  0  0  3  0  0  0  0  0  0
  161.5520  202.8240  149.8040 C   0  0  1  0  0  3  0  0  0  0  0  0
  162.1840  201.5770  149.8140 O   0  0  0  0  0  1  0  0  0  0  0  0
  160.5860  202.9450  148.6250 C   0  0  0  0  0  2  0  0  0  0  0  0
  160.7840  203.5230  145.0000 C   0  0  0  0  0  3  0  0  0  0  0  0
  161.1740  203.6670  147.4490 C   0  0  0  0  0  0  0  0  0  0  0  0
  161.0940  201.5820  146.2890 F   0  0  0  0  0  0  0  0  0  0  0  0
  161.0290  204.7640  144.5800 C   0  0  0  0  0  3  0  0  0  0  0  0
  161.4630  202.9140  146.1810 C   0  0  1  0  0  3  0  0  0  0  0  0
  162.1560  205.8010  146.5710 C   0  0  0  0  0  3  0  0  0  0  0  0
  161.9140  205.7330  145.2560 C   0  0  0  0  0  3  0  0  0  0  0  0
  161.5810  204.9300  147.6150 C   0  0  0  0  0  3  0  0  0  0  0  0
  161.5740  208.0830  156.4830 C   0  0  0  0  0  2  0  0  0  0  0  0
  160.2710  207.7850  157.0580 N   0  0  0  0  0  1  0  0  0  0  0  0
  1  3  1  0  0  0  0
  1 25  1  0  0  0  0
  2  1  2  0  0  0  0
  4  9  1  0  0  0  0
  6  3  1  6  0  0  0
  6  5  1  0  0  0  0
  8  4  1  0  0  0  0
  8  6  1  0  0  0  0
  9  5  1  0  0  0  0
  9  7  2  0  0  0  0
 10 14  1  6  0  0  0
 10  4  1  0  0  0  0
 10 11  1  0  0  0  0
 11 13  1  0  0  0  0
 12 11  2  0  0  0  0
 15 18  1  0  0  0  0
 16 22  1  1  0  0  0
 16 20  1  0  0  0  0
 18 19  2  0  0  0  0
 19 17  1  0  0  0  0
 19 14  1  0  0  0  0
 20 17  2  0  0  0  0
 21 23  1  0  0  0  0
 21 24  2  0  0  0  0
 23 15  2  0  0  0  0
 24 16  1  0  0  0  0
 24 18  1  0  0  0  0
 25 29  1  1  0  0  0
 25 45  1  0  0  0  0
 26 32  1  0  0  0  0
 27 29  1  0  0  0  0
 28 31  2  0  0  0  0
 28 26  1  0  0  0  0
 30 27  1  0  0  0  0
 32 27  2  0  0  0  0
 33 26  1  0  0  0  0
 33 30  2  0  0  0  0
 34 35  1  1  0  0  0
 34 28  1  0  0  0  0
 36 34  1  0  0  0  0
 37 41  1  0  0  0  0
 38 44  2  0  0  0  0
 38 36  1  0  0  0  0
 40 37  2  0  0  0  0
 40 43  1  0  0  0  0
 41 39  1  1  0  0  0
 41 38  1  0  0  0  0
 42 44  1  0  0  0  0
 43 42  2  0  0  0  0
 45 46  1  0  0  0  0
M  END
>  <MODEL>
5

>  <REMARK>
 VINA RESULT:      -6.1      5.701      9.359
  Name = 
  12 active torsions:
  status: ('A' for Active; 'I' for Inactive)
    1  A    between atoms: C_2  and  C_37
    2  A    between atoms: C_4  and  C_17
    3  A    between atoms: N_5  and  C_37
    4  A    between atoms: C_7  and  C_25
    5  A    between atoms: C_7  and  C_37
    6  A    between atoms: C_11  and  S_15
    7  A    between atoms: C_12  and  C_19
    8  A    between atoms: C_13  and  C_21
    9  A    between atoms: S_15  and  C_33
   10  A    between atoms: C_17  and  C_21
   11  A    between atoms: C_19  and  C_28
   12  A    between atoms: C_19  and  C_33
                            x       y       z     vdW  Elec       q    Type
                         _______ _______ _______ _____ _____    ______ ____

>  <TORSDO>
F 12

$$$$
=
 OpenBabel11072411063D

 46 50  0  0  1  0  0  0  0  0999 V2000
  160.9420  208.1060  154.8130 C   0  0  0  0  0  0  0  0  0  0  0  0
  160.1510  207.7750  155.6830 O   0  0  0  0  0  0  0  0  0  0  0  0
  161.9220  206.8570  153.9820 S   0  0  0  0  0  0  0  0  0  0  0  0
  160.6300  204.9510  150.9960 N   0  0  0  0  0  0  0  0  0  0  0  0
  160.9370  207.1820  151.5280 O   0  0  0  0  0  0  0  0  0  0  0  0
  160.6130  206.5500  152.7610 C   0  0  1  0  0  3  0  0  0  0  0  0
  161.1880  206.5090  149.3200 O   0  0  0  0  0  0  0  0  0  0  0  0
  160.5290  205.0420  152.4470 C   0  0  0  0  0  2  0  0  0  0  0  0
  160.9290  206.2450  150.5230 C   0  0  0  0  0  0  0  0  0  0  0  0
  160.8280  203.7240  150.2330 C   0  0  2  0  0  3  0  0  0  0  0  0
  161.3530  202.6240  151.1080 C   0  0  0  0  0  0  0  0  0  0  0  0
  162.4100  202.7810  151.7730 O   0  0  0  0  0  1  0  0  0  0  0  0
  160.6500  201.4310  151.2040 O   0  0  0  0  0  0  0  0  0  0  0  0
  161.7290  203.9830  149.0280 C   0  0  0  0  0  2  0  0  0  0  0  0
  161.4230  205.2440  146.2000 C   0  0  0  0  0  3  0  0  0  0  0  0
  160.4240  201.7660  145.5600 C   0  0  2  0  0  3  0  0  0  0  0  0
  160.9410  201.8550  147.9410 C   0  0  0  0  0  3  0  0  0  0  0  0
  161.1470  203.8310  146.5760 C   0  0  0  0  0  0  0  0  0  0  0  0
  161.2550  203.2210  147.8330 C   0  0  0  0  0  0  0  0  0  0  0  0
  160.5250  201.1310  146.8090 C   0  0  0  0  0  3  0  0  0  0  0  0
  160.7100  203.9230  144.3140 N   0  0  0  0  0  0  0  0  0  0  0  0
  159.9870  200.9990  144.3610 C   0  0  0  0  0  1  0  0  0  0  0  0
  161.1270  205.2740  144.6870 C   0  0  0  0  0  3  0  0  0  0  0  0
  160.7450  203.1240  145.4780 C   0  0  0  0  0  0  0  0  0  0  0  0
  161.0840  209.5430  154.4080 C   0  0  2  0  0  3  0  0  0  0  0  0
  161.3190  211.8380  150.2300 N   0  0  0  0  0  0  0  0  0  0  0  0
  161.3620  210.5870  152.1600 C   0  0  0  0  0  0  0  0  0  0  0  0
  161.6610  212.3660  148.9430 C   0  0  0  0  0  0  0  0  0  0  0  0
  161.7440  209.6800  153.0650 C   0  0  0  0  0  2  0  0  0  0  0  0
  160.2350  211.5490  152.3370 C   0  0  0  0  0  3  0  0  0  0  0  0
  162.6590  211.9100  148.3220 O   0  0  0  0  0  0  0  0  0  0  0  0
  162.0390  210.7420  150.8520 C   0  0  0  0  0  3  0  0  0  0  0  0
  160.2230  212.3530  151.0440 C   0  0  0  0  0  3  0  0  0  0  0  0
  160.8170  213.4360  148.3140 C   0  0  1  0  0  3  0  0  0  0  0  0
  160.3710  214.3550  149.2680 O   0  0  0  0  0  1  0  0  0  0  0  0
  161.5310  214.1390  147.1590 C   0  0  0  0  0  2  0  0  0  0  0  0
  161.7420  212.7740  143.7520 C   0  0  0  0  0  3  0  0  0  0  0  0
  160.9080  213.8640  145.8230 C   0  0  0  0  0  0  0  0  0  0  0  0
  163.0280  214.3980  144.8640 F   0  0  0  0  0  0  0  0  0  0  0  0
  160.6420  212.2340  143.2280 C   0  0  0  0  0  3  0  0  0  0  0  0
  161.7260  214.0210  144.5720 C   0  0  1  0  0  3  0  0  0  0  0  0
  158.8110  213.3330  144.5510 C   0  0  0  0  0  3  0  0  0  0  0  0
  159.2660  212.7180  143.4530 C   0  0  0  0  0  3  0  0  0  0  0  0
  159.5900  213.6450  145.7670 C   0  0  0  0  0  3  0  0  0  0  0  0
  161.7990  210.3630  155.4830 C   0  0  0  0  0  2  0  0  0  0  0  0
  160.8550  210.9370  156.4300 N   0  0  0  0  0  1  0  0  0  0  0  0
  1  2  2  0  0  0  0
  3  1  1  0  0  0  0
  4  8  1  0  0  0  0
  5  6  1  0  0  0  0
  6  3  1  1  0  0  0
  7  9  2  0  0  0  0
  8  6  1  0  0  0  0
  9  4  1  0  0  0  0
  9  5  1  0  0  0  0
 10 14  1  6  0  0  0
 10  4  1  0  0  0  0
 10 11  1  0  0  0  0
 11 13  2  0  0  0  0
 11 12  1  0  0  0  0
 15 18  1  0  0  0  0
 16 22  1  6  0  0  0
 16 20  1  0  0  0  0
 18 19  2  0  0  0  0
 19 17  1  0  0  0  0
 19 14  1  0  0  0  0
 20 17  2  0  0  0  0
 21 23  1  0  0  0  0
 21 24  2  0  0  0  0
 23 15  2  0  0  0  0
 24 16  1  0  0  0  0
 24 18  1  0  0  0  0
 25 29  1  6  0  0  0
 25  1  1  0  0  0  0
 25 45  1  0  0  0  0
 26 32  1  0  0  0  0
 26 33  1  0  0  0  0
 27 30  1  0  0  0  0
 27 29  1  0  0  0  0
 28 26  1  0  0  0  0
 31 28  2  0  0  0  0
 32 27  2  0  0  0  0
 33 30  2  0  0  0  0
 34 28  1  0  0  0  0
 34 35  1  1  0  0  0
 36 34  1  0  0  0  0
 37 41  1  0  0  0  0
 38 36  1  0  0  0  0
 40 43  1  0  0  0  0
 40 37  2  0  0  0  0
 41 39  1  1  0  0  0
 41 38  1  0  0  0  0
 42 44  1  0  0  0  0
 43 42  2  0  0  0  0
 44 38  2  0  0  0  0
 45 46  1  0  0  0  0
M  END
>  <MODEL>
6

>  <REMARK>
 VINA RESULT:      -5.7      3.739      7.212
  Name = 
  12 active torsions:
  status: ('A' for Active; 'I' for Inactive)
    1  A    between atoms: C_2  and  C_37
    2  A    between atoms: C_4  and  C_17
    3  A    between atoms: N_5  and  C_37
    4  A    between atoms: C_7  and  C_25
    5  A    between atoms: C_7  and  C_37
    6  A    between atoms: C_11  and  S_15
    7  A    between atoms: C_12  and  C_19
    8  A    between atoms: C_13  and  C_21
    9  A    between atoms: S_15  and  C_33
   10  A    between atoms: C_17  and  C_21
   11  A    between atoms: C_19  and  C_28
   12  A    between atoms: C_19  and  C_33
                            x       y       z     vdW  Elec       q    Type
                         _______ _______ _______ _____ _____    ______ ____

>  <TORSDO>
F 12

$$$$
=
 OpenBabel11072411063D

 46 50  0  0  1  0  0  0  0  0999 V2000
  161.3030  207.1590  154.0480 C   0  0  0  0  0  0  0  0  0  0  0  0
  160.7300  206.6620  155.0050 O   0  0  0  0  0  0  0  0  0  0  0  0
  162.2400  206.1150  152.9330 S   0  0  0  0  0  0  0  0  0  0  0  0
  160.5840  204.1220  150.1950 N   0  0  0  0  0  0  0  0  0  0  0  0
  160.4590  206.3010  150.9610 O   0  0  0  0  0  0  0  0  0  0  0  0
  160.7320  205.5190  152.1180 C   0  0  1  0  0  3  0  0  0  0  0  0
  160.1390  205.8870  148.6990 O   0  0  0  0  0  0  0  0  0  0  0  0
  160.9430  204.0790  151.6070 C   0  0  0  0  0  2  0  0  0  0  0  0
  160.3660  205.4760  149.8680 C   0  0  0  0  0  0  0  0  0  0  0  0
  160.8320  203.0640  149.2220 C   0  0  2  0  0  3  0  0  0  0  0  0
  160.7350  201.7110  149.8600 C   0  0  0  0  0  0  0  0  0  0  0  0
  159.6270  201.2680  150.2640 O   0  0  0  0  0  1  0  0  0  0  0  0
  161.8740  200.9270  149.9840 O   0  0  0  0  0  0  0  0  0  0  0  0
  162.1750  203.2800  148.5280 C   0  0  0  0  0  2  0  0  0  0  0  0
  160.4810  201.9870  146.2610 C   0  0  0  0  0  3  0  0  0  0  0  0
  161.5740  205.1100  144.6630 C   0  0  2  0  0  3  0  0  0  0  0  0
  162.5690  205.1490  146.8880 C   0  0  0  0  0  3  0  0  0  0  0  0
  161.2010  203.2870  146.1990 C   0  0  0  0  0  0  0  0  0  0  0  0
  161.9870  203.9030  147.1830 C   0  0  0  0  0  0  0  0  0  0  0  0
  162.3650  205.7490  145.6330 C   0  0  0  0  0  3  0  0  0  0  0  0
  160.1800  203.0930  144.1400 N   0  0  0  0  0  0  0  0  0  0  0  0
  161.3560  205.7460  143.3350 C   0  0  0  0  0  1  0  0  0  0  0  0
  159.8060  201.8860  144.8780 C   0  0  0  0  0  3  0  0  0  0  0  0
  161.0040  203.8730  144.9810 C   0  0  0  0  0  0  0  0  0  0  0  0
  161.2090  208.6310  153.7740 C   0  0  2  0  0  3  0  0  0  0  0  0
  161.5420  211.6010  150.0540 N   0  0  0  0  0  0  0  0  0  0  0  0
  161.5460  210.0440  151.7470 C   0  0  0  0  0  0  0  0  0  0  0  0
  161.9190  212.3450  148.8890 C   0  0  0  0  0  0  0  0  0  0  0  0
  161.9180  209.0060  152.5030 C   0  0  0  0  0  2  0  0  0  0  0  0
  160.3840  210.9370  152.0320 C   0  0  0  0  0  3  0  0  0  0  0  0
  162.9540  212.0230  148.2450 O   0  0  0  0  0  0  0  0  0  0  0  0
  162.2690  210.4320  150.5140 C   0  0  0  0  0  3  0  0  0  0  0  0
  160.4000  211.9470  150.8920 C   0  0  0  0  0  3  0  0  0  0  0  0
  161.0690  213.4870  148.4110 C   0  0  1  0  0  3  0  0  0  0  0  0
  161.8390  214.4530  147.7580 O   0  0  0  0  0  1  0  0  0  0  0  0
  159.9050  213.0210  147.5360 C   0  0  0  0  0  2  0  0  0  0  0  0
  158.7990  213.6110  144.0790 C   0  0  0  0  0  3  0  0  0  0  0  0
  160.2000  213.1020  146.0670 C   0  0  0  0  0  0  0  0  0  0  0  0
  158.0690  212.0850  145.7110 F   0  0  0  0  0  0  0  0  0  0  0  0
  159.6610  214.1840  143.2390 C   0  0  0  0  0  3  0  0  0  0  0  0
  159.2000  212.5760  145.0760 C   0  0  1  0  0  3  0  0  0  0  0  0
  161.8810  213.6530  144.2890 C   0  0  0  0  0  3  0  0  0  0  0  0
  161.1200  213.9580  143.2310 C   0  0  0  0  0  3  0  0  0  0  0  0
  161.4200  213.4900  145.6820 C   0  0  0  0  0  3  0  0  0  0  0  0
  161.6950  209.4570  154.9660 C   0  0  0  0  0  2  0  0  0  0  0  0
  160.7780  209.3570  156.0910 N   0  0  0  0  0  1  0  0  0  0  0  0
  1  2  2  0  0  0  0
  3  1  1  0  0  0  0
  4  8  1  0  0  0  0
  5  6  1  0  0  0  0
  6  3  1  6  0  0  0
  7  9  2  0  0  0  0
  8  6  1  0  0  0  0
  9  4  1  0  0  0  0
  9  5  1  0  0  0  0
 10 14  1  1  0  0  0
 10 11  1  0  0  0  0
 10  4  1  0  0  0  0
 11 13  2  0  0  0  0
 11 12  1  0  0  0  0
 16 22  1  1  0  0  0
 16 24  1  0  0  0  0
 16 20  1  0  0  0  0
 17 19  1  0  0  0  0
 18 15  1  0  0  0  0
 18 19  2  0  0  0  0
 19 14  1  0  0  0  0
 20 17  2  0  0  0  0
 21 23  1  0  0  0  0
 21 24  2  0  0  0  0
 23 15  2  0  0  0  0
 24 18  1  0  0  0  0
 25 29  1  6  0  0  0
 25  1  1  0  0  0  0
 25 45  1  0  0  0  0
 26 32  1  0  0  0  0
 26 33  1  0  0  0  0
 27 30  1  0  0  0  0
 27 29  1  0  0  0  0
 28 26  1  0  0  0  0
 31 28  2  0  0  0  0
 32 27  2  0  0  0  0
 33 30  2  0  0  0  0
 34 35  1  6  0  0  0
 34 28  1  0  0  0  0
 36 34  1  0  0  0  0
 37 41  1  0  0  0  0
 38 36  1  0  0  0  0
 40 37  2  0  0  0  0
 41 39  1  1  0  0  0
 41 38  1  0  0  0  0
 42 44  1  0  0  0  0
 43 40  1  0  0  0  0
 43 42  2  0  0  0  0
 44 38  2  0  0  0  0
 45 46  1  0  0  0  0
M  END
>  <MODEL>
7

>  <REMARK>
 VINA RESULT:      -5.6      4.034      7.681
  Name = 
  12 active torsions:
  status: ('A' for Active; 'I' for Inactive)
    1  A    between atoms: C_2  and  C_37
    2  A    between atoms: C_4  and  C_17
    3  A    between atoms: N_5  and  C_37
    4  A    between atoms: C_7  and  C_25
    5  A    between atoms: C_7  and  C_37
    6  A    between atoms: C_11  and  S_15
    7  A    between atoms: C_12  and  C_19
    8  A    between atoms: C_13  and  C_21
    9  A    between atoms: S_15  and  C_33
   10  A    between atoms: C_17  and  C_21
   11  A    between atoms: C_19  and  C_28
   12  A    between atoms: C_19  and  C_33
                            x       y       z     vdW  Elec       q    Type
                         _______ _______ _______ _____ _____    ______ ____

>  <TORSDO>
F 12

$$$$
=
 OpenBabel11072411063D

 46 50  0  0  1  0  0  0  0  0999 V2000
  161.1360  213.1820  148.7490 C   0  0  0  0  0  0  0  0  0  0  0  0
  162.2710  213.5300  149.0420 O   0  0  0  0  0  0  0  0  0  0  0  0
  160.8720  211.6140  147.9240 S   0  0  0  0  0  0  0  0  0  0  0  0
  161.8520  208.5700  149.9220 N   0  0  0  0  0  0  0  0  0  0  0  0
  161.5900  210.8260  150.3650 O   0  0  0  0  0  0  0  0  0  0  0  0
  162.0460  210.7650  149.0190 C   0  0  1  0  0  3  0  0  0  0  0  0
  161.1110  209.2900  152.0400 O   0  0  0  0  0  0  0  0  0  0  0  0
  162.1060  209.2650  148.6660 C   0  0  0  0  0  2  0  0  0  0  0  0
  161.4970  209.5520  150.8700 C   0  0  0  0  0  0  0  0  0  0  0  0
  161.5810  207.1440  150.0660 C   0  0  2  0  0  3  0  0  0  0  0  0
  161.8810  206.6760  151.4590 C   0  0  0  0  0  0  0  0  0  0  0  0
  163.0640  206.4360  151.8170 O   0  0  0  0  0  0  0  0  0  0  0  0
  160.8440  206.5320  152.3710 O   0  0  0  0  0  1  0  0  0  0  0  0
  162.3440  206.3460  149.0120 C   0  0  0  0  0  2  0  0  0  0  0  0
  162.0360  204.9320  146.2570 C   0  0  0  0  0  3  0  0  0  0  0  0
  160.7080  202.3770  148.5400 C   0  0  0  0  0  0  0  0  0  0  0  0
  161.3260  204.2520  149.9700 C   0  0  0  0  0  3  0  0  0  0  0  0
  161.6520  204.3820  147.5850 C   0  0  2  0  0  3  0  0  0  0  0  0
  161.7560  204.9820  148.8470 C   0  0  0  0  0  0  0  0  0  0  0  0
  160.8030  202.9560  149.8160 C   0  0  0  0  0  3  0  0  0  0  0  0
  161.1330  202.7030  146.0910 N   0  0  0  0  0  0  0  0  0  0  0  0
  160.1560  201.0040  148.3780 C   0  0  0  0  0  1  0  0  0  0  0  0
  161.6840  203.7910  145.2820 C   0  0  0  0  0  3  0  0  0  0  0  0
  161.1450  203.1210  147.4400 C   0  0  0  0  0  0  0  0  0  0  0  0
  159.9550  214.0380  149.0990 C   0  0  2  0  0  3  0  0  0  0  0  0
  158.8240  212.9620  153.6080 N   0  0  0  0  0  0  0  0  0  0  0  0
  159.4370  213.6850  151.5130 C   0  0  0  0  0  0  0  0  0  0  0  0
  158.6700  212.8850  155.0310 C   0  0  0  0  0  0  0  0  0  0  0  0
  159.9700  214.4410  150.5470 C   0  0  0  0  0  2  0  0  0  0  0  0
  158.7420  212.3830  151.2950 C   0  0  0  0  0  3  0  0  0  0  0  0
  159.1680  213.7810  155.7650 O   0  0  0  0  0  0  0  0  0  0  0  0
  159.4850  214.0680  152.9430 C   0  0  0  0  0  3  0  0  0  0  0  0
  158.3380  211.9350  152.6930 C   0  0  0  0  0  3  0  0  0  0  0  0
  157.8920  211.7610  155.6500 C   0  0  1  0  0  3  0  0  0  0  0  0
  157.7010  210.7170  154.7420 O   0  0  0  0  0  1  0  0  0  0  0  0
  158.5250  211.2590  156.9480 C   0  0  0  0  0  2  0  0  0  0  0  0
  161.1500  209.5100  155.0570 C   0  0  0  0  0  3  0  0  0  0  0  0
  159.9570  210.8390  156.7840 C   0  0  0  0  0  0  0  0  0  0  0  0
  159.1220  208.7540  155.9750 F   0  0  0  0  0  0  0  0  0  0  0  0
  162.3760  210.0320  155.0660 C   0  0  0  0  0  3  0  0  0  0  0  0
  160.2760  209.4650  156.2660 C   0  0  1  0  0  3  0  0  0  0  0  0
  162.3690  211.4070  157.1680 C   0  0  0  0  0  3  0  0  0  0  0  0
  163.0040  210.7140  156.2140 C   0  0  0  0  0  3  0  0  0  0  0  0
  160.9140  211.6410  157.2610 C   0  0  0  0  0  3  0  0  0  0  0  0
  158.6380  213.3690  148.7040 C   0  0  0  0  0  2  0  0  0  0  0  0
  157.6180  214.3540  148.3780 N   0  0  0  0  0  1  0  0  0  0  0  0
  1  2  2  0  0  0  0
  1 25  1  0  0  0  0
  3  1  1  0  0  0  0
  4 10  1  0  0  0  0
  4  9  1  0  0  0  0
  5  9  1  0  0  0  0
  6  3  1  6  0  0  0
  6  5  1  0  0  0  0
  8  6  1  0  0  0  0
  8  4  1  0  0  0  0
  9  7  2  0  0  0  0
 10 14  1  6  0  0  0
 10 11  1  0  0  0  0
 11 12  2  0  0  0  0
 11 13  1  0  0  0  0
 16 20  2  0  0  0  0
 18 15  1  1  0  0  0
 18 19  1  0  0  0  0
 19 14  1  0  0  0  0
 19 17  2  0  0  0  0
 20 17  1  0  0  0  0
 21 24  2  0  0  0  0
 22 16  1  0  0  0  0
 23 21  1  0  0  0  0
 23 15  2  0  0  0  0
 24 18  1  0  0  0  0
 24 16  1  0  0  0  0
 25 45  1  1  0  0  0
 25 29  1  0  0  0  0
 26 28  1  0  0  0  0
 27 32  2  0  0  0  0
 28 34  1  0  0  0  0
 28 31  2  0  0  0  0
 29 27  1  0  0  0  0
 30 27  1  0  0  0  0
 30 33  2  0  0  0  0
 32 26  1  0  0  0  0
 33 26  1  0  0  0  0
 34 35  1  6  0  0  0
 34 36  1  0  0  0  0
 37 40  2  0  0  0  0
 37 41  1  0  0  0  0
 38 36  1  0  0  0  0
 38 44  2  0  0  0  0
 40 43  1  0  0  0  0
 41 39  1  6  0  0  0
 41 38  1  0  0  0  0
 42 44  1  0  0  0  0
 43 42  2  0  0  0  0
 46 45  1  0  0  0  0
M  END
>  <MODEL>
8

>  <REMARK>
 VINA RESULT:      -5.0      5.623      9.850
  Name = 
  12 active torsions:
  status: ('A' for Active; 'I' for Inactive)
    1  A    between atoms: C_2  and  C_37
    2  A    between atoms: C_4  and  C_17
    3  A    between atoms: N_5  and  C_37
    4  A    between atoms: C_7  and  C_25
    5  A    between atoms: C_7  and  C_37
    6  A    between atoms: C_11  and  S_15
    7  A    between atoms: C_12  and  C_19
    8  A    between atoms: C_13  and  C_21
    9  A    between atoms: S_15  and  C_33
   10  A    between atoms: C_17  and  C_21
   11  A    between atoms: C_19  and  C_28
   12  A    between atoms: C_19  and  C_33
                            x       y       z     vdW  Elec       q    Type
                         _______ _______ _______ _____ _____    ______ ____

>  <TORSDO>
F 12

$$$$
=
 OpenBabel11072411063D

 46 50  0  0  1  0  0  0  0  0999 V2000
  160.1190  213.4160  149.5540 C   0  0  0  0  0  0  0  0  0  0  0  0
  160.6810  213.2400  150.6240 O   0  0  0  0  0  0  0  0  0  0  0  0
  158.3350  213.5700  149.5020 S   0  0  0  0  0  0  0  0  0  0  0  0
  158.4110  213.0980  153.2420 N   0  0  0  0  0  0  0  0  0  0  0  0
  156.9820  214.1120  151.7310 O   0  0  0  0  0  0  0  0  0  0  0  0
  158.2810  214.2730  151.1750 C   0  0  1  0  0  3  0  0  0  0  0  0
  156.0910  213.1490  153.6470 O   0  0  0  0  0  0  0  0  0  0  0  0
  159.2330  213.4940  152.1050 C   0  0  0  0  0  2  0  0  0  0  0  0
  157.0810  213.4430  152.9270 C   0  0  0  0  0  0  0  0  0  0  0  0
  158.7960  212.1490  154.2810 C   0  0  2  0  0  3  0  0  0  0  0  0
  158.3860  212.6400  155.6380 C   0  0  0  0  0  0  0  0  0  0  0  0
  157.3580  212.1820  156.2040 O   0  0  0  0  0  0  0  0  0  0  0  0
  159.1630  213.5900  156.2870 O   0  0  0  0  0  1  0  0  0  0  0  0
  160.2900  211.8480  154.2030 C   0  0  0  0  0  2  0  0  0  0  0  0
  160.5490  209.8480  156.5730 C   0  0  0  0  0  3  0  0  0  0  0  0
  160.9190  207.6070  153.6830 C   0  0  0  0  0  0  0  0  0  0  0  0
  160.6310  209.8340  152.7330 C   0  0  0  0  0  3  0  0  0  0  0  0
  160.6260  209.5210  155.1230 C   0  0  0  0  0  0  0  0  0  0  0  0
  160.5310  210.3840  154.0230 C   0  0  0  0  0  0  0  0  0  0  0  0
  160.8260  208.4510  152.5640 C   0  0  0  0  0  3  0  0  0  0  0  0
  160.8760  207.4910  156.1880 N   0  0  0  0  0  0  0  0  0  0  0  0
  161.1230  206.1430  153.5050 C   0  0  0  0  0  1  0  0  0  0  0  0
  160.7130  208.4760  157.2570 C   0  0  0  0  0  2  0  0  0  0  0  0
  160.8140  208.1780  154.9550 C   0  0  0  0  0  0  0  0  0  0  0  0
  160.9060  213.5360  148.2820 C   0  0  2  0  0  3  0  0  0  0  0  0
  161.6230  208.8190  148.2590 N   0  0  0  0  0  0  0  0  0  0  0  0
  161.2450  211.0770  148.0430 C   0  0  0  0  0  0  0  0  0  0  0  0
  161.6970  207.4170  147.9680 C   0  0  0  0  0  0  0  0  0  0  0  0
  160.9020  212.2510  147.5030 C   0  0  0  0  0  2  0  0  0  0  0  0
  161.6980  210.8840  149.4520 C   0  0  0  0  0  3  0  0  0  0  0  0
  161.3410  206.9910  146.8360 O   0  0  0  0  0  0  0  0  0  0  0  0
  161.2050  209.8080  147.2820 C   0  0  0  0  0  3  0  0  0  0  0  0
  161.9510  209.3860  149.5610 C   0  0  0  0  0  3  0  0  0  0  0  0
  162.2290  206.4580  148.9930 C   0  0  1  0  0  3  0  0  0  0  0  0
  163.0200  207.1140  149.9390 O   0  0  0  0  0  1  0  0  0  0  0  0
  161.1190  205.6490  149.6640 C   0  0  0  0  0  2  0  0  0  0  0  0
  160.2380  202.1620  150.4330 C   0  0  0  0  0  3  0  0  0  0  0  0
  161.1690  204.1860  149.3330 C   0  0  0  0  0  0  0  0  0  0  0  0
  161.3920  203.7910  151.6770 F   0  0  0  0  0  0  0  0  0  0  0  0
  160.0130  201.3370  149.4110 C   0  0  0  0  0  3  0  0  0  0  0  0
  161.3330  203.1780  150.4340 C   0  0  1  0  0  3  0  0  0  0  0  0
  161.2620  202.4420  147.5320 C   0  0  0  0  0  3  0  0  0  0  0  0
  160.7300  201.3640  148.1210 C   0  0  0  0  0  3  0  0  0  0  0  0
  161.2330  203.8260  148.0470 C   0  0  0  0  0  3  0  0  0  0  0  0
  162.3250  214.0430  148.5430 C   0  0  0  0  0  2  0  0  0  0  0  0
  163.0490  214.2620  147.3010 N   0  0  0  0  0  1  0  0  0  0  0  0
  1  2  2  0  0  0  0
  3  1  1  0  0  0  0
  4 10  1  0  0  0  0
  5  9  1  0  0  0  0
  6  3  1  6  0  0  0
  6  5  1  0  0  0  0
  6  8  1  0  0  0  0
  8  4  1  0  0  0  0
  9  4  1  0  0  0  0
  9  7  2  0  0  0  0
 10 14  1  1  0  0  0
 10 11  1  0  0  0  0
 11 12  2  0  0  0  0
 11 13  1  0  0  0  0
 15 23  1  0  0  0  0
 16 24  1  0  0  0  0
 17 19  2  0  0  0  0
 18 15  2  0  0  0  0
 19 14  1  0  0  0  0
 19 18  1  0  0  0  0
 20 17  1  0  0  0  0
 20 16  2  0  0  0  0
 21 23  1  0  0  0  0
 22 16  1  0  0  0  0
 24 18  1  0  0  0  0
 24 21  2  0  0  0  0
 25 29  1  1  0  0  0
 25 45  1  0  0  0  0
 25  1  1  0  0  0  0
 26 33  1  0  0  0  0
 27 30  1  0  0  0  0
 28 26  1  0  0  0  0
 28 34  1  0  0  0  0
 29 27  1  0  0  0  0
 30 33  2  0  0  0  0
 31 28  2  0  0  0  0
 32 27  2  0  0  0  0
 32 26  1  0  0  0  0
 34 36  1  0  0  0  0
 34 35  1  1  0  0  0
 37 41  1  0  0  0  0
 38 36  1  0  0  0  0
 38 41  1  0  0  0  0
 40 37  2  0  0  0  0
 41 39  1  1  0  0  0
 42 44  1  0  0  0  0
 42 43  2  0  0  0  0
 43 40  1  0  0  0  0
 44 38  2  0  0  0  0
 46 45  1  0  0  0  0
M  END
>  <MODEL>
9

>  <REMARK>
 VINA RESULT:      -5.0      5.249      7.473
  Name = 
  12 active torsions:
  status: ('A' for Active; 'I' for Inactive)
    1  A    between atoms: C_2  and  C_37
    2  A    between atoms: C_4  and  C_17
    3  A    between atoms: N_5  and  C_37
    4  A    between atoms: C_7  and  C_25
    5  A    between atoms: C_7  and  C_37
    6  A    between atoms: C_11  and  S_15
    7  A    between atoms: C_12  and  C_19
    8  A    between atoms: C_13  and  C_21
    9  A    between atoms: S_15  and  C_33
   10  A    between atoms: C_17  and  C_21
   11  A    between atoms: C_19  and  C_28
   12  A    between atoms: C_19  and  C_33
                            x       y       z     vdW  Elec       q    Type
                         _______ _______ _______ _____ _____    ______ ____

>  <TORSDO>
F 12

$$$$
