=
 OpenBabel11072411303D

 35 38  0  0  1  0  0  0  0  0999 V2000
  160.8910  211.6500  152.9940 N   0  0  2  0  0  0  0  0  0  0  0  0
  159.5720  211.9730  153.6120 C   0  0  1  0  0  3  0  0  0  0  0  0
  159.6980  211.8980  152.1580 C   0  0  1  0  0  3  0  0  0  0  0  0
  162.6200  210.1120  152.1600 C   0  0  0  0  0  2  0  0  0  0  0  0
  161.6810  209.1580  149.9120 C   0  0  0  0  0  2  0  0  0  0  0  0
  162.3560  210.2550  150.6850 C   0  0  0  0  0  0  0  0  0  0  0  0
  160.4640  208.0030  151.9000 C   0  0  0  0  0  2  0  0  0  0  0  0
  160.1630  209.4300  152.3820 C   0  0  0  0  0  2  0  0  0  0  0  0
  161.4910  207.8920  150.7580 C   0  0  1  0  0  3  0  0  0  0  0  0
  162.6650  211.2890  150.1160 O   0  0  0  0  0  0  0  0  0  0  0  0
  161.3340  210.2240  153.0100 C   0  0  2  0  0  0  0  0  0  0  0  0
  161.5950  209.6500  154.4320 C   0  0  0  0  0  2  0  0  0  0  0  0
  162.3880  210.5760  155.3470 C   0  0  0  0  0  1  0  0  0  0  0  0
  161.1980  206.7390  149.9130 N   0  0  0  0  0  2  0  0  0  0  0  0
  161.0070  202.7010  151.1830 C   0  0  0  0  0  3  0  0  0  0  0  0
  160.8240  203.0310  149.8370 C   0  0  0  0  0  3  0  0  0  0  0  0
  161.3210  205.0420  151.7120 C   0  0  0  0  0  3  0  0  0  0  0  0
  160.8890  204.3660  149.4280 C   0  0  0  0  0  3  0  0  0  0  0  0
  161.2560  203.7070  152.1210 C   0  0  0  0  0  3  0  0  0  0  0  0
  161.1380  205.3790  150.3610 C   0  0  0  0  0  0  0  0  0  0  0  0
  158.8980  210.8450  154.0900 O   0  0  0  0  0  0  0  0  0  0  0  0
  158.1110  211.3240  155.1360 C   0  0  0  0  0  2  0  0  0  0  0  0
  156.9060  211.8090  154.6270 O   0  0  0  0  0  0  0  0  0  0  0  0
  155.9490  211.4190  155.5620 C   0  0  0  0  0  2  0  0  0  0  0  0
  155.2770  210.1430  155.0950 C   0  0  0  0  0  1  0  0  0  0  0  0
  159.7860  213.2950  151.5750 C   0  0  0  0  0  2  0  0  0  0  0  0
  157.4450  213.7310  150.7570 C   0  0  0  0  0  0  0  0  0  0  0  0
  159.2080  213.3590  149.1270 C   0  0  0  0  0  0  0  0  0  0  0  0
  158.2820  213.5340  148.0950 C   0  0  0  0  0  3  0  0  0  0  0  0
  156.5280  213.9070  149.7170 C   0  0  0  0  0  3  0  0  0  0  0  0
  156.0520  213.9780  147.3840 F   0  0  0  0  0  0  0  0  0  0  0  0
  160.5370  213.0970  148.8130 O   0  0  0  0  0  1  0  0  0  0  0  0
  156.9450  213.8080  148.3890 C   0  0  0  0  0  0  0  0  0  0  0  0
  157.0090  213.8340  152.0730 O   0  0  0  0  0  1  0  0  0  0  0  0
  158.7930  213.4520  150.4670 C   0  0  0  0  0  0  0  0  0  0  0  0
  1 11  1  1  0  0  0
  1  2  1  0  0  0  0
  2 21  1  1  0  0  0
  3 26  1  6  0  0  0
  3  1  1  0  0  0  0
  3  2  1  0  0  0  0
  4 11  1  0  0  0  0
  5  6  1  0  0  0  0
  5  9  1  0  0  0  0
  6  4  1  0  0  0  0
  7  8  1  0  0  0  0
  8 11  1  0  0  0  0
  9 14  1  6  0  0  0
  9  7  1  0  0  0  0
 10  6  2  0  0  0  0
 11 12  1  1  0  0  0
 12 13  1  0  0  0  0
 14 20  1  0  0  0  0
 15 19  1  0  0  0  0
 16 15  2  0  0  0  0
 17 19  2  0  0  0  0
 18 16  1  0  0  0  0
 18 20  2  0  0  0  0
 20 17  1  0  0  0  0
 21 22  1  0  0  0  0
 23 22  1  0  0  0  0
 23 24  1  0  0  0  0
 25 24  1  0  0  0  0
 27 34  1  0  0  0  0
 28 35  2  0  0  0  0
 29 33  2  0  0  0  0
 29 28  1  0  0  0  0
 30 27  2  0  0  0  0
 31 33  1  0  0  0  0
 32 28  1  0  0  0  0
 33 30  1  0  0  0  0
 35 27  1  0  0  0  0
 35 26  1  0  0  0  0
M  END
>  <MODEL>
1

>  <REMARK>
 VINA RESULT:      -6.1      0.000      0.000
  Name = 
  10 active torsions:
  status: ('A' for Active; 'I' for Inactive)
    1  A    between atoms: C_4  and  C_33
    2  A    between atoms: C_5  and  O_8
    3  A    between atoms: C_5  and  O_24
    4  A    between atoms: N_6  and  C_33
    5  A    between atoms: O_8  and  C_11
    6  A    between atoms: N_9  and  C_25
    7  A    between atoms: N_9  and  C_35
    8  A    between atoms: C_23  and  O_24
    9  A    between atoms: C_27  and  C_31
   10  A    between atoms: C_28  and  C_31
                            x       y       z     vdW  Elec       q    Type
                         _______ _______ _______ _____ _____    ______ ____

>  <TORSDO>
F 10

$$$$
=
 OpenBabel11072411303D

 35 38  0  0  1  0  0  0  0  0999 V2000
  160.7990  209.7720  151.9330 N   0  0  2  0  0  0  0  0  0  0  0  0
  161.2780  210.6200  153.0630 C   0  0  1  0  0  3  0  0  0  0  0  0
  159.9930  209.9300  153.1610 C   0  0  1  0  0  3  0  0  0  0  0  0
  162.5690  208.5250  150.7640 C   0  0  0  0  0  2  0  0  0  0  0  0
  161.4520  207.6050  148.5850 C   0  0  0  0  0  2  0  0  0  0  0  0
  162.0910  208.7280  149.3520 C   0  0  0  0  0  0  0  0  0  0  0  0
  160.6620  206.1790  150.6110 C   0  0  0  0  0  2  0  0  0  0  0  0
  160.2630  207.5210  151.2410 C   0  0  0  0  0  2  0  0  0  0  0  0
  161.5290  206.2740  149.3430 C   0  0  1  0  0  3  0  0  0  0  0  0
  162.1960  209.8270  148.8340 O   0  0  0  0  0  0  0  0  0  0  0  0
  161.4060  208.4170  151.7770 C   0  0  2  0  0  0  0  0  0  0  0  0
  161.9250  207.7900  153.1040 C   0  0  0  0  0  2  0  0  0  0  0  0
  161.0240  206.7040  153.6790 C   0  0  0  0  0  1  0  0  0  0  0  0
  161.2630  205.1500  148.4520 N   0  0  0  0  0  2  0  0  0  0  0  0
  160.9480  201.1150  149.7070 C   0  0  0  0  0  3  0  0  0  0  0  0
  160.8910  202.1550  150.6400 C   0  0  0  0  0  3  0  0  0  0  0  0
  161.2140  202.7300  147.9250 C   0  0  0  0  0  3  0  0  0  0  0  0
  160.9950  203.4830  150.2150 C   0  0  0  0  0  3  0  0  0  0  0  0
  161.1090  201.4030  148.3490 C   0  0  0  0  0  3  0  0  0  0  0  0
  161.1570  203.7790  148.8570 C   0  0  0  0  0  0  0  0  0  0  0  0
  162.2240  209.9790  153.8690 O   0  0  0  0  0  0  0  0  0  0  0  0
  162.2690  210.7450  155.0340 C   0  0  0  0  0  2  0  0  0  0  0  0
  161.4340  210.1760  155.9960 O   0  0  0  0  0  0  0  0  0  0  0  0
  162.2480  209.2680  156.6720 C   0  0  0  0  0  2  0  0  0  0  0  0
  161.4240  208.0680  157.0940 C   0  0  0  0  0  1  0  0  0  0  0  0
  158.8630  210.9030  152.8870 C   0  0  0  0  0  2  0  0  0  0  0  0
  158.3800  211.3540  155.3170 C   0  0  0  0  0  0  0  0  0  0  0  0
  158.9230  213.2220  153.8620 C   0  0  0  0  0  0  0  0  0  0  0  0
  158.8030  214.0940  154.9470 C   0  0  0  0  0  3  0  0  0  0  0  0
  158.2660  212.2350  156.3960 C   0  0  0  0  0  3  0  0  0  0  0  0
  158.3630  214.4530  157.2610 F   0  0  0  0  0  0  0  0  0  0  0  0
  159.2580  213.7310  152.6120 O   0  0  0  0  0  1  0  0  0  0  0  0
  158.4760  213.6020  156.2120 C   0  0  0  0  0  0  0  0  0  0  0  0
  158.1680  209.9960  155.5220 O   0  0  0  0  0  1  0  0  0  0  0  0
  158.7060  211.8450  154.0400 C   0  0  0  0  0  0  0  0  0  0  0  0
  1 11  1  1  0  0  0
  1  2  1  0  0  0  0
  1  3  1  0  0  0  0
  2  3  1  0  0  0  0
  2 21  1  1  0  0  0
  3 26  1  6  0  0  0
  4 11  1  0  0  0  0
  5  9  1  0  0  0  0
  5  6  1  0  0  0  0
  6  4  1  0  0  0  0
  7  8  1  0  0  0  0
  8 11  1  0  0  0  0
  9 14  1  6  0  0  0
  9  7  1  0  0  0  0
 10  6  2  0  0  0  0
 11 12  1  1  0  0  0
 12 13  1  0  0  0  0
 14 20  1  0  0  0  0
 15 16  1  0  0  0  0
 17 19  1  0  0  0  0
 17 20  2  0  0  0  0
 18 16  2  0  0  0  0
 19 15  2  0  0  0  0
 20 18  1  0  0  0  0
 21 22  1  0  0  0  0
 22 23  1  0  0  0  0
 23 24  1  0  0  0  0
 24 25  1  0  0  0  0
 26 35  1  0  0  0  0
 27 34  1  0  0  0  0
 27 30  1  0  0  0  0
 28 35  1  0  0  0  0
 28 29  2  0  0  0  0
 29 33  1  0  0  0  0
 32 28  1  0  0  0  0
 33 30  2  0  0  0  0
 33 31  1  0  0  0  0
 35 27  2  0  0  0  0
M  END
>  <MODEL>
2

>  <REMARK>
 VINA RESULT:      -6.0      3.032      4.346
  Name = 
  10 active torsions:
  status: ('A' for Active; 'I' for Inactive)
    1  A    between atoms: C_4  and  C_33
    2  A    between atoms: C_5  and  O_8
    3  A    between atoms: C_5  and  O_24
    4  A    between atoms: N_6  and  C_33
    5  A    between atoms: O_8  and  C_11
    6  A    between atoms: N_9  and  C_25
    7  A    between atoms: N_9  and  C_35
    8  A    between atoms: C_23  and  O_24
    9  A    between atoms: C_27  and  C_31
   10  A    between atoms: C_28  and  C_31
                            x       y       z     vdW  Elec       q    Type
                         _______ _______ _______ _____ _____    ______ ____

>  <TORSDO>
F 10

$$$$
=
 OpenBabel11072411303D

 35 38  0  0  1  0  0  0  0  0999 V2000
  160.9090  207.0300  150.4850 N   0  0  2  0  0  0  0  0  0  0  0  0
  161.1140  206.3820  151.8130 C   0  0  1  0  0  3  0  0  0  0  0  0
  161.3380  205.6200  150.5860 C   0  0  1  0  0  3  0  0  0  0  0  0
  162.3970  208.8680  151.1640 C   0  0  0  0  0  2  0  0  0  0  0  0
  161.0900  211.0660  150.6120 C   0  0  0  0  0  2  0  0  0  0  0  0
  161.3490  209.8900  151.5110 C   0  0  0  0  0  0  0  0  0  0  0  0
  162.0150  210.0510  148.4040 C   0  0  0  0  0  2  0  0  0  0  0  0
  161.3120  208.7600  148.8490 C   0  0  0  0  0  2  0  0  0  0  0  0
  162.1130  211.1540  149.4730 C   0  0  1  0  0  3  0  0  0  0  0  0
  160.6780  209.7450  152.5190 O   0  0  0  0  0  0  0  0  0  0  0  0
  161.9740  207.9530  149.9920 C   0  0  2  0  0  0  0  0  0  0  0  0
  163.2260  207.2350  149.4100 C   0  0  0  0  0  2  0  0  0  0  0  0
  163.0610  206.7510  147.9750 C   0  0  0  0  0  1  0  0  0  0  0  0
  162.0900  212.4750  148.8530 N   0  0  0  0  0  2  0  0  0  0  0  0
  160.9300  213.3050  144.8630 C   0  0  0  0  0  3  0  0  0  0  0  0
  162.2730  213.3900  145.2430 C   0  0  0  0  0  3  0  0  0  0  0  0
  160.3320  212.6670  147.1190 C   0  0  0  0  0  3  0  0  0  0  0  0
  162.6450  213.1140  146.5620 C   0  0  0  0  0  3  0  0  0  0  0  0
  159.9600  212.9430  145.8010 C   0  0  0  0  0  3  0  0  0  0  0  0
  161.6800  212.7500  147.5070 C   0  0  0  0  0  0  0  0  0  0  0  0
  162.3400  206.7080  152.4000 O   0  0  0  0  0  0  0  0  0  0  0  0
  162.1480  206.4790  153.7620 C   0  0  0  0  0  2  0  0  0  0  0  0
  160.8380  206.8080  154.1080 O   0  0  0  0  0  0  0  0  0  0  0  0
  160.9630  207.5640  155.2730 C   0  0  0  0  0  2  0  0  0  0  0  0
  159.7500  207.3400  156.1530 C   0  0  0  0  0  1  0  0  0  0  0  0
  160.1470  204.7220  150.3120 C   0  0  0  0  0  2  0  0  0  0  0  0
  160.7540  202.2820  150.4600 C   0  0  0  0  0  0  0  0  0  0  0  0
  160.8460  203.3860  148.2970 C   0  0  0  0  0  0  0  0  0  0  0  0
  161.2450  202.1840  147.7080 C   0  0  0  0  0  3  0  0  0  0  0  0
  161.1510  201.0850  149.8590 C   0  0  0  0  0  3  0  0  0  0  0  0
  161.7820  199.8720  147.9080 F   0  0  0  0  0  0  0  0  0  0  0  0
  160.6910  204.5170  147.5040 O   0  0  0  0  0  1  0  0  0  0  0  0
  161.3970  201.0350  148.4860 C   0  0  0  0  0  0  0  0  0  0  0  0
  160.5140  202.3100  151.8290 O   0  0  0  0  0  1  0  0  0  0  0  0
  160.6030  203.4440  149.6810 C   0  0  0  0  0  0  0  0  0  0  0  0
  1 11  1  6  0  0  0
  1  3  1  0  0  0  0
  1  2  1  0  0  0  0
  2 21  1  6  0  0  0
  3 26  1  1  0  0  0
  3  2  1  0  0  0  0
  4  6  1  0  0  0  0
  5  6  1  0  0  0  0
  6 10  2  0  0  0  0
  7  8  1  0  0  0  0
  7  9  1  0  0  0  0
  8 11  1  0  0  0  0
  9 14  1  6  0  0  0
  9  5  1  0  0  0  0
 11 12  1  6  0  0  0
 11  4  1  0  0  0  0
 13 12  1  0  0  0  0
 15 16  2  0  0  0  0
 15 19  1  0  0  0  0
 16 18  1  0  0  0  0
 17 20  1  0  0  0  0
 18 20  2  0  0  0  0
 19 17  2  0  0  0  0
 20 14  1  0  0  0  0
 21 22  1  0  0  0  0
 22 23  1  0  0  0  0
 23 24  1  0  0  0  0
 24 25  1  0  0  0  0
 27 34  1  0  0  0  0
 28 35  1  0  0  0  0
 29 28  2  0  0  0  0
 29 33  1  0  0  0  0
 30 27  1  0  0  0  0
 31 33  1  0  0  0  0
 32 28  1  0  0  0  0
 33 30  2  0  0  0  0
 35 26  1  0  0  0  0
 35 27  2  0  0  0  0
M  END
>  <MODEL>
3

>  <REMARK>
 VINA RESULT:      -5.8      4.148      8.512
  Name = 
  10 active torsions:
  status: ('A' for Active; 'I' for Inactive)
    1  A    between atoms: C_4  and  C_33
    2  A    between atoms: C_5  and  O_8
    3  A    between atoms: C_5  and  O_24
    4  A    between atoms: N_6  and  C_33
    5  A    between atoms: O_8  and  C_11
    6  A    between atoms: N_9  and  C_25
    7  A    between atoms: N_9  and  C_35
    8  A    between atoms: C_23  and  O_24
    9  A    between atoms: C_27  and  C_31
   10  A    between atoms: C_28  and  C_31
                            x       y       z     vdW  Elec       q    Type
                         _______ _______ _______ _____ _____    ______ ____

>  <TORSDO>
F 10

$$$$
=
 OpenBabel11072411303D

 35 38  0  0  1  0  0  0  0  0999 V2000
  160.5340  207.8190  151.6140 N   0  0  2  0  0  0  0  0  0  0  0  0
  161.1350  206.4650  151.7830 C   0  0  1  0  0  3  0  0  0  0  0  0
  161.2910  207.1800  150.5180 C   0  0  1  0  0  3  0  0  0  0  0  0
  161.7040  208.5430  153.6540 C   0  0  0  0  0  2  0  0  0  0  0  0
  159.8660  209.6290  155.1660 C   0  0  0  0  0  2  0  0  0  0  0  0
  160.5630  208.4130  154.6260 C   0  0  0  0  0  0  0  0  0  0  0  0
  160.4780  211.2820  153.2540 C   0  0  0  0  0  2  0  0  0  0  0  0
  160.1850  210.1050  152.3110 C   0  0  0  0  0  2  0  0  0  0  0  0
  160.5690  210.9270  154.7480 C   0  0  1  0  0  3  0  0  0  0  0  0
  160.1790  207.3030  154.9570 O   0  0  0  0  0  0  0  0  0  0  0  0
  161.2400  208.9750  152.2440 C   0  0  2  0  0  0  0  0  0  0  0  0
  162.4570  209.5030  151.4310 C   0  0  0  0  0  2  0  0  0  0  0  0
  162.0870  210.4070  150.2620 C   0  0  0  0  0  1  0  0  0  0  0  0
  160.1270  212.0480  155.5720 N   0  0  0  0  0  2  0  0  0  0  0  0
  156.0870  213.0990  156.2970 C   0  0  0  0  0  3  0  0  0  0  0  0
  156.7130  213.4720  155.1030 C   0  0  0  0  0  3  0  0  0  0  0  0
  158.1260  212.0230  157.0310 C   0  0  0  0  0  3  0  0  0  0  0  0
  158.0470  213.1190  154.8740 C   0  0  0  0  0  3  0  0  0  0  0  0
  156.7930  212.3750  157.2610 C   0  0  0  0  0  3  0  0  0  0  0  0
  158.7610  212.3930  155.8340 C   0  0  0  0  0  0  0  0  0  0  0  0
  162.3410  206.4820  152.4910 O   0  0  0  0  0  0  0  0  0  0  0  0
  162.6390  205.1380  152.7090 C   0  0  0  0  0  2  0  0  0  0  0  0
  162.0990  204.3690  151.6780 O   0  0  0  0  0  0  0  0  0  0  0  0
  161.3290  203.4050  152.3280 C   0  0  0  0  0  2  0  0  0  0  0  0
  161.3880  202.1050  151.5510 C   0  0  0  0  0  1  0  0  0  0  0  0
  160.3120  206.6370  149.4940 C   0  0  0  0  0  2  0  0  0  0  0  0
  161.0120  204.5520  148.2680 C   0  0  0  0  0  0  0  0  0  0  0  0
  161.7650  206.7090  147.4410 C   0  0  0  0  0  0  0  0  0  0  0  0
  162.4330  206.0680  146.3950 C   0  0  0  0  0  3  0  0  0  0  0  0
  161.6800  203.9210  147.2160 C   0  0  0  0  0  3  0  0  0  0  0  0
  163.0390  204.0610  145.2640 F   0  0  0  0  0  0  0  0  0  0  0  0
  161.8120  208.0950  147.5320 O   0  0  0  0  0  1  0  0  0  0  0  0
  162.3910  204.6770  146.2820 C   0  0  0  0  0  0  0  0  0  0  0  0
  160.3100  203.7810  149.1880 O   0  0  0  0  0  1  0  0  0  0  0  0
  161.0530  205.9530  148.3900 C   0  0  0  0  0  0  0  0  0  0  0  0
  1  2  1  0  0  0  0
  1 11  1  1  0  0  0
  2 21  1  1  0  0  0
  3 26  1  6  0  0  0
  3  1  1  0  0  0  0
  3  2  1  0  0  0  0
  4  6  1  0  0  0  0
  6 10  2  0  0  0  0
  6  5  1  0  0  0  0
  7  9  1  0  0  0  0
  8  7  1  0  0  0  0
  9  5  1  0  0  0  0
  9 14  1  1  0  0  0
 11 12  1  6  0  0  0
 11  8  1  0  0  0  0
 11  4  1  0  0  0  0
 13 12  1  0  0  0  0
 14 20  1  0  0  0  0
 15 19  1  0  0  0  0
 16 15  2  0  0  0  0
 17 19  2  0  0  0  0
 18 16  1  0  0  0  0
 18 20  2  0  0  0  0
 20 17  1  0  0  0  0
 21 22  1  0  0  0  0
 23 24  1  0  0  0  0
 23 22  1  0  0  0  0
 25 24  1  0  0  0  0
 27 35  1  0  0  0  0
 27 34  1  0  0  0  0
 28 32  1  0  0  0  0
 28 35  2  0  0  0  0
 29 28  1  0  0  0  0
 30 27  2  0  0  0  0
 31 33  1  0  0  0  0
 33 29  2  0  0  0  0
 33 30  1  0  0  0  0
 35 26  1  0  0  0  0
M  END
>  <MODEL>
4

>  <REMARK>
 VINA RESULT:      -5.5      3.845      8.190
  Name = 
  10 active torsions:
  status: ('A' for Active; 'I' for Inactive)
    1  A    between atoms: C_4  and  C_33
    2  A    between atoms: C_5  and  O_8
    3  A    between atoms: C_5  and  O_24
    4  A    between atoms: N_6  and  C_33
    5  A    between atoms: O_8  and  C_11
    6  A    between atoms: N_9  and  C_25
    7  A    between atoms: N_9  and  C_35
    8  A    between atoms: C_23  and  O_24
    9  A    between atoms: C_27  and  C_31
   10  A    between atoms: C_28  and  C_31
                            x       y       z     vdW  Elec       q    Type
                         _______ _______ _______ _____ _____    ______ ____

>  <TORSDO>
F 10

$$$$
=
 OpenBabel11072411303D

 35 38  0  0  1  0  0  0  0  0999 V2000
  160.6630  207.7360  151.5720 N   0  0  2  0  0  0  0  0  0  0  0  0
  161.3160  209.0560  151.8040 C   0  0  1  0  0  3  0  0  0  0  0  0
  161.1200  208.1330  152.9200 C   0  0  1  0  0  3  0  0  0  0  0  0
  162.3370  207.2900  149.8250 C   0  0  0  0  0  2  0  0  0  0  0  0
  160.9670  206.6400  147.6940 C   0  0  0  0  0  2  0  0  0  0  0  0
  161.5190  207.6810  148.6250 C   0  0  0  0  0  0  0  0  0  0  0  0
  160.9690  204.6320  149.3470 C   0  0  0  0  0  2  0  0  0  0  0  0
  160.4570  205.6450  150.3820 C   0  0  0  0  0  2  0  0  0  0  0  0
  161.4860  205.2360  148.0300 C   0  0  1  0  0  3  0  0  0  0  0  0
  161.2750  208.8590  148.4220 O   0  0  0  0  0  0  0  0  0  0  0  0
  161.4830  206.6560  150.9480 C   0  0  2  0  0  0  0  0  0  0  0  0
  162.4080  205.8960  151.9430 C   0  0  0  0  0  2  0  0  0  0  0  0
  161.8670  204.5450  152.3940 C   0  0  0  0  0  1  0  0  0  0  0  0
  161.2600  204.3170  146.9180 N   0  0  0  0  0  2  0  0  0  0  0  0
  161.1970  200.0870  147.1560 C   0  0  0  0  0  3  0  0  0  0  0  0
  160.8360  200.7360  145.9720 C   0  0  0  0  0  3  0  0  0  0  0  0
  161.6080  202.2290  148.2040 C   0  0  0  0  0  3  0  0  0  0  0  0
  160.8610  202.1330  145.9040 C   0  0  0  0  0  3  0  0  0  0  0  0
  161.5830  200.8340  148.2730 C   0  0  0  0  0  3  0  0  0  0  0  0
  161.2470  202.8870  147.0170 C   0  0  0  0  0  0  0  0  0  0  0  0
  162.6650  209.0750  151.4340 O   0  0  0  0  0  0  0  0  0  0  0  0
  162.9070  210.3960  151.0600 C   0  0  0  0  0  2  0  0  0  0  0  0
  161.7750  210.9170  150.4320 O   0  0  0  0  0  0  0  0  0  0  0  0
  162.2780  211.6560  149.3620 C   0  0  0  0  0  2  0  0  0  0  0  0
  161.2490  212.6820  148.9300 C   0  0  0  0  0  1  0  0  0  0  0  0
  159.9210  208.5630  153.7410 C   0  0  0  0  0  2  0  0  0  0  0  0
  159.7960  210.9780  154.4450 C   0  0  0  0  0  0  0  0  0  0  0  0
  161.1390  209.4400  155.7610 C   0  0  0  0  0  0  0  0  0  0  0  0
  161.4700  210.4830  156.6300 C   0  0  0  0  0  3  0  0  0  0  0  0
  160.1310  212.0130  155.3220 C   0  0  0  0  0  3  0  0  0  0  0  0
  161.2910  212.7730  157.2590 F   0  0  0  0  0  0  0  0  0  0  0  0
  161.6430  208.1670  156.0000 O   0  0  0  0  0  1  0  0  0  0  0  0
  160.9680  211.7670  156.4120 C   0  0  0  0  0  0  0  0  0  0  0  0
  158.9610  211.2450  153.3650 O   0  0  0  0  0  1  0  0  0  0  0  0
  160.3020  209.6830  154.6570 C   0  0  0  0  0  0  0  0  0  0  0  0
  1 11  1  6  0  0  0
  1  2  1  0  0  0  0
  1  3  1  0  0  0  0
  2 21  1  6  0  0  0
  2  3  1  0  0  0  0
  3 26  1  1  0  0  0
  4 11  1  0  0  0  0
  5  9  1  0  0  0  0
  5  6  1  0  0  0  0
  6  4  1  0  0  0  0
  7  8  1  0  0  0  0
  8 11  1  0  0  0  0
  9 14  1  6  0  0  0
  9  7  1  0  0  0  0
 10  6  2  0  0  0  0
 11 12  1  1  0  0  0
 12 13  1  0  0  0  0
 14 20  1  0  0  0  0
 15 19  1  0  0  0  0
 16 15  2  0  0  0  0
 17 19  2  0  0  0  0
 18 16  1  0  0  0  0
 18 20  2  0  0  0  0
 20 17  1  0  0  0  0
 22 21  1  0  0  0  0
 23 22  1  0  0  0  0
 24 23  1  0  0  0  0
 25 24  1  0  0  0  0
 26 35  1  0  0  0  0
 27 35  2  0  0  0  0
 27 30  1  0  0  0  0
 28 32  1  0  0  0  0
 28 29  2  0  0  0  0
 30 33  2  0  0  0  0
 33 29  1  0  0  0  0
 33 31  1  0  0  0  0
 34 27  1  0  0  0  0
 35 28  1  0  0  0  0
M  END
>  <MODEL>
5

>  <REMARK>
 VINA RESULT:      -5.4      3.168      5.915
  Name = 
  10 active torsions:
  status: ('A' for Active; 'I' for Inactive)
    1  A    between atoms: C_4  and  C_33
    2  A    between atoms: C_5  and  O_8
    3  A    between atoms: C_5  and  O_24
    4  A    between atoms: N_6  and  C_33
    5  A    between atoms: O_8  and  C_11
    6  A    between atoms: N_9  and  C_25
    7  A    between atoms: N_9  and  C_35
    8  A    between atoms: C_23  and  O_24
    9  A    between atoms: C_27  and  C_31
   10  A    between atoms: C_28  and  C_31
                            x       y       z     vdW  Elec       q    Type
                         _______ _______ _______ _____ _____    ______ ____

>  <TORSDO>
F 10

$$$$
=
 OpenBabel11072411303D

 35 38  0  0  1  0  0  0  0  0999 V2000
  160.5740  207.9200  151.3970 N   0  0  2  0  0  0  0  0  0  0  0  0
  161.2030  209.2600  151.5780 C   0  0  1  0  0  3  0  0  0  0  0  0
  160.9830  208.3950  152.7350 C   0  0  1  0  0  3  0  0  0  0  0  0
  162.3000  207.4020  149.7220 C   0  0  0  0  0  2  0  0  0  0  0  0
  160.9960  206.6030  147.6000 C   0  0  0  0  0  2  0  0  0  0  0  0
  161.5070  207.7080  148.4810 C   0  0  0  0  0  0  0  0  0  0  0  0
  160.9880  204.6970  149.3680 C   0  0  0  0  0  2  0  0  0  0  0  0
  160.4330  205.7590  150.3290 C   0  0  0  0  0  2  0  0  0  0  0  0
  161.5290  205.2310  148.0310 C   0  0  1  0  0  3  0  0  0  0  0  0
  161.2490  208.8670  148.2020 O   0  0  0  0  0  0  0  0  0  0  0  0
  161.4280  206.8200  150.8580 C   0  0  2  0  0  0  0  0  0  0  0  0
  162.3380  206.1370  151.9190 C   0  0  0  0  0  2  0  0  0  0  0  0
  161.6050  205.1830  152.8550 C   0  0  0  0  0  1  0  0  0  0  0  0
  161.3470  204.2450  146.9700 N   0  0  0  0  0  2  0  0  0  0  0  0
  161.2090  200.0560  147.5910 C   0  0  0  0  0  3  0  0  0  0  0  0
  161.3630  200.9280  148.6730 C   0  0  0  0  0  3  0  0  0  0  0  0
  161.1430  201.9430  146.0790 C   0  0  0  0  0  3  0  0  0  0  0  0
  161.4070  202.3090  148.4570 C   0  0  0  0  0  3  0  0  0  0  0  0
  161.0980  200.5640  146.2940 C   0  0  0  0  0  3  0  0  0  0  0  0
  161.2970  202.8250  147.1610 C   0  0  0  0  0  0  0  0  0  0  0  0
  162.5620  209.2790  151.2500 O   0  0  0  0  0  0  0  0  0  0  0  0
  162.7930  210.5720  150.7830 C   0  0  0  0  0  2  0  0  0  0  0  0
  161.7160  210.9800  149.9950 O   0  0  0  0  0  0  0  0  0  0  0  0
  162.2730  211.8680  149.0750 C   0  0  0  0  0  2  0  0  0  0  0  0
  161.1900  212.7800  148.5350 C   0  0  0  0  0  1  0  0  0  0  0  0
  159.7520  208.8520  153.4940 C   0  0  0  0  0  2  0  0  0  0  0  0
  160.9800  209.5610  155.5750 C   0  0  0  0  0  0  0  0  0  0  0  0
  159.6640  211.2090  154.3700 C   0  0  0  0  0  0  0  0  0  0  0  0
  160.0400  212.1810  155.3010 C   0  0  0  0  0  3  0  0  0  0  0  0
  161.3530  210.5410  156.4980 C   0  0  0  0  0  3  0  0  0  0  0  0
  161.2470  212.7960  157.2610 F   0  0  0  0  0  0  0  0  0  0  0  0
  158.8310  211.5620  153.3150 O   0  0  0  0  0  1  0  0  0  0  0  0
  160.8830  211.8480  156.3630 C   0  0  0  0  0  0  0  0  0  0  0  0
  161.4590  208.2650  155.7280 O   0  0  0  0  0  1  0  0  0  0  0  0
  160.1280  209.8890  154.5050 C   0  0  0  0  0  0  0  0  0  0  0  0
  1 11  1  6  0  0  0
  1  2  1  0  0  0  0
  1  3  1  0  0  0  0
  2 21  1  6  0  0  0
  2  3  1  0  0  0  0
  3 26  1  1  0  0  0
  4 11  1  0  0  0  0
  5  9  1  0  0  0  0
  5  6  1  0  0  0  0
  6  4  1  0  0  0  0
  7  8  1  0  0  0  0
  8 11  1  0  0  0  0
  9 14  1  6  0  0  0
  9  7  1  0  0  0  0
 10  6  2  0  0  0  0
 11 12  1  1  0  0  0
 12 13  1  0  0  0  0
 14 20  1  0  0  0  0
 15 16  1  0  0  0  0
 17 19  1  0  0  0  0
 17 20  2  0  0  0  0
 18 16  2  0  0  0  0
 19 15  2  0  0  0  0
 20 18  1  0  0  0  0
 22 21  1  0  0  0  0
 23 22  1  0  0  0  0
 24 23  1  0  0  0  0
 25 24  1  0  0  0  0
 26 35  1  0  0  0  0
 27 34  1  0  0  0  0
 27 30  1  0  0  0  0
 28 35  1  0  0  0  0
 28 29  2  0  0  0  0
 29 33  1  0  0  0  0
 32 28  1  0  0  0  0
 33 30  2  0  0  0  0
 33 31  1  0  0  0  0
 35 27  2  0  0  0  0
M  END
>  <MODEL>
6

>  <REMARK>
 VINA RESULT:      -5.4      3.150      5.898
  Name = 
  10 active torsions:
  status: ('A' for Active; 'I' for Inactive)
    1  A    between atoms: C_4  and  C_33
    2  A    between atoms: C_5  and  O_8
    3  A    between atoms: C_5  and  O_24
    4  A    between atoms: N_6  and  C_33
    5  A    between atoms: O_8  and  C_11
    6  A    between atoms: N_9  and  C_25
    7  A    between atoms: N_9  and  C_35
    8  A    between atoms: C_23  and  O_24
    9  A    between atoms: C_27  and  C_31
   10  A    between atoms: C_28  and  C_31
                            x       y       z     vdW  Elec       q    Type
                         _______ _______ _______ _____ _____    ______ ____

>  <TORSDO>
F 10

$$$$
=
 OpenBabel11072411303D

 35 38  0  0  1  0  0  0  0  0999 V2000
  161.9300  209.7490  152.3350 N   0  0  2  0  0  0  0  0  0  0  0  0
  162.3370  209.6610  150.9030 C   0  0  1  0  0  3  0  0  0  0  0  0
  161.4640  208.6390  151.4780 C   0  0  1  0  0  3  0  0  0  0  0  0
  161.3450  211.5390  153.9180 C   0  0  0  0  0  2  0  0  0  0  0  0
  160.0670  210.3560  155.8700 C   0  0  0  0  0  2  0  0  0  0  0  0
  161.3520  210.7290  155.1860 C   0  0  0  0  0  0  0  0  0  0  0  0
  158.4870  210.5460  153.8130 C   0  0  0  0  0  2  0  0  0  0  0  0
  159.6220  209.8650  153.0350 C   0  0  0  0  0  2  0  0  0  0  0  0
  158.8540  211.0370  155.2250 C   0  0  1  0  0  3  0  0  0  0  0  0
  162.4130  210.3440  155.6480 O   0  0  0  0  0  0  0  0  0  0  0  0
  160.8610  210.7270  152.6940 C   0  0  2  0  0  0  0  0  0  0  0  0
  160.4680  211.6990  151.5440 C   0  0  0  0  0  2  0  0  0  0  0  0
  159.7340  212.9520  152.0050 C   0  0  0  0  0  1  0  0  0  0  0  0
  157.6930  210.9790  156.1080 N   0  0  0  0  0  2  0  0  0  0  0  0
  155.2850  214.2700  157.2610 C   0  0  0  0  0  3  0  0  0  0  0  0
  154.7090  213.0190  157.0190 C   0  0  0  0  0  3  0  0  0  0  0  0
  157.4680  213.3620  156.7440 C   0  0  0  0  0  3  0  0  0  0  0  0
  155.5120  211.9390  156.6400 C   0  0  0  0  0  3  0  0  0  0  0  0
  156.6660  214.4410  157.1230 C   0  0  0  0  0  3  0  0  0  0  0  0
  156.8950  212.1030  156.5000 C   0  0  0  0  0  0  0  0  0  0  0  0
  161.5960  210.5040  150.0680 O   0  0  0  0  0  0  0  0  0  0  0  0
  162.2330  210.4190  148.8300 C   0  0  0  0  0  2  0  0  0  0  0  0
  162.7140  211.6770  148.4680 O   0  0  0  0  0  0  0  0  0  0  0  0
  161.6940  212.2320  147.6960 C   0  0  0  0  0  2  0  0  0  0  0  0
  161.2000  213.5050  148.3530 C   0  0  0  0  0  1  0  0  0  0  0  0
  162.2690  207.3950  151.8000 C   0  0  0  0  0  2  0  0  0  0  0  0
  161.6370  206.1360  149.7130 C   0  0  0  0  0  0  0  0  0  0  0  0
  161.1710  205.1330  151.8760 C   0  0  0  0  0  0  0  0  0  0  0  0
  160.6370  204.0120  151.2350 C   0  0  0  0  0  3  0  0  0  0  0  0
  161.1040  205.0090  149.0820 C   0  0  0  0  0  3  0  0  0  0  0  0
  160.0870  202.8590  149.2240 F   0  0  0  0  0  0  0  0  0  0  0  0
  161.2030  205.1720  153.2660 O   0  0  0  0  0  1  0  0  0  0  0  0
  160.6040  203.9490  149.8410 C   0  0  0  0  0  0  0  0  0  0  0  0
  162.1300  207.1800  148.9390 O   0  0  0  0  0  1  0  0  0  0  0  0
  161.6700  206.2060  151.1180 C   0  0  0  0  0  0  0  0  0  0  0  0
  1 11  1  6  0  0  0
  2 21  1  6  0  0  0
  2  3  1  0  0  0  0
  2  1  1  0  0  0  0
  3 26  1  1  0  0  0
  3  1  1  0  0  0  0
  4  6  1  0  0  0  0
  6 10  2  0  0  0  0
  6  5  1  0  0  0  0
  7  9  1  0  0  0  0
  8  7  1  0  0  0  0
  9  5  1  0  0  0  0
  9 14  1  1  0  0  0
 11 12  1  6  0  0  0
 11  8  1  0  0  0  0
 11  4  1  0  0  0  0
 12 13  1  0  0  0  0
 14 20  1  0  0  0  0
 16 15  2  0  0  0  0
 17 19  2  0  0  0  0
 18 16  1  0  0  0  0
 19 15  1  0  0  0  0
 20 18  2  0  0  0  0
 20 17  1  0  0  0  0
 22 21  1  0  0  0  0
 23 22  1  0  0  0  0
 24 25  1  0  0  0  0
 24 23  1  0  0  0  0
 27 35  1  0  0  0  0
 28 32  1  0  0  0  0
 29 28  1  0  0  0  0
 30 27  2  0  0  0  0
 30 33  1  0  0  0  0
 31 33  1  0  0  0  0
 33 29  2  0  0  0  0
 34 27  1  0  0  0  0
 35 26  1  0  0  0  0
 35 28  2  0  0  0  0
M  END
>  <MODEL>
7

>  <REMARK>
 VINA RESULT:      -5.1      3.140      8.321
  Name = 
  10 active torsions:
  status: ('A' for Active; 'I' for Inactive)
    1  A    between atoms: C_4  and  C_33
    2  A    between atoms: C_5  and  O_8
    3  A    between atoms: C_5  and  O_24
    4  A    between atoms: N_6  and  C_33
    5  A    between atoms: O_8  and  C_11
    6  A    between atoms: N_9  and  C_25
    7  A    between atoms: N_9  and  C_35
    8  A    between atoms: C_23  and  O_24
    9  A    between atoms: C_27  and  C_31
   10  A    between atoms: C_28  and  C_31
                            x       y       z     vdW  Elec       q    Type
                         _______ _______ _______ _____ _____    ______ ____

>  <TORSDO>
F 10

$$$$
=
 OpenBabel11072411303D

 35 38  0  0  1  0  0  0  0  0999 V2000
  158.9840  210.1610  155.3600 N   0  0  2  0  0  0  0  0  0  0  0  0
  158.9860  211.5580  154.8380 C   0  0  1  0  0  3  0  0  0  0  0  0
  158.8930  211.3170  156.2770 C   0  0  1  0  0  3  0  0  0  0  0  0
  161.1130  209.8330  154.1730 C   0  0  0  0  0  2  0  0  0  0  0  0
  160.7370  207.7580  152.6240 C   0  0  0  0  0  2  0  0  0  0  0  0
  160.5730  209.2250  152.9070 C   0  0  0  0  0  0  0  0  0  0  0  0
  161.0440  206.9440  155.0750 C   0  0  0  0  0  2  0  0  0  0  0  0
  159.9230  207.9370  155.4140 C   0  0  0  0  0  2  0  0  0  0  0  0
  161.6350  207.0700  153.6600 C   0  0  1  0  0  3  0  0  0  0  0  0
  159.9670  209.9260  152.1140 O   0  0  0  0  0  0  0  0  0  0  0  0
  160.2900  209.4410  155.4210 C   0  0  2  0  0  0  0  0  0  0  0  0
  161.1200  209.7260  156.7060 C   0  0  0  0  0  2  0  0  0  0  0  0
  162.5460  210.1930  156.4400 C   0  0  0  0  0  1  0  0  0  0  0  0
  162.0910  205.7720  153.1740 N   0  0  0  0  0  2  0  0  0  0  0  0
  160.6730  203.8790  149.6580 C   0  0  0  0  0  3  0  0  0  0  0  0
  161.0850  205.2150  149.6280 C   0  0  0  0  0  3  0  0  0  0  0  0
  161.1930  203.7730  152.0190 C   0  0  0  0  0  3  0  0  0  0  0  0
  161.5520  205.8300  150.7940 C   0  0  0  0  0  3  0  0  0  0  0  0
  160.7270  203.1580  150.8550 C   0  0  0  0  0  3  0  0  0  0  0  0
  161.6100  205.1140  151.9950 C   0  0  0  0  0  0  0  0  0  0  0  0
  160.2650  212.0220  154.5150 O   0  0  0  0  0  0  0  0  0  0  0  0
  160.0410  213.1110  153.6730 C   0  0  0  0  0  2  0  0  0  0  0  0
  158.8560  212.9130  152.9640 O   0  0  0  0  0  0  0  0  0  0  0  0
  159.0920  213.4960  151.7200 C   0  0  0  0  0  2  0  0  0  0  0  0
  157.8080  213.5050  150.9150 C   0  0  0  0  0  1  0  0  0  0  0  0
  157.4560  211.4730  156.7340 C   0  0  0  0  0  2  0  0  0  0  0  0
  155.7840  211.5970  154.8550 C   0  0  0  0  0  0  0  0  0  0  0  0
  156.8060  213.6510  155.6550 C   0  0  0  0  0  0  0  0  0  0  0  0
  156.0560  214.3780  154.7270 C   0  0  0  0  0  3  0  0  0  0  0  0
  155.0370  212.3340  153.9330 C   0  0  0  0  0  3  0  0  0  0  0  0
  154.4470  214.4330  152.9700 F   0  0  0  0  0  0  0  0  0  0  0  0
  157.6730  214.3240  156.5080 O   0  0  0  0  0  1  0  0  0  0  0  0
  155.1730  213.7220  153.8670 C   0  0  0  0  0  0  0  0  0  0  0  0
  155.6320  210.2160  154.9050 O   0  0  0  0  0  1  0  0  0  0  0  0
  156.6780  212.2520  155.7210 C   0  0  0  0  0  0  0  0  0  0  0  0
  1 11  1  1  0  0  0
  1  3  1  0  0  0  0
  2 21  1  1  0  0  0
  2  1  1  0  0  0  0
  2  3  1  0  0  0  0
  3 26  1  6  0  0  0
  4 11  1  0  0  0  0
  5  6  1  0  0  0  0
  5  9  1  0  0  0  0
  6  4  1  0  0  0  0
  7  8  1  0  0  0  0
  8 11  1  0  0  0  0
  9 14  1  6  0  0  0
  9  7  1  0  0  0  0
 10  6  2  0  0  0  0
 11 12  1  1  0  0  0
 13 12  1  0  0  0  0
 15 19  1  0  0  0  0
 16 15  2  0  0  0  0
 16 18  1  0  0  0  0
 18 20  2  0  0  0  0
 19 17  2  0  0  0  0
 20 17  1  0  0  0  0
 20 14  1  0  0  0  0
 22 21  1  0  0  0  0
 23 22  1  0  0  0  0
 24 23  1  0  0  0  0
 25 24  1  0  0  0  0
 27 34  1  0  0  0  0
 27 35  1  0  0  0  0
 28 35  2  0  0  0  0
 28 32  1  0  0  0  0
 29 28  1  0  0  0  0
 30 27  2  0  0  0  0
 31 33  1  0  0  0  0
 33 30  1  0  0  0  0
 33 29  2  0  0  0  0
 35 26  1  0  0  0  0
M  END
>  <MODEL>
8

>  <REMARK>
 VINA RESULT:      -5.0      2.228      4.162
  Name = 
  10 active torsions:
  status: ('A' for Active; 'I' for Inactive)
    1  A    between atoms: C_4  and  C_33
    2  A    between atoms: C_5  and  O_8
    3  A    between atoms: C_5  and  O_24
    4  A    between atoms: N_6  and  C_33
    5  A    between atoms: O_8  and  C_11
    6  A    between atoms: N_9  and  C_25
    7  A    between atoms: N_9  and  C_35
    8  A    between atoms: C_23  and  O_24
    9  A    between atoms: C_27  and  C_31
   10  A    between atoms: C_28  and  C_31
                            x       y       z     vdW  Elec       q    Type
                         _______ _______ _______ _____ _____    ______ ____

>  <TORSDO>
F 10

$$$$
=
 OpenBabel11072411303D

 35 38  0  0  1  0  0  0  0  0999 V2000
  160.9330  211.7200  153.3210 N   0  0  2  0  0  0  0  0  0  0  0  0
  159.5770  212.1770  153.7380 C   0  0  1  0  0  3  0  0  0  0  0  0
  159.8500  211.8900  152.3310 C   0  0  1  0  0  3  0  0  0  0  0  0
  162.5410  209.9530  152.7300 C   0  0  0  0  0  2  0  0  0  0  0  0
  161.4610  208.6700  150.7220 C   0  0  0  0  0  2  0  0  0  0  0  0
  162.2260  209.8450  151.2630 C   0  0  0  0  0  0  0  0  0  0  0  0
  160.2620  207.9690  152.9210 C   0  0  0  0  0  2  0  0  0  0  0  0
  160.0600  209.4750  153.1440 C   0  0  0  0  0  2  0  0  0  0  0  0
  161.2340  207.5920  151.7890 C   0  0  1  0  0  3  0  0  0  0  0  0
  162.5690  210.7380  150.5060 O   0  0  0  0  0  0  0  0  0  0  0  0
  161.2970  210.2950  153.5830 C   0  0  2  0  0  0  0  0  0  0  0  0
  161.5830  209.9710  155.0780 C   0  0  0  0  0  2  0  0  0  0  0  0
  162.7840  210.7040  155.6600 C   0  0  0  0  0  1  0  0  0  0  0  0
  160.8450  206.3260  151.1760 N   0  0  0  0  0  2  0  0  0  0  0  0
  161.7000  205.1180  147.2060 C   0  0  0  0  0  3  0  0  0  0  0  0
  161.4870  204.1650  148.2070 C   0  0  0  0  0  3  0  0  0  0  0  0
  161.3490  206.8880  148.8170 C   0  0  0  0  0  3  0  0  0  0  0  0
  161.2050  204.5740  149.5140 C   0  0  0  0  0  3  0  0  0  0  0  0
  161.6300  206.4800  147.5110 C   0  0  0  0  0  3  0  0  0  0  0  0
  161.1340  205.9360  149.8270 C   0  0  0  0  0  0  0  0  0  0  0  0
  158.7970  211.1550  154.2900 O   0  0  0  0  0  0  0  0  0  0  0  0
  158.3100  211.6900  155.4820 C   0  0  0  0  0  2  0  0  0  0  0  0
  157.6110  212.8660  155.2110 O   0  0  0  0  0  0  0  0  0  0  0  0
  156.2770  212.4670  155.1280 C   0  0  0  0  0  2  0  0  0  0  0  0
  155.4130  213.6650  154.7860 C   0  0  0  0  0  1  0  0  0  0  0  0
  160.0710  213.1850  151.5740 C   0  0  0  0  0  2  0  0  0  0  0  0
  159.7320  213.1240  149.0800 C   0  0  0  0  0  0  0  0  0  0  0  0
  157.7910  213.3480  150.5230 C   0  0  0  0  0  0  0  0  0  0  0  0
  156.9630  213.3640  149.3980 C   0  0  0  0  0  3  0  0  0  0  0  0
  158.8950  213.1380  147.9610 C   0  0  0  0  0  3  0  0  0  0  0  0
  156.7050  213.2740  147.0310 F   0  0  0  0  0  0  0  0  0  0  0  0
  157.2230  213.4440  151.7890 O   0  0  0  0  0  1  0  0  0  0  0  0
  157.5130  213.2590  148.1190 C   0  0  0  0  0  0  0  0  0  0  0  0
  161.1050  213.0020  148.9000 O   0  0  0  0  0  1  0  0  0  0  0  0
  159.1840  213.2330  150.3700 C   0  0  0  0  0  0  0  0  0  0  0  0
  1 11  1  1  0  0  0
  1  2  1  0  0  0  0
  2 21  1  1  0  0  0
  3 26  1  6  0  0  0
  3  1  1  0  0  0  0
  3  2  1  0  0  0  0
  4 11  1  0  0  0  0
  5  6  1  0  0  0  0
  5  9  1  0  0  0  0
  6  4  1  0  0  0  0
  7  8  1  0  0  0  0
  8 11  1  0  0  0  0
  9 14  1  6  0  0  0
  9  7  1  0  0  0  0
 10  6  2  0  0  0  0
 11 12  1  1  0  0  0
 12 13  1  0  0  0  0
 15 19  2  0  0  0  0
 15 16  1  0  0  0  0
 16 18  2  0  0  0  0
 17 20  2  0  0  0  0
 18 20  1  0  0  0  0
 19 17  1  0  0  0  0
 20 14  1  0  0  0  0
 21 22  1  0  0  0  0
 23 22  1  0  0  0  0
 24 23  1  0  0  0  0
 25 24  1  0  0  0  0
 27 35  1  0  0  0  0
 28 32  1  0  0  0  0
 29 28  1  0  0  0  0
 30 33  1  0  0  0  0
 30 27  2  0  0  0  0
 31 33  1  0  0  0  0
 33 29  2  0  0  0  0
 34 27  1  0  0  0  0
 35 28  2  0  0  0  0
 35 26  1  0  0  0  0
M  END
>  <MODEL>
9

>  <REMARK>
 VINA RESULT:      -5.0      1.121      2.188
  Name = 
  10 active torsions:
  status: ('A' for Active; 'I' for Inactive)
    1  A    between atoms: C_4  and  C_33
    2  A    between atoms: C_5  and  O_8
    3  A    between atoms: C_5  and  O_24
    4  A    between atoms: N_6  and  C_33
    5  A    between atoms: O_8  and  C_11
    6  A    between atoms: N_9  and  C_25
    7  A    between atoms: N_9  and  C_35
    8  A    between atoms: C_23  and  O_24
    9  A    between atoms: C_27  and  C_31
   10  A    between atoms: C_28  and  C_31
                            x       y       z     vdW  Elec       q    Type
                         _______ _______ _______ _____ _____    ______ ____

>  <TORSDO>
F 10

$$$$
