=
 OpenBabel11072413263D

 41 46  0  0  1  0  0  0  0  0999 V2000
  159.3200  208.2850  155.7890 O   0  0  0  0  0  0  0  0  0  0  0  0
  160.4450  208.0160  155.2880 C   0  0  0  0  0  0  0  0  0  0  0  0
  160.6010  206.8160  154.5280 N   0  0  0  0  0  2  0  0  0  0  0  0
  161.4010  210.2040  154.6330 C   0  0  0  0  0  2  0  0  0  0  0  0
  161.5940  208.9650  155.4650 C   0  0  1  0  0  3  0  0  0  0  0  0
  161.6580  209.4830  156.8700 C   0  0  0  0  0  2  0  0  0  0  0  0
  161.4360  211.3610  155.5290 N   0  0  2  0  0  0  0  0  0  0  0  0
  161.9310  210.9080  156.7720 N   0  0  0  0  0  2  0  0  0  0  0  0
  156.8570  210.8270  154.1340 O   0  0  0  0  0  0  0  0  0  0  0  0
  159.5380  211.4140  157.0110 N   0  0  0  0  0  2  0  0  0  0  0  0
  157.6950  211.2810  154.9610 C   0  0  0  0  0  0  0  0  0  0  0  0
  159.1400  211.4260  154.5530 C   0  0  2  0  0  3  0  0  0  0  0  0
  160.0650  211.8700  155.7200 C   0  0  2  0  0  3  0  0  0  0  0  0
  158.2750  212.1020  157.2390 C   0  0  0  0  0  2  0  0  0  0  0  0
  157.2850  211.6130  156.2940 N   0  0  0  0  0  0  0  0  0  0  0  0
  155.9290  211.3570  156.7540 C   0  0  0  0  0  1  0  0  0  0  0  0
  159.7340  213.1800  151.2750 C   0  0  0  0  0  3  0  0  0  0  0  0
  159.7390  212.0690  152.1320 C   0  0  0  0  0  3  0  0  0  0  0  0
  159.2470  214.3520  151.8500 C   0  0  0  0  0  3  0  0  0  0  0  0
  159.2470  212.3690  153.3950 C   0  0  0  0  0  0  0  0  0  0  0  0
  158.8270  213.9890  153.4390 S   0  0  0  0  0  0  0  0  0  0  0  0
  161.8750  206.4020  153.9530 C   0  0  0  0  0  2  0  0  0  0  0  0
  161.7270  207.7620  151.9970 O   0  0  0  0  0  0  0  0  0  0  0  0
  161.8690  206.6040  152.4750 C   0  0  0  0  0  0  0  0  0  0  0  0
  162.0080  205.4970  151.6380 O   0  0  0  0  0  0  0  0  0  0  0  0
  161.8910  203.1370  147.7290 C   0  0  2  0  0  3  0  0  0  0  0  0
  160.9030  205.3490  148.3690 C   0  0  0  0  0  3  0  0  0  0  0  0
  160.8940  204.7280  151.1920 C   0  0  2  0  0  3  0  0  0  0  0  0
  160.9240  201.9490  147.8000 C   0  0  0  0  0  2  0  0  0  0  0  0
  160.8740  201.3840  149.2240 C   0  0  0  0  0  2  0  0  0  0  0  0
  161.4400  204.1700  148.7420 C   0  0  0  0  0  0  0  0  0  0  0  0
  161.3430  203.6690  150.1710 C   0  0  2  0  0  3  0  0  0  0  0  0
  160.3800  206.3490  149.3610 C   0  0  0  0  0  2  0  0  0  0  0  0
  160.4130  202.4560  150.2170 C   0  0  0  0  0  2  0  0  0  0  0  0
  159.8270  205.6490  150.5980 C   0  0  0  0  0  2  0  0  0  0  0  0
  160.7380  203.6850  145.5670 C   0  0  0  0  0  3  0  0  0  0  0  0
  162.0630  203.6640  146.2920 C   0  0  1  0  0  3  0  0  0  0  0  0
  162.6910  205.0700  146.2750 C   0  0  0  0  0  2  0  0  0  0  0  0
  162.6610  205.6500  144.8840 C   0  0  0  0  0  3  0  0  0  0  0  0
  161.6300  205.3950  144.0720 C   0  0  0  0  0  3  0  0  0  0  0  0
  160.5600  204.4720  144.5000 C   0  0  0  0  0  3  0  0  0  0  0  0
  2  1  2  0  0  0  0
  3  2  1  0  0  0  0
  4  5  1  0  0  0  0
  5  2  1  1  0  0  0
  5  6  1  0  0  0  0
  7  4  1  6  0  0  0
  7 13  1  0  0  0  0
  7  8  1  0  0  0  0
  8  6  1  0  0  0  0
  9 11  2  0  0  0  0
 10 14  1  0  0  0  0
 11 15  1  0  0  0  0
 12 20  1  6  0  0  0
 12 11  1  0  0  0  0
 12 13  1  0  0  0  0
 13 10  1  1  0  0  0
 15 16  1  0  0  0  0
 15 14  1  0  0  0  0
 17 19  2  0  0  0  0
 17 18  1  0  0  0  0
 18 20  2  0  0  0  0
 19 21  1  0  0  0  0
 20 21  1  0  0  0  0
 22  3  1  0  0  0  0
 23 24  2  0  0  0  0
 24 22  1  0  0  0  0
 25 24  1  0  0  0  0
 26 29  1  6  0  0  0
 26 31  1  0  0  0  0
 27 31  2  0  0  0  0
 27 33  1  0  0  0  0
 28 25  1  6  0  0  0
 29 30  1  0  0  0  0
 30 34  1  0  0  0  0
 31 32  1  0  0  0  0
 32 34  1  6  0  0  0
 32 28  1  0  0  0  0
 33 35  1  0  0  0  0
 35 28  1  0  0  0  0
 37 36  1  1  0  0  0
 37 26  1  0  0  0  0
 38 37  1  0  0  0  0
 39 38  1  0  0  0  0
 40 41  1  0  0  0  0
 40 39  2  0  0  0  0
 41 36  2  0  0  0  0
M  END
>  <MODEL>
1

>  <REMARK>
 VINA RESULT:      -8.1      0.000      0.000
  Name = 
  8 active torsions:
  status: ('A' for Active; 'I' for Inactive)
    1  A    between atoms: C_8  and  C_26
    2  A    between atoms: C_9  and  C_12
    3  A    between atoms: C_11  and  C_31
    4  A    between atoms: C_16  and  N_20
    5  A    between atoms: C_18  and  O_35
    6  A    between atoms: C_18  and  C_36
    7  A    between atoms: C_22  and  O_35
    8  A    between atoms: N_29  and  C_36
                            x       y       z     vdW  Elec       q    Type
                         _______ _______ _______ _____ _____    ______ ____

>  <TORSDO>
F 8

$$$$
=
 OpenBabel11072413263D

 41 46  0  0  1  0  0  0  0  0999 V2000
  160.8270  209.4830  151.3300 O   0  0  0  0  0  0  0  0  0  0  0  0
  161.3860  208.7450  152.1840 C   0  0  0  0  0  0  0  0  0  0  0  0
  162.0320  207.5450  151.7530 N   0  0  0  0  0  2  0  0  0  0  0  0
  161.2960  210.6370  153.7780 C   0  0  0  0  0  2  0  0  0  0  0  0
  161.3980  209.1430  153.6310 C   0  0  1  0  0  3  0  0  0  0  0  0
  160.1850  208.6290  154.3450 C   0  0  0  0  0  2  0  0  0  0  0  0
  160.1220  210.9320  154.6030 N   0  0  2  0  0  0  0  0  0  0  0  0
  159.7110  209.7140  155.1900 N   0  0  0  0  0  2  0  0  0  0  0  0
  156.8760  214.4530  154.0900 O   0  0  0  0  0  0  0  0  0  0  0  0
  159.5990  212.0190  152.5180 N   0  0  0  0  0  2  0  0  0  0  0  0
  157.5280  213.4960  153.5900 C   0  0  0  0  0  0  0  0  0  0  0  0
  158.1600  212.4710  154.4990 C   0  0  2  0  0  3  0  0  0  0  0  0
  159.0360  211.4360  153.7410 C   0  0  2  0  0  3  0  0  0  0  0  0
  158.4910  212.3140  151.6200 C   0  0  0  0  0  2  0  0  0  0  0  0
  157.7070  213.4080  152.1710 N   0  0  0  0  0  0  0  0  0  0  0  0
  157.2250  214.4530  151.2820 C   0  0  0  0  0  1  0  0  0  0  0  0
  155.2160  210.5300  155.8200 C   0  0  0  0  0  3  0  0  0  0  0  0
  156.0640  211.0060  154.8090 C   0  0  0  0  0  3  0  0  0  0  0  0
  155.5680  210.9340  157.1070 C   0  0  0  0  0  3  0  0  0  0  0  0
  157.0980  211.7880  155.3050 C   0  0  0  0  0  0  0  0  0  0  0  0
  156.9450  211.8920  156.9690 S   0  0  0  0  0  0  0  0  0  0  0  0
  162.6630  206.6090  152.6760 C   0  0  0  0  0  2  0  0  0  0  0  0
  161.0670  205.2100  153.7690 O   0  0  0  0  0  0  0  0  0  0  0  0
  161.8500  205.3640  152.7930 C   0  0  0  0  0  0  0  0  0  0  0  0
  161.9800  204.3740  151.8180 O   0  0  0  0  0  0  0  0  0  0  0  0
  161.8430  202.8010  147.5330 C   0  0  2  0  0  3  0  0  0  0  0  0
  160.8850  204.8650  148.5800 C   0  0  0  0  0  3  0  0  0  0  0  0
  160.8570  203.7200  151.2350 C   0  0  2  0  0  3  0  0  0  0  0  0
  160.8600  201.6340  147.3760 C   0  0  0  0  0  2  0  0  0  0  0  0
  160.7970  200.8110  148.6670 C   0  0  0  0  0  2  0  0  0  0  0  0
  161.4040  203.6290  148.7230 C   0  0  0  0  0  0  0  0  0  0  0  0
  161.2950  202.8680  150.0310 C   0  0  2  0  0  3  0  0  0  0  0  0
  160.3720  205.6660  149.7440 C   0  0  0  0  0  2  0  0  0  0  0  0
  160.3490  201.6820  149.8450 C   0  0  0  0  0  2  0  0  0  0  0  0
  159.8050  204.7520  150.8250 C   0  0  0  0  0  2  0  0  0  0  0  0
  160.7880  203.4970  145.3640 C   0  0  0  0  0  3  0  0  0  0  0  0
  162.0270  203.5890  146.2220 C   0  0  1  0  0  3  0  0  0  0  0  0
  162.3700  205.0650  146.4910 C   0  0  0  0  0  2  0  0  0  0  0  0
  162.3420  205.8610  145.2110 C   0  0  0  0  0  3  0  0  0  0  0  0
  161.4500  205.5680  144.2580 C   0  0  0  0  0  3  0  0  0  0  0  0
  160.5490  204.4100  144.4160 C   0  0  0  0  0  3  0  0  0  0  0  0
  1  2  2  0  0  0  0
  3  2  1  0  0  0  0
  3 22  1  0  0  0  0
  5  2  1  6  0  0  0
  5  4  1  0  0  0  0
  5  6  1  0  0  0  0
  6  8  1  0  0  0  0
  7  4  1  6  0  0  0
  7  8  1  0  0  0  0
 11  9  2  0  0  0  0
 11 12  1  0  0  0  0
 12 20  1  6  0  0  0
 13 10  1  6  0  0  0
 13 12  1  0  0  0  0
 13  7  1  0  0  0  0
 14 15  1  0  0  0  0
 14 10  1  0  0  0  0
 15 11  1  0  0  0  0
 16 15  1  0  0  0  0
 17 19  2  0  0  0  0
 18 20  2  0  0  0  0
 18 17  1  0  0  0  0
 20 21  1  0  0  0  0
 21 19  1  0  0  0  0
 22 24  1  0  0  0  0
 24 23  2  0  0  0  0
 25 24  1  0  0  0  0
 26 29  1  6  0  0  0
 26 31  1  0  0  0  0
 27 31  2  0  0  0  0
 27 33  1  0  0  0  0
 28 25  1  6  0  0  0
 29 30  1  0  0  0  0
 30 34  1  0  0  0  0
 31 32  1  0  0  0  0
 32 34  1  6  0  0  0
 32 28  1  0  0  0  0
 33 35  1  0  0  0  0
 35 28  1  0  0  0  0
 37 36  1  6  0  0  0
 37 38  1  0  0  0  0
 37 26  1  0  0  0  0
 39 38  1  0  0  0  0
 40 41  1  0  0  0  0
 40 39  2  0  0  0  0
 41 36  2  0  0  0  0
M  END
>  <MODEL>
2

>  <REMARK>
 VINA RESULT:      -8.0      1.841      3.062
  Name = 
  8 active torsions:
  status: ('A' for Active; 'I' for Inactive)
    1  A    between atoms: C_8  and  C_26
    2  A    between atoms: C_9  and  C_12
    3  A    between atoms: C_11  and  C_31
    4  A    between atoms: C_16  and  N_20
    5  A    between atoms: C_18  and  O_35
    6  A    between atoms: C_18  and  C_36
    7  A    between atoms: C_22  and  O_35
    8  A    between atoms: N_29  and  C_36
                            x       y       z     vdW  Elec       q    Type
                         _______ _______ _______ _____ _____    ______ ____

>  <TORSDO>
F 8

$$$$
=
 OpenBabel11072413263D

 41 46  0  0  1  0  0  0  0  0999 V2000
  162.7050  208.4660  149.8160 O   0  0  0  0  0  0  0  0  0  0  0  0
  162.0030  208.6570  150.8440 C   0  0  0  0  0  0  0  0  0  0  0  0
  161.9730  209.9560  151.4380 N   0  0  0  0  0  2  0  0  0  0  0  0
  160.3130  206.9140  150.3550 C   0  0  0  0  0  2  0  0  0  0  0  0
  161.1840  207.5360  151.4140 C   0  0  1  0  0  3  0  0  0  0  0  0
  162.0550  206.4060  151.8710 C   0  0  0  0  0  2  0  0  0  0  0  0
  160.6340  205.4870  150.2860 N   0  0  2  0  0  0  0  0  0  0  0  0
  161.4090  205.1810  151.4270 N   0  0  0  0  0  2  0  0  0  0  0  0
  160.4620  203.7980  145.7780 O   0  0  0  0  0  0  0  0  0  0  0  0
  161.7490  206.4940  148.4030 N   0  0  0  0  0  2  0  0  0  0  0  0
  161.0650  204.4590  146.6690 C   0  0  0  0  0  0  0  0  0  0  0  0
  160.7080  204.2500  148.1200 C   0  0  2  0  0  3  0  0  0  0  0  0
  161.4400  205.2280  149.0790 C   0  0  2  0  0  3  0  0  0  0  0  0
  162.7060  206.2060  147.3440 C   0  0  0  0  0  2  0  0  0  0  0  0
  162.0490  205.4340  146.3020 N   0  0  0  0  0  0  0  0  0  0  0  0
  162.3150  205.7510  144.9080 C   0  0  0  0  0  1  0  0  0  0  0  0
  161.5110  200.5770  148.3170 C   0  0  0  0  0  3  0  0  0  0  0  0
  161.3850  201.8080  147.6570 C   0  0  0  0  0  3  0  0  0  0  0  0
  161.1910  200.6120  149.6730 C   0  0  0  0  0  3  0  0  0  0  0  0
  160.9680  202.8260  148.5050 C   0  0  0  0  0  0  0  0  0  0  0  0
  160.7480  202.1940  150.0390 S   0  0  0  0  0  0  0  0  0  0  0  0
  161.2260  210.2550  152.6530 C   0  0  0  0  0  2  0  0  0  0  0  0
  159.1180  211.2750  153.1170 O   0  0  0  0  0  0  0  0  0  0  0  0
  160.1290  211.2240  152.3660 C   0  0  0  0  0  0  0  0  0  0  0  0
  160.2330  212.0560  151.2500 O   0  0  0  0  0  0  0  0  0  0  0  0
  158.1850  213.2400  147.3440 C   0  0  2  0  0  3  0  0  0  0  0  0
  160.2660  214.0830  148.4540 C   0  0  0  0  0  3  0  0  0  0  0  0
  159.4260  213.2180  151.0820 C   0  0  2  0  0  3  0  0  0  0  0  0
  156.9300  214.0890  147.5830 C   0  0  0  0  0  2  0  0  0  0  0  0
  156.2540  213.6850  148.8970 C   0  0  0  0  0  2  0  0  0  0  0  0
  159.1010  213.4090  148.5380 C   0  0  0  0  0  0  0  0  0  0  0  0
  158.4850  213.0510  149.8770 C   0  0  2  0  0  3  0  0  0  0  0  0
  161.1460  214.3270  149.6470 C   0  0  0  0  0  2  0  0  0  0  0  0
  157.2100  213.8720  150.0790 C   0  0  0  0  0  2  0  0  0  0  0  0
  160.3150  214.4530  150.9200 C   0  0  0  0  0  2  0  0  0  0  0  0
  159.4160  212.2680  145.3830 C   0  0  0  0  0  3  0  0  0  0  0  0
  158.8340  213.5290  145.9770 C   0  0  1  0  0  3  0  0  0  0  0  0
  157.8290  214.1550  144.9930 C   0  0  0  0  0  2  0  0  0  0  0  0
  158.4200  214.2390  143.6090 C   0  0  0  0  0  3  0  0  0  0  0  0
  159.2400  213.2780  143.1690 C   0  0  0  0  0  3  0  0  0  0  0  0
  159.6410  212.1780  144.0680 C   0  0  0  0  0  3  0  0  0  0  0  0
  1  2  2  0  0  0  0
  2  3  1  0  0  0  0
  3 22  1  0  0  0  0
  4  5  1  0  0  0  0
  5  2  1  6  0  0  0
  5  6  1  0  0  0  0
  7  4  1  1  0  0  0
  7  8  1  0  0  0  0
  8  6  1  0  0  0  0
  9 11  2  0  0  0  0
 11 12  1  0  0  0  0
 12 20  1  1  0  0  0
 12 13  1  0  0  0  0
 13 10  1  6  0  0  0
 13  7  1  0  0  0  0
 14 10  1  0  0  0  0
 15 11  1  0  0  0  0
 15 14  1  0  0  0  0
 16 15  1  0  0  0  0
 17 19  2  0  0  0  0
 18 17  1  0  0  0  0
 18 20  2  0  0  0  0
 19 21  1  0  0  0  0
 20 21  1  0  0  0  0
 24 22  1  0  0  0  0
 24 23  2  0  0  0  0
 25 24  1  0  0  0  0
 26 29  1  1  0  0  0
 26 31  1  0  0  0  0
 27 31  2  0  0  0  0
 27 33  1  0  0  0  0
 28 25  1  6  0  0  0
 29 30  1  0  0  0  0
 30 34  1  0  0  0  0
 31 32  1  0  0  0  0
 32 34  1  1  0  0  0
 32 28  1  0  0  0  0
 33 35  1  0  0  0  0
 35 28  1  0  0  0  0
 36 37  1  0  0  0  0
 37 38  1  6  0  0  0
 37 26  1  0  0  0  0
 39 38  1  0  0  0  0
 40 39  2  0  0  0  0
 40 41  1  0  0  0  0
 41 36  2  0  0  0  0
M  END
>  <MODEL>
3

>  <REMARK>
 VINA RESULT:      -6.5      4.409      9.671
  Name = 
  8 active torsions:
  status: ('A' for Active; 'I' for Inactive)
    1  A    between atoms: C_8  and  C_26
    2  A    between atoms: C_9  and  C_12
    3  A    between atoms: C_11  and  C_31
    4  A    between atoms: C_16  and  N_20
    5  A    between atoms: C_18  and  O_35
    6  A    between atoms: C_18  and  C_36
    7  A    between atoms: C_22  and  O_35
    8  A    between atoms: N_29  and  C_36
                            x       y       z     vdW  Elec       q    Type
                         _______ _______ _______ _____ _____    ______ ____

>  <TORSDO>
F 8

$$$$
=
 OpenBabel11072413263D

 41 46  0  0  1  0  0  0  0  0999 V2000
  162.8600  206.0140  151.2620 O   0  0  0  0  0  0  0  0  0  0  0  0
  161.9400  205.8950  152.1140 C   0  0  0  0  0  0  0  0  0  0  0  0
  161.8550  206.8370  153.1860 N   0  0  0  0  0  2  0  0  0  0  0  0
  160.1350  204.9430  150.7120 C   0  0  0  0  0  2  0  0  0  0  0  0
  160.9290  204.7930  151.9810 C   0  0  1  0  0  3  0  0  0  0  0  0
  161.5970  203.4600  151.8310 C   0  0  0  0  0  2  0  0  0  0  0  0
  160.2940  203.7140  149.9310 N   0  0  2  0  0  0  0  0  0  0  0  0
  160.8750  202.7520  150.7860 N   0  0  0  0  0  2  0  0  0  0  0  0
  160.5960  203.9470  145.1290 O   0  0  0  0  0  0  0  0  0  0  0  0
  161.5070  205.4030  148.7160 N   0  0  0  0  0  2  0  0  0  0  0  0
  161.0850  204.2110  146.2630 C   0  0  0  0  0  0  0  0  0  0  0  0
  160.6180  203.4380  147.4720 C   0  0  2  0  0  3  0  0  0  0  0  0
  161.2120  203.9680  148.8060 C   0  0  2  0  0  3  0  0  0  0  0  0
  162.5650  205.5750  147.7290 C   0  0  0  0  0  2  0  0  0  0  0  0
  162.0420  205.2680  146.4080 N   0  0  0  0  0  0  0  0  0  0  0  0
  162.4070  206.1160  145.2850 C   0  0  0  0  0  1  0  0  0  0  0  0
  161.5880  199.8130  147.7760 C   0  0  0  0  0  3  0  0  0  0  0  0
  161.3660  201.1070  148.2710 C   0  0  0  0  0  3  0  0  0  0  0  0
  161.3280  199.6620  146.4140 C   0  0  0  0  0  3  0  0  0  0  0  0
  160.9210  201.9830  147.2900 C   0  0  0  0  0  0  0  0  0  0  0  0
  160.8220  201.1600  145.8360 S   0  0  0  0  0  0  0  0  0  0  0  0
  160.8520  206.7480  154.2410 C   0  0  0  0  0  2  0  0  0  0  0  0
  161.5990  207.9870  156.1390 O   0  0  0  0  0  0  0  0  0  0  0  0
  160.8890  207.9680  155.0980 C   0  0  0  0  0  0  0  0  0  0  0  0
  160.1170  209.0740  154.7380 O   0  0  0  0  0  0  0  0  0  0  0  0
  158.4370  212.6900  152.5110 C   0  0  2  0  0  3  0  0  0  0  0  0
  160.5400  211.3670  152.1910 C   0  0  0  0  0  3  0  0  0  0  0  0
  160.5660  210.4140  154.9200 C   0  0  2  0  0  3  0  0  0  0  0  0
  158.6000  213.9890  153.3100 C   0  0  0  0  0  2  0  0  0  0  0  0
  158.5140  213.7050  154.8140 C   0  0  0  0  0  2  0  0  0  0  0  0
  159.5000  211.7160  152.9750 C   0  0  0  0  0  0  0  0  0  0  0  0
  159.4880  211.4110  154.4610 C   0  0  2  0  0  3  0  0  0  0  0  0
  161.6440  210.4650  152.6660 C   0  0  0  0  0  2  0  0  0  0  0  0
  159.6050  212.7190  155.2440 C   0  0  0  0  0  2  0  0  0  0  0  0
  161.8770  210.6330  154.1630 C   0  0  0  0  0  2  0  0  0  0  0  0
  157.0500  213.4730  150.5700 C   0  0  0  0  0  3  0  0  0  0  0  0
  158.3990  212.9400  150.9920 C   0  0  1  0  0  3  0  0  0  0  0  0
  159.5070  213.9130  150.5490 C   0  0  0  0  0  2  0  0  0  0  0  0
  159.3270  214.3050  149.1050 C   0  0  0  0  0  3  0  0  0  0  0  0
  158.0990  214.4530  148.5970 C   0  0  0  0  0  3  0  0  0  0  0  0
  156.9140  214.1460  149.4220 C   0  0  0  0  0  3  0  0  0  0  0  0
  1  2  2  0  0  0  0
  2  3  1  0  0  0  0
  3 22  1  0  0  0  0
  4  5  1  0  0  0  0
  5  2  1  6  0  0  0
  6  5  1  0  0  0  0
  7  4  1  1  0  0  0
  7  8  1  0  0  0  0
  8  6  1  0  0  0  0
  9 11  2  0  0  0  0
 11 15  1  0  0  0  0
 11 12  1  0  0  0  0
 12 20  1  6  0  0  0
 12 13  1  0  0  0  0
 13 10  1  6  0  0  0
 13  7  1  0  0  0  0
 14 10  1  0  0  0  0
 15 14  1  0  0  0  0
 16 15  1  0  0  0  0
 17 18  1  0  0  0  0
 19 17  2  0  0  0  0
 20 18  2  0  0  0  0
 21 19  1  0  0  0  0
 21 20  1  0  0  0  0
 22 24  1  0  0  0  0
 24 23  2  0  0  0  0
 25 24  1  0  0  0  0
 26 31  1  0  0  0  0
 26 29  1  1  0  0  0
 27 33  1  0  0  0  0
 27 31  2  0  0  0  0
 28 25  1  6  0  0  0
 29 30  1  0  0  0  0
 30 34  1  0  0  0  0
 31 32  1  0  0  0  0
 32 28  1  0  0  0  0
 32 34  1  1  0  0  0
 33 35  1  0  0  0  0
 35 28  1  0  0  0  0
 36 37  1  0  0  0  0
 37 38  1  1  0  0  0
 37 26  1  0  0  0  0
 39 38  1  0  0  0  0
 40 39  2  0  0  0  0
 40 41  1  0  0  0  0
 41 36  2  0  0  0  0
M  END
>  <MODEL>
4

>  <REMARK>
 VINA RESULT:      -6.4      3.614     10.117
  Name = 
  8 active torsions:
  status: ('A' for Active; 'I' for Inactive)
    1  A    between atoms: C_8  and  C_26
    2  A    between atoms: C_9  and  C_12
    3  A    between atoms: C_11  and  C_31
    4  A    between atoms: C_16  and  N_20
    5  A    between atoms: C_18  and  O_35
    6  A    between atoms: C_18  and  C_36
    7  A    between atoms: C_22  and  O_35
    8  A    between atoms: N_29  and  C_36
                            x       y       z     vdW  Elec       q    Type
                         _______ _______ _______ _____ _____    ______ ____

>  <TORSDO>
F 8

$$$$
=
 OpenBabel11072413263D

 41 46  0  0  1  0  0  0  0  0999 V2000
  158.8320  214.2990  149.0250 O   0  0  0  0  0  0  0  0  0  0  0  0
  159.6010  213.6900  149.8170 C   0  0  0  0  0  0  0  0  0  0  0  0
  159.2510  213.6030  151.2000 N   0  0  0  0  0  2  0  0  0  0  0  0
  160.5530  212.1810  148.1000 C   0  0  0  0  0  2  0  0  0  0  0  0
  160.8500  213.0400  149.3000 C   0  0  1  0  0  3  0  0  0  0  0  0
  161.8170  214.0590  148.7800 C   0  0  0  0  0  2  0  0  0  0  0  0
  161.3780  212.6560  146.9880 N   0  0  2  0  0  0  0  0  0  0  0  0
  162.3450  213.5300  147.5330 N   0  0  0  0  0  2  0  0  0  0  0  0
  159.4160  212.5620  142.5900 O   0  0  0  0  0  0  0  0  0  0  0  0
  159.1320  213.3590  146.4760 N   0  0  0  0  0  2  0  0  0  0  0  0
  159.4560  213.0540  143.7510 C   0  0  0  0  0  0  0  0  0  0  0  0
  160.6910  212.8640  144.5980 C   0  0  2  0  0  3  0  0  0  0  0  0
  160.5330  213.4110  146.0440 C   0  0  2  0  0  3  0  0  0  0  0  0
  158.3770  214.2770  145.6340 C   0  0  0  0  0  2  0  0  0  0  0  0
  158.3190  213.7480  144.2800 N   0  0  0  0  0  0  0  0  0  0  0  0
  157.0700  213.8290  143.5390 C   0  0  0  0  0  1  0  0  0  0  0  0
  163.2000  214.3860  142.2400 C   0  0  0  0  0  3  0  0  0  0  0  0
  161.9440  213.8630  142.5820 C   0  0  0  0  0  3  0  0  0  0  0  0
  164.1190  214.4160  143.2880 C   0  0  0  0  0  3  0  0  0  0  0  0
  161.8710  213.4830  143.9150 C   0  0  0  0  0  0  0  0  0  0  0  0
  163.3490  213.7810  144.6430 S   0  0  0  0  0  0  0  0  0  0  0  0
  160.1030  212.9590  152.1930 C   0  0  0  0  0  2  0  0  0  0  0  0
  158.3130  212.2710  153.6140 O   0  0  0  0  0  0  0  0  0  0  0  0
  159.3330  211.9340  152.9540 C   0  0  0  0  0  0  0  0  0  0  0  0
  159.7650  210.6070  152.9350 O   0  0  0  0  0  0  0  0  0  0  0  0
  161.0790  207.0930  150.3310 C   0  0  2  0  0  3  0  0  0  0  0  0
  160.9460  207.3640  152.8180 C   0  0  0  0  0  3  0  0  0  0  0  0
  161.1220  210.2460  152.6900 C   0  0  2  0  0  3  0  0  0  0  0  0
  162.4710  207.3090  149.7260 C   0  0  0  0  0  2  0  0  0  0  0  0
  162.7130  208.7990  149.4610 C   0  0  0  0  0  2  0  0  0  0  0  0
  160.9790  207.9250  151.5920 C   0  0  0  0  0  0  0  0  0  0  0  0
  161.2340  209.4100  151.4050 C   0  0  2  0  0  3  0  0  0  0  0  0
  160.9280  208.1780  154.0800 C   0  0  0  0  0  2  0  0  0  0  0  0
  162.6060  209.6060  150.7590 C   0  0  0  0  0  2  0  0  0  0  0  0
  161.6860  209.4880  153.8930 C   0  0  0  0  0  2  0  0  0  0  0  0
  160.6700  204.9060  149.1660 C   0  0  0  0  0  3  0  0  0  0  0  0
  160.7450  205.5990  150.5060 C   0  0  1  0  0  3  0  0  0  0  0  0
  161.7720  204.8900  151.4060 C   0  0  0  0  0  2  0  0  0  0  0  0
  161.5490  203.3990  151.3980 C   0  0  0  0  0  3  0  0  0  0  0  0
  161.1390  202.7880  150.2820 C   0  0  0  0  0  3  0  0  0  0  0  0
  160.8160  203.5800  149.0790 C   0  0  0  0  0  3  0  0  0  0  0  0
  1  2  2  0  0  0  0
  2  3  1  0  0  0  0
  3 22  1  0  0  0  0
  4  5  1  0  0  0  0
  5  2  1  6  0  0  0
  6  5  1  0  0  0  0
  7  8  1  0  0  0  0
  7  4  1  1  0  0  0
  8  6  1  0  0  0  0
  9 11  2  0  0  0  0
 11 15  1  0  0  0  0
 11 12  1  0  0  0  0
 12 20  1  6  0  0  0
 12 13  1  0  0  0  0
 13 10  1  1  0  0  0
 13  7  1  0  0  0  0
 14 10  1  0  0  0  0
 15 14  1  0  0  0  0
 16 15  1  0  0  0  0
 17 18  1  0  0  0  0
 17 19  2  0  0  0  0
 18 20  2  0  0  0  0
 19 21  1  0  0  0  0
 20 21  1  0  0  0  0
 22 24  1  0  0  0  0
 24 23  2  0  0  0  0
 25 24  1  0  0  0  0
 26 29  1  1  0  0  0
 26 37  1  0  0  0  0
 26 31  1  0  0  0  0
 27 33  1  0  0  0  0
 28 25  1  1  0  0  0
 28 35  1  0  0  0  0
 30 29  1  0  0  0  0
 30 34  1  0  0  0  0
 31 27  2  0  0  0  0
 32 34  1  1  0  0  0
 32 31  1  0  0  0  0
 32 28  1  0  0  0  0
 35 33  1  0  0  0  0
 37 36  1  6  0  0  0
 37 38  1  0  0  0  0
 39 38  1  0  0  0  0
 40 39  2  0  0  0  0
 41 36  2  0  0  0  0
 41 40  1  0  0  0  0
M  END
>  <MODEL>
5

>  <REMARK>
 VINA RESULT:      -6.1      5.624      8.237
  Name = 
  8 active torsions:
  status: ('A' for Active; 'I' for Inactive)
    1  A    between atoms: C_8  and  C_26
    2  A    between atoms: C_9  and  C_12
    3  A    between atoms: C_11  and  C_31
    4  A    between atoms: C_16  and  N_20
    5  A    between atoms: C_18  and  O_35
    6  A    between atoms: C_18  and  C_36
    7  A    between atoms: C_22  and  O_35
    8  A    between atoms: N_29  and  C_36
                            x       y       z     vdW  Elec       q    Type
                         _______ _______ _______ _____ _____    ______ ____

>  <TORSDO>
F 8

$$$$
=
 OpenBabel11072413263D

 41 46  0  0  1  0  0  0  0  0999 V2000
  162.6120  206.1640  150.7850 O   0  0  0  0  0  0  0  0  0  0  0  0
  161.9310  205.8060  151.7820 C   0  0  0  0  0  0  0  0  0  0  0  0
  162.1410  206.4530  153.0400 N   0  0  0  0  0  2  0  0  0  0  0  0
  160.1420  204.8830  150.3410 C   0  0  0  0  0  2  0  0  0  0  0  0
  160.8910  204.7340  151.6370 C   0  0  1  0  0  3  0  0  0  0  0  0
  161.5210  203.3780  151.5330 C   0  0  0  0  0  2  0  0  0  0  0  0
  160.2860  203.6360  149.5880 N   0  0  2  0  0  0  0  0  0  0  0  0
  160.8100  202.6720  150.4790 N   0  0  0  0  0  2  0  0  0  0  0  0
  160.7500  203.7440  144.7950 O   0  0  0  0  0  0  0  0  0  0  0  0
  161.5810  205.2640  148.3740 N   0  0  0  0  0  2  0  0  0  0  0  0
  161.2090  204.0230  145.9370 C   0  0  0  0  0  0  0  0  0  0  0  0
  160.6830  203.2920  147.1480 C   0  0  2  0  0  3  0  0  0  0  0  0
  161.2470  203.8400  148.4880 C   0  0  2  0  0  3  0  0  0  0  0  0
  162.6740  205.3860  147.4190 C   0  0  0  0  0  2  0  0  0  0  0  0
  162.1860  205.0600  146.0890 N   0  0  0  0  0  0  0  0  0  0  0  0
  162.6100  205.8710  144.9590 C   0  0  0  0  0  1  0  0  0  0  0  0
  161.7150  199.6890  147.5070 C   0  0  0  0  0  3  0  0  0  0  0  0
  161.5810  201.0140  147.9470 C   0  0  0  0  0  3  0  0  0  0  0  0
  161.2050  199.4490  146.2320 C   0  0  0  0  0  3  0  0  0  0  0  0
  160.9560  201.8260  147.0110 C   0  0  0  0  0  0  0  0  0  0  0  0
  160.5910  200.9080  145.6590 S   0  0  0  0  0  0  0  0  0  0  0  0
  161.4320  206.0720  154.2550 C   0  0  0  0  0  2  0  0  0  0  0  0
  159.9710  207.1010  155.8370 O   0  0  0  0  0  0  0  0  0  0  0  0
  160.5910  207.2020  154.7440 C   0  0  0  0  0  0  0  0  0  0  0  0
  160.4900  208.3580  153.9690 O   0  0  0  0  0  0  0  0  0  0  0  0
  158.6860  212.1580  155.7470 C   0  0  2  0  0  3  0  0  0  0  0  0
  159.3510  211.5690  153.4050 C   0  0  0  0  0  3  0  0  0  0  0  0
  161.2270  209.5420  154.2590 C   0  0  2  0  0  3  0  0  0  0  0  0
  159.7190  212.9780  156.5300 C   0  0  0  0  0  2  0  0  0  0  0  0
  160.7540  212.0520  157.1790 C   0  0  0  0  0  2  0  0  0  0  0  0
  159.4270  211.3190  154.7270 C   0  0  0  0  0  0  0  0  0  0  0  0
  160.4870  210.3970  155.3020 C   0  0  2  0  0  3  0  0  0  0  0  0
  160.1420  210.7950  152.3880 C   0  0  0  0  0  2  0  0  0  0  0  0
  161.4820  211.2220  156.1170 C   0  0  0  0  0  2  0  0  0  0  0  0
  161.4730  210.3330  152.9730 C   0  0  0  0  0  2  0  0  0  0  0  0
  158.0830  213.9320  154.0750 C   0  0  0  0  0  3  0  0  0  0  0  0
  157.5580  213.0370  155.1730 C   0  0  1  0  0  3  0  0  0  0  0  0
  156.3900  212.1860  154.6420 C   0  0  0  0  0  2  0  0  0  0  0  0
  155.3980  213.0460  153.9020 C   0  0  0  0  0  3  0  0  0  0  0  0
  155.8200  214.0860  153.1760 C   0  0  0  0  0  3  0  0  0  0  0  0
  157.2500  214.4520  153.1670 C   0  0  0  0  0  3  0  0  0  0  0  0
  1  2  2  0  0  0  0
  2  3  1  0  0  0  0
  3 22  1  0  0  0  0
  4  5  1  0  0  0  0
  5  2  1  6  0  0  0
  6  5  1  0  0  0  0
  7  4  1  1  0  0  0
  7  8  1  0  0  0  0
  8  6  1  0  0  0  0
  9 11  2  0  0  0  0
 11 15  1  0  0  0  0
 11 12  1  0  0  0  0
 12 20  1  6  0  0  0
 12 13  1  0  0  0  0
 13 10  1  6  0  0  0
 13  7  1  0  0  0  0
 14 10  1  0  0  0  0
 15 14  1  0  0  0  0
 16 15  1  0  0  0  0
 17 18  1  0  0  0  0
 19 17  2  0  0  0  0
 20 18  2  0  0  0  0
 21 19  1  0  0  0  0
 21 20  1  0  0  0  0
 22 24  1  0  0  0  0
 24 23  2  0  0  0  0
 25 24  1  0  0  0  0
 26 29  1  6  0  0  0
 27 31  2  0  0  0  0
 28 25  1  6  0  0  0
 28 32  1  0  0  0  0
 29 30  1  0  0  0  0
 31 32  1  0  0  0  0
 31 26  1  0  0  0  0
 32 34  1  6  0  0  0
 33 35  1  0  0  0  0
 33 27  1  0  0  0  0
 34 30  1  0  0  0  0
 35 28  1  0  0  0  0
 37 36  1  6  0  0  0
 37 26  1  0  0  0  0
 38 37  1  0  0  0  0
 39 38  1  0  0  0  0
 40 39  2  0  0  0  0
 41 40  1  0  0  0  0
 41 36  2  0  0  0  0
M  END
>  <MODEL>
6

>  <REMARK>
 VINA RESULT:      -6.0      3.718     10.726
  Name = 
  8 active torsions:
  status: ('A' for Active; 'I' for Inactive)
    1  A    between atoms: C_8  and  C_26
    2  A    between atoms: C_9  and  C_12
    3  A    between atoms: C_11  and  C_31
    4  A    between atoms: C_16  and  N_20
    5  A    between atoms: C_18  and  O_35
    6  A    between atoms: C_18  and  C_36
    7  A    between atoms: C_22  and  O_35
    8  A    between atoms: N_29  and  C_36
                            x       y       z     vdW  Elec       q    Type
                         _______ _______ _______ _____ _____    ______ ____

>  <TORSDO>
F 8

$$$$
=
 OpenBabel11072413263D

 41 46  0  0  1  0  0  0  0  0999 V2000
  158.0940  210.2210  155.9830 O   0  0  0  0  0  0  0  0  0  0  0  0
  159.2520  209.9000  155.6040 C   0  0  0  0  0  0  0  0  0  0  0  0
  159.5530  208.5230  155.3670 N   0  0  0  0  0  2  0  0  0  0  0  0
  159.8420  211.9290  154.3120 C   0  0  0  0  0  2  0  0  0  0  0  0
  160.2890  210.9610  155.3740 C   0  0  1  0  0  3  0  0  0  0  0  0
  160.4650  211.8190  156.5900 C   0  0  0  0  0  2  0  0  0  0  0  0
  159.8470  213.2730  154.8930 N   0  0  2  0  0  0  0  0  0  0  0  0
  160.5460  213.1920  156.1180 N   0  0  0  0  0  2  0  0  0  0  0  0
  155.2430  211.8830  154.6270 O   0  0  0  0  0  0  0  0  0  0  0  0
  158.2000  213.6570  156.6080 N   0  0  0  0  0  2  0  0  0  0  0  0
  156.1160  212.6660  155.0930 C   0  0  0  0  0  0  0  0  0  0  0  0
  157.4490  212.7930  154.3960 C   0  0  2  0  0  3  0  0  0  0  0  0
  158.4590  213.6900  155.1640 C   0  0  2  0  0  3  0  0  0  0  0  0
  156.8960  214.2650  156.8360 C   0  0  0  0  0  2  0  0  0  0  0  0
  155.8620  213.3950  156.3000 N   0  0  0  0  0  0  0  0  0  0  0  0
  154.6410  213.1900  157.0640 C   0  0  0  0  0  1  0  0  0  0  0  0
  156.3390  214.4510  151.2040 C   0  0  0  0  0  3  0  0  0  0  0  0
  156.2970  214.2170  152.5860 C   0  0  0  0  0  3  0  0  0  0  0  0
  157.3060  213.7140  150.5220 C   0  0  0  0  0  3  0  0  0  0  0  0
  157.2440  213.2900  152.9990 C   0  0  0  0  0  0  0  0  0  0  0  0
  158.1030  212.7650  151.6610 S   0  0  0  0  0  0  0  0  0  0  0  0
  160.8770  208.0580  154.9720 C   0  0  0  0  0  2  0  0  0  0  0  0
  160.7240  205.6780  154.8700 O   0  0  0  0  0  0  0  0  0  0  0  0
  160.7760  206.7660  154.2340 C   0  0  0  0  0  0  0  0  0  0  0  0
  160.7570  206.7800  152.8390 O   0  0  0  0  0  0  0  0  0  0  0  0
  160.8800  206.7170  148.2740 C   0  0  2  0  0  3  0  0  0  0  0  0
  161.6810  205.0700  149.9840 C   0  0  0  0  0  3  0  0  0  0  0  0
  161.9130  207.0710  152.0590 C   0  0  2  0  0  3  0  0  0  0  0  0
  161.9600  207.6490  147.7120 C   0  0  0  0  0  2  0  0  0  0  0  0
  162.1460  208.8640  148.6260 C   0  0  0  0  0  2  0  0  0  0  0  0
  161.2840  206.3230  149.6800 C   0  0  0  0  0  0  0  0  0  0  0  0
  161.5110  207.4820  150.6320 C   0  0  2  0  0  3  0  0  0  0  0  0
  162.1610  204.6860  151.3550 C   0  0  0  0  0  2  0  0  0  0  0  0
  162.5560  208.4250  150.0360 C   0  0  0  0  0  2  0  0  0  0  0  0
  162.8490  205.8610  152.0410 C   0  0  0  0  0  2  0  0  0  0  0  0
  160.5370  206.0030  145.8910 C   0  0  0  0  0  3  0  0  0  0  0  0
  160.5750  205.5390  147.3290 C   0  0  1  0  0  3  0  0  0  0  0  0
  161.6020  204.4040  147.4860 C   0  0  0  0  0  2  0  0  0  0  0  0
  161.4110  203.3600  146.4160 C   0  0  0  0  0  3  0  0  0  0  0  0
  161.0320  203.7200  145.1860 C   0  0  0  0  0  3  0  0  0  0  0  0
  160.7120  205.1310  144.8920 C   0  0  0  0  0  3  0  0  0  0  0  0
  2  1  2  0  0  0  0
  3  2  1  0  0  0  0
  4  5  1  0  0  0  0
  5  2  1  1  0  0  0
  5  6  1  0  0  0  0
  7  4  1  1  0  0  0
  7 13  1  0  0  0  0
  7  8  1  0  0  0  0
  8  6  1  0  0  0  0
  9 11  2  0  0  0  0
 10 14  1  0  0  0  0
 11 15  1  0  0  0  0
 12 20  1  6  0  0  0
 12 11  1  0  0  0  0
 12 13  1  0  0  0  0
 13 10  1  1  0  0  0
 15 14  1  0  0  0  0
 15 16  1  0  0  0  0
 17 18  1  0  0  0  0
 18 20  2  0  0  0  0
 19 17  2  0  0  0  0
 19 21  1  0  0  0  0
 21 20  1  0  0  0  0
 22  3  1  0  0  0  0
 24 23  2  0  0  0  0
 24 22  1  0  0  0  0
 25 24  1  0  0  0  0
 26 29  1  6  0  0  0
 26 31  1  0  0  0  0
 27 33  1  0  0  0  0
 28 25  1  1  0  0  0
 29 30  1  0  0  0  0
 30 34  1  0  0  0  0
 31 27  2  0  0  0  0
 31 32  1  0  0  0  0
 32 34  1  6  0  0  0
 32 28  1  0  0  0  0
 33 35  1  0  0  0  0
 35 28  1  0  0  0  0
 37 36  1  6  0  0  0
 37 38  1  0  0  0  0
 37 26  1  0  0  0  0
 39 38  1  0  0  0  0
 40 39  2  0  0  0  0
 41 40  1  0  0  0  0
 41 36  2  0  0  0  0
M  END
>  <MODEL>
7

>  <REMARK>
 VINA RESULT:      -6.0      1.985      3.091
  Name = 
  8 active torsions:
  status: ('A' for Active; 'I' for Inactive)
    1  A    between atoms: C_8  and  C_26
    2  A    between atoms: C_9  and  C_12
    3  A    between atoms: C_11  and  C_31
    4  A    between atoms: C_16  and  N_20
    5  A    between atoms: C_18  and  O_35
    6  A    between atoms: C_18  and  C_36
    7  A    between atoms: C_22  and  O_35
    8  A    between atoms: N_29  and  C_36
                            x       y       z     vdW  Elec       q    Type
                         _______ _______ _______ _____ _____    ______ ____

>  <TORSDO>
F 8

$$$$
=
 OpenBabel11072413263D

 41 46  0  0  1  0  0  0  0  0999 V2000
  159.4680  213.1430  149.7960 O   0  0  0  0  0  0  0  0  0  0  0  0
  160.3070  212.3360  150.2770 C   0  0  0  0  0  0  0  0  0  0  0  0
  160.0570  211.7520  151.5580 N   0  0  0  0  0  2  0  0  0  0  0  0
  161.1720  211.4580  148.1300 C   0  0  0  0  0  2  0  0  0  0  0  0
  161.5360  211.9720  149.4970 C   0  0  1  0  0  3  0  0  0  0  0  0
  162.3760  213.1790  149.2140 C   0  0  0  0  0  2  0  0  0  0  0  0
  161.8450  212.2980  147.1360 N   0  0  2  0  0  0  0  0  0  0  0  0
  162.8050  213.0690  147.8290 N   0  0  0  0  0  2  0  0  0  0  0  0
  158.8280  212.8190  143.4190 O   0  0  0  0  0  0  0  0  0  0  0  0
  159.6160  213.1960  147.2980 N   0  0  0  0  0  2  0  0  0  0  0  0
  159.2070  213.1760  144.5680 C   0  0  0  0  0  0  0  0  0  0  0  0
  160.5940  212.8130  145.0400 C   0  0  2  0  0  3  0  0  0  0  0  0
  160.8600  213.2050  146.5190 C   0  0  2  0  0  3  0  0  0  0  0  0
  158.7580  214.2490  146.7700 C   0  0  0  0  0  2  0  0  0  0  0  0
  158.3100  213.8790  145.4380 N   0  0  0  0  0  0  0  0  0  0  0  0
  156.9270  214.1220  145.0610 C   0  0  0  0  0  1  0  0  0  0  0  0
  163.5700  214.4530  143.4180 C   0  0  0  0  0  3  0  0  0  0  0  0
  162.8600  213.9120  144.5010 C   0  0  0  0  0  3  0  0  0  0  0  0
  162.8940  214.4030  142.2000 C   0  0  0  0  0  3  0  0  0  0  0  0
  161.6130  213.4270  144.1300 C   0  0  0  0  0  0  0  0  0  0  0  0
  161.4010  213.6810  142.4890 S   0  0  0  0  0  0  0  0  0  0  0  0
  160.9930  210.8450  152.2110 C   0  0  0  0  0  2  0  0  0  0  0  0
  159.5140  209.5870  153.6000 O   0  0  0  0  0  0  0  0  0  0  0  0
  160.3030  209.5860  152.6160 C   0  0  0  0  0  0  0  0  0  0  0  0
  160.5550  208.4140  151.9030 O   0  0  0  0  0  0  0  0  0  0  0  0
  160.8750  204.9710  148.9190 C   0  0  2  0  0  3  0  0  0  0  0  0
  162.2350  205.5540  150.9400 C   0  0  0  0  0  3  0  0  0  0  0  0
  161.5050  208.3500  150.8430 C   0  0  2  0  0  3  0  0  0  0  0  0
  161.4730  205.4190  147.5800 C   0  0  0  0  0  2  0  0  0  0  0  0
  161.0840  206.8710  147.2810 C   0  0  0  0  0  2  0  0  0  0  0  0
  161.3530  205.9280  149.9920 C   0  0  0  0  0  0  0  0  0  0  0  0
  161.0230  207.3880  149.7440 C   0  0  2  0  0  3  0  0  0  0  0  0
  162.7790  206.5140  151.9610 C   0  0  0  0  0  2  0  0  0  0  0  0
  161.5860  207.8070  148.3850 C   0  0  0  0  0  2  0  0  0  0  0  0
  162.8690  207.9240  151.3890 C   0  0  0  0  0  2  0  0  0  0  0  0
  160.0590  202.9050  150.0910 C   0  0  0  0  0  3  0  0  0  0  0  0
  161.1410  203.4810  149.2080 C   0  0  1  0  0  3  0  0  0  0  0  0
  161.2480  202.6620  147.9090 C   0  0  0  0  0  2  0  0  0  0  0  0
  161.3010  201.1860  148.2130 C   0  0  0  0  0  3  0  0  0  0  0  0
  160.6000  200.6850  149.2350 C   0  0  0  0  0  3  0  0  0  0  0  0
  159.8430  201.5860  150.1270 C   0  0  0  0  0  3  0  0  0  0  0  0
  1  2  2  0  0  0  0
  2  3  1  0  0  0  0
  3 22  1  0  0  0  0
  4  5  1  0  0  0  0
  5  2  1  1  0  0  0
  6  5  1  0  0  0  0
  7  8  1  0  0  0  0
  7  4  1  1  0  0  0
  8  6  1  0  0  0  0
  9 11  2  0  0  0  0
 11 12  1  0  0  0  0
 11 15  1  0  0  0  0
 12 20  1  6  0  0  0
 12 13  1  0  0  0  0
 13  7  1  0  0  0  0
 13 10  1  1  0  0  0
 14 10  1  0  0  0  0
 15 14  1  0  0  0  0
 16 15  1  0  0  0  0
 17 18  1  0  0  0  0
 19 21  1  0  0  0  0
 19 17  2  0  0  0  0
 20 18  2  0  0  0  0
 21 20  1  0  0  0  0
 22 24  1  0  0  0  0
 24 23  2  0  0  0  0
 25 24  1  0  0  0  0
 26 29  1  6  0  0  0
 26 37  1  0  0  0  0
 26 31  1  0  0  0  0
 27 33  1  0  0  0  0
 28 35  1  0  0  0  0
 28 25  1  1  0  0  0
 30 29  1  0  0  0  0
 30 34  1  0  0  0  0
 31 27  2  0  0  0  0
 32 34  1  6  0  0  0
 32 31  1  0  0  0  0
 32 28  1  0  0  0  0
 35 33  1  0  0  0  0
 36 41  2  0  0  0  0
 37 38  1  6  0  0  0
 37 36  1  0  0  0  0
 38 39  1  0  0  0  0
 39 40  2  0  0  0  0
 40 41  1  0  0  0  0
M  END
>  <MODEL>
8

>  <REMARK>
 VINA RESULT:      -5.8      5.287      7.333
  Name = 
  8 active torsions:
  status: ('A' for Active; 'I' for Inactive)
    1  A    between atoms: C_8  and  C_26
    2  A    between atoms: C_9  and  C_12
    3  A    between atoms: C_11  and  C_31
    4  A    between atoms: C_16  and  N_20
    5  A    between atoms: C_18  and  O_35
    6  A    between atoms: C_18  and  C_36
    7  A    between atoms: C_22  and  O_35
    8  A    between atoms: N_29  and  C_36
                            x       y       z     vdW  Elec       q    Type
                         _______ _______ _______ _____ _____    ______ ____

>  <TORSDO>
F 8

$$$$
=
 OpenBabel11072413263D

 41 46  0  0  1  0  0  0  0  0999 V2000
  160.8920  209.2930  150.1220 O   0  0  0  0  0  0  0  0  0  0  0  0
  161.5640  208.8210  151.0770 C   0  0  0  0  0  0  0  0  0  0  0  0
  161.6390  207.4030  151.2440 N   0  0  0  0  0  2  0  0  0  0  0  0
  161.5780  211.0540  152.1470 C   0  0  0  0  0  2  0  0  0  0  0  0
  162.3000  209.7410  152.0060 C   0  0  1  0  0  3  0  0  0  0  0  0
  162.3270  209.1950  153.4020 C   0  0  0  0  0  2  0  0  0  0  0  0
  161.2880  211.2610  153.5670 N   0  0  2  0  0  0  0  0  0  0  0  0
  162.0490  210.3140  154.2880 N   0  0  0  0  0  2  0  0  0  0  0  0
  157.8110  211.4880  156.8930 O   0  0  0  0  0  0  0  0  0  0  0  0
  159.0460  212.0370  153.1530 N   0  0  0  0  0  2  0  0  0  0  0  0
  158.1500  211.3860  155.6820 C   0  0  0  0  0  0  0  0  0  0  0  0
  159.5550  210.9550  155.3370 C   0  0  2  0  0  3  0  0  0  0  0  0
  159.8560  211.0070  153.8140 C   0  0  2  0  0  3  0  0  0  0  0  0
  157.6500  211.6320  153.2540 C   0  0  0  0  0  2  0  0  0  0  0  0
  157.2240  211.7240  154.6410 N   0  0  0  0  0  0  0  0  0  0  0  0
  155.9120  212.2710  154.9460 C   0  0  0  0  0  1  0  0  0  0  0  0
  159.7130  207.2810  156.1480 C   0  0  0  0  0  3  0  0  0  0  0  0
  159.3120  208.3910  155.3890 C   0  0  0  0  0  3  0  0  0  0  0  0
  160.5210  207.5900  157.2410 C   0  0  0  0  0  3  0  0  0  0  0  0
  159.8130  209.5860  155.8880 C   0  0  0  0  0  0  0  0  0  0  0  0
  160.7250  209.2610  157.2530 S   0  0  0  0  0  0  0  0  0  0  0  0
  162.3540  206.7720  152.3470 C   0  0  0  0  0  2  0  0  0  0  0  0
  161.0430  205.3160  153.7100 O   0  0  0  0  0  0  0  0  0  0  0  0
  161.7470  205.4490  152.6720 C   0  0  0  0  0  0  0  0  0  0  0  0
  161.9820  204.3670  151.8240 O   0  0  0  0  0  0  0  0  0  0  0  0
  161.9600  202.7400  147.5570 C   0  0  2  0  0  3  0  0  0  0  0  0
  160.8000  204.7020  148.5960 C   0  0  0  0  0  3  0  0  0  0  0  0
  160.9280  203.5900  151.2620 C   0  0  2  0  0  3  0  0  0  0  0  0
  161.1050  201.4730  147.4250 C   0  0  0  0  0  2  0  0  0  0  0  0
  161.1470  200.6630  148.7240 C   0  0  0  0  0  2  0  0  0  0  0  0
  161.4500  203.5300  148.7440 C   0  0  0  0  0  0  0  0  0  0  0  0
  161.4400  202.7760  150.0610 C   0  0  2  0  0  3  0  0  0  0  0  0
  160.2190  205.4560  149.7590 C   0  0  0  0  0  2  0  0  0  0  0  0
  160.6230  201.4930  149.9000 C   0  0  0  0  0  2  0  0  0  0  0  0
  159.7670  204.4990  150.8570 C   0  0  0  0  0  2  0  0  0  0  0  0
  160.7660  203.3790  145.4420 C   0  0  0  0  0  3  0  0  0  0  0  0
  162.0430  203.5280  146.2360 C   0  0  1  0  0  3  0  0  0  0  0  0
  162.3340  205.0200  146.4820 C   0  0  0  0  0  2  0  0  0  0  0  0
  162.2060  205.8060  145.2030 C   0  0  0  0  0  3  0  0  0  0  0  0
  161.2810  205.4710  144.2980 C   0  0  0  0  0  3  0  0  0  0  0  0
  160.4400  204.2760  144.5050 C   0  0  0  0  0  3  0  0  0  0  0  0
  1  2  2  0  0  0  0
  2  3  1  0  0  0  0
  3 22  1  0  0  0  0
  5  2  1  6  0  0  0
  5  4  1  0  0  0  0
  5  6  1  0  0  0  0
  6  8  1  0  0  0  0
  7  4  1  6  0  0  0
  7 13  1  0  0  0  0
  7  8  1  0  0  0  0
 10 14  1  0  0  0  0
 11  9  2  0  0  0  0
 12 11  1  0  0  0  0
 12 20  1  6  0  0  0
 13 10  1  6  0  0  0
 13 12  1  0  0  0  0
 14 15  1  0  0  0  0
 15 16  1  0  0  0  0
 15 11  1  0  0  0  0
 17 19  2  0  0  0  0
 18 20  2  0  0  0  0
 18 17  1  0  0  0  0
 19 21  1  0  0  0  0
 20 21  1  0  0  0  0
 22 24  1  0  0  0  0
 24 23  2  0  0  0  0
 25 24  1  0  0  0  0
 26 29  1  6  0  0  0
 26 31  1  0  0  0  0
 27 31  2  0  0  0  0
 27 33  1  0  0  0  0
 28 25  1  6  0  0  0
 29 30  1  0  0  0  0
 30 34  1  0  0  0  0
 31 32  1  0  0  0  0
 32 34  1  6  0  0  0
 32 28  1  0  0  0  0
 33 35  1  0  0  0  0
 35 28  1  0  0  0  0
 37 36  1  1  0  0  0
 37 38  1  0  0  0  0
 37 26  1  0  0  0  0
 39 38  1  0  0  0  0
 40 41  1  0  0  0  0
 40 39  2  0  0  0  0
 41 36  2  0  0  0  0
M  END
>  <MODEL>
9

>  <REMARK>
 VINA RESULT:      -5.6      2.021      3.132
  Name = 
  8 active torsions:
  status: ('A' for Active; 'I' for Inactive)
    1  A    between atoms: C_8  and  C_26
    2  A    between atoms: C_9  and  C_12
    3  A    between atoms: C_11  and  C_31
    4  A    between atoms: C_16  and  N_20
    5  A    between atoms: C_18  and  O_35
    6  A    between atoms: C_18  and  C_36
    7  A    between atoms: C_22  and  O_35
    8  A    between atoms: N_29  and  C_36
                            x       y       z     vdW  Elec       q    Type
                         _______ _______ _______ _____ _____    ______ ____

>  <TORSDO>
F 8

$$$$
