=
 OpenBabel11072414383D

 26 29  0  0  1  0  0  0  0  0999 V2000
  160.5310  205.9040  149.1090 C   0  0  2  0  0  3  0  0  0  0  0  0
  161.7090  205.8690  150.0720 C   0  0  1  0  0  3  0  0  0  0  0  0
  161.1690  204.1420  151.8510 C   0  0  0  0  0  2  0  0  0  0  0  0
  160.2850  203.4140  150.8670 C   0  0  0  0  0  2  0  0  0  0  0  0
  161.1570  205.6120  151.4810 C   0  0  1  0  0  3  0  0  0  0  0  0
  160.9390  203.4190  149.4920 C   0  0  0  0  0  2  0  0  0  0  0  0
  161.5240  204.7660  149.0160 C   0  0  1  0  0  3  0  0  0  0  0  0
  160.9260  206.4900  146.6860 C   0  0  0  0  0  3  0  0  0  0  0  0
  160.8020  205.2520  146.3210 N   0  0  0  0  0  0  0  0  0  0  0  0
  160.8020  206.8700  148.0560 N   0  0  0  0  0  2  0  0  0  0  0  0
  160.9220  204.8440  144.9570 C   0  0  0  0  0  0  0  0  0  0  0  0
  160.4630  203.5900  144.5770 O   0  0  0  0  0  1  0  0  0  0  0  0
  161.4380  205.6040  144.0960 O   0  0  0  0  0  0  0  0  0  0  0  0
  161.9540  206.3990  152.5090 C   0  0  0  0  0  2  0  0  0  0  0  0
  159.0450  207.3520  155.8660 C   0  0  0  0  0  1  0  0  0  0  0  0
  159.1550  211.6360  153.7590 C   0  0  0  0  0  1  0  0  0  0  0  0
  161.0770  209.2710  151.8390 C   0  0  0  0  0  2  0  0  0  0  0  0
  160.6540  209.2490  155.5360 C   0  0  0  0  0  2  0  0  0  0  0  0
  161.2960  206.8660  154.8790 C   0  0  0  0  0  2  0  0  0  0  0  0
  160.5120  207.7520  155.8690 C   0  0  0  0  0  0  0  0  0  0  0  0
  160.7720  210.7490  152.0840 C   0  0  0  0  0  2  0  0  0  0  0  0
  160.3300  209.4760  154.0650 C   0  0  1  0  0  3  0  0  0  0  0  0
  161.0620  207.5180  157.2590 C   0  0  0  0  0  1  0  0  0  0  0  0
  160.4640  210.8950  153.5740 C   0  0  2  0  0  3  0  0  0  0  0  0
  161.3050  208.7100  153.2230 C   0  0  1  0  0  3  0  0  0  0  0  0
  161.0360  207.2220  153.4030 C   0  0  1  0  0  3  0  0  0  0  0  0
  1 10  1  6  0  0  0
  1  2  1  0  0  0  0
  2  5  1  0  0  0  0
  4  3  1  0  0  0  0
  5  3  1  0  0  0  0
  5 14  1  0  0  0  0
  6  4  1  0  0  0  0
  7  1  1  0  0  0  0
  7  6  1  0  0  0  0
  7  2  1  0  0  0  0
  8 10  1  0  0  0  0
  9  8  2  0  0  0  0
 11  9  1  0  0  0  0
 12 11  1  0  0  0  0
 13 11  2  0  0  0  0
 14 26  1  0  0  0  0
 15 20  1  0  0  0  0
 17 21  1  0  0  0  0
 17 25  1  0  0  0  0
 18 20  1  0  0  0  0
 19 20  1  0  0  0  0
 20 23  1  0  0  0  0
 21 24  1  0  0  0  0
 22 18  1  0  0  0  0
 24 16  1  0  0  0  0
 24 22  1  0  0  0  0
 25 26  1  0  0  0  0
 25 22  1  0  0  0  0
 26 19  1  0  0  0  0
M  END
>  <MODEL>
1

>  <REMARK>
 VINA RESULT:      -8.8      0.000      0.000
  Name = 
  4 active torsions:
  status: ('A' for Active; 'I' for Inactive)
    1  A    between atoms: C_1  and  N_21
    2  A    between atoms: C_4  and  N_25
    3  A    between atoms: C_15  and  C_18
    4  A    between atoms: C_18  and  C_26
                            x       y       z     vdW  Elec       q    Type
                         _______ _______ _______ _____ _____    ______ ____

>  <TORSDO>
F 4

$$$$
=
 OpenBabel11072414383D

 26 29  0  0  1  0  0  0  0  0999 V2000
  161.6700  206.0390  151.0380 C   0  0  2  0  0  3  0  0  0  0  0  0
  161.0780  207.3990  151.3780 C   0  0  1  0  0  3  0  0  0  0  0  0
  161.9620  209.0500  149.6650 C   0  0  0  0  0  2  0  0  0  0  0  0
  162.1190  207.9240  148.6710 C   0  0  0  0  0  2  0  0  0  0  0  0
  162.1330  208.4670  151.0530 C   0  0  1  0  0  3  0  0  0  0  0  0
  160.9350  206.9730  148.7850 C   0  0  0  0  0  2  0  0  0  0  0  0
  160.5150  206.5670  150.2140 C   0  0  1  0  0  3  0  0  0  0  0  0
  160.8620  203.7140  151.5970 C   0  0  0  0  0  3  0  0  0  0  0  0
  161.0040  203.3220  150.3700 N   0  0  0  0  0  0  0  0  0  0  0  0
  161.1760  205.0520  151.9850 N   0  0  0  0  0  2  0  0  0  0  0  0
  160.6980  201.9900  149.9550 C   0  0  0  0  0  0  0  0  0  0  0  0
  159.7200  201.7820  148.9920 O   0  0  0  0  0  0  0  0  0  0  0  0
  161.3010  201.0020  150.4520 O   0  0  0  0  0  1  0  0  0  0  0  0
  162.0820  209.5850  152.0820 C   0  0  0  0  0  2  0  0  0  0  0  0
  159.9480  207.3070  155.3840 C   0  0  0  0  0  1  0  0  0  0  0  0
  157.0100  211.0580  155.0700 C   0  0  0  0  0  1  0  0  0  0  0  0
  159.5310  211.2520  152.5050 C   0  0  0  0  0  2  0  0  0  0  0  0
  159.9700  209.7650  155.8870 C   0  0  0  0  0  2  0  0  0  0  0  0
  161.7740  208.7210  154.4120 C   0  0  0  0  0  2  0  0  0  0  0  0
  160.8350  208.5200  155.6190 C   0  0  0  0  0  0  0  0  0  0  0  0
  158.4510  212.0120  153.2750 C   0  0  0  0  0  2  0  0  0  0  0  0
  159.2850  210.1960  154.5970 C   0  0  1  0  0  3  0  0  0  0  0  0
  161.6830  208.2530  156.8450 C   0  0  0  0  0  1  0  0  0  0  0  0
  158.4280  211.4330  154.6890 C   0  0  2  0  0  3  0  0  0  0  0  0
  160.3280  210.5540  153.5830 C   0  0  1  0  0  3  0  0  0  0  0  0
  161.0590  209.2840  153.1700 C   0  0  1  0  0  3  0  0  0  0  0  0
  1  2  1  0  0  0  0
  1 10  1  1  0  0  0
  3  5  1  0  0  0  0
  4  6  1  0  0  0  0
  4  3  1  0  0  0  0
  5  2  1  0  0  0  0
  5 14  1  0  0  0  0
  6  7  1  0  0  0  0
  7  1  1  0  0  0  0
  7  2  1  0  0  0  0
  8 10  1  0  0  0  0
  9  8  2  0  0  0  0
 11  9  1  0  0  0  0
 11 13  1  0  0  0  0
 12 11  2  0  0  0  0
 14 26  1  0  0  0  0
 15 20  1  0  0  0  0
 17 21  1  0  0  0  0
 17 25  1  0  0  0  0
 19 20  1  0  0  0  0
 20 18  1  0  0  0  0
 20 23  1  0  0  0  0
 21 24  1  0  0  0  0
 22 24  1  0  0  0  0
 22 18  1  0  0  0  0
 24 16  1  0  0  0  0
 25 22  1  0  0  0  0
 26 25  1  0  0  0  0
 26 19  1  0  0  0  0
M  END
>  <MODEL>
2

>  <REMARK>
 VINA RESULT:      -8.0      2.454      3.620
  Name = 
  4 active torsions:
  status: ('A' for Active; 'I' for Inactive)
    1  A    between atoms: C_1  and  N_21
    2  A    between atoms: C_4  and  N_25
    3  A    between atoms: C_15  and  C_18
    4  A    between atoms: C_18  and  C_26
                            x       y       z     vdW  Elec       q    Type
                         _______ _______ _______ _____ _____    ______ ____

>  <TORSDO>
F 4

$$$$
=
 OpenBabel11072414383D

 26 29  0  0  1  0  0  0  0  0999 V2000
  160.8520  207.3130  152.2640 C   0  0  2  0  0  3  0  0  0  0  0  0
  161.8060  206.3760  151.5390 C   0  0  1  0  0  3  0  0  0  0  0  0
  161.8220  207.0670  149.0970 C   0  0  0  0  0  2  0  0  0  0  0  0
  161.4550  208.4760  149.5010 C   0  0  0  0  0  2  0  0  0  0  0  0
  161.2420  206.1250  150.1330 C   0  0  1  0  0  3  0  0  0  0  0  0
  162.2130  208.8580  150.7650 C   0  0  0  0  0  2  0  0  0  0  0  0
  162.2340  207.8090  151.8970 C   0  0  1  0  0  3  0  0  0  0  0  0
  160.6900  207.9530  154.7010 C   0  0  0  0  0  3  0  0  0  0  0  0
  160.5920  209.2120  154.4090 N   0  0  0  0  0  0  0  0  0  0  0  0
  160.8220  206.9670  153.6760 N   0  0  0  0  0  2  0  0  0  0  0  0
  160.4590  210.2190  155.4130 C   0  0  0  0  0  0  0  0  0  0  0  0
  161.2280  211.3720  155.3310 O   0  0  0  0  0  0  0  0  0  0  0  0
  159.6550  210.0750  156.3730 O   0  0  0  0  0  1  0  0  0  0  0  0
  161.5010  204.6880  149.7120 C   0  0  0  0  0  2  0  0  0  0  0  0
  160.3450  205.6770  145.4300 C   0  0  0  0  0  1  0  0  0  0  0  0
  159.9120  200.9270  145.2220 C   0  0  0  0  0  1  0  0  0  0  0  0
  160.6590  201.9470  148.5940 C   0  0  0  0  0  2  0  0  0  0  0  0
  161.8170  203.6470  145.4940 C   0  0  0  0  0  2  0  0  0  0  0  0
  161.9320  205.3970  147.3490 C   0  0  0  0  0  2  0  0  0  0  0  0
  161.7060  205.1420  145.8440 C   0  0  0  0  0  0  0  0  0  0  0  0
  160.6050  200.7780  147.6110 C   0  0  0  0  0  2  0  0  0  0  0  0
  160.9290  202.8380  146.4290 C   0  0  1  0  0  3  0  0  0  0  0  0
  162.7650  205.8950  145.0680 C   0  0  0  0  0  1  0  0  0  0  0  0
  160.9590  201.3430  146.2360 C   0  0  2  0  0  3  0  0  0  0  0  0
  161.3980  203.0280  147.8390 C   0  0  1  0  0  3  0  0  0  0  0  0
  161.1090  204.4640  148.2570 C   0  0  1  0  0  3  0  0  0  0  0  0
  1 10  1  1  0  0  0
  2  7  1  0  0  0  0
  2  1  1  0  0  0  0
  3  4  1  0  0  0  0
  3  5  1  0  0  0  0
  4  6  1  0  0  0  0
  5  2  1  0  0  0  0
  6  7  1  0  0  0  0
  7  1  1  0  0  0  0
  9  8  2  0  0  0  0
  9 11  1  0  0  0  0
 10  8  1  0  0  0  0
 11 13  1  0  0  0  0
 12 11  2  0  0  0  0
 14  5  1  0  0  0  0
 15 20  1  0  0  0  0
 16 24  1  0  0  0  0
 18 20  1  0  0  0  0
 18 22  1  0  0  0  0
 19 26  1  0  0  0  0
 20 19  1  0  0  0  0
 21 17  1  0  0  0  0
 22 25  1  0  0  0  0
 23 20  1  0  0  0  0
 24 22  1  0  0  0  0
 24 21  1  0  0  0  0
 25 26  1  0  0  0  0
 25 17  1  0  0  0  0
 26 14  1  0  0  0  0
M  END
>  <MODEL>
3

>  <REMARK>
 VINA RESULT:      -7.9      4.371      8.937
  Name = 
  4 active torsions:
  status: ('A' for Active; 'I' for Inactive)
    1  A    between atoms: C_1  and  N_21
    2  A    between atoms: C_4  and  N_25
    3  A    between atoms: C_15  and  C_18
    4  A    between atoms: C_18  and  C_26
                            x       y       z     vdW  Elec       q    Type
                         _______ _______ _______ _____ _____    ______ ____

>  <TORSDO>
F 4

$$$$
=
 OpenBabel11072414383D

 26 29  0  0  1  0  0  0  0  0999 V2000
  161.4210  207.2850  150.0040 C   0  0  2  0  0  3  0  0  0  0  0  0
  161.8880  208.3520  150.9850 C   0  0  1  0  0  3  0  0  0  0  0  0
  161.0660  207.6640  153.2850 C   0  0  0  0  0  2  0  0  0  0  0  0
  161.0780  206.2180  152.8500 C   0  0  0  0  0  2  0  0  0  0  0  0
  160.8020  208.5130  152.0580 C   0  0  1  0  0  3  0  0  0  0  0  0
  162.3050  205.9540  151.9870 C   0  0  0  0  0  2  0  0  0  0  0  0
  162.6120  206.9980  150.8930 C   0  0  1  0  0  3  0  0  0  0  0  0
  161.9900  206.6560  147.6270 C   0  0  0  0  0  3  0  0  0  0  0  0
  161.6750  205.4160  147.8340 N   0  0  0  0  0  0  0  0  0  0  0  0
  161.8840  207.6270  148.6690 N   0  0  0  0  0  2  0  0  0  0  0  0
  161.7710  204.4250  146.8100 C   0  0  0  0  0  0  0  0  0  0  0  0
  161.3670  203.1240  147.0780 O   0  0  0  0  0  1  0  0  0  0  0  0
  162.2190  204.7140  145.6680 O   0  0  0  0  0  0  0  0  0  0  0  0
  160.6820  209.9720  152.4680 C   0  0  0  0  0  2  0  0  0  0  0  0
  161.4270  209.2710  156.8950 C   0  0  0  0  0  1  0  0  0  0  0  0
  157.6300  212.1460  157.2410 C   0  0  0  0  0  1  0  0  0  0  0  0
  158.2850  211.3860  153.7830 C   0  0  0  0  0  2  0  0  0  0  0  0
  160.8380  211.6740  156.4750 C   0  0  0  0  0  2  0  0  0  0  0  0
  161.8990  210.2520  154.6380 C   0  0  0  0  0  2  0  0  0  0  0  0
  161.8250  210.5370  156.1530 C   0  0  0  0  0  0  0  0  0  0  0  0
  157.5470  212.3040  154.7560 C   0  0  0  0  0  2  0  0  0  0  0  0
  159.5010  211.3920  155.8020 C   0  0  1  0  0  3  0  0  0  0  0  0
  163.2010  210.9500  156.6290 C   0  0  0  0  0  1  0  0  0  0  0  0
  158.4350  212.4410  155.9920 C   0  0  2  0  0  3  0  0  0  0  0  0
  159.6980  211.3450  154.3170 C   0  0  1  0  0  3  0  0  0  0  0  0
  160.5160  210.1060  153.9760 C   0  0  1  0  0  3  0  0  0  0  0  0
  1 10  1  6  0  0  0
  1  7  1  0  0  0  0
  1  2  1  0  0  0  0
  2  5  1  0  0  0  0
  4  3  1  0  0  0  0
  5 14  1  0  0  0  0
  5  3  1  0  0  0  0
  6  4  1  0  0  0  0
  7  2  1  0  0  0  0
  7  6  1  0  0  0  0
  8  9  2  0  0  0  0
  8 10  1  0  0  0  0
 11 12  1  0  0  0  0
 11  9  1  0  0  0  0
 13 11  2  0  0  0  0
 14 26  1  0  0  0  0
 17 25  1  0  0  0  0
 17 21  1  0  0  0  0
 19 20  1  0  0  0  0
 20 18  1  0  0  0  0
 20 23  1  0  0  0  0
 20 15  1  0  0  0  0
 21 24  1  0  0  0  0
 22 24  1  0  0  0  0
 22 18  1  0  0  0  0
 24 16  1  0  0  0  0
 25 22  1  0  0  0  0
 26 25  1  0  0  0  0
 26 19  1  0  0  0  0
M  END
>  <MODEL>
4

>  <REMARK>
 VINA RESULT:      -7.8      1.867      3.120
  Name = 
  4 active torsions:
  status: ('A' for Active; 'I' for Inactive)
    1  A    between atoms: C_1  and  N_21
    2  A    between atoms: C_4  and  N_25
    3  A    between atoms: C_15  and  C_18
    4  A    between atoms: C_18  and  C_26
                            x       y       z     vdW  Elec       q    Type
                         _______ _______ _______ _____ _____    ______ ____

>  <TORSDO>
F 4

$$$$
=
 OpenBabel11072414383D

 26 29  0  0  1  0  0  0  0  0999 V2000
  160.9940  210.2330  151.5680 C   0  0  2  0  0  3  0  0  0  0  0  0
  162.1450  209.2980  151.2250 C   0  0  1  0  0  3  0  0  0  0  0  0
  162.1550  209.0160  148.7040 C   0  0  0  0  0  2  0  0  0  0  0  0
  161.5070  210.3710  148.5560 C   0  0  0  0  0  2  0  0  0  0  0  0
  161.7130  208.4350  150.0320 C   0  0  1  0  0  3  0  0  0  0  0  0
  162.1110  211.3390  149.5640 C   0  0  0  0  0  2  0  0  0  0  0  0
  162.2730  210.8150  151.0070 C   0  0  1  0  0  3  0  0  0  0  0  0
  160.8780  209.3550  153.9320 C   0  0  0  0  0  3  0  0  0  0  0  0
  160.8310  208.1280  153.5200 N   0  0  0  0  0  0  0  0  0  0  0  0
  160.9580  210.4410  153.0070 N   0  0  0  0  0  2  0  0  0  0  0  0
  160.7510  207.0230  154.4230 C   0  0  0  0  0  0  0  0  0  0  0  0
  160.2180  207.2140  155.6910 O   0  0  0  0  0  1  0  0  0  0  0  0
  161.1590  205.8800  154.0850 O   0  0  0  0  0  0  0  0  0  0  0  0
  162.2620  207.0260  150.1760 C   0  0  0  0  0  2  0  0  0  0  0  0
  160.4400  205.5510  146.2840 C   0  0  0  0  0  1  0  0  0  0  0  0
  159.6210  201.6950  148.9780 C   0  0  0  0  0  1  0  0  0  0  0  0
  161.0310  204.3260  150.9930 C   0  0  0  0  0  2  0  0  0  0  0  0
  161.7430  203.7160  147.3920 C   0  0  0  0  0  2  0  0  0  0  0  0
  162.3170  206.1660  147.8250 C   0  0  0  0  0  2  0  0  0  0  0  0
  161.8090  205.1340  146.7970 C   0  0  0  0  0  0  0  0  0  0  0  0
  160.7150  202.8330  150.9060 C   0  0  0  0  0  2  0  0  0  0  0  0
  160.9770  203.7510  148.7080 C   0  0  1  0  0  3  0  0  0  0  0  0
  162.7660  205.1160  145.6250 C   0  0  0  0  0  1  0  0  0  0  0  0
  160.8600  202.4370  149.4370 C   0  0  2  0  0  3  0  0  0  0  0  0
  161.7020  204.6360  149.6760 C   0  0  1  0  0  3  0  0  0  0  0  0
  161.6010  206.0750  149.1860 C   0  0  1  0  0  3  0  0  0  0  0  0
  1 10  1  1  0  0  0
  2  1  1  0  0  0  0
  3  5  1  0  0  0  0
  4  3  1  0  0  0  0
  4  6  1  0  0  0  0
  5 14  1  0  0  0  0
  5  2  1  0  0  0  0
  6  7  1  0  0  0  0
  7  2  1  0  0  0  0
  7  1  1  0  0  0  0
  9  8  2  0  0  0  0
  9 11  1  0  0  0  0
 10  8  1  0  0  0  0
 11 12  1  0  0  0  0
 13 11  2  0  0  0  0
 15 20  1  0  0  0  0
 16 24  1  0  0  0  0
 18 22  1  0  0  0  0
 19 26  1  0  0  0  0
 20 18  1  0  0  0  0
 20 19  1  0  0  0  0
 21 17  1  0  0  0  0
 22 24  1  0  0  0  0
 22 25  1  0  0  0  0
 23 20  1  0  0  0  0
 24 21  1  0  0  0  0
 25 17  1  0  0  0  0
 26 25  1  0  0  0  0
 26 14  1  0  0  0  0
M  END
>  <MODEL>
5

>  <REMARK>
 VINA RESULT:      -7.8      3.772      7.919
  Name = 
  4 active torsions:
  status: ('A' for Active; 'I' for Inactive)
    1  A    between atoms: C_1  and  N_21
    2  A    between atoms: C_4  and  N_25
    3  A    between atoms: C_15  and  C_18
    4  A    between atoms: C_18  and  C_26
                            x       y       z     vdW  Elec       q    Type
                         _______ _______ _______ _____ _____    ______ ____

>  <TORSDO>
F 4

$$$$
=
 OpenBabel11072414383D

 26 29  0  0  1  0  0  0  0  0999 V2000
  160.1190  209.1050  154.2310 C   0  0  2  0  0  3  0  0  0  0  0  0
  161.3260  208.2490  153.8750 C   0  0  1  0  0  3  0  0  0  0  0  0
  161.9250  208.7680  151.4640 C   0  0  0  0  0  2  0  0  0  0  0  0
  161.3190  210.1420  151.6160 C   0  0  0  0  0  2  0  0  0  0  0  0
  161.1900  207.8330  152.4030 C   0  0  1  0  0  3  0  0  0  0  0  0
  161.6640  210.7040  152.9890 C   0  0  0  0  0  2  0  0  0  0  0  0
  161.4890  209.7460  154.1860 C   0  0  1  0  0  3  0  0  0  0  0  0
  159.0480  209.8200  156.4020 C   0  0  0  0  0  3  0  0  0  0  0  0
  158.7170  210.9720  155.9100 N   0  0  0  0  0  0  0  0  0  0  0  0
  159.7460  208.8550  155.6140 N   0  0  0  0  0  2  0  0  0  0  0  0
  158.0180  211.9550  156.6760 C   0  0  0  0  0  0  0  0  0  0  0  0
  156.6470  211.8350  156.8550 O   0  0  0  0  0  0  0  0  0  0  0  0
  158.6290  212.9310  157.1890 O   0  0  0  0  0  1  0  0  0  0  0  0
  161.7020  206.4150  152.2090 C   0  0  0  0  0  2  0  0  0  0  0  0
  159.9890  206.2170  148.0050 C   0  0  0  0  0  1  0  0  0  0  0  0
  159.8530  201.5640  149.0660 C   0  0  0  0  0  1  0  0  0  0  0  0
  160.9200  203.4500  151.9420 C   0  0  0  0  0  2  0  0  0  0  0  0
  161.5910  204.3250  148.3890 C   0  0  0  0  0  2  0  0  0  0  0  0
  161.8050  206.5000  149.7090 C   0  0  0  0  0  2  0  0  0  0  0  0
  161.4230  205.8550  148.3600 C   0  0  0  0  0  0  0  0  0  0  0  0
  160.8290  202.0650  151.3030 C   0  0  0  0  0  2  0  0  0  0  0  0
  160.8740  203.7560  149.6060 C   0  0  1  0  0  3  0  0  0  0  0  0
  162.3310  206.4160  147.2870 C   0  0  0  0  0  1  0  0  0  0  0  0
  160.9810  202.2650  149.7950 C   0  0  2  0  0  3  0  0  0  0  0  0
  161.4910  204.3220  150.8490 C   0  0  1  0  0  3  0  0  0  0  0  0
  161.1580  205.8070  150.9220 C   0  0  1  0  0  3  0  0  0  0  0  0
  1 10  1  1  0  0  0
  2  7  1  0  0  0  0
  2  1  1  0  0  0  0
  3  4  1  0  0  0  0
  3  5  1  0  0  0  0
  4  6  1  0  0  0  0
  5  2  1  0  0  0  0
  6  7  1  0  0  0  0
  7  1  1  0  0  0  0
  9  8  2  0  0  0  0
  9 11  1  0  0  0  0
 10  8  1  0  0  0  0
 11 12  2  0  0  0  0
 11 13  1  0  0  0  0
 14  5  1  0  0  0  0
 15 20  1  0  0  0  0
 16 24  1  0  0  0  0
 18 22  1  0  0  0  0
 19 26  1  0  0  0  0
 20 18  1  0  0  0  0
 20 19  1  0  0  0  0
 21 17  1  0  0  0  0
 22 24  1  0  0  0  0
 22 25  1  0  0  0  0
 23 20  1  0  0  0  0
 24 21  1  0  0  0  0
 25 26  1  0  0  0  0
 25 17  1  0  0  0  0
 26 14  1  0  0  0  0
M  END
>  <MODEL>
6

>  <REMARK>
 VINA RESULT:      -7.7      5.104      8.663
  Name = 
  4 active torsions:
  status: ('A' for Active; 'I' for Inactive)
    1  A    between atoms: C_1  and  N_21
    2  A    between atoms: C_4  and  N_25
    3  A    between atoms: C_15  and  C_18
    4  A    between atoms: C_18  and  C_26
                            x       y       z     vdW  Elec       q    Type
                         _______ _______ _______ _____ _____    ______ ____

>  <TORSDO>
F 4

$$$$
=
 OpenBabel11072414383D

 26 29  0  0  1  0  0  0  0  0999 V2000
  161.7880  208.8090  152.7970 C   0  0  2  0  0  3  0  0  0  0  0  0
  160.6130  208.0520  152.1930 C   0  0  1  0  0  3  0  0  0  0  0  0
  161.0030  205.5850  152.6400 C   0  0  0  0  0  2  0  0  0  0  0  0
  161.8170  205.9410  153.8600 C   0  0  0  0  0  2  0  0  0  0  0  0
  161.1430  206.7190  151.6450 C   0  0  1  0  0  3  0  0  0  0  0  0
  161.1640  207.1090  154.5880 C   0  0  0  0  0  2  0  0  0  0  0  0
  160.6980  208.2900  153.7100 C   0  0  1  0  0  3  0  0  0  0  0  0
  161.7000  210.8290  151.2860 C   0  0  0  0  0  3  0  0  0  0  0  0
  161.9660  210.1130  150.2400 N   0  0  0  0  0  0  0  0  0  0  0  0
  161.6010  210.2340  152.5810 N   0  0  0  0  0  2  0  0  0  0  0  0
  162.0710  210.6810  148.9330 C   0  0  0  0  0  0  0  0  0  0  0  0
  162.6250  211.9450  148.7800 O   0  0  0  0  0  1  0  0  0  0  0  0
  161.6660  210.0530  147.9190 O   0  0  0  0  0  0  0  0  0  0  0  0
  160.4190  206.3570  150.3580 C   0  0  0  0  0  2  0  0  0  0  0  0
  162.0190  202.1350  149.8430 C   0  0  0  0  0  1  0  0  0  0  0  0
  163.3720  203.9450  145.6370 C   0  0  0  0  0  1  0  0  0  0  0  0
  161.9290  206.5340  147.6830 C   0  0  0  0  0  2  0  0  0  0  0  0
  160.9670  202.9400  147.7120 C   0  0  0  0  0  2  0  0  0  0  0  0
  160.2350  203.8910  149.9660 C   0  0  0  0  0  2  0  0  0  0  0  0
  160.7360  202.6450  149.2050 C   0  0  0  0  0  0  0  0  0  0  0  0
  162.3560  206.1300  146.2720 C   0  0  0  0  0  2  0  0  0  0  0  0
  161.8360  204.1820  147.5670 C   0  0  1  0  0  3  0  0  0  0  0  0
  159.6880  201.5600  149.3220 C   0  0  0  0  0  1  0  0  0  0  0  0
  162.1200  204.6250  146.1540 C   0  0  2  0  0  3  0  0  0  0  0  0
  161.1260  205.3530  148.1750 C   0  0  1  0  0  3  0  0  0  0  0  0
  161.0680  205.1550  149.6840 C   0  0  1  0  0  3  0  0  0  0  0  0
  1 10  1  6  0  0  0
  1  7  1  0  0  0  0
  2  1  1  0  0  0  0
  2  7  1  0  0  0  0
  3  4  1  0  0  0  0
  4  6  1  0  0  0  0
  5  2  1  0  0  0  0
  5  3  1  0  0  0  0
  7  6  1  0  0  0  0
  8 10  1  0  0  0  0
  9  8  2  0  0  0  0
 11  9  1  0  0  0  0
 12 11  1  0  0  0  0
 13 11  2  0  0  0  0
 14  5  1  0  0  0  0
 16 24  1  0  0  0  0
 17 25  1  0  0  0  0
 18 20  1  0  0  0  0
 20 23  1  0  0  0  0
 20 15  1  0  0  0  0
 20 19  1  0  0  0  0
 21 17  1  0  0  0  0
 22 18  1  0  0  0  0
 22 25  1  0  0  0  0
 24 21  1  0  0  0  0
 24 22  1  0  0  0  0
 25 26  1  0  0  0  0
 26 19  1  0  0  0  0
 26 14  1  0  0  0  0
M  END
>  <MODEL>
7

>  <REMARK>
 VINA RESULT:      -7.7      2.828      6.955
  Name = 
  4 active torsions:
  status: ('A' for Active; 'I' for Inactive)
    1  A    between atoms: C_1  and  N_21
    2  A    between atoms: C_4  and  N_25
    3  A    between atoms: C_15  and  C_18
    4  A    between atoms: C_18  and  C_26
                            x       y       z     vdW  Elec       q    Type
                         _______ _______ _______ _____ _____    ______ ____

>  <TORSDO>
F 4

$$$$
=
 OpenBabel11072414383D

 26 29  0  0  1  0  0  0  0  0999 V2000
  161.2080  207.7250  150.7250 C   0  0  2  0  0  3  0  0  0  0  0  0
  161.9230  208.3520  151.9140 C   0  0  1  0  0  3  0  0  0  0  0  0
  161.1190  207.1410  153.9940 C   0  0  0  0  0  2  0  0  0  0  0  0
  160.8320  205.9140  153.1610 C   0  0  0  0  0  2  0  0  0  0  0  0
  160.9500  208.3540  153.1010 C   0  0  1  0  0  3  0  0  0  0  0  0
  161.9360  205.7280  152.1290 C   0  0  0  0  0  2  0  0  0  0  0  0
  162.3720  206.9910  151.3550 C   0  0  1  0  0  3  0  0  0  0  0  0
  161.6660  207.7030  148.2430 C   0  0  0  0  0  3  0  0  0  0  0  0
  161.2820  206.4700  148.1390 N   0  0  0  0  0  0  0  0  0  0  0  0
  161.6510  208.3760  149.5030 N   0  0  0  0  0  2  0  0  0  0  0  0
  161.2860  205.7730  146.8920 C   0  0  0  0  0  0  0  0  0  0  0  0
  160.4550  206.2030  145.8660 O   0  0  0  0  0  0  0  0  0  0  0  0
  162.0310  204.7740  146.7110 O   0  0  0  0  0  1  0  0  0  0  0  0
  161.1310  209.6180  153.9260 C   0  0  0  0  0  2  0  0  0  0  0  0
  156.9680  210.7050  155.3860 C   0  0  0  0  0  1  0  0  0  0  0  0
  157.4300  214.0140  151.9740 C   0  0  0  0  0  1  0  0  0  0  0  0
  160.2700  211.8010  151.9340 C   0  0  0  0  0  2  0  0  0  0  0  0
  158.3090  212.7780  154.9400 C   0  0  0  0  0  2  0  0  0  0  0  0
  159.4660  210.5790  155.5300 C   0  0  0  0  0  2  0  0  0  0  0  0
  158.2280  211.4730  155.7530 C   0  0  0  0  0  0  0  0  0  0  0  0
  159.7070  213.1410  151.4630 C   0  0  0  0  0  2  0  0  0  0  0  0
  158.6220  212.4540  153.4860 C   0  0  1  0  0  3  0  0  0  0  0  0
  158.1530  211.8280  157.2220 C   0  0  0  0  0  1  0  0  0  0  0  0
  158.7730  213.6380  152.5660 C   0  0  2  0  0  3  0  0  0  0  0  0
  159.9520  211.7670  153.4100 C   0  0  1  0  0  3  0  0  0  0  0  0
  159.8220  210.3880  154.0440 C   0  0  1  0  0  3  0  0  0  0  0  0
  1 10  1  6  0  0  0
  1  7  1  0  0  0  0
  1  2  1  0  0  0  0
  2  5  1  0  0  0  0
  4  3  1  0  0  0  0
  5 14  1  0  0  0  0
  5  3  1  0  0  0  0
  6  4  1  0  0  0  0
  7  2  1  0  0  0  0
  7  6  1  0  0  0  0
  8 10  1  0  0  0  0
  9  8  2  0  0  0  0
 11  9  1  0  0  0  0
 12 11  2  0  0  0  0
 13 11  1  0  0  0  0
 14 26  1  0  0  0  0
 15 20  1  0  0  0  0
 16 24  1  0  0  0  0
 17 25  1  0  0  0  0
 18 20  1  0  0  0  0
 19 20  1  0  0  0  0
 20 23  1  0  0  0  0
 21 17  1  0  0  0  0
 21 24  1  0  0  0  0
 22 18  1  0  0  0  0
 24 22  1  0  0  0  0
 25 22  1  0  0  0  0
 25 26  1  0  0  0  0
 26 19  1  0  0  0  0
M  END
>  <MODEL>
8

>  <REMARK>
 VINA RESULT:      -7.7      1.937      3.370
  Name = 
  4 active torsions:
  status: ('A' for Active; 'I' for Inactive)
    1  A    between atoms: C_1  and  N_21
    2  A    between atoms: C_4  and  N_25
    3  A    between atoms: C_15  and  C_18
    4  A    between atoms: C_18  and  C_26
                            x       y       z     vdW  Elec       q    Type
                         _______ _______ _______ _____ _____    ______ ____

>  <TORSDO>
F 4

$$$$
=
 OpenBabel11072414383D

 26 29  0  0  1  0  0  0  0  0999 V2000
  162.0210  207.6580  149.8330 C   0  0  2  0  0  3  0  0  0  0  0  0
  161.0480  206.4970  149.9860 C   0  0  1  0  0  3  0  0  0  0  0  0
  161.4440  205.4860  152.2800 C   0  0  0  0  0  2  0  0  0  0  0  0
  161.9460  206.8220  152.7740 C   0  0  0  0  0  2  0  0  0  0  0  0
  161.7500  205.3990  150.7980 C   0  0  1  0  0  3  0  0  0  0  0  0
  161.0910  207.9380  152.1880 C   0  0  0  0  0  2  0  0  0  0  0  0
  160.7800  207.8430  150.6790 C   0  0  1  0  0  3  0  0  0  0  0  0
  161.8100  209.7010  148.3660 C   0  0  0  0  0  3  0  0  0  0  0  0
  161.9810  210.4960  149.3750 N   0  0  0  0  0  0  0  0  0  0  0  0
  161.8200  208.2830  148.5360 N   0  0  0  0  0  2  0  0  0  0  0  0
  161.9760  211.9180  149.2340 C   0  0  0  0  0  0  0  0  0  0  0  0
  162.9390  212.5300  148.4420 O   0  0  0  0  0  0  0  0  0  0  0  0
  161.1120  212.6240  149.8190 O   0  0  0  0  0  1  0  0  0  0  0  0
  161.3520  204.0270  150.2790 C   0  0  0  0  0  2  0  0  0  0  0  0
  160.4910  205.7840  146.1780 C   0  0  0  0  0  1  0  0  0  0  0  0
  159.9400  201.1610  145.1200 C   0  0  0  0  0  1  0  0  0  0  0  0
  160.5050  201.5540  148.6550 C   0  0  0  0  0  2  0  0  0  0  0  0
  161.9000  203.7180  145.9690 C   0  0  0  0  0  2  0  0  0  0  0  0
  161.9480  205.1160  148.1050 C   0  0  0  0  0  2  0  0  0  0  0  0
  161.8090  205.1330  146.5680 C   0  0  0  0  0  0  0  0  0  0  0  0
  160.4790  200.5760  147.4810 C   0  0  0  0  0  2  0  0  0  0  0  0
  160.9330  202.7940  146.6970 C   0  0  1  0  0  3  0  0  0  0  0  0
  162.9350  205.9680  145.9960 C   0  0  0  0  0  1  0  0  0  0  0  0
  160.9330  201.3550  146.2470 C   0  0  2  0  0  3  0  0  0  0  0  0
  161.3180  202.7200  148.1430 C   0  0  1  0  0  3  0  0  0  0  0  0
  161.0450  204.0720  148.7880 C   0  0  1  0  0  3  0  0  0  0  0  0
  1 10  1  6  0  0  0
  1  2  1  0  0  0  0
  1  7  1  0  0  0  0
  2  7  1  0  0  0  0
  2  5  1  0  0  0  0
  3  4  1  0  0  0  0
  5  3  1  0  0  0  0
  6  4  1  0  0  0  0
  7  6  1  0  0  0  0
  8 10  1  0  0  0  0
  8  9  2  0  0  0  0
 11  9  1  0  0  0  0
 11 13  1  0  0  0  0
 12 11  2  0  0  0  0
 14  5  1  0  0  0  0
 15 20  1  0  0  0  0
 16 24  1  0  0  0  0
 18 20  1  0  0  0  0
 18 22  1  0  0  0  0
 19 26  1  0  0  0  0
 20 19  1  0  0  0  0
 21 17  1  0  0  0  0
 22 25  1  0  0  0  0
 23 20  1  0  0  0  0
 24 22  1  0  0  0  0
 24 21  1  0  0  0  0
 25 17  1  0  0  0  0
 25 26  1  0  0  0  0
 26 14  1  0  0  0  0
M  END
>  <MODEL>
9

>  <REMARK>
 VINA RESULT:      -7.4      3.514      7.852
  Name = 
  4 active torsions:
  status: ('A' for Active; 'I' for Inactive)
    1  A    between atoms: C_1  and  N_21
    2  A    between atoms: C_4  and  N_25
    3  A    between atoms: C_15  and  C_18
    4  A    between atoms: C_18  and  C_26
                            x       y       z     vdW  Elec       q    Type
                         _______ _______ _______ _____ _____    ______ ____

>  <TORSDO>
F 4

$$$$
