=
 OpenBabel11072414033D

 62 69  0  0  1  0  0  0  0  0999 V2000
  159.7680  204.1240  151.9080 N   0  0  0  0  0  0  0  0  0  0  0  0
  161.1580  205.9350  152.8490 C   0  0  0  0  0  0  0  0  0  0  0  0
  161.6260  205.1550  150.7430 C   0  0  0  0  0  0  0  0  0  0  0  0
  161.3650  202.3260  149.5010 C   0  0  0  0  0  1  0  0  0  0  0  0
  161.9530  206.0130  151.7250 N   0  0  0  0  0  0  0  0  0  0  0  0
  160.8400  203.7510  149.4500 C   0  0  2  0  0  3  0  0  0  0  0  0
  160.0700  204.9880  152.9380 C   0  0  0  0  0  3  0  0  0  0  0  0
  161.9510  204.6880  149.3630 C   0  0  1  0  0  3  0  0  0  0  0  0
  160.5650  204.2420  150.8310 C   0  0  0  0  0  0  0  0  0  0  0  0
  161.6540  205.7970  148.3470 C   0  0  2  0  0  3  0  0  0  0  0  0
  161.8820  205.3280  146.9720 N   0  0  0  0  0  0  0  0  0  0  0  0
  163.4120  204.2340  145.5890 O   0  0  0  0  0  1  0  0  0  0  0  0
  163.2790  204.9500  146.7790 C   0  0  0  0  0  2  0  0  0  0  0  0
  161.6100  206.4370  146.0710 C   0  0  0  0  0  2  0  0  0  0  0  0
  160.2410  206.2640  145.4410 C   0  0  0  0  0  2  0  0  0  0  0  0
  161.6740  205.1370  143.8960 F   0  0  0  0  0  0  0  0  0  0  0  0
  160.3470  205.3260  144.2460 C   0  0  1  0  0  3  0  0  0  0  0  0
  158.9530  203.5440  143.6180 O   0  0  0  0  0  0  0  0  0  0  0  0
  159.6910  203.9940  144.4810 C   0  0  0  0  0  0  0  0  0  0  0  0
  159.9520  203.1810  145.7290 C   0  0  0  0  0  2  0  0  0  0  0  0
  161.4100  201.6880  146.6830 O   0  0  0  0  0  1  0  0  0  0  0  0
  160.8230  202.0190  145.5070 N   0  0  0  0  0  0  0  0  0  0  0  0
  160.0330  200.8740  145.0710 C   0  0  0  0  0  2  0  0  0  0  0  0
  160.7660  198.3970  144.7840 N   0  0  0  0  0  0  0  0  0  0  0  0
  160.7640  199.6080  145.3570 C   0  0  0  0  0  0  0  0  0  0  0  0
  161.7190  198.0050  145.7270 C   0  0  0  0  0  2  0  0  0  0  0  0
  161.7750  199.2260  146.3610 N   0  0  0  0  0  2  0  0  0  0  0  0
  162.4200  206.9380  148.6370 O   0  0  0  0  0  0  0  0  0  0  0  0
  161.5090  207.9990  148.6630 C   0  0  0  0  0  2  0  0  0  0  0  0
  162.1050  209.1760  149.4210 C   0  0  0  0  0  2  0  0  0  0  0  0
  161.9220  210.4550  148.6740 C   0  0  0  0  0  0  0  0  0  0  0  0
  161.1410  210.4710  147.5900 C   0  0  0  0  0  3  0  0  0  0  0  0
  162.5820  211.6200  149.1030 O   0  0  0  0  0  0  0  0  0  0  0  0
  159.6990  212.3170  147.2880 O   0  0  0  0  0  1  0  0  0  0  0  0
  160.8860  211.7420  146.8280 C   0  0  1  0  0  3  0  0  0  0  0  0
  162.3790  212.8930  148.4860 C   0  0  0  0  0  2  0  0  0  0  0  0
  162.0670  212.7080  147.0030 C   0  0  2  0  0  3  0  0  0  0  0  0
  161.8750  214.0360  146.2750 C   0  0  0  0  0  2  0  0  0  0  0  0
  161.2900  213.8500  145.0190 O   0  0  0  0  0  1  0  0  0  0  0  0
  161.4180  206.8660  153.9830 C   0  0  0  0  0  2  0  0  0  0  0  0
  160.1730  207.0770  154.8370 C   0  0  0  0  0  2  0  0  0  0  0  0
  159.6400  208.5030  154.7390 C   0  0  0  0  0  2  0  0  0  0  0  0
  162.3960  211.9270  155.7280 C   0  0  0  0  0  2  0  0  0  0  0  0
  160.6480  209.0490  156.7840 C   0  0  0  0  0  2  0  0  0  0  0  0
  160.9120  211.8420  156.1020 C   0  0  0  0  0  2  0  0  0  0  0  0
  158.7050  211.6240  153.4890 C   0  0  0  0  0  0  0  0  0  0  0  0
  158.3330  211.9800  152.3390 O   0  0  0  0  0  0  0  0  0  0  0  0
  162.9460  209.9900  157.2550 C   0  0  0  0  0  2  0  0  0  0  0  0
  157.8400  211.4680  154.6270 C   0  0  0  0  0  0  0  0  0  0  0  0
  160.5470  209.4570  155.3810 N   0  0  0  0  0  0  0  0  0  0  0  0
  160.0500  211.2910  153.8460 N   0  0  0  0  0  0  0  0  0  0  0  0
  155.8790  211.4760  156.0030 C   0  0  0  0  0  3  0  0  0  0  0  0
  162.0940  208.7310  157.1430 C   0  0  0  0  0  2  0  0  0  0  0  0
  158.6090  211.0190  155.6780 C   0  0  0  0  0  0  0  0  0  0  0  0
  158.0310  210.7890  156.9300 C   0  0  0  0  0  3  0  0  0  0  0  0
  156.6540  211.0210  157.0870 C   0  0  0  0  0  3  0  0  0  0  0  0
  156.4720  211.7050  154.7520 C   0  0  0  0  0  3  0  0  0  0  0  0
  163.1580  210.6130  155.8830 C   0  0  0  0  0  2  0  0  0  0  0  0
  160.0630  210.8620  155.2620 C   0  0  2  0  0  0  0  0  0  0  0  0
  161.2090  209.7440  152.3880 C   0  0  0  0  0  2  0  0  0  0  0  0
  161.1870  211.1220  152.9320 C   0  0  2  0  0  3  0  0  0  0  0  0
  162.0830  210.1460  153.4120 O   0  0  0  0  0  0  0  0  0  0  0  0
  1  7  1  0  0  0  0
  2  7  2  0  0  0  0
  2 40  1  0  0  0  0
  3  9  1  0  0  0  0
  3  5  2  0  0  0  0
  5  2  1  0  0  0  0
  6  4  1  1  0  0  0
  6  9  1  0  0  0  0
  8 10  1  6  0  0  0
  8  6  1  0  0  0  0
  8  3  1  0  0  0  0
  9  1  2  0  0  0  0
 10 28  1  1  0  0  0
 11 10  1  0  0  0  0
 12 13  1  0  0  0  0
 13 11  1  0  0  0  0
 14 11  1  0  0  0  0
 15 14  1  0  0  0  0
 17 16  1  1  0  0  0
 17 19  1  0  0  0  0
 17 15  1  0  0  0  0
 18 19  2  0  0  0  0
 19 20  1  0  0  0  0
 22 20  1  0  0  0  0
 22 21  1  0  0  0  0
 23 25  1  0  0  0  0
 23 22  1  0  0  0  0
 24 25  2  0  0  0  0
 24 26  1  0  0  0  0
 25 27  1  0  0  0  0
 26 27  1  0  0  0  0
 28 29  1  0  0  0  0
 29 30  1  0  0  0  0
 31 33  1  0  0  0  0
 31 30  1  0  0  0  0
 32 31  2  0  0  0  0
 35 37  1  0  0  0  0
 35 34  1  1  0  0  0
 35 32  1  0  0  0  0
 36 33  1  0  0  0  0
 37 38  1  1  0  0  0
 37 36  1  0  0  0  0
 39 38  1  0  0  0  0
 40 41  1  0  0  0  0
 42 41  1  0  0  0  0
 42 50  1  0  0  0  0
 43 58  1  0  0  0  0
 43 45  1  0  0  0  0
 44 53  1  0  0  0  0
 46 51  1  0  0  0  0
 46 49  1  0  0  0  0
 47 46  2  0  0  0  0
 49 57  2  0  0  0  0
 49 54  1  0  0  0  0
 50 44  1  0  0  0  0
 51 59  1  0  0  0  0
 52 56  2  0  0  0  0
 53 48  1  0  0  0  0
 54 55  2  0  0  0  0
 55 56  1  0  0  0  0
 57 52  1  0  0  0  0
 58 48  1  0  0  0  0
 59 50  1  0  0  0  0
 59 54  1  0  0  0  0
 59 45  1  1  0  0  0
 60 62  1  0  0  0  0
 61 60  1  6  0  0  0
 61 62  1  0  0  0  0
 61 51  1  0  0  0  0
M  END
>  <MODEL>
1

>  <REMARK>
 VINA RESULT:      -1.8      0.000      0.000
  Name = 
  21 active torsions:
  status: ('A' for Active; 'I' for Inactive)
    1  A    between atoms: C_1  and  C_42
    2  A    between atoms: C_1  and  N_45
    3  A    between atoms: C_3  and  C_56
    4  A    between atoms: C_5  and  C_22
    5  A    between atoms: C_5  and  N_59
    6  A    between atoms: C_7  and  C_27
    7  A    between atoms: C_9  and  C_57
    8  A    between atoms: C_14  and  N_29
    9  A    between atoms: C_14  and  C_32
   10  A    between atoms: C_19  and  C_23
   11  A    between atoms: C_19  and  N_45
   12  A    between atoms: C_22  and  C_55
   13  A    between atoms: C_27  and  C_32
   14  A    between atoms: N_31  and  C_60
   15  A    between atoms: C_34  and  O_53
   16  A    between atoms: C_34  and  C_56
   17  A    between atoms: C_36  and  N_59
   18  A    between atoms: C_42  and  C_55
   19  A    between atoms: C_48  and  O_53
   20  A    between atoms: C_48  and  C_58
   21  A    between atoms: C_48  and  N_59
                            x       y       z     vdW  Elec       q    Type
                         _______ _______ _______ _____ _____    ______ ____

>  <TORSDO>
F 21

$$$$
=
 OpenBabel11072414033D

 62 69  0  0  1  0  0  0  0  0999 V2000
  163.1780  206.2980  150.5090 N   0  0  0  0  0  0  0  0  0  0  0  0
  162.2490  206.7120  148.2590 C   0  0  0  0  0  0  0  0  0  0  0  0
  161.5440  208.0160  150.0080 C   0  0  0  0  0  0  0  0  0  0  0  0
  161.1410  207.3690  153.0140 C   0  0  0  0  0  1  0  0  0  0  0  0
  161.4480  207.7450  148.6950 N   0  0  0  0  0  0  0  0  0  0  0  0
  161.9580  208.1810  152.0240 C   0  0  2  0  0  3  0  0  0  0  0  0
  163.1100  205.9890  149.1670 C   0  0  0  0  0  3  0  0  0  0  0  0
  161.0740  208.8980  151.1170 C   0  0  1  0  0  3  0  0  0  0  0  0
  162.3860  207.3170  150.8860 C   0  0  0  0  0  0  0  0  0  0  0  0
  161.5650  210.3340  150.8940 C   0  0  2  0  0  3  0  0  0  0  0  0
  161.1010  211.2240  151.9690 N   0  0  0  0  0  0  0  0  0  0  0  0
  162.0600  210.8940  154.0710 O   0  0  0  0  0  1  0  0  0  0  0  0
  161.0130  210.5030  153.2360 C   0  0  0  0  0  2  0  0  0  0  0  0
  159.7570  211.6660  151.6320 C   0  0  0  0  0  2  0  0  0  0  0  0
  158.8220  211.4010  152.7960 C   0  0  0  0  0  2  0  0  0  0  0  0
  158.0110  213.6480  152.7220 F   0  0  0  0  0  0  0  0  0  0  0  0
  158.5760  212.6970  153.5570 C   0  0  1  0  0  3  0  0  0  0  0  0
  156.5730  212.0960  154.6250 O   0  0  0  0  0  0  0  0  0  0  0  0
  157.7110  212.5130  154.7730 C   0  0  0  0  0  0  0  0  0  0  0  0
  158.2240  212.7840  156.1700 C   0  0  0  0  0  2  0  0  0  0  0  0
  160.2420  212.8990  157.2560 O   0  0  0  0  0  1  0  0  0  0  0  0
  159.4770  212.0860  156.4880 N   0  0  0  0  0  0  0  0  0  0  0  0
  159.1990  210.8820  157.2600 C   0  0  0  0  0  2  0  0  0  0  0  0
  161.5940  209.8730  157.1950 N   0  0  0  0  0  0  0  0  0  0  0  0
  160.2650  209.8670  157.0270 C   0  0  0  0  0  0  0  0  0  0  0  0
  161.6100  208.5530  156.7380 C   0  0  0  0  0  2  0  0  0  0  0  0
  160.2490  208.4710  156.5480 N   0  0  0  0  0  2  0  0  0  0  0  0
  161.1580  210.7950  149.6310 O   0  0  0  0  0  0  0  0  0  0  0  0
  162.2340  211.5470  149.1470 C   0  0  0  0  0  2  0  0  0  0  0  0
  161.7770  212.9640  148.8370 C   0  0  0  0  0  2  0  0  0  0  0  0
  161.2280  213.0690  147.4530 C   0  0  0  0  0  0  0  0  0  0  0  0
  161.8960  213.7780  146.5370 C   0  0  0  0  0  3  0  0  0  0  0  0
  160.0110  212.4420  147.1310 O   0  0  0  0  0  0  0  0  0  0  0  0
  162.0480  212.9010  144.3500 O   0  0  0  0  0  1  0  0  0  0  0  0
  161.4100  213.8770  145.1180 C   0  0  1  0  0  3  0  0  0  0  0  0
  159.4770  212.4310  145.8050 C   0  0  0  0  0  2  0  0  0  0  0  0
  159.8850  213.7050  145.0680 C   0  0  2  0  0  3  0  0  0  0  0  0
  159.3140  213.7710  143.6540 C   0  0  0  0  0  2  0  0  0  0  0  0
  159.5280  212.5760  142.9610 O   0  0  0  0  0  1  0  0  0  0  0  0
  162.2390  206.3530  146.8120 C   0  0  0  0  0  2  0  0  0  0  0  0
  163.2460  205.2520  146.4980 C   0  0  0  0  0  2  0  0  0  0  0  0
  162.7640  203.8800  146.9600 C   0  0  0  0  0  2  0  0  0  0  0  0
  159.0730  201.8270  145.3920 C   0  0  0  0  0  2  0  0  0  0  0  0
  160.7920  204.8230  146.1130 C   0  0  0  0  0  2  0  0  0  0  0  0
  159.2020  202.5030  146.7630 C   0  0  0  0  0  2  0  0  0  0  0  0
  161.5780  201.2100  148.8670 C   0  0  0  0  0  0  0  0  0  0  0  0
  162.1730  200.2180  149.3670 O   0  0  0  0  0  0  0  0  0  0  0  0
  159.3130  204.0490  144.2150 C   0  0  0  0  0  2  0  0  0  0  0  0
  161.1140  202.3530  149.6040 C   0  0  0  0  0  0  0  0  0  0  0  0
  161.4610  203.5480  146.3800 N   0  0  0  0  0  0  0  0  0  0  0  0
  161.2880  201.3720  147.4750 N   0  0  0  0  0  0  0  0  0  0  0  0
  160.6100  203.8260  151.4250 C   0  0  0  0  0  3  0  0  0  0  0  0
  160.4680  204.9540  144.6300 C   0  0  0  0  0  2  0  0  0  0  0  0
  160.5660  203.2380  148.7010 C   0  0  0  0  0  0  0  0  0  0  0  0
  160.0170  204.4470  149.1390 C   0  0  0  0  0  3  0  0  0  0  0  0
  160.0430  204.7380  150.5140 C   0  0  0  0  0  3  0  0  0  0  0  0
  161.1550  202.6150  150.9720 C   0  0  0  0  0  3  0  0  0  0  0  0
  159.7420  202.5900  144.2510 C   0  0  0  0  0  2  0  0  0  0  0  0
  160.6440  202.6900  147.2850 C   0  0  2  0  0  0  0  0  0  0  0  0
  160.7810  199.4830  146.0470 C   0  0  0  0  0  2  0  0  0  0  0  0
  161.7740  200.5350  146.3720 C   0  0  2  0  0  3  0  0  0  0  0  0
  161.9430  199.1980  146.7850 O   0  0  0  0  0  0  0  0  0  0  0  0
  1  9  1  0  0  0  0
  2  5  2  0  0  0  0
  2  7  1  0  0  0  0
  3  9  2  0  0  0  0
  3  8  1  0  0  0  0
  5  3  1  0  0  0  0
  6  4  1  1  0  0  0
  7  1  2  0  0  0  0
  8 10  1  6  0  0  0
  8  6  1  0  0  0  0
  9  6  1  0  0  0  0
 10 28  1  6  0  0  0
 10 11  1  0  0  0  0
 11 13  1  0  0  0  0
 13 12  1  0  0  0  0
 14 11  1  0  0  0  0
 14 15  1  0  0  0  0
 15 17  1  0  0  0  0
 17 16  1  6  0  0  0
 17 19  1  0  0  0  0
 18 19  2  0  0  0  0
 19 20  1  0  0  0  0
 20 22  1  0  0  0  0
 22 21  1  0  0  0  0
 22 23  1  0  0  0  0
 25 24  2  0  0  0  0
 25 23  1  0  0  0  0
 26 24  1  0  0  0  0
 27 26  1  0  0  0  0
 27 25  1  0  0  0  0
 29 28  1  0  0  0  0
 30 29  1  0  0  0  0
 31 30  1  0  0  0  0
 32 31  2  0  0  0  0
 33 31  1  0  0  0  0
 35 34  1  6  0  0  0
 35 32  1  0  0  0  0
 36 33  1  0  0  0  0
 37 38  1  6  0  0  0
 37 35  1  0  0  0  0
 37 36  1  0  0  0  0
 39 38  1  0  0  0  0
 40  2  1  0  0  0  0
 41 40  1  0  0  0  0
 41 42  1  0  0  0  0
 43 45  1  0  0  0  0
 44 50  1  0  0  0  0
 46 47  2  0  0  0  0
 46 49  1  0  0  0  0
 48 58  1  0  0  0  0
 48 53  1  0  0  0  0
 49 57  1  0  0  0  0
 50 42  1  0  0  0  0
 50 59  1  0  0  0  0
 51 46  1  0  0  0  0
 53 44  1  0  0  0  0
 54 55  1  0  0  0  0
 54 49  2  0  0  0  0
 55 56  2  0  0  0  0
 56 52  1  0  0  0  0
 57 52  2  0  0  0  0
 58 43  1  0  0  0  0
 59 45  1  6  0  0  0
 59 51  1  0  0  0  0
 59 54  1  0  0  0  0
 60 62  1  0  0  0  0
 61 60  1  6  0  0  0
 61 62  1  0  0  0  0
 61 51  1  0  0  0  0
M  END
>  <MODEL>
2

>  <REMARK>
 VINA RESULT:      -0.6      2.646     10.227
  Name = 
  21 active torsions:
  status: ('A' for Active; 'I' for Inactive)
    1  A    between atoms: C_1  and  C_42
    2  A    between atoms: C_1  and  N_45
    3  A    between atoms: C_3  and  C_56
    4  A    between atoms: C_5  and  C_22
    5  A    between atoms: C_5  and  N_59
    6  A    between atoms: C_7  and  C_27
    7  A    between atoms: C_9  and  C_57
    8  A    between atoms: C_14  and  N_29
    9  A    between atoms: C_14  and  C_32
   10  A    between atoms: C_19  and  C_23
   11  A    between atoms: C_19  and  N_45
   12  A    between atoms: C_22  and  C_55
   13  A    between atoms: C_27  and  C_32
   14  A    between atoms: N_31  and  C_60
   15  A    between atoms: C_34  and  O_53
   16  A    between atoms: C_34  and  C_56
   17  A    between atoms: C_36  and  N_59
   18  A    between atoms: C_42  and  C_55
   19  A    between atoms: C_48  and  O_53
   20  A    between atoms: C_48  and  C_58
   21  A    between atoms: C_48  and  N_59
                            x       y       z     vdW  Elec       q    Type
                         _______ _______ _______ _____ _____    ______ ____

>  <TORSDO>
F 21

$$$$
=
 OpenBabel11072414033D

 62 69  0  0  1  0  0  0  0  0999 V2000
  162.2450  205.4030  149.3040 N   0  0  0  0  0  0  0  0  0  0  0  0
  161.4170  207.7280  149.2480 C   0  0  0  0  0  0  0  0  0  0  0  0
  161.8490  206.6550  147.2680 C   0  0  0  0  0  0  0  0  0  0  0  0
  163.9800  204.5340  146.5090 C   0  0  0  0  0  1  0  0  0  0  0  0
  161.4350  207.7820  147.8710 N   0  0  0  0  0  0  0  0  0  0  0  0
  162.4910  204.7830  146.6800 C   0  0  2  0  0  3  0  0  0  0  0  0
  161.8250  206.5390  149.9610 C   0  0  0  0  0  3  0  0  0  0  0  0
  162.1010  205.9850  145.9580 C   0  0  1  0  0  3  0  0  0  0  0  0
  162.2390  205.5000  147.9630 C   0  0  0  0  0  0  0  0  0  0  0  0
  160.7780  205.7710  145.2120 C   0  0  2  0  0  3  0  0  0  0  0  0
  160.6440  204.3770  144.7630 N   0  0  0  0  0  0  0  0  0  0  0  0
  158.9190  202.9350  144.1330 O   0  0  0  0  0  1  0  0  0  0  0  0
  159.4500  204.2110  143.9390 C   0  0  0  0  0  2  0  0  0  0  0  0
  160.4710  203.5430  145.9420 C   0  0  0  0  0  2  0  0  0  0  0  0
  161.3810  202.3330  145.8540 C   0  0  0  0  0  2  0  0  0  0  0  0
  160.2010  200.4960  144.8840 F   0  0  0  0  0  0  0  0  0  0  0  0
  160.5680  201.0670  146.0910 C   0  0  1  0  0  3  0  0  0  0  0  0
  161.5420  198.9600  146.4480 O   0  0  0  0  0  0  0  0  0  0  0  0
  161.2900  200.0520  146.9330 C   0  0  0  0  0  0  0  0  0  0  0  0
  161.7480  200.3600  148.3410 C   0  0  0  0  0  2  0  0  0  0  0  0
  159.6110  201.1310  148.6620 O   0  0  0  0  0  1  0  0  0  0  0  0
  160.8960  201.3280  149.0440 N   0  0  0  0  0  0  0  0  0  0  0  0
  160.9670  201.1100  150.4830 C   0  0  0  0  0  2  0  0  0  0  0  0
  161.8630  202.9780  152.0530 N   0  0  0  0  0  0  0  0  0  0  0  0
  160.9960  202.4160  151.1990 C   0  0  0  0  0  0  0  0  0  0  0  0
  161.0250  204.0950  152.0920 C   0  0  0  0  0  2  0  0  0  0  0  0
  160.0950  203.5840  151.2140 N   0  0  0  0  0  2  0  0  0  0  0  0
  160.6750  206.6710  144.1380 O   0  0  0  0  0  0  0  0  0  0  0  0
  161.8840  206.5570  143.4430 C   0  0  0  0  0  2  0  0  0  0  0  0
  161.6710  205.7700  142.1580 C   0  0  0  0  0  2  0  0  0  0  0  0
  161.8150  206.6430  140.9560 C   0  0  0  0  0  0  0  0  0  0  0  0
  161.5190  207.9430  141.0530 C   0  0  0  0  0  3  0  0  0  0  0  0
  162.2400  206.0910  139.7340 O   0  0  0  0  0  0  0  0  0  0  0  0
  162.9410  209.4880  139.9730 O   0  0  0  0  0  1  0  0  0  0  0  0
  161.6900  208.8730  139.8840 C   0  0  1  0  0  3  0  0  0  0  0  0
  162.4820  206.8850  138.5710 C   0  0  0  0  0  2  0  0  0  0  0  0
  161.5520  208.0970  138.5670 C   0  0  2  0  0  3  0  0  0  0  0  0
  161.7360  208.9700  137.3280 C   0  0  0  0  0  2  0  0  0  0  0  0
  160.9220  210.1060  137.3790 O   0  0  0  0  0  1  0  0  0  0  0  0
  160.9430  208.9180  150.0120 C   0  0  0  0  0  2  0  0  0  0  0  0
  161.3390  208.8380  151.4820 C   0  0  0  0  0  2  0  0  0  0  0  0
  160.2260  209.3220  152.4070 C   0  0  0  0  0  2  0  0  0  0  0  0
  158.9160  213.6070  152.8770 C   0  0  0  0  0  2  0  0  0  0  0  0
  161.2940  211.2840  151.6940 C   0  0  0  0  0  2  0  0  0  0  0  0
  160.0090  212.9150  153.6990 C   0  0  0  0  0  2  0  0  0  0  0  0
  159.0170  210.2110  155.5570 C   0  0  0  0  0  0  0  0  0  0  0  0
  158.1780  209.6510  156.3120 O   0  0  0  0  0  0  0  0  0  0  0  0
  160.3070  213.4220  150.7750 C   0  0  0  0  0  2  0  0  0  0  0  0
  160.4410  210.2070  155.7560 C   0  0  0  0  0  0  0  0  0  0  0  0
  160.0950  210.7800  152.3660 N   0  0  0  0  0  0  0  0  0  0  0  0
  158.6910  210.9240  154.3600 N   0  0  0  0  0  0  0  0  0  0  0  0
  162.5930  209.8200  156.7350 C   0  0  0  0  0  3  0  0  0  0  0  0
  160.9150  212.0640  150.4410 C   0  0  0  0  0  2  0  0  0  0  0  0
  161.0130  210.8760  154.6970 C   0  0  0  0  0  0  0  0  0  0  0  0
  162.4000  211.0410  154.6290 C   0  0  0  0  0  3  0  0  0  0  0  0
  163.1910  210.5060  155.6600 C   0  0  0  0  0  3  0  0  0  0  0  0
  161.2000  209.6640  156.7910 C   0  0  0  0  0  3  0  0  0  0  0  0
  158.9260  213.2490  151.3920 C   0  0  0  0  0  2  0  0  0  0  0  0
  159.9510  211.3720  153.7270 C   0  0  2  0  0  0  0  0  0  0  0  0
  156.5260  212.0070  154.3410 C   0  0  0  0  0  2  0  0  0  0  0  0
  157.3810  210.9810  153.6990 C   0  0  2  0  0  3  0  0  0  0  0  0
  156.3470  210.6360  154.5920 O   0  0  0  0  0  0  0  0  0  0  0  0
  1  7  1  0  0  0  0
  2  7  2  0  0  0  0
  2 40  1  0  0  0  0
  3  5  2  0  0  0  0
  3  9  1  0  0  0  0
  5  2  1  0  0  0  0
  6  4  1  1  0  0  0
  6  9  1  0  0  0  0
  8 10  1  6  0  0  0
  8  6  1  0  0  0  0
  8  3  1  0  0  0  0
  9  1  2  0  0  0  0
 10 28  1  6  0  0  0
 11 10  1  0  0  0  0
 11 14  1  0  0  0  0
 13 12  1  0  0  0  0
 13 11  1  0  0  0  0
 15 14  1  0  0  0  0
 15 17  1  0  0  0  0
 17 16  1  6  0  0  0
 17 19  1  0  0  0  0
 18 19  2  0  0  0  0
 19 20  1  0  0  0  0
 20 22  1  0  0  0  0
 21 22  1  0  0  0  0
 22 23  1  0  0  0  0
 23 25  1  0  0  0  0
 24 26  1  0  0  0  0
 25 27  1  0  0  0  0
 25 24  2  0  0  0  0
 27 26  1  0  0  0  0
 29 28  1  0  0  0  0
 30 29  1  0  0  0  0
 31 32  2  0  0  0  0
 31 30  1  0  0  0  0
 33 31  1  0  0  0  0
 35 34  1  1  0  0  0
 35 32  1  0  0  0  0
 36 33  1  0  0  0  0
 37 38  1  6  0  0  0
 37 36  1  0  0  0  0
 37 35  1  0  0  0  0
 38 39  1  0  0  0  0
 40 41  1  0  0  0  0
 41 42  1  0  0  0  0
 43 45  1  0  0  0  0
 44 50  1  0  0  0  0
 46 49  1  0  0  0  0
 46 47  2  0  0  0  0
 48 58  1  0  0  0  0
 49 57  1  0  0  0  0
 50 42  1  0  0  0  0
 50 59  1  0  0  0  0
 51 46  1  0  0  0  0
 52 57  2  0  0  0  0
 53 48  1  0  0  0  0
 53 44  1  0  0  0  0
 54 49  2  0  0  0  0
 55 54  1  0  0  0  0
 55 56  2  0  0  0  0
 56 52  1  0  0  0  0
 58 43  1  0  0  0  0
 59 45  1  6  0  0  0
 59 51  1  0  0  0  0
 59 54  1  0  0  0  0
 60 62  1  0  0  0  0
 61 60  1  1  0  0  0
 61 51  1  0  0  0  0
 61 62  1  0  0  0  0
M  END
>  <MODEL>
3

>  <REMARK>
 VINA RESULT:      -0.2      3.048      5.811
  Name = 
  21 active torsions:
  status: ('A' for Active; 'I' for Inactive)
    1  A    between atoms: C_1  and  C_42
    2  A    between atoms: C_1  and  N_45
    3  A    between atoms: C_3  and  C_56
    4  A    between atoms: C_5  and  C_22
    5  A    between atoms: C_5  and  N_59
    6  A    between atoms: C_7  and  C_27
    7  A    between atoms: C_9  and  C_57
    8  A    between atoms: C_14  and  N_29
    9  A    between atoms: C_14  and  C_32
   10  A    between atoms: C_19  and  C_23
   11  A    between atoms: C_19  and  N_45
   12  A    between atoms: C_22  and  C_55
   13  A    between atoms: C_27  and  C_32
   14  A    between atoms: N_31  and  C_60
   15  A    between atoms: C_34  and  O_53
   16  A    between atoms: C_34  and  C_56
   17  A    between atoms: C_36  and  N_59
   18  A    between atoms: C_42  and  C_55
   19  A    between atoms: C_48  and  O_53
   20  A    between atoms: C_48  and  C_58
   21  A    between atoms: C_48  and  N_59
                            x       y       z     vdW  Elec       q    Type
                         _______ _______ _______ _____ _____    ______ ____

>  <TORSDO>
F 21

$$$$
=
 OpenBabel11072414033D

 62 69  0  0  1  0  0  0  0  0999 V2000
  162.5210  205.7230  149.5340 N   0  0  0  0  0  0  0  0  0  0  0  0
  161.8480  208.0960  149.4110 C   0  0  0  0  0  0  0  0  0  0  0  0
  162.0670  206.9010  147.4660 C   0  0  0  0  0  0  0  0  0  0  0  0
  163.9920  204.6010  146.6800 C   0  0  0  0  0  1  0  0  0  0  0  0
  161.7720  208.0830  148.0350 N   0  0  0  0  0  0  0  0  0  0  0  0
  162.5390  204.9630  146.9360 C   0  0  2  0  0  3  0  0  0  0  0  0
  162.2250  206.9170  150.1570 C   0  0  0  0  0  3  0  0  0  0  0  0
  162.1810  206.1530  146.1790 C   0  0  1  0  0  3  0  0  0  0  0  0
  162.4260  205.7570  148.1930 C   0  0  0  0  0  0  0  0  0  0  0  0
  160.7970  205.9970  145.5350 C   0  0  2  0  0  3  0  0  0  0  0  0
  160.5760  204.6140  145.0870 N   0  0  0  0  0  0  0  0  0  0  0  0
  159.0740  203.4350  143.7430 O   0  0  0  0  0  1  0  0  0  0  0  0
  159.1720  204.3980  144.7480 C   0  0  0  0  0  2  0  0  0  0  0  0
  160.8900  203.7290  146.1980 C   0  0  0  0  0  2  0  0  0  0  0  0
  161.5100  202.4480  145.6750 C   0  0  0  0  0  2  0  0  0  0  0  0
  160.2020  200.6390  144.8210 F   0  0  0  0  0  0  0  0  0  0  0  0
  160.5920  201.2740  145.9900 C   0  0  1  0  0  3  0  0  0  0  0  0
  161.6420  199.2290  146.4670 O   0  0  0  0  0  0  0  0  0  0  0  0
  161.2120  200.2750  146.9270 C   0  0  0  0  0  0  0  0  0  0  0  0
  161.3560  200.5470  148.4070 C   0  0  0  0  0  2  0  0  0  0  0  0
  159.9210  200.7760  150.1830 O   0  0  0  0  0  1  0  0  0  0  0  0
  160.2410  201.3130  148.9810 N   0  0  0  0  0  0  0  0  0  0  0  0
  160.6440  202.6950  149.2080 C   0  0  0  0  0  2  0  0  0  0  0  0
  160.2300  203.6860  151.5760 N   0  0  0  0  0  0  0  0  0  0  0  0
  160.8600  202.9330  150.6630 C   0  0  0  0  0  0  0  0  0  0  0  0
  161.1400  203.2120  152.5240 C   0  0  0  0  0  2  0  0  0  0  0  0
  161.8300  202.4090  151.6440 N   0  0  0  0  0  2  0  0  0  0  0  0
  160.6480  206.9110  144.4800 O   0  0  0  0  0  0  0  0  0  0  0  0
  161.7740  206.7300  143.6710 C   0  0  0  0  0  2  0  0  0  0  0  0
  161.4180  205.8640  142.4720 C   0  0  0  0  0  2  0  0  0  0  0  0
  161.6920  206.5720  141.1870 C   0  0  0  0  0  0  0  0  0  0  0  0
  161.3900  207.8700  141.0800 C   0  0  0  0  0  3  0  0  0  0  0  0
  162.2440  205.8690  140.1010 O   0  0  0  0  0  0  0  0  0  0  0  0
  162.9230  209.2770  139.9630 O   0  0  0  0  0  1  0  0  0  0  0  0
  161.6880  208.6400  139.8240 C   0  0  1  0  0  3  0  0  0  0  0  0
  162.6120  206.5060  138.8760 C   0  0  0  0  0  2  0  0  0  0  0  0
  161.6910  207.6960  138.6130 C   0  0  2  0  0  3  0  0  0  0  0  0
  162.0080  208.4010  137.2970 C   0  0  0  0  0  2  0  0  0  0  0  0
  161.4540  209.6840  137.2580 O   0  0  0  0  0  1  0  0  0  0  0  0
  161.5090  209.3510  150.1410 C   0  0  0  0  0  2  0  0  0  0  0  0
  162.3910  209.5440  151.3690 C   0  0  0  0  0  2  0  0  0  0  0  0
  161.6310  210.1730  152.5330 C   0  0  0  0  0  2  0  0  0  0  0  0
  160.6770  207.6350  156.1320 C   0  0  0  0  0  2  0  0  0  0  0  0
  160.2520  208.2830  152.6890 C   0  0  0  0  0  2  0  0  0  0  0  0
  159.7430  208.6760  155.5040 C   0  0  0  0  0  2  0  0  0  0  0  0
  160.8880  211.9070  155.4680 C   0  0  0  0  0  0  0  0  0  0  0  0
  161.4750  212.8650  156.0370 O   0  0  0  0  0  0  0  0  0  0  0  0
  160.5330  206.1840  154.0690 C   0  0  0  0  0  2  0  0  0  0  0  0
  159.6640  212.0130  154.7220 C   0  0  0  0  0  0  0  0  0  0  0  0
  161.1390  209.1530  153.4630 N   0  0  0  0  0  0  0  0  0  0  0  0
  161.3570  210.5550  155.4520 N   0  0  0  0  0  0  0  0  0  0  0  0
  157.6860  212.9290  153.7270 C   0  0  0  0  0  3  0  0  0  0  0  0
  160.7590  206.8470  152.7140 C   0  0  0  0  0  2  0  0  0  0  0  0
  159.3740  210.7660  154.2150 C   0  0  0  0  0  0  0  0  0  0  0  0
  158.2210  210.5630  153.4500 C   0  0  0  0  0  3  0  0  0  0  0  0
  157.3750  211.6580  153.2070 C   0  0  0  0  0  3  0  0  0  0  0  0
  158.8450  213.1180  154.4960 C   0  0  0  0  0  3  0  0  0  0  0  0
  161.4500  206.7940  155.1190 C   0  0  0  0  0  2  0  0  0  0  0  0
  160.4280  209.7500  154.6290 C   0  0  2  0  0  0  0  0  0  0  0  0
  163.3560  211.1260  156.6940 C   0  0  0  0  0  2  0  0  0  0  0  0
  162.6640  210.0710  155.9150 C   0  0  2  0  0  3  0  0  0  0  0  0
  163.7120  210.8360  155.3660 O   0  0  0  0  0  0  0  0  0  0  0  0
  1  7  1  0  0  0  0
  2 40  1  0  0  0  0
  2  7  2  0  0  0  0
  3  5  2  0  0  0  0
  3  9  1  0  0  0  0
  5  2  1  0  0  0  0
  6  4  1  6  0  0  0
  6  9  1  0  0  0  0
  8 10  1  1  0  0  0
  8  6  1  0  0  0  0
  8  3  1  0  0  0  0
  9  1  2  0  0  0  0
 10 28  1  6  0  0  0
 11 10  1  0  0  0  0
 11 14  1  0  0  0  0
 12 13  1  0  0  0  0
 13 11  1  0  0  0  0
 15 17  1  0  0  0  0
 15 14  1  0  0  0  0
 17 16  1  6  0  0  0
 17 19  1  0  0  0  0
 18 19  2  0  0  0  0
 19 20  1  0  0  0  0
 20 22  1  0  0  0  0
 22 23  1  0  0  0  0
 22 21  1  0  0  0  0
 23 25  1  0  0  0  0
 24 26  1  0  0  0  0
 25 24  2  0  0  0  0
 25 27  1  0  0  0  0
 27 26  1  0  0  0  0
 29 28  1  0  0  0  0
 30 29  1  0  0  0  0
 31 30  1  0  0  0  0
 32 31  2  0  0  0  0
 33 31  1  0  0  0  0
 35 34  1  1  0  0  0
 35 32  1  0  0  0  0
 36 33  1  0  0  0  0
 37 38  1  6  0  0  0
 37 36  1  0  0  0  0
 37 35  1  0  0  0  0
 39 38  1  0  0  0  0
 40 41  1  0  0  0  0
 41 42  1  0  0  0  0
 42 50  1  0  0  0  0
 44 53  1  0  0  0  0
 44 50  1  0  0  0  0
 45 43  1  0  0  0  0
 46 47  2  0  0  0  0
 48 58  1  0  0  0  0
 49 46  1  0  0  0  0
 50 59  1  0  0  0  0
 51 46  1  0  0  0  0
 52 57  2  0  0  0  0
 53 48  1  0  0  0  0
 54 59  1  0  0  0  0
 54 49  2  0  0  0  0
 55 54  1  0  0  0  0
 56 55  2  0  0  0  0
 56 52  1  0  0  0  0
 57 49  1  0  0  0  0
 58 43  1  0  0  0  0
 59 51  1  0  0  0  0
 59 45  1  1  0  0  0
 61 51  1  6  0  0  0
 61 60  1  0  0  0  0
 62 61  1  0  0  0  0
 62 60  1  0  0  0  0
M  END
>  <MODEL>
4

>  <REMARK>
 VINA RESULT:       0.0      2.976      5.421
  Name = 
  21 active torsions:
  status: ('A' for Active; 'I' for Inactive)
    1  A    between atoms: C_1  and  C_42
    2  A    between atoms: C_1  and  N_45
    3  A    between atoms: C_3  and  C_56
    4  A    between atoms: C_5  and  C_22
    5  A    between atoms: C_5  and  N_59
    6  A    between atoms: C_7  and  C_27
    7  A    between atoms: C_9  and  C_57
    8  A    between atoms: C_14  and  N_29
    9  A    between atoms: C_14  and  C_32
   10  A    between atoms: C_19  and  C_23
   11  A    between atoms: C_19  and  N_45
   12  A    between atoms: C_22  and  C_55
   13  A    between atoms: C_27  and  C_32
   14  A    between atoms: N_31  and  C_60
   15  A    between atoms: C_34  and  O_53
   16  A    between atoms: C_34  and  C_56
   17  A    between atoms: C_36  and  N_59
   18  A    between atoms: C_42  and  C_55
   19  A    between atoms: C_48  and  O_53
   20  A    between atoms: C_48  and  C_58
   21  A    between atoms: C_48  and  N_59
                            x       y       z     vdW  Elec       q    Type
                         _______ _______ _______ _____ _____    ______ ____

>  <TORSDO>
F 21

$$$$
=
 OpenBabel11072414033D

 62 69  0  0  1  0  0  0  0  0999 V2000
  160.1720  203.8030  151.6700 N   0  0  0  0  0  0  0  0  0  0  0  0
  161.0170  206.0690  152.1690 C   0  0  0  0  0  0  0  0  0  0  0  0
  161.3720  205.1860  150.0830 C   0  0  0  0  0  0  0  0  0  0  0  0
  161.8650  202.2710  149.1490 C   0  0  0  0  0  1  0  0  0  0  0  0
  161.5500  206.2320  150.9080 N   0  0  0  0  0  0  0  0  0  0  0  0
  160.8990  203.4410  149.0870 C   0  0  2  0  0  3  0  0  0  0  0  0
  160.3320  204.8540  152.5470 C   0  0  0  0  0  3  0  0  0  0  0  0
  161.6070  204.6540  148.7080 C   0  0  1  0  0  3  0  0  0  0  0  0
  160.7020  204.0100  150.4510 C   0  0  0  0  0  0  0  0  0  0  0  0
  160.8010  205.4630  147.6840 C   0  0  2  0  0  3  0  0  0  0  0  0
  161.2740  205.2030  146.3160 N   0  0  0  0  0  0  0  0  0  0  0  0
  163.3670  204.3840  145.6860 O   0  0  0  0  0  1  0  0  0  0  0  0
  162.6990  205.4980  146.1960 C   0  0  0  0  0  2  0  0  0  0  0  0
  160.5710  206.1100  145.4210 C   0  0  0  0  0  2  0  0  0  0  0  0
  161.5190  206.6110  144.3490 C   0  0  0  0  0  2  0  0  0  0  0  0
  160.3490  204.9360  143.1080 F   0  0  0  0  0  0  0  0  0  0  0  0
  161.5530  205.6160  143.1960 C   0  0  1  0  0  3  0  0  0  0  0  0
  162.6650  205.7030  141.1290 O   0  0  0  0  0  0  0  0  0  0  0  0
  161.8710  206.2560  141.8730 C   0  0  0  0  0  0  0  0  0  0  0  0
  161.2020  207.5360  141.4220 C   0  0  0  0  0  2  0  0  0  0  0  0
  161.4940  207.3250  139.1550 O   0  0  0  0  0  1  0  0  0  0  0  0
  161.7960  208.1200  140.2110 N   0  0  0  0  0  0  0  0  0  0  0  0
  161.2220  209.4340  139.9530 C   0  0  0  0  0  2  0  0  0  0  0  0
  162.6990  210.4080  138.0490 N   0  0  0  0  0  0  0  0  0  0  0  0
  162.2310  210.3150  139.3010 C   0  0  0  0  0  0  0  0  0  0  0  0
  163.5110  211.4590  138.4820 C   0  0  0  0  0  2  0  0  0  0  0  0
  163.0710  211.4270  139.7860 N   0  0  0  0  0  2  0  0  0  0  0  0
  160.8540  206.8310  147.9970 O   0  0  0  0  0  0  0  0  0  0  0  0
  162.2140  207.1570  148.0060 C   0  0  0  0  0  2  0  0  0  0  0  0
  162.4840  208.2220  149.0580 C   0  0  0  0  0  2  0  0  0  0  0  0
  162.1230  209.5830  148.5600 C   0  0  0  0  0  0  0  0  0  0  0  0
  162.7790  210.6470  149.0340 C   0  0  0  0  0  3  0  0  0  0  0  0
  161.0900  209.7350  147.6180 O   0  0  0  0  0  0  0  0  0  0  0  0
  163.3840  212.3460  147.5110 O   0  0  0  0  0  1  0  0  0  0  0  0
  162.4860  212.0330  148.5330 C   0  0  1  0  0  3  0  0  0  0  0  0
  160.7560  210.9970  147.0380 C   0  0  0  0  0  2  0  0  0  0  0  0
  161.0360  212.1190  148.0350 C   0  0  2  0  0  3  0  0  0  0  0  0
  160.6650  213.4950  147.4880 C   0  0  0  0  0  2  0  0  0  0  0  0
  161.5810  213.9250  146.5240 O   0  0  0  0  0  1  0  0  0  0  0  0
  161.1330  207.1850  153.1510 C   0  0  0  0  0  2  0  0  0  0  0  0
  160.0800  207.0820  154.2480 C   0  0  0  0  0  2  0  0  0  0  0  0
  159.4420  208.4310  154.5650 C   0  0  0  0  0  2  0  0  0  0  0  0
  162.3080  211.6630  155.8480 C   0  0  0  0  0  2  0  0  0  0  0  0
  160.4160  208.7990  156.6670 C   0  0  0  0  0  2  0  0  0  0  0  0
  160.8110  211.6170  156.1790 C   0  0  0  0  0  2  0  0  0  0  0  0
  158.6690  211.6640  153.5040 C   0  0  0  0  0  0  0  0  0  0  0  0
  158.3440  212.1100  152.3710 O   0  0  0  0  0  0  0  0  0  0  0  0
  162.7360  209.6090  157.2560 C   0  0  0  0  0  2  0  0  0  0  0  0
  157.7680  211.4710  154.6070 C   0  0  0  0  0  0  0  0  0  0  0  0
  160.3690  209.3020  155.2920 N   0  0  0  0  0  0  0  0  0  0  0  0
  159.9900  211.2520  153.8710 N   0  0  0  0  0  0  0  0  0  0  0  0
  155.7720  211.4720  155.9320 C   0  0  0  0  0  3  0  0  0  0  0  0
  161.8370  208.3970  157.0390 C   0  0  0  0  0  2  0  0  0  0  0  0
  158.4890  210.9220  155.6440 C   0  0  0  0  0  0  0  0  0  0  0  0
  157.8680  210.6350  156.8640 C   0  0  0  0  0  3  0  0  0  0  0  0
  156.4980  210.9140  157.0020 C   0  0  0  0  0  3  0  0  0  0  0  0
  156.4080  211.7570  154.7140 C   0  0  0  0  0  3  0  0  0  0  0  0
  163.0110  210.3100  155.9330 C   0  0  0  0  0  2  0  0  0  0  0  0
  159.9470  210.7310  155.2550 C   0  0  2  0  0  0  0  0  0  0  0  0
  160.8330  211.6460  151.6350 C   0  0  0  0  0  2  0  0  0  0  0  0
  161.1430  211.0950  152.9760 C   0  0  2  0  0  3  0  0  0  0  0  0
  160.8280  210.2630  151.8830 O   0  0  0  0  0  0  0  0  0  0  0  0
  1  7  1  0  0  0  0
  2  7  2  0  0  0  0
  2 40  1  0  0  0  0
  3  9  1  0  0  0  0
  3  5  2  0  0  0  0
  5  2  1  0  0  0  0
  6  4  1  1  0  0  0
  6  9  1  0  0  0  0
  8 10  1  6  0  0  0
  8  6  1  0  0  0  0
  8  3  1  0  0  0  0
  9  1  2  0  0  0  0
 10 28  1  1  0  0  0
 11 10  1  0  0  0  0
 12 13  1  0  0  0  0
 13 11  1  0  0  0  0
 14 11  1  0  0  0  0
 15 14  1  0  0  0  0
 17 16  1  6  0  0  0
 17 15  1  0  0  0  0
 18 19  2  0  0  0  0
 19 17  1  0  0  0  0
 20 19  1  0  0  0  0
 21 22  1  0  0  0  0
 22 20  1  0  0  0  0
 23 22  1  0  0  0  0
 24 26  1  0  0  0  0
 24 25  2  0  0  0  0
 25 27  1  0  0  0  0
 25 23  1  0  0  0  0
 26 27  1  0  0  0  0
 28 29  1  0  0  0  0
 29 30  1  0  0  0  0
 31 32  2  0  0  0  0
 31 30  1  0  0  0  0
 33 31  1  0  0  0  0
 35 34  1  6  0  0  0
 35 32  1  0  0  0  0
 36 33  1  0  0  0  0
 36 37  1  0  0  0  0
 37 38  1  6  0  0  0
 37 35  1  0  0  0  0
 39 38  1  0  0  0  0
 40 41  1  0  0  0  0
 41 42  1  0  0  0  0
 42 50  1  0  0  0  0
 43 58  1  0  0  0  0
 43 45  1  0  0  0  0
 44 53  1  0  0  0  0
 46 51  1  0  0  0  0
 46 49  1  0  0  0  0
 47 46  2  0  0  0  0
 49 57  2  0  0  0  0
 49 54  1  0  0  0  0
 50 44  1  0  0  0  0
 51 59  1  0  0  0  0
 52 56  2  0  0  0  0
 53 48  1  0  0  0  0
 54 55  2  0  0  0  0
 55 56  1  0  0  0  0
 57 52  1  0  0  0  0
 58 48  1  0  0  0  0
 59 50  1  0  0  0  0
 59 54  1  0  0  0  0
 59 45  1  1  0  0  0
 60 62  1  0  0  0  0
 61 60  1  6  0  0  0
 61 51  1  0  0  0  0
 62 61  1  0  0  0  0
M  END
>  <MODEL>
5

>  <REMARK>
 VINA RESULT:       0.1      2.965      4.391
  Name = 
  21 active torsions:
  status: ('A' for Active; 'I' for Inactive)
    1  A    between atoms: C_1  and  C_42
    2  A    between atoms: C_1  and  N_45
    3  A    between atoms: C_3  and  C_56
    4  A    between atoms: C_5  and  C_22
    5  A    between atoms: C_5  and  N_59
    6  A    between atoms: C_7  and  C_27
    7  A    between atoms: C_9  and  C_57
    8  A    between atoms: C_14  and  N_29
    9  A    between atoms: C_14  and  C_32
   10  A    between atoms: C_19  and  C_23
   11  A    between atoms: C_19  and  N_45
   12  A    between atoms: C_22  and  C_55
   13  A    between atoms: C_27  and  C_32
   14  A    between atoms: N_31  and  C_60
   15  A    between atoms: C_34  and  O_53
   16  A    between atoms: C_34  and  C_56
   17  A    between atoms: C_36  and  N_59
   18  A    between atoms: C_42  and  C_55
   19  A    between atoms: C_48  and  O_53
   20  A    between atoms: C_48  and  C_58
   21  A    between atoms: C_48  and  N_59
                            x       y       z     vdW  Elec       q    Type
                         _______ _______ _______ _____ _____    ______ ____

>  <TORSDO>
F 21

$$$$
=
 OpenBabel11072414033D

 62 70  0  0  1  0  0  0  0  0999 V2000
  162.9250  208.5110  150.5340 N   0  0  0  0  0  0  0  0  0  0  0  0
  162.2020  207.8310  148.2740 C   0  0  0  0  0  0  0  0  0  0  0  0
  161.6000  209.9010  149.0560 C   0  0  0  0  0  0  0  0  0  0  0  0
  160.9290  210.8950  151.9160 C   0  0  0  0  0  1  0  0  0  0  0  0
  161.5420  209.0190  148.0440 N   0  0  0  0  0  0  0  0  0  0  0  0
  161.9160  211.0120  150.7670 C   0  0  2  0  0  3  0  0  0  0  0  0
  162.8890  207.5790  149.5190 C   0  0  0  0  0  3  0  0  0  0  0  0
  161.2050  211.2630  149.5220 C   0  0  1  0  0  3  0  0  0  0  0  0
  162.2740  209.6560  150.2620 C   0  0  0  0  0  0  0  0  0  0  0  0
  161.9190  212.3340  148.6880 C   0  0  2  0  0  3  0  0  0  0  0  0
  161.1390  213.5800  148.6510 N   0  0  0  0  0  0  0  0  0  0  0  0
  160.4530  214.4150  150.7200 O   0  0  0  0  0  1  0  0  0  0  0  0
  161.4830  214.4410  149.7790 C   0  0  0  0  0  2  0  0  0  0  0  0
  159.7340  213.2320  148.7890 C   0  0  0  0  0  2  0  0  0  0  0  0
  158.8780  214.2400  148.0480 C   0  0  0  0  0  2  0  0  0  0  0  0
  157.6620  212.2760  147.4340 F   0  0  0  0  0  0  0  0  0  0  0  0
  157.5220  213.6220  147.7330 C   0  0  1  0  0  3  0  0  0  0  0  0
  155.4620  214.3450  148.5980 O   0  0  0  0  0  0  0  0  0  0  0  0
  156.5230  213.7930  148.8440 C   0  0  0  0  0  0  0  0  0  0  0  0
  156.7770  213.2640  150.2380 C   0  0  0  0  0  2  0  0  0  0  0  0
  155.3490  214.2170  151.7610 O   0  0  0  0  0  1  0  0  0  0  0  0
  156.6200  214.2740  151.2930 N   0  0  0  0  0  0  0  0  0  0  0  0
  157.5130  213.9820  152.4060 C   0  0  0  0  0  2  0  0  0  0  0  0
  155.7510  214.2970  154.2900 N   0  0  0  0  0  0  0  0  0  0  0  0
  156.7220  213.6570  153.6260 C   0  0  0  0  0  0  0  0  0  0  0  0
  155.7110  213.2180  155.1760 C   0  0  0  0  0  2  0  0  0  0  0  0
  156.6980  212.4990  154.5400 N   0  0  0  0  0  2  0  0  0  0  0  0
  162.1790  211.8490  147.3960 O   0  0  0  0  0  0  0  0  0  0  0  0
  163.1460  212.7090  146.8660 C   0  0  0  0  0  2  0  0  0  0  0  0
  162.4750  213.8050  146.0520 C   0  0  0  0  0  2  0  0  0  0  0  0
  162.3380  213.4120  144.6180 C   0  0  0  0  0  0  0  0  0  0  0  0
  161.3610  212.5710  144.2630 C   0  0  0  0  0  3  0  0  0  0  0  0
  163.2410  213.9120  143.6630 O   0  0  0  0  0  0  0  0  0  0  0  0
  160.1850  213.0180  142.2650 O   0  0  0  0  0  1  0  0  0  0  0  0
  161.1510  212.1800  142.8270 C   0  0  1  0  0  3  0  0  0  0  0  0
  163.1110  213.6450  142.2650 C   0  0  0  0  0  2  0  0  0  0  0  0
  162.4740  212.2730  142.0550 C   0  0  2  0  0  3  0  0  0  0  0  0
  162.3400  211.9110  140.5780 C   0  0  0  0  0  2  0  0  0  0  0  0
  161.8010  212.9690  139.8400 O   0  0  0  0  0  1  0  0  0  0  0  0
  162.2230  206.7970  147.1990 C   0  0  1  0  0  3  0  0  0  0  0  0
  163.4840  205.9430  147.2640 C   0  0  0  0  0  2  0  0  0  0  0  0
  163.1690  204.4560  147.3900 C   0  0  0  0  0  2  0  0  0  0  0  0
  159.5400  202.4020  145.6830 C   0  0  0  0  0  2  0  0  0  0  0  0
  161.3880  205.3690  146.1680 C   0  0  2  0  0  3  0  0  0  0  0  0
  159.5590  203.2740  146.9440 C   0  0  0  0  0  2  0  0  0  0  0  0
  161.5660  202.1880  149.5020 C   0  0  0  0  0  0  0  0  0  0  0  0
  162.0200  201.2530  150.2130 O   0  0  0  0  0  0  0  0  0  0  0  0
  160.0870  204.3970  144.2320 C   0  0  0  0  0  2  0  0  0  0  0  0
  161.1080  203.4570  149.9970 C   0  0  0  0  0  0  0  0  0  0  0  0
  161.9210  204.1140  146.7040 N   0  0  2  0  0  0  0  0  0  0  0  0
  161.4540  202.1480  148.0750 N   0  0  0  0  0  0  0  0  0  0  0  0
  160.5080  205.2220  151.5030 C   0  0  0  0  0  3  0  0  0  0  0  0
  161.2510  205.2870  144.6530 C   0  0  0  0  0  2  0  0  0  0  0  0
  160.7390  204.2210  148.9120 C   0  0  0  0  0  0  0  0  0  0  0  0
  160.2370  205.5130  149.0930 C   0  0  0  0  0  3  0  0  0  0  0  0
  160.1240  206.0120  150.4020 C   0  0  0  0  0  3  0  0  0  0  0  0
  161.0080  203.9250  151.3060 C   0  0  0  0  0  3  0  0  0  0  0  0
  160.3950  202.9380  144.5370 C   0  0  0  0  0  2  0  0  0  0  0  0
  160.9400  203.4560  147.6120 C   0  0  2  0  0  0  0  0  0  0  0  0
  160.9650  200.1120  146.8590 C   0  0  0  0  0  2  0  0  0  0  0  0
  162.0010  201.1230  147.1780 C   0  0  2  0  0  3  0  0  0  0  0  0
  161.9860  199.8530  147.7890 O   0  0  0  0  0  0  0  0  0  0  0  0
  2  7  1  0  0  0  0
  3  8  1  0  0  0  0
  3  9  2  0  0  0  0
  5  2  2  0  0  0  0
  5  3  1  0  0  0  0
  6  4  1  1  0  0  0
  7  1  2  0  0  0  0
  8 10  1  6  0  0  0
  8  6  1  0  0  0  0
  9  1  1  0  0  0  0
  9  6  1  0  0  0  0
 10 28  1  6  0  0  0
 11 10  1  0  0  0  0
 11 14  1  0  0  0  0
 11 13  1  0  0  0  0
 13 12  1  0  0  0  0
 15 14  1  0  0  0  0
 17 16  1  1  0  0  0
 17 15  1  0  0  0  0
 17 19  1  0  0  0  0
 18 19  2  0  0  0  0
 19 20  1  0  0  0  0
 20 22  1  0  0  0  0
 22 21  1  0  0  0  0
 22 23  1  0  0  0  0
 23 25  1  0  0  0  0
 24 26  1  0  0  0  0
 25 24  2  0  0  0  0
 25 27  1  0  0  0  0
 27 26  1  0  0  0  0
 29 28  1  0  0  0  0
 30 29  1  0  0  0  0
 31 30  1  0  0  0  0
 32 31  2  0  0  0  0
 33 31  1  0  0  0  0
 35 34  1  6  0  0  0
 35 32  1  0  0  0  0
 36 33  1  0  0  0  0
 37 38  1  6  0  0  0
 37 36  1  0  0  0  0
 37 35  1  0  0  0  0
 39 38  1  0  0  0  0
 40 41  1  0  0  0  0
 40  2  1  1  0  0  0
 41 42  1  0  0  0  0
 43 45  1  0  0  0  0
 44 53  1  6  0  0  0
 44 50  1  0  0  0  0
 44 40  1  0  0  0  0
 46 49  1  0  0  0  0
 46 47  2  0  0  0  0
 48 58  1  0  0  0  0
 48 53  1  0  0  0  0
 49 57  1  0  0  0  0
 50 42  1  1  0  0  0
 50 59  1  0  0  0  0
 51 46  1  0  0  0  0
 54 55  1  0  0  0  0
 54 49  2  0  0  0  0
 55 56  2  0  0  0  0
 56 52  1  0  0  0  0
 57 52  2  0  0  0  0
 58 43  1  0  0  0  0
 59 45  1  6  0  0  0
 59 51  1  0  0  0  0
 59 54  1  0  0  0  0
 60 62  1  0  0  0  0
 61 60  1  6  0  0  0
 61 62  1  0  0  0  0
 61 51  1  0  0  0  0
M  END
>  <MODEL>
6

>  <REMARK>
 VINA RESULT:       0.6      3.246     10.200
  Name = 
  21 active torsions:
  status: ('A' for Active; 'I' for Inactive)
    1  A    between atoms: C_1  and  C_42
    2  A    between atoms: C_1  and  N_45
    3  A    between atoms: C_3  and  C_56
    4  A    between atoms: C_5  and  C_22
    5  A    between atoms: C_5  and  N_59
    6  A    between atoms: C_7  and  C_27
    7  A    between atoms: C_9  and  C_57
    8  A    between atoms: C_14  and  N_29
    9  A    between atoms: C_14  and  C_32
   10  A    between atoms: C_19  and  C_23
   11  A    between atoms: C_19  and  N_45
   12  A    between atoms: C_22  and  C_55
   13  A    between atoms: C_27  and  C_32
   14  A    between atoms: N_31  and  C_60
   15  A    between atoms: C_34  and  O_53
   16  A    between atoms: C_34  and  C_56
   17  A    between atoms: C_36  and  N_59
   18  A    between atoms: C_42  and  C_55
   19  A    between atoms: C_48  and  O_53
   20  A    between atoms: C_48  and  C_58
   21  A    between atoms: C_48  and  N_59
                            x       y       z     vdW  Elec       q    Type
                         _______ _______ _______ _____ _____    ______ ____

>  <TORSDO>
F 21

$$$$
=
 OpenBabel11072414033D

 62 69  0  0  1  0  0  0  0  0999 V2000
  162.5180  204.9930  149.0550 N   0  0  0  0  0  0  0  0  0  0  0  0
  161.7950  207.2910  148.5120 C   0  0  0  0  0  0  0  0  0  0  0  0
  162.4950  205.9170  146.8150 C   0  0  0  0  0  0  0  0  0  0  0  0
  164.6400  203.6780  146.7430 C   0  0  0  0  0  1  0  0  0  0  0  0
  162.0320  207.1290  147.1640 N   0  0  0  0  0  0  0  0  0  0  0  0
  163.1530  203.9690  146.6310 C   0  0  2  0  0  3  0  0  0  0  0  0
  162.0410  206.2230  149.4540 C   0  0  0  0  0  3  0  0  0  0  0  0
  162.9260  205.0480  145.6810 C   0  0  1  0  0  3  0  0  0  0  0  0
  162.7270  204.8800  147.7310 C   0  0  0  0  0  0  0  0  0  0  0  0
  161.7310  204.7350  144.7710 C   0  0  2  0  0  3  0  0  0  0  0  0
  161.3230  205.9250  144.0090 N   0  0  0  0  0  0  0  0  0  0  0  0
  159.5630  206.2820  145.5020 O   0  0  0  0  0  1  0  0  0  0  0  0
  159.8890  206.1630  144.1500 C   0  0  0  0  0  2  0  0  0  0  0  0
  161.5780  205.6630  142.6020 C   0  0  0  0  0  2  0  0  0  0  0  0
  161.5930  206.9680  141.8300 C   0  0  0  0  0  2  0  0  0  0  0  0
  162.4630  205.4500  140.2010 F   0  0  0  0  0  0  0  0  0  0  0  0
  162.3960  206.7900  140.5470 C   0  0  1  0  0  3  0  0  0  0  0  0
  161.9880  207.1480  138.2630 O   0  0  0  0  0  0  0  0  0  0  0  0
  161.8490  207.5850  139.3940 C   0  0  0  0  0  0  0  0  0  0  0  0
  161.0960  208.8810  139.5990 C   0  0  0  0  0  2  0  0  0  0  0  0
  159.5490  208.9440  137.9050 O   0  0  0  0  0  1  0  0  0  0  0  0
  160.6870  209.5330  138.3480 N   0  0  0  0  0  0  0  0  0  0  0  0
  160.3900  210.9400  138.5880 C   0  0  0  0  0  2  0  0  0  0  0  0
  161.7030  213.1050  138.0020 N   0  0  0  0  0  0  0  0  0  0  0  0
  161.5430  211.7850  138.1680 C   0  0  0  0  0  0  0  0  0  0  0  0
  163.0300  212.8500  137.6460 C   0  0  0  0  0  2  0  0  0  0  0  0
  162.9410  211.4850  137.8040 N   0  0  0  0  0  2  0  0  0  0  0  0
  160.6670  204.2180  145.5290 O   0  0  0  0  0  0  0  0  0  0  0  0
  160.0300  203.2960  144.6920 C   0  0  0  0  0  2  0  0  0  0  0  0
  160.4450  201.8820  145.0680 C   0  0  0  0  0  2  0  0  0  0  0  0
  160.6490  201.7470  146.5410 C   0  0  0  0  0  0  0  0  0  0  0  0
  161.2760  200.6670  147.0170 C   0  0  0  0  0  3  0  0  0  0  0  0
  160.1670  202.7420  147.4100 O   0  0  0  0  0  0  0  0  0  0  0  0
  162.8340  200.9690  148.7660 O   0  0  0  0  0  1  0  0  0  0  0  0
  161.5460  200.5050  148.4870 C   0  0  1  0  0  3  0  0  0  0  0  0
  160.4050  202.7170  148.8190 C   0  0  0  0  0  2  0  0  0  0  0  0
  160.4980  201.2720  149.3050 C   0  0  2  0  0  3  0  0  0  0  0  0
  160.7160  201.1750  150.8130 C   0  0  0  0  0  2  0  0  0  0  0  0
  161.1850  202.3820  151.3390 O   0  0  0  0  0  1  0  0  0  0  0  0
  161.2500  208.5900  148.9990 C   0  0  0  0  0  2  0  0  0  0  0  0
  161.7360  209.7590  148.1500 C   0  0  0  0  0  2  0  0  0  0  0  0
  160.7140  210.8900  148.0850 C   0  0  0  0  0  2  0  0  0  0  0  0
  161.7950  214.4030  145.4770 C   0  0  0  0  0  2  0  0  0  0  0  0
  162.2190  212.6390  148.5050 C   0  0  0  0  0  2  0  0  0  0  0  0
  160.8760  214.4530  146.7040 C   0  0  0  0  0  2  0  0  0  0  0  0
  158.0430  212.5310  146.5520 C   0  0  0  0  0  0  0  0  0  0  0  0
  157.0570  212.0860  145.9070 O   0  0  0  0  0  0  0  0  0  0  0  0
  163.7860  213.8390  146.9260 C   0  0  0  0  0  2  0  0  0  0  0  0
  157.9920  213.0350  147.8970 C   0  0  0  0  0  0  0  0  0  0  0  0
  161.2960  212.1020  147.5030 N   0  0  0  0  0  0  0  0  0  0  0  0
  159.3860  212.5830  146.0580 N   0  0  0  0  0  0  0  0  0  0  0  0
  157.1460  213.7330  150.0280 C   0  0  0  0  0  3  0  0  0  0  0  0
  163.6330  212.7120  147.9410 C   0  0  0  0  0  2  0  0  0  0  0  0
  159.2760  213.3750  148.2650 C   0  0  0  0  0  0  0  0  0  0  0  0
  159.5310  213.9110  149.5310 C   0  0  0  0  0  3  0  0  0  0  0  0
  158.4530  214.0880  150.4150 C   0  0  0  0  0  3  0  0  0  0  0  0
  156.9040  213.1980  148.7530 C   0  0  0  0  0  3  0  0  0  0  0  0
  163.0240  213.5130  145.6500 C   0  0  0  0  0  2  0  0  0  0  0  0
  160.2570  213.1050  147.1350 C   0  0  2  0  0  0  0  0  0  0  0  0
  160.0650  213.0150  143.7750 C   0  0  0  0  0  2  0  0  0  0  0  0
  159.8920  211.9790  144.8200 C   0  0  2  0  0  3  0  0  0  0  0  0
  158.9700  212.1350  143.7650 O   0  0  0  0  0  0  0  0  0  0  0  0
  1  7  1  0  0  0  0
  2 40  1  0  0  0  0
  2  7  2  0  0  0  0
  3  5  2  0  0  0  0
  3  9  1  0  0  0  0
  5  2  1  0  0  0  0
  6  4  1  1  0  0  0
  6  9  1  0  0  0  0
  8 10  1  6  0  0  0
  8  6  1  0  0  0  0
  8  3  1  0  0  0  0
  9  1  2  0  0  0  0
 10 28  1  1  0  0  0
 11 13  1  0  0  0  0
 11 10  1  0  0  0  0
 13 12  1  0  0  0  0
 14 11  1  0  0  0  0
 15 14  1  0  0  0  0
 17 16  1  6  0  0  0
 17 15  1  0  0  0  0
 18 19  2  0  0  0  0
 19 20  1  0  0  0  0
 19 17  1  0  0  0  0
 21 22  1  0  0  0  0
 22 23  1  0  0  0  0
 22 20  1  0  0  0  0
 24 25  2  0  0  0  0
 25 23  1  0  0  0  0
 26 27  1  0  0  0  0
 26 24  1  0  0  0  0
 27 25  1  0  0  0  0
 29 30  1  0  0  0  0
 29 28  1  0  0  0  0
 30 31  1  0  0  0  0
 31 32  2  0  0  0  0
 31 33  1  0  0  0  0
 32 35  1  0  0  0  0
 33 36  1  0  0  0  0
 35 34  1  6  0  0  0
 35 37  1  0  0  0  0
 36 37  1  0  0  0  0
 37 38  1  1  0  0  0
 38 39  1  0  0  0  0
 41 40  1  0  0  0  0
 42 41  1  0  0  0  0
 43 58  1  0  0  0  0
 43 45  1  0  0  0  0
 46 49  1  0  0  0  0
 47 46  2  0  0  0  0
 48 53  1  0  0  0  0
 49 54  2  0  0  0  0
 49 57  1  0  0  0  0
 50 42  1  0  0  0  0
 50 44  1  0  0  0  0
 51 46  1  0  0  0  0
 51 59  1  0  0  0  0
 52 56  1  0  0  0  0
 53 44  1  0  0  0  0
 54 55  1  0  0  0  0
 55 56  2  0  0  0  0
 57 52  2  0  0  0  0
 58 48  1  0  0  0  0
 59 45  1  6  0  0  0
 59 50  1  0  0  0  0
 59 54  1  0  0  0  0
 61 60  1  6  0  0  0
 61 51  1  0  0  0  0
 62 60  1  0  0  0  0
 62 61  1  0  0  0  0
M  END
>  <MODEL>
7

>  <REMARK>
 VINA RESULT:       1.0      4.600      8.722
  Name = 
  21 active torsions:
  status: ('A' for Active; 'I' for Inactive)
    1  A    between atoms: C_1  and  C_42
    2  A    between atoms: C_1  and  N_45
    3  A    between atoms: C_3  and  C_56
    4  A    between atoms: C_5  and  C_22
    5  A    between atoms: C_5  and  N_59
    6  A    between atoms: C_7  and  C_27
    7  A    between atoms: C_9  and  C_57
    8  A    between atoms: C_14  and  N_29
    9  A    between atoms: C_14  and  C_32
   10  A    between atoms: C_19  and  C_23
   11  A    between atoms: C_19  and  N_45
   12  A    between atoms: C_22  and  C_55
   13  A    between atoms: C_27  and  C_32
   14  A    between atoms: N_31  and  C_60
   15  A    between atoms: C_34  and  O_53
   16  A    between atoms: C_34  and  C_56
   17  A    between atoms: C_36  and  N_59
   18  A    between atoms: C_42  and  C_55
   19  A    between atoms: C_48  and  O_53
   20  A    between atoms: C_48  and  C_58
   21  A    between atoms: C_48  and  N_59
                            x       y       z     vdW  Elec       q    Type
                         _______ _______ _______ _____ _____    ______ ____

>  <TORSDO>
F 21

$$$$
