=
 OpenBabel11072415083D

 39 41  0  0  1  0  0  0  0  0999 V2000
  161.3410  206.9970  153.1820 N   0  0  0  0  0  0  0  0  0  0  0  0
  162.6090  206.7340  152.4850 C   0  0  1  0  0  3  0  0  0  0  0  0
  161.6200  205.6470  152.6600 C   0  0  2  0  0  3  0  0  0  0  0  0
  161.4620  202.9180  151.4140 C   0  0  0  0  0  2  0  0  0  0  0  0
  159.4040  201.6230  148.8640 F   0  0  0  0  0  0  0  0  0  0  0  0
  160.0050  206.2580  150.9970 O   0  0  0  0  0  0  0  0  0  0  0  0
  161.1300  201.7540  150.5000 C   0  0  0  0  0  2  0  0  0  0  0  0
  160.7600  205.3580  151.4550 C   0  0  0  0  0  0  0  0  0  0  0  0
  160.1170  203.7670  149.5930 C   0  0  0  0  0  2  0  0  0  0  0  0
  160.5270  202.3470  149.2270 C   0  0  2  0  0  0  0  0  0  0  0  0
  160.7730  204.0590  150.8490 N   0  0  0  0  0  0  0  0  0  0  0  0
  161.5680  202.3590  148.0880 C   0  0  2  0  0  3  0  0  0  0  0  0
  161.8420  203.7750  147.5920 C   0  0  0  0  0  2  0  0  0  0  0  0
  160.8960  202.5260  145.3780 S   0  0  0  0  0  0  0  0  0  0  0  0
  161.1080  201.5980  146.8850 C   0  0  0  0  0  0  0  0  0  0  0  0
  160.8900  200.3980  146.9220 O   0  0  0  0  0  0  0  0  0  0  0  0
  160.9600  204.0420  146.3810 C   0  0  2  0  0  3  0  0  0  0  0  0
  162.7360  205.3870  145.5490 O   0  0  0  0  0  1  0  0  0  0  0  0
  161.4950  205.1850  145.5890 C   0  0  0  0  0  0  0  0  0  0  0  0
  160.6370  206.0060  144.8630 O   0  0  0  0  0  0  0  0  0  0  0  0
  161.3240  207.8460  156.6800 O   0  0  0  0  0  0  0  0  0  0  0  0
  161.6290  206.9670  154.5530 N   0  0  0  0  0  2  0  0  0  0  0  0
  161.0240  207.8890  155.4590 C   0  0  0  0  0  0  0  0  0  0  0  0
  160.0460  208.9080  154.9790 C   0  0  0  0  0  2  0  0  0  0  0  0
  159.9800  211.4230  154.8960 C   0  0  0  0  0  0  0  0  0  0  0  0
  159.2250  211.3860  153.6830 N   0  0  0  0  0  2  0  0  0  0  0  0
  160.3830  210.2110  155.5300 N   0  0  0  0  0  2  0  0  0  0  0  0
  160.2910  212.5280  155.4150 O   0  0  0  0  0  0  0  0  0  0  0  0
  159.7390  212.9140  151.8760 C   0  0  0  0  0  1  0  0  0  0  0  0
  158.7880  212.5970  153.0100 C   0  0  0  0  0  2  0  0  0  0  0  0
  162.4050  208.7730  151.0010 C   0  0  0  0  0  0  0  0  0  0  0  0
  162.5680  207.3630  151.1700 N   0  0  0  0  0  2  0  0  0  0  0  0
  162.2770  209.5230  152.0050 O   0  0  0  0  0  0  0  0  0  0  0  0
  161.6280  208.4600  148.6440 C   0  0  0  0  0  1  0  0  0  0  0  0
  162.3480  209.3680  149.6290 C   0  0  1  0  0  3  0  0  0  0  0  0
  161.7650  210.7840  149.6230 C   0  0  0  0  0  2  0  0  0  0  0  0
  162.3630  211.6780  148.5420 C   0  0  0  0  0  2  0  0  0  0  0  0
  161.3720  212.7570  148.1530 C   0  0  0  0  0  2  0  0  0  0  0  0
  160.4820  212.2520  147.0380 C   0  0  0  0  0  1  0  0  0  0  0  0
  1 22  1  0  0  0  0
  2 32  1  6  0  0  0
  2  3  1  0  0  0  0
  2  1  1  0  0  0  0
  3  8  1  6  0  0  0
  3  1  1  0  0  0  0
  6  8  2  0  0  0  0
  7  4  1  0  0  0  0
  9 11  1  0  0  0  0
 10  5  1  6  0  0  0
 10  9  1  0  0  0  0
 10  7  1  0  0  0  0
 11  4  1  0  0  0  0
 11  8  1  0  0  0  0
 12 13  1  6  0  0  0
 12 10  1  0  0  0  0
 14 17  1  0  0  0  0
 14 15  1  0  0  0  0
 15 16  2  0  0  0  0
 15 12  1  0  0  0  0
 17 19  1  6  0  0  0
 17 13  1  0  0  0  0
 18 19  1  0  0  0  0
 20 19  2  0  0  0  0
 22 23  1  0  0  0  0
 23 21  2  0  0  0  0
 24 23  1  0  0  0  0
 24 27  1  0  0  0  0
 25 28  2  0  0  0  0
 25 27  1  0  0  0  0
 26 25  1  0  0  0  0
 29 30  1  0  0  0  0
 30 26  1  0  0  0  0
 31 32  1  0  0  0  0
 31 33  2  0  0  0  0
 35 34  1  6  0  0  0
 35 31  1  0  0  0  0
 36 35  1  0  0  0  0
 37 36  1  0  0  0  0
 38 37  1  0  0  0  0
 39 38  1  0  0  0  0
M  END
>  <MODEL>
1

>  <REMARK>
 VINA RESULT:      -6.3      0.000      0.000
  Name = 
  12 active torsions:
  status: ('A' for Active; 'I' for Inactive)
    1  A    between atoms: C_2  and  C_31
    2  A    between atoms: C_4  and  N_25
    3  A    between atoms: C_4  and  C_38
    4  A    between atoms: C_5  and  C_17
    5  A    between atoms: N_10  and  C_22
    6  A    between atoms: N_11  and  N_32
    7  A    between atoms: C_12  and  C_17
    8  A    between atoms: C_12  and  C_24
    9  A    between atoms: C_16  and  C_24
   10  A    between atoms: N_18  and  C_36
   11  A    between atoms: C_21  and  C_39
   12  A    between atoms: C_26  and  C_34
                            x       y       z     vdW  Elec       q    Type
                         _______ _______ _______ _____ _____    ______ ____

>  <TORSDO>
F 12

$$$$
=
 OpenBabel11072415083D

 39 41  0  0  1  0  0  0  0  0999 V2000
  161.7200  210.7390  148.9450 N   0  0  0  0  0  0  0  0  0  0  0  0
  162.4600  209.4750  148.8170 C   0  0  1  0  0  3  0  0  0  0  0  0
  162.5180  210.2420  150.0810 C   0  0  2  0  0  3  0  0  0  0  0  0
  160.4270  211.9760  151.3640 C   0  0  0  0  0  2  0  0  0  0  0  0
  157.8750  211.2440  153.6810 F   0  0  0  0  0  0  0  0  0  0  0  0
  161.6660  208.5280  151.5250 O   0  0  0  0  0  0  0  0  0  0  0  0
  159.3190  212.4970  152.2600 C   0  0  0  0  0  2  0  0  0  0  0  0
  161.6160  209.7400  151.1810 C   0  0  0  0  0  0  0  0  0  0  0  0
  159.9230  210.2600  152.9920 C   0  0  0  0  0  2  0  0  0  0  0  0
  159.2080  211.5280  153.4370 C   0  0  2  0  0  0  0  0  0  0  0  0
  160.6830  210.6250  151.8150 N   0  0  0  0  0  0  0  0  0  0  0  0
  159.8850  212.1200  154.6910 C   0  0  2  0  0  3  0  0  0  0  0  0
  161.1490  211.3520  155.0640 C   0  0  0  0  0  2  0  0  0  0  0  0
  159.5850  211.0550  157.2610 S   0  0  0  0  0  0  0  0  0  0  0  0
  159.0070  212.0520  155.9010 C   0  0  0  0  0  0  0  0  0  0  0  0
  157.9450  212.6510  155.9660 O   0  0  0  0  0  0  0  0  0  0  0  0
  160.7890  210.3130  156.1180 C   0  0  2  0  0  3  0  0  0  0  0  0
  162.8550  210.7160  157.2250 O   0  0  0  0  0  1  0  0  0  0  0  0
  162.0110  209.8650  156.8440 C   0  0  0  0  0  0  0  0  0  0  0  0
  162.2060  208.5190  157.1380 O   0  0  0  0  0  0  0  0  0  0  0  0
  162.6600  213.8300  147.3580 O   0  0  0  0  0  0  0  0  0  0  0  0
  162.4930  211.7180  148.3080 N   0  0  0  0  0  2  0  0  0  0  0  0
  161.9410  212.9840  147.9510 C   0  0  0  0  0  0  0  0  0  0  0  0
  160.5200  213.3180  148.2620 C   0  0  0  0  0  2  0  0  0  0  0  0
  158.2470  213.0430  147.2180 C   0  0  0  0  0  0  0  0  0  0  0  0
  157.6460  213.8000  148.2710 N   0  0  0  0  0  2  0  0  0  0  0  0
  159.6530  212.8050  147.2140 N   0  0  0  0  0  2  0  0  0  0  0  0
  157.5370  212.5810  146.2850 O   0  0  0  0  0  0  0  0  0  0  0  0
  155.7840  214.2740  149.7440 C   0  0  0  0  0  1  0  0  0  0  0  0
  156.2200  214.0700  148.3090 C   0  0  0  0  0  2  0  0  0  0  0  0
  161.8120  207.0930  148.2620 C   0  0  0  0  0  0  0  0  0  0  0  0
  161.5150  208.3650  148.8420 N   0  0  0  0  0  2  0  0  0  0  0  0
  162.9180  206.8970  147.6910 O   0  0  0  0  0  0  0  0  0  0  0  0
  161.1760  204.8450  147.3690 C   0  0  0  0  0  1  0  0  0  0  0  0
  160.7990  205.9920  148.2950 C   0  0  1  0  0  3  0  0  0  0  0  0
  160.5070  205.5000  149.7150 C   0  0  0  0  0  2  0  0  0  0  0  0
  160.9360  204.0570  149.9540 C   0  0  0  0  0  2  0  0  0  0  0  0
  160.8350  203.7220  151.4290 C   0  0  0  0  0  2  0  0  0  0  0  0
  161.2860  204.9090  152.2510 C   0  0  0  0  0  1  0  0  0  0  0  0
  1  3  1  0  0  0  0
  2 32  1  1  0  0  0
  2  1  1  0  0  0  0
  2  3  1  0  0  0  0
  3  8  1  1  0  0  0
  4 11  1  0  0  0  0
  4  7  1  0  0  0  0
  7 10  1  0  0  0  0
  8  6  2  0  0  0  0
  8 11  1  0  0  0  0
  9 10  1  0  0  0  0
 10  5  1  1  0  0  0
 10 12  1  0  0  0  0
 11  9  1  0  0  0  0
 12 13  1  1  0  0  0
 12 15  1  0  0  0  0
 13 17  1  0  0  0  0
 15 16  2  0  0  0  0
 15 14  1  0  0  0  0
 17 19  1  1  0  0  0
 17 14  1  0  0  0  0
 19 20  2  0  0  0  0
 19 18  1  0  0  0  0
 21 23  2  0  0  0  0
 22  1  1  0  0  0  0
 23 24  1  0  0  0  0
 23 22  1  0  0  0  0
 25 26  1  0  0  0  0
 26 30  1  0  0  0  0
 27 25  1  0  0  0  0
 27 24  1  0  0  0  0
 28 25  2  0  0  0  0
 30 29  1  0  0  0  0
 31 35  1  0  0  0  0
 31 32  1  0  0  0  0
 33 31  2  0  0  0  0
 35 34  1  6  0  0  0
 35 36  1  0  0  0  0
 36 37  1  0  0  0  0
 37 38  1  0  0  0  0
 38 39  1  0  0  0  0
M  END
>  <MODEL>
2

>  <REMARK>
 VINA RESULT:      -6.1      4.206      8.982
  Name = 
  12 active torsions:
  status: ('A' for Active; 'I' for Inactive)
    1  A    between atoms: C_2  and  C_31
    2  A    between atoms: C_4  and  N_25
    3  A    between atoms: C_4  and  C_38
    4  A    between atoms: C_5  and  C_17
    5  A    between atoms: N_10  and  C_22
    6  A    between atoms: N_11  and  N_32
    7  A    between atoms: C_12  and  C_17
    8  A    between atoms: C_12  and  C_24
    9  A    between atoms: C_16  and  C_24
   10  A    between atoms: N_18  and  C_36
   11  A    between atoms: C_21  and  C_39
   12  A    between atoms: C_26  and  C_34
                            x       y       z     vdW  Elec       q    Type
                         _______ _______ _______ _____ _____    ______ ____

>  <TORSDO>
F 12

$$$$
=
 OpenBabel11072415083D

 39 41  0  0  1  0  0  0  0  0999 V2000
  160.9380  211.4590  152.0590 N   0  0  0  0  0  0  0  0  0  0  0  0
  160.4960  211.2440  153.4450 C   0  0  1  0  0  3  0  0  0  0  0  0
  159.9980  210.3650  152.3650 C   0  0  2  0  0  3  0  0  0  0  0  0
  161.3050  209.4370  149.8240 C   0  0  0  0  0  2  0  0  0  0  0  0
  163.3060  206.6270  149.1100 F   0  0  0  0  0  0  0  0  0  0  0  0
  160.8060  208.3000  153.2750 O   0  0  0  0  0  0  0  0  0  0  0  0
  162.0270  208.6090  148.7790 C   0  0  0  0  0  2  0  0  0  0  0  0
  160.6860  209.0280  152.2520 C   0  0  0  0  0  0  0  0  0  0  0  0
  161.7390  207.2580  150.7780 C   0  0  0  0  0  2  0  0  0  0  0  0
  162.0450  207.1680  149.2900 C   0  0  2  0  0  0  0  0  0  0  0  0
  161.2310  208.5960  150.9990 N   0  0  0  0  0  0  0  0  0  0  0  0
  160.9750  206.3240  148.5660 C   0  0  2  0  0  3  0  0  0  0  0  0
  160.5810  205.0970  149.3820 C   0  0  0  0  0  2  0  0  0  0  0  0
  161.5560  204.0190  147.0910 S   0  0  0  0  0  0  0  0  0  0  0  0
  161.4560  205.7920  147.2540 C   0  0  0  0  0  0  0  0  0  0  0  0
  161.7650  206.5280  146.3300 O   0  0  0  0  0  0  0  0  0  0  0  0
  161.4080  203.9120  148.9000 C   0  0  2  0  0  3  0  0  0  0  0  0
  160.2590  202.5260  150.4550 O   0  0  0  0  0  1  0  0  0  0  0  0
  160.7660  202.6300  149.3090 C   0  0  0  0  0  0  0  0  0  0  0  0
  160.6890  201.5630  148.4200 O   0  0  0  0  0  0  0  0  0  0  0  0
  159.7100  214.0170  149.8450 O   0  0  0  0  0  0  0  0  0  0  0  0
  160.1740  212.5200  151.5580 N   0  0  0  0  0  2  0  0  0  0  0  0
  160.4020  213.0480  150.2520 C   0  0  0  0  0  0  0  0  0  0  0  0
  161.4550  212.4740  149.3650 C   0  0  0  0  0  2  0  0  0  0  0  0
  161.2700  213.3600  147.0160 C   0  0  0  0  0  0  0  0  0  0  0  0
  160.3570  212.3160  146.6700 N   0  0  0  0  0  2  0  0  0  0  0  0
  161.8090  213.4370  148.3340 N   0  0  0  0  0  2  0  0  0  0  0  0
  161.6030  214.2210  146.1580 O   0  0  0  0  0  0  0  0  0  0  0  0
  158.5720  213.1140  145.2410 C   0  0  0  0  0  1  0  0  0  0  0  0
  159.7790  212.2070  145.3420 C   0  0  0  0  0  2  0  0  0  0  0  0
  161.7650  210.9200  155.6100 C   0  0  0  0  0  0  0  0  0  0  0  0
  161.5960  210.6720  154.2120 N   0  0  0  0  0  2  0  0  0  0  0  0
  160.9570  211.6660  156.2250 O   0  0  0  0  0  0  0  0  0  0  0  0
  163.7130  211.3800  157.1090 C   0  0  0  0  0  1  0  0  0  0  0  0
  162.9230  210.3260  156.3490 C   0  0  1  0  0  3  0  0  0  0  0  0
  162.5120  209.1630  157.2550 C   0  0  0  0  0  2  0  0  0  0  0  0
  161.7670  208.0570  156.5170 C   0  0  0  0  0  2  0  0  0  0  0  0
  160.4630  207.7470  157.2230 C   0  0  0  0  0  2  0  0  0  0  0  0
  159.5160  207.0600  156.2630 C   0  0  0  0  0  1  0  0  0  0  0  0
  1  3  1  0  0  0  0
  1  2  1  0  0  0  0
  2 32  1  1  0  0  0
  3  8  1  1  0  0  0
  3  2  1  0  0  0  0
  4 11  1  0  0  0  0
  7 10  1  0  0  0  0
  7  4  1  0  0  0  0
  8  6  2  0  0  0  0
  9 11  1  0  0  0  0
 10  5  1  6  0  0  0
 10  9  1  0  0  0  0
 11  8  1  0  0  0  0
 12 10  1  0  0  0  0
 12 13  1  1  0  0  0
 14 15  1  0  0  0  0
 14 17  1  0  0  0  0
 15 12  1  0  0  0  0
 16 15  2  0  0  0  0
 17 19  1  6  0  0  0
 17 13  1  0  0  0  0
 19 18  1  0  0  0  0
 20 19  2  0  0  0  0
 21 23  2  0  0  0  0
 22  1  1  0  0  0  0
 23 22  1  0  0  0  0
 24 23  1  0  0  0  0
 25 27  1  0  0  0  0
 26 25  1  0  0  0  0
 27 24  1  0  0  0  0
 28 25  2  0  0  0  0
 29 30  1  0  0  0  0
 30 26  1  0  0  0  0
 31 33  2  0  0  0  0
 31 35  1  0  0  0  0
 32 31  1  0  0  0  0
 35 34  1  1  0  0  0
 35 36  1  0  0  0  0
 37 38  1  0  0  0  0
 37 36  1  0  0  0  0
 39 38  1  0  0  0  0
M  END
>  <MODEL>
3

>  <REMARK>
 VINA RESULT:      -5.9      3.075      6.502
  Name = 
  12 active torsions:
  status: ('A' for Active; 'I' for Inactive)
    1  A    between atoms: C_2  and  C_31
    2  A    between atoms: C_4  and  N_25
    3  A    between atoms: C_4  and  C_38
    4  A    between atoms: C_5  and  C_17
    5  A    between atoms: N_10  and  C_22
    6  A    between atoms: N_11  and  N_32
    7  A    between atoms: C_12  and  C_17
    8  A    between atoms: C_12  and  C_24
    9  A    between atoms: C_16  and  C_24
   10  A    between atoms: N_18  and  C_36
   11  A    between atoms: C_21  and  C_39
   12  A    between atoms: C_26  and  C_34
                            x       y       z     vdW  Elec       q    Type
                         _______ _______ _______ _____ _____    ______ ____

>  <TORSDO>
F 12

$$$$
=
 OpenBabel11072415083D

 39 41  0  0  1  0  0  0  0  0999 V2000
  161.6590  210.0560  151.2890 N   0  0  0  0  0  0  0  0  0  0  0  0
  162.4240  210.6230  150.1680 C   0  0  1  0  0  3  0  0  0  0  0  0
  162.5570  209.1890  150.5050 C   0  0  2  0  0  3  0  0  0  0  0  0
  161.3730  206.6400  151.5660 C   0  0  0  0  0  2  0  0  0  0  0  0
  159.1840  204.2910  150.1140 F   0  0  0  0  0  0  0  0  0  0  0  0
  161.4940  208.5670  148.4480 O   0  0  0  0  0  0  0  0  0  0  0  0
  160.6620  205.3060  151.6840 C   0  0  0  0  0  2  0  0  0  0  0  0
  161.7600  208.2460  149.6380 C   0  0  0  0  0  0  0  0  0  0  0  0
  160.6680  205.9800  149.3500 C   0  0  0  0  0  2  0  0  0  0  0  0
  160.4720  204.7770  150.2620 C   0  0  2  0  0  0  0  0  0  0  0  0
  161.2770  207.0050  150.1690 N   0  0  0  0  0  0  0  0  0  0  0  0
  161.5140  203.6830  149.9480 C   0  0  2  0  0  3  0  0  0  0  0  0
  161.5240  203.3260  148.4650 C   0  0  0  0  0  2  0  0  0  0  0  0
  160.8750  200.9750  149.6530 S   0  0  0  0  0  0  0  0  0  0  0  0
  161.2300  202.4000  150.6640 C   0  0  0  0  0  0  0  0  0  0  0  0
  161.2440  202.3210  151.8820 O   0  0  0  0  0  0  0  0  0  0  0  0
  160.6300  202.1110  148.2550 C   0  0  2  0  0  3  0  0  0  0  0  0
  161.4480  200.2880  146.9640 O   0  0  0  0  0  1  0  0  0  0  0  0
  160.9540  201.4450  146.9610 C   0  0  0  0  0  0  0  0  0  0  0  0
  160.6770  202.0750  145.7520 O   0  0  0  0  0  0  0  0  0  0  0  0
  162.3740  210.6610  154.7640 O   0  0  0  0  0  0  0  0  0  0  0  0
  162.3500  210.4020  152.4570 N   0  0  0  0  0  2  0  0  0  0  0  0
  161.7280  210.3200  153.7390 C   0  0  0  0  0  0  0  0  0  0  0  0
  160.3220  209.8430  153.8820 C   0  0  0  0  0  2  0  0  0  0  0  0
  159.0170  211.9940  153.9720 C   0  0  0  0  0  0  0  0  0  0  0  0
  159.2560  212.2240  152.5820 N   0  0  0  0  0  2  0  0  0  0  0  0
  159.5390  210.8300  154.6090 N   0  0  0  0  0  2  0  0  0  0  0  0
  158.3400  212.8170  154.6440 O   0  0  0  0  0  0  0  0  0  0  0  0
  159.8150  213.9800  151.0110 C   0  0  0  0  0  1  0  0  0  0  0  0
  158.7350  213.3920  151.8940 C   0  0  0  0  0  2  0  0  0  0  0  0
  161.6710  212.0170  148.1950 C   0  0  0  0  0  0  0  0  0  0  0  0
  161.5170  210.8870  149.0570 N   0  0  0  0  0  2  0  0  0  0  0  0
  162.6090  212.8370  148.3840 O   0  0  0  0  0  0  0  0  0  0  0  0
  159.4250  212.9210  147.5720 C   0  0  0  0  0  1  0  0  0  0  0  0
  160.7010  212.2560  147.0810 C   0  0  1  0  0  3  0  0  0  0  0  0
  161.3230  213.0210  145.9090 C   0  0  0  0  0  2  0  0  0  0  0  0
  160.8120  212.5600  144.5490 C   0  0  0  0  0  2  0  0  0  0  0  0
  161.8050  212.9330  143.4670 C   0  0  0  0  0  2  0  0  0  0  0  0
  163.1580  213.2010  144.0900 C   0  0  0  0  0  1  0  0  0  0  0  0
  1 22  1  0  0  0  0
  2 32  1  6  0  0  0
  2  3  1  0  0  0  0
  2  1  1  0  0  0  0
  3  8  1  6  0  0  0
  3  1  1  0  0  0  0
  4  7  1  0  0  0  0
  6  8  2  0  0  0  0
  8 11  1  0  0  0  0
  9 11  1  0  0  0  0
  9 10  1  0  0  0  0
 10  5  1  6  0  0  0
 10  7  1  0  0  0  0
 11  4  1  0  0  0  0
 12 13  1  6  0  0  0
 12 10  1  0  0  0  0
 12 15  1  0  0  0  0
 14 15  1  0  0  0  0
 15 16  2  0  0  0  0
 17 19  1  6  0  0  0
 17 13  1  0  0  0  0
 17 14  1  0  0  0  0
 19 18  1  0  0  0  0
 20 19  2  0  0  0  0
 22 23  1  0  0  0  0
 23 24  1  0  0  0  0
 23 21  2  0  0  0  0
 24 27  1  0  0  0  0
 25 27  1  0  0  0  0
 25 28  2  0  0  0  0
 26 25  1  0  0  0  0
 29 30  1  0  0  0  0
 30 26  1  0  0  0  0
 31 33  2  0  0  0  0
 31 32  1  0  0  0  0
 35 34  1  1  0  0  0
 35 31  1  0  0  0  0
 36 35  1  0  0  0  0
 37 36  1  0  0  0  0
 38 39  1  0  0  0  0
 38 37  1  0  0  0  0
M  END
>  <MODEL>
4

>  <REMARK>
 VINA RESULT:      -5.7      2.357      3.628
  Name = 
  12 active torsions:
  status: ('A' for Active; 'I' for Inactive)
    1  A    between atoms: C_2  and  C_31
    2  A    between atoms: C_4  and  N_25
    3  A    between atoms: C_4  and  C_38
    4  A    between atoms: C_5  and  C_17
    5  A    between atoms: N_10  and  C_22
    6  A    between atoms: N_11  and  N_32
    7  A    between atoms: C_12  and  C_17
    8  A    between atoms: C_12  and  C_24
    9  A    between atoms: C_16  and  C_24
   10  A    between atoms: N_18  and  C_36
   11  A    between atoms: C_21  and  C_39
   12  A    between atoms: C_26  and  C_34
                            x       y       z     vdW  Elec       q    Type
                         _______ _______ _______ _____ _____    ______ ____

>  <TORSDO>
F 12

$$$$
=
 OpenBabel11072415083D

 39 41  0  0  1  0  0  0  0  0999 V2000
  161.0090  207.0430  153.2360 N   0  0  0  0  0  0  0  0  0  0  0  0
  162.2250  207.2720  152.4410 C   0  0  1  0  0  3  0  0  0  0  0  0
  161.6460  205.9140  152.5340 C   0  0  2  0  0  3  0  0  0  0  0  0
  161.4120  203.0420  151.6840 C   0  0  0  0  0  2  0  0  0  0  0  0
  159.3800  201.4710  149.2720 F   0  0  0  0  0  0  0  0  0  0  0  0
  160.1090  206.3390  150.7440 O   0  0  0  0  0  0  0  0  0  0  0  0
  161.0600  201.7720  150.9340 C   0  0  0  0  0  2  0  0  0  0  0  0
  160.8110  205.4870  151.3530 C   0  0  0  0  0  0  0  0  0  0  0  0
  160.1590  203.6700  149.7140 C   0  0  0  0  0  2  0  0  0  0  0  0
  160.5200  202.1980  149.5690 C   0  0  2  0  0  0  0  0  0  0  0  0
  160.7880  204.1150  150.9380 N   0  0  0  0  0  0  0  0  0  0  0  0
  161.5940  202.0080  148.4770 C   0  0  2  0  0  3  0  0  0  0  0  0
  161.6930  203.2280  147.5670 C   0  0  0  0  0  2  0  0  0  0  0  0
  161.0150  201.2400  145.8510 S   0  0  0  0  0  0  0  0  0  0  0  0
  161.2910  200.8580  147.5700 C   0  0  0  0  0  0  0  0  0  0  0  0
  161.2370  199.7080  147.9760 O   0  0  0  0  0  0  0  0  0  0  0  0
  160.8310  202.9830  146.3360 C   0  0  2  0  0  3  0  0  0  0  0  0
  160.3740  204.2940  144.4050 O   0  0  0  0  0  0  0  0  0  0  0  0
  161.2370  203.8930  145.2280 C   0  0  0  0  0  0  0  0  0  0  0  0
  162.5520  204.3330  145.1190 O   0  0  0  0  0  1  0  0  0  0  0  0
  161.8340  208.0230  156.6000 O   0  0  0  0  0  0  0  0  0  0  0  0
  161.4190  206.9680  154.5740 N   0  0  0  0  0  2  0  0  0  0  0  0
  161.4390  208.1250  155.4100 C   0  0  0  0  0  0  0  0  0  0  0  0
  161.0050  209.4550  154.8910 C   0  0  0  0  0  2  0  0  0  0  0  0
  158.8550  210.7630  154.8550 C   0  0  0  0  0  0  0  0  0  0  0  0
  159.2310  211.3910  153.6280 N   0  0  0  0  0  2  0  0  0  0  0  0
  159.7230  209.8170  155.4750 N   0  0  0  0  0  2  0  0  0  0  0  0
  157.7520  211.0400  155.3970 O   0  0  0  0  0  0  0  0  0  0  0  0
  159.0690  212.8760  151.7220 C   0  0  0  0  0  1  0  0  0  0  0  0
  158.3720  212.3540  152.9600 C   0  0  0  0  0  2  0  0  0  0  0  0
  162.1590  209.3710  151.0290 C   0  0  0  0  0  0  0  0  0  0  0  0
  161.8670  207.9850  151.2200 N   0  0  0  0  0  2  0  0  0  0  0  0
  162.7350  210.0300  151.9350 O   0  0  0  0  0  0  0  0  0  0  0  0
  162.7460  211.1390  149.3600 C   0  0  0  0  0  1  0  0  0  0  0  0
  161.7520  210.0620  149.7650 C   0  0  1  0  0  3  0  0  0  0  0  0
  161.4780  209.0850  148.6190 C   0  0  0  0  0  2  0  0  0  0  0  0
  162.6930  208.2490  148.2350 C   0  0  0  0  0  2  0  0  0  0  0  0
  162.2860  206.8040  148.0260 C   0  0  0  0  0  2  0  0  0  0  0  0
  160.9600  206.7510  147.2980 C   0  0  0  0  0  1  0  0  0  0  0  0
  1 22  1  0  0  0  0
  2 32  1  6  0  0  0
  2  3  1  0  0  0  0
  2  1  1  0  0  0  0
  3  8  1  6  0  0  0
  3  1  1  0  0  0  0
  6  8  2  0  0  0  0
  7  4  1  0  0  0  0
  9 11  1  0  0  0  0
 10  5  1  6  0  0  0
 10  9  1  0  0  0  0
 10  7  1  0  0  0  0
 11  8  1  0  0  0  0
 11  4  1  0  0  0  0
 12 13  1  6  0  0  0
 12 10  1  0  0  0  0
 14 17  1  0  0  0  0
 14 15  1  0  0  0  0
 15 16  2  0  0  0  0
 15 12  1  0  0  0  0
 17 19  1  6  0  0  0
 17 13  1  0  0  0  0
 18 19  2  0  0  0  0
 20 19  1  0  0  0  0
 22 23  1  0  0  0  0
 23 21  2  0  0  0  0
 24 23  1  0  0  0  0
 24 27  1  0  0  0  0
 25 28  2  0  0  0  0
 25 27  1  0  0  0  0
 26 25  1  0  0  0  0
 29 30  1  0  0  0  0
 30 26  1  0  0  0  0
 31 32  1  0  0  0  0
 31 33  2  0  0  0  0
 35 34  1  6  0  0  0
 35 31  1  0  0  0  0
 36 35  1  0  0  0  0
 37 36  1  0  0  0  0
 38 37  1  0  0  0  0
 39 38  1  0  0  0  0
M  END
>  <MODEL>
5

>  <REMARK>
 VINA RESULT:      -5.6      1.133      1.840
  Name = 
  12 active torsions:
  status: ('A' for Active; 'I' for Inactive)
    1  A    between atoms: C_2  and  C_31
    2  A    between atoms: C_4  and  N_25
    3  A    between atoms: C_4  and  C_38
    4  A    between atoms: C_5  and  C_17
    5  A    between atoms: N_10  and  C_22
    6  A    between atoms: N_11  and  N_32
    7  A    between atoms: C_12  and  C_17
    8  A    between atoms: C_12  and  C_24
    9  A    between atoms: C_16  and  C_24
   10  A    between atoms: N_18  and  C_36
   11  A    between atoms: C_21  and  C_39
   12  A    between atoms: C_26  and  C_34
                            x       y       z     vdW  Elec       q    Type
                         _______ _______ _______ _____ _____    ______ ____

>  <TORSDO>
F 12

$$$$
=
 OpenBabel11072415083D

 39 41  0  0  1  0  0  0  0  0999 V2000
  161.5680  211.2070  148.9550 N   0  0  0  0  0  0  0  0  0  0  0  0
  162.3380  209.9760  148.7230 C   0  0  1  0  0  3  0  0  0  0  0  0
  162.4360  210.6760  150.0220 C   0  0  2  0  0  3  0  0  0  0  0  0
  160.1950  212.1890  151.3310 C   0  0  0  0  0  2  0  0  0  0  0  0
  157.7650  211.2050  153.6850 F   0  0  0  0  0  0  0  0  0  0  0  0
  161.7870  208.8880  151.4810 O   0  0  0  0  0  0  0  0  0  0  0  0
  159.0520  212.5950  152.2400 C   0  0  0  0  0  2  0  0  0  0  0  0
  161.6070  210.0880  151.1360 C   0  0  0  0  0  0  0  0  0  0  0  0
  159.8940  210.4360  152.9690 C   0  0  0  0  0  2  0  0  0  0  0  0
  159.0580  211.6250  153.4210 C   0  0  2  0  0  0  0  0  0  0  0  0
  160.5960  210.8730  151.7810 N   0  0  0  0  0  0  0  0  0  0  0  0
  159.6870  212.2880  154.6650 C   0  0  2  0  0  3  0  0  0  0  0  0
  160.9860  211.6010  155.0720 C   0  0  0  0  0  2  0  0  0  0  0  0
  159.4160  211.2820  157.2610 S   0  0  0  0  0  0  0  0  0  0  0  0
  158.8000  212.2070  155.8670 C   0  0  0  0  0  0  0  0  0  0  0  0
  157.7060  212.7480  155.9040 O   0  0  0  0  0  0  0  0  0  0  0  0
  160.6710  210.5750  156.1520 C   0  0  2  0  0  3  0  0  0  0  0  0
  162.7100  211.1200  157.2490 O   0  0  0  0  0  0  0  0  0  0  0  0
  161.9080  210.2160  156.9030 C   0  0  0  0  0  0  0  0  0  0  0  0
  162.1600  208.8940  157.2590 O   0  0  0  0  0  1  0  0  0  0  0  0
  162.4870  213.7580  146.5890 O   0  0  0  0  0  0  0  0  0  0  0  0
  162.2780  212.2420  148.3350 N   0  0  0  0  0  2  0  0  0  0  0  0
  161.8100  212.8450  147.1290 C   0  0  0  0  0  0  0  0  0  0  0  0
  160.5330  212.4050  146.4960 C   0  0  0  0  0  2  0  0  0  0  0  0
  159.9950  213.1910  144.1660 C   0  0  0  0  0  0  0  0  0  0  0  0
  160.3920  211.9290  143.6240 N   0  0  0  0  0  2  0  0  0  0  0  0
  160.0650  213.4250  145.5710 N   0  0  0  0  0  2  0  0  0  0  0  0
  159.5780  214.1040  143.4050 O   0  0  0  0  0  0  0  0  0  0  0  0
  161.6050  212.1200  141.5370 C   0  0  0  0  0  1  0  0  0  0  0  0
  160.3290  211.6480  142.2010 C   0  0  0  0  0  2  0  0  0  0  0  0
  161.8700  207.5010  148.4750 C   0  0  0  0  0  0  0  0  0  0  0  0
  161.4280  208.8360  148.7330 N   0  0  0  0  0  2  0  0  0  0  0  0
  163.0810  207.2720  148.2150 O   0  0  0  0  0  0  0  0  0  0  0  0
  161.3840  205.1920  147.6460 C   0  0  0  0  0  1  0  0  0  0  0  0
  160.8930  206.3680  148.4770 C   0  0  1  0  0  3  0  0  0  0  0  0
  160.4920  205.9340  149.8900 C   0  0  0  0  0  2  0  0  0  0  0  0
  161.6660  205.4270  150.7200 C   0  0  0  0  0  2  0  0  0  0  0  0
  161.1620  204.5570  151.8540 C   0  0  0  0  0  2  0  0  0  0  0  0
  160.9860  203.1360  151.3640 C   0  0  0  0  0  1  0  0  0  0  0  0
  1  3  1  0  0  0  0
  2 32  1  1  0  0  0
  2  1  1  0  0  0  0
  2  3  1  0  0  0  0
  3  8  1  1  0  0  0
  4 11  1  0  0  0  0
  4  7  1  0  0  0  0
  7 10  1  0  0  0  0
  8  6  2  0  0  0  0
  8 11  1  0  0  0  0
  9 10  1  0  0  0  0
 10  5  1  1  0  0  0
 10 12  1  0  0  0  0
 11  9  1  0  0  0  0
 12 13  1  1  0  0  0
 12 15  1  0  0  0  0
 13 17  1  0  0  0  0
 15 16  2  0  0  0  0
 15 14  1  0  0  0  0
 17 19  1  1  0  0  0
 17 14  1  0  0  0  0
 19 18  2  0  0  0  0
 19 20  1  0  0  0  0
 21 23  2  0  0  0  0
 22  1  1  0  0  0  0
 23 22  1  0  0  0  0
 24 23  1  0  0  0  0
 25 27  1  0  0  0  0
 26 25  1  0  0  0  0
 27 24  1  0  0  0  0
 28 25  2  0  0  0  0
 29 30  1  0  0  0  0
 30 26  1  0  0  0  0
 31 35  1  0  0  0  0
 31 32  1  0  0  0  0
 33 31  2  0  0  0  0
 35 34  1  1  0  0  0
 35 36  1  0  0  0  0
 36 37  1  0  0  0  0
 37 38  1  0  0  0  0
 39 38  1  0  0  0  0
M  END
>  <MODEL>
6

>  <REMARK>
 VINA RESULT:      -5.6      4.570      9.641
  Name = 
  12 active torsions:
  status: ('A' for Active; 'I' for Inactive)
    1  A    between atoms: C_2  and  C_31
    2  A    between atoms: C_4  and  N_25
    3  A    between atoms: C_4  and  C_38
    4  A    between atoms: C_5  and  C_17
    5  A    between atoms: N_10  and  C_22
    6  A    between atoms: N_11  and  N_32
    7  A    between atoms: C_12  and  C_17
    8  A    between atoms: C_12  and  C_24
    9  A    between atoms: C_16  and  C_24
   10  A    between atoms: N_18  and  C_36
   11  A    between atoms: C_21  and  C_39
   12  A    between atoms: C_26  and  C_34
                            x       y       z     vdW  Elec       q    Type
                         _______ _______ _______ _____ _____    ______ ____

>  <TORSDO>
F 12

$$$$
=
 OpenBabel11072415083D

 39 41  0  0  1  0  0  0  0  0999 V2000
  161.6390  204.1280  151.2630 N   0  0  0  0  0  0  0  0  0  0  0  0
  160.2370  204.5290  151.0720 C   0  0  1  0  0  3  0  0  0  0  0  0
  160.9600  204.9260  152.3000 C   0  0  2  0  0  3  0  0  0  0  0  0
  160.4460  206.8190  154.5760 C   0  0  0  0  0  2  0  0  0  0  0  0
  161.6900  210.0410  155.2690 F   0  0  0  0  0  0  0  0  0  0  0  0
  162.2460  206.7280  151.3820 O   0  0  0  0  0  0  0  0  0  0  0  0
  160.3980  208.0490  155.4610 C   0  0  0  0  0  2  0  0  0  0  0  0
  161.4860  206.3390  152.3100 C   0  0  0  0  0  0  0  0  0  0  0  0
  161.4720  208.6420  153.3640 C   0  0  0  0  0  2  0  0  0  0  0  0
  160.7910  209.2400  154.5870 C   0  0  2  0  0  0  0  0  0  0  0  0
  161.1540  207.2300  153.3830 N   0  0  0  0  0  0  0  0  0  0  0  0
  159.5400  210.0440  154.1730 C   0  0  2  0  0  3  0  0  0  0  0  0
  159.7200  210.7000  152.8080 C   0  0  0  0  0  2  0  0  0  0  0  0
  159.3190  212.8180  154.4550 S   0  0  0  0  0  0  0  0  0  0  0  0
  159.2430  211.1650  155.1170 C   0  0  0  0  0  0  0  0  0  0  0  0
  158.9550  210.9680  156.2870 O   0  0  0  0  0  0  0  0  0  0  0  0
  160.1980  212.1300  153.0190 C   0  0  2  0  0  3  0  0  0  0  0  0
  159.3090  214.0250  151.8900 O   0  0  0  0  0  1  0  0  0  0  0  0
  159.9510  212.9470  151.7980 C   0  0  0  0  0  0  0  0  0  0  0  0
  160.4570  212.5480  150.5650 O   0  0  0  0  0  0  0  0  0  0  0  0
  161.3370  200.5410  151.2210 O   0  0  0  0  0  0  0  0  0  0  0  0
  161.6150  202.7970  151.6980 N   0  0  0  0  0  2  0  0  0  0  0  0
  161.3730  201.7230  150.7900 C   0  0  0  0  0  0  0  0  0  0  0  0
  161.1560  201.9810  149.3360 C   0  0  0  0  0  2  0  0  0  0  0  0
  161.2030  200.6600  147.1940 C   0  0  0  0  0  0  0  0  0  0  0  0
  160.4120  201.6540  146.5380 N   0  0  0  0  0  2  0  0  0  0  0  0
  161.5660  200.8190  148.5640 N   0  0  0  0  0  2  0  0  0  0  0  0
  161.5860  199.6380  146.5650 O   0  0  0  0  0  0  0  0  0  0  0  0
  159.8710  202.9150  144.5430 C   0  0  0  0  0  1  0  0  0  0  0  0
  160.0280  201.5350  145.1420 C   0  0  0  0  0  2  0  0  0  0  0  0
  160.8070  205.4450  148.7830 C   0  0  0  0  0  0  0  0  0  0  0  0
  160.1750  205.5760  150.0590 N   0  0  0  0  0  2  0  0  0  0  0  0
  161.4580  204.4030  148.5000 O   0  0  0  0  0  0  0  0  0  0  0  0
  161.8270  207.5910  148.0030 C   0  0  0  0  0  1  0  0  0  0  0  0
  160.7330  206.5570  147.7850 C   0  0  1  0  0  3  0  0  0  0  0  0
  160.7110  206.0520  146.3390 C   0  0  0  0  0  2  0  0  0  0  0  0
  162.0550  206.1830  145.6340 C   0  0  0  0  0  2  0  0  0  0  0  0
  162.5370  204.8210  145.1760 C   0  0  0  0  0  2  0  0  0  0  0  0
  163.6780  204.3630  146.0570 C   0  0  0  0  0  1  0  0  0  0  0  0
  1 22  1  0  0  0  0
  1  3  1  0  0  0  0
  2 32  1  6  0  0  0
  2  1  1  0  0  0  0
  2  3  1  0  0  0  0
  3  8  1  6  0  0  0
  4  7  1  0  0  0  0
  6  8  2  0  0  0  0
  8 11  1  0  0  0  0
  9 11  1  0  0  0  0
  9 10  1  0  0  0  0
 10  5  1  1  0  0  0
 10  7  1  0  0  0  0
 11  4  1  0  0  0  0
 12 13  1  6  0  0  0
 12 10  1  0  0  0  0
 12 15  1  0  0  0  0
 13 17  1  0  0  0  0
 14 15  1  0  0  0  0
 15 16  2  0  0  0  0
 17 19  1  6  0  0  0
 17 14  1  0  0  0  0
 19 18  1  0  0  0  0
 20 19  2  0  0  0  0
 23 21  2  0  0  0  0
 23 22  1  0  0  0  0
 24 23  1  0  0  0  0
 25 27  1  0  0  0  0
 26 25  1  0  0  0  0
 27 24  1  0  0  0  0
 28 25  2  0  0  0  0
 29 30  1  0  0  0  0
 30 26  1  0  0  0  0
 31 32  1  0  0  0  0
 33 31  2  0  0  0  0
 35 34  1  6  0  0  0
 35 31  1  0  0  0  0
 36 35  1  0  0  0  0
 37 36  1  0  0  0  0
 38 37  1  0  0  0  0
 38 39  1  0  0  0  0
M  END
>  <MODEL>
7

>  <REMARK>
 VINA RESULT:      -5.5      3.666      8.950
  Name = 
  12 active torsions:
  status: ('A' for Active; 'I' for Inactive)
    1  A    between atoms: C_2  and  C_31
    2  A    between atoms: C_4  and  N_25
    3  A    between atoms: C_4  and  C_38
    4  A    between atoms: C_5  and  C_17
    5  A    between atoms: N_10  and  C_22
    6  A    between atoms: N_11  and  N_32
    7  A    between atoms: C_12  and  C_17
    8  A    between atoms: C_12  and  C_24
    9  A    between atoms: C_16  and  C_24
   10  A    between atoms: N_18  and  C_36
   11  A    between atoms: C_21  and  C_39
   12  A    between atoms: C_26  and  C_34
                            x       y       z     vdW  Elec       q    Type
                         _______ _______ _______ _____ _____    ______ ____

>  <TORSDO>
F 12

$$$$
=
 OpenBabel11072415083D

 39 41  0  0  1  0  0  0  0  0999 V2000
  162.1510  208.4470  150.5000 N   0  0  0  0  0  0  0  0  0  0  0  0
  161.2050  207.8760  149.5290 C   0  0  1  0  0  3  0  0  0  0  0  0
  161.3130  209.3430  149.6820 C   0  0  2  0  0  3  0  0  0  0  0  0
  161.4570  212.3370  149.4740 C   0  0  0  0  0  2  0  0  0  0  0  0
  163.4650  214.4530  147.4970 F   0  0  0  0  0  0  0  0  0  0  0  0
  162.8880  209.3620  147.8750 O   0  0  0  0  0  0  0  0  0  0  0  0
  161.7740  213.7490  149.0210 C   0  0  0  0  0  2  0  0  0  0  0  0
  162.1480  210.0410  148.6370 C   0  0  0  0  0  0  0  0  0  0  0  0
  162.7570  212.1870  147.4400 C   0  0  0  0  0  2  0  0  0  0  0  0
  162.3470  213.6430  147.6070 C   0  0  2  0  0  0  0  0  0  0  0  0
  162.1280  211.4700  148.5280 N   0  0  0  0  0  0  0  0  0  0  0  0
  161.2810  214.0300  146.5610 C   0  0  2  0  0  3  0  0  0  0  0  0
  159.8900  214.1180  147.1810 C   0  0  0  0  0  2  0  0  0  0  0  0
  159.6000  212.1800  145.3050 S   0  0  0  0  0  0  0  0  0  0  0  0
  161.1640  213.0210  145.4630 C   0  0  0  0  0  0  0  0  0  0  0  0
  162.0880  212.7810  144.7020 O   0  0  0  0  0  0  0  0  0  0  0  0
  159.1820  212.7870  146.9670 C   0  0  2  0  0  3  0  0  0  0  0  0
  157.0970  212.2860  147.9970 O   0  0  0  0  0  1  0  0  0  0  0  0
  157.7090  212.9510  147.1220 C   0  0  0  0  0  0  0  0  0  0  0  0
  157.0120  213.8630  146.3350 O   0  0  0  0  0  0  0  0  0  0  0  0
  160.9230  207.0710  153.5910 O   0  0  0  0  0  0  0  0  0  0  0  0
  161.5350  208.3530  151.7540 N   0  0  0  0  0  2  0  0  0  0  0  0
  161.5040  207.1220  152.4760 C   0  0  0  0  0  0  0  0  0  0  0  0
  162.1450  205.8930  151.9260 C   0  0  0  0  0  2  0  0  0  0  0  0
  160.9610  203.6750  151.7990 C   0  0  0  0  0  0  0  0  0  0  0  0
  160.8900  203.7680  150.3740 N   0  0  0  0  0  2  0  0  0  0  0  0
  161.5740  204.7150  152.5580 N   0  0  0  0  0  2  0  0  0  0  0  0
  160.4840  202.6710  152.3930 O   0  0  0  0  0  0  0  0  0  0  0  0
  161.1940  202.3970  148.4020 C   0  0  0  0  0  1  0  0  0  0  0  0
  160.2820  202.7280  149.5630 C   0  0  0  0  0  2  0  0  0  0  0  0
  161.3570  206.4740  147.4270 C   0  0  0  0  0  0  0  0  0  0  0  0
  161.9510  207.3440  148.3940 N   0  0  0  0  0  2  0  0  0  0  0  0
  160.1500  206.1280  147.5400 O   0  0  0  0  0  0  0  0  0  0  0  0
  163.2590  204.9890  146.7710 C   0  0  0  0  0  1  0  0  0  0  0  0
  162.1710  205.9380  146.2920 C   0  0  1  0  0  3  0  0  0  0  0  0
  161.3100  205.3050  145.1950 C   0  0  0  0  0  2  0  0  0  0  0  0
  161.3570  203.7810  145.1960 C   0  0  0  0  0  2  0  0  0  0  0  0
  160.0900  203.2220  144.5780 C   0  0  0  0  0  2  0  0  0  0  0  0
  159.9770  201.7480  144.8990 C   0  0  0  0  0  1  0  0  0  0  0  0
  1 22  1  0  0  0  0
  2 32  1  6  0  0  0
  2  3  1  0  0  0  0
  2  1  1  0  0  0  0
  3  8  1  6  0  0  0
  3  1  1  0  0  0  0
  6  8  2  0  0  0  0
  7  4  1  0  0  0  0
  9 10  1  0  0  0  0
  9 11  1  0  0  0  0
 10  5  1  6  0  0  0
 10  7  1  0  0  0  0
 11  8  1  0  0  0  0
 11  4  1  0  0  0  0
 12 13  1  1  0  0  0
 12 10  1  0  0  0  0
 14 15  1  0  0  0  0
 14 17  1  0  0  0  0
 15 12  1  0  0  0  0
 16 15  2  0  0  0  0
 17 19  1  6  0  0  0
 17 13  1  0  0  0  0
 19 18  1  0  0  0  0
 20 19  2  0  0  0  0
 22 23  1  0  0  0  0
 23 21  2  0  0  0  0
 24 23  1  0  0  0  0
 24 27  1  0  0  0  0
 25 28  2  0  0  0  0
 25 27  1  0  0  0  0
 26 25  1  0  0  0  0
 29 30  1  0  0  0  0
 30 26  1  0  0  0  0
 31 33  2  0  0  0  0
 31 32  1  0  0  0  0
 35 34  1  1  0  0  0
 35 31  1  0  0  0  0
 36 37  1  0  0  0  0
 36 35  1  0  0  0  0
 38 39  1  0  0  0  0
 38 37  1  0  0  0  0
M  END
>  <MODEL>
8

>  <REMARK>
 VINA RESULT:      -5.3      3.927      8.454
  Name = 
  12 active torsions:
  status: ('A' for Active; 'I' for Inactive)
    1  A    between atoms: C_2  and  C_31
    2  A    between atoms: C_4  and  N_25
    3  A    between atoms: C_4  and  C_38
    4  A    between atoms: C_5  and  C_17
    5  A    between atoms: N_10  and  C_22
    6  A    between atoms: N_11  and  N_32
    7  A    between atoms: C_12  and  C_17
    8  A    between atoms: C_12  and  C_24
    9  A    between atoms: C_16  and  C_24
   10  A    between atoms: N_18  and  C_36
   11  A    between atoms: C_21  and  C_39
   12  A    between atoms: C_26  and  C_34
                            x       y       z     vdW  Elec       q    Type
                         _______ _______ _______ _____ _____    ______ ____

>  <TORSDO>
F 12

$$$$
=
 OpenBabel11072415083D

 39 41  0  0  1  0  0  0  0  0999 V2000
  161.6410  206.2090  151.2870 N   0  0  0  0  0  0  0  0  0  0  0  0
  160.5860  205.5070  150.5410 C   0  0  1  0  0  3  0  0  0  0  0  0
  160.6160  206.9860  150.5660 C   0  0  2  0  0  3  0  0  0  0  0  0
  161.5790  209.8320  150.5710 C   0  0  0  0  0  2  0  0  0  0  0  0
  163.3250  211.7190  148.1620 F   0  0  0  0  0  0  0  0  0  0  0  0
  161.4010  206.9570  148.3010 O   0  0  0  0  0  0  0  0  0  0  0  0
  162.1320  211.1800  150.1530 C   0  0  0  0  0  2  0  0  0  0  0  0
  161.2110  207.6400  149.3440 C   0  0  0  0  0  0  0  0  0  0  0  0
  161.9910  209.7550  148.1900 C   0  0  0  0  0  2  0  0  0  0  0  0
  162.1240  211.2080  148.6240 C   0  0  2  0  0  0  0  0  0  0  0  0
  161.5880  209.0230  149.3710 N   0  0  0  0  0  0  0  0  0  0  0  0
  160.9340  212.0410  148.1040 C   0  0  2  0  0  3  0  0  0  0  0  0
  160.6830  211.7960  146.6200 C   0  0  0  0  0  2  0  0  0  0  0  0
  161.2200  214.4530  146.7170 S   0  0  0  0  0  0  0  0  0  0  0  0
  161.1670  213.5130  148.2310 C   0  0  0  0  0  0  0  0  0  0  0  0
  161.3100  214.0560  149.3150 O   0  0  0  0  0  0  0  0  0  0  0  0
  161.3980  212.8800  145.8240 C   0  0  2  0  0  3  0  0  0  0  0  0
  159.6630  213.4160  144.2890 O   0  0  0  0  0  1  0  0  0  0  0  0
  160.8300  212.9770  144.4500 C   0  0  0  0  0  0  0  0  0  0  0  0
  161.5940  212.6230  143.3420 O   0  0  0  0  0  0  0  0  0  0  0  0
  161.0120  207.2880  154.6630 O   0  0  0  0  0  0  0  0  0  0  0  0
  161.2560  206.1860  152.6330 N   0  0  0  0  0  2  0  0  0  0  0  0
  161.3450  207.3530  153.4510 C   0  0  0  0  0  0  0  0  0  0  0  0
  161.8350  208.6460  152.8920 C   0  0  0  0  0  2  0  0  0  0  0  0
  160.7650  210.6370  154.0000 C   0  0  0  0  0  0  0  0  0  0  0  0
  159.7010  210.6250  153.0450 N   0  0  0  0  0  2  0  0  0  0  0  0
  161.8100  209.6700  153.9250 N   0  0  0  0  0  2  0  0  0  0  0  0
  160.7840  211.5010  154.9170 O   0  0  0  0  0  0  0  0  0  0  0  0
  158.8540  212.6680  152.0590 C   0  0  0  0  0  1  0  0  0  0  0  0
  158.6140  211.5870  153.0910 C   0  0  0  0  0  2  0  0  0  0  0  0
  160.9480  203.5610  148.9630 C   0  0  0  0  0  0  0  0  0  0  0  0
  161.1640  204.9250  149.3340 N   0  0  0  0  0  2  0  0  0  0  0  0
  160.2480  202.8080  149.6910 O   0  0  0  0  0  0  0  0  0  0  0  0
  161.2700  201.5280  147.5440 C   0  0  0  0  0  1  0  0  0  0  0  0
  161.5800  203.0050  147.7260 C   0  0  1  0  0  3  0  0  0  0  0  0
  161.2370  203.8150  146.4720 C   0  0  0  0  0  2  0  0  0  0  0  0
  162.4580  204.4270  145.7960 C   0  0  0  0  0  2  0  0  0  0  0  0
  162.0430  205.6110  144.9460 C   0  0  0  0  0  2  0  0  0  0  0  0
  160.5480  205.8160  145.0570 C   0  0  0  0  0  1  0  0  0  0  0  0
  1 22  1  0  0  0  0
  2 32  1  6  0  0  0
  2  3  1  0  0  0  0
  2  1  1  0  0  0  0
  3  8  1  6  0  0  0
  3  1  1  0  0  0  0
  6  8  2  0  0  0  0
  7  4  1  0  0  0  0
  8 11  1  0  0  0  0
  9 10  1  0  0  0  0
  9 11  1  0  0  0  0
 10  5  1  6  0  0  0
 10  7  1  0  0  0  0
 11  4  1  0  0  0  0
 12 13  1  6  0  0  0
 12 15  1  0  0  0  0
 12 10  1  0  0  0  0
 14 15  1  0  0  0  0
 15 16  2  0  0  0  0
 17 19  1  6  0  0  0
 17 13  1  0  0  0  0
 17 14  1  0  0  0  0
 18 19  1  0  0  0  0
 20 19  2  0  0  0  0
 22 23  1  0  0  0  0
 23 21  2  0  0  0  0
 24 23  1  0  0  0  0
 24 27  1  0  0  0  0
 25 28  2  0  0  0  0
 26 30  1  0  0  0  0
 26 25  1  0  0  0  0
 27 25  1  0  0  0  0
 29 30  1  0  0  0  0
 31 32  1  0  0  0  0
 31 33  2  0  0  0  0
 35 34  1  6  0  0  0
 35 31  1  0  0  0  0
 36 35  1  0  0  0  0
 37 36  1  0  0  0  0
 38 39  1  0  0  0  0
 38 37  1  0  0  0  0
M  END
>  <MODEL>
9

>  <REMARK>
 VINA RESULT:      -5.1      3.515      6.801
  Name = 
  12 active torsions:
  status: ('A' for Active; 'I' for Inactive)
    1  A    between atoms: C_2  and  C_31
    2  A    between atoms: C_4  and  N_25
    3  A    between atoms: C_4  and  C_38
    4  A    between atoms: C_5  and  C_17
    5  A    between atoms: N_10  and  C_22
    6  A    between atoms: N_11  and  N_32
    7  A    between atoms: C_12  and  C_17
    8  A    between atoms: C_12  and  C_24
    9  A    between atoms: C_16  and  C_24
   10  A    between atoms: N_18  and  C_36
   11  A    between atoms: C_21  and  C_39
   12  A    between atoms: C_26  and  C_34
                            x       y       z     vdW  Elec       q    Type
                         _______ _______ _______ _____ _____    ______ ____

>  <TORSDO>
F 12

$$$$
