=
 OpenBabel11072411183D

 28 29  0  0  1  0  0  0  0  0999 V2000
  161.5800  208.4160  151.3240 C   0  0  0  0  0  0  0  0  0  0  0  0
  161.7780  207.5750  150.2710 N   0  0  0  0  0  0  0  0  0  0  0  0
  161.6820  209.7600  151.1420 N   0  0  0  0  0  0  0  0  0  0  0  0
  162.0800  208.0580  149.0370 C   0  0  0  0  0  0  0  0  0  0  0  0
  161.9760  210.2810  149.9210 C   0  0  0  0  0  3  0  0  0  0  0  0
  162.1810  209.4340  148.8340 C   0  0  0  0  0  3  0  0  0  0  0  0
  160.9130  206.4550  154.2950 N   0  0  0  0  0  0  0  0  0  0  0  0
  160.7060  207.7320  154.6810 C   0  0  0  0  0  0  0  0  0  0  0  0
  161.2680  206.5410  153.0000 C   0  0  0  0  0  2  0  0  0  0  0  0
  160.9020  208.6340  153.7010 N   0  0  0  0  0  0  0  0  0  0  0  0
  161.2570  207.8750  152.6500 C   0  0  0  0  0  0  0  0  0  0  0  0
  160.2730  208.1200  156.0600 C   0  0  2  0  0  3  0  0  0  0  0  0
  159.6700  209.5150  156.0740 C   0  0  0  0  0  1  0  0  0  0  0  0
  161.3690  208.0220  156.9960 N   0  0  0  0  0  0  0  0  0  0  0  0
  162.3280  208.7280  156.9020 O   0  0  0  0  0  0  0  0  0  0  0  0
  162.2690  207.1200  147.8980 C   0  0  0  0  0  2  0  0  0  0  0  0
  161.4810  205.8440  148.1440 C   0  0  0  0  0  2  0  0  0  0  0  0
  161.9200  204.7530  147.1780 C   0  0  2  0  0  3  0  0  0  0  0  0
  160.0380  206.2230  145.5900 O   0  0  0  0  0  1  0  0  0  0  0  0
  161.3140  205.1170  145.5000 P   0  0  0  0  0  0  0  0  0  0  0  0
  162.4260  205.7000  144.6590 O   0  0  0  0  0  0  0  0  0  0  0  0
  160.7620  203.6880  144.7820 O   0  0  0  0  0  1  0  0  0  0  0  0
  161.4640  203.3700  147.6380 C   0  0  0  0  0  2  0  0  0  0  0  0
  160.7400  203.4500  148.8320 O   0  0  0  0  0  0  0  0  0  0  0  0
  161.0840  201.7800  150.8330 O   0  0  0  0  0  1  0  0  0  0  0  0
  161.5640  200.8280  148.4400 O   0  0  0  0  0  0  0  0  0  0  0  0
  159.0040  201.3620  149.3090 O   0  0  0  0  0  1  0  0  0  0  0  0
  160.6190  201.8560  149.3960 P   0  0  0  0  0  0  0  0  0  0  0  0
  1 11  1  0  0  0  0
  2  1  2  0  0  0  0
  3  1  1  0  0  0  0
  4  2  1  0  0  0  0
  5  3  2  0  0  0  0
  6  4  2  0  0  0  0
  6  5  1  0  0  0  0
  7  8  2  0  0  0  0
  8 12  1  0  0  0  0
  9  7  1  0  0  0  0
 10  8  1  0  0  0  0
 11  9  1  0  0  0  0
 11 10  2  0  0  0  0
 12 13  1  6  0  0  0
 12 14  1  0  0  0  0
 15 14  2  0  0  0  0
 16 17  1  0  0  0  0
 16  4  1  0  0  0  0
 18 23  1  1  0  0  0
 18 17  1  0  0  0  0
 20 19  1  0  0  0  0
 20 18  1  0  0  0  0
 21 20  2  0  0  0  0
 22 20  1  0  0  0  0
 23 24  1  0  0  0  0
 24 28  1  0  0  0  0
 26 28  2  0  0  0  0
 27 28  1  0  0  0  0
 28 25  1  0  0  0  0
M  END
>  <MODEL>
1

>  <REMARK>
 VINA RESULT:      -7.0      0.000      0.000
  Name = 
  10 active torsions:
  status: ('A' for Active; 'I' for Inactive)
    1  A    between atoms: O_1  and  C_5
    2  A    between atoms: O_1  and  P_23
    3  A    between atoms: N_2  and  C_6
    4  A    between atoms: C_3  and  C_17
    5  A    between atoms: C_5  and  C_19
    6  A    between atoms: C_6  and  C_10
    7  A    between atoms: P_16  and  C_19
    8  A    between atoms: C_18  and  C_19
    9  A    between atoms: C_18  and  C_22
   10  A    between atoms: C_20  and  C_22
                            x       y       z     vdW  Elec       q    Type
                         _______ _______ _______ _____ _____    ______ ____

>  <TORSDO>
F 10

$$$$
=
 OpenBabel11072411183D

 28 29  0  0  1  0  0  0  0  0999 V2000
  161.4670  208.5080  151.4900 C   0  0  0  0  0  0  0  0  0  0  0  0
  160.9040  207.2920  151.2520 N   0  0  0  0  0  0  0  0  0  0  0  0
  162.0620  209.1860  150.4730 N   0  0  0  0  0  0  0  0  0  0  0  0
  160.9290  206.7400  150.0100 C   0  0  0  0  0  0  0  0  0  0  0  0
  162.1030  208.6700  149.2160 C   0  0  0  0  0  3  0  0  0  0  0  0
  161.5300  207.4270  148.9550 C   0  0  0  0  0  3  0  0  0  0  0  0
  161.6580  210.5070  154.5040 N   0  0  0  0  0  0  0  0  0  0  0  0
  161.1360  209.3310  154.9130 C   0  0  0  0  0  0  0  0  0  0  0  0
  161.8460  210.3570  153.1800 C   0  0  0  0  0  2  0  0  0  0  0  0
  160.9850  208.4300  153.9240 N   0  0  0  0  0  0  0  0  0  0  0  0
  161.4320  209.0870  152.8390 C   0  0  0  0  0  0  0  0  0  0  0  0
  160.7790  209.0340  156.3360 C   0  0  2  0  0  3  0  0  0  0  0  0
  162.0250  208.8650  157.1900 C   0  0  0  0  0  1  0  0  0  0  0  0
  159.9300  207.8690  156.4270 N   0  0  0  0  0  0  0  0  0  0  0  0
  160.2660  206.9050  157.0470 O   0  0  0  0  0  0  0  0  0  0  0  0
  160.2860  205.4200  149.7700 C   0  0  0  0  0  2  0  0  0  0  0  0
  161.3510  204.3670  149.5140 C   0  0  0  0  0  2  0  0  0  0  0  0
  160.9020  203.4140  148.4150 C   0  0  2  0  0  3  0  0  0  0  0  0
  161.4670  200.6230  148.0760 O   0  0  0  0  0  0  0  0  0  0  0  0
  160.6900  201.7350  149.0860 P   0  0  0  0  0  0  0  0  0  0  0  0
  161.2810  201.6510  150.4740 O   0  0  0  0  0  1  0  0  0  0  0  0
  159.0410  201.3650  149.1570 O   0  0  0  0  0  1  0  0  0  0  0  0
  161.8700  203.4140  147.2340 C   0  0  0  0  0  2  0  0  0  0  0  0
  161.1850  203.5410  146.0210 O   0  0  0  0  0  0  0  0  0  0  0  0
  162.7810  205.6300  146.0190 O   0  0  0  0  0  1  0  0  0  0  0  0
  160.2130  206.1410  146.1250 O   0  0  0  0  0  1  0  0  0  0  0  0
  161.4190  205.2020  143.8320 O   0  0  0  0  0  0  0  0  0  0  0  0
  161.4390  205.1410  145.5220 P   0  0  0  0  0  0  0  0  0  0  0  0
  1 11  1  0  0  0  0
  2  1  2  0  0  0  0
  3  1  1  0  0  0  0
  4  2  1  0  0  0  0
  5  3  2  0  0  0  0
  6  5  1  0  0  0  0
  6  4  2  0  0  0  0
  7  8  2  0  0  0  0
  8 12  1  0  0  0  0
  9  7  1  0  0  0  0
 10  8  1  0  0  0  0
 11  9  1  0  0  0  0
 11 10  2  0  0  0  0
 12 14  1  0  0  0  0
 12 13  1  1  0  0  0
 14 15  2  0  0  0  0
 16  4  1  0  0  0  0
 17 16  1  0  0  0  0
 18 23  1  6  0  0  0
 18 20  1  0  0  0  0
 18 17  1  0  0  0  0
 19 20  2  0  0  0  0
 20 22  1  0  0  0  0
 20 21  1  0  0  0  0
 24 23  1  0  0  0  0
 27 28  2  0  0  0  0
 28 25  1  0  0  0  0
 28 24  1  0  0  0  0
 28 26  1  0  0  0  0
M  END
>  <MODEL>
2

>  <REMARK>
 VINA RESULT:      -7.0      1.414      3.746
  Name = 
  10 active torsions:
  status: ('A' for Active; 'I' for Inactive)
    1  A    between atoms: O_1  and  C_5
    2  A    between atoms: O_1  and  P_23
    3  A    between atoms: N_2  and  C_6
    4  A    between atoms: C_3  and  C_17
    5  A    between atoms: C_5  and  C_19
    6  A    between atoms: C_6  and  C_10
    7  A    between atoms: P_16  and  C_19
    8  A    between atoms: C_18  and  C_19
    9  A    between atoms: C_18  and  C_22
   10  A    between atoms: C_20  and  C_22
                            x       y       z     vdW  Elec       q    Type
                         _______ _______ _______ _____ _____    ______ ____

>  <TORSDO>
F 10

$$$$
=
 OpenBabel11072411183D

 28 29  0  0  1  0  0  0  0  0999 V2000
  161.0500  208.3340  152.3210 C   0  0  0  0  0  0  0  0  0  0  0  0
  161.1450  208.2450  150.9650 N   0  0  0  0  0  0  0  0  0  0  0  0
  161.1900  207.2140  153.0810 N   0  0  0  0  0  0  0  0  0  0  0  0
  161.3730  207.0520  150.3560 C   0  0  0  0  0  0  0  0  0  0  0  0
  161.4240  206.0040  152.5080 C   0  0  0  0  0  3  0  0  0  0  0  0
  161.5240  205.8970  151.1220 C   0  0  0  0  0  3  0  0  0  0  0  0
  160.8800  211.2960  154.3970 N   0  0  0  0  0  0  0  0  0  0  0  0
  160.0620  211.5670  153.3570 C   0  0  0  0  0  0  0  0  0  0  0  0
  161.3560  210.0630  154.1470 C   0  0  0  0  0  2  0  0  0  0  0  0
  159.9820  210.5700  152.4560 N   0  0  0  0  0  0  0  0  0  0  0  0
  160.8010  209.6310  152.9610 C   0  0  0  0  0  0  0  0  0  0  0  0
  159.2900  212.8410  153.2210 C   0  0  2  0  0  3  0  0  0  0  0  0
  158.7160  213.2800  154.5580 C   0  0  0  0  0  1  0  0  0  0  0  0
  158.2480  212.7150  152.2290 N   0  0  0  0  0  0  0  0  0  0  0  0
  158.2360  213.4050  151.2540 O   0  0  0  0  0  0  0  0  0  0  0  0
  161.4950  206.9850  148.8750 C   0  0  0  0  0  2  0  0  0  0  0  0
  160.7390  205.7770  148.3490 C   0  0  0  0  0  2  0  0  0  0  0  0
  161.6550  204.9030  147.5030 C   0  0  2  0  0  3  0  0  0  0  0  0
  160.1140  206.3360  145.5540 O   0  0  0  0  0  1  0  0  0  0  0  0
  161.3960  205.2470  145.7340 P   0  0  0  0  0  0  0  0  0  0  0  0
  162.6480  205.8410  145.1310 O   0  0  0  0  0  1  0  0  0  0  0  0
  161.0190  203.8060  144.9330 O   0  0  0  0  0  0  0  0  0  0  0  0
  161.4630  203.4190  147.8070 C   0  0  0  0  0  2  0  0  0  0  0  0
  160.7980  203.2360  149.0240 O   0  0  0  0  0  0  0  0  0  0  0  0
  161.2070  201.0690  150.4540 O   0  0  0  0  0  1  0  0  0  0  0  0
  161.2780  200.7640  147.8530 O   0  0  0  0  0  0  0  0  0  0  0  0
  158.9200  201.2250  149.2030 O   0  0  0  0  0  1  0  0  0  0  0  0
  160.5770  201.5620  149.1710 P   0  0  0  0  0  0  0  0  0  0  0  0
  1 11  1  0  0  0  0
  1  3  1  0  0  0  0
  2  1  2  0  0  0  0
  4  2  1  0  0  0  0
  4  6  2  0  0  0  0
  5  3  2  0  0  0  0
  6  5  1  0  0  0  0
  8  7  2  0  0  0  0
  9  7  1  0  0  0  0
 10 11  2  0  0  0  0
 10  8  1  0  0  0  0
 11  9  1  0  0  0  0
 12  8  1  0  0  0  0
 12 13  1  1  0  0  0
 14 12  1  0  0  0  0
 15 14  2  0  0  0  0
 16  4  1  0  0  0  0
 17 16  1  0  0  0  0
 18 23  1  6  0  0  0
 18 17  1  0  0  0  0
 19 20  1  0  0  0  0
 20 18  1  0  0  0  0
 21 20  1  0  0  0  0
 22 20  2  0  0  0  0
 23 24  1  0  0  0  0
 24 28  1  0  0  0  0
 26 28  2  0  0  0  0
 28 27  1  0  0  0  0
 28 25  1  0  0  0  0
M  END
>  <MODEL>
3

>  <REMARK>
 VINA RESULT:      -6.9      2.525      3.281
  Name = 
  10 active torsions:
  status: ('A' for Active; 'I' for Inactive)
    1  A    between atoms: O_1  and  C_5
    2  A    between atoms: O_1  and  P_23
    3  A    between atoms: N_2  and  C_6
    4  A    between atoms: C_3  and  C_17
    5  A    between atoms: C_5  and  C_19
    6  A    between atoms: C_6  and  C_10
    7  A    between atoms: P_16  and  C_19
    8  A    between atoms: C_18  and  C_19
    9  A    between atoms: C_18  and  C_22
   10  A    between atoms: C_20  and  C_22
                            x       y       z     vdW  Elec       q    Type
                         _______ _______ _______ _____ _____    ______ ____

>  <TORSDO>
F 10

$$$$
=
 OpenBabel11072411183D

 28 29  0  0  1  0  0  0  0  0999 V2000
  161.0070  208.2720  152.4160 C   0  0  0  0  0  0  0  0  0  0  0  0
  161.1450  208.2130  151.0620 N   0  0  0  0  0  0  0  0  0  0  0  0
  161.0920  207.1310  153.1520 N   0  0  0  0  0  0  0  0  0  0  0  0
  161.3640  207.0290  150.4320 C   0  0  0  0  0  0  0  0  0  0  0  0
  161.3150  205.9290  152.5580 C   0  0  0  0  0  3  0  0  0  0  0  0
  161.4590  205.8530  151.1740 C   0  0  0  0  0  3  0  0  0  0  0  0
  160.3690  211.7000  153.3920 N   0  0  0  0  0  0  0  0  0  0  0  0
  160.5050  211.0380  154.5610 C   0  0  0  0  0  0  0  0  0  0  0  0
  160.5350  210.7610  152.4430 C   0  0  0  0  0  2  0  0  0  0  0  0
  160.7550  209.7230  154.4130 N   0  0  0  0  0  0  0  0  0  0  0  0
  160.7690  209.5590  153.0790 C   0  0  0  0  0  0  0  0  0  0  0  0
  160.4140  211.6960  155.9010 C   0  0  2  0  0  3  0  0  0  0  0  0
  161.5930  211.3160  156.7800 C   0  0  0  0  0  1  0  0  0  0  0  0
  159.1630  211.3810  156.5510 N   0  0  0  0  0  0  0  0  0  0  0  0
  158.2090  211.0340  155.9220 O   0  0  0  0  0  0  0  0  0  0  0  0
  161.5350  206.9950  148.9540 C   0  0  0  0  0  2  0  0  0  0  0  0
  160.7620  205.8230  148.3730 C   0  0  0  0  0  2  0  0  0  0  0  0
  161.6800  204.9450  147.5340 C   0  0  2  0  0  3  0  0  0  0  0  0
  160.1500  206.3780  145.5770 O   0  0  0  0  0  1  0  0  0  0  0  0
  161.4050  205.2590  145.7620 P   0  0  0  0  0  0  0  0  0  0  0  0
  162.6630  205.8080  145.1290 O   0  0  0  0  0  1  0  0  0  0  0  0
  160.9790  203.8130  144.9960 O   0  0  0  0  0  0  0  0  0  0  0  0
  161.5030  203.4640  147.8610 C   0  0  0  0  0  2  0  0  0  0  0  0
  160.7100  203.2910  149.0000 O   0  0  0  0  0  0  0  0  0  0  0  0
  161.2590  201.1760  150.4630 O   0  0  0  0  0  1  0  0  0  0  0  0
  161.2330  200.8090  147.8680 O   0  0  0  0  0  0  0  0  0  0  0  0
  158.9180  201.2180  149.3060 O   0  0  0  0  0  1  0  0  0  0  0  0
  160.5580  201.6140  149.1960 P   0  0  0  0  0  0  0  0  0  0  0  0
  1 11  1  0  0  0  0
  1  3  1  0  0  0  0
  2  1  2  0  0  0  0
  4  2  1  0  0  0  0
  4  6  2  0  0  0  0
  5  3  2  0  0  0  0
  6  5  1  0  0  0  0
  7  8  2  0  0  0  0
  8 12  1  0  0  0  0
  9 11  1  0  0  0  0
  9  7  1  0  0  0  0
 10  8  1  0  0  0  0
 11 10  2  0  0  0  0
 12 14  1  0  0  0  0
 12 13  1  1  0  0  0
 15 14  2  0  0  0  0
 16  4  1  0  0  0  0
 17 16  1  0  0  0  0
 18 23  1  6  0  0  0
 18 17  1  0  0  0  0
 19 20  1  0  0  0  0
 20 18  1  0  0  0  0
 21 20  1  0  0  0  0
 22 20  2  0  0  0  0
 23 24  1  0  0  0  0
 24 28  1  0  0  0  0
 26 28  2  0  0  0  0
 28 27  1  0  0  0  0
 28 25  1  0  0  0  0
M  END
>  <MODEL>
4

>  <REMARK>
 VINA RESULT:      -6.9      1.841      2.607
  Name = 
  10 active torsions:
  status: ('A' for Active; 'I' for Inactive)
    1  A    between atoms: O_1  and  C_5
    2  A    between atoms: O_1  and  P_23
    3  A    between atoms: N_2  and  C_6
    4  A    between atoms: C_3  and  C_17
    5  A    between atoms: C_5  and  C_19
    6  A    between atoms: C_6  and  C_10
    7  A    between atoms: P_16  and  C_19
    8  A    between atoms: C_18  and  C_19
    9  A    between atoms: C_18  and  C_22
   10  A    between atoms: C_20  and  C_22
                            x       y       z     vdW  Elec       q    Type
                         _______ _______ _______ _____ _____    ______ ____

>  <TORSDO>
F 10

$$$$
=
 OpenBabel11072411183D

 28 29  0  0  1  0  0  0  0  0999 V2000
  161.3490  208.0840  151.7320 C   0  0  0  0  0  0  0  0  0  0  0  0
  160.8410  207.0450  151.0130 N   0  0  0  0  0  0  0  0  0  0  0  0
  161.9920  209.0970  151.0910 N   0  0  0  0  0  0  0  0  0  0  0  0
  160.9680  207.0020  149.6610 C   0  0  0  0  0  0  0  0  0  0  0  0
  162.1350  209.0910  149.7390 C   0  0  0  0  0  3  0  0  0  0  0  0
  161.6190  208.0350  148.9890 C   0  0  0  0  0  3  0  0  0  0  0  0
  160.9500  207.4510  155.2750 N   0  0  0  0  0  0  0  0  0  0  0  0
  161.0450  208.7950  155.1820 C   0  0  0  0  0  0  0  0  0  0  0  0
  161.0530  207.0110  154.0080 C   0  0  0  0  0  2  0  0  0  0  0  0
  161.1970  209.2420  153.9220 N   0  0  0  0  0  0  0  0  0  0  0  0
  161.2040  208.1130  153.1920 C   0  0  0  0  0  0  0  0  0  0  0  0
  160.9630  209.7140  156.3600 C   0  0  2  0  0  3  0  0  0  0  0  0
  159.5960  210.3720  156.4490 C   0  0  0  0  0  1  0  0  0  0  0  0
  162.0120  210.7060  156.3190 N   0  0  0  0  0  0  0  0  0  0  0  0
  163.1500  210.4130  156.5310 O   0  0  0  0  0  0  0  0  0  0  0  0
  160.3840  205.8670  148.8960 C   0  0  0  0  0  2  0  0  0  0  0  0
  161.1740  204.5990  149.1700 C   0  0  0  0  0  2  0  0  0  0  0  0
  160.7520  203.4920  148.2140 C   0  0  2  0  0  3  0  0  0  0  0  0
  161.5950  200.7510  148.2740 O   0  0  0  0  0  0  0  0  0  0  0  0
  160.6630  201.9000  149.0940 P   0  0  0  0  0  0  0  0  0  0  0  0
  161.1840  202.0550  150.5040 O   0  0  0  0  0  1  0  0  0  0  0  0
  159.0550  201.3780  149.1470 O   0  0  0  0  0  1  0  0  0  0  0  0
  161.6820  203.4000  147.0070 C   0  0  0  0  0  2  0  0  0  0  0  0
  160.9710  203.5520  145.8110 O   0  0  0  0  0  0  0  0  0  0  0  0
  161.6060  205.1100  143.7920 O   0  0  0  0  0  0  0  0  0  0  0  0
  162.6540  205.7410  146.1090 O   0  0  0  0  0  1  0  0  0  0  0  0
  159.9770  206.1120  145.5710 O   0  0  0  0  0  1  0  0  0  0  0  0
  161.3160  205.1220  145.2760 P   0  0  0  0  0  0  0  0  0  0  0  0
  1 11  1  0  0  0  0
  2  1  2  0  0  0  0
  3  1  1  0  0  0  0
  4  2  1  0  0  0  0
  5  3  2  0  0  0  0
  6  4  2  0  0  0  0
  6  5  1  0  0  0  0
  8  7  2  0  0  0  0
  8 12  1  0  0  0  0
  9  7  1  0  0  0  0
 10  8  1  0  0  0  0
 11 10  2  0  0  0  0
 11  9  1  0  0  0  0
 12 13  1  6  0  0  0
 14 12  1  0  0  0  0
 14 15  2  0  0  0  0
 16 17  1  0  0  0  0
 16  4  1  0  0  0  0
 18 23  1  6  0  0  0
 18 20  1  0  0  0  0
 18 17  1  0  0  0  0
 19 20  2  0  0  0  0
 20 22  1  0  0  0  0
 20 21  1  0  0  0  0
 24 23  1  0  0  0  0
 25 28  2  0  0  0  0
 28 27  1  0  0  0  0
 28 24  1  0  0  0  0
 28 26  1  0  0  0  0
M  END
>  <MODEL>
5

>  <REMARK>
 VINA RESULT:      -6.9      1.158      3.534
  Name = 
  10 active torsions:
  status: ('A' for Active; 'I' for Inactive)
    1  A    between atoms: O_1  and  C_5
    2  A    between atoms: O_1  and  P_23
    3  A    between atoms: N_2  and  C_6
    4  A    between atoms: C_3  and  C_17
    5  A    between atoms: C_5  and  C_19
    6  A    between atoms: C_6  and  C_10
    7  A    between atoms: P_16  and  C_19
    8  A    between atoms: C_18  and  C_19
    9  A    between atoms: C_18  and  C_22
   10  A    between atoms: C_20  and  C_22
                            x       y       z     vdW  Elec       q    Type
                         _______ _______ _______ _____ _____    ______ ____

>  <TORSDO>
F 10

$$$$
=
 OpenBabel11072411183D

 28 29  0  0  1  0  0  0  0  0999 V2000
  161.2170  206.0420  151.1250 C   0  0  0  0  0  0  0  0  0  0  0  0
  161.1710  207.4020  151.0920 N   0  0  0  0  0  0  0  0  0  0  0  0
  161.2330  205.3980  152.3230 N   0  0  0  0  0  0  0  0  0  0  0  0
  161.1450  208.1310  152.2390 C   0  0  0  0  0  0  0  0  0  0  0  0
  161.2020  206.0910  153.4920 C   0  0  0  0  0  3  0  0  0  0  0  0
  161.1550  207.4840  153.4740 C   0  0  0  0  0  3  0  0  0  0  0  0
  161.1530  203.5900  148.4610 N   0  0  0  0  0  0  0  0  0  0  0  0
  161.4170  204.7580  147.8370 C   0  0  0  0  0  0  0  0  0  0  0  0
  161.0410  203.9140  149.7620 C   0  0  0  0  0  2  0  0  0  0  0  0
  161.4870  205.8140  148.6690 N   0  0  0  0  0  0  0  0  0  0  0  0
  161.2470  205.2730  149.8760 C   0  0  0  0  0  0  0  0  0  0  0  0
  161.6380  204.8770  146.3620 C   0  0  2  0  0  3  0  0  0  0  0  0
  163.1070  204.7010  146.0120 C   0  0  0  0  0  1  0  0  0  0  0  0
  161.1350  206.1340  145.8600 N   0  0  0  0  0  0  0  0  0  0  0  0
  160.0820  206.1990  145.3000 O   0  0  0  0  0  0  0  0  0  0  0  0
  161.0720  209.6150  152.1750 C   0  0  0  0  0  2  0  0  0  0  0  0
  159.9930  210.1200  153.1190 C   0  0  0  0  0  2  0  0  0  0  0  0
  160.4580  211.3820  153.8320 C   0  0  2  0  0  3  0  0  0  0  0  0
  160.5570  212.3150  156.5420 O   0  0  0  0  0  1  0  0  0  0  0  0
  160.9270  210.9980  155.5490 P   0  0  0  0  0  0  0  0  0  0  0  0
  160.1770  209.7780  156.0330 O   0  0  0  0  0  1  0  0  0  0  0  0
  162.5900  210.6960  155.6210 O   0  0  0  0  0  0  0  0  0  0  0  0
  159.4000  212.4820  153.7860 C   0  0  0  0  0  2  0  0  0  0  0  0
  158.1350  211.9540  153.5070 O   0  0  0  0  0  0  0  0  0  0  0  0
  155.6960  212.5690  154.2680 O   0  0  0  0  0  0  0  0  0  0  0  0
  157.6190  214.0510  155.2530 O   0  0  0  0  0  1  0  0  0  0  0  0
  157.2280  211.4450  156.0600 O   0  0  0  0  0  1  0  0  0  0  0  0
  157.1270  212.5110  154.7500 P   0  0  0  0  0  0  0  0  0  0  0  0
  1  3  1  0  0  0  0
  2  1  2  0  0  0  0
  2  4  1  0  0  0  0
  3  5  2  0  0  0  0
  4  6  2  0  0  0  0
  6  5  1  0  0  0  0
  7  9  1  0  0  0  0
  8  7  2  0  0  0  0
  8 10  1  0  0  0  0
  9 11  1  0  0  0  0
 10 11  2  0  0  0  0
 11  1  1  0  0  0  0
 12 13  1  1  0  0  0
 12  8  1  0  0  0  0
 14 12  1  0  0  0  0
 15 14  2  0  0  0  0
 16  4  1  0  0  0  0
 16 17  1  0  0  0  0
 18 17  1  1  0  0  0
 18 20  1  0  0  0  0
 20 22  2  0  0  0  0
 20 21  1  0  0  0  0
 20 19  1  0  0  0  0
 23 18  1  0  0  0  0
 24 23  1  0  0  0  0
 24 28  1  0  0  0  0
 25 28  2  0  0  0  0
 28 26  1  0  0  0  0
 28 27  1  0  0  0  0
M  END
>  <MODEL>
6

>  <REMARK>
 VINA RESULT:      -6.7      4.631      9.405
  Name = 
  10 active torsions:
  status: ('A' for Active; 'I' for Inactive)
    1  A    between atoms: O_1  and  C_5
    2  A    between atoms: O_1  and  P_23
    3  A    between atoms: N_2  and  C_6
    4  A    between atoms: C_3  and  C_17
    5  A    between atoms: C_5  and  C_19
    6  A    between atoms: C_6  and  C_10
    7  A    between atoms: P_16  and  C_19
    8  A    between atoms: C_18  and  C_19
    9  A    between atoms: C_18  and  C_22
   10  A    between atoms: C_20  and  C_22
                            x       y       z     vdW  Elec       q    Type
                         _______ _______ _______ _____ _____    ______ ____

>  <TORSDO>
F 10

$$$$
=
 OpenBabel11072411183D

 28 29  0  0  1  0  0  0  0  0999 V2000
  160.9950  208.0190  153.0930 C   0  0  0  0  0  0  0  0  0  0  0  0
  160.9870  207.5030  151.8330 N   0  0  0  0  0  0  0  0  0  0  0  0
  161.1640  207.1900  154.1590 N   0  0  0  0  0  0  0  0  0  0  0  0
  161.1410  206.1700  151.6210 C   0  0  0  0  0  0  0  0  0  0  0  0
  161.3270  205.8520  153.9870 C   0  0  0  0  0  3  0  0  0  0  0  0
  161.3210  205.3090  152.7030 C   0  0  0  0  0  3  0  0  0  0  0  0
  160.9260  211.4620  154.2140 N   0  0  0  0  0  0  0  0  0  0  0  0
  160.2750  211.4800  153.0310 C   0  0  0  0  0  0  0  0  0  0  0  0
  161.2810  210.1760  154.3910 C   0  0  0  0  0  2  0  0  0  0  0  0
  160.1870  210.2730  152.4420 N   0  0  0  0  0  0  0  0  0  0  0  0
  160.8250  209.4610  153.3030 C   0  0  0  0  0  0  0  0  0  0  0  0
  159.6790  212.7150  152.4340 C   0  0  2  0  0  3  0  0  0  0  0  0
  158.1640  212.7090  152.5580 C   0  0  0  0  0  1  0  0  0  0  0  0
  160.0830  212.8730  151.0560 N   0  0  0  0  0  0  0  0  0  0  0  0
  159.2870  213.1360  150.2040 O   0  0  0  0  0  0  0  0  0  0  0  0
  161.1510  205.6350  150.2330 C   0  0  0  0  0  2  0  0  0  0  0  0
  161.2160  204.1170  150.2660 C   0  0  0  0  0  2  0  0  0  0  0  0
  160.8170  203.5390  148.9150 C   0  0  2  0  0  3  0  0  0  0  0  0
  158.9720  201.3450  149.0060 O   0  0  0  0  0  1  0  0  0  0  0  0
  160.6170  201.7330  149.0380 P   0  0  0  0  0  0  0  0  0  0  0  0
  161.3160  201.0530  147.8830 O   0  0  0  0  0  0  0  0  0  0  0  0
  161.2890  201.1930  150.4930 O   0  0  0  0  0  1  0  0  0  0  0  0
  161.8190  203.9060  147.8220 C   0  0  0  0  0  2  0  0  0  0  0  0
  161.1960  203.9730  146.5710 O   0  0  0  0  0  0  0  0  0  0  0  0
  162.5490  205.4610  144.8780 O   0  0  0  0  0  0  0  0  0  0  0  0
  162.1030  206.5120  147.2360 O   0  0  0  0  0  1  0  0  0  0  0  0
  160.0940  206.1990  145.3760 O   0  0  0  0  0  1  0  0  0  0  0  0
  161.5220  205.5300  145.9860 P   0  0  0  0  0  0  0  0  0  0  0  0
  1 11  1  0  0  0  0
  1  3  1  0  0  0  0
  2  1  2  0  0  0  0
  4  2  1  0  0  0  0
  4  6  2  0  0  0  0
  5  3  2  0  0  0  0
  6  5  1  0  0  0  0
  7  9  1  0  0  0  0
  8  7  2  0  0  0  0
 10  8  1  0  0  0  0
 10 11  2  0  0  0  0
 11  9  1  0  0  0  0
 12 13  1  6  0  0  0
 12  8  1  0  0  0  0
 14 12  1  0  0  0  0
 15 14  2  0  0  0  0
 16 17  1  0  0  0  0
 16  4  1  0  0  0  0
 18 23  1  6  0  0  0
 18 20  1  0  0  0  0
 18 17  1  0  0  0  0
 19 20  1  0  0  0  0
 20 22  1  0  0  0  0
 21 20  2  0  0  0  0
 24 23  1  0  0  0  0
 25 28  2  0  0  0  0
 27 28  1  0  0  0  0
 28 24  1  0  0  0  0
 28 26  1  0  0  0  0
M  END
>  <MODEL>
7

>  <REMARK>
 VINA RESULT:      -6.7      2.640      4.908
  Name = 
  10 active torsions:
  status: ('A' for Active; 'I' for Inactive)
    1  A    between atoms: O_1  and  C_5
    2  A    between atoms: O_1  and  P_23
    3  A    between atoms: N_2  and  C_6
    4  A    between atoms: C_3  and  C_17
    5  A    between atoms: C_5  and  C_19
    6  A    between atoms: C_6  and  C_10
    7  A    between atoms: P_16  and  C_19
    8  A    between atoms: C_18  and  C_19
    9  A    between atoms: C_18  and  C_22
   10  A    between atoms: C_20  and  C_22
                            x       y       z     vdW  Elec       q    Type
                         _______ _______ _______ _____ _____    ______ ____

>  <TORSDO>
F 10

$$$$
=
 OpenBabel11072411183D

 28 29  0  0  1  0  0  0  0  0999 V2000
  161.7650  206.6920  148.6500 C   0  0  0  0  0  0  0  0  0  0  0  0
  161.6200  206.4740  149.9860 N   0  0  0  0  0  0  0  0  0  0  0  0
  161.9600  207.9580  148.1910 N   0  0  0  0  0  0  0  0  0  0  0  0
  161.6640  207.5040  150.8720 C   0  0  0  0  0  0  0  0  0  0  0  0
  162.0160  209.0120  149.0470 C   0  0  0  0  0  3  0  0  0  0  0  0
  161.8700  208.8050  150.4170 C   0  0  0  0  0  3  0  0  0  0  0  0
  161.7540  204.4150  145.8350 N   0  0  0  0  0  0  0  0  0  0  0  0
  161.5290  203.6250  146.9060 C   0  0  0  0  0  0  0  0  0  0  0  0
  161.8740  205.6550  146.3410 C   0  0  0  0  0  2  0  0  0  0  0  0
  161.4910  204.2940  148.0740 N   0  0  0  0  0  0  0  0  0  0  0  0
  161.7120  205.5680  147.7080 C   0  0  0  0  0  0  0  0  0  0  0  0
  161.3140  202.1470  146.8150 C   0  0  2  0  0  3  0  0  0  0  0  0
  160.4380  201.7930  145.6250 C   0  0  0  0  0  1  0  0  0  0  0  0
  160.7540  201.6270  148.0410 N   0  0  0  0  0  0  0  0  0  0  0  0
  161.1470  200.6030  148.5140 O   0  0  0  0  0  0  0  0  0  0  0  0
  161.5260  207.2360  152.3290 C   0  0  0  0  0  2  0  0  0  0  0  0
  160.6320  208.2870  152.9640 C   0  0  0  0  0  2  0  0  0  0  0  0
  161.3820  209.0310  154.0600 C   0  0  2  0  0  3  0  0  0  0  0  0
  162.0740  208.4760  156.7870 O   0  0  0  0  0  1  0  0  0  0  0  0
  160.7810  208.5120  155.6990 P   0  0  0  0  0  0  0  0  0  0  0  0
  159.7300  209.4770  156.1980 O   0  0  0  0  0  1  0  0  0  0  0  0
  160.1070  206.9650  155.5830 O   0  0  0  0  0  0  0  0  0  0  0  0
  161.2760  210.5460  153.8930 C   0  0  0  0  0  2  0  0  0  0  0  0
  160.3730  210.8790  152.8780 O   0  0  0  0  0  0  0  0  0  0  0  0
  157.9730  211.3910  153.8200 O   0  0  0  0  0  1  0  0  0  0  0  0
  159.1420  213.3420  152.5210 O   0  0  0  0  0  0  0  0  0  0  0  0
  159.9740  212.5570  155.0280 O   0  0  0  0  0  1  0  0  0  0  0  0
  159.3230  212.0200  153.5620 P   0  0  0  0  0  0  0  0  0  0  0  0
  1  2  2  0  0  0  0
  2  4  1  0  0  0  0
  3  1  1  0  0  0  0
  3  5  2  0  0  0  0
  4 16  1  0  0  0  0
  5  6  1  0  0  0  0
  6  4  2  0  0  0  0
  7  9  1  0  0  0  0
  7  8  2  0  0  0  0
  8 10  1  0  0  0  0
  9 11  1  0  0  0  0
 11 10  2  0  0  0  0
 11  1  1  0  0  0  0
 12 13  1  6  0  0  0
 12  8  1  0  0  0  0
 12 14  1  0  0  0  0
 14 15  2  0  0  0  0
 16 17  1  0  0  0  0
 18 17  1  6  0  0  0
 18 20  1  0  0  0  0
 20 21  1  0  0  0  0
 20 19  1  0  0  0  0
 22 20  2  0  0  0  0
 23 18  1  0  0  0  0
 24 28  1  0  0  0  0
 24 23  1  0  0  0  0
 26 28  2  0  0  0  0
 28 25  1  0  0  0  0
 28 27  1  0  0  0  0
M  END
>  <MODEL>
8

>  <REMARK>
 VINA RESULT:      -6.6      4.112      8.958
  Name = 
  10 active torsions:
  status: ('A' for Active; 'I' for Inactive)
    1  A    between atoms: O_1  and  C_5
    2  A    between atoms: O_1  and  P_23
    3  A    between atoms: N_2  and  C_6
    4  A    between atoms: C_3  and  C_17
    5  A    between atoms: C_5  and  C_19
    6  A    between atoms: C_6  and  C_10
    7  A    between atoms: P_16  and  C_19
    8  A    between atoms: C_18  and  C_19
    9  A    between atoms: C_18  and  C_22
   10  A    between atoms: C_20  and  C_22
                            x       y       z     vdW  Elec       q    Type
                         _______ _______ _______ _____ _____    ______ ____

>  <TORSDO>
F 10

$$$$
=
 OpenBabel11072411183D

 28 29  0  0  1  0  0  0  0  0999 V2000
  161.2160  208.0630  152.7340 C   0  0  0  0  0  0  0  0  0  0  0  0
  160.8070  206.7730  152.5880 N   0  0  0  0  0  0  0  0  0  0  0  0
  161.9740  208.6430  151.7650 N   0  0  0  0  0  0  0  0  0  0  0  0
  161.1480  206.0500  151.4880 C   0  0  0  0  0  0  0  0  0  0  0  0
  162.3310  207.9550  150.6480 C   0  0  0  0  0  3  0  0  0  0  0  0
  161.9190  206.6340  150.4840 C   0  0  0  0  0  3  0  0  0  0  0  0
  160.5210  209.3790  156.0350 N   0  0  0  0  0  0  0  0  0  0  0  0
  160.1240  210.3570  155.1930 C   0  0  0  0  0  0  0  0  0  0  0  0
  160.9800  208.4010  155.2330 C   0  0  0  0  0  2  0  0  0  0  0  0
  160.2980  210.0570  153.8930 N   0  0  0  0  0  0  0  0  0  0  0  0
  160.8400  208.8270  153.9290 C   0  0  0  0  0  0  0  0  0  0  0  0
  159.5210  211.6480  155.6500 C   0  0  2  0  0  3  0  0  0  0  0  0
  160.4650  212.3980  156.5740 C   0  0  0  0  0  1  0  0  0  0  0  0
  158.2430  211.4290  156.2860 N   0  0  0  0  0  0  0  0  0  0  0  0
  157.2330  211.3900  155.6480 O   0  0  0  0  0  0  0  0  0  0  0  0
  160.6690  204.6490  151.3420 C   0  0  0  0  0  2  0  0  0  0  0  0
  161.5870  203.8860  150.4010 C   0  0  0  0  0  2  0  0  0  0  0  0
  160.8430  203.5010  149.1300 C   0  0  2  0  0  3  0  0  0  0  0  0
  158.8940  201.3980  149.0430 O   0  0  0  0  0  1  0  0  0  0  0  0
  160.5570  201.7030  149.0890 P   0  0  0  0  0  0  0  0  0  0  0  0
  161.2130  201.1000  147.8680 O   0  0  0  0  0  0  0  0  0  0  0  0
  161.2140  201.0000  150.4800 O   0  0  0  0  0  1  0  0  0  0  0  0
  161.5810  203.9670  147.8770 C   0  0  0  0  0  2  0  0  0  0  0  0
  161.1240  205.2220  147.4610 O   0  0  0  0  0  0  0  0  0  0  0  0
  162.6960  205.7980  145.4350 O   0  0  0  0  0  1  0  0  0  0  0  0
  160.1340  206.2000  145.0580 O   0  0  0  0  0  0  0  0  0  0  0  0
  161.2080  203.6660  145.1880 O   0  0  0  0  0  1  0  0  0  0  0  0
  161.3310  205.2450  145.7790 P   0  0  0  0  0  0  0  0  0  0  0  0
  1 11  1  0  0  0  0
  2  1  2  0  0  0  0
  3  1  1  0  0  0  0
  4  2  1  0  0  0  0
  5  3  2  0  0  0  0
  6  5  1  0  0  0  0
  6  4  2  0  0  0  0
  8 12  1  0  0  0  0
  8  7  2  0  0  0  0
  9  7  1  0  0  0  0
 10 11  2  0  0  0  0
 10  8  1  0  0  0  0
 11  9  1  0  0  0  0
 12 14  1  0  0  0  0
 12 13  1  1  0  0  0
 15 14  2  0  0  0  0
 16  4  1  0  0  0  0
 17 16  1  0  0  0  0
 18 23  1  6  0  0  0
 18 17  1  0  0  0  0
 19 20  1  0  0  0  0
 20 18  1  0  0  0  0
 20 22  1  0  0  0  0
 21 20  2  0  0  0  0
 24 23  1  0  0  0  0
 25 28  1  0  0  0  0
 26 28  2  0  0  0  0
 27 28  1  0  0  0  0
 28 24  1  0  0  0  0
M  END
>  <MODEL>
9

>  <REMARK>
 VINA RESULT:      -6.6      2.058      4.092
  Name = 
  10 active torsions:
  status: ('A' for Active; 'I' for Inactive)
    1  A    between atoms: O_1  and  C_5
    2  A    between atoms: O_1  and  P_23
    3  A    between atoms: N_2  and  C_6
    4  A    between atoms: C_3  and  C_17
    5  A    between atoms: C_5  and  C_19
    6  A    between atoms: C_6  and  C_10
    7  A    between atoms: P_16  and  C_19
    8  A    between atoms: C_18  and  C_19
    9  A    between atoms: C_18  and  C_22
   10  A    between atoms: C_20  and  C_22
                            x       y       z     vdW  Elec       q    Type
                         _______ _______ _______ _____ _____    ______ ____

>  <TORSDO>
F 10

$$$$
