=
 OpenBabel11072414053D

 62 68  0  0  1  0  0  0  0  0999 V2000
  161.1620  209.6840  147.6480 N   0  0  0  0  0  0  0  0  0  0  0  0
  161.3910  208.2500  147.6410 C   0  0  0  0  0  2  0  0  0  0  0  0
  161.3810  210.4380  148.6900 C   0  0  0  0  0  0  0  0  0  0  0  0
  162.2850  209.8040  152.9610 C   0  0  0  0  0  3  0  0  0  0  0  0
  162.8450  210.7910  150.7150 C   0  0  0  0  0  2  0  0  0  0  0  0
  161.1330  211.8480  148.6050 N   0  0  0  0  0  2  0  0  0  0  0  0
  162.3380  207.4260  152.1790 C   0  0  0  0  0  2  0  0  0  0  0  0
  161.8390  207.3970  150.7250 C   0  0  2  0  0  3  0  0  0  0  0  0
  162.5440  208.4340  149.8430 C   0  0  2  0  0  3  0  0  0  0  0  0
  163.3830  210.2220  152.0290 C   0  0  0  0  0  2  0  0  0  0  0  0
  161.7900  208.5600  153.0230 C   0  0  0  0  0  0  0  0  0  0  0  0
  161.8950  209.8380  149.9910 C   0  0  2  0  0  3  0  0  0  0  0  0
  162.6800  207.9810  148.3840 C   0  0  1  0  0  3  0  0  0  0  0  0
  160.9410  212.1570  146.2410 C   0  0  0  0  0  0  0  0  0  0  0  0
  160.5730  211.6330  145.1000 C   0  0  0  0  0  3  0  0  0  0  0  0
  161.2950  212.6210  147.4110 C   0  0  0  0  0  3  0  0  0  0  0  0
  159.6410  212.3100  144.1760 C   0  0  0  0  0  0  0  0  0  0  0  0
  158.6720  211.6770  143.6720 O   0  0  0  0  0  0  0  0  0  0  0  0
  159.8180  213.7590  143.8170 C   0  0  2  0  0  3  0  0  0  0  0  0
  158.5250  214.4520  143.4100 C   0  0  0  0  0  1  0  0  0  0  0  0
  162.0170  214.4520  143.2320 O   0  0  0  0  0  0  0  0  0  0  0  0
  160.9260  213.9670  142.8270 C   0  0  0  0  0  0  0  0  0  0  0  0
  160.7720  213.6190  141.4350 N   0  0  0  0  0  0  0  0  0  0  0  0
  161.1640  211.1790  141.2710 C   0  0  0  0  0  3  0  0  0  0  0  0
  163.2240  211.6190  139.4330 C   0  0  0  0  0  3  0  0  0  0  0  0
  161.4840  212.4940  140.8900 C   0  0  0  0  0  0  0  0  0  0  0  0
  161.8670  210.0960  140.7330 C   0  0  0  0  0  3  0  0  0  0  0  0
  162.8960  210.3160  139.8150 C   0  0  0  0  0  3  0  0  0  0  0  0
  162.5210  212.7020  139.9710 C   0  0  0  0  0  3  0  0  0  0  0  0
  159.8230  214.2470  140.6430 O   0  0  0  0  0  0  0  0  0  0  0  0
  157.4440  213.9250  140.4420 C   0  0  0  0  0  3  0  0  0  0  0  0
  156.3310  213.2930  139.8850 C   0  0  0  0  0  0  0  0  0  0  0  0
  156.5210  212.2680  138.9140 C   0  0  0  0  0  0  0  0  0  0  0  0
  157.8290  211.9210  138.5470 C   0  0  0  0  0  3  0  0  0  0  0  0
  158.9310  212.5670  139.1120 C   0  0  0  0  0  3  0  0  0  0  0  0
  154.9880  213.7460  140.3590 C   0  0  0  0  0  1  0  0  0  0  0  0
  158.7420  213.5810  140.0580 C   0  0  0  0  0  0  0  0  0  0  0  0
  155.6520  210.6030  137.2530 C   0  0  0  0  0  1  0  0  0  0  0  0
  155.4870  211.5710  138.2790 O   0  0  0  0  0  0  0  0  0  0  0  0
  163.0470  206.6360  148.2650 O   0  0  0  0  0  0  0  0  0  0  0  0
  161.9510  204.5190  147.9600 C   0  0  0  0  0  2  0  0  0  0  0  0
  161.9460  206.0090  147.6660 C   0  0  2  0  0  3  0  0  0  0  0  0
  162.4700  204.8090  145.6520 N   0  0  0  0  0  0  0  0  0  0  0  0
  162.0670  206.1170  146.1590 C   0  0  0  0  0  2  0  0  0  0  0  0
  161.7560  204.6120  144.4060 C   0  0  0  0  0  1  0  0  0  0  0  0
  161.9520  203.8440  146.6120 C   0  0  0  0  0  2  0  0  0  0  0  0
  160.4430  207.5040  150.6440 O   0  0  0  0  0  0  0  0  0  0  0  0
  159.9610  206.2100  150.8400 C   0  0  0  0  0  2  0  0  0  0  0  0
  161.1260  205.2840  151.1190 C   0  0  0  0  0  3  0  0  0  0  0  0
  160.6530  203.8520  150.9900 C   0  0  0  0  0  2  0  0  0  0  0  0
  160.8280  204.4670  152.3610 C   0  0  0  0  0  2  0  0  0  0  0  0
  160.7360  208.2760  154.0540 C   0  0  0  0  0  2  0  0  0  0  0  0
  159.7860  209.4490  154.2290 C   0  0  0  0  0  2  0  0  0  0  0  0
  160.2550  211.8310  157.2600 C   0  0  0  0  0  2  0  0  0  0  0  0
  160.4070  209.3470  156.6980 C   0  0  0  0  0  2  0  0  0  0  0  0
  157.2900  210.7520  155.9400 O   0  0  0  0  0  0  0  0  0  0  0  0
  161.1830  210.6450  156.9680 C   0  0  1  0  0  3  0  0  0  0  0  0
  159.2780  209.5040  155.6690 C   0  0  1  0  0  3  0  0  0  0  0  0
  159.2430  212.0460  156.1390 C   0  0  0  0  0  2  0  0  0  0  0  0
  158.5060  210.7680  155.9130 C   0  0  0  0  0  0  0  0  0  0  0  0
  162.0450  210.9510  155.9140 O   0  0  0  0  0  0  0  0  0  0  0  0
  163.2340  210.5800  156.3460 O   0  0  0  0  0  1  0  0  0  0  0  0
  1  3  2  0  0  0  0
  2  1  1  0  0  0  0
  2 13  1  0  0  0  0
  3 12  1  0  0  0  0
  4 11  2  0  0  0  0
  5 10  1  0  0  0  0
  6  3  1  0  0  0  0
  7 11  1  0  0  0  0
  8 47  1  1  0  0  0
  8  7  1  0  0  0  0
  9 12  1  0  0  0  0
  9  8  1  0  0  0  0
 10  4  1  0  0  0  0
 11 52  1  0  0  0  0
 12  5  1  0  0  0  0
 13  9  1  0  0  0  0
 14 16  2  0  0  0  0
 15 14  2  0  0  0  0
 16  6  1  0  0  0  0
 17 15  1  0  0  0  0
 18 17  2  0  0  0  0
 19 17  1  0  0  0  0
 20 19  1  0  0  0  0
 22 21  2  0  0  0  0
 22 19  1  0  0  0  0
 23 22  1  0  0  0  0
 25 28  2  0  0  0  0
 25 29  1  0  0  0  0
 26 24  1  0  0  0  0
 26 23  1  0  0  0  0
 27 24  2  0  0  0  0
 28 27  1  0  0  0  0
 29 26  2  0  0  0  0
 30 23  1  0  0  0  0
 32 36  1  0  0  0  0
 32 31  2  0  0  0  0
 33 32  1  0  0  0  0
 34 33  2  0  0  0  0
 34 35  1  0  0  0  0
 35 37  2  0  0  0  0
 37 31  1  0  0  0  0
 37 30  1  0  0  0  0
 38 39  1  0  0  0  0
 39 33  1  0  0  0  0
 40 13  1  0  0  0  0
 42 41  1  0  0  0  0
 42 40  1  0  0  0  0
 43 44  1  0  0  0  0
 43 46  1  0  0  0  0
 44 42  1  0  0  0  0
 45 43  1  0  0  0  0
 46 41  1  0  0  0  0
 47 48  1  0  0  0  0
 48 49  1  0  0  0  0
 49 51  1  0  0  0  0
 50 49  1  0  0  0  0
 50 51  1  0  0  0  0
 52 53  1  0  0  0  0
 53 58  1  0  0  0  0
 55 57  1  0  0  0  0
 57 54  1  0  0  0  0
 58 60  1  0  0  0  0
 58 55  1  0  0  0  0
 59 54  1  0  0  0  0
 60 56  2  0  0  0  0
 60 59  1  0  0  0  0
 61 62  1  0  0  0  0
 61 57  1  0  0  0  0
M  END
>  <MODEL>
1

>  <REMARK>
 VINA RESULT:      -1.8      0.000      0.000
  Name = 
  17 active torsions:
  status: ('A' for Active; 'I' for Inactive)
    1  A    between atoms: O_2  and  C_28
    2  A    between atoms: C_7  and  C_45
    3  A    between atoms: C_7  and  C_57
    4  A    between atoms: C_13  and  C_21
    5  A    between atoms: O_14  and  C_21
    6  A    between atoms: O_14  and  C_34
    7  A    between atoms: O_15  and  C_23
    8  A    between atoms: O_15  and  C_54
    9  A    between atoms: C_17  and  C_24
   10  A    between atoms: C_17  and  C_50
   11  A    between atoms: N_20  and  C_53
   12  A    between atoms: C_29  and  N_43
   13  A    between atoms: O_32  and  N_43
   14  A    between atoms: O_32  and  C_61
   15  A    between atoms: C_33  and  C_50
   16  A    between atoms: O_37  and  C_48
   17  A    between atoms: C_46  and  C_57
                            x       y       z     vdW  Elec       q    Type
                         _______ _______ _______ _____ _____    ______ ____

>  <TORSDO>
F 17

$$$$
=
 OpenBabel11072414053D

 62 68  0  0  1  0  0  0  0  0999 V2000
  160.4400  209.4000  147.0810 N   0  0  0  0  0  0  0  0  0  0  0  0
  160.8250  208.0030  147.1860 C   0  0  0  0  0  2  0  0  0  0  0  0
  160.7670  210.3000  147.9650 C   0  0  0  0  0  0  0  0  0  0  0  0
  162.5370  210.3170  152.0060 C   0  0  0  0  0  3  0  0  0  0  0  0
  162.5420  211.0460  149.5970 C   0  0  0  0  0  2  0  0  0  0  0  0
  160.3490  211.6600  147.7770 N   0  0  0  0  0  2  0  0  0  0  0  0
  162.7100  207.8710  151.4990 C   0  0  0  0  0  2  0  0  0  0  0  0
  161.9490  207.6060  150.1900 C   0  0  2  0  0  3  0  0  0  0  0  0
  162.3490  208.5770  149.0730 C   0  0  2  0  0  3  0  0  0  0  0  0
  163.3820  210.7050  150.8300 C   0  0  0  0  0  2  0  0  0  0  0  0
  162.2080  209.0520  152.3060 C   0  0  0  0  0  0  0  0  0  0  0  0
  161.5850  209.9250  149.1930 C   0  0  2  0  0  3  0  0  0  0  0  0
  162.2540  207.9510  147.6770 C   0  0  1  0  0  3  0  0  0  0  0  0
  161.1580  212.9620  145.9410 C   0  0  0  0  0  0  0  0  0  0  0  0
  162.1630  213.6360  145.4400 C   0  0  0  0  0  3  0  0  0  0  0  0
  160.1900  212.2800  146.4960 C   0  0  0  0  0  3  0  0  0  0  0  0
  162.7060  213.3730  144.0930 C   0  0  0  0  0  0  0  0  0  0  0  0
  163.9510  213.2510  143.9210 O   0  0  0  0  0  0  0  0  0  0  0  0
  161.8000  213.2400  142.9010 C   0  0  2  0  0  3  0  0  0  0  0  0
  161.1700  211.8620  142.7600 C   0  0  0  0  0  1  0  0  0  0  0  0
  163.6430  214.1290  141.6880 O   0  0  0  0  0  0  0  0  0  0  0  0
  162.4530  213.7130  141.6360 C   0  0  0  0  0  0  0  0  0  0  0  0
  161.7590  213.6930  140.3710 N   0  0  0  0  0  0  0  0  0  0  0  0
  162.4610  213.1790  138.0530 C   0  0  0  0  0  3  0  0  0  0  0  0
  162.5580  210.4550  138.6710 C   0  0  0  0  0  3  0  0  0  0  0  0
  162.1410  212.7520  139.3530 C   0  0  0  0  0  0  0  0  0  0  0  0
  162.8300  212.2500  137.0740 C   0  0  0  0  0  3  0  0  0  0  0  0
  162.8780  210.8900  137.3830 C   0  0  0  0  0  3  0  0  0  0  0  0
  162.1890  211.3830  139.6500 C   0  0  0  0  0  3  0  0  0  0  0  0
  160.6160  214.4530  140.1730 O   0  0  0  0  0  0  0  0  0  0  0  0
  159.1220  212.8180  139.2260 C   0  0  0  0  0  3  0  0  0  0  0  0
  157.8610  212.2360  139.0940 C   0  0  0  0  0  0  0  0  0  0  0  0
  156.7620  212.7700  139.8280 C   0  0  0  0  0  0  0  0  0  0  0  0
  156.9830  213.8750  140.6630 C   0  0  0  0  0  3  0  0  0  0  0  0
  158.2530  214.4410  140.7860 C   0  0  0  0  0  3  0  0  0  0  0  0
  157.7490  211.0660  138.1700 C   0  0  0  0  0  1  0  0  0  0  0  0
  159.3330  213.9080  140.0730 C   0  0  0  0  0  0  0  0  0  0  0  0
  155.0730  211.0130  139.2420 C   0  0  0  0  0  1  0  0  0  0  0  0
  155.4570  212.2670  139.7850 O   0  0  0  0  0  0  0  0  0  0  0  0
  162.7420  206.6400  147.6360 O   0  0  0  0  0  0  0  0  0  0  0  0
  161.7390  204.5270  148.1910 C   0  0  0  0  0  2  0  0  0  0  0  0
  161.6130  205.8360  147.4290 C   0  0  2  0  0  3  0  0  0  0  0  0
  161.9480  204.0440  145.8660 N   0  0  0  0  0  0  0  0  0  0  0  0
  161.5380  205.4410  145.9690 C   0  0  0  0  0  2  0  0  0  0  0  0
  161.0960  203.4370  144.8620 C   0  0  0  0  0  1  0  0  0  0  0  0
  161.6090  203.4440  147.1500 C   0  0  0  0  0  2  0  0  0  0  0  0
  160.5600  207.5770  150.3830 O   0  0  0  0  0  0  0  0  0  0  0  0
  160.3110  206.4060  151.1000 C   0  0  0  0  0  2  0  0  0  0  0  0
  161.6070  205.6410  151.2640 C   0  0  0  0  0  3  0  0  0  0  0  0
  161.2920  204.1650  151.3690 C   0  0  0  0  0  2  0  0  0  0  0  0
  161.6150  204.9560  152.6170 C   0  0  0  0  0  2  0  0  0  0  0  0
  161.4090  208.8130  153.5550 C   0  0  0  0  0  2  0  0  0  0  0  0
  160.3860  209.9120  153.7900 C   0  0  0  0  0  2  0  0  0  0  0  0
  159.0270  211.1350  157.2170 C   0  0  0  0  0  2  0  0  0  0  0  0
  159.9680  212.0890  155.0460 C   0  0  0  0  0  2  0  0  0  0  0  0
  162.1100  209.7920  156.5950 O   0  0  0  0  0  0  0  0  0  0  0  0
  158.7100  211.8300  155.8870 C   0  0  1  0  0  3  0  0  0  0  0  0
  160.8720  210.8570  154.8890 C   0  0  1  0  0  3  0  0  0  0  0  0
  159.7960  209.8340  157.0040 C   0  0  0  0  0  2  0  0  0  0  0  0
  161.0130  210.1290  156.1930 C   0  0  0  0  0  0  0  0  0  0  0  0
  157.7610  211.0980  155.1700 O   0  0  0  0  0  0  0  0  0  0  0  0
  156.6260  211.3310  155.7980 O   0  0  0  0  0  1  0  0  0  0  0  0
  1  2  1  0  0  0  0
  1  3  2  0  0  0  0
  2 13  1  0  0  0  0
  3 12  1  0  0  0  0
  4 11  2  0  0  0  0
  5 10  1  0  0  0  0
  6  3  1  0  0  0  0
  7 11  1  0  0  0  0
  8 47  1  1  0  0  0
  8  7  1  0  0  0  0
  9 12  1  0  0  0  0
  9  8  1  0  0  0  0
 10  4  1  0  0  0  0
 11 52  1  0  0  0  0
 12  5  1  0  0  0  0
 13  9  1  0  0  0  0
 14 16  2  0  0  0  0
 15 14  2  0  0  0  0
 16  6  1  0  0  0  0
 17 15  1  0  0  0  0
 18 17  2  0  0  0  0
 19 17  1  0  0  0  0
 20 19  1  0  0  0  0
 22 21  2  0  0  0  0
 22 19  1  0  0  0  0
 23 22  1  0  0  0  0
 24 26  1  0  0  0  0
 25 29  1  0  0  0  0
 26 29  2  0  0  0  0
 26 23  1  0  0  0  0
 27 28  1  0  0  0  0
 27 24  2  0  0  0  0
 28 25  2  0  0  0  0
 30 23  1  0  0  0  0
 31 37  1  0  0  0  0
 32 31  2  0  0  0  0
 32 33  1  0  0  0  0
 33 34  2  0  0  0  0
 34 35  1  0  0  0  0
 36 32  1  0  0  0  0
 37 30  1  0  0  0  0
 37 35  2  0  0  0  0
 38 39  1  0  0  0  0
 39 33  1  0  0  0  0
 40 13  1  0  0  0  0
 42 40  1  0  0  0  0
 42 41  1  0  0  0  0
 43 44  1  0  0  0  0
 43 46  1  0  0  0  0
 44 42  1  0  0  0  0
 45 43  1  0  0  0  0
 46 41  1  0  0  0  0
 47 48  1  0  0  0  0
 48 49  1  0  0  0  0
 49 50  1  0  0  0  0
 49 51  1  0  0  0  0
 50 51  1  0  0  0  0
 52 53  1  0  0  0  0
 53 58  1  0  0  0  0
 55 57  1  0  0  0  0
 57 54  1  0  0  0  0
 58 55  1  0  0  0  0
 58 60  1  0  0  0  0
 59 54  1  0  0  0  0
 60 56  2  0  0  0  0
 60 59  1  0  0  0  0
 61 62  1  0  0  0  0
 61 57  1  0  0  0  0
M  END
>  <MODEL>
2

>  <REMARK>
 VINA RESULT:      -0.1      1.337      2.314
  Name = 
  17 active torsions:
  status: ('A' for Active; 'I' for Inactive)
    1  A    between atoms: O_2  and  C_28
    2  A    between atoms: C_7  and  C_45
    3  A    between atoms: C_7  and  C_57
    4  A    between atoms: C_13  and  C_21
    5  A    between atoms: O_14  and  C_21
    6  A    between atoms: O_14  and  C_34
    7  A    between atoms: O_15  and  C_23
    8  A    between atoms: O_15  and  C_54
    9  A    between atoms: C_17  and  C_24
   10  A    between atoms: C_17  and  C_50
   11  A    between atoms: N_20  and  C_53
   12  A    between atoms: C_29  and  N_43
   13  A    between atoms: O_32  and  N_43
   14  A    between atoms: O_32  and  C_61
   15  A    between atoms: C_33  and  C_50
   16  A    between atoms: O_37  and  C_48
   17  A    between atoms: C_46  and  C_57
                            x       y       z     vdW  Elec       q    Type
                         _______ _______ _______ _____ _____    ______ ____

>  <TORSDO>
F 17

$$$$
=
 OpenBabel11072414053D

 62 68  0  0  1  0  0  0  0  0999 V2000
  161.1860  210.7780  140.7550 N   0  0  0  0  0  0  0  0  0  0  0  0
  161.5290  212.1620  141.0320 C   0  0  0  0  0  2  0  0  0  0  0  0
  160.2410  210.4280  139.9270 C   0  0  0  0  0  0  0  0  0  0  0  0
  156.9810  212.4550  137.7540 C   0  0  0  0  0  3  0  0  0  0  0  0
  159.0470  211.0190  137.7840 C   0  0  0  0  0  2  0  0  0  0  0  0
  159.9740  209.0360  139.7090 N   0  0  0  0  0  2  0  0  0  0  0  0
  158.0830  214.4530  138.7830 C   0  0  0  0  0  2  0  0  0  0  0  0
  159.1490  213.9470  139.7700 C   0  0  2  0  0  3  0  0  0  0  0  0
  160.0680  212.8900  139.1480 C   0  0  2  0  0  3  0  0  0  0  0  0
  158.2200  212.0500  137.0130 C   0  0  0  0  0  2  0  0  0  0  0  0
  156.9110  213.5170  138.5690 C   0  0  0  0  0  0  0  0  0  0  0  0
  159.4210  211.4790  139.1920 C   0  0  2  0  0  3  0  0  0  0  0  0
  161.4890  212.9210  139.7250 C   0  0  1  0  0  3  0  0  0  0  0  0
  161.5310  207.6550  140.8880 C   0  0  0  0  0  0  0  0  0  0  0  0
  162.0580  207.3500  142.0470 C   0  0  0  0  0  3  0  0  0  0  0  0
  160.9720  208.0100  139.7610 C   0  0  0  0  0  3  0  0  0  0  0  0
  162.0900  205.9690  142.5690 C   0  0  0  0  0  0  0  0  0  0  0  0
  162.2000  204.9920  141.7770 O   0  0  0  0  0  0  0  0  0  0  0  0
  161.9970  205.6920  144.0430 C   0  0  2  0  0  3  0  0  0  0  0  0
  163.3200  205.2830  144.6750 C   0  0  0  0  0  1  0  0  0  0  0  0
  160.2890  204.1540  143.4300 O   0  0  0  0  0  0  0  0  0  0  0  0
  160.8790  204.7480  144.3740 C   0  0  0  0  0  0  0  0  0  0  0  0
  160.4750  204.5000  145.7370 N   0  0  0  0  0  0  0  0  0  0  0  0
  161.3330  203.1520  147.6300 C   0  0  0  0  0  3  0  0  0  0  0  0
  160.7160  200.7990  146.2520 C   0  0  0  0  0  3  0  0  0  0  0  0
  160.7530  203.2290  146.3520 C   0  0  0  0  0  0  0  0  0  0  0  0
  161.5970  201.9090  148.2130 C   0  0  0  0  0  3  0  0  0  0  0  0
  161.2890  200.7330  147.5250 C   0  0  0  0  0  3  0  0  0  0  0  0
  160.4520  202.0420  145.6690 C   0  0  0  0  0  3  0  0  0  0  0  0
  159.9690  205.5200  146.5280 O   0  0  0  0  0  0  0  0  0  0  0  0
  160.3660  205.8910  148.8740 C   0  0  0  0  0  3  0  0  0  0  0  0
  161.0660  206.4880  149.9240 C   0  0  0  0  0  0  0  0  0  0  0  0
  162.1340  207.3850  149.6320 C   0  0  0  0  0  0  0  0  0  0  0  0
  162.4490  207.6450  148.2910 C   0  0  0  0  0  3  0  0  0  0  0  0
  161.7410  207.0350  147.2540 C   0  0  0  0  0  3  0  0  0  0  0  0
  160.6360  206.1360  151.3110 C   0  0  0  0  0  1  0  0  0  0  0  0
  160.6990  206.1460  147.5430 C   0  0  0  0  0  0  0  0  0  0  0  0
  162.4370  208.5530  151.8300 C   0  0  0  0  0  1  0  0  0  0  0  0
  162.9130  208.0350  150.5960 O   0  0  0  0  0  0  0  0  0  0  0  0
  161.9770  214.2220  139.8940 O   0  0  0  0  0  0  0  0  0  0  0  0
  162.6810  213.4250  137.7390 C   0  0  0  0  0  2  0  0  0  0  0  0
  162.9390  214.3840  138.8890 C   0  0  2  0  0  3  0  0  0  0  0  0
  164.6450  212.6930  138.8740 N   0  0  0  0  0  0  0  0  0  0  0  0
  164.3000  213.9970  139.4300 C   0  0  0  0  0  2  0  0  0  0  0  0
  166.0670  212.7270  138.5920 C   0  0  0  0  0  1  0  0  0  0  0  0
  163.9470  212.6190  137.5970 C   0  0  0  0  0  2  0  0  0  0  0  0
  158.5850  213.5040  140.9750 O   0  0  0  0  0  0  0  0  0  0  0  0
  159.0970  214.3540  141.9570 C   0  0  0  0  0  2  0  0  0  0  0  0
  158.8010  213.7690  143.3210 C   0  0  0  0  0  3  0  0  0  0  0  0
  160.1100  213.4650  144.0160 C   0  0  0  0  0  2  0  0  0  0  0  0
  159.3180  212.3450  143.3780 C   0  0  0  0  0  2  0  0  0  0  0  0
  155.5820  213.8360  139.1910 C   0  0  0  0  0  2  0  0  0  0  0  0
  154.9640  212.6200  139.8610 C   0  0  0  0  0  2  0  0  0  0  0  0
  152.2750  210.0740  138.6910 C   0  0  0  0  0  2  0  0  0  0  0  0
  153.0290  212.4630  138.2110 C   0  0  0  0  0  2  0  0  0  0  0  0
  152.2440  211.9070  141.5780 O   0  0  0  0  0  0  0  0  0  0  0  0
  153.0290  211.0040  137.7330 C   0  0  1  0  0  3  0  0  0  0  0  0
  153.4470  212.6330  139.6790 C   0  0  1  0  0  3  0  0  0  0  0  0
  152.8240  210.1630  140.1120 C   0  0  0  0  0  2  0  0  0  0  0  0
  152.7980  211.5920  140.5420 C   0  0  0  0  0  0  0  0  0  0  0  0
  154.3280  210.5370  137.5250 O   0  0  0  0  0  0  0  0  0  0  0  0
  154.2380  209.2320  137.6940 O   0  0  0  0  0  1  0  0  0  0  0  0
  1  2  1  0  0  0  0
  3  1  2  0  0  0  0
  4 11  2  0  0  0  0
  5 12  1  0  0  0  0
  6 16  1  0  0  0  0
  6  3  1  0  0  0  0
  7  8  1  0  0  0  0
  8 47  1  1  0  0  0
  9 12  1  0  0  0  0
  9 13  1  0  0  0  0
  9  8  1  0  0  0  0
 10  4  1  0  0  0  0
 10  5  1  0  0  0  0
 11  7  1  0  0  0  0
 11 52  1  0  0  0  0
 12  3  1  0  0  0  0
 13 40  1  0  0  0  0
 13  2  1  0  0  0  0
 14 15  2  0  0  0  0
 15 17  1  0  0  0  0
 16 14  2  0  0  0  0
 17 19  1  0  0  0  0
 18 17  2  0  0  0  0
 19 22  1  0  0  0  0
 19 20  1  0  0  0  0
 21 22  2  0  0  0  0
 22 23  1  0  0  0  0
 23 26  1  0  0  0  0
 23 30  1  0  0  0  0
 24 27  1  0  0  0  0
 25 28  1  0  0  0  0
 26 24  2  0  0  0  0
 28 27  2  0  0  0  0
 29 25  2  0  0  0  0
 29 26  1  0  0  0  0
 30 37  1  0  0  0  0
 31 32  1  0  0  0  0
 32 36  1  0  0  0  0
 33 32  2  0  0  0  0
 33 39  1  0  0  0  0
 34 33  1  0  0  0  0
 35 37  1  0  0  0  0
 35 34  2  0  0  0  0
 37 31  2  0  0  0  0
 39 38  1  0  0  0  0
 41 42  1  0  0  0  0
 42 44  1  0  0  0  0
 42 40  1  0  0  0  0
 43 44  1  0  0  0  0
 45 43  1  0  0  0  0
 46 41  1  0  0  0  0
 46 43  1  0  0  0  0
 47 48  1  0  0  0  0
 48 49  1  0  0  0  0
 49 51  1  0  0  0  0
 49 50  1  0  0  0  0
 51 50  1  0  0  0  0
 52 53  1  0  0  0  0
 54 59  1  0  0  0  0
 55 58  1  0  0  0  0
 57 55  1  0  0  0  0
 57 54  1  0  0  0  0
 58 53  1  0  0  0  0
 58 60  1  0  0  0  0
 59 60  1  0  0  0  0
 60 56  2  0  0  0  0
 61 62  1  0  0  0  0
 61 57  1  0  0  0  0
M  END
>  <MODEL>
3

>  <REMARK>
 VINA RESULT:       0.3      3.216     13.074
  Name = 
  17 active torsions:
  status: ('A' for Active; 'I' for Inactive)
    1  A    between atoms: O_2  and  C_28
    2  A    between atoms: C_7  and  C_45
    3  A    between atoms: C_7  and  C_57
    4  A    between atoms: C_13  and  C_21
    5  A    between atoms: O_14  and  C_21
    6  A    between atoms: O_14  and  C_34
    7  A    between atoms: O_15  and  C_23
    8  A    between atoms: O_15  and  C_54
    9  A    between atoms: C_17  and  C_24
   10  A    between atoms: C_17  and  C_50
   11  A    between atoms: N_20  and  C_53
   12  A    between atoms: C_29  and  N_43
   13  A    between atoms: O_32  and  N_43
   14  A    between atoms: O_32  and  C_61
   15  A    between atoms: C_33  and  C_50
   16  A    between atoms: O_37  and  C_48
   17  A    between atoms: C_46  and  C_57
                            x       y       z     vdW  Elec       q    Type
                         _______ _______ _______ _____ _____    ______ ____

>  <TORSDO>
F 17

$$$$
