=
 OpenBabel11072411193D

 28 33  0  0  1  0  0  0  0  0999 V2000
  160.0820  207.7390  156.5880 C   0  0  0  0  0  3  0  0  0  0  0  0
  159.0060  210.9940  156.7430 C   0  0  0  0  0  2  0  0  0  0  0  0
  161.2040  208.2750  151.7430 C   0  0  0  0  0  0  0  0  0  0  0  0
  163.0810  206.6070  150.1000 C   0  0  0  0  0  2  0  0  0  0  0  0
  158.6820  211.4740  153.5420 C   0  0  0  0  0  0  0  0  0  0  0  0
  160.9070  206.8950  151.9510 C   0  0  0  0  0  0  0  0  0  0  0  0
  158.7930  211.8200  152.0960 C   0  0  0  0  0  1  0  0  0  0  0  0
  161.1400  208.5690  154.1510 C   0  0  0  0  0  0  0  0  0  0  0  0
  160.1980  206.8200  155.5330 C   0  0  0  0  0  3  0  0  0  0  0  0
  160.6140  206.4460  153.2030 N   0  0  0  0  0  0  0  0  0  0  0  0
  160.5630  209.0480  156.4340 C   0  0  0  0  0  0  0  0  0  0  0  0
  161.2270  207.9790  149.1760 C   0  0  0  0  0  2  0  0  0  0  0  0
  161.2120  211.4420  154.0260 C   0  0  2  0  0  3  0  0  0  0  0  0
  161.9420  205.7210  149.8620 C   0  0  2  0  0  3  0  0  0  0  0  0
  162.1890  206.8760  148.9520 N   0  0  2  0  0  0  0  0  0  0  0  0
  160.0420  210.0920  157.2610 N   0  0  0  0  0  2  0  0  0  0  0  0
  161.2870  209.1200  152.8680 C   0  0  0  0  0  0  0  0  0  0  0  0
  161.2780  209.3780  155.2810 C   0  0  0  0  0  0  0  0  0  0  0  0
  161.5150  208.8780  150.3850 C   0  0  0  0  0  2  0  0  0  0  0  0
  159.8010  211.6250  154.4420 N   0  0  0  0  0  0  0  0  0  0  0  0
  160.7390  205.9110  150.8240 C   0  0  0  0  0  2  0  0  0  0  0  0
  159.5790  212.0890  155.8280 C   0  0  1  0  0  3  0  0  0  0  0  0
  161.4240  210.6340  152.7120 C   0  0  0  0  0  2  0  0  0  0  0  0
  160.6870  207.2500  154.2930 C   0  0  0  0  0  0  0  0  0  0  0  0
  161.9470  210.7090  155.1320 C   0  0  0  0  0  2  0  0  0  0  0  0
  157.5650  211.0980  153.9860 O   0  0  0  0  0  0  0  0  0  0  0  0
  158.7240  213.3500  155.8630 C   0  0  0  0  0  2  0  0  0  0  0  0
  157.5980  213.1400  156.6590 O   0  0  0  0  0  1  0  0  0  0  0  0
  2 16  1  0  0  0  0
  3  6  2  0  0  0  0
  3 17  1  0  0  0  0
  5 26  2  0  0  0  0
  5 20  1  0  0  0  0
  6 10  1  0  0  0  0
  7  5  1  0  0  0  0
  8 24  1  0  0  0  0
  8 18  1  0  0  0  0
  9  1  2  0  0  0  0
 10 24  2  0  0  0  0
 11  1  1  0  0  0  0
 11 16  1  0  0  0  0
 12 19  1  0  0  0  0
 13 23  1  6  0  0  0
 13 20  1  0  0  0  0
 13 25  1  0  0  0  0
 14  4  1  1  0  0  0
 14 21  1  0  0  0  0
 15 12  1  1  0  0  0
 15 14  1  0  0  0  0
 15  4  1  0  0  0  0
 17  8  2  0  0  0  0
 18 11  2  0  0  0  0
 19  3  1  0  0  0  0
 20 22  1  0  0  0  0
 21  6  1  0  0  0  0
 22 27  1  6  0  0  0
 22  2  1  0  0  0  0
 23 17  1  0  0  0  0
 24  9  1  0  0  0  0
 25 18  1  0  0  0  0
 27 28  1  0  0  0  0
M  END
>  <MODEL>
1

>  <REMARK>
 VINA RESULT:      -5.6      0.000      0.000
  Name = 
  1 active torsions:
  status: ('A' for Active; 'I' for Inactive)
    1  A    between atoms: C_15  and  C_24
                            x       y       z     vdW  Elec       q    Type
                         _______ _______ _______ _____ _____    ______ ____

>  <TORSDO>
F 1

$$$$
=
 OpenBabel11072411193D

 28 33  0  0  1  0  0  0  0  0999 V2000
  160.3700  210.4510  155.4700 C   0  0  0  0  0  3  0  0  0  0  0  0
  157.4200  211.3610  156.9680 C   0  0  0  0  0  2  0  0  0  0  0  0
  159.3370  213.3510  151.5280 C   0  0  0  0  0  0  0  0  0  0  0  0
  161.2620  214.4530  149.5080 C   0  0  0  0  0  2  0  0  0  0  0  0
  155.9570  212.5420  154.3130 C   0  0  0  0  0  0  0  0  0  0  0  0
  160.1770  212.2970  151.0610 C   0  0  0  0  0  0  0  0  0  0  0  0
  155.3730  213.3400  153.1980 C   0  0  0  0  0  1  0  0  0  0  0  0
  159.7750  212.5880  153.7910 C   0  0  0  0  0  0  0  0  0  0  0  0
  160.7930  210.4190  154.1320 C   0  0  0  0  0  3  0  0  0  0  0  0
  160.6610  211.3760  151.9390 N   0  0  0  0  0  0  0  0  0  0  0  0
  159.7150  211.5840  155.9730 C   0  0  0  0  0  0  0  0  0  0  0  0
  158.8270  214.1390  149.1210 C   0  0  0  0  0  2  0  0  0  0  0  0
  157.7580  214.2580  154.9820 C   0  0  2  0  0  3  0  0  0  0  0  0
  161.0810  213.1960  148.7820 C   0  0  2  0  0  3  0  0  0  0  0  0
  160.1660  214.3440  148.5210 N   0  0  2  0  0  0  0  0  0  0  0  0
  158.8750  211.4620  157.1250 N   0  0  0  0  0  2  0  0  0  0  0  0
  159.1150  213.4660  152.9160 C   0  0  0  0  0  0  0  0  0  0  0  0
  159.6160  212.7230  155.1720 C   0  0  0  0  0  0  0  0  0  0  0  0
  158.7250  214.4080  150.6270 C   0  0  0  0  0  2  0  0  0  0  0  0
  156.8330  213.1420  155.2920 N   0  0  0  0  0  0  0  0  0  0  0  0
  160.4410  212.0420  149.6000 C   0  0  0  0  0  2  0  0  0  0  0  0
  156.7570  212.7240  156.7080 C   0  0  1  0  0  3  0  0  0  0  0  0
  158.0910  214.4530  153.4740 C   0  0  0  0  0  2  0  0  0  0  0  0
  160.4520  211.4740  153.2760 C   0  0  0  0  0  0  0  0  0  0  0  0
  159.0680  214.0100  155.7060 C   0  0  0  0  0  2  0  0  0  0  0  0
  155.6240  211.3330  154.4250 O   0  0  0  0  0  0  0  0  0  0  0  0
  155.3230  212.7550  157.2220 C   0  0  0  0  0  2  0  0  0  0  0  0
  154.8320  214.0600  157.1860 O   0  0  0  0  0  1  0  0  0  0  0  0
  1 11  1  0  0  0  0
  2 16  1  0  0  0  0
  3 17  1  0  0  0  0
  5 26  2  0  0  0  0
  5 20  1  0  0  0  0
  6  3  2  0  0  0  0
  6 10  1  0  0  0  0
  7  5  1  0  0  0  0
  8 18  1  0  0  0  0
  9  1  2  0  0  0  0
 10 24  2  0  0  0  0
 11 16  1  0  0  0  0
 12 19  1  0  0  0  0
 13 23  1  6  0  0  0
 13 20  1  0  0  0  0
 13 25  1  0  0  0  0
 14  4  1  1  0  0  0
 14 21  1  0  0  0  0
 15 14  1  0  0  0  0
 15 12  1  1  0  0  0
 15  4  1  0  0  0  0
 17 23  1  0  0  0  0
 17  8  2  0  0  0  0
 18 25  1  0  0  0  0
 18 11  2  0  0  0  0
 19  3  1  0  0  0  0
 20 22  1  0  0  0  0
 21  6  1  0  0  0  0
 22  2  1  0  0  0  0
 22 27  1  6  0  0  0
 24  8  1  0  0  0  0
 24  9  1  0  0  0  0
 28 27  1  0  0  0  0
M  END
>  <MODEL>
2

>  <REMARK>
 VINA RESULT:      -3.0      3.292      4.783
  Name = 
  1 active torsions:
  status: ('A' for Active; 'I' for Inactive)
    1  A    between atoms: C_15  and  C_24
                            x       y       z     vdW  Elec       q    Type
                         _______ _______ _______ _____ _____    ______ ____

>  <TORSDO>
F 1

$$$$
