=
 OpenBabel11072411583D

 60 64  0  0  1  0  0  0  0  0999 V2000
  161.9540  207.8420  151.6130 C   0  0  0  0  0  2  0  0  0  0  0  0
  162.8140  210.2090  151.7340 C   0  0  0  0  0  1  0  0  0  0  0  0
  162.2440  209.0390  152.5310 C   0  0  1  0  0  3  0  0  0  0  0  0
  161.0960  209.4290  153.5060 C   0  0  0  0  0  0  0  0  0  0  0  0
  161.1020  208.4980  154.7130 C   0  0  0  0  0  1  0  0  0  0  0  0
  159.7380  209.2290  152.8350 C   0  0  0  0  0  1  0  0  0  0  0  0
  159.3280  213.5510  151.9580 C   0  0  2  0  0  3  0  0  0  0  0  0
  158.4190  212.4960  155.5910 C   0  0  1  0  0  3  0  0  0  0  0  0
  158.7440  211.6140  154.3630 C   0  0  2  0  0  3  0  0  0  0  0  0
  161.7480  211.0480  155.4530 C   0  0  0  0  0  0  0  0  0  0  0  0
  160.8690  211.1710  156.4120 C   0  0  0  0  0  0  0  0  0  0  0  0
  159.8890  211.3130  157.2570 C   0  0  0  0  0  3  0  0  0  0  0  0
  160.0950  212.2640  152.2040 C   0  0  0  0  0  2  0  0  0  0  0  0
  157.0930  212.8370  152.8700 C   0  0  0  0  0  2  0  0  0  0  0  0
  160.1160  211.9050  153.6890 C   0  0  2  0  0  3  0  0  0  0  0  0
  161.2330  210.8890  154.0390 C   0  0  2  0  0  3  0  0  0  0  0  0
  158.6560  211.8380  156.8460 O   0  0  0  0  0  0  0  0  0  0  0  0
  157.5450  211.4880  153.4190 C   0  0  0  0  0  2  0  0  0  0  0  0
  157.8790  213.2280  151.6280 C   0  0  0  0  0  2  0  0  0  0  0  0
  163.6750  211.4360  157.0220 C   0  0  0  0  0  3  0  0  0  0  0  0
  164.1130  211.1990  154.6540 C   0  0  0  0  0  3  0  0  0  0  0  0
  165.9440  211.5770  156.1930 C   0  0  0  0  0  0  0  0  0  0  0  0
  167.3970  211.7700  156.4420 C   0  0  0  0  0  1  0  0  0  0  0  0
  163.1960  211.2280  155.7160 C   0  0  0  0  0  0  0  0  0  0  0  0
  165.0420  211.6100  157.2580 C   0  0  0  0  0  3  0  0  0  0  0  0
  165.4800  211.3700  154.8900 C   0  0  0  0  0  3  0  0  0  0  0  0
  160.1250  214.0050  156.6180 C   0  0  0  0  0  1  0  0  0  0  0  0
  159.0560  213.8840  155.5500 C   0  0  0  0  0  2  0  0  0  0  0  0
  160.3000  213.6620  149.8140 O   0  0  0  0  0  0  0  0  0  0  0  0
  159.9490  214.2720  150.8100 C   0  0  0  0  0  3  0  0  0  0  0  0
  163.1610  207.4360  150.7740 C   0  0  0  0  0  2  0  0  0  0  0  0
  161.8050  206.0430  146.5840 C   0  0  0  0  0  0  0  0  0  0  0  0
  162.7120  206.7250  149.5100 C   0  0  1  0  0  3  0  0  0  0  0  0
  160.7150  205.4300  147.4260 C   0  0  2  0  0  3  0  0  0  0  0  0
  159.6470  206.3130  147.6050 O   0  0  0  0  0  1  0  0  0  0  0  0
  161.4490  205.9270  149.8060 C   0  0  0  0  0  2  0  0  0  0  0  0
  162.5320  207.7160  148.3520 C   0  0  1  0  0  3  0  0  0  0  0  0
  162.5890  207.0430  147.0080 C   0  0  0  0  0  3  0  0  0  0  0  0
  161.2160  204.8490  148.7500 C   0  0  1  0  0  3  0  0  0  0  0  0
  162.0260  205.5620  145.2160 C   0  0  0  0  0  3  0  0  0  0  0  0
  161.7180  206.2830  144.1450 C   0  0  0  0  0  3  0  0  0  0  0  0
  161.9940  205.7390  142.7850 C   0  0  0  0  0  2  0  0  0  0  0  0
  161.2790  206.5080  141.7750 N   0  0  0  0  0  2  0  0  0  0  0  0
  163.4520  206.0170  140.8180 C   0  0  0  0  0  1  0  0  0  0  0  0
  162.0270  206.4400  140.5250 C   0  0  2  0  0  3  0  0  0  0  0  0
  161.5510  208.8160  140.6200 O   0  0  0  0  0  1  0  0  0  0  0  0
  162.0340  207.7860  139.8030 C   0  0  2  0  0  3  0  0  0  0  0  0
  162.1710  207.4260  137.4470 O   0  0  0  0  0  1  0  0  0  0  0  0
  161.2790  207.7300  138.4780 C   0  0  2  0  0  3  0  0  0  0  0  0
  161.4890  209.5940  137.3040 C   0  0  0  0  0  1  0  0  0  0  0  0
  160.6450  208.9440  138.2090 O   0  0  0  0  0  0  0  0  0  0  0  0
  160.2870  203.9220  149.2320 O   0  0  0  0  0  0  0  0  0  0  0  0
  160.9820  203.1750  150.1870 C   0  0  0  0  0  2  0  0  0  0  0  0
  160.9420  201.7260  149.8240 C   0  0  0  0  0  0  0  0  0  0  0  0
  161.3950  201.2940  148.5810 O   0  0  0  0  0  0  0  0  0  0  0  0
  160.5190  200.8900  150.6630 O   0  0  0  0  0  1  0  0  0  0  0  0
  161.3210  208.6360  148.5130 C   0  0  0  0  0  2  0  0  0  0  0  0
  162.4940  211.1160  148.7000 O   0  0  0  0  0  0  0  0  0  0  0  0
  161.5090  211.2510  147.7770 N   0  0  0  0  0  0  0  0  0  0  0  0
  161.7060  210.0660  148.3510 C   0  0  0  0  0  0  0  0  0  0  0  0
  1  3  1  0  0  0  0
  3  2  1  6  0  0  0
  3  4  1  0  0  0  0
  4  5  1  0  0  0  0
  6  4  1  0  0  0  0
  7 30  1  6  0  0  0
  7 13  1  0  0  0  0
  8 28  1  1  0  0  0
  8 17  1  0  0  0  0
  9 18  1  6  0  0  0
  9  8  1  0  0  0  0
 10 24  1  0  0  0  0
 10 11  2  0  0  0  0
 11 12  2  0  0  0  0
 14 18  1  0  0  0  0
 15 13  1  6  0  0  0
 15 16  1  0  0  0  0
 15  9  1  0  0  0  0
 16  4  1  1  0  0  0
 16 10  1  0  0  0  0
 17 12  1  0  0  0  0
 19  7  1  0  0  0  0
 19 14  1  0  0  0  0
 20 25  1  0  0  0  0
 21 26  2  0  0  0  0
 21 24  1  0  0  0  0
 22 23  1  0  0  0  0
 22 25  2  0  0  0  0
 24 20  2  0  0  0  0
 26 22  1  0  0  0  0
 28 27  1  0  0  0  0
 29 30  2  0  0  0  0
 31  1  1  0  0  0  0
 32 38  2  0  0  0  0
 32 34  1  0  0  0  0
 33 36  1  0  0  0  0
 33 31  1  1  0  0  0
 34 35  1  1  0  0  0
 34 39  1  0  0  0  0
 37 57  1  1  0  0  0
 37 33  1  0  0  0  0
 38 37  1  0  0  0  0
 39 52  1  1  0  0  0
 39 36  1  0  0  0  0
 40 32  1  0  0  0  0
 41 40  2  0  0  0  0
 42 41  1  0  0  0  0
 43 42  1  0  0  0  0
 45 44  1  1  0  0  0
 45 43  1  0  0  0  0
 47 45  1  0  0  0  0
 47 46  1  1  0  0  0
 49 48  1  6  0  0  0
 49 47  1  0  0  0  0
 50 51  1  0  0  0  0
 51 49  1  0  0  0  0
 52 53  1  0  0  0  0
 54 53  1  0  0  0  0
 54 56  1  0  0  0  0
 55 54  2  0  0  0  0
 59 60  2  0  0  0  0
 59 58  1  0  0  0  0
 60 57  1  0  0  0  0
 60 58  1  0  0  0  0
M  END
>  <MODEL>
1

>  <REMARK>
 VINA RESULT:       0.5      0.000      0.000
  Name = 
  20 active torsions:
  status: ('A' for Active; 'I' for Inactive)
    1  A    between atoms: C_2  and  C_54
    2  A    between atoms: C_3  and  C_11
    3  A    between atoms: C_4  and  C_17
    4  A    between atoms: C_7  and  C_32
    5  A    between atoms: N_12  and  C_39
    6  A    between atoms: N_12  and  C_56
    7  A    between atoms: C_14  and  C_43
    8  A    between atoms: C_16  and  C_19
    9  A    between atoms: C_16  and  C_44
   10  A    between atoms: C_19  and  C_20
   11  A    between atoms: C_20  and  C_43
   12  A    between atoms: O_22  and  C_40
   13  A    between atoms: O_22  and  C_59
   14  A    between atoms: C_34  and  C_51
   15  A    between atoms: C_34  and  C_53
   16  A    between atoms: O_36  and  C_45
   17  A    between atoms: C_39  and  C_47
   18  A    between atoms: C_40  and  C_42
   19  A    between atoms: C_45  and  C_46
   20  A    between atoms: C_46  and  C_56
                            x       y       z     vdW  Elec       q    Type
                         _______ _______ _______ _____ _____    ______ ____

>  <TORSDO>
F 20

$$$$
