=
 OpenBabel11072412543D

 41 44  0  0  1  0  0  0  0  0999 V2000
  161.9200  207.1300  149.2840 N   0  0  0  0  0  0  0  0  0  0  0  0
  162.0030  209.4990  148.6150 C   0  0  2  0  0  3  0  0  0  0  0  0
  160.7490  209.7220  148.0460 O   0  0  0  0  0  1  0  0  0  0  0  0
  161.7450  209.9720  151.5230 C   0  0  0  0  0  0  0  0  0  0  0  0
  161.7100  208.7160  151.0500 C   0  0  0  0  0  3  0  0  0  0  0  0
  161.9430  211.1560  150.6090 C   0  0  0  0  0  2  0  0  0  0  0  0
  161.9050  208.3890  149.6270 C   0  0  0  0  0  0  0  0  0  0  0  0
  163.2610  211.4910  148.6800 O   0  0  0  0  0  0  0  0  0  0  0  0
  162.4830  210.7590  149.2670 C   0  0  0  0  0  0  0  0  0  0  0  0
  159.0700  211.7840  155.4980 C   0  0  0  0  0  2  0  0  0  0  0  0
  160.3510  210.6340  153.5260 C   0  0  0  0  0  0  0  0  0  0  0  0
  161.5570  211.1950  155.7650 C   0  0  0  0  0  2  0  0  0  0  0  0
  157.9520  211.1680  153.3520 C   0  0  0  0  0  2  0  0  0  0  0  0
  161.5110  210.2730  152.9510 C   0  0  0  0  0  3  0  0  0  0  0  0
  160.2670  210.9640  155.0050 C   0  0  1  0  0  0  0  0  0  0  0  0
  160.7400  209.9350  156.0300 C   0  0  1  0  0  3  0  0  0  0  0  0
  159.1910  210.7750  152.7610 O   0  0  0  0  0  0  0  0  0  0  0  0
  158.1480  212.3100  154.3620 C   0  0  2  0  0  0  0  0  0  0  0  0
  158.7480  213.5080  153.6330 C   0  0  0  0  0  0  0  0  0  0  0  0
  159.4230  214.3360  154.2280 O   0  0  0  0  0  0  0  0  0  0  0  0
  158.5060  213.6820  152.1670 C   0  0  0  0  0  2  0  0  0  0  0  0
  159.7230  213.7790  151.4920 O   0  0  0  0  0  1  0  0  0  0  0  0
  156.8640  212.6280  154.8760 O   0  0  0  0  0  0  0  0  0  0  0  0
  156.0330  211.4900  154.8660 C   0  0  0  0  0  2  0  0  0  0  0  0
  155.5580  211.1990  156.2740 C   0  0  0  0  0  1  0  0  0  0  0  0
  161.3710  208.8380  155.4310 O   0  0  0  0  0  0  0  0  0  0  0  0
  159.9140  207.3900  156.0830 C   0  0  0  0  0  1  0  0  0  0  0  0
  161.2190  207.8500  156.2890 O   0  0  0  0  0  0  0  0  0  0  0  0
  162.1190  206.5800  147.9730 C   0  0  0  0  0  0  0  0  0  0  0  0
  162.2900  207.3250  146.9680 O   0  0  0  0  0  0  0  0  0  0  0  0
  162.2260  205.0890  147.8290 C   0  0  1  0  0  3  0  0  0  0  0  0
  161.2870  203.0140  148.3700 N   0  0  0  0  0  2  0  0  0  0  0  0
  161.0290  204.4000  148.3460 N   0  0  0  0  0  0  0  0  0  0  0  0
  160.4270  203.5850  150.5150 C   0  0  1  0  0  3  0  0  0  0  0  0
  160.8280  204.8070  149.7360 C   0  0  0  0  0  2  0  0  0  0  0  0
  160.5670  202.4720  149.5120 C   0  0  0  0  0  2  0  0  0  0  0  0
  161.4080  203.3780  151.6580 C   0  0  0  0  0  2  0  0  0  0  0  0
  161.1220  204.2680  152.6930 O   0  0  0  0  0  1  0  0  0  0  0  0
  162.5000  204.7610  146.3890 C   0  0  0  0  0  0  0  0  0  0  0  0
  161.4350  204.6010  145.5160 O   0  0  0  0  0  0  0  0  0  0  0  0
  163.6770  204.5820  145.9820 O   0  0  0  0  0  1  0  0  0  0  0  0
  1  7  2  0  0  0  0
  2  3  1  1  0  0  0
  2  9  1  0  0  0  0
  2  7  1  0  0  0  0
  4 14  1  0  0  0  0
  5  4  2  0  0  0  0
  6  4  1  0  0  0  0
  7  5  1  0  0  0  0
  8  9  2  0  0  0  0
  9  6  1  0  0  0  0
 11 15  1  0  0  0  0
 12 16  1  0  0  0  0
 13 18  1  0  0  0  0
 14 11  2  0  0  0  0
 15 10  1  1  0  0  0
 15 12  1  0  0  0  0
 15 16  1  0  0  0  0
 16 26  1  6  0  0  0
 17 13  1  0  0  0  0
 17 11  1  0  0  0  0
 18 19  1  6  0  0  0
 18 23  1  0  0  0  0
 18 10  1  0  0  0  0
 19 20  2  0  0  0  0
 21 19  1  0  0  0  0
 22 21  1  0  0  0  0
 24 23  1  0  0  0  0
 24 25  1  0  0  0  0
 26 28  1  0  0  0  0
 27 28  1  0  0  0  0
 29  1  1  0  0  0  0
 30 29  2  0  0  0  0
 31 39  1  6  0  0  0
 31 29  1  0  0  0  0
 31 33  1  0  0  0  0
 32 36  1  0  0  0  0
 33 32  1  0  0  0  0
 33 35  1  0  0  0  0
 34 37  1  1  0  0  0
 35 34  1  0  0  0  0
 36 34  1  0  0  0  0
 37 38  1  0  0  0  0
 40 39  2  0  0  0  0
 41 39  1  0  0  0  0
M  END
>  <MODEL>
1

>  <REMARK>
 VINA RESULT:      -5.2      0.000      0.000
  Name = 
  12 active torsions:
  status: ('A' for Active; 'I' for Inactive)
    1  A    between atoms: C_2  and  C_9
    2  A    between atoms: C_2  and  C_13
    3  A    between atoms: C_2  and  N_27
    4  A    between atoms: C_7  and  C_31
    5  A    between atoms: O_8  and  C_34
    6  A    between atoms: O_8  and  C_39
    7  A    between atoms: O_10  and  O_18
    8  A    between atoms: O_10  and  C_30
    9  A    between atoms: N_11  and  C_13
   10  A    between atoms: C_15  and  C_16
   11  A    between atoms: C_16  and  C_39
   12  A    between atoms: C_17  and  C_21
                            x       y       z     vdW  Elec       q    Type
                         _______ _______ _______ _____ _____    ______ ____

>  <TORSDO>
F 12

$$$$
=
 OpenBabel11072412543D

 41 44  0  0  1  0  0  0  0  0999 V2000
  160.9550  206.9800  148.7340 N   0  0  0  0  0  0  0  0  0  0  0  0
  161.0960  205.1710  150.4000 C   0  0  2  0  0  3  0  0  0  0  0  0
  162.3750  204.6480  150.2050 O   0  0  0  0  0  1  0  0  0  0  0  0
  161.3480  207.4170  152.3090 C   0  0  0  0  0  0  0  0  0  0  0  0
  161.2780  207.6700  150.9920 C   0  0  0  0  0  3  0  0  0  0  0  0
  161.2730  206.0090  152.8480 C   0  0  0  0  0  2  0  0  0  0  0  0
  161.0780  206.6170  149.9810 C   0  0  0  0  0  0  0  0  0  0  0  0
  160.0220  204.1120  152.2110 O   0  0  0  0  0  0  0  0  0  0  0  0
  160.7220  205.0400  151.8440 C   0  0  0  0  0  0  0  0  0  0  0  0
  160.4000  211.9020  154.5940 C   0  0  0  0  0  2  0  0  0  0  0  0
  160.7600  209.5030  153.6100 C   0  0  0  0  0  0  0  0  0  0  0  0
  162.6120  210.6660  155.0220 C   0  0  0  0  0  2  0  0  0  0  0  0
  158.6370  210.7130  153.2830 C   0  0  0  0  0  2  0  0  0  0  0  0
  161.5850  208.4900  153.2970 C   0  0  0  0  0  3  0  0  0  0  0  0
  161.1560  210.5690  154.6140 C   0  0  1  0  0  0  0  0  0  0  0  0
  161.5800  210.1530  156.0210 C   0  0  1  0  0  3  0  0  0  0  0  0
  159.5240  209.6380  152.9710 O   0  0  0  0  0  0  0  0  0  0  0  0
  159.3940  212.0440  153.4160 C   0  0  2  0  0  0  0  0  0  0  0  0
  160.0880  212.3460  152.0910 C   0  0  0  0  0  0  0  0  0  0  0  0
  160.9280  211.5860  151.6310 O   0  0  0  0  0  0  0  0  0  0  0  0
  159.7430  213.5930  151.3410 C   0  0  0  0  0  2  0  0  0  0  0  0
  160.3890  213.5980  150.1040 O   0  0  0  0  0  1  0  0  0  0  0  0
  158.4260  213.0380  153.7120 O   0  0  0  0  0  0  0  0  0  0  0  0
  158.2080  213.1160  155.1020 C   0  0  0  0  0  2  0  0  0  0  0  0
  156.7270  213.0010  155.3890 C   0  0  0  0  0  1  0  0  0  0  0  0
  161.7090  208.7650  156.1490 O   0  0  0  0  0  0  0  0  0  0  0  0
  160.1820  207.3370  156.6760 C   0  0  0  0  0  1  0  0  0  0  0  0
  160.9050  208.4400  157.1420 O   0  0  0  0  0  0  0  0  0  0  0  0
  160.7290  206.1380  147.5940 C   0  0  0  0  0  0  0  0  0  0  0  0
  159.9300  206.4770  146.6770 O   0  0  0  0  0  0  0  0  0  0  0  0
  161.5430  204.8830  147.4550 C   0  0  1  0  0  3  0  0  0  0  0  0
  161.4770  202.9380  146.1550 N   0  0  0  0  0  2  0  0  0  0  0  0
  160.7170  203.7370  147.0340 N   0  0  0  0  0  0  0  0  0  0  0  0
  160.5660  201.4720  147.7940 C   0  0  1  0  0  3  0  0  0  0  0  0
  160.4430  202.9110  148.2100 C   0  0  0  0  0  2  0  0  0  0  0  0
  161.0670  201.5600  146.3780 C   0  0  0  0  0  2  0  0  0  0  0  0
  161.6050  200.7860  148.6680 C   0  0  0  0  0  2  0  0  0  0  0  0
  161.2470  200.9070  150.0100 O   0  0  0  0  0  1  0  0  0  0  0  0
  162.6800  205.1480  146.5110 C   0  0  0  0  0  0  0  0  0  0  0  0
  162.4570  205.9160  145.3790 O   0  0  0  0  0  0  0  0  0  0  0  0
  163.8140  204.6400  146.7090 O   0  0  0  0  0  1  0  0  0  0  0  0
  1  7  2  0  0  0  0
  2  3  1  1  0  0  0
  2  9  1  0  0  0  0
  4  6  1  0  0  0  0
  4 14  1  0  0  0  0
  5  4  2  0  0  0  0
  7  2  1  0  0  0  0
  7  5  1  0  0  0  0
  9  8  2  0  0  0  0
  9  6  1  0  0  0  0
 11 15  1  0  0  0  0
 12 16  1  0  0  0  0
 13 18  1  0  0  0  0
 14 11  2  0  0  0  0
 15 10  1  6  0  0  0
 15 12  1  0  0  0  0
 15 16  1  0  0  0  0
 16 26  1  6  0  0  0
 17 13  1  0  0  0  0
 17 11  1  0  0  0  0
 18 19  1  6  0  0  0
 18 23  1  0  0  0  0
 18 10  1  0  0  0  0
 20 19  2  0  0  0  0
 21 19  1  0  0  0  0
 22 21  1  0  0  0  0
 23 24  1  0  0  0  0
 24 25  1  0  0  0  0
 26 28  1  0  0  0  0
 27 28  1  0  0  0  0
 29  1  1  0  0  0  0
 30 29  2  0  0  0  0
 31 39  1  6  0  0  0
 31 29  1  0  0  0  0
 32 36  1  0  0  0  0
 32 33  1  0  0  0  0
 33 31  1  0  0  0  0
 33 35  1  0  0  0  0
 34 35  1  0  0  0  0
 34 37  1  1  0  0  0
 36 34  1  0  0  0  0
 37 38  1  0  0  0  0
 39 41  1  0  0  0  0
 40 39  2  0  0  0  0
M  END
>  <MODEL>
2

>  <REMARK>
 VINA RESULT:      -5.1      1.789      2.988
  Name = 
  12 active torsions:
  status: ('A' for Active; 'I' for Inactive)
    1  A    between atoms: C_2  and  C_9
    2  A    between atoms: C_2  and  C_13
    3  A    between atoms: C_2  and  N_27
    4  A    between atoms: C_7  and  C_31
    5  A    between atoms: O_8  and  C_34
    6  A    between atoms: O_8  and  C_39
    7  A    between atoms: O_10  and  O_18
    8  A    between atoms: O_10  and  C_30
    9  A    between atoms: N_11  and  C_13
   10  A    between atoms: C_15  and  C_16
   11  A    between atoms: C_16  and  C_39
   12  A    between atoms: C_17  and  C_21
                            x       y       z     vdW  Elec       q    Type
                         _______ _______ _______ _____ _____    ______ ____

>  <TORSDO>
F 12

$$$$
=
 OpenBabel11072412543D

 41 44  0  0  1  0  0  0  0  0999 V2000
  161.1820  207.7080  152.2280 N   0  0  0  0  0  0  0  0  0  0  0  0
  160.8820  207.2400  154.6280 C   0  0  2  0  0  3  0  0  0  0  0  0
  162.1800  207.2910  155.1350 O   0  0  0  0  0  1  0  0  0  0  0  0
  159.8090  209.9960  154.6780 C   0  0  0  0  0  0  0  0  0  0  0  0
  160.3020  209.4970  153.5330 C   0  0  0  0  0  3  0  0  0  0  0  0
  159.7600  209.1740  155.9430 C   0  0  0  0  0  2  0  0  0  0  0  0
  160.7870  208.1120  153.4040 C   0  0  0  0  0  0  0  0  0  0  0  0
  159.3180  206.8920  156.3570 O   0  0  0  0  0  0  0  0  0  0  0  0
  159.9210  207.7060  155.6770 C   0  0  0  0  0  0  0  0  0  0  0  0
  158.0440  214.4500  152.8670 C   0  0  0  0  0  2  0  0  0  0  0  0
  158.7140  212.1210  153.8570 C   0  0  0  0  0  0  0  0  0  0  0  0
  159.0230  214.3080  155.2380 C   0  0  0  0  0  2  0  0  0  0  0  0
  157.7150  212.3150  151.6130 C   0  0  0  0  0  2  0  0  0  0  0  0
  159.3630  211.4010  154.7870 C   0  0  0  0  0  3  0  0  0  0  0  0
  158.3600  213.5790  154.0870 C   0  0  1  0  0  0  0  0  0  0  0  0
  157.5390  213.9660  155.3160 C   0  0  1  0  0  3  0  0  0  0  0  0
  158.3950  211.5620  152.6170 O   0  0  0  0  0  0  0  0  0  0  0  0
  158.2780  213.7410  151.5030 C   0  0  2  0  0  0  0  0  0  0  0  0
  159.7560  213.6550  151.1370 C   0  0  0  0  0  0  0  0  0  0  0  0
  160.5950  214.3090  151.7390 O   0  0  0  0  0  0  0  0  0  0  0  0
  160.1930  212.7610  150.0190 C   0  0  0  0  0  2  0  0  0  0  0  0
  160.6720  213.5290  148.9560 O   0  0  0  0  0  1  0  0  0  0  0  0
  157.5450  214.3930  150.4760 O   0  0  0  0  0  0  0  0  0  0  0  0
  156.7650  213.4620  149.7610 C   0  0  0  0  0  2  0  0  0  0  0  0
  155.3930  214.0460  149.5030 C   0  0  0  0  0  1  0  0  0  0  0  0
  157.3560  212.8910  156.1930 O   0  0  0  0  0  0  0  0  0  0  0  0
  155.7920  214.2610  156.7630 C   0  0  0  0  0  1  0  0  0  0  0  0
  156.7900  213.4170  157.2610 O   0  0  0  0  0  0  0  0  0  0  0  0
  161.6640  206.4060  151.8640 C   0  0  0  0  0  0  0  0  0  0  0  0
  162.5960  205.8480  152.5060 O   0  0  0  0  0  0  0  0  0  0  0  0
  160.9650  205.6650  150.7590 C   0  0  1  0  0  3  0  0  0  0  0  0
  160.5470  206.3640  148.5650 N   0  0  0  0  0  2  0  0  0  0  0  0
  161.5680  205.9460  149.4430 N   0  0  0  0  0  0  0  0  0  0  0  0
  162.2990  207.9650  148.3830 C   0  0  1  0  0  3  0  0  0  0  0  0
  162.4780  207.0820  149.5870 C   0  0  0  0  0  2  0  0  0  0  0  0
  161.1420  207.3330  147.6580 C   0  0  0  0  0  2  0  0  0  0  0  0
  161.9190  209.3640  148.8430 C   0  0  0  0  0  2  0  0  0  0  0  0
  162.0930  209.4710  150.2230 O   0  0  0  0  0  1  0  0  0  0  0  0
  160.9620  204.2000  151.0880 C   0  0  0  0  0  0  0  0  0  0  0  0
  160.7520  203.7990  152.3980 O   0  0  0  0  0  1  0  0  0  0  0  0
  161.1970  203.3400  150.1990 O   0  0  0  0  0  0  0  0  0  0  0  0
  1  7  2  0  0  0  0
  2  3  1  1  0  0  0
  2  9  1  0  0  0  0
  4 14  1  0  0  0  0
  4  6  1  0  0  0  0
  5  4  2  0  0  0  0
  7  5  1  0  0  0  0
  7  2  1  0  0  0  0
  9  6  1  0  0  0  0
  9  8  2  0  0  0  0
 11 15  1  0  0  0  0
 11 14  2  0  0  0  0
 12 16  1  0  0  0  0
 13 17  1  0  0  0  0
 15 10  1  6  0  0  0
 15 12  1  0  0  0  0
 15 16  1  0  0  0  0
 16 26  1  1  0  0  0
 17 11  1  0  0  0  0
 18 23  1  6  0  0  0
 18 13  1  0  0  0  0
 18 10  1  0  0  0  0
 19 18  1  0  0  0  0
 19 20  2  0  0  0  0
 21 19  1  0  0  0  0
 22 21  1  0  0  0  0
 24 23  1  0  0  0  0
 25 24  1  0  0  0  0
 26 28  1  0  0  0  0
 27 28  1  0  0  0  0
 29  1  1  0  0  0  0
 29 30  2  0  0  0  0
 31 39  1  1  0  0  0
 31 29  1  0  0  0  0
 32 33  1  0  0  0  0
 33 35  1  0  0  0  0
 33 31  1  0  0  0  0
 34 37  1  1  0  0  0
 34 35  1  0  0  0  0
 36 34  1  0  0  0  0
 36 32  1  0  0  0  0
 37 38  1  0  0  0  0
 39 40  1  0  0  0  0
 41 39  2  0  0  0  0
M  END
>  <MODEL>
3

>  <REMARK>
 VINA RESULT:      -4.9      2.186      5.034
  Name = 
  12 active torsions:
  status: ('A' for Active; 'I' for Inactive)
    1  A    between atoms: C_2  and  C_9
    2  A    between atoms: C_2  and  C_13
    3  A    between atoms: C_2  and  N_27
    4  A    between atoms: C_7  and  C_31
    5  A    between atoms: O_8  and  C_34
    6  A    between atoms: O_8  and  C_39
    7  A    between atoms: O_10  and  O_18
    8  A    between atoms: O_10  and  C_30
    9  A    between atoms: N_11  and  C_13
   10  A    between atoms: C_15  and  C_16
   11  A    between atoms: C_16  and  C_39
   12  A    between atoms: C_17  and  C_21
                            x       y       z     vdW  Elec       q    Type
                         _______ _______ _______ _____ _____    ______ ____

>  <TORSDO>
F 12

$$$$
=
 OpenBabel11072412543D

 41 44  0  0  1  0  0  0  0  0999 V2000
  160.6060  209.1130  152.9970 N   0  0  0  0  0  0  0  0  0  0  0  0
  161.7800  210.5920  151.4160 C   0  0  2  0  0  3  0  0  0  0  0  0
  163.0540  210.7190  151.9720 O   0  0  0  0  0  1  0  0  0  0  0  0
  161.8030  208.1780  149.7080 C   0  0  0  0  0  0  0  0  0  0  0  0
  161.2950  208.1080  150.9490 C   0  0  0  0  0  3  0  0  0  0  0  0
  162.3410  209.4710  149.1460 C   0  0  0  0  0  2  0  0  0  0  0  0
  161.1780  209.2780  151.8360 C   0  0  0  0  0  0  0  0  0  0  0  0
  161.6510  211.7190  149.3500 O   0  0  0  0  0  0  0  0  0  0  0  0
  161.8810  210.6680  149.9240 C   0  0  0  0  0  0  0  0  0  0  0  0
  161.1540  203.2390  148.5160 C   0  0  0  0  0  2  0  0  0  0  0  0
  161.2900  205.8110  148.9830 C   0  0  0  0  0  0  0  0  0  0  0  0
  162.8110  204.6890  147.1920 C   0  0  0  0  0  2  0  0  0  0  0  0
  159.6790  204.3800  150.1780 C   0  0  0  0  0  2  0  0  0  0  0  0
  161.9400  206.9800  148.8530 C   0  0  0  0  0  3  0  0  0  0  0  0
  161.5690  204.6410  148.0570 C   0  0  1  0  0  0  0  0  0  0  0  0
  161.4360  204.8310  146.5480 C   0  0  1  0  0  3  0  0  0  0  0  0
  160.3720  205.6180  150.0190 O   0  0  0  0  0  0  0  0  0  0  0  0
  160.6180  203.1800  149.9750 C   0  0  2  0  0  0  0  0  0  0  0  0
  161.7370  203.2550  151.0090 C   0  0  0  0  0  0  0  0  0  0  0  0
  162.4350  202.2830  151.2550 O   0  0  0  0  0  0  0  0  0  0  0  0
  161.9830  204.5360  151.7430 C   0  0  0  0  0  2  0  0  0  0  0  0
  161.2770  204.5370  152.9470 O   0  0  0  0  0  1  0  0  0  0  0  0
  159.8370  202.0100  150.1660 O   0  0  0  0  0  0  0  0  0  0  0  0
  159.7390  201.2810  148.9650 C   0  0  0  0  0  2  0  0  0  0  0  0
  161.0430  200.5570  148.7060 C   0  0  0  0  0  1  0  0  0  0  0  0
  161.2240  206.1700  146.1970 O   0  0  0  0  0  0  0  0  0  0  0  0
  161.1640  205.4780  144.1560 C   0  0  0  0  0  1  0  0  0  0  0  0
  160.4230  206.1240  145.1510 O   0  0  0  0  0  0  0  0  0  0  0  0
  160.3620  210.1060  154.0040 C   0  0  0  0  0  0  0  0  0  0  0  0
  161.2720  210.4750  154.7950 O   0  0  0  0  0  0  0  0  0  0  0  0
  159.0200  210.7810  154.0350 C   0  0  1  0  0  3  0  0  0  0  0  0
  158.9910  212.4170  155.7080 N   0  0  0  0  0  2  0  0  0  0  0  0
  158.5960  211.0970  155.4110 N   0  0  0  0  0  0  0  0  0  0  0  0
  156.6950  212.2420  156.3080 C   0  0  1  0  0  3  0  0  0  0  0  0
  157.1340  211.0830  155.4580 C   0  0  0  0  0  2  0  0  0  0  0  0
  157.9800  212.9710  156.5950 C   0  0  0  0  0  2  0  0  0  0  0  0
  155.7650  213.1320  155.4980 C   0  0  0  0  0  2  0  0  0  0  0  0
  155.5760  212.5860  154.2290 O   0  0  0  0  0  1  0  0  0  0  0  0
  159.0710  211.9980  153.1570 C   0  0  0  0  0  0  0  0  0  0  0  0
  158.0810  212.1910  152.2060 O   0  0  0  0  0  0  0  0  0  0  0  0
  160.0270  212.8120  153.2410 O   0  0  0  0  0  1  0  0  0  0  0  0
  1 29  1  0  0  0  0
  2  7  1  0  0  0  0
  2  3  1  1  0  0  0
  4  5  2  0  0  0  0
  5  7  1  0  0  0  0
  6  4  1  0  0  0  0
  6  9  1  0  0  0  0
  7  1  2  0  0  0  0
  8  9  2  0  0  0  0
  9  2  1  0  0  0  0
 10 18  1  0  0  0  0
 11 17  1  0  0  0  0
 14 11  2  0  0  0  0
 14  4  1  0  0  0  0
 15 12  1  1  0  0  0
 15 10  1  0  0  0  0
 15 11  1  0  0  0  0
 16 26  1  1  0  0  0
 16 12  1  0  0  0  0
 16 15  1  0  0  0  0
 17 13  1  0  0  0  0
 18 23  1  1  0  0  0
 18 13  1  0  0  0  0
 18 19  1  0  0  0  0
 19 20  2  0  0  0  0
 19 21  1  0  0  0  0
 21 22  1  0  0  0  0
 24 23  1  0  0  0  0
 25 24  1  0  0  0  0
 27 28  1  0  0  0  0
 28 26  1  0  0  0  0
 29 31  1  0  0  0  0
 29 30  2  0  0  0  0
 31 39  1  6  0  0  0
 31 33  1  0  0  0  0
 32 36  1  0  0  0  0
 33 35  1  0  0  0  0
 33 32  1  0  0  0  0
 34 37  1  6  0  0  0
 34 36  1  0  0  0  0
 35 34  1  0  0  0  0
 38 37  1  0  0  0  0
 39 41  1  0  0  0  0
 40 39  2  0  0  0  0
M  END
>  <MODEL>
4

>  <REMARK>
 VINA RESULT:      -4.7      2.563      9.322
  Name = 
  12 active torsions:
  status: ('A' for Active; 'I' for Inactive)
    1  A    between atoms: C_2  and  C_9
    2  A    between atoms: C_2  and  C_13
    3  A    between atoms: C_2  and  N_27
    4  A    between atoms: C_7  and  C_31
    5  A    between atoms: O_8  and  C_34
    6  A    between atoms: O_8  and  C_39
    7  A    between atoms: O_10  and  O_18
    8  A    between atoms: O_10  and  C_30
    9  A    between atoms: N_11  and  C_13
   10  A    between atoms: C_15  and  C_16
   11  A    between atoms: C_16  and  C_39
   12  A    between atoms: C_17  and  C_21
                            x       y       z     vdW  Elec       q    Type
                         _______ _______ _______ _____ _____    ______ ____

>  <TORSDO>
F 12

$$$$
=
 OpenBabel11072412543D

 41 44  0  0  1  0  0  0  0  0999 V2000
  160.1120  210.2500  153.7940 N   0  0  0  0  0  0  0  0  0  0  0  0
  161.8010  210.6730  152.0520 C   0  0  2  0  0  3  0  0  0  0  0  0
  163.0070  210.6310  152.7510 O   0  0  0  0  0  1  0  0  0  0  0  0
  161.1580  207.9020  151.2410 C   0  0  0  0  0  0  0  0  0  0  0  0
  160.5740  208.4270  152.3300 C   0  0  0  0  0  3  0  0  0  0  0  0
  162.1190  208.7030  150.3960 C   0  0  0  0  0  2  0  0  0  0  0  0
  160.7820  209.8210  152.7600 C   0  0  0  0  0  0  0  0  0  0  0  0
  162.1770  210.9700  149.7440 O   0  0  0  0  0  0  0  0  0  0  0  0
  162.0190  210.1770  150.6560 C   0  0  0  0  0  0  0  0  0  0  0  0
  161.2840  203.9170  148.0260 C   0  0  0  0  0  2  0  0  0  0  0  0
  161.4340  205.8720  149.7600 C   0  0  0  0  0  0  0  0  0  0  0  0
  159.9790  203.7650  150.2340 C   0  0  0  0  0  2  0  0  0  0  0  0
  162.7090  205.9340  147.6520 C   0  0  0  0  0  2  0  0  0  0  0  0
  160.9590  206.4900  150.8540 C   0  0  0  0  0  3  0  0  0  0  0  0
  161.1050  204.4210  149.4620 C   0  0  1  0  0  0  0  0  0  0  0  0
  161.4220  203.3510  150.5050 C   0  0  1  0  0  3  0  0  0  0  0  0
  162.2040  206.5710  148.8260 O   0  0  0  0  0  0  0  0  0  0  0  0
  161.6490  205.0300  147.0030 C   0  0  2  0  0  0  0  0  0  0  0  0
  160.4460  205.8860  146.6190 C   0  0  0  0  0  0  0  0  0  0  0  0
  159.8840  206.5900  147.4450 O   0  0  0  0  0  0  0  0  0  0  0  0
  159.9380  205.8640  145.2120 C   0  0  0  0  0  2  0  0  0  0  0  0
  160.9290  206.3220  144.3420 O   0  0  0  0  0  1  0  0  0  0  0  0
  162.2470  204.4610  145.8480 O   0  0  0  0  0  0  0  0  0  0  0  0
  162.1170  203.0580  145.8660 C   0  0  0  0  0  2  0  0  0  0  0  0
  160.8150  202.6620  145.2040 C   0  0  0  0  0  1  0  0  0  0  0  0
  161.8410  203.9030  151.7220 O   0  0  0  0  0  0  0  0  0  0  0  0
  160.9570  204.7510  153.4950 C   0  0  0  0  0  1  0  0  0  0  0  0
  160.8190  203.7410  152.5380 O   0  0  0  0  0  0  0  0  0  0  0  0
  160.1340  211.5640  154.3690 C   0  0  0  0  0  0  0  0  0  0  0  0
  159.6850  212.5630  153.7420 O   0  0  0  0  0  0  0  0  0  0  0  0
  160.6090  211.7190  155.7870 C   0  0  1  0  0  3  0  0  0  0  0  0
  159.1300  213.2950  156.6830 N   0  0  0  0  0  2  0  0  0  0  0  0
  159.4890  211.9330  156.7210 N   0  0  0  0  0  0  0  0  0  0  0  0
  157.1170  212.0540  156.4200 C   0  0  1  0  0  3  0  0  0  0  0  0
  158.3300  211.1870  156.2290 C   0  0  0  0  0  2  0  0  0  0  0  0
  157.6930  213.3590  156.8980 C   0  0  0  0  0  2  0  0  0  0  0  0
  156.4290  212.2520  155.0780 C   0  0  0  0  0  2  0  0  0  0  0  0
  155.9520  211.0300  154.6060 O   0  0  0  0  0  1  0  0  0  0  0  0
  161.4390  210.5220  156.1510 C   0  0  0  0  0  0  0  0  0  0  0  0
  160.8730  209.5080  156.9080 O   0  0  0  0  0  1  0  0  0  0  0  0
  162.6520  210.4550  155.8210 O   0  0  0  0  0  0  0  0  0  0  0  0
  1 29  1  0  0  0  0
  2  3  1  1  0  0  0
  2  7  1  0  0  0  0
  4  5  2  0  0  0  0
  5  7  1  0  0  0  0
  6  9  1  0  0  0  0
  6  4  1  0  0  0  0
  7  1  2  0  0  0  0
  8  9  2  0  0  0  0
  9  2  1  0  0  0  0
 11 14  2  0  0  0  0
 12 16  1  0  0  0  0
 13 17  1  0  0  0  0
 14  4  1  0  0  0  0
 15 10  1  6  0  0  0
 15 11  1  0  0  0  0
 15 12  1  0  0  0  0
 15 16  1  0  0  0  0
 16 26  1  1  0  0  0
 17 11  1  0  0  0  0
 18 23  1  6  0  0  0
 18 13  1  0  0  0  0
 18 10  1  0  0  0  0
 19 18  1  0  0  0  0
 19 20  2  0  0  0  0
 21 19  1  0  0  0  0
 22 21  1  0  0  0  0
 23 24  1  0  0  0  0
 25 24  1  0  0  0  0
 26 28  1  0  0  0  0
 28 27  1  0  0  0  0
 30 29  2  0  0  0  0
 31 29  1  6  0  0  0
 31 39  1  0  0  0  0
 31 33  1  0  0  0  0
 32 33  1  0  0  0  0
 32 36  1  0  0  0  0
 34 37  1  6  0  0  0
 34 36  1  0  0  0  0
 35 34  1  0  0  0  0
 35 33  1  0  0  0  0
 38 37  1  0  0  0  0
 39 40  1  0  0  0  0
 41 39  2  0  0  0  0
M  END
>  <MODEL>
5

>  <REMARK>
 VINA RESULT:      -4.6      2.839      9.161
  Name = 
  12 active torsions:
  status: ('A' for Active; 'I' for Inactive)
    1  A    between atoms: C_2  and  C_9
    2  A    between atoms: C_2  and  C_13
    3  A    between atoms: C_2  and  N_27
    4  A    between atoms: C_7  and  C_31
    5  A    between atoms: O_8  and  C_34
    6  A    between atoms: O_8  and  C_39
    7  A    between atoms: O_10  and  O_18
    8  A    between atoms: O_10  and  C_30
    9  A    between atoms: N_11  and  C_13
   10  A    between atoms: C_15  and  C_16
   11  A    between atoms: C_16  and  C_39
   12  A    between atoms: C_17  and  C_21
                            x       y       z     vdW  Elec       q    Type
                         _______ _______ _______ _____ _____    ______ ____

>  <TORSDO>
F 12

$$$$
=
 OpenBabel11072412543D

 41 44  0  0  1  0  0  0  0  0999 V2000
  160.9600  205.6540  149.4960 N   0  0  0  0  0  0  0  0  0  0  0  0
  161.8980  205.6550  151.7730 C   0  0  2  0  0  3  0  0  0  0  0  0
  163.2650  205.8370  151.5630 O   0  0  0  0  0  1  0  0  0  0  0  0
  160.6640  208.3390  151.9100 C   0  0  0  0  0  0  0  0  0  0  0  0
  160.6060  207.6400  150.7650 C   0  0  0  0  0  3  0  0  0  0  0  0
  161.3210  207.7780  153.1470 C   0  0  0  0  0  2  0  0  0  0  0  0
  161.1290  206.2690  150.6340 C   0  0  0  0  0  0  0  0  0  0  0  0
  161.4020  205.6100  154.0770 O   0  0  0  0  0  0  0  0  0  0  0  0
  161.5070  206.2900  153.0710 C   0  0  0  0  0  0  0  0  0  0  0  0
  159.2720  212.6090  154.3720 C   0  0  0  0  0  2  0  0  0  0  0  0
  160.2010  210.5350  153.0730 C   0  0  0  0  0  0  0  0  0  0  0  0
  158.6700  212.2820  151.8960 C   0  0  0  0  0  2  0  0  0  0  0  0
  160.7920  210.9350  155.4320 C   0  0  0  0  0  2  0  0  0  0  0  0
  160.1620  209.7260  152.0010 C   0  0  0  0  0  3  0  0  0  0  0  0
  159.5980  211.9280  153.0390 C   0  0  1  0  0  0  0  0  0  0  0  0
  160.0550  212.9160  151.9680 C   0  0  1  0  0  3  0  0  0  0  0  0
  160.7510  210.0930  154.2800 O   0  0  0  0  0  0  0  0  0  0  0  0
  159.4710  211.6990  155.6170 C   0  0  2  0  0  0  0  0  0  0  0  0
  158.3420  210.6870  155.7860 C   0  0  0  0  0  0  0  0  0  0  0  0
  158.5670  209.5490  156.1690 O   0  0  0  0  0  0  0  0  0  0  0  0
  156.9350  211.0870  155.4730 C   0  0  0  0  0  2  0  0  0  0  0  0
  156.4740  211.9950  156.4280 O   0  0  0  0  0  1  0  0  0  0  0  0
  159.6150  212.4890  156.7880 O   0  0  0  0  0  0  0  0  0  0  0  0
  159.7610  213.8490  156.4500 C   0  0  0  0  0  2  0  0  0  0  0  0
  160.8880  214.4530  157.2600 C   0  0  0  0  0  1  0  0  0  0  0  0
  160.8890  212.3190  151.0150 O   0  0  0  0  0  0  0  0  0  0  0  0
  161.1520  212.3160  148.8750 C   0  0  0  0  0  1  0  0  0  0  0  0
  160.8430  213.1250  149.9730 O   0  0  0  0  0  0  0  0  0  0  0  0
  161.3590  204.3200  149.1520 C   0  0  0  0  0  0  0  0  0  0  0  0
  161.3110  203.3820  149.9960 O   0  0  0  0  0  0  0  0  0  0  0  0
  161.7400  204.0290  147.7280 C   0  0  1  0  0  3  0  0  0  0  0  0
  161.1200  203.0380  145.7010 N   0  0  0  0  0  2  0  0  0  0  0  0
  160.6740  203.3050  147.0110 N   0  0  0  0  0  0  0  0  0  0  0  0
  160.2940  200.9830  146.5710 C   0  0  1  0  0  3  0  0  0  0  0  0
  160.4870  202.0050  147.6560 C   0  0  0  0  0  2  0  0  0  0  0  0
  160.5370  201.7640  145.3080 C   0  0  0  0  0  2  0  0  0  0  0  0
  161.3470  199.8950  146.7170 C   0  0  0  0  0  2  0  0  0  0  0  0
  162.0840  200.1060  147.8820 O   0  0  0  0  0  1  0  0  0  0  0  0
  162.1110  205.3190  147.0540 C   0  0  0  0  0  0  0  0  0  0  0  0
  161.1060  206.1670  146.6140 O   0  0  0  0  0  0  0  0  0  0  0  0
  163.3160  205.6110  146.8410 O   0  0  0  0  0  1  0  0  0  0  0  0
  1  7  2  0  0  0  0
  2  3  1  6  0  0  0
  2  9  1  0  0  0  0
  4 14  1  0  0  0  0
  4  6  1  0  0  0  0
  5  4  2  0  0  0  0
  7  5  1  0  0  0  0
  7  2  1  0  0  0  0
  9  6  1  0  0  0  0
  9  8  2  0  0  0  0
 10 18  1  0  0  0  0
 11 17  1  0  0  0  0
 12 16  1  0  0  0  0
 13 18  1  0  0  0  0
 14 11  2  0  0  0  0
 15 12  1  6  0  0  0
 15 11  1  0  0  0  0
 15 10  1  0  0  0  0
 16 26  1  6  0  0  0
 16 15  1  0  0  0  0
 17 13  1  0  0  0  0
 18 19  1  1  0  0  0
 18 23  1  0  0  0  0
 19 20  2  0  0  0  0
 21 19  1  0  0  0  0
 21 22  1  0  0  0  0
 24 23  1  0  0  0  0
 24 25  1  0  0  0  0
 27 28  1  0  0  0  0
 28 26  1  0  0  0  0
 29  1  1  0  0  0  0
 29 30  2  0  0  0  0
 31 39  1  6  0  0  0
 31 29  1  0  0  0  0
 32 33  1  0  0  0  0
 33 35  1  0  0  0  0
 33 31  1  0  0  0  0
 34 37  1  1  0  0  0
 34 35  1  0  0  0  0
 36 32  1  0  0  0  0
 36 34  1  0  0  0  0
 37 38  1  0  0  0  0
 40 39  2  0  0  0  0
 41 39  1  0  0  0  0
M  END
>  <MODEL>
6

>  <REMARK>
 VINA RESULT:      -4.5      2.265      4.439
  Name = 
  12 active torsions:
  status: ('A' for Active; 'I' for Inactive)
    1  A    between atoms: C_2  and  C_9
    2  A    between atoms: C_2  and  C_13
    3  A    between atoms: C_2  and  N_27
    4  A    between atoms: C_7  and  C_31
    5  A    between atoms: O_8  and  C_34
    6  A    between atoms: O_8  and  C_39
    7  A    between atoms: O_10  and  O_18
    8  A    between atoms: O_10  and  C_30
    9  A    between atoms: N_11  and  C_13
   10  A    between atoms: C_15  and  C_16
   11  A    between atoms: C_16  and  C_39
   12  A    between atoms: C_17  and  C_21
                            x       y       z     vdW  Elec       q    Type
                         _______ _______ _______ _____ _____    ______ ____

>  <TORSDO>
F 12

$$$$
=
 OpenBabel11072412543D

 41 44  0  0  1  0  0  0  0  0999 V2000
  160.5250  208.9530  153.0280 N   0  0  0  0  0  0  0  0  0  0  0  0
  161.7110  210.4900  151.5120 C   0  0  2  0  0  3  0  0  0  0  0  0
  162.9720  210.6170  152.0970 O   0  0  0  0  0  1  0  0  0  0  0  0
  161.7990  208.1240  149.7390 C   0  0  0  0  0  0  0  0  0  0  0  0
  161.2670  208.0140  150.9680 C   0  0  0  0  0  3  0  0  0  0  0  0
  162.3310  209.4390  149.2240 C   0  0  0  0  0  2  0  0  0  0  0  0
  161.1180  209.1580  151.8840 C   0  0  0  0  0  0  0  0  0  0  0  0
  161.6080  211.6720  149.4760 O   0  0  0  0  0  0  0  0  0  0  0  0
  161.8400  210.6090  150.0260 C   0  0  0  0  0  0  0  0  0  0  0  0
  161.2050  203.2210  148.3830 C   0  0  0  0  0  2  0  0  0  0  0  0
  161.3170  205.7790  148.9290 C   0  0  0  0  0  0  0  0  0  0  0  0
  162.9010  204.7120  147.1570 C   0  0  0  0  0  2  0  0  0  0  0  0
  159.6720  204.3090  150.0270 C   0  0  0  0  0  2  0  0  0  0  0  0
  161.9680  206.9520  148.8550 C   0  0  0  0  0  3  0  0  0  0  0  0
  161.6300  204.6370  147.9790 C   0  0  1  0  0  0  0  0  0  0  0  0
  161.5470  204.8700  146.4730 C   0  0  1  0  0  3  0  0  0  0  0  0
  160.3660  205.5530  149.9270 O   0  0  0  0  0  0  0  0  0  0  0  0
  160.6210  203.1180  149.8200 C   0  0  2  0  0  0  0  0  0  0  0  0
  161.7040  203.1660  150.8930 C   0  0  0  0  0  0  0  0  0  0  0  0
  162.3710  202.1770  151.1610 O   0  0  0  0  0  0  0  0  0  0  0  0
  161.9540  204.4380  151.6390 C   0  0  0  0  0  2  0  0  0  0  0  0
  161.2490  204.4310  152.8430 O   0  0  0  0  0  1  0  0  0  0  0  0
  159.8370  201.9420  149.9520 O   0  0  0  0  0  0  0  0  0  0  0  0
  159.7930  201.2400  148.7300 C   0  0  0  0  0  2  0  0  0  0  0  0
  161.1300  200.5740  148.4820 C   0  0  0  0  0  1  0  0  0  0  0  0
  161.3430  206.2190  146.1540 O   0  0  0  0  0  0  0  0  0  0  0  0
  161.2060  205.4540  144.1430 C   0  0  0  0  0  1  0  0  0  0  0  0
  160.5340  206.2030  145.1140 O   0  0  0  0  0  0  0  0  0  0  0  0
  160.2480  209.9150  154.0560 C   0  0  0  0  0  0  0  0  0  0  0  0
  159.1420  210.5200  154.1080 O   0  0  0  0  0  0  0  0  0  0  0  0
  161.2660  210.1170  155.1430 C   0  0  1  0  0  3  0  0  0  0  0  0
  160.4330  212.2940  154.9370 N   0  0  0  0  0  2  0  0  0  0  0  0
  161.0980  211.4170  155.8180 N   0  0  0  0  0  0  0  0  0  0  0  0
  159.2760  212.4080  157.0140 C   0  0  1  0  0  3  0  0  0  0  0  0
  160.2080  211.2300  156.9630 C   0  0  0  0  0  2  0  0  0  0  0  0
  159.6040  213.1660  155.7550 C   0  0  0  0  0  2  0  0  0  0  0  0
  157.8400  211.9120  156.9590 C   0  0  0  0  0  2  0  0  0  0  0  0
  157.1360  212.6080  155.9760 O   0  0  0  0  0  1  0  0  0  0  0  0
  161.1880  208.9610  156.0980 C   0  0  0  0  0  0  0  0  0  0  0  0
  160.0320  208.1990  156.1480 O   0  0  0  0  0  0  0  0  0  0  0  0
  162.1370  208.7110  156.8860 O   0  0  0  0  0  1  0  0  0  0  0  0
  1 29  1  0  0  0  0
  2  7  1  0  0  0  0
  2  3  1  1  0  0  0
  4  5  2  0  0  0  0
  5  7  1  0  0  0  0
  6  4  1  0  0  0  0
  6  9  1  0  0  0  0
  7  1  2  0  0  0  0
  8  9  2  0  0  0  0
  9  2  1  0  0  0  0
 10 18  1  0  0  0  0
 11 17  1  0  0  0  0
 14 11  2  0  0  0  0
 14  4  1  0  0  0  0
 15 12  1  1  0  0  0
 15 10  1  0  0  0  0
 15 11  1  0  0  0  0
 16 26  1  1  0  0  0
 16 12  1  0  0  0  0
 16 15  1  0  0  0  0
 17 13  1  0  0  0  0
 18 23  1  1  0  0  0
 18 13  1  0  0  0  0
 18 19  1  0  0  0  0
 19 20  2  0  0  0  0
 19 21  1  0  0  0  0
 21 22  1  0  0  0  0
 24 23  1  0  0  0  0
 25 24  1  0  0  0  0
 27 28  1  0  0  0  0
 28 26  1  0  0  0  0
 29 30  2  0  0  0  0
 31 29  1  6  0  0  0
 31 33  1  0  0  0  0
 31 39  1  0  0  0  0
 32 36  1  0  0  0  0
 32 33  1  0  0  0  0
 33 35  1  0  0  0  0
 34 37  1  6  0  0  0
 35 34  1  0  0  0  0
 36 34  1  0  0  0  0
 38 37  1  0  0  0  0
 39 40  2  0  0  0  0
 39 41  1  0  0  0  0
M  END
>  <MODEL>
7

>  <REMARK>
 VINA RESULT:      -4.3      2.458      9.324
  Name = 
  12 active torsions:
  status: ('A' for Active; 'I' for Inactive)
    1  A    between atoms: C_2  and  C_9
    2  A    between atoms: C_2  and  C_13
    3  A    between atoms: C_2  and  N_27
    4  A    between atoms: C_7  and  C_31
    5  A    between atoms: O_8  and  C_34
    6  A    between atoms: O_8  and  C_39
    7  A    between atoms: O_10  and  O_18
    8  A    between atoms: O_10  and  C_30
    9  A    between atoms: N_11  and  C_13
   10  A    between atoms: C_15  and  C_16
   11  A    between atoms: C_16  and  C_39
   12  A    between atoms: C_17  and  C_21
                            x       y       z     vdW  Elec       q    Type
                         _______ _______ _______ _____ _____    ______ ____

>  <TORSDO>
F 12

$$$$
=
 OpenBabel11072412543D

 41 44  0  0  1  0  0  0  0  0999 V2000
  161.1610  205.8750  151.6750 N   0  0  0  0  0  0  0  0  0  0  0  0
  161.3640  203.5460  152.4510 C   0  0  2  0  0  3  0  0  0  0  0  0
  160.1640  203.3220  153.1260 O   0  0  0  0  0  1  0  0  0  0  0  0
  160.8990  202.9190  149.5980 C   0  0  0  0  0  0  0  0  0  0  0  0
  160.8630  204.1960  150.0110 C   0  0  0  0  0  3  0  0  0  0  0  0
  161.2000  201.7880  150.5510 C   0  0  0  0  0  2  0  0  0  0  0  0
  161.1570  204.6010  151.3970 C   0  0  0  0  0  0  0  0  0  0  0  0
  162.6700  201.5860  152.3860 O   0  0  0  0  0  0  0  0  0  0  0  0
  161.8280  202.2670  151.8270 C   0  0  0  0  0  0  0  0  0  0  0  0
  160.8970  203.5030  144.5090 C   0  0  0  0  0  2  0  0  0  0  0  0
  161.0870  203.0490  147.0810 C   0  0  0  0  0  0  0  0  0  0  0  0
  159.3220  201.8060  145.6230 C   0  0  0  0  0  2  0  0  0  0  0  0
  162.6090  204.6200  145.9460 C   0  0  0  0  0  2  0  0  0  0  0  0
  160.5650  202.5400  148.2090 C   0  0  0  0  0  3  0  0  0  0  0  0
  160.6110  202.5970  145.7120 C   0  0  1  0  0  0  0  0  0  0  0  0
  160.6540  201.1130  145.3550 C   0  0  1  0  0  3  0  0  0  0  0  0
  162.0500  204.0600  147.1340 O   0  0  0  0  0  0  0  0  0  0  0  0
  161.5280  204.8750  144.8830 C   0  0  2  0  0  0  0  0  0  0  0  0
  160.5030  205.8510  145.4530 C   0  0  0  0  0  0  0  0  0  0  0  0
  159.3370  205.8270  145.0880 O   0  0  0  0  0  0  0  0  0  0  0  0
  160.9280  206.8600  146.4730 C   0  0  0  0  0  2  0  0  0  0  0  0
  160.3410  206.5680  147.7050 O   0  0  0  0  0  1  0  0  0  0  0  0
  162.1840  205.4390  143.7580 O   0  0  0  0  0  0  0  0  0  0  0  0
  161.2430  205.8270  142.7820 C   0  0  0  0  0  2  0  0  0  0  0  0
  161.9670  206.2470  141.5210 C   0  0  0  0  0  1  0  0  0  0  0  0
  160.9890  200.3120  146.4530 O   0  0  0  0  0  0  0  0  0  0  0  0
  161.1970  198.5140  145.2820 C   0  0  0  0  0  1  0  0  0  0  0  0
  161.9070  199.4820  146.0000 O   0  0  0  0  0  0  0  0  0  0  0  0
  161.4430  206.4960  152.9380 C   0  0  0  0  0  0  0  0  0  0  0  0
  162.3390  206.0460  153.7040 O   0  0  0  0  0  0  0  0  0  0  0  0
  160.7200  207.7650  153.2920 C   0  0  1  0  0  3  0  0  0  0  0  0
  161.7040  209.4030  154.6420 N   0  0  0  0  0  2  0  0  0  0  0  0
  160.9950  208.1850  154.6780 N   0  0  0  0  0  0  0  0  0  0  0  0
  159.9010  209.7090  156.1650 C   0  0  1  0  0  3  0  0  0  0  0  0
  159.7190  208.4700  155.3340 C   0  0  0  0  0  2  0  0  0  0  0  0
  161.2890  210.1670  155.8090 C   0  0  0  0  0  2  0  0  0  0  0  0
  158.8840  210.7540  155.7320 C   0  0  0  0  0  2  0  0  0  0  0  0
  158.4130  211.4450  156.8470 O   0  0  0  0  0  1  0  0  0  0  0  0
  161.0820  208.8220  152.2880 C   0  0  0  0  0  0  0  0  0  0  0  0
  162.3120  208.7610  151.6530 O   0  0  0  0  0  0  0  0  0  0  0  0
  160.3050  209.7850  152.0590 O   0  0  0  0  0  1  0  0  0  0  0  0
  1 29  1  0  0  0  0
  2  3  1  6  0  0  0
  4  5  2  0  0  0  0
  4  6  1  0  0  0  0
  5  7  1  0  0  0  0
  6  9  1  0  0  0  0
  7  1  2  0  0  0  0
  7  2  1  0  0  0  0
  9  8  2  0  0  0  0
  9  2  1  0  0  0  0
 10 18  1  0  0  0  0
 11 17  1  0  0  0  0
 11 14  2  0  0  0  0
 12 15  1  0  0  0  0
 13 17  1  0  0  0  0
 14  4  1  0  0  0  0
 15 10  1  6  0  0  0
 15 11  1  0  0  0  0
 16 12  1  0  0  0  0
 16 15  1  0  0  0  0
 16 26  1  1  0  0  0
 18 23  1  6  0  0  0
 18 19  1  0  0  0  0
 18 13  1  0  0  0  0
 19 21  1  0  0  0  0
 20 19  2  0  0  0  0
 21 22  1  0  0  0  0
 24 23  1  0  0  0  0
 25 24  1  0  0  0  0
 27 28  1  0  0  0  0
 28 26  1  0  0  0  0
 29 31  1  0  0  0  0
 29 30  2  0  0  0  0
 31 39  1  6  0  0  0
 31 33  1  0  0  0  0
 32 33  1  0  0  0  0
 32 36  1  0  0  0  0
 33 35  1  0  0  0  0
 34 37  1  6  0  0  0
 35 34  1  0  0  0  0
 36 34  1  0  0  0  0
 37 38  1  0  0  0  0
 40 39  2  0  0  0  0
 41 39  1  0  0  0  0
M  END
>  <MODEL>
8

>  <REMARK>
 VINA RESULT:      -4.3      2.946     10.163
  Name = 
  12 active torsions:
  status: ('A' for Active; 'I' for Inactive)
    1  A    between atoms: C_2  and  C_9
    2  A    between atoms: C_2  and  C_13
    3  A    between atoms: C_2  and  N_27
    4  A    between atoms: C_7  and  C_31
    5  A    between atoms: O_8  and  C_34
    6  A    between atoms: O_8  and  C_39
    7  A    between atoms: O_10  and  O_18
    8  A    between atoms: O_10  and  C_30
    9  A    between atoms: N_11  and  C_13
   10  A    between atoms: C_15  and  C_16
   11  A    between atoms: C_16  and  C_39
   12  A    between atoms: C_17  and  C_21
                            x       y       z     vdW  Elec       q    Type
                         _______ _______ _______ _____ _____    ______ ____

>  <TORSDO>
F 12

$$$$
=
 OpenBabel11072412543D

 41 44  0  0  1  0  0  0  0  0999 V2000
  160.9270  206.7380  149.2280 N   0  0  0  0  0  0  0  0  0  0  0  0
  161.3450  205.0030  150.9250 C   0  0  2  0  0  3  0  0  0  0  0  0
  162.6620  204.6160  150.6770 O   0  0  0  0  0  1  0  0  0  0  0  0
  161.4420  207.3160  152.7670 C   0  0  0  0  0  0  0  0  0  0  0  0
  161.2810  207.5230  151.4500 C   0  0  0  0  0  3  0  0  0  0  0  0
  161.5470  205.9240  153.3410 C   0  0  0  0  0  2  0  0  0  0  0  0
  161.1480  206.4260  150.4750 C   0  0  0  0  0  0  0  0  0  0  0  0
  160.4820  203.8850  152.8120 O   0  0  0  0  0  0  0  0  0  0  0  0
  161.0570  204.8740  152.3880 C   0  0  0  0  0  0  0  0  0  0  0  0
  160.3000  211.8800  154.7910 C   0  0  0  0  0  2  0  0  0  0  0  0
  160.7500  209.4470  153.9380 C   0  0  0  0  0  0  0  0  0  0  0  0
  162.5030  210.7040  155.3960 C   0  0  0  0  0  2  0  0  0  0  0  0
  158.6310  210.6030  153.4400 C   0  0  0  0  0  2  0  0  0  0  0  0
  161.6070  208.4360  153.7170 C   0  0  0  0  0  3  0  0  0  0  0  0
  161.0740  210.5630  154.9130 C   0  0  1  0  0  0  0  0  0  0  0  0
  161.4240  210.2170  156.3590 C   0  0  1  0  0  3  0  0  0  0  0  0
  159.5500  209.5310  153.2260 O   0  0  0  0  0  0  0  0  0  0  0  0
  159.3590  211.9520  153.5550 C   0  0  2  0  0  0  0  0  0  0  0  0
  160.1210  212.2070  152.2580 C   0  0  0  0  0  0  0  0  0  0  0  0
  161.0660  211.5050  151.9330 O   0  0  0  0  0  0  0  0  0  0  0  0
  159.7130  213.3390  151.3680 C   0  0  0  0  0  2  0  0  0  0  0  0
  160.2210  213.1410  150.0830 O   0  0  0  0  0  1  0  0  0  0  0  0
  158.3610  212.9420  153.7520 O   0  0  0  0  0  0  0  0  0  0  0  0
  157.2530  212.3960  154.4310 C   0  0  0  0  0  2  0  0  0  0  0  0
  156.3180  213.5100  154.8500 C   0  0  0  0  0  1  0  0  0  0  0  0
  161.5670  208.8380  156.5560 O   0  0  0  0  0  0  0  0  0  0  0  0
  160.2950  207.1410  156.9380 C   0  0  0  0  0  1  0  0  0  0  0  0
  160.5080  208.4850  157.2570 O   0  0  0  0  0  0  0  0  0  0  0  0
  160.7400  205.8460  148.1200 C   0  0  0  0  0  0  0  0  0  0  0  0
  159.5880  205.4670  147.7700 O   0  0  0  0  0  0  0  0  0  0  0  0
  161.9400  205.4460  147.3090 C   0  0  1  0  0  3  0  0  0  0  0  0
  161.1940  203.4080  148.1850 N   0  0  0  0  0  2  0  0  0  0  0  0
  162.1880  203.9940  147.3750 N   0  0  0  0  0  0  0  0  0  0  0  0
  161.2800  202.1300  146.1790 C   0  0  1  0  0  3  0  0  0  0  0  0
  162.0110  203.4360  146.0350 C   0  0  0  0  0  2  0  0  0  0  0  0
  160.9360  202.0830  147.6430 C   0  0  0  0  0  2  0  0  0  0  0  0
  160.0060  202.1780  145.3500 C   0  0  0  0  0  2  0  0  0  0  0  0
  160.0170  203.3070  144.5310 O   0  0  0  0  0  1  0  0  0  0  0  0
  161.7550  205.9330  145.9010 C   0  0  0  0  0  0  0  0  0  0  0  0
  160.5380  206.4830  145.5280 O   0  0  0  0  0  1  0  0  0  0  0  0
  162.6700  205.8000  145.0480 O   0  0  0  0  0  0  0  0  0  0  0  0
  1  7  2  0  0  0  0
  2  3  1  1  0  0  0
  2  9  1  0  0  0  0
  4  6  1  0  0  0  0
  4 14  1  0  0  0  0
  5  4  2  0  0  0  0
  7  2  1  0  0  0  0
  7  5  1  0  0  0  0
  9  8  2  0  0  0  0
  9  6  1  0  0  0  0
 11 15  1  0  0  0  0
 12 16  1  0  0  0  0
 13 18  1  0  0  0  0
 14 11  2  0  0  0  0
 15 10  1  6  0  0  0
 15 12  1  0  0  0  0
 15 16  1  0  0  0  0
 16 26  1  6  0  0  0
 17 13  1  0  0  0  0
 17 11  1  0  0  0  0
 18 19  1  6  0  0  0
 18 23  1  0  0  0  0
 18 10  1  0  0  0  0
 20 19  2  0  0  0  0
 21 19  1  0  0  0  0
 22 21  1  0  0  0  0
 23 24  1  0  0  0  0
 24 25  1  0  0  0  0
 26 28  1  0  0  0  0
 27 28  1  0  0  0  0
 29  1  1  0  0  0  0
 30 29  2  0  0  0  0
 31 39  1  6  0  0  0
 31 33  1  0  0  0  0
 31 29  1  0  0  0  0
 33 32  1  0  0  0  0
 34 37  1  6  0  0  0
 34 36  1  0  0  0  0
 35 34  1  0  0  0  0
 35 33  1  0  0  0  0
 36 32  1  0  0  0  0
 38 37  1  0  0  0  0
 40 39  1  0  0  0  0
 41 39  2  0  0  0  0
M  END
>  <MODEL>
9

>  <REMARK>
 VINA RESULT:      -4.3      1.911      3.438
  Name = 
  12 active torsions:
  status: ('A' for Active; 'I' for Inactive)
    1  A    between atoms: C_2  and  C_9
    2  A    between atoms: C_2  and  C_13
    3  A    between atoms: C_2  and  N_27
    4  A    between atoms: C_7  and  C_31
    5  A    between atoms: O_8  and  C_34
    6  A    between atoms: O_8  and  C_39
    7  A    between atoms: O_10  and  O_18
    8  A    between atoms: O_10  and  C_30
    9  A    between atoms: N_11  and  C_13
   10  A    between atoms: C_15  and  C_16
   11  A    between atoms: C_16  and  C_39
   12  A    between atoms: C_17  and  C_21
                            x       y       z     vdW  Elec       q    Type
                         _______ _______ _______ _____ _____    ______ ____

>  <TORSDO>
F 12

$$$$
