=
 OpenBabel11072413353D

 43 43  0  0  1  0  0  0  0  0999 V2000
  162.7570  208.0780  150.9500 O   0  0  0  0  0  0  0  0  0  0  0  0
  162.2130  206.9840  150.9720 C   0  0  0  0  0  0  0  0  0  0  0  0
  162.1210  206.1510  148.5570 C   0  0  2  0  0  3  0  0  0  0  0  0
  160.0570  205.8260  150.1650 C   0  0  0  0  0  1  0  0  0  0  0  0
  161.3450  206.5520  149.8170 C   0  0  1  0  0  0  0  0  0  0  0  0
  161.2670  207.4250  148.5580 C   0  0  1  0  0  3  0  0  0  0  0  0
  162.1000  208.6840  148.6170 C   0  0  0  0  0  0  0  0  0  0  0  0
  163.2120  208.7970  147.8850 C   0  0  0  0  0  2  0  0  0  0  0  0
  161.4090  209.9400  149.0470 C   0  0  0  0  0  2  0  0  0  0  0  0
  161.6340  211.0650  148.0510 C   0  0  0  0  0  2  0  0  0  0  0  0
  162.2180  212.2940  148.7300 C   0  0  0  0  0  2  0  0  0  0  0  0
  162.5040  214.1680  147.6000 C   0  0  0  0  0  1  0  0  0  0  0  0
  161.5460  213.4450  148.3100 O   0  0  0  0  0  0  0  0  0  0  0  0
  160.1970  205.2440  147.3150 O   0  0  0  0  0  1  0  0  0  0  0  0
  161.5650  205.0770  147.5790 C   0  0  1  0  0  0  0  0  0  0  0  0
  163.5770  204.7060  146.1590 C   0  0  0  0  0  2  0  0  0  0  0  0
  161.7220  205.8210  145.0650 C   0  0  0  0  0  1  0  0  0  0  0  0
  162.3320  205.1800  146.2710 C   0  0  0  0  0  0  0  0  0  0  0  0
  161.8080  203.6760  148.1570 C   0  0  0  0  0  2  0  0  0  0  0  0
  160.5780  202.7810  148.1640 C   0  0  2  0  0  3  0  0  0  0  0  0
  160.2590  202.4650  149.4860 O   0  0  0  0  0  1  0  0  0  0  0  0
  161.3540  200.7150  148.4080 C   0  0  0  0  0  1  0  0  0  0  0  0
  160.8530  201.6060  147.4580 O   0  0  0  0  0  0  0  0  0  0  0  0
  162.5260  206.0020  152.0700 C   0  0  0  0  0  2  0  0  0  0  0  0
  161.7680  206.2870  153.3640 C   0  0  2  0  0  3  0  0  0  0  0  0
  161.0500  205.1480  153.7350 O   0  0  0  0  0  1  0  0  0  0  0  0
  160.7970  207.4310  153.1160 C   0  0  0  0  0  2  0  0  0  0  0  0
  161.1090  208.6160  154.0240 C   0  0  2  0  0  3  0  0  0  0  0  0
  160.9690  208.2590  155.4690 C   0  0  0  0  0  0  0  0  0  0  0  0
  161.9010  208.5350  156.2680 O   0  0  0  0  0  1  0  0  0  0  0  0
  159.8060  207.6690  155.9460 O   0  0  0  0  0  0  0  0  0  0  0  0
  160.3050  209.8650  153.6550 C   0  0  0  0  0  2  0  0  0  0  0  0
  160.9410  210.6470  152.5160 C   0  0  0  0  0  2  0  0  0  0  0  0
  160.2290  211.9760  152.3560 C   0  0  0  0  0  2  0  0  0  0  0  0
  158.7980  212.0590  153.4710 S   0  0  0  0  0  0  0  0  0  0  0  0
  157.8390  213.1160  152.3490 C   0  0  0  0  0  2  0  0  0  0  0  0
  158.6030  213.3030  151.0510 C   0  0  0  0  0  2  0  0  0  0  0  0
  157.6550  213.5810  149.9350 C   0  0  0  0  0  0  0  0  0  0  0  0
  156.4880  214.1610  150.2070 C   0  0  0  0  0  1  0  0  0  0  0  0
  158.0250  213.2500  148.5910 N   0  0  0  0  0  0  0  0  0  0  0  0
  157.1990  213.5780  147.4380 C   0  0  0  0  0  2  0  0  0  0  0  0
  158.5620  212.5660  145.6180 C   0  0  0  0  0  1  0  0  0  0  0  0
  157.2710  212.4670  146.4070 C   0  0  0  0  0  2  0  0  0  0  0  0
  1  2  2  0  0  0  0
  2 24  1  0  0  0  0
  3 15  1  6  0  0  0
  3  6  1  0  0  0  0
  3  5  1  0  0  0  0
  5  4  1  1  0  0  0
  5  2  1  0  0  0  0
  6  7  1  1  0  0  0
  6  5  1  0  0  0  0
  7  9  1  0  0  0  0
  8  7  2  0  0  0  0
 10 11  1  0  0  0  0
 10  9  1  0  0  0  0
 12 13  1  0  0  0  0
 13 11  1  0  0  0  0
 15 14  1  6  0  0  0
 15 19  1  0  0  0  0
 16 18  2  0  0  0  0
 17 18  1  0  0  0  0
 18 15  1  0  0  0  0
 19 20  1  0  0  0  0
 20 21  1  1  0  0  0
 23 20  1  0  0  0  0
 23 22  1  0  0  0  0
 24 25  1  0  0  0  0
 25 26  1  6  0  0  0
 27 25  1  0  0  0  0
 28 27  1  6  0  0  0
 28 29  1  0  0  0  0
 29 31  2  0  0  0  0
 29 30  1  0  0  0  0
 32 28  1  0  0  0  0
 33 32  1  0  0  0  0
 34 33  1  0  0  0  0
 34 35  1  0  0  0  0
 36 35  1  0  0  0  0
 37 36  1  0  0  0  0
 38 39  1  0  0  0  0
 38 37  1  0  0  0  0
 40 38  2  0  0  0  0
 41 40  1  0  0  0  0
 42 43  1  0  0  0  0
 43 41  1  0  0  0  0
M  END
>  <MODEL>
1

>  <REMARK>
 VINA RESULT:      -5.0      0.000      0.000
  Name = 
  26 active torsions:
  status: ('A' for Active; 'I' for Inactive)
    1  A    between atoms: C_1  and  C_2
    2  A    between atoms: C_1  and  C_12
    3  A    between atoms: C_2  and  C_19
    4  A    between atoms: C_4  and  C_34
    5  A    between atoms: C_5  and  N_30
    6  A    between atoms: C_5  and  C_32
    7  A    between atoms: C_9  and  C_24
    8  A    between atoms: C_9  and  C_29
    9  A    between atoms: C_10  and  C_29
   10  A    between atoms: C_12  and  C_35
   11  A    between atoms: C_13  and  C_36
   12  A    between atoms: C_14  and  C_22
   13  A    between atoms: C_14  and  C_29
   14  A    between atoms: C_15  and  C_22
   15  A    between atoms: C_15  and  S_37
   16  A    between atoms: O_17  and  C_41
   17  A    between atoms: C_19  and  O_21
   18  A    between atoms: C_20  and  C_24
   19  A    between atoms: C_20  and  C_36
   20  A    between atoms: C_25  and  C_34
   21  A    between atoms: C_25  and  C_41
   22  A    between atoms: N_30  and  C_43
   23  A    between atoms: C_31  and  C_32
   24  A    between atoms: C_31  and  S_37
   25  A    between atoms: C_34  and  C_39
   26  A    between atoms: C_40  and  C_43
                            x       y       z     vdW  Elec       q    Type
                         _______ _______ _______ _____ _____    ______ ____

>  <TORSDO>
F 26

$$$$
=
 OpenBabel11072413353D

 43 43  0  0  1  0  0  0  0  0999 V2000
  158.9920  209.9590  152.9210 O   0  0  0  0  0  0  0  0  0  0  0  0
  160.1130  210.3550  153.2080 C   0  0  0  0  0  0  0  0  0  0  0  0
  158.9880  211.8080  154.9860 C   0  0  2  0  0  3  0  0  0  0  0  0
  161.5380  211.1690  155.1940 C   0  0  0  0  0  1  0  0  0  0  0  0
  160.2950  211.3380  154.3370 C   0  0  1  0  0  0  0  0  0  0  0  0
  159.8320  212.7900  154.1620 C   0  0  1  0  0  3  0  0  0  0  0  0
  159.2210  213.0940  152.8140 C   0  0  0  0  0  0  0  0  0  0  0  0
  158.1350  213.8670  152.7200 C   0  0  0  0  0  2  0  0  0  0  0  0
  160.1160  212.9880  151.6200 C   0  0  0  0  0  2  0  0  0  0  0  0
  159.3930  213.4020  150.3480 C   0  0  0  0  0  2  0  0  0  0  0  0
  160.3760  213.6810  149.2220 C   0  0  0  0  0  2  0  0  0  0  0  0
  158.4940  213.7740  148.0730 C   0  0  0  0  0  1  0  0  0  0  0  0
  159.7440  214.3800  148.1900 O   0  0  0  0  0  0  0  0  0  0  0  0
  160.0570  211.7610  157.2040 O   0  0  0  0  0  1  0  0  0  0  0  0
  158.9350  212.2040  156.4890 C   0  0  1  0  0  0  0  0  0  0  0  0
  159.9590  214.4520  156.8090 C   0  0  0  0  0  2  0  0  0  0  0  0
  157.5650  214.4440  156.4190 C   0  0  0  0  0  1  0  0  0  0  0  0
  158.8640  213.7200  156.5800 C   0  0  0  0  0  0  0  0  0  0  0  0
  157.6610  211.6350  157.1290 C   0  0  0  0  0  2  0  0  0  0  0  0
  156.4350  211.6840  156.2300 C   0  0  2  0  0  3  0  0  0  0  0  0
  155.3230  212.0200  157.0050 O   0  0  0  0  0  1  0  0  0  0  0  0
  155.3820  210.6580  154.5660 C   0  0  0  0  0  1  0  0  0  0  0  0
  156.2350  210.4290  155.6470 O   0  0  0  0  0  0  0  0  0  0  0  0
  161.3240  209.7520  152.5480 C   0  0  0  0  0  2  0  0  0  0  0  0
  161.0520  208.3830  151.9300 C   0  0  2  0  0  3  0  0  0  0  0  0
  160.8920  207.4430  152.9500 O   0  0  0  0  0  1  0  0  0  0  0  0
  162.2470  207.9910  151.0730 C   0  0  0  0  0  2  0  0  0  0  0  0
  161.8660  206.9070  150.0710 C   0  0  2  0  0  3  0  0  0  0  0  0
  161.3200  207.4870  148.8060 C   0  0  0  0  0  0  0  0  0  0  0  0
  161.6810  208.6370  148.4460 O   0  0  0  0  0  1  0  0  0  0  0  0
  160.4550  206.7540  148.0040 O   0  0  0  0  0  0  0  0  0  0  0  0
  160.9370  205.8520  150.6740 C   0  0  0  0  0  2  0  0  0  0  0  0
  160.9210  204.5630  149.8660 C   0  0  0  0  0  2  0  0  0  0  0  0
  160.4260  203.4260  150.7380 C   0  0  0  0  0  2  0  0  0  0  0  0
  160.3500  201.8860  149.7790 S   0  0  0  0  0  0  0  0  0  0  0  0
  161.1480  202.6180  148.3220 C   0  0  0  0  0  2  0  0  0  0  0  0
  161.2360  201.5820  147.2160 C   0  0  0  0  0  2  0  0  0  0  0  0
  160.8000  202.1780  145.9210 C   0  0  0  0  0  0  0  0  0  0  0  0
  159.8740  201.5500  145.2000 C   0  0  0  0  0  2  0  0  0  0  0  0
  161.3570  203.4260  145.4920 N   0  0  0  0  0  2  0  0  0  0  0  0
  160.6230  204.3840  144.6770 C   0  0  0  0  0  2  0  0  0  0  0  0
  162.6150  205.6420  145.4780 C   0  0  0  0  0  1  0  0  0  0  0  0
  161.3410  205.7190  144.6580 C   0  0  0  0  0  2  0  0  0  0  0  0
  1  2  2  0  0  0  0
  2  5  1  0  0  0  0
  3 15  1  1  0  0  0
  5  3  1  0  0  0  0
  5  4  1  1  0  0  0
  6  7  1  6  0  0  0
  6  5  1  0  0  0  0
  6  3  1  0  0  0  0
  8  7  2  0  0  0  0
  9  7  1  0  0  0  0
 10  9  1  0  0  0  0
 11 10  1  0  0  0  0
 12 13  1  0  0  0  0
 13 11  1  0  0  0  0
 15 18  1  0  0  0  0
 15 19  1  0  0  0  0
 15 14  1  1  0  0  0
 17 18  1  0  0  0  0
 18 16  2  0  0  0  0
 20 21  1  1  0  0  0
 20 19  1  0  0  0  0
 22 23  1  0  0  0  0
 23 20  1  0  0  0  0
 24  2  1  0  0  0  0
 25 24  1  0  0  0  0
 25 26  1  1  0  0  0
 27 25  1  0  0  0  0
 28 32  1  1  0  0  0
 28 27  1  0  0  0  0
 29 28  1  0  0  0  0
 30 29  1  0  0  0  0
 31 29  2  0  0  0  0
 33 32  1  0  0  0  0
 33 34  1  0  0  0  0
 35 34  1  0  0  0  0
 36 35  1  0  0  0  0
 37 36  1  0  0  0  0
 38 37  1  0  0  0  0
 39 38  2  0  0  0  0
 40 38  1  0  0  0  0
 41 40  1  0  0  0  0
 43 41  1  0  0  0  0
 43 42  1  0  0  0  0
M  END
>  <MODEL>
2

>  <REMARK>
 VINA RESULT:      -5.0      3.597      9.277
  Name = 
  26 active torsions:
  status: ('A' for Active; 'I' for Inactive)
    1  A    between atoms: C_1  and  C_2
    2  A    between atoms: C_1  and  C_12
    3  A    between atoms: C_2  and  C_19
    4  A    between atoms: C_4  and  C_34
    5  A    between atoms: C_5  and  N_30
    6  A    between atoms: C_5  and  C_32
    7  A    between atoms: C_9  and  C_24
    8  A    between atoms: C_9  and  C_29
    9  A    between atoms: C_10  and  C_29
   10  A    between atoms: C_12  and  C_35
   11  A    between atoms: C_13  and  C_36
   12  A    between atoms: C_14  and  C_22
   13  A    between atoms: C_14  and  C_29
   14  A    between atoms: C_15  and  C_22
   15  A    between atoms: C_15  and  S_37
   16  A    between atoms: O_17  and  C_41
   17  A    between atoms: C_19  and  O_21
   18  A    between atoms: C_20  and  C_24
   19  A    between atoms: C_20  and  C_36
   20  A    between atoms: C_25  and  C_34
   21  A    between atoms: C_25  and  C_41
   22  A    between atoms: N_30  and  C_43
   23  A    between atoms: C_31  and  C_32
   24  A    between atoms: C_31  and  S_37
   25  A    between atoms: C_34  and  C_39
   26  A    between atoms: C_40  and  C_43
                            x       y       z     vdW  Elec       q    Type
                         _______ _______ _______ _____ _____    ______ ____

>  <TORSDO>
F 26

$$$$
=
 OpenBabel11072413353D

 43 43  0  0  1  0  0  0  0  0999 V2000
  162.7950  210.1140  151.2240 O   0  0  0  0  0  0  0  0  0  0  0  0
  161.7210  210.6960  151.1900 C   0  0  0  0  0  0  0  0  0  0  0  0
  161.2700  209.9450  153.5920 C   0  0  2  0  0  3  0  0  0  0  0  0
  159.4650  211.3330  152.2620 C   0  0  0  0  0  1  0  0  0  0  0  0
  160.6900  210.4340  152.2600 C   0  0  1  0  0  0  0  0  0  0  0  0
  160.4290  208.9970  152.7270 C   0  0  1  0  0  3  0  0  0  0  0  0
  161.2660  207.9500  152.0290 C   0  0  0  0  0  0  0  0  0  0  0  0
  161.8880  206.9980  152.7320 C   0  0  0  0  0  2  0  0  0  0  0  0
  160.9540  207.6740  150.5920 C   0  0  0  0  0  2  0  0  0  0  0  0
  161.0160  206.1860  150.2880 C   0  0  0  0  0  2  0  0  0  0  0  0
  160.5550  205.8940  148.8690 C   0  0  0  0  0  2  0  0  0  0  0  0
  161.1010  203.7590  148.7500 C   0  0  0  0  0  1  0  0  0  0  0  0
  161.4420  205.0120  148.2440 O   0  0  0  0  0  0  0  0  0  0  0  0
  159.2720  209.7530  155.0200 O   0  0  0  0  0  1  0  0  0  0  0  0
  160.5710  210.2760  154.9420 C   0  0  1  0  0  0  0  0  0  0  0  0
  162.6570  210.1010  156.2920 C   0  0  0  0  0  2  0  0  0  0  0  0
  160.8560  208.6190  156.9600 C   0  0  0  0  0  1  0  0  0  0  0  0
  161.4060  209.6860  156.0680 C   0  0  0  0  0  0  0  0  0  0  0  0
  160.5240  211.7980  155.1390 C   0  0  0  0  0  2  0  0  0  0  0  0
  159.2360  212.3060  155.7680 C   0  0  2  0  0  3  0  0  0  0  0  0
  158.9060  213.5340  155.1890 O   0  0  0  0  0  1  0  0  0  0  0  0
  160.4790  213.3810  157.2600 C   0  0  0  0  0  1  0  0  0  0  0  0
  159.4240  212.4760  157.1430 O   0  0  0  0  0  0  0  0  0  0  0  0
  161.4790  211.7860  150.1800 C   0  0  0  0  0  2  0  0  0  0  0  0
  162.0530  211.4660  148.8020 C   0  0  2  0  0  3  0  0  0  0  0  0
  163.1530  212.2900  148.5610 O   0  0  0  0  0  1  0  0  0  0  0  0
  160.9830  211.7410  147.7550 C   0  0  0  0  0  2  0  0  0  0  0  0
  160.5380  213.1990  147.8030 C   0  0  2  0  0  3  0  0  0  0  0  0
  159.1120  213.3300  148.2320 C   0  0  0  0  0  0  0  0  0  0  0  0
  158.8330  213.9980  149.2610 O   0  0  0  0  0  1  0  0  0  0  0  0
  158.0900  212.7620  147.4820 O   0  0  0  0  0  0  0  0  0  0  0  0
  160.8210  213.9410  146.4950 C   0  0  0  0  0  2  0  0  0  0  0  0
  161.6920  213.1310  145.5460 C   0  0  0  0  0  2  0  0  0  0  0  0
  160.9560  212.9240  144.2380 C   0  0  0  0  0  2  0  0  0  0  0  0
  161.8610  213.7140  142.8760 S   0  0  0  0  0  0  0  0  0  0  0  0
  162.1780  212.1440  142.0220 C   0  0  0  0  0  2  0  0  0  0  0  0
  162.6350  212.4210  140.6010 C   0  0  0  0  0  2  0  0  0  0  0  0
  161.8130  211.6360  139.6370 C   0  0  0  0  0  0  0  0  0  0  0  0
  160.6210  212.1020  139.2740 C   0  0  0  0  0  2  0  0  0  0  0  0
  162.3310  210.4150  139.0950 N   0  0  0  0  0  2  0  0  0  0  0  0
  161.5990  209.1570  139.1350 C   0  0  0  0  0  2  0  0  0  0  0  0
  159.6810  208.6410  137.6360 C   0  0  0  0  0  1  0  0  0  0  0  0
  161.1910  208.7410  137.7350 C   0  0  0  0  0  2  0  0  0  0  0  0
  2  1  2  0  0  0  0
  2  5  1  0  0  0  0
  3 15  1  1  0  0  0
  5  4  1  1  0  0  0
  5  6  1  0  0  0  0
  5  3  1  0  0  0  0
  6  7  1  6  0  0  0
  6  3  1  0  0  0  0
  7  8  2  0  0  0  0
  9  7  1  0  0  0  0
 10  9  1  0  0  0  0
 11 10  1  0  0  0  0
 13 12  1  0  0  0  0
 13 11  1  0  0  0  0
 15 14  1  1  0  0  0
 15 19  1  0  0  0  0
 15 18  1  0  0  0  0
 18 16  2  0  0  0  0
 18 17  1  0  0  0  0
 19 20  1  0  0  0  0
 20 21  1  6  0  0  0
 20 23  1  0  0  0  0
 23 22  1  0  0  0  0
 24  2  1  0  0  0  0
 25 26  1  6  0  0  0
 25 24  1  0  0  0  0
 27 28  1  0  0  0  0
 27 25  1  0  0  0  0
 28 32  1  6  0  0  0
 28 29  1  0  0  0  0
 29 30  1  0  0  0  0
 31 29  2  0  0  0  0
 33 32  1  0  0  0  0
 34 33  1  0  0  0  0
 35 34  1  0  0  0  0
 36 35  1  0  0  0  0
 37 36  1  0  0  0  0
 38 37  1  0  0  0  0
 39 38  2  0  0  0  0
 40 41  1  0  0  0  0
 40 38  1  0  0  0  0
 42 43  1  0  0  0  0
 43 41  1  0  0  0  0
M  END
>  <MODEL>
3

>  <REMARK>
 VINA RESULT:      -5.0      4.244      9.240
  Name = 
  26 active torsions:
  status: ('A' for Active; 'I' for Inactive)
    1  A    between atoms: C_1  and  C_2
    2  A    between atoms: C_1  and  C_12
    3  A    between atoms: C_2  and  C_19
    4  A    between atoms: C_4  and  C_34
    5  A    between atoms: C_5  and  N_30
    6  A    between atoms: C_5  and  C_32
    7  A    between atoms: C_9  and  C_24
    8  A    between atoms: C_9  and  C_29
    9  A    between atoms: C_10  and  C_29
   10  A    between atoms: C_12  and  C_35
   11  A    between atoms: C_13  and  C_36
   12  A    between atoms: C_14  and  C_22
   13  A    between atoms: C_14  and  C_29
   14  A    between atoms: C_15  and  C_22
   15  A    between atoms: C_15  and  S_37
   16  A    between atoms: O_17  and  C_41
   17  A    between atoms: C_19  and  O_21
   18  A    between atoms: C_20  and  C_24
   19  A    between atoms: C_20  and  C_36
   20  A    between atoms: C_25  and  C_34
   21  A    between atoms: C_25  and  C_41
   22  A    between atoms: N_30  and  C_43
   23  A    between atoms: C_31  and  C_32
   24  A    between atoms: C_31  and  S_37
   25  A    between atoms: C_34  and  C_39
   26  A    between atoms: C_40  and  C_43
                            x       y       z     vdW  Elec       q    Type
                         _______ _______ _______ _____ _____    ______ ____

>  <TORSDO>
F 26

$$$$
=
 OpenBabel11072413353D

 43 43  0  0  1  0  0  0  0  0999 V2000
  158.6870  210.5610  152.1050 O   0  0  0  0  0  0  0  0  0  0  0  0
  159.7270  211.1000  152.4540 C   0  0  0  0  0  0  0  0  0  0  0  0
  158.2940  212.7050  153.8360 C   0  0  2  0  0  3  0  0  0  0  0  0
  160.7360  212.0830  154.6110 C   0  0  0  0  0  1  0  0  0  0  0  0
  159.6960  212.1790  153.5080 C   0  0  1  0  0  0  0  0  0  0  0  0
  159.3050  213.6100  153.1190 C   0  0  1  0  0  3  0  0  0  0  0  0
  158.9850  213.7960  151.6540 C   0  0  0  0  0  0  0  0  0  0  0  0
  157.7640  214.1810  151.2700 C   0  0  0  0  0  2  0  0  0  0  0  0
  160.1330  214.0700  150.7350 C   0  0  0  0  0  2  0  0  0  0  0  0
  159.7920  213.7040  149.2990 C   0  0  0  0  0  2  0  0  0  0  0  0
  161.0290  213.7270  148.4160 C   0  0  0  0  0  2  0  0  0  0  0  0
  162.7370  212.6120  147.5740 C   0  0  0  0  0  1  0  0  0  0  0  0
  161.7360  212.5290  148.5410 O   0  0  0  0  0  0  0  0  0  0  0  0
  158.7580  214.3060  155.6490 O   0  0  0  0  0  1  0  0  0  0  0  0
  157.9450  213.2320  155.2570 C   0  0  1  0  0  0  0  0  0  0  0  0
  156.0080  214.4520  156.2370 C   0  0  0  0  0  2  0  0  0  0  0  0
  155.5640  213.2970  154.1510 C   0  0  0  0  0  1  0  0  0  0  0  0
  156.4960  213.6890  155.2540 C   0  0  0  0  0  0  0  0  0  0  0  0
  158.0770  212.0910  156.2770 C   0  0  0  0  0  2  0  0  0  0  0  0
  157.7850  210.7110  155.7100 C   0  0  2  0  0  3  0  0  0  0  0  0
  156.4020  210.5110  155.7020 O   0  0  0  0  0  1  0  0  0  0  0  0
  159.4940  209.2950  155.7850 C   0  0  0  0  0  1  0  0  0  0  0  0
  158.3900  209.7400  156.5140 O   0  0  0  0  0  0  0  0  0  0  0  0
  161.0520  210.5910  151.9540 C   0  0  0  0  0  2  0  0  0  0  0  0
  161.1970  209.0760  152.0740 C   0  0  2  0  0  3  0  0  0  0  0  0
  161.8170  208.7690  153.2870 O   0  0  0  0  0  1  0  0  0  0  0  0
  162.0680  208.5800  150.9290 C   0  0  0  0  0  2  0  0  0  0  0  0
  161.2990  207.6050  150.0440 C   0  0  2  0  0  3  0  0  0  0  0  0
  161.2980  206.2220  150.6120 C   0  0  0  0  0  0  0  0  0  0  0  0
  162.1820  205.8940  151.4450 O   0  0  0  0  0  1  0  0  0  0  0  0
  160.3080  205.3120  150.2650 O   0  0  0  0  0  0  0  0  0  0  0  0
  161.7740  207.6350  148.5900 C   0  0  0  0  0  2  0  0  0  0  0  0
  161.8260  206.2470  147.9690 C   0  0  0  0  0  2  0  0  0  0  0  0
  162.5240  206.3210  146.6260 C   0  0  0  0  0  2  0  0  0  0  0  0
  163.0700  204.6670  146.1090 S   0  0  0  0  0  0  0  0  0  0  0  0
  161.4810  203.8890  146.5180 C   0  0  0  0  0  2  0  0  0  0  0  0
  160.9420  203.1630  145.2990 C   0  0  0  0  0  2  0  0  0  0  0  0
  160.5430  201.7750  145.6660 C   0  0  0  0  0  0  0  0  0  0  0  0
  159.8100  201.0650  144.8120 C   0  0  0  0  0  2  0  0  0  0  0  0
  160.9800  201.2180  146.9120 N   0  0  0  0  0  2  0  0  0  0  0  0
  160.3180  201.4930  148.1790 C   0  0  0  0  0  2  0  0  0  0  0  0
  160.6580  201.9450  150.6030 C   0  0  0  0  0  1  0  0  0  0  0  0
  161.3360  201.5640  149.3010 C   0  0  0  0  0  2  0  0  0  0  0  0
  1  2  2  0  0  0  0
  2  5  1  0  0  0  0
  3 15  1  1  0  0  0
  5  3  1  0  0  0  0
  5  4  1  1  0  0  0
  6  7  1  6  0  0  0
  6  5  1  0  0  0  0
  6  3  1  0  0  0  0
  8  7  2  0  0  0  0
  9  7  1  0  0  0  0
 10  9  1  0  0  0  0
 11 13  1  0  0  0  0
 11 10  1  0  0  0  0
 12 13  1  0  0  0  0
 15 14  1  1  0  0  0
 15 19  1  0  0  0  0
 17 18  1  0  0  0  0
 18 15  1  0  0  0  0
 18 16  2  0  0  0  0
 20 21  1  1  0  0  0
 20 19  1  0  0  0  0
 20 23  1  0  0  0  0
 22 23  1  0  0  0  0
 24 25  1  0  0  0  0
 24  2  1  0  0  0  0
 25 26  1  1  0  0  0
 27 25  1  0  0  0  0
 28 32  1  6  0  0  0
 28 29  1  0  0  0  0
 28 27  1  0  0  0  0
 29 30  1  0  0  0  0
 31 29  2  0  0  0  0
 33 32  1  0  0  0  0
 34 33  1  0  0  0  0
 35 36  1  0  0  0  0
 35 34  1  0  0  0  0
 37 38  1  0  0  0  0
 37 36  1  0  0  0  0
 38 40  1  0  0  0  0
 39 38  2  0  0  0  0
 40 41  1  0  0  0  0
 41 43  1  0  0  0  0
 43 42  1  0  0  0  0
M  END
>  <MODEL>
4

>  <REMARK>
 VINA RESULT:      -4.6      3.601      9.327
  Name = 
  26 active torsions:
  status: ('A' for Active; 'I' for Inactive)
    1  A    between atoms: C_1  and  C_2
    2  A    between atoms: C_1  and  C_12
    3  A    between atoms: C_2  and  C_19
    4  A    between atoms: C_4  and  C_34
    5  A    between atoms: C_5  and  N_30
    6  A    between atoms: C_5  and  C_32
    7  A    between atoms: C_9  and  C_24
    8  A    between atoms: C_9  and  C_29
    9  A    between atoms: C_10  and  C_29
   10  A    between atoms: C_12  and  C_35
   11  A    between atoms: C_13  and  C_36
   12  A    between atoms: C_14  and  C_22
   13  A    between atoms: C_14  and  C_29
   14  A    between atoms: C_15  and  C_22
   15  A    between atoms: C_15  and  S_37
   16  A    between atoms: O_17  and  C_41
   17  A    between atoms: C_19  and  O_21
   18  A    between atoms: C_20  and  C_24
   19  A    between atoms: C_20  and  C_36
   20  A    between atoms: C_25  and  C_34
   21  A    between atoms: C_25  and  C_41
   22  A    between atoms: N_30  and  C_43
   23  A    between atoms: C_31  and  C_32
   24  A    between atoms: C_31  and  S_37
   25  A    between atoms: C_34  and  C_39
   26  A    between atoms: C_40  and  C_43
                            x       y       z     vdW  Elec       q    Type
                         _______ _______ _______ _____ _____    ______ ____

>  <TORSDO>
F 26

$$$$
=
 OpenBabel11072413353D

 43 43  0  0  1  0  0  0  0  0999 V2000
  162.9210  208.8730  150.0050 O   0  0  0  0  0  0  0  0  0  0  0  0
  162.1870  209.7830  150.3610 C   0  0  0  0  0  0  0  0  0  0  0  0
  161.6470  208.6940  152.6100 C   0  0  2  0  0  3  0  0  0  0  0  0
  160.1520  210.6570  151.6790 C   0  0  0  0  0  1  0  0  0  0  0  0
  161.1520  209.5400  151.4310 C   0  0  1  0  0  0  0  0  0  0  0  0
  160.5970  208.1260  151.6440 C   0  0  1  0  0  3  0  0  0  0  0  0
  161.1680  207.0830  150.7120 C   0  0  0  0  0  0  0  0  0  0  0  0
  161.9520  206.1080  151.1830 C   0  0  0  0  0  2  0  0  0  0  0  0
  160.4380  206.8420  149.4290 C   0  0  0  0  0  2  0  0  0  0  0  0
  161.1460  205.8030  148.5750 C   0  0  0  0  0  2  0  0  0  0  0  0
  161.4920  206.3580  147.2030 C   0  0  0  0  0  2  0  0  0  0  0  0
  160.9290  205.5860  145.2140 C   0  0  0  0  0  1  0  0  0  0  0  0
  160.4040  206.2240  146.3380 O   0  0  0  0  0  0  0  0  0  0  0  0
  159.6710  208.9760  154.0540 O   0  0  0  0  0  1  0  0  0  0  0  0
  161.0720  208.8960  154.0410 C   0  0  1  0  0  0  0  0  0  0  0  0
  161.5020  206.4720  154.4160 C   0  0  0  0  0  2  0  0  0  0  0  0
  161.9420  207.9140  156.3160 C   0  0  0  0  0  1  0  0  0  0  0  0
  161.5040  207.7180  154.8990 C   0  0  0  0  0  0  0  0  0  0  0  0
  161.6630  210.1710  154.6600 C   0  0  0  0  0  2  0  0  0  0  0  0
  160.7310  210.8890  155.6230 C   0  0  2  0  0  3  0  0  0  0  0  0
  159.7610  211.5720  154.8860 O   0  0  0  0  0  1  0  0  0  0  0  0
  162.2240  211.0240  157.2610 C   0  0  0  0  0  1  0  0  0  0  0  0
  161.4630  211.8020  156.3860 O   0  0  0  0  0  0  0  0  0  0  0  0
  162.4110  211.1820  149.8520 C   0  0  0  0  0  2  0  0  0  0  0  0
  162.3390  211.2860  148.3310 C   0  0  2  0  0  3  0  0  0  0  0  0
  163.2550  212.2460  147.8930 O   0  0  0  0  0  1  0  0  0  0  0  0
  160.9340  211.7220  147.9400 C   0  0  0  0  0  2  0  0  0  0  0  0
  160.8380  213.2420  147.8610 C   0  0  2  0  0  3  0  0  0  0  0  0
  160.0150  213.8050  148.9750 C   0  0  0  0  0  0  0  0  0  0  0  0
  160.5870  214.3670  149.9440 O   0  0  0  0  0  1  0  0  0  0  0  0
  158.6280  213.7540  148.9290 O   0  0  0  0  0  0  0  0  0  0  0  0
  160.3670  213.7280  146.4880 C   0  0  0  0  0  2  0  0  0  0  0  0
  160.3330  212.6090  145.4580 C   0  0  0  0  0  2  0  0  0  0  0  0
  159.1860  212.8440  144.4950 C   0  0  0  0  0  2  0  0  0  0  0  0
  159.3840  214.4450  143.6620 S   0  0  0  0  0  0  0  0  0  0  0  0
  159.0010  213.7690  142.0210 C   0  0  0  0  0  2  0  0  0  0  0  0
  159.7560  212.4670  141.8190 C   0  0  0  0  0  2  0  0  0  0  0  0
  161.0570  212.7300  141.1420 C   0  0  0  0  0  0  0  0  0  0  0  0
  162.1540  212.8670  141.8830 C   0  0  0  0  0  2  0  0  0  0  0  0
  161.1110  212.7970  139.7120 N   0  0  0  0  0  2  0  0  0  0  0  0
  161.2130  211.6170  138.8660 C   0  0  0  0  0  2  0  0  0  0  0  0
  158.9370  210.7670  138.3270 C   0  0  0  0  0  1  0  0  0  0  0  0
  160.1400  210.6100  139.2360 C   0  0  0  0  0  2  0  0  0  0  0  0
  1  2  2  0  0  0  0
  2  5  1  0  0  0  0
  3 15  1  1  0  0  0
  5  6  1  0  0  0  0
  5  4  1  1  0  0  0
  5  3  1  0  0  0  0
  6  7  1  6  0  0  0
  6  3  1  0  0  0  0
  7  8  2  0  0  0  0
  9  7  1  0  0  0  0
 10  9  1  0  0  0  0
 11 10  1  0  0  0  0
 12 13  1  0  0  0  0
 13 11  1  0  0  0  0
 15 14  1  6  0  0  0
 15 19  1  0  0  0  0
 15 18  1  0  0  0  0
 16 18  2  0  0  0  0
 18 17  1  0  0  0  0
 19 20  1  0  0  0  0
 20 21  1  6  0  0  0
 20 23  1  0  0  0  0
 23 22  1  0  0  0  0
 24  2  1  0  0  0  0
 25 26  1  1  0  0  0
 25 24  1  0  0  0  0
 27 25  1  0  0  0  0
 28 32  1  6  0  0  0
 28 27  1  0  0  0  0
 28 29  1  0  0  0  0
 29 30  1  0  0  0  0
 31 29  2  0  0  0  0
 33 32  1  0  0  0  0
 34 33  1  0  0  0  0
 35 34  1  0  0  0  0
 36 35  1  0  0  0  0
 37 36  1  0  0  0  0
 38 37  1  0  0  0  0
 38 39  2  0  0  0  0
 40 38  1  0  0  0  0
 41 43  1  0  0  0  0
 41 40  1  0  0  0  0
 42 43  1  0  0  0  0
M  END
>  <MODEL>
5

>  <REMARK>
 VINA RESULT:      -3.7      3.582      8.221
  Name = 
  26 active torsions:
  status: ('A' for Active; 'I' for Inactive)
    1  A    between atoms: C_1  and  C_2
    2  A    between atoms: C_1  and  C_12
    3  A    between atoms: C_2  and  C_19
    4  A    between atoms: C_4  and  C_34
    5  A    between atoms: C_5  and  N_30
    6  A    between atoms: C_5  and  C_32
    7  A    between atoms: C_9  and  C_24
    8  A    between atoms: C_9  and  C_29
    9  A    between atoms: C_10  and  C_29
   10  A    between atoms: C_12  and  C_35
   11  A    between atoms: C_13  and  C_36
   12  A    between atoms: C_14  and  C_22
   13  A    between atoms: C_14  and  C_29
   14  A    between atoms: C_15  and  C_22
   15  A    between atoms: C_15  and  S_37
   16  A    between atoms: O_17  and  C_41
   17  A    between atoms: C_19  and  O_21
   18  A    between atoms: C_20  and  C_24
   19  A    between atoms: C_20  and  C_36
   20  A    between atoms: C_25  and  C_34
   21  A    between atoms: C_25  and  C_41
   22  A    between atoms: N_30  and  C_43
   23  A    between atoms: C_31  and  C_32
   24  A    between atoms: C_31  and  S_37
   25  A    between atoms: C_34  and  C_39
   26  A    between atoms: C_40  and  C_43
                            x       y       z     vdW  Elec       q    Type
                         _______ _______ _______ _____ _____    ______ ____

>  <TORSDO>
F 26

$$$$
=
 OpenBabel11072413353D

 43 43  0  0  1  0  0  0  0  0999 V2000
  160.9100  208.4790  151.2930 O   0  0  0  0  0  0  0  0  0  0  0  0
  161.3020  207.3790  150.9300 C   0  0  0  0  0  0  0  0  0  0  0  0
  161.9980  206.2610  148.7390 C   0  0  2  0  0  3  0  0  0  0  0  0
  159.4900  206.1750  149.5490 C   0  0  0  0  0  1  0  0  0  0  0  0
  160.8610  206.8280  149.5970 C   0  0  1  0  0  0  0  0  0  0  0  0
  161.2750  207.5430  148.3050 C   0  0  1  0  0  3  0  0  0  0  0  0
  162.1110  208.7830  148.5160 C   0  0  0  0  0  0  0  0  0  0  0  0
  163.4330  208.7510  148.3210 C   0  0  0  0  0  2  0  0  0  0  0  0
  161.4140  210.1020  148.4070 C   0  0  0  0  0  2  0  0  0  0  0  0
  162.2530  211.2220  149.0020 C   0  0  0  0  0  2  0  0  0  0  0  0
  162.7720  212.1560  147.9210 C   0  0  0  0  0  2  0  0  0  0  0  0
  160.7990  213.0420  147.4850 C   0  0  0  0  0  1  0  0  0  0  0  0
  161.8240  212.2960  146.9050 O   0  0  0  0  0  0  0  0  0  0  0  0
  160.4620  205.1170  147.1900 O   0  0  0  0  0  1  0  0  0  0  0  0
  161.7480  205.0870  147.7490 C   0  0  1  0  0  0  0  0  0  0  0  0
  163.8650  204.4140  146.6220 C   0  0  0  0  0  2  0  0  0  0  0  0
  162.5910  206.1450  145.4980 C   0  0  0  0  0  1  0  0  0  0  0  0
  162.7720  205.1830  146.6290 C   0  0  0  0  0  0  0  0  0  0  0  0
  161.9640  203.7490  148.4690 C   0  0  0  0  0  2  0  0  0  0  0  0
  160.6960  202.9310  148.6610 C   0  0  2  0  0  3  0  0  0  0  0  0
  160.6130  202.5350  149.9980 O   0  0  0  0  0  1  0  0  0  0  0  0
  161.0270  200.7360  148.7020 C   0  0  0  0  0  1  0  0  0  0  0  0
  160.7440  201.7990  147.8430 O   0  0  0  0  0  0  0  0  0  0  0  0
  162.3410  206.6410  151.7300 C   0  0  0  0  0  2  0  0  0  0  0  0
  161.8580  206.2470  153.1240 C   0  0  2  0  0  3  0  0  0  0  0  0
  161.2440  204.9950  153.0600 O   0  0  0  0  0  1  0  0  0  0  0  0
  160.8420  207.2780  153.5940 C   0  0  0  0  0  2  0  0  0  0  0  0
  161.2340  207.8460  154.9540 C   0  0  2  0  0  3  0  0  0  0  0  0
  160.4630  207.2070  156.0650 C   0  0  0  0  0  0  0  0  0  0  0  0
  161.0760  206.5650  156.9550 O   0  0  0  0  0  1  0  0  0  0  0  0
  159.0840  207.3550  156.1490 O   0  0  0  0  0  0  0  0  0  0  0  0
  161.1540  209.3730  154.9960 C   0  0  0  0  0  2  0  0  0  0  0  0
  161.7450  209.9500  156.2740 C   0  0  0  0  0  2  0  0  0  0  0  0
  160.6880  210.7590  156.9990 C   0  0  0  0  0  2  0  0  0  0  0  0
  160.2080  212.2010  156.0040 S   0  0  0  0  0  0  0  0  0  0  0  0
  158.4880  211.6490  155.8230 C   0  0  0  0  0  2  0  0  0  0  0  0
  157.5610  212.8490  155.8800 C   0  0  0  0  0  2  0  0  0  0  0  0
  156.7470  212.9260  154.6340 C   0  0  0  0  0  0  0  0  0  0  0  0
  155.6270  212.2110  154.5480 C   0  0  0  0  0  2  0  0  0  0  0  0
  157.1630  213.7870  153.5670 N   0  0  0  0  0  2  0  0  0  0  0  0
  158.5410  213.8620  153.1010 C   0  0  0  0  0  2  0  0  0  0  0  0
  159.7770  213.0240  151.1110 C   0  0  0  0  0  1  0  0  0  0  0  0
  158.8830  212.6390  152.2740 C   0  0  0  0  0  2  0  0  0  0  0  0
  2  1  2  0  0  0  0
  2 24  1  0  0  0  0
  3 15  1  6  0  0  0
  3  5  1  0  0  0  0
  5  4  1  6  0  0  0
  5  2  1  0  0  0  0
  6  7  1  1  0  0  0
  6  3  1  0  0  0  0
  6  5  1  0  0  0  0
  8  7  2  0  0  0  0
  9  7  1  0  0  0  0
  9 10  1  0  0  0  0
 11 10  1  0  0  0  0
 13 12  1  0  0  0  0
 13 11  1  0  0  0  0
 15 14  1  6  0  0  0
 15 19  1  0  0  0  0
 16 18  2  0  0  0  0
 17 18  1  0  0  0  0
 18 15  1  0  0  0  0
 19 20  1  0  0  0  0
 20 21  1  1  0  0  0
 23 20  1  0  0  0  0
 23 22  1  0  0  0  0
 24 25  1  0  0  0  0
 25 26  1  6  0  0  0
 25 27  1  0  0  0  0
 28 27  1  6  0  0  0
 28 32  1  0  0  0  0
 28 29  1  0  0  0  0
 29 31  2  0  0  0  0
 29 30  1  0  0  0  0
 32 33  1  0  0  0  0
 33 34  1  0  0  0  0
 35 34  1  0  0  0  0
 36 37  1  0  0  0  0
 36 35  1  0  0  0  0
 38 37  1  0  0  0  0
 39 38  2  0  0  0  0
 40 38  1  0  0  0  0
 41 40  1  0  0  0  0
 42 43  1  0  0  0  0
 43 41  1  0  0  0  0
M  END
>  <MODEL>
6

>  <REMARK>
 VINA RESULT:      -3.7      1.755      2.616
  Name = 
  26 active torsions:
  status: ('A' for Active; 'I' for Inactive)
    1  A    between atoms: C_1  and  C_2
    2  A    between atoms: C_1  and  C_12
    3  A    between atoms: C_2  and  C_19
    4  A    between atoms: C_4  and  C_34
    5  A    between atoms: C_5  and  N_30
    6  A    between atoms: C_5  and  C_32
    7  A    between atoms: C_9  and  C_24
    8  A    between atoms: C_9  and  C_29
    9  A    between atoms: C_10  and  C_29
   10  A    between atoms: C_12  and  C_35
   11  A    between atoms: C_13  and  C_36
   12  A    between atoms: C_14  and  C_22
   13  A    between atoms: C_14  and  C_29
   14  A    between atoms: C_15  and  C_22
   15  A    between atoms: C_15  and  S_37
   16  A    between atoms: O_17  and  C_41
   17  A    between atoms: C_19  and  O_21
   18  A    between atoms: C_20  and  C_24
   19  A    between atoms: C_20  and  C_36
   20  A    between atoms: C_25  and  C_34
   21  A    between atoms: C_25  and  C_41
   22  A    between atoms: N_30  and  C_43
   23  A    between atoms: C_31  and  C_32
   24  A    between atoms: C_31  and  S_37
   25  A    between atoms: C_34  and  C_39
   26  A    between atoms: C_40  and  C_43
                            x       y       z     vdW  Elec       q    Type
                         _______ _______ _______ _____ _____    ______ ____

>  <TORSDO>
F 26

$$$$
=
 OpenBabel11072413353D

 43 43  0  0  1  0  0  0  0  0999 V2000
  162.0910  208.3310  150.6650 O   0  0  0  0  0  0  0  0  0  0  0  0
  161.7450  209.3990  151.1470 C   0  0  0  0  0  0  0  0  0  0  0  0
  161.5630  209.2770  153.6950 C   0  0  2  0  0  3  0  0  0  0  0  0
  159.6030  210.3020  152.2600 C   0  0  0  0  0  1  0  0  0  0  0  0
  160.8370  209.4210  152.3520 C   0  0  1  0  0  0  0  0  0  0  0  0
  160.6540  208.1490  153.1890 C   0  0  1  0  0  3  0  0  0  0  0  0
  161.4320  206.9540  152.6890 C   0  0  0  0  0  0  0  0  0  0  0  0
  162.3430  206.3630  153.4680 C   0  0  0  0  0  2  0  0  0  0  0  0
  160.8130  206.1470  151.5920 C   0  0  0  0  0  2  0  0  0  0  0  0
  161.0660  204.6610  151.7870 C   0  0  0  0  0  2  0  0  0  0  0  0
  160.7340  203.8750  150.5290 C   0  0  0  0  0  2  0  0  0  0  0  0
  161.1890  203.4970  148.4030 C   0  0  0  0  0  1  0  0  0  0  0  0
  161.4020  204.4180  149.4280 O   0  0  0  0  0  0  0  0  0  0  0  0
  159.7640  209.4110  155.3720 O   0  0  0  0  0  1  0  0  0  0  0  0
  161.0040  209.9410  154.9860 C   0  0  1  0  0  0  0  0  0  0  0  0
  161.9500  208.6220  156.8750 C   0  0  0  0  0  2  0  0  0  0  0  0
  163.0810  210.7140  156.3960 C   0  0  0  0  0  1  0  0  0  0  0  0
  162.0040  209.7160  156.1090 C   0  0  0  0  0  0  0  0  0  0  0  0
  160.8710  211.4550  154.7710 C   0  0  0  0  0  2  0  0  0  0  0  0
  159.9470  212.1470  155.7620 C   0  0  2  0  0  3  0  0  0  0  0  0
  159.2510  211.1750  156.4830 O   0  0  0  0  0  1  0  0  0  0  0  0
  157.8500  212.2200  155.0360 C   0  0  0  0  0  1  0  0  0  0  0  0
  159.0380  212.9510  155.0670 O   0  0  0  0  0  0  0  0  0  0  0  0
  162.3400  210.6870  150.6450 C   0  0  0  0  0  2  0  0  0  0  0  0
  161.8880  211.0470  149.2320 C   0  0  2  0  0  3  0  0  0  0  0  0
  162.0640  209.9400  148.3990 O   0  0  0  0  0  1  0  0  0  0  0  0
  162.7480  212.1950  148.7250 C   0  0  0  0  0  2  0  0  0  0  0  0
  161.9030  213.2140  147.9670 C   0  0  2  0  0  3  0  0  0  0  0  0
  160.5010  213.2680  148.4860 C   0  0  0  0  0  0  0  0  0  0  0  0
  160.2590  213.8930  149.5500 O   0  0  0  0  0  1  0  0  0  0  0  0
  159.4610  212.6750  147.7820 O   0  0  0  0  0  0  0  0  0  0  0  0
  161.9530  213.0070  146.4520 C   0  0  0  0  0  2  0  0  0  0  0  0
  160.6440  213.3790  145.7720 C   0  0  0  0  0  2  0  0  0  0  0  0
  160.7480  213.0950  144.2870 C   0  0  0  0  0  2  0  0  0  0  0  0
  162.4900  213.0560  143.7750 S   0  0  0  0  0  0  0  0  0  0  0  0
  162.0920  212.7040  142.0390 C   0  0  0  0  0  2  0  0  0  0  0  0
  160.5940  212.8230  141.8270 C   0  0  0  0  0  2  0  0  0  0  0  0
  160.2800  212.7940  140.3700 C   0  0  0  0  0  0  0  0  0  0  0  0
  159.4730  213.7240  139.8640 C   0  0  0  0  0  2  0  0  0  0  0  0
  160.8750  211.7910  139.5370 N   0  0  0  0  0  2  0  0  0  0  0  0
  160.1700  211.1620  138.4290 C   0  0  0  0  0  2  0  0  0  0  0  0
  162.2390  210.3300  137.3250 C   0  0  0  0  0  1  0  0  0  0  0  0
  160.9210  209.9310  137.9600 C   0  0  0  0  0  2  0  0  0  0  0  0
  1  2  2  0  0  0  0
  2  5  1  0  0  0  0
  3 15  1  1  0  0  0
  5  4  1  6  0  0  0
  5  6  1  0  0  0  0
  5  3  1  0  0  0  0
  6  7  1  6  0  0  0
  6  3  1  0  0  0  0
  7  8  2  0  0  0  0
  9 10  1  0  0  0  0
  9  7  1  0  0  0  0
 11 10  1  0  0  0  0
 12 13  1  0  0  0  0
 13 11  1  0  0  0  0
 15 14  1  1  0  0  0
 15 18  1  0  0  0  0
 18 17  1  0  0  0  0
 18 16  2  0  0  0  0
 19 15  1  0  0  0  0
 19 20  1  0  0  0  0
 20 21  1  6  0  0  0
 22 23  1  0  0  0  0
 23 20  1  0  0  0  0
 24  2  1  0  0  0  0
 25 26  1  6  0  0  0
 25 24  1  0  0  0  0
 27 25  1  0  0  0  0
 28 32  1  6  0  0  0
 28 29  1  0  0  0  0
 28 27  1  0  0  0  0
 29 30  1  0  0  0  0
 31 29  2  0  0  0  0
 33 32  1  0  0  0  0
 34 33  1  0  0  0  0
 35 34  1  0  0  0  0
 36 35  1  0  0  0  0
 37 36  1  0  0  0  0
 38 37  1  0  0  0  0
 39 38  2  0  0  0  0
 40 38  1  0  0  0  0
 41 40  1  0  0  0  0
 42 43  1  0  0  0  0
 43 41  1  0  0  0  0
M  END
>  <MODEL>
7

>  <REMARK>
 VINA RESULT:      -3.6      3.963      8.875
  Name = 
  26 active torsions:
  status: ('A' for Active; 'I' for Inactive)
    1  A    between atoms: C_1  and  C_2
    2  A    between atoms: C_1  and  C_12
    3  A    between atoms: C_2  and  C_19
    4  A    between atoms: C_4  and  C_34
    5  A    between atoms: C_5  and  N_30
    6  A    between atoms: C_5  and  C_32
    7  A    between atoms: C_9  and  C_24
    8  A    between atoms: C_9  and  C_29
    9  A    between atoms: C_10  and  C_29
   10  A    between atoms: C_12  and  C_35
   11  A    between atoms: C_13  and  C_36
   12  A    between atoms: C_14  and  C_22
   13  A    between atoms: C_14  and  C_29
   14  A    between atoms: C_15  and  C_22
   15  A    between atoms: C_15  and  S_37
   16  A    between atoms: O_17  and  C_41
   17  A    between atoms: C_19  and  O_21
   18  A    between atoms: C_20  and  C_24
   19  A    between atoms: C_20  and  C_36
   20  A    between atoms: C_25  and  C_34
   21  A    between atoms: C_25  and  C_41
   22  A    between atoms: N_30  and  C_43
   23  A    between atoms: C_31  and  C_32
   24  A    between atoms: C_31  and  S_37
   25  A    between atoms: C_34  and  C_39
   26  A    between atoms: C_40  and  C_43
                            x       y       z     vdW  Elec       q    Type
                         _______ _______ _______ _____ _____    ______ ____

>  <TORSDO>
F 26

$$$$
=
 OpenBabel11072413353D

 43 43  0  0  1  0  0  0  0  0999 V2000
  161.0880  211.3200  150.1880 O   0  0  0  0  0  0  0  0  0  0  0  0
  160.7430  210.9700  151.3070 C   0  0  0  0  0  0  0  0  0  0  0  0
  158.7300  212.3370  152.0930 C   0  0  2  0  0  3  0  0  0  0  0  0
  160.8010  211.9650  153.6830 C   0  0  0  0  0  1  0  0  0  0  0  0
  160.2110  211.9900  152.2830 C   0  0  1  0  0  0  0  0  0  0  0  0
  159.8090  213.3830  151.7830 C   0  0  1  0  0  3  0  0  0  0  0  0
  160.0040  213.5950  150.2990 C   0  0  0  0  0  0  0  0  0  0  0  0
  158.9610  213.8710  149.5110 C   0  0  0  0  0  2  0  0  0  0  0  0
  161.3640  214.0200  149.8440 C   0  0  0  0  0  2  0  0  0  0  0  0
  161.3860  214.2990  148.3500 C   0  0  0  0  0  2  0  0  0  0  0  0
  162.6820  213.8190  147.7180 C   0  0  0  0  0  2  0  0  0  0  0  0
  162.2540  213.6230  145.5620 C   0  0  0  0  0  1  0  0  0  0  0  0
  162.8850  214.4520  146.4890 O   0  0  0  0  0  0  0  0  0  0  0  0
  158.5690  213.4190  154.3000 O   0  0  0  0  0  1  0  0  0  0  0  0
  157.8420  212.7560  153.3000 C   0  0  1  0  0  0  0  0  0  0  0  0
  156.0480  214.4520  153.6270 C   0  0  0  0  0  2  0  0  0  0  0  0
  156.4270  213.7660  151.3320 C   0  0  0  0  0  1  0  0  0  0  0  0
  156.7520  213.6840  152.7890 C   0  0  0  0  0  0  0  0  0  0  0  0
  157.1630  211.5160  153.8970 C   0  0  0  0  0  2  0  0  0  0  0  0
  157.7000  211.1040  155.2590 C   0  0  2  0  0  3  0  0  0  0  0  0
  158.8030  210.2680  155.0740 O   0  0  0  0  0  1  0  0  0  0  0  0
  155.9170  211.4080  156.5470 C   0  0  0  0  0  1  0  0  0  0  0  0
  156.7070  210.4160  155.9630 O   0  0  0  0  0  0  0  0  0  0  0  0
  160.6980  209.5080  151.6660 C   0  0  0  0  0  2  0  0  0  0  0  0
  161.5900  208.6440  150.7780 C   0  0  2  0  0  3  0  0  0  0  0  0
  160.8010  208.0040  149.8200 O   0  0  0  0  0  1  0  0  0  0  0  0
  162.2700  207.5970  151.6470 C   0  0  0  0  0  2  0  0  0  0  0  0
  161.2670  206.5490  152.1200 C   0  0  2  0  0  3  0  0  0  0  0  0
  161.1030  206.5700  153.6060 C   0  0  0  0  0  0  0  0  0  0  0  0
  161.5030  205.5900  154.2870 O   0  0  0  0  0  1  0  0  0  0  0  0
  160.5580  207.6760  154.2450 O   0  0  0  0  0  0  0  0  0  0  0  0
  161.5890  205.1500  151.5910 C   0  0  0  0  0  2  0  0  0  0  0  0
  160.4300  204.1810  151.7710 C   0  0  0  0  0  2  0  0  0  0  0  0
  160.3450  203.2650  150.5670 C   0  0  0  0  0  2  0  0  0  0  0  0
  161.3400  203.9310  149.2010 S   0  0  0  0  0  0  0  0  0  0  0  0
  160.9030  202.5790  148.0700 C   0  0  0  0  0  2  0  0  0  0  0  0
  161.6150  202.7750  146.7440 C   0  0  0  0  0  2  0  0  0  0  0  0
  160.6460  202.6490  145.6200 C   0  0  0  0  0  0  0  0  0  0  0  0
  160.1610  201.4480  145.3160 C   0  0  0  0  0  2  0  0  0  0  0  0
  160.2300  203.8220  144.9090 N   0  0  0  0  0  2  0  0  0  0  0  0
  161.1680  204.7480  144.2910 C   0  0  0  0  0  2  0  0  0  0  0  0
  160.4230  206.1200  146.2290 C   0  0  0  0  0  1  0  0  0  0  0  0
  160.9290  206.1570  144.8000 C   0  0  0  0  0  2  0  0  0  0  0  0
  1  2  2  0  0  0  0
  2 24  1  0  0  0  0
  2  5  1  0  0  0  0
  3  5  1  0  0  0  0
  3 15  1  1  0  0  0
  5  4  1  1  0  0  0
  6  7  1  6  0  0  0
  6  3  1  0  0  0  0
  6  5  1  0  0  0  0
  8  7  2  0  0  0  0
  9  7  1  0  0  0  0
 10  9  1  0  0  0  0
 11 10  1  0  0  0  0
 12 13  1  0  0  0  0
 13 11  1  0  0  0  0
 15 19  1  0  0  0  0
 15 14  1  1  0  0  0
 17 18  1  0  0  0  0
 18 15  1  0  0  0  0
 18 16  2  0  0  0  0
 19 20  1  0  0  0  0
 20 21  1  6  0  0  0
 20 23  1  0  0  0  0
 23 22  1  0  0  0  0
 25 26  1  6  0  0  0
 25 27  1  0  0  0  0
 25 24  1  0  0  0  0
 27 28  1  0  0  0  0
 28 32  1  1  0  0  0
 28 29  1  0  0  0  0
 29 31  2  0  0  0  0
 29 30  1  0  0  0  0
 32 33  1  0  0  0  0
 34 33  1  0  0  0  0
 35 34  1  0  0  0  0
 36 35  1  0  0  0  0
 37 36  1  0  0  0  0
 38 37  1  0  0  0  0
 39 38  2  0  0  0  0
 40 38  1  0  0  0  0
 41 43  1  0  0  0  0
 41 40  1  0  0  0  0
 43 42  1  0  0  0  0
M  END
>  <MODEL>
8

>  <REMARK>
 VINA RESULT:      -3.4      3.262      8.402
  Name = 
  26 active torsions:
  status: ('A' for Active; 'I' for Inactive)
    1  A    between atoms: C_1  and  C_2
    2  A    between atoms: C_1  and  C_12
    3  A    between atoms: C_2  and  C_19
    4  A    between atoms: C_4  and  C_34
    5  A    between atoms: C_5  and  N_30
    6  A    between atoms: C_5  and  C_32
    7  A    between atoms: C_9  and  C_24
    8  A    between atoms: C_9  and  C_29
    9  A    between atoms: C_10  and  C_29
   10  A    between atoms: C_12  and  C_35
   11  A    between atoms: C_13  and  C_36
   12  A    between atoms: C_14  and  C_22
   13  A    between atoms: C_14  and  C_29
   14  A    between atoms: C_15  and  C_22
   15  A    between atoms: C_15  and  S_37
   16  A    between atoms: O_17  and  C_41
   17  A    between atoms: C_19  and  O_21
   18  A    between atoms: C_20  and  C_24
   19  A    between atoms: C_20  and  C_36
   20  A    between atoms: C_25  and  C_34
   21  A    between atoms: C_25  and  C_41
   22  A    between atoms: N_30  and  C_43
   23  A    between atoms: C_31  and  C_32
   24  A    between atoms: C_31  and  S_37
   25  A    between atoms: C_34  and  C_39
   26  A    between atoms: C_40  and  C_43
                            x       y       z     vdW  Elec       q    Type
                         _______ _______ _______ _____ _____    ______ ____

>  <TORSDO>
F 26

$$$$
=
 OpenBabel11072413353D

 43 43  0  0  1  0  0  0  0  0999 V2000
  159.1070  210.9610  152.3710 O   0  0  0  0  0  0  0  0  0  0  0  0
  159.8920  211.6920  152.9570 C   0  0  0  0  0  0  0  0  0  0  0  0
  157.8580  212.9870  153.8080 C   0  0  2  0  0  3  0  0  0  0  0  0
  160.0850  212.9110  155.2190 C   0  0  0  0  0  1  0  0  0  0  0  0
  159.3730  212.7620  153.8850 C   0  0  1  0  0  0  0  0  0  0  0  0
  158.8210  214.0700  153.3040 C   0  0  1  0  0  3  0  0  0  0  0  0
  158.8660  214.1530  151.7960 C   0  0  0  0  0  0  0  0  0  0  0  0
  160.0270  214.3380  151.1610 C   0  0  0  0  0  2  0  0  0  0  0  0
  157.7460  213.5070  151.0440 C   0  0  0  0  0  2  0  0  0  0  0  0
  157.5260  214.1750  149.6960 C   0  0  0  0  0  2  0  0  0  0  0  0
  157.7850  213.2070  148.5530 C   0  0  0  0  0  2  0  0  0  0  0  0
  159.0090  212.9760  146.7320 C   0  0  0  0  0  1  0  0  0  0  0  0
  158.2270  213.9000  147.4230 O   0  0  0  0  0  0  0  0  0  0  0  0
  157.7190  214.4520  155.7840 O   0  0  0  0  0  1  0  0  0  0  0  0
  157.0520  213.4580  155.0530 C   0  0  1  0  0  0  0  0  0  0  0  0
  155.5610  214.4530  153.3240 C   0  0  0  0  0  2  0  0  0  0  0  0
  154.5400  214.0840  155.4930 C   0  0  0  0  0  1  0  0  0  0  0  0
  155.7190  214.0110  154.5760 C   0  0  0  0  0  0  0  0  0  0  0  0
  156.7630  212.2570  155.9650 C   0  0  0  0  0  2  0  0  0  0  0  0
  156.9770  210.9050  155.3040 C   0  0  2  0  0  3  0  0  0  0  0  0
  155.7320  210.3230  155.0570 O   0  0  0  0  0  1  0  0  0  0  0  0
  158.7190  210.8960  156.6820 C   0  0  0  0  0  1  0  0  0  0  0  0
  157.7140  210.0800  156.1600 O   0  0  0  0  0  0  0  0  0  0  0  0
  161.3730  211.4340  152.8800 C   0  0  0  0  0  2  0  0  0  0  0  0
  161.7250  210.2020  152.0490 C   0  0  2  0  0  3  0  0  0  0  0  0
  161.1970  210.3490  150.7650 O   0  0  0  0  0  1  0  0  0  0  0  0
  161.1050  208.9790  152.7080 C   0  0  0  0  0  2  0  0  0  0  0  0
  161.3780  207.7220  151.8890 C   0  0  2  0  0  3  0  0  0  0  0  0
  161.2180  206.4810  152.7070 C   0  0  0  0  0  0  0  0  0  0  0  0
  161.2450  205.3580  152.1400 O   0  0  0  0  0  0  0  0  0  0  0  0
  161.0850  206.5520  154.0870 O   0  0  0  0  0  1  0  0  0  0  0  0
  162.7280  207.7730  151.1710 C   0  0  0  0  0  2  0  0  0  0  0  0
  162.6310  207.3240  149.7200 C   0  0  0  0  0  2  0  0  0  0  0  0
  161.2690  207.6940  149.1670 C   0  0  0  0  0  2  0  0  0  0  0  0
  160.4990  206.2510  148.3780 S   0  0  0  0  0  0  0  0  0  0  0  0
  161.2580  206.5840  146.7630 C   0  0  0  0  0  2  0  0  0  0  0  0
  160.7670  205.5650  145.7510 C   0  0  0  0  0  2  0  0  0  0  0  0
  161.5850  204.3230  145.8370 C   0  0  0  0  0  0  0  0  0  0  0  0
  162.7980  204.3080  145.2890 C   0  0  0  0  0  2  0  0  0  0  0  0
  161.0690  203.1810  146.5330 N   0  0  0  0  0  2  0  0  0  0  0  0
  161.7170  202.6070  147.7030 C   0  0  0  0  0  2  0  0  0  0  0  0
  160.2190  201.1900  149.0970 C   0  0  0  0  0  1  0  0  0  0  0  0
  161.2090  201.1990  147.9480 C   0  0  0  0  0  2  0  0  0  0  0  0
  1  2  2  0  0  0  0
  2  5  1  0  0  0  0
  3  5  1  0  0  0  0
  3 15  1  1  0  0  0
  5  4  1  1  0  0  0
  6  7  1  6  0  0  0
  6  3  1  0  0  0  0
  6  5  1  0  0  0  0
  8  7  2  0  0  0  0
  9  7  1  0  0  0  0
 10  9  1  0  0  0  0
 11 10  1  0  0  0  0
 12 13  1  0  0  0  0
 13 11  1  0  0  0  0
 15 14  1  1  0  0  0
 15 19  1  0  0  0  0
 16 18  2  0  0  0  0
 18 15  1  0  0  0  0
 18 17  1  0  0  0  0
 20 21  1  1  0  0  0
 20 19  1  0  0  0  0
 20 23  1  0  0  0  0
 23 22  1  0  0  0  0
 24  2  1  0  0  0  0
 25 26  1  6  0  0  0
 25 27  1  0  0  0  0
 25 24  1  0  0  0  0
 28 32  1  1  0  0  0
 28 29  1  0  0  0  0
 28 27  1  0  0  0  0
 29 31  1  0  0  0  0
 30 29  2  0  0  0  0
 33 32  1  0  0  0  0
 34 33  1  0  0  0  0
 35 34  1  0  0  0  0
 36 35  1  0  0  0  0
 37 38  1  0  0  0  0
 37 36  1  0  0  0  0
 38 40  1  0  0  0  0
 39 38  2  0  0  0  0
 40 41  1  0  0  0  0
 41 43  1  0  0  0  0
 43 42  1  0  0  0  0
M  END
>  <MODEL>
9

>  <REMARK>
 VINA RESULT:      -3.4      3.231      9.037
  Name = 
  26 active torsions:
  status: ('A' for Active; 'I' for Inactive)
    1  A    between atoms: C_1  and  C_2
    2  A    between atoms: C_1  and  C_12
    3  A    between atoms: C_2  and  C_19
    4  A    between atoms: C_4  and  C_34
    5  A    between atoms: C_5  and  N_30
    6  A    between atoms: C_5  and  C_32
    7  A    between atoms: C_9  and  C_24
    8  A    between atoms: C_9  and  C_29
    9  A    between atoms: C_10  and  C_29
   10  A    between atoms: C_12  and  C_35
   11  A    between atoms: C_13  and  C_36
   12  A    between atoms: C_14  and  C_22
   13  A    between atoms: C_14  and  C_29
   14  A    between atoms: C_15  and  C_22
   15  A    between atoms: C_15  and  S_37
   16  A    between atoms: O_17  and  C_41
   17  A    between atoms: C_19  and  O_21
   18  A    between atoms: C_20  and  C_24
   19  A    between atoms: C_20  and  C_36
   20  A    between atoms: C_25  and  C_34
   21  A    between atoms: C_25  and  C_41
   22  A    between atoms: N_30  and  C_43
   23  A    between atoms: C_31  and  C_32
   24  A    between atoms: C_31  and  S_37
   25  A    between atoms: C_34  and  C_39
   26  A    between atoms: C_40  and  C_43
                            x       y       z     vdW  Elec       q    Type
                         _______ _______ _______ _____ _____    ______ ____

>  <TORSDO>
F 26

$$$$
