=
 OpenBabel11072410273D

 32 36  0  0  1  0  0  0  0  0999 V2000
  161.1160  207.5880  152.4910 C   0  0  0  0  0  0  0  0  0  0  0  0
  161.2180  205.1410  152.5140 O   0  0  0  0  0  1  0  0  0  0  0  0
  161.2560  208.7940  151.7500 C   0  0  0  0  0  0  0  0  0  0  0  0
  161.6070  208.7410  150.3960 C   0  0  0  0  0  3  0  0  0  0  0  0
  160.6930  210.1020  153.7340 C   0  0  0  0  0  0  0  0  0  0  0  0
  160.5600  208.9050  154.4490 C   0  0  0  0  0  0  0  0  0  0  0  0
  160.7620  207.6840  153.8510 C   0  0  0  0  0  0  0  0  0  0  0  0
  161.1820  211.2200  151.6410 O   0  0  0  0  0  1  0  0  0  0  0  0
  160.1920  208.7750  155.8770 C   0  0  0  0  0  2  0  0  0  0  0  0
  161.0450  210.0430  152.3730 C   0  0  0  0  0  0  0  0  0  0  0  0
  161.3380  206.3510  151.8410 C   0  0  0  0  0  0  0  0  0  0  0  0
  160.5590  206.5740  154.8160 C   0  0  0  0  0  3  0  0  0  0  0  0
  161.8170  207.5140  149.7650 C   0  0  0  0  0  0  0  0  0  0  0  0
  161.6870  206.3270  150.4880 C   0  0  0  0  0  3  0  0  0  0  0  0
  160.2010  207.2670  156.1350 C   0  0  0  0  0  3  0  0  0  0  0  0
  160.4970  211.4240  154.4110 C   0  0  0  0  0  2  0  0  0  0  0  0
  156.8460  212.3180  154.2690 N   0  0  0  0  0  0  0  0  0  0  0  0
  157.9320  211.6130  154.7060 C   0  0  0  0  0  0  0  0  0  0  0  0
  157.1190  213.2420  153.3500 N   0  0  0  0  0  0  0  0  0  0  0  0
  157.8240  210.6390  155.6420 F   0  0  0  0  0  0  0  0  0  0  0  0
  158.7530  213.2000  153.0580 S   0  0  0  0  0  0  0  0  0  0  0  0
  159.1390  211.9710  154.1160 C   0  0  0  0  0  0  0  0  0  0  0  0
  162.2100  207.4730  148.3300 C   0  0  0  0  0  2  0  0  0  0  0  0
  161.1110  206.8230  147.5080 C   0  0  0  0  0  2  0  0  0  0  0  0
  160.9660  204.4060  144.5550 C   0  0  0  0  0  2  0  0  0  0  0  0
  162.0910  203.8250  147.3530 C   0  0  0  0  0  3  0  0  0  0  0  0
  160.1290  202.2010  144.8160 O   0  0  0  0  0  0  0  0  0  0  0  0
  161.2570  202.9890  146.7270 C   0  0  0  0  0  3  0  0  0  0  0  0
  160.5700  205.6160  145.3900 C   0  0  0  0  0  2  0  0  0  0  0  0
  160.7630  203.1490  145.3450 C   0  0  0  0  0  0  0  0  0  0  0  0
  161.7010  206.1120  146.2990 C   0  0  2  0  0  3  0  0  0  0  0  0
  162.7130  205.0330  146.7140 C   0  0  0  0  0  2  0  0  0  0  0  0
  1  7  1  0  0  0  0
  3 10  1  0  0  0  0
  3  1  2  0  0  0  0
  4  3  1  0  0  0  0
  5 16  1  0  0  0  0
  5  6  1  0  0  0  0
  6  9  1  0  0  0  0
  7  6  2  0  0  0  0
  7 12  1  0  0  0  0
  8 10  1  0  0  0  0
  9 15  1  0  0  0  0
 10  5  2  0  0  0  0
 11  1  1  0  0  0  0
 11  2  1  0  0  0  0
 12 15  2  0  0  0  0
 13  4  2  0  0  0  0
 13 14  1  0  0  0  0
 14 11  2  0  0  0  0
 17 18  1  0  0  0  0
 18 20  1  0  0  0  0
 19 17  2  0  0  0  0
 21 19  1  0  0  0  0
 21 22  1  0  0  0  0
 22 16  1  0  0  0  0
 22 18  2  0  0  0  0
 23 13  1  0  0  0  0
 24 23  1  0  0  0  0
 25 30  1  0  0  0  0
 25 29  1  0  0  0  0
 27 30  2  0  0  0  0
 28 26  2  0  0  0  0
 29 31  1  0  0  0  0
 30 28  1  0  0  0  0
 31 32  1  0  0  0  0
 31 24  1  1  0  0  0
 32 26  1  0  0  0  0
M  END
>  <MODEL>
1

>  <REMARK>
 VINA RESULT:      -9.8      0.000      0.000
  Name = 
  5 active torsions:
  status: ('A' for Active; 'I' for Inactive)
    1  A    between atoms: C_4  and  C_12
    2  A    between atoms: C_4  and  C_32
    3  A    between atoms: C_6  and  C_23
    4  A    between atoms: C_6  and  C_25
    5  A    between atoms: C_25  and  C_28
                            x       y       z     vdW  Elec       q    Type
                         _______ _______ _______ _____ _____    ______ ____

>  <TORSDO>
F 5

$$$$
=
 OpenBabel11072410273D

 32 36  0  0  1  0  0  0  0  0999 V2000
  161.0080  206.8820  152.4510 C   0  0  0  0  0  0  0  0  0  0  0  0
  160.8560  204.5080  153.0300 O   0  0  0  0  0  1  0  0  0  0  0  0
  161.0990  207.8730  151.4340 C   0  0  0  0  0  0  0  0  0  0  0  0
  161.1220  207.4870  150.0900 C   0  0  0  0  0  3  0  0  0  0  0  0
  161.1470  209.6340  153.1250 C   0  0  0  0  0  0  0  0  0  0  0  0
  161.0570  208.6460  154.1140 C   0  0  0  0  0  0  0  0  0  0  0  0
  160.9880  207.3120  153.7930 C   0  0  0  0  0  0  0  0  0  0  0  0
  161.2560  210.2050  150.7740 O   0  0  0  0  0  1  0  0  0  0  0  0
  161.0160  208.8730  155.5770 C   0  0  0  0  0  2  0  0  0  0  0  0
  161.1690  209.2410  151.7750 C   0  0  0  0  0  0  0  0  0  0  0  0
  160.9430  205.5190  152.0810 C   0  0  0  0  0  0  0  0  0  0  0  0
  160.8970  206.4710  155.0130 C   0  0  0  0  0  3  0  0  0  0  0  0
  161.0520  206.1390  149.7370 C   0  0  0  0  0  0  0  0  0  0  0  0
  160.9690  205.1620  150.7300 C   0  0  0  0  0  3  0  0  0  0  0  0
  160.9260  207.4690  156.1750 C   0  0  0  0  0  3  0  0  0  0  0  0
  161.2510  211.0820  153.4960 C   0  0  0  0  0  2  0  0  0  0  0  0
  158.1580  213.0410  152.6360 N   0  0  0  0  0  0  0  0  0  0  0  0
  159.4510  212.6310  152.4670 C   0  0  0  0  0  0  0  0  0  0  0  0
  157.5440  212.5160  153.6940 N   0  0  0  0  0  0  0  0  0  0  0  0
  160.2130  213.0710  151.4370 F   0  0  0  0  0  0  0  0  0  0  0  0
  158.6200  211.5080  154.4560 S   0  0  0  0  0  0  0  0  0  0  0  0
  159.9130  211.7410  153.4300 C   0  0  0  0  0  0  0  0  0  0  0  0
  161.0990  205.7410  148.3030 C   0  0  0  0  0  2  0  0  0  0  0  0
  162.2560  206.4400  147.6080 C   0  0  0  0  0  2  0  0  0  0  0  0
  160.6910  205.1220  144.3840 C   0  0  0  0  0  2  0  0  0  0  0  0
  162.4650  203.5550  146.3410 C   0  0  0  0  0  3  0  0  0  0  0  0
  159.5160  203.0610  144.3450 O   0  0  0  0  0  0  0  0  0  0  0  0
  161.3180  203.0640  145.8610 C   0  0  0  0  0  3  0  0  0  0  0  0
  160.8430  206.0410  145.5890 C   0  0  0  0  0  2  0  0  0  0  0  0
  160.4720  203.7120  144.8390 C   0  0  0  0  0  0  0  0  0  0  0  0
  162.2770  206.0880  146.1280 C   0  0  2  0  0  3  0  0  0  0  0  0
  163.1080  204.8230  145.8580 C   0  0  0  0  0  2  0  0  0  0  0  0
  1  7  1  0  0  0  0
  3 10  1  0  0  0  0
  3  1  2  0  0  0  0
  4  3  1  0  0  0  0
  5 16  1  0  0  0  0
  5  6  1  0  0  0  0
  6  9  1  0  0  0  0
  7  6  2  0  0  0  0
  7 12  1  0  0  0  0
  8 10  1  0  0  0  0
  9 15  1  0  0  0  0
 10  5  2  0  0  0  0
 11  1  1  0  0  0  0
 11  2  1  0  0  0  0
 12 15  2  0  0  0  0
 13  4  2  0  0  0  0
 13 14  1  0  0  0  0
 14 11  2  0  0  0  0
 17 19  2  0  0  0  0
 18 17  1  0  0  0  0
 18 22  2  0  0  0  0
 19 21  1  0  0  0  0
 20 18  1  0  0  0  0
 22 16  1  0  0  0  0
 22 21  1  0  0  0  0
 23 13  1  0  0  0  0
 24 23  1  0  0  0  0
 25 30  1  0  0  0  0
 25 29  1  0  0  0  0
 27 30  2  0  0  0  0
 28 26  2  0  0  0  0
 29 31  1  0  0  0  0
 30 28  1  0  0  0  0
 31 24  1  1  0  0  0
 32 31  1  0  0  0  0
 32 26  1  0  0  0  0
M  END
>  <MODEL>
2

>  <REMARK>
 VINA RESULT:      -8.9      1.418      1.561
  Name = 
  5 active torsions:
  status: ('A' for Active; 'I' for Inactive)
    1  A    between atoms: C_4  and  C_12
    2  A    between atoms: C_4  and  C_32
    3  A    between atoms: C_6  and  C_23
    4  A    between atoms: C_6  and  C_25
    5  A    between atoms: C_25  and  C_28
                            x       y       z     vdW  Elec       q    Type
                         _______ _______ _______ _____ _____    ______ ____

>  <TORSDO>
F 5

$$$$
=
 OpenBabel11072410273D

 32 36  0  0  1  0  0  0  0  0999 V2000
  161.2180  204.9410  150.2760 C   0  0  0  0  0  0  0  0  0  0  0  0
  160.4760  204.3930  152.5450 O   0  0  0  0  0  1  0  0  0  0  0  0
  161.6150  205.9410  149.3450 C   0  0  0  0  0  0  0  0  0  0  0  0
  161.6610  207.2810  149.7430 C   0  0  0  0  0  3  0  0  0  0  0  0
  161.9150  204.2410  147.6170 C   0  0  0  0  0  0  0  0  0  0  0  0
  161.5220  203.2690  148.5460 C   0  0  0  0  0  0  0  0  0  0  0  0
  161.1840  203.6030  149.8360 C   0  0  2  0  0  3  0  0  0  0  0  0
  162.3500  206.5710  147.1170 O   0  0  0  0  0  1  0  0  0  0  0  0
  161.4220  201.8130  148.3000 C   0  0  0  0  0  3  0  0  0  0  0  0
  161.9600  205.5880  148.0230 C   0  0  0  0  0  0  0  0  0  0  0  0
  160.8740  205.3250  151.5930 C   0  0  0  0  0  0  0  0  0  0  0  0
  160.8070  202.4000  150.6200 C   0  0  0  0  0  3  0  0  0  0  0  0
  161.3250  207.6460  151.0470 C   0  0  0  0  0  0  0  0  0  0  0  0
  160.9280  206.6710  151.9640 C   0  0  0  0  0  3  0  0  0  0  0  0
  160.9460  201.2350  149.6340 C   0  0  0  0  0  3  0  0  0  0  0  0
  162.2500  203.8610  146.2080 C   0  0  0  0  0  2  0  0  0  0  0  0
  159.1670  203.7810  144.0550 N   0  0  0  0  0  0  0  0  0  0  0  0
  160.2200  204.3790  144.6870 C   0  0  0  0  0  0  0  0  0  0  0  0
  159.0720  202.4690  144.2580 N   0  0  0  0  0  0  0  0  0  0  0  0
  160.4590  205.7090  144.5800 F   0  0  0  0  0  0  0  0  0  0  0  0
  160.3250  202.0170  145.2500 S   0  0  0  0  0  0  0  0  0  0  0  0
  161.0130  203.5230  145.4430 C   0  0  0  0  0  0  0  0  0  0  0  0
  161.3580  209.0790  151.4510 C   0  0  0  0  0  2  0  0  0  0  0  0
  161.0660  209.2070  152.9370 C   0  0  0  0  0  2  0  0  0  0  0  0
  160.2850  212.1130  155.2880 C   0  0  0  0  0  2  0  0  0  0  0  0
  158.7510  211.3440  152.7400 C   0  0  0  0  0  3  0  0  0  0  0  0
  158.0820  212.4870  156.0820 O   0  0  0  0  0  0  0  0  0  0  0  0
  158.1350  211.6180  153.8950 C   0  0  0  0  0  3  0  0  0  0  0  0
  160.8690  210.7680  154.8750 C   0  0  0  0  0  2  0  0  0  0  0  0
  158.7960  212.0970  155.1250 C   0  0  0  0  0  0  0  0  0  0  0  0
  161.1260  210.6650  153.3670 C   0  0  2  0  0  3  0  0  0  0  0  0
  160.2180  211.5500  152.4970 C   0  0  0  0  0  2  0  0  0  0  0  0
  1 11  2  0  0  0  0
  3  4  2  0  0  0  0
  3  1  1  0  0  0  0
  4 13  1  0  0  0  0
  5 10  2  0  0  0  0
  5  6  1  0  0  0  0
  6  7  1  0  0  0  0
  7  1  1  0  0  0  0
  7 12  1  6  0  0  0
  8 10  1  0  0  0  0
  9  6  2  0  0  0  0
  9 15  1  0  0  0  0
 10  3  1  0  0  0  0
 11 14  1  0  0  0  0
 11  2  1  0  0  0  0
 13 23  1  0  0  0  0
 13 14  2  0  0  0  0
 15 12  2  0  0  0  0
 16  5  1  0  0  0  0
 17 19  2  0  0  0  0
 17 18  1  0  0  0  0
 18 22  2  0  0  0  0
 19 21  1  0  0  0  0
 20 18  1  0  0  0  0
 21 22  1  0  0  0  0
 22 16  1  0  0  0  0
 23 24  1  0  0  0  0
 26 28  2  0  0  0  0
 28 30  1  0  0  0  0
 29 25  1  0  0  0  0
 30 25  1  0  0  0  0
 30 27  2  0  0  0  0
 31 24  1  6  0  0  0
 31 29  1  0  0  0  0
 32 26  1  0  0  0  0
 32 31  1  0  0  0  0
M  END
>  <MODEL>
3

>  <REMARK>
 VINA RESULT:      -8.6      5.147      9.386
  Name = 
  5 active torsions:
  status: ('A' for Active; 'I' for Inactive)
    1  A    between atoms: C_4  and  C_12
    2  A    between atoms: C_4  and  C_32
    3  A    between atoms: C_6  and  C_23
    4  A    between atoms: C_6  and  C_25
    5  A    between atoms: C_25  and  C_28
                            x       y       z     vdW  Elec       q    Type
                         _______ _______ _______ _____ _____    ______ ____

>  <TORSDO>
F 5

$$$$
=
 OpenBabel11072410273D

 32 36  0  0  1  0  0  0  0  0999 V2000
  161.3370  205.7390  149.8400 C   0  0  0  0  0  0  0  0  0  0  0  0
  160.5040  205.8800  152.1390 O   0  0  0  0  0  1  0  0  0  0  0  0
  161.8610  206.4150  148.7030 C   0  0  0  0  0  0  0  0  0  0  0  0
  162.0560  207.8000  148.7480 C   0  0  0  0  0  3  0  0  0  0  0  0
  161.9870  204.3040  147.4810 C   0  0  0  0  0  0  0  0  0  0  0  0
  161.4710  203.6540  148.6090 C   0  0  0  0  0  0  0  0  0  0  0  0
  161.1550  204.3450  149.7550 C   0  0  1  0  0  3  0  0  0  0  0  0
  162.6960  206.3650  146.4230 O   0  0  0  0  0  1  0  0  0  0  0  0
  161.2060  202.2030  148.7390 C   0  0  0  0  0  3  0  0  0  0  0  0
  162.1820  205.6970  147.5320 C   0  0  0  0  0  0  0  0  0  0  0  0
  161.0210  206.4850  150.9990 C   0  0  0  0  0  0  0  0  0  0  0  0
  160.6300  203.4330  150.8030 C   0  0  0  0  0  3  0  0  0  0  0  0
  161.7450  208.5240  149.9000 C   0  0  0  0  0  0  0  0  0  0  0  0
  161.2250  207.8670  151.0170 C   0  0  0  0  0  3  0  0  0  0  0  0
  160.6470  202.0450  150.1540 C   0  0  0  0  0  3  0  0  0  0  0  0
  162.2970  203.5390  146.2320 C   0  0  0  0  0  2  0  0  0  0  0  0
  159.2200  202.2570  144.4900 N   0  0  0  0  0  0  0  0  0  0  0  0
  160.3470  202.1450  145.2550 C   0  0  0  0  0  0  0  0  0  0  0  0
  158.9810  203.4830  144.0320 N   0  0  0  0  0  0  0  0  0  0  0  0
  160.7300  200.9640  145.7990 F   0  0  0  0  0  0  0  0  0  0  0  0
  160.1930  204.4750  144.5830 S   0  0  0  0  0  0  0  0  0  0  0  0
  161.0610  203.3260  145.4220 C   0  0  0  0  0  0  0  0  0  0  0  0
  161.9380  209.9990  149.9260 C   0  0  0  0  0  2  0  0  0  0  0  0
  162.0390  210.5360  148.5070 C   0  0  0  0  0  2  0  0  0  0  0  0
  160.4510  213.9330  149.2250 C   0  0  0  0  0  2  0  0  0  0  0  0
  160.4340  212.4230  146.5500 C   0  0  0  0  0  3  0  0  0  0  0  0
  158.2190  214.4040  148.5730 O   0  0  0  0  0  0  0  0  0  0  0  0
  159.3320  212.9720  147.0720 C   0  0  0  0  0  3  0  0  0  0  0  0
  161.0140  212.5560  149.5540 C   0  0  0  0  0  2  0  0  0  0  0  0
  159.2860  213.8010  148.2920 C   0  0  0  0  0  0  0  0  0  0  0  0
  162.0200  212.0560  148.5110 C   0  0  2  0  0  3  0  0  0  0  0  0
  161.8180  212.6250  147.0970 C   0  0  0  0  0  2  0  0  0  0  0  0
  1 11  2  0  0  0  0
  3  4  2  0  0  0  0
  3  1  1  0  0  0  0
  4 13  1  0  0  0  0
  5 10  2  0  0  0  0
  5  6  1  0  0  0  0
  6  9  2  0  0  0  0
  6  7  1  0  0  0  0
  7  1  1  0  0  0  0
  7 12  1  1  0  0  0
  8 10  1  0  0  0  0
  9 15  1  0  0  0  0
 10  3  1  0  0  0  0
 11 14  1  0  0  0  0
 11  2  1  0  0  0  0
 13 23  1  0  0  0  0
 13 14  2  0  0  0  0
 15 12  2  0  0  0  0
 16  5  1  0  0  0  0
 17 18  1  0  0  0  0
 18 22  2  0  0  0  0
 18 20  1  0  0  0  0
 19 17  2  0  0  0  0
 19 21  1  0  0  0  0
 21 22  1  0  0  0  0
 22 16  1  0  0  0  0
 24 23  1  0  0  0  0
 25 29  1  0  0  0  0
 26 28  2  0  0  0  0
 26 32  1  0  0  0  0
 28 30  1  0  0  0  0
 30 27  2  0  0  0  0
 30 25  1  0  0  0  0
 31 24  1  6  0  0  0
 31 29  1  0  0  0  0
 32 31  1  0  0  0  0
M  END
>  <MODEL>
4

>  <REMARK>
 VINA RESULT:      -8.6      5.655      8.774
  Name = 
  5 active torsions:
  status: ('A' for Active; 'I' for Inactive)
    1  A    between atoms: C_4  and  C_12
    2  A    between atoms: C_4  and  C_32
    3  A    between atoms: C_6  and  C_23
    4  A    between atoms: C_6  and  C_25
    5  A    between atoms: C_25  and  C_28
                            x       y       z     vdW  Elec       q    Type
                         _______ _______ _______ _____ _____    ______ ____

>  <TORSDO>
F 5

$$$$
=
 OpenBabel11072410273D

 32 36  0  0  1  0  0  0  0  0999 V2000
  160.7160  209.1260  152.8440 C   0  0  0  0  0  0  0  0  0  0  0  0
  161.3530  209.0910  150.4790 O   0  0  0  0  0  1  0  0  0  0  0  0
  160.5460  208.4050  154.0580 C   0  0  2  0  0  3  0  0  0  0  0  0
  160.8310  207.0350  154.0980 C   0  0  0  0  0  3  0  0  0  0  0  0
  159.8000  210.4390  155.1850 C   0  0  0  0  0  0  0  0  0  0  0  0
  159.9730  211.1340  153.9820 C   0  0  0  0  0  0  0  0  0  0  0  0
  160.4170  210.5030  152.8450 C   0  0  0  0  0  0  0  0  0  0  0  0
  159.9270  208.3510  156.4060 O   0  0  0  0  0  1  0  0  0  0  0  0
  159.7250  212.5770  153.7610 C   0  0  0  0  0  3  0  0  0  0  0  0
  160.0890  209.0620  155.2200 C   0  0  0  0  0  0  0  0  0  0  0  0
  161.1710  208.4390  151.6940 C   0  0  0  0  0  0  0  0  0  0  0  0
  160.5180  211.4530  151.7080 C   0  0  0  0  0  3  0  0  0  0  0  0
  161.2860  206.3710  152.9580 C   0  0  0  0  0  0  0  0  0  0  0  0
  161.4480  207.0720  151.7620 C   0  0  0  0  0  3  0  0  0  0  0  0
  160.0620  212.7970  152.2850 C   0  0  0  0  0  3  0  0  0  0  0  0
  159.2870  211.1380  156.4060 C   0  0  0  0  0  2  0  0  0  0  0  0
  156.1840  213.2400  156.0750 N   0  0  0  0  0  0  0  0  0  0  0  0
  157.4700  212.9820  156.4610 C   0  0  0  0  0  0  0  0  0  0  0  0
  155.5760  212.2260  155.4620 N   0  0  0  0  0  0  0  0  0  0  0  0
  158.2280  213.9090  157.0940 F   0  0  0  0  0  0  0  0  0  0  0  0
  156.6500  210.9620  155.3860 S   0  0  0  0  0  0  0  0  0  0  0  0
  157.9270  211.7040  156.1580 C   0  0  0  0  0  0  0  0  0  0  0  0
  161.5650  204.9100  153.0100 C   0  0  0  0  0  2  0  0  0  0  0  0
  161.9550  204.4060  151.6300 C   0  0  0  0  0  2  0  0  0  0  0  0
  160.2640  201.7030  149.5300 C   0  0  0  0  0  2  0  0  0  0  0  0
  161.3190  204.4120  148.5380 C   0  0  0  0  0  3  0  0  0  0  0  0
  161.2060  200.9790  147.4760 O   0  0  0  0  0  0  0  0  0  0  0  0
  161.5810  203.2640  147.9050 C   0  0  0  0  0  3  0  0  0  0  0  0
  161.0340  202.2760  150.7130 C   0  0  0  0  0  2  0  0  0  0  0  0
  161.0210  201.9450  148.2600 C   0  0  0  0  0  0  0  0  0  0  0  0
  160.7610  203.7670  150.9400 C   0  0  2  0  0  3  0  0  0  0  0  0
  160.3510  204.5450  149.6780 C   0  0  0  0  0  2  0  0  0  0  0  0
  1  7  2  0  0  0  0
  1  3  1  0  0  0  0
  2 11  1  0  0  0  0
  3  4  1  6  0  0  0
  3 10  1  0  0  0  0
  5 10  2  0  0  0  0
  5 16  1  0  0  0  0
  6  5  1  0  0  0  0
  7  6  1  0  0  0  0
  9  6  2  0  0  0  0
 10  8  1  0  0  0  0
 11 14  2  0  0  0  0
 11  1  1  0  0  0  0
 12 15  2  0  0  0  0
 12  7  1  0  0  0  0
 13 23  1  0  0  0  0
 13  4  2  0  0  0  0
 14 13  1  0  0  0  0
 15  9  1  0  0  0  0
 17 18  1  0  0  0  0
 18 20  1  0  0  0  0
 19 17  2  0  0  0  0
 21 19  1  0  0  0  0
 21 22  1  0  0  0  0
 22 16  1  0  0  0  0
 22 18  2  0  0  0  0
 24 23  1  0  0  0  0
 25 29  1  0  0  0  0
 26 32  1  0  0  0  0
 27 30  2  0  0  0  0
 28 30  1  0  0  0  0
 28 26  2  0  0  0  0
 29 31  1  0  0  0  0
 30 25  1  0  0  0  0
 31 24  1  6  0  0  0
 32 31  1  0  0  0  0
M  END
>  <MODEL>
5

>  <REMARK>
 VINA RESULT:      -8.5      2.244      3.831
  Name = 
  5 active torsions:
  status: ('A' for Active; 'I' for Inactive)
    1  A    between atoms: C_4  and  C_12
    2  A    between atoms: C_4  and  C_32
    3  A    between atoms: C_6  and  C_23
    4  A    between atoms: C_6  and  C_25
    5  A    between atoms: C_25  and  C_28
                            x       y       z     vdW  Elec       q    Type
                         _______ _______ _______ _____ _____    ______ ____

>  <TORSDO>
F 5

$$$$
=
 OpenBabel11072410273D

 32 36  0  0  1  0  0  0  0  0999 V2000
  160.2500  209.9060  154.0990 C   0  0  0  0  0  0  0  0  0  0  0  0
  160.6720  207.9260  155.4760 O   0  0  0  0  0  1  0  0  0  0  0  0
  160.3360  210.5290  152.8230 C   0  0  0  0  0  0  0  0  0  0  0  0
  160.8880  209.8290  151.7450 C   0  0  0  0  0  3  0  0  0  0  0  0
  159.3170  212.5580  153.7220 C   0  0  0  0  0  0  0  0  0  0  0  0
  159.2390  211.9310  154.9710 C   0  0  0  0  0  0  0  0  0  0  0  0
  159.6890  210.6460  155.1590 C   0  0  0  0  0  0  0  0  0  0  0  0
  159.9570  212.4520  151.3880 O   0  0  0  0  0  1  0  0  0  0  0  0
  158.6850  212.5170  156.2130 C   0  0  0  0  0  2  0  0  0  0  0  0
  159.8710  211.8490  152.6400 C   0  0  0  0  0  0  0  0  0  0  0  0
  160.7280  208.5840  154.2530 C   0  0  0  0  0  0  0  0  0  0  0  0
  159.4950  210.2100  156.5660 C   0  0  0  0  0  3  0  0  0  0  0  0
  161.3500  208.5220  151.9080 C   0  0  0  0  0  0  0  0  0  0  0  0
  161.2740  207.9080  153.1600 C   0  0  0  0  0  3  0  0  0  0  0  0
  158.8560  211.4160  157.2610 C   0  0  0  0  0  3  0  0  0  0  0  0
  158.8490  213.9700  153.5440 C   0  0  0  0  0  2  0  0  0  0  0  0
  155.1400  214.0230  152.9190 N   0  0  0  0  0  0  0  0  0  0  0  0
  156.2650  213.9230  153.6900 C   0  0  0  0  0  0  0  0  0  0  0  0
  155.3720  214.1860  151.6190 N   0  0  0  0  0  0  0  0  0  0  0  0
  156.2010  213.7580  155.0330 F   0  0  0  0  0  0  0  0  0  0  0  0
  157.0170  214.2100  151.3960 S   0  0  0  0  0  0  0  0  0  0  0  0
  157.4630  214.0000  152.9890 C   0  0  0  0  0  0  0  0  0  0  0  0
  161.9530  207.7970  150.7580 C   0  0  0  0  0  2  0  0  0  0  0  0
  162.1620  206.3350  151.1160 C   0  0  0  0  0  2  0  0  0  0  0  0
  160.4310  203.1250  149.9830 C   0  0  0  0  0  2  0  0  0  0  0  0
  161.3380  205.4550  148.1980 C   0  0  0  0  0  3  0  0  0  0  0  0
  161.2690  201.8610  148.1580 O   0  0  0  0  0  0  0  0  0  0  0  0
  161.5970  204.1780  147.8990 C   0  0  0  0  0  3  0  0  0  0  0  0
  161.2540  204.0190  150.9020 C   0  0  0  0  0  2  0  0  0  0  0  0
  161.1020  203.0070  148.6480 C   0  0  0  0  0  0  0  0  0  0  0  0
  160.9480  205.5100  150.7160 C   0  0  2  0  0  3  0  0  0  0  0  0
  160.4380  205.8940  149.3170 C   0  0  0  0  0  2  0  0  0  0  0  0
  1 11  1  0  0  0  0
  1  7  1  0  0  0  0
  3  1  2  0  0  0  0
  4 13  2  0  0  0  0
  4  3  1  0  0  0  0
  5  6  1  0  0  0  0
  6  7  2  0  0  0  0
  6  9  1  0  0  0  0
  7 12  1  0  0  0  0
  8 10  1  0  0  0  0
  9 15  1  0  0  0  0
 10  3  1  0  0  0  0
 10  5  2  0  0  0  0
 11  2  1  0  0  0  0
 12 15  2  0  0  0  0
 13 14  1  0  0  0  0
 14 11  2  0  0  0  0
 16  5  1  0  0  0  0
 17 18  1  0  0  0  0
 18 20  1  0  0  0  0
 19 17  2  0  0  0  0
 21 19  1  0  0  0  0
 21 22  1  0  0  0  0
 22 16  1  0  0  0  0
 22 18  2  0  0  0  0
 23 24  1  0  0  0  0
 23 13  1  0  0  0  0
 25 29  1  0  0  0  0
 26 32  1  0  0  0  0
 27 30  2  0  0  0  0
 28 26  2  0  0  0  0
 28 30  1  0  0  0  0
 30 25  1  0  0  0  0
 31 29  1  0  0  0  0
 31 24  1  6  0  0  0
 32 31  1  0  0  0  0
M  END
>  <MODEL>
6

>  <REMARK>
 VINA RESULT:      -8.5      2.064      3.371
  Name = 
  5 active torsions:
  status: ('A' for Active; 'I' for Inactive)
    1  A    between atoms: C_4  and  C_12
    2  A    between atoms: C_4  and  C_32
    3  A    between atoms: C_6  and  C_23
    4  A    between atoms: C_6  and  C_25
    5  A    between atoms: C_25  and  C_28
                            x       y       z     vdW  Elec       q    Type
                         _______ _______ _______ _____ _____    ______ ____

>  <TORSDO>
F 5

$$$$
=
 OpenBabel11072410273D

 32 36  0  0  1  0  0  0  0  0999 V2000
  161.0970  205.3330  151.4080 C   0  0  0  0  0  0  0  0  0  0  0  0
  160.8810  203.4930  153.0100 O   0  0  0  0  0  1  0  0  0  0  0  0
  161.2770  206.7270  151.1890 C   0  0  0  0  0  0  0  0  0  0  0  0
  161.4100  207.5900  152.2820 C   0  0  0  0  0  3  0  0  0  0  0  0
  161.1830  206.3800  148.7730 C   0  0  0  0  0  0  0  0  0  0  0  0
  161.0080  205.0100  149.0070 C   0  0  0  0  0  0  0  0  0  0  0  0
  160.9670  204.4970  150.2810 C   0  0  2  0  0  3  0  0  0  0  0  0
  161.4960  208.6090  149.6690 O   0  0  0  0  0  1  0  0  0  0  0  0
  160.8560  203.9580  147.9750 C   0  0  0  0  0  3  0  0  0  0  0  0
  161.3180  207.2430  149.8760 C   0  0  0  0  0  0  0  0  0  0  0  0
  161.0560  204.8440  152.7350 C   0  0  0  0  0  0  0  0  0  0  0  0
  160.7740  203.0250  150.2610 C   0  0  0  0  0  3  0  0  0  0  0  0
  161.3740  207.0950  153.5860 C   0  0  0  0  0  0  0  0  0  0  0  0
  161.1920  205.7280  153.8080 C   0  0  0  0  0  3  0  0  0  0  0  0
  160.6890  202.6650  148.7740 C   0  0  0  0  0  3  0  0  0  0  0  0
  161.1960  206.9230  147.3770 C   0  0  0  0  0  2  0  0  0  0  0  0
  161.7070  204.4960  144.5500 N   0  0  0  0  0  0  0  0  0  0  0  0
  161.0120  205.4210  145.2770 C   0  0  0  0  0  0  0  0  0  0  0  0
  162.9060  204.1910  145.0420 N   0  0  0  0  0  0  0  0  0  0  0  0
  159.7780  205.8420  144.9080 F   0  0  0  0  0  0  0  0  0  0  0  0
  163.1300  205.0880  146.4220 S   0  0  0  0  0  0  0  0  0  0  0  0
  161.6670  205.8860  146.4120 C   0  0  0  0  0  0  0  0  0  0  0  0
  161.4960  208.0270  154.7400 C   0  0  0  0  0  2  0  0  0  0  0  0
  160.1300  208.5880  155.1010 C   0  0  0  0  0  2  0  0  0  0  0  0
  158.6110  212.0840  155.3300 C   0  0  0  0  0  2  0  0  0  0  0  0
  159.8720  210.7860  152.8480 C   0  0  0  0  0  3  0  0  0  0  0  0
  157.0610  212.8550  153.7080 O   0  0  0  0  0  0  0  0  0  0  0  0
  158.6950  211.4180  152.8080 C   0  0  0  0  0  3  0  0  0  0  0  0
  158.8400  210.6320  155.7270 C   0  0  0  0  0  2  0  0  0  0  0  0
  158.0820  212.1550  153.9310 C   0  0  0  0  0  0  0  0  0  0  0  0
  160.2060  210.0970  155.2790 C   0  0  2  0  0  3  0  0  0  0  0  0
  160.7900  210.7870  154.0360 C   0  0  0  0  0  2  0  0  0  0  0  0
  1 11  2  0  0  0  0
  3  1  1  0  0  0  0
  3  4  2  0  0  0  0
  4 13  1  0  0  0  0
  5  6  1  0  0  0  0
  5 10  2  0  0  0  0
  6  7  1  0  0  0  0
  7 12  1  1  0  0  0
  7  1  1  0  0  0  0
  8 10  1  0  0  0  0
  9 15  1  0  0  0  0
  9  6  2  0  0  0  0
 10  3  1  0  0  0  0
 11  2  1  0  0  0  0
 11 14  1  0  0  0  0
 13 14  2  0  0  0  0
 13 23  1  0  0  0  0
 15 12  2  0  0  0  0
 16  5  1  0  0  0  0
 17 19  2  0  0  0  0
 17 18  1  0  0  0  0
 18 22  2  0  0  0  0
 19 21  1  0  0  0  0
 20 18  1  0  0  0  0
 22 21  1  0  0  0  0
 22 16  1  0  0  0  0
 23 24  1  0  0  0  0
 25 29  1  0  0  0  0
 26 32  1  0  0  0  0
 27 30  2  0  0  0  0
 28 26  2  0  0  0  0
 28 30  1  0  0  0  0
 30 25  1  0  0  0  0
 31 24  1  6  0  0  0
 31 29  1  0  0  0  0
 32 31  1  0  0  0  0
M  END
>  <MODEL>
7

>  <REMARK>
 VINA RESULT:      -8.2      4.810      8.822
  Name = 
  5 active torsions:
  status: ('A' for Active; 'I' for Inactive)
    1  A    between atoms: C_4  and  C_12
    2  A    between atoms: C_4  and  C_32
    3  A    between atoms: C_6  and  C_23
    4  A    between atoms: C_6  and  C_25
    5  A    between atoms: C_25  and  C_28
                            x       y       z     vdW  Elec       q    Type
                         _______ _______ _______ _____ _____    ______ ____

>  <TORSDO>
F 5

$$$$
=
 OpenBabel11072410273D

 32 36  0  0  1  0  0  0  0  0999 V2000
  160.4560  209.6120  153.3360 C   0  0  0  0  0  0  0  0  0  0  0  0
  160.1840  208.0240  155.1800 O   0  0  0  0  0  1  0  0  0  0  0  0
  160.9130  209.8560  152.0110 C   0  0  0  0  0  0  0  0  0  0  0  0
  161.5030  208.8200  151.2790 C   0  0  0  0  0  3  0  0  0  0  0  0
  160.1870  212.1830  152.1670 C   0  0  0  0  0  0  0  0  0  0  0  0
  159.7420  211.9260  153.4700 C   0  0  0  0  0  0  0  0  0  0  0  0
  159.8690  210.6820  154.0400 C   0  0  0  0  0  0  0  0  0  0  0  0
  161.2260  211.3680  150.1360 O   0  0  0  0  0  1  0  0  0  0  0  0
  159.0940  212.8970  154.3810 C   0  0  0  0  0  2  0  0  0  0  0  0
  160.7780  211.1370  151.4340 C   0  0  0  0  0  0  0  0  0  0  0  0
  160.6090  208.3200  153.8900 C   0  0  0  0  0  0  0  0  0  0  0  0
  159.3220  210.6670  155.4210 C   0  0  0  0  0  3  0  0  0  0  0  0
  161.6420  207.5480  151.8350 C   0  0  0  0  0  0  0  0  0  0  0  0
  161.2010  207.3040  153.1370 C   0  0  0  0  0  3  0  0  0  0  0  0
  158.8280  212.0980  155.6580 C   0  0  0  0  0  3  0  0  0  0  0  0
  160.0660  213.5520  151.5730 C   0  0  0  0  0  2  0  0  0  0  0  0
  157.4930  213.7500  148.8360 N   0  0  0  0  0  0  0  0  0  0  0  0
  158.7620  213.7030  149.3420 C   0  0  0  0  0  0  0  0  0  0  0  0
  156.5300  213.7360  149.7550 N   0  0  0  0  0  0  0  0  0  0  0  0
  159.8530  213.7060  148.5390 F   0  0  0  0  0  0  0  0  0  0  0  0
  157.2540  213.6620  151.2480 S   0  0  0  0  0  0  0  0  0  0  0  0
  158.8380  213.6550  150.7290 C   0  0  0  0  0  0  0  0  0  0  0  0
  162.2910  206.4600  151.0520 C   0  0  0  0  0  2  0  0  0  0  0  0
  161.9360  205.1080  151.6480 C   0  0  0  0  0  2  0  0  0  0  0  0
  160.1440  202.3980  149.6410 C   0  0  0  0  0  2  0  0  0  0  0  0
  161.4570  204.9440  148.5310 C   0  0  0  0  0  3  0  0  0  0  0  0
  161.1280  201.4630  147.6950 O   0  0  0  0  0  0  0  0  0  0  0  0
  161.6600  203.7370  147.9910 C   0  0  0  0  0  3  0  0  0  0  0  0
  160.8970  202.9930  150.8240 C   0  0  0  0  0  2  0  0  0  0  0  0
  160.9810  202.4920  148.4020 C   0  0  0  0  0  0  0  0  0  0  0  0
  160.7310  204.5130  150.9360 C   0  0  2  0  0  3  0  0  0  0  0  0
  160.4480  205.2290  149.6050 C   0  0  0  0  0  2  0  0  0  0  0  0
  1 11  1  0  0  0  0
  1  7  1  0  0  0  0
  3  1  2  0  0  0  0
  4 13  2  0  0  0  0
  4  3  1  0  0  0  0
  5  6  1  0  0  0  0
  6  7  2  0  0  0  0
  6  9  1  0  0  0  0
  7 12  1  0  0  0  0
  8 10  1  0  0  0  0
  9 15  1  0  0  0  0
 10  3  1  0  0  0  0
 10  5  2  0  0  0  0
 11  2  1  0  0  0  0
 12 15  2  0  0  0  0
 13 14  1  0  0  0  0
 14 11  2  0  0  0  0
 16  5  1  0  0  0  0
 17 18  1  0  0  0  0
 17 19  2  0  0  0  0
 18 22  2  0  0  0  0
 19 21  1  0  0  0  0
 20 18  1  0  0  0  0
 22 21  1  0  0  0  0
 22 16  1  0  0  0  0
 23 24  1  0  0  0  0
 23 13  1  0  0  0  0
 25 29  1  0  0  0  0
 26 32  1  0  0  0  0
 27 30  2  0  0  0  0
 28 30  1  0  0  0  0
 28 26  2  0  0  0  0
 29 31  1  0  0  0  0
 30 25  1  0  0  0  0
 31 24  1  6  0  0  0
 32 31  1  0  0  0  0
M  END
>  <MODEL>
8

>  <REMARK>
 VINA RESULT:      -7.8      2.735      3.863
  Name = 
  5 active torsions:
  status: ('A' for Active; 'I' for Inactive)
    1  A    between atoms: C_4  and  C_12
    2  A    between atoms: C_4  and  C_32
    3  A    between atoms: C_6  and  C_23
    4  A    between atoms: C_6  and  C_25
    5  A    between atoms: C_25  and  C_28
                            x       y       z     vdW  Elec       q    Type
                         _______ _______ _______ _____ _____    ______ ____

>  <TORSDO>
F 5

$$$$
=
 OpenBabel11072410273D

 32 36  0  0  1  0  0  0  0  0999 V2000
  161.2080  204.9720  151.1110 C   0  0  0  0  0  0  0  0  0  0  0  0
  160.4580  203.1380  152.5500 O   0  0  0  0  0  1  0  0  0  0  0  0
  161.5800  206.3400  150.9950 C   0  0  0  0  0  0  0  0  0  0  0  0
  161.5690  207.1600  152.1280 C   0  0  0  0  0  3  0  0  0  0  0  0
  161.9650  206.0540  148.6000 C   0  0  0  0  0  0  0  0  0  0  0  0
  161.5970  204.7090  148.7320 C   0  0  0  0  0  0  0  0  0  0  0  0
  161.2310  204.1800  149.9450 C   0  0  2  0  0  3  0  0  0  0  0  0
  162.3190  208.2140  149.6380 O   0  0  0  0  0  1  0  0  0  0  0  0
  161.5560  203.7030  147.6460 C   0  0  0  0  0  3  0  0  0  0  0  0
  161.9550  206.8740  149.7440 C   0  0  0  0  0  0  0  0  0  0  0  0
  160.8330  204.4650  152.3760 C   0  0  0  0  0  0  0  0  0  0  0  0
  160.8890  202.7400  149.8210 C   0  0  0  0  0  3  0  0  0  0  0  0
  161.2030  206.6470  153.3730 C   0  0  0  0  0  0  0  0  0  0  0  0
  160.8310  205.3060  153.4920 C   0  0  0  0  0  3  0  0  0  0  0  0
  161.0840  202.4220  148.3360 C   0  0  0  0  0  3  0  0  0  0  0  0
  162.3340  206.6200  147.2630 C   0  0  0  0  0  2  0  0  0  0  0  0
  161.3130  204.3300  144.4590 N   0  0  0  0  0  0  0  0  0  0  0  0
  162.1890  204.8770  145.3540 C   0  0  0  0  0  0  0  0  0  0  0  0
  160.0810  204.8310  144.5120 N   0  0  0  0  0  0  0  0  0  0  0  0
  163.4810  204.4760  145.4310 F   0  0  0  0  0  0  0  0  0  0  0  0
  160.0560  205.9900  145.7020 S   0  0  0  0  0  0  0  0  0  0  0  0
  161.6520  205.8700  146.1670 C   0  0  0  0  0  0  0  0  0  0  0  0
  161.1760  207.5360  154.5660 C   0  0  0  0  0  2  0  0  0  0  0  0
  160.8540  208.9610  154.1460 C   0  0  0  0  0  2  0  0  0  0  0  0
  159.1720  211.8990  155.9110 C   0  0  0  0  0  2  0  0  0  0  0  0
  161.4110  210.1200  157.0300 C   0  0  0  0  0  3  0  0  0  0  0  0
  160.4560  213.5850  156.9780 O   0  0  0  0  0  0  0  0  0  0  0  0
  161.4490  211.4540  157.1050 C   0  0  0  0  0  3  0  0  0  0  0  0
  159.6200  211.0510  154.7280 C   0  0  0  0  0  2  0  0  0  0  0  0
  160.3650  212.3650  156.6880 C   0  0  0  0  0  0  0  0  0  0  0  0
  159.8410  209.5790  155.0970 C   0  0  2  0  0  3  0  0  0  0  0  0
  160.2190  209.3340  156.5670 C   0  0  0  0  0  2  0  0  0  0  0  0
  1 11  2  0  0  0  0
  3  1  1  0  0  0  0
  3  4  2  0  0  0  0
  4 13  1  0  0  0  0
  5  6  1  0  0  0  0
  5 10  2  0  0  0  0
  6  7  1  0  0  0  0
  7 12  1  6  0  0  0
  7  1  1  0  0  0  0
  8 10  1  0  0  0  0
  9 15  1  0  0  0  0
  9  6  2  0  0  0  0
 10  3  1  0  0  0  0
 11  2  1  0  0  0  0
 11 14  1  0  0  0  0
 13 14  2  0  0  0  0
 13 23  1  0  0  0  0
 15 12  2  0  0  0  0
 16  5  1  0  0  0  0
 17 19  2  0  0  0  0
 17 18  1  0  0  0  0
 18 20  1  0  0  0  0
 18 22  2  0  0  0  0
 19 21  1  0  0  0  0
 21 22  1  0  0  0  0
 22 16  1  0  0  0  0
 24 23  1  0  0  0  0
 25 30  1  0  0  0  0
 26 28  2  0  0  0  0
 29 31  1  0  0  0  0
 29 25  1  0  0  0  0
 30 27  2  0  0  0  0
 30 28  1  0  0  0  0
 31 24  1  6  0  0  0
 31 32  1  0  0  0  0
 32 26  1  0  0  0  0
M  END
>  <MODEL>
9

>  <REMARK>
 VINA RESULT:      -7.5      4.789      9.353
  Name = 
  5 active torsions:
  status: ('A' for Active; 'I' for Inactive)
    1  A    between atoms: C_4  and  C_12
    2  A    between atoms: C_4  and  C_32
    3  A    between atoms: C_6  and  C_23
    4  A    between atoms: C_6  and  C_25
    5  A    between atoms: C_25  and  C_28
                            x       y       z     vdW  Elec       q    Type
                         _______ _______ _______ _____ _____    ______ ____

>  <TORSDO>
F 5

$$$$
