=
 OpenBabel11072413093D

 35 37  0  0  1  0  0  0  0  0999 V2000
  161.8610  210.2530  155.0320 C   0  0  2  0  0  3  0  0  0  0  0  0
  160.6080  210.9580  155.5920 C   0  0  1  0  0  0  0  0  0  0  0  0
  160.0180  208.7250  153.3030 C   0  0  0  0  0  2  0  0  0  0  0  0
  163.2380  210.6110  153.1040 O   0  0  0  0  0  1  0  0  0  0  0  0
  161.9150  210.3500  153.4940 C   0  0  1  0  0  3  0  0  0  0  0  0
  161.4390  209.0390  152.8540 C   0  0  2  0  0  3  0  0  0  0  0  0
  159.9930  208.4310  154.8100 C   0  0  0  0  0  2  0  0  0  0  0  0
  160.7600  209.4330  155.7190 C   0  0  1  0  0  0  0  0  0  0  0  0
  161.0120  211.8790  156.7150 C   0  0  0  0  0  0  0  0  0  0  0  0
  162.1960  211.8810  157.1450 O   0  0  0  0  0  0  0  0  0  0  0  0
  160.0810  212.7720  157.2610 O   0  0  0  0  0  1  0  0  0  0  0  0
  161.2570  208.9000  157.0610 C   0  0  2  0  0  3  0  0  0  0  0  0
  162.6470  208.9250  157.0930 O   0  0  0  0  0  1  0  0  0  0  0  0
  160.7720  207.4790  157.2610 C   0  0  0  0  0  1  0  0  0  0  0  0
  159.7980  212.6650  153.8800 C   0  0  0  0  0  1  0  0  0  0  0  0
  159.4350  211.4060  154.6660 C   0  0  2  0  0  3  0  0  0  0  0  0
  156.9740  210.8520  154.3620 C   0  0  0  0  0  1  0  0  0  0  0  0
  158.0080  210.8250  156.4880 O   0  0  0  0  0  1  0  0  0  0  0  0
  158.0180  211.4860  155.2550 C   0  0  1  0  0  0  0  0  0  0  0  0
  156.3900  213.5910  154.2470 S   0  0  0  0  0  1  0  0  0  0  0  0
  157.6140  212.9620  155.4700 C   0  0  0  0  0  2  0  0  0  0  0  0
  161.5090  209.0430  151.3170 C   0  0  0  0  0  2  0  0  0  0  0  0
  162.3790  208.0290  150.7820 O   0  0  0  0  0  0  0  0  0  0  0  0
  161.8280  205.2230  151.9870 Cl  0  0  0  0  0  0  0  0  0  0  0  0
  161.9170  207.3550  148.5460 C   0  0  0  0  0  3  0  0  0  0  0  0
  161.9770  207.0210  149.8970 C   0  0  0  0  0  0  0  0  0  0  0  0
  161.1960  204.7800  149.3120 C   0  0  0  0  0  0  0  0  0  0  0  0
  161.6250  205.7110  150.3020 C   0  0  0  0  0  0  0  0  0  0  0  0
  161.4890  206.4570  147.6180 N   0  0  0  0  0  0  0  0  0  0  0  0
  161.1570  205.1940  147.9680 C   0  0  0  0  0  3  0  0  0  0  0  0
  160.6960  202.9690  150.7760 O   0  0  0  0  0  0  0  0  0  0  0  0
  160.8180  203.3770  149.5940 C   0  0  0  0  0  0  0  0  0  0  0  0
  160.6570  202.3890  148.4750 C   0  0  0  0  0  2  0  0  0  0  0  0
  161.5420  200.2190  148.0200 O   0  0  0  0  0  1  0  0  0  0  0  0
  160.8840  200.9700  148.9900 C   0  0  0  0  0  2  0  0  0  0  0  0
  1  2  1  0  0  0  0
  1  8  1  0  0  0  0
  2  8  1  0  0  0  0
  2  9  1  0  0  0  0
  3  7  1  0  0  0  0
  4  5  1  0  0  0  0
  5  1  1  0  0  0  0
  6  3  1  0  0  0  0
  6  5  1  0  0  0  0
  7  8  1  0  0  0  0
  8 12  1  0  0  0  0
  9 10  2  0  0  0  0
  9 11  1  0  0  0  0
 12 13  1  0  0  0  0
 12 14  1  0  0  0  0
 15 16  1  0  0  0  0
 16 19  1  0  0  0  0
 16  2  1  0  0  0  0
 17 19  1  0  0  0  0
 19 21  1  0  0  0  0
 19 18  1  0  0  0  0
 20 21  1  0  0  0  0
 22  6  1  0  0  0  0
 23 22  1  0  0  0  0
 25 26  1  0  0  0  0
 26 28  2  0  0  0  0
 26 23  1  0  0  0  0
 27 32  1  0  0  0  0
 27 28  1  0  0  0  0
 28 24  1  0  0  0  0
 29 30  1  0  0  0  0
 29 25  2  0  0  0  0
 30 27  2  0  0  0  0
 32 31  2  0  0  0  0
 33 35  1  0  0  0  0
 33 32  1  0  0  0  0
 34 35  1  0  0  0  0
M  END
>  <MODEL>
1

>  <REMARK>
 VINA RESULT:      -5.5      0.000      0.000
  Name = 
  11 active torsions:
  status: ('A' for Active; 'I' for Inactive)
    1  A    between atoms: C_4  and  O_5
    2  A    between atoms: C_4  and  C_26
    3  A    between atoms: O_5  and  C_9
    4  A    between atoms: C_6  and  C_11
    5  A    between atoms: C_11  and  C_34
    6  A    between atoms: C_12  and  C_23
    7  A    between atoms: C_23  and  C_35
    8  A    between atoms: C_24  and  C_32
    9  A    between atoms: C_24  and  C_34
   10  A    between atoms: C_25  and  C_33
   11  A    between atoms: C_28  and  C_35
                            x       y       z     vdW  Elec       q    Type
                         _______ _______ _______ _____ _____    ______ ____

>  <TORSDO>
F 11

$$$$
=
 OpenBabel11072413093D

 35 37  0  0  1  0  0  0  0  0999 V2000
  161.7970  210.2650  155.0870 C   0  0  2  0  0  3  0  0  0  0  0  0
  160.5560  211.0000  155.6350 C   0  0  1  0  0  0  0  0  0  0  0  0
  159.9340  208.7880  153.3340 C   0  0  0  0  0  2  0  0  0  0  0  0
  163.2030  210.5920  153.1740 O   0  0  0  0  0  1  0  0  0  0  0  0
  161.8700  210.3640  153.5490 C   0  0  1  0  0  3  0  0  0  0  0  0
  161.3680  209.0670  152.9010 C   0  0  2  0  0  3  0  0  0  0  0  0
  159.8850  208.4920  154.8400 C   0  0  0  0  0  2  0  0  0  0  0  0
  160.6680  209.4720  155.7590 C   0  0  1  0  0  0  0  0  0  0  0  0
  160.9710  211.9090  156.7640 C   0  0  0  0  0  0  0  0  0  0  0  0
  162.1270  211.8250  157.2590 O   0  0  0  0  0  1  0  0  0  0  0  0
  160.0860  212.8820  157.2450 O   0  0  0  0  0  0  0  0  0  0  0  0
  161.1360  208.9230  157.1060 C   0  0  2  0  0  3  0  0  0  0  0  0
  162.5240  208.9870  157.1840 O   0  0  0  0  0  1  0  0  0  0  0  0
  160.6870  207.4850  157.2590 C   0  0  0  0  0  1  0  0  0  0  0  0
  159.7930  212.7530  153.9490 C   0  0  0  0  0  1  0  0  0  0  0  0
  159.4050  211.4800  154.6970 C   0  0  2  0  0  3  0  0  0  0  0  0
  156.9640  210.8370  154.3990 C   0  0  0  0  0  1  0  0  0  0  0  0
  157.9680  210.9820  156.5360 O   0  0  0  0  0  1  0  0  0  0  0  0
  157.9770  211.5590  155.2610 C   0  0  1  0  0  0  0  0  0  0  0  0
  155.7280  213.2940  155.0980 S   0  0  0  0  0  1  0  0  0  0  0  0
  157.5300  213.0340  155.3710 C   0  0  0  0  0  2  0  0  0  0  0  0
  161.4550  209.0730  151.3650 C   0  0  0  0  0  2  0  0  0  0  0  0
  162.3100  208.0440  150.8370 O   0  0  0  0  0  0  0  0  0  0  0  0
  162.3610  207.9040  147.7370 Cl  0  0  0  0  0  0  0  0  0  0  0  0
  161.3700  205.8730  151.0960 C   0  0  0  0  0  3  0  0  0  0  0  0
  161.8580  206.8600  150.2430 C   0  0  0  0  0  0  0  0  0  0  0  0
  161.4270  205.3560  148.3630 C   0  0  0  0  0  0  0  0  0  0  0  0
  161.8820  206.6170  148.8480 C   0  0  0  0  0  0  0  0  0  0  0  0
  160.9560  204.6690  150.6160 N   0  0  0  0  0  0  0  0  0  0  0  0
  160.9540  204.4090  149.2890 C   0  0  0  0  0  3  0  0  0  0  0  0
  160.7340  205.6710  146.1060 O   0  0  0  0  0  0  0  0  0  0  0  0
  161.3810  204.9800  146.9330 C   0  0  0  0  0  0  0  0  0  0  0  0
  162.0350  203.7150  146.4540 C   0  0  0  0  0  2  0  0  0  0  0  0
  160.4890  202.8930  144.8300 O   0  0  0  0  0  1  0  0  0  0  0  0
  160.9740  202.6700  146.1160 C   0  0  0  0  0  2  0  0  0  0  0  0
  1  2  1  0  0  0  0
  1  8  1  0  0  0  0
  2  8  1  0  0  0  0
  2  9  1  0  0  0  0
  3  7  1  0  0  0  0
  4  5  1  0  0  0  0
  5  1  1  0  0  0  0
  6  3  1  0  0  0  0
  6  5  1  0  0  0  0
  7  8  1  0  0  0  0
  8 12  1  0  0  0  0
  9 11  2  0  0  0  0
  9 10  1  0  0  0  0
 12 13  1  0  0  0  0
 12 14  1  0  0  0  0
 15 16  1  0  0  0  0
 16 19  1  0  0  0  0
 16  2  1  0  0  0  0
 17 19  1  0  0  0  0
 19 21  1  0  0  0  0
 19 18  1  0  0  0  0
 20 21  1  0  0  0  0
 22  6  1  0  0  0  0
 23 22  1  0  0  0  0
 24 28  1  0  0  0  0
 26 23  1  0  0  0  0
 26 25  2  0  0  0  0
 27 28  2  0  0  0  0
 27 30  1  0  0  0  0
 28 26  1  0  0  0  0
 29 25  1  0  0  0  0
 30 29  2  0  0  0  0
 31 32  2  0  0  0  0
 32 27  1  0  0  0  0
 33 32  1  0  0  0  0
 34 35  1  0  0  0  0
 35 33  1  0  0  0  0
M  END
>  <MODEL>
2

>  <REMARK>
 VINA RESULT:      -5.0      1.736      1.940
  Name = 
  11 active torsions:
  status: ('A' for Active; 'I' for Inactive)
    1  A    between atoms: C_4  and  O_5
    2  A    between atoms: C_4  and  C_26
    3  A    between atoms: O_5  and  C_9
    4  A    between atoms: C_6  and  C_11
    5  A    between atoms: C_11  and  C_34
    6  A    between atoms: C_12  and  C_23
    7  A    between atoms: C_23  and  C_35
    8  A    between atoms: C_24  and  C_32
    9  A    between atoms: C_24  and  C_34
   10  A    between atoms: C_25  and  C_33
   11  A    between atoms: C_28  and  C_35
                            x       y       z     vdW  Elec       q    Type
                         _______ _______ _______ _____ _____    ______ ____

>  <TORSDO>
F 11

$$$$
=
 OpenBabel11072413093D

 35 37  0  0  1  0  0  0  0  0999 V2000
  161.2200  211.0560  154.0760 C   0  0  2  0  0  3  0  0  0  0  0  0
  159.9650  211.4130  154.9000 C   0  0  1  0  0  0  0  0  0  0  0  0
  160.0350  208.3700  153.7570 C   0  0  0  0  0  2  0  0  0  0  0  0
  161.7060  211.0280  151.7300 O   0  0  0  0  0  1  0  0  0  0  0  0
  160.8370  210.4910  152.6930 C   0  0  1  0  0  3  0  0  0  0  0  0
  160.9440  208.9600  152.6870 C   0  0  2  0  0  3  0  0  0  0  0  0
  160.5330  208.7700  155.1540 C   0  0  0  0  0  2  0  0  0  0  0  0
  160.8890  210.2710  155.3520 C   0  0  1  0  0  0  0  0  0  0  0  0
  160.1130  212.8060  155.4580 C   0  0  0  0  0  0  0  0  0  0  0  0
  159.7190  213.8040  154.7990 O   0  0  0  0  0  0  0  0  0  0  0  0
  160.6550  212.9960  156.7360 O   0  0  0  0  0  1  0  0  0  0  0  0
  161.8990  210.5960  156.4510 C   0  0  2  0  0  3  0  0  0  0  0  0
  163.0700  211.0890  155.8840 O   0  0  0  0  0  1  0  0  0  0  0  0
  162.2110  209.3480  157.2490 C   0  0  0  0  0  1  0  0  0  0  0  0
  158.1780  211.4760  153.0830 C   0  0  0  0  0  1  0  0  0  0  0  0
  158.5400  210.9470  154.4690 C   0  0  2  0  0  3  0  0  0  0  0  0
  156.3340  210.0180  155.3240 C   0  0  0  0  0  1  0  0  0  0  0  0
  157.8950  211.0590  156.7640 O   0  0  0  0  0  1  0  0  0  0  0  0
  157.3790  211.1040  155.4640 C   0  0  1  0  0  0  0  0  0  0  0  0
  156.7290  213.5770  156.7130 S   0  0  0  0  0  1  0  0  0  0  0  0
  156.6740  212.4620  155.2480 C   0  0  0  0  0  2  0  0  0  0  0  0
  160.6220  208.3260  151.3240 C   0  0  0  0  0  2  0  0  0  0  0  0
  161.7920  207.9380  150.5820 O   0  0  0  0  0  0  0  0  0  0  0  0
  160.9890  205.0470  151.3750 Cl  0  0  0  0  0  0  0  0  0  0  0  0
  162.2440  207.3800  148.3130 C   0  0  0  0  0  3  0  0  0  0  0  0
  161.8100  206.9700  149.5710 C   0  0  0  0  0  0  0  0  0  0  0  0
  161.4340  204.7390  148.6430 C   0  0  0  0  0  0  0  0  0  0  0  0
  161.4060  205.6250  149.7590 C   0  0  0  0  0  0  0  0  0  0  0  0
  162.2470  206.5230  147.2560 N   0  0  0  0  0  0  0  0  0  0  0  0
  161.8810  205.2300  147.4030 C   0  0  0  0  0  3  0  0  0  0  0  0
  160.9610  202.6250  147.6550 O   0  0  0  0  0  0  0  0  0  0  0  0
  161.0580  203.3090  148.7040 C   0  0  0  0  0  0  0  0  0  0  0  0
  160.6990  202.6680  150.0140 C   0  0  0  0  0  2  0  0  0  0  0  0
  159.7080  200.5280  149.6460 O   0  0  0  0  0  1  0  0  0  0  0  0
  160.9140  201.1590  149.9370 C   0  0  0  0  0  2  0  0  0  0  0  0
  1  2  1  0  0  0  0
  1  8  1  0  0  0  0
  2  8  1  0  0  0  0
  2  9  1  0  0  0  0
  3  7  1  0  0  0  0
  4  5  1  0  0  0  0
  5  1  1  0  0  0  0
  6  5  1  0  0  0  0
  6  3  1  0  0  0  0
  7  8  1  0  0  0  0
  8 12  1  0  0  0  0
  9 11  1  0  0  0  0
 10  9  2  0  0  0  0
 12 14  1  0  0  0  0
 13 12  1  0  0  0  0
 15 16  1  0  0  0  0
 16  2  1  0  0  0  0
 16 19  1  0  0  0  0
 17 19  1  0  0  0  0
 19 18  1  0  0  0  0
 21 19  1  0  0  0  0
 21 20  1  0  0  0  0
 22  6  1  0  0  0  0
 23 22  1  0  0  0  0
 25 26  1  0  0  0  0
 26 28  2  0  0  0  0
 26 23  1  0  0  0  0
 27 32  1  0  0  0  0
 27 28  1  0  0  0  0
 28 24  1  0  0  0  0
 29 30  1  0  0  0  0
 29 25  2  0  0  0  0
 30 27  2  0  0  0  0
 31 32  2  0  0  0  0
 32 33  1  0  0  0  0
 34 35  1  0  0  0  0
 35 33  1  0  0  0  0
M  END
>  <MODEL>
3

>  <REMARK>
 VINA RESULT:      -4.7      1.346      1.583
  Name = 
  11 active torsions:
  status: ('A' for Active; 'I' for Inactive)
    1  A    between atoms: C_4  and  O_5
    2  A    between atoms: C_4  and  C_26
    3  A    between atoms: O_5  and  C_9
    4  A    between atoms: C_6  and  C_11
    5  A    between atoms: C_11  and  C_34
    6  A    between atoms: C_12  and  C_23
    7  A    between atoms: C_23  and  C_35
    8  A    between atoms: C_24  and  C_32
    9  A    between atoms: C_24  and  C_34
   10  A    between atoms: C_25  and  C_33
   11  A    between atoms: C_28  and  C_35
                            x       y       z     vdW  Elec       q    Type
                         _______ _______ _______ _____ _____    ______ ____

>  <TORSDO>
F 11

$$$$
=
 OpenBabel11072413093D

 35 37  0  0  1  0  0  0  0  0999 V2000
  161.0890  210.4870  154.8800 C   0  0  2  0  0  3  0  0  0  0  0  0
  159.8120  211.2530  155.2890 C   0  0  1  0  0  0  0  0  0  0  0  0
  159.6990  208.0390  155.7730 C   0  0  0  0  0  2  0  0  0  0  0  0
  161.7430  209.2950  152.9070 O   0  0  0  0  0  1  0  0  0  0  0  0
  160.7610  209.3340  153.9100 C   0  0  1  0  0  3  0  0  0  0  0  0
  160.7340  207.9930  154.6560 C   0  0  2  0  0  3  0  0  0  0  0  0
  160.1260  209.0510  156.8470 C   0  0  0  0  0  2  0  0  0  0  0  0
  160.5970  210.4410  156.3330 C   0  0  1  0  0  0  0  0  0  0  0  0
  160.0410  212.7330  155.1170 C   0  0  0  0  0  0  0  0  0  0  0  0
  160.0850  213.4940  156.1200 O   0  0  0  0  0  1  0  0  0  0  0  0
  160.2470  213.2680  153.8390 O   0  0  0  0  0  0  0  0  0  0  0  0
  161.5470  211.2210  157.2390 C   0  0  2  0  0  3  0  0  0  0  0  0
  161.1820  212.5630  157.2610 O   0  0  0  0  0  1  0  0  0  0  0  0
  162.9670  211.0910  156.7290 C   0  0  0  0  0  1  0  0  0  0  0  0
  158.1100  210.6660  153.4840 C   0  0  0  0  0  1  0  0  0  0  0  0
  158.3880  210.6930  154.9860 C   0  0  2  0  0  3  0  0  0  0  0  0
  156.0210  210.2890  155.8190 C   0  0  0  0  0  1  0  0  0  0  0  0
  157.6070  211.4950  157.0940 O   0  0  0  0  0  1  0  0  0  0  0  0
  157.1940  211.2460  155.7800 C   0  0  1  0  0  0  0  0  0  0  0  0
  156.1460  213.8240  156.3740 S   0  0  0  0  0  1  0  0  0  0  0  0
  156.6990  212.5660  155.1480 C   0  0  0  0  0  2  0  0  0  0  0  0
  160.4580  206.7870  153.7430 C   0  0  0  0  0  2  0  0  0  0  0  0
  161.5170  206.5270  152.8040 O   0  0  0  0  0  0  0  0  0  0  0  0
  161.5880  207.9870  150.0660 Cl  0  0  0  0  0  0  0  0  0  0  0  0
  161.1770  204.3750  151.8470 C   0  0  0  0  0  3  0  0  0  0  0  0
  161.3860  205.7380  151.6540 C   0  0  0  0  0  0  0  0  0  0  0  0
  161.3530  205.3370  149.2430 C   0  0  0  0  0  0  0  0  0  0  0  0
  161.4660  206.2460  150.3350 C   0  0  0  0  0  0  0  0  0  0  0  0
  161.0890  203.5210  150.7910 N   0  0  0  0  0  0  0  0  0  0  0  0
  161.1480  203.9740  149.5190 C   0  0  0  0  0  3  0  0  0  0  0  0
  161.7070  206.9080  147.4880 O   0  0  0  0  0  0  0  0  0  0  0  0
  161.4000  205.7350  147.8190 C   0  0  0  0  0  0  0  0  0  0  0  0
  160.9980  204.7700  146.7410 C   0  0  0  0  0  2  0  0  0  0  0  0
  161.7100  205.4740  144.5740 O   0  0  0  0  0  1  0  0  0  0  0  0
  162.0810  204.6980  145.6680 C   0  0  0  0  0  2  0  0  0  0  0  0
  1  2  1  0  0  0  0
  1  8  1  0  0  0  0
  2  8  1  0  0  0  0
  3  7  1  0  0  0  0
  4  5  1  0  0  0  0
  5  6  1  0  0  0  0
  5  1  1  0  0  0  0
  6  3  1  0  0  0  0
  8  7  1  0  0  0  0
  8 12  1  0  0  0  0
  9  2  1  0  0  0  0
  9 10  1  0  0  0  0
 11  9  2  0  0  0  0
 12 13  1  0  0  0  0
 14 12  1  0  0  0  0
 15 16  1  0  0  0  0
 16  2  1  0  0  0  0
 16 19  1  0  0  0  0
 19 17  1  0  0  0  0
 19 18  1  0  0  0  0
 21 19  1  0  0  0  0
 21 20  1  0  0  0  0
 22  6  1  0  0  0  0
 23 22  1  0  0  0  0
 24 28  1  0  0  0  0
 26 25  1  0  0  0  0
 26 23  1  0  0  0  0
 27 30  2  0  0  0  0
 27 28  1  0  0  0  0
 28 26  2  0  0  0  0
 29 25  2  0  0  0  0
 30 29  1  0  0  0  0
 31 32  2  0  0  0  0
 32 27  1  0  0  0  0
 33 32  1  0  0  0  0
 34 35  1  0  0  0  0
 35 33  1  0  0  0  0
M  END
>  <MODEL>
4

>  <REMARK>
 VINA RESULT:      -3.1      2.196      2.923
  Name = 
  11 active torsions:
  status: ('A' for Active; 'I' for Inactive)
    1  A    between atoms: C_4  and  O_5
    2  A    between atoms: C_4  and  C_26
    3  A    between atoms: O_5  and  C_9
    4  A    between atoms: C_6  and  C_11
    5  A    between atoms: C_11  and  C_34
    6  A    between atoms: C_12  and  C_23
    7  A    between atoms: C_23  and  C_35
    8  A    between atoms: C_24  and  C_32
    9  A    between atoms: C_24  and  C_34
   10  A    between atoms: C_25  and  C_33
   11  A    between atoms: C_28  and  C_35
                            x       y       z     vdW  Elec       q    Type
                         _______ _______ _______ _____ _____    ______ ____

>  <TORSDO>
F 11

$$$$
=
 OpenBabel11072413093D

 35 37  0  0  1  0  0  0  0  0999 V2000
  159.7440  208.9250  154.4070 C   0  0  2  0  0  3  0  0  0  0  0  0
  160.5100  209.8280  155.3960 C   0  0  1  0  0  0  0  0  0  0  0  0
  162.1550  209.0370  152.7050 C   0  0  0  0  0  2  0  0  0  0  0  0
  159.6900  206.5590  154.0280 O   0  0  0  0  0  1  0  0  0  0  0  0
  160.5580  207.6620  154.0600 C   0  0  1  0  0  3  0  0  0  0  0  0
  161.2410  207.8190  152.6940 C   0  0  2  0  0  3  0  0  0  0  0  0
  161.3240  210.3200  152.8530 C   0  0  0  0  0  2  0  0  0  0  0  0
  160.2350  210.3090  153.9620 C   0  0  1  0  0  0  0  0  0  0  0  0
  159.5990  210.2070  156.5360 C   0  0  0  0  0  0  0  0  0  0  0  0
  159.0790  209.3170  157.2610 O   0  0  0  0  0  1  0  0  0  0  0  0
  159.3560  211.5560  156.8230 O   0  0  0  0  0  0  0  0  0  0  0  0
  159.0500  211.2540  153.7680 C   0  0  2  0  0  3  0  0  0  0  0  0
  158.5030  211.0700  152.5030 O   0  0  0  0  0  1  0  0  0  0  0  0
  159.5080  212.6900  153.9170 C   0  0  0  0  0  1  0  0  0  0  0  0
  162.2070  208.5740  156.8270 C   0  0  0  0  0  1  0  0  0  0  0  0
  162.0210  209.6020  155.7130 C   0  0  2  0  0  3  0  0  0  0  0  0
  163.9050  211.0250  154.7700 C   0  0  0  0  0  1  0  0  0  0  0  0
  162.1200  211.9690  156.0010 O   0  0  0  0  0  1  0  0  0  0  0  0
  162.9260  210.8290  155.9080 C   0  0  1  0  0  0  0  0  0  0  0  0
  165.2640  211.7240  157.2600 S   0  0  0  0  0  1  0  0  0  0  0  0
  163.7460  210.6840  157.2100 C   0  0  0  0  0  2  0  0  0  0  0  0
  162.0360  206.5770  152.2570 C   0  0  0  0  0  2  0  0  0  0  0  0
  161.2110  205.4200  152.0330 O   0  0  0  0  0  0  0  0  0  0  0  0
  161.8000  206.9430  149.3940 Cl  0  0  0  0  0  0  0  0  0  0  0  0
  160.8430  203.3310  150.9520 C   0  0  0  0  0  3  0  0  0  0  0  0
  161.1870  204.6760  150.8460 C   0  0  0  0  0  0  0  0  0  0  0  0
  161.4760  204.3460  148.4410 C   0  0  0  0  0  0  0  0  0  0  0  0
  161.5000  205.2120  149.5730 C   0  0  0  0  0  0  0  0  0  0  0  0
  160.8420  202.5170  149.8620 N   0  0  0  0  0  0  0  0  0  0  0  0
  161.1230  202.9980  148.6300 C   0  0  0  0  0  3  0  0  0  0  0  0
  162.2260  205.9220  146.8210 O   0  0  0  0  0  0  0  0  0  0  0  0
  161.7630  204.7780  147.0550 C   0  0  0  0  0  0  0  0  0  0  0  0
  161.4260  203.8890  145.8920 C   0  0  0  0  0  2  0  0  0  0  0  0
  159.8320  203.8460  144.1160 O   0  0  0  0  0  1  0  0  0  0  0  0
  160.6900  204.6870  144.8180 C   0  0  0  0  0  2  0  0  0  0  0  0
  1  2  1  0  0  0  0
  2 16  1  0  0  0  0
  2  9  1  0  0  0  0
  3  7  1  0  0  0  0
  4  5  1  0  0  0  0
  5  1  1  0  0  0  0
  6  3  1  0  0  0  0
  6  5  1  0  0  0  0
  7  8  1  0  0  0  0
  8  1  1  0  0  0  0
  8  2  1  0  0  0  0
  9 11  2  0  0  0  0
  9 10  1  0  0  0  0
 12 14  1  0  0  0  0
 12  8  1  0  0  0  0
 13 12  1  0  0  0  0
 16 19  1  0  0  0  0
 16 15  1  0  0  0  0
 17 19  1  0  0  0  0
 19 18  1  0  0  0  0
 19 21  1  0  0  0  0
 21 20  1  0  0  0  0
 22  6  1  0  0  0  0
 23 22  1  0  0  0  0
 24 28  1  0  0  0  0
 26 25  1  0  0  0  0
 26 23  1  0  0  0  0
 27 30  2  0  0  0  0
 27 28  1  0  0  0  0
 28 26  2  0  0  0  0
 29 25  2  0  0  0  0
 30 29  1  0  0  0  0
 31 32  2  0  0  0  0
 32 27  1  0  0  0  0
 33 32  1  0  0  0  0
 34 35  1  0  0  0  0
 35 33  1  0  0  0  0
M  END
>  <MODEL>
5

>  <REMARK>
 VINA RESULT:      -3.0      2.836      4.337
  Name = 
  11 active torsions:
  status: ('A' for Active; 'I' for Inactive)
    1  A    between atoms: C_4  and  O_5
    2  A    between atoms: C_4  and  C_26
    3  A    between atoms: O_5  and  C_9
    4  A    between atoms: C_6  and  C_11
    5  A    between atoms: C_11  and  C_34
    6  A    between atoms: C_12  and  C_23
    7  A    between atoms: C_23  and  C_35
    8  A    between atoms: C_24  and  C_32
    9  A    between atoms: C_24  and  C_34
   10  A    between atoms: C_25  and  C_33
   11  A    between atoms: C_28  and  C_35
                            x       y       z     vdW  Elec       q    Type
                         _______ _______ _______ _____ _____    ______ ____

>  <TORSDO>
F 11

$$$$
=
 OpenBabel11072413093D

 35 37  0  0  1  0  0  0  0  0999 V2000
  159.8120  209.4130  153.1870 C   0  0  2  0  0  3  0  0  0  0  0  0
  160.3070  209.8090  154.5950 C   0  0  1  0  0  0  0  0  0  0  0  0
  162.4660  210.2580  152.2050 C   0  0  0  0  0  2  0  0  0  0  0  0
  160.0390  207.4390  151.8480 O   0  0  0  0  0  1  0  0  0  0  0  0
  160.7850  208.4260  152.5110 C   0  0  1  0  0  3  0  0  0  0  0  0
  161.6810  209.1580  151.5030 C   0  0  2  0  0  3  0  0  0  0  0  0
  161.5100  211.3490  152.7100 C   0  0  0  0  0  2  0  0  0  0  0  0
  160.2470  210.8580  153.4720 C   0  0  1  0  0  0  0  0  0  0  0  0
  159.1780  209.6560  155.5820 C   0  0  0  0  0  0  0  0  0  0  0  0
  158.4600  210.6440  155.8890 O   0  0  0  0  0  0  0  0  0  0  0  0
  158.8950  208.4010  156.1360 O   0  0  0  0  0  1  0  0  0  0  0  0
  159.0350  211.7870  153.4610 C   0  0  2  0  0  3  0  0  0  0  0  0
  158.4480  211.7830  152.2000 O   0  0  0  0  0  1  0  0  0  0  0  0
  159.4640  213.1960  153.8140 C   0  0  0  0  0  1  0  0  0  0  0  0
  161.9400  207.9750  155.2790 C   0  0  0  0  0  1  0  0  0  0  0  0
  161.7520  209.4780  155.0800 C   0  0  2  0  0  3  0  0  0  0  0  0
  161.3670  211.2900  156.8190 C   0  0  0  0  0  1  0  0  0  0  0  0
  162.7220  209.4030  157.2580 O   0  0  0  0  0  1  0  0  0  0  0  0
  162.3450  210.2890  156.2430 C   0  0  1  0  0  0  0  0  0  0  0  0
  164.7070  211.6040  157.1300 S   0  0  0  0  0  1  0  0  0  0  0  0
  163.5890  211.0710  155.7670 C   0  0  0  0  0  2  0  0  0  0  0  0
  162.6500  208.2280  150.7520 C   0  0  0  0  0  2  0  0  0  0  0  0
  162.3170  208.0570  149.3630 O   0  0  0  0  0  0  0  0  0  0  0  0
  162.1650  205.5740  151.2180 Cl  0  0  0  0  0  0  0  0  0  0  0  0
  161.5950  206.8750  147.4270 C   0  0  0  0  0  3  0  0  0  0  0  0
  161.8730  206.8580  148.7920 C   0  0  0  0  0  0  0  0  0  0  0  0
  161.1940  204.5090  148.8350 C   0  0  0  0  0  0  0  0  0  0  0  0
  161.6860  205.6580  149.5210 C   0  0  0  0  0  0  0  0  0  0  0  0
  161.1110  205.7720  146.7940 N   0  0  0  0  0  0  0  0  0  0  0  0
  160.9320  204.6070  147.4570 C   0  0  0  0  0  3  0  0  0  0  0  0
  160.3490  203.0990  150.5580 O   0  0  0  0  0  0  0  0  0  0  0  0
  160.9710  203.1920  149.4700 C   0  0  0  0  0  0  0  0  0  0  0  0
  161.5590  201.9460  148.8720 C   0  0  0  0  0  2  0  0  0  0  0  0
  159.2610  201.3010  148.8820 O   0  0  0  0  0  1  0  0  0  0  0  0
  160.4650  201.1130  148.2090 C   0  0  0  0  0  2  0  0  0  0  0  0
  1  8  1  0  0  0  0
  1  2  1  0  0  0  0
  2 16  1  0  0  0  0
  2  9  1  0  0  0  0
  3  7  1  0  0  0  0
  4  5  1  0  0  0  0
  5  1  1  0  0  0  0
  6  3  1  0  0  0  0
  6  5  1  0  0  0  0
  7  8  1  0  0  0  0
  8  2  1  0  0  0  0
  9 10  2  0  0  0  0
  9 11  1  0  0  0  0
 12  8  1  0  0  0  0
 12 14  1  0  0  0  0
 13 12  1  0  0  0  0
 16 15  1  0  0  0  0
 16 19  1  0  0  0  0
 19 17  1  0  0  0  0
 19 18  1  0  0  0  0
 21 19  1  0  0  0  0
 21 20  1  0  0  0  0
 22  6  1  0  0  0  0
 23 22  1  0  0  0  0
 25 26  1  0  0  0  0
 26 23  1  0  0  0  0
 26 28  2  0  0  0  0
 27 32  1  0  0  0  0
 27 28  1  0  0  0  0
 28 24  1  0  0  0  0
 29 25  2  0  0  0  0
 29 30  1  0  0  0  0
 30 27  2  0  0  0  0
 32 31  2  0  0  0  0
 33 32  1  0  0  0  0
 35 33  1  0  0  0  0
 35 34  1  0  0  0  0
M  END
>  <MODEL>
6

>  <REMARK>
 VINA RESULT:      -2.5      2.213      3.755
  Name = 
  11 active torsions:
  status: ('A' for Active; 'I' for Inactive)
    1  A    between atoms: C_4  and  O_5
    2  A    between atoms: C_4  and  C_26
    3  A    between atoms: O_5  and  C_9
    4  A    between atoms: C_6  and  C_11
    5  A    between atoms: C_11  and  C_34
    6  A    between atoms: C_12  and  C_23
    7  A    between atoms: C_23  and  C_35
    8  A    between atoms: C_24  and  C_32
    9  A    between atoms: C_24  and  C_34
   10  A    between atoms: C_25  and  C_33
   11  A    between atoms: C_28  and  C_35
                            x       y       z     vdW  Elec       q    Type
                         _______ _______ _______ _____ _____    ______ ____

>  <TORSDO>
F 11

$$$$
