=
 OpenBabel11072410413D

 50 56  0  0  1  0  0  0  0  0999 V2000
  161.2170  214.3600  147.8510 C   0  0  0  0  0  1  0  0  0  0  0  0
  160.0890  209.9760  151.8690 O   0  0  0  0  0  1  0  0  0  0  0  0
  157.3800  211.8500  155.1980 C   0  0  2  0  0  3  0  0  0  0  0  0
  160.7620  213.0920  148.3500 N   0  0  0  0  0  0  0  0  0  0  0  0
  160.5170  212.8770  149.5970 C   0  0  0  0  0  0  0  0  0  0  0  0
  159.6960  213.7160  151.7880 C   0  0  0  0  0  2  0  0  0  0  0  0
  160.4240  211.2810  151.4860 C   0  0  1  0  0  3  0  0  0  0  0  0
  155.4240  212.7510  156.1900 C   0  0  2  0  0  3  0  0  0  0  0  0
  158.4660  211.9150  152.9740 C   0  0  0  0  0  2  0  0  0  0  0  0
  157.6550  212.3960  156.5460 C   0  0  0  0  0  0  0  0  0  0  0  0
  160.0370  211.5620  156.9090 C   0  0  2  0  0  3  0  0  0  0  0  0
  158.7860  212.3230  157.2540 C   0  0  0  0  0  3  0  0  0  0  0  0
  156.5210  212.9630  157.0620 O   0  0  0  0  0  0  0  0  0  0  0  0
  158.0200  212.7470  154.1640 C   0  0  0  0  0  2  0  0  0  0  0  0
  160.9350  212.1240  155.8030 C   0  0  1  0  0  3  0  0  0  0  0  0
  160.8430  212.5200  153.6240 C   0  0  0  0  0  2  0  0  0  0  0  0
  160.0570  211.5180  150.0210 C   0  0  0  0  0  2  0  0  0  0  0  0
  159.8550  212.3420  152.4650 C   0  0  2  0  0  0  0  0  0  0  0  0
  162.3860  211.9180  156.2020 C   0  0  0  0  0  1  0  0  0  0  0  0
  155.9260  211.9620  155.0430 N   0  0  0  0  0  0  0  0  0  0  0  0
  160.6910  213.9490  150.6490 C   0  0  0  0  0  2  0  0  0  0  0  0
  160.6990  211.4940  154.5740 O   0  0  0  0  0  0  0  0  0  0  0  0
  156.3630  209.4990  154.9280 C   0  0  0  0  0  1  0  0  0  0  0  0
  155.3350  210.6200  154.9960 C   0  0  0  0  0  3  0  0  0  0  0  0
  154.3970  210.3970  156.1650 C   0  0  0  0  0  1  0  0  0  0  0  0
  153.8570  214.2680  156.5560 C   0  0  0  0  0  1  0  0  0  0  0  0
  154.9540  213.9850  155.7350 O   0  0  0  0  0  0  0  0  0  0  0  0
  159.8390  210.1710  156.8410 O   0  0  0  0  0  0  0  0  0  0  0  0
  161.0630  209.6650  156.7550 O   0  0  0  0  0  0  0  0  0  0  0  0
  161.9490  205.9210  154.7310 O   0  0  0  0  0  1  0  0  0  0  0  0
  160.9140  208.4000  156.1660 C   0  0  1  0  0  0  0  0  0  0  0  0
  159.7380  206.4650  154.3880 O   0  0  0  0  0  0  0  0  0  0  0  0
  161.3530  208.2390  154.6990 C   0  0  0  0  0  2  0  0  0  0  0  0
  161.0050  207.2340  157.1310 C   0  0  0  0  0  2  0  0  0  0  0  0
  159.0940  206.7250  155.6020 C   0  0  0  0  0  0  0  0  0  0  0  0
  161.0860  206.8470  154.1350 C   0  0  1  0  0  0  0  0  0  0  0  0
  159.6430  207.6930  156.6180 C   0  0  2  0  0  3  0  0  0  0  0  0
  157.9770  206.1890  155.8250 O   0  0  0  0  0  0  0  0  0  0  0  0
  162.3350  208.3580  149.6950 C   0  0  0  0  0  3  0  0  0  0  0  0
  161.3460  206.8780  152.6620 C   0  0  0  0  0  0  0  0  0  0  0  0
  161.8850  207.6180  150.7800 C   0  0  0  0  0  0  0  0  0  0  0  0
  161.0490  205.8420  151.8240 N   0  0  0  0  0  0  0  0  0  0  0  0
  161.8430  207.9400  152.0420 O   0  0  0  0  0  0  0  0  0  0  0  0
  162.2720  207.7320  148.4350 C   0  0  0  0  0  3  0  0  0  0  0  0
  161.3380  205.7350  149.4310 N   0  0  0  0  0  0  0  0  0  0  0  0
  161.7670  206.4070  148.3150 C   0  0  0  0  0  0  0  0  0  0  0  0
  161.4050  206.3560  150.6360 C   0  0  0  0  0  0  0  0  0  0  0  0
  160.8070  206.2930  146.0060 N   0  0  0  0  0  1  0  0  0  0  0  0
  162.3820  204.7570  146.7270 O   0  0  0  0  0  0  0  0  0  0  0  0
  161.6770  205.7660  146.9960 C   0  0  0  0  0  0  0  0  0  0  0  0
  1  4  1  0  0  0  0
  3 14  1  6  0  0  0
  3 10  1  0  0  0  0
  4  5  2  0  0  0  0
  5 17  1  0  0  0  0
  5 21  1  0  0  0  0
  7  2  1  1  0  0  0
  7 18  1  0  0  0  0
  8 27  1  6  0  0  0
  8 13  1  0  0  0  0
  9 14  1  0  0  0  0
 10 13  1  0  0  0  0
 10 12  2  0  0  0  0
 11 28  1  6  0  0  0
 11 12  1  0  0  0  0
 15 19  1  1  0  0  0
 15 11  1  0  0  0  0
 16 22  1  0  0  0  0
 17  7  1  0  0  0  0
 18  6  1  6  0  0  0
 18  9  1  0  0  0  0
 18 16  1  0  0  0  0
 20  3  1  0  0  0  0
 20  8  1  0  0  0  0
 21  6  1  0  0  0  0
 22 15  1  0  0  0  0
 23 24  1  0  0  0  0
 24 20  1  0  0  0  0
 24 25  1  0  0  0  0
 27 26  1  0  0  0  0
 29 28  1  0  0  0  0
 31 37  1  0  0  0  0
 31 29  1  1  0  0  0
 31 34  1  0  0  0  0
 32 35  1  0  0  0  0
 33 31  1  0  0  0  0
 35 38  2  0  0  0  0
 35 37  1  0  0  0  0
 36 32  1  0  0  0  0
 36 33  1  0  0  0  0
 36 30  1  1  0  0  0
 37 34  1  1  0  0  0
 39 41  1  0  0  0  0
 40 36  1  0  0  0  0
 41 43  1  0  0  0  0
 42 40  2  0  0  0  0
 43 40  1  0  0  0  0
 44 39  2  0  0  0  0
 45 47  1  0  0  0  0
 46 44  1  0  0  0  0
 46 45  2  0  0  0  0
 47 41  2  0  0  0  0
 47 42  1  0  0  0  0
 48 50  1  0  0  0  0
 49 50  2  0  0  0  0
 50 46  1  0  0  0  0
M  END
>  <MODEL>
1

>  <REMARK>
 VINA RESULT:       0.9      0.000      0.000
  Name = 
  7 active torsions:
  status: ('A' for Active; 'I' for Inactive)
    1  A    between atoms: O_5  and  C_16
    2  A    between atoms: O_5  and  O_24
    3  A    between atoms: C_9  and  C_40
    4  A    between atoms: C_17  and  O_30
    5  A    between atoms: C_20  and  O_24
    6  A    between atoms: C_29  and  C_43
    7  A    between atoms: C_41  and  N_48
                            x       y       z     vdW  Elec       q    Type
                         _______ _______ _______ _____ _____    ______ ____

>  <TORSDO>
F 7

$$$$
