=
 OpenBabel11072415063D

 64 66  0  0  1  0  0  0  0  0999 V2000
  159.2460  210.7090  153.6740 C   0  0  1  0  0  3  0  0  0  0  0  0
  159.3330  211.6180  154.9400 C   0  0  2  0  0  0  0  0  0  0  0  0
  161.5950  208.4370  154.2270 O   0  0  0  0  0  0  0  0  0  0  0  0
  160.6540  211.2300  155.7430 C   0  0  2  0  0  0  0  0  0  0  0  0
  161.7600  211.4500  154.9060 O   0  0  0  0  0  1  0  0  0  0  0  0
  161.8650  209.3930  156.7820 O   0  0  0  0  0  1  0  0  0  0  0  0
  160.9250  207.4340  154.9680 C   0  0  1  0  0  3  0  0  0  0  0  0
  160.2110  211.0480  152.7210 O   0  0  0  0  0  1  0  0  0  0  0  0
  159.2920  209.2070  153.9470 C   0  0  0  0  0  2  0  0  0  0  0  0
  160.6730  209.7330  156.1220 C   0  0  2  0  0  3  0  0  0  0  0  0
  160.4260  208.8360  154.8990 C   0  0  2  0  0  0  0  0  0  0  0  0
  160.9160  212.0520  157.0340 C   0  0  1  0  0  3  0  0  0  0  0  0
  162.3660  212.4500  157.2600 C   0  0  0  0  0  1  0  0  0  0  0  0
  160.0770  213.1530  157.1760 O   0  0  0  0  0  1  0  0  0  0  0  0
  157.9690  211.4100  155.7290 C   0  0  1  0  0  3  0  0  0  0  0  0
  157.7800  212.3940  156.8930 C   0  0  0  0  0  1  0  0  0  0  0  0
  155.9580  209.9240  155.4160 C   0  0  0  0  0  1  0  0  0  0  0  0
  156.6600  211.1810  154.9270 C   0  0  1  0  0  3  0  0  0  0  0  0
  155.2450  212.8850  153.7400 O   0  0  0  0  0  0  0  0  0  0  0  0
  155.2660  212.8090  156.0240 O   0  0  0  0  0  1  0  0  0  0  0  0
  155.6880  212.3350  154.9340 C   0  0  0  0  0  0  0  0  0  0  0  0
  159.5280  212.9410  154.4140 O   0  0  0  0  0  0  0  0  0  0  0  0
  158.6680  213.4010  152.9940 P   0  0  1  0  0  0  0  0  0  0  0  0
  158.0460  212.2250  152.2780 O   0  0  0  0  0  0  0  0  0  0  0  0
  157.4220  214.4530  153.4480 O   0  0  0  0  0  1  0  0  0  0  0  0
  159.7050  214.2300  151.9350 O   0  0  0  0  0  0  0  0  0  0  0  0
  160.0550  213.2990  150.9540 C   0  0  0  0  0  2  0  0  0  0  0  0
  159.9530  213.9350  149.5820 C   0  0  0  0  0  2  0  0  0  0  0  0
  158.5660  213.6770  149.0080 C   0  0  0  0  0  2  0  0  0  0  0  0
  158.6100  213.1160  147.5850 C   0  0  2  0  0  3  0  0  0  0  0  0
  159.4850  213.8390  146.7710 O   0  0  0  0  0  1  0  0  0  0  0  0
  156.7160  214.2770  146.3680 C   0  0  0  0  0  1  0  0  0  0  0  0
  157.2300  212.9690  146.9490 C   0  0  0  0  0  2  0  0  0  0  0  0
  160.2110  206.4830  154.0110 C   0  0  0  0  0  2  0  0  0  0  0  0
  161.1410  205.7490  153.2670 O   0  0  0  0  0  0  0  0  0  0  0  0
  161.5760  206.5810  152.3370 O   0  0  0  0  0  0  0  0  0  0  0  0
  161.5860  206.5030  149.9200 C   0  0  0  0  0  0  0  0  0  0  0  0
  161.6750  205.8270  148.8590 O   0  0  0  0  0  0  0  0  0  0  0  0
  161.6290  205.8450  151.1980 N   0  0  0  0  0  0  0  0  0  0  0  0
  161.4190  207.9970  149.8480 C   0  0  2  0  0  3  0  0  0  0  0  0
  161.4890  209.9060  148.3860 F   0  0  0  0  0  0  0  0  0  0  0  0
  161.6170  208.5270  148.4200 C   0  0  0  0  0  0  0  0  0  0  0  0
  160.6730  207.9640  147.5800 F   0  0  0  0  0  0  0  0  0  0  0  0
  162.8810  208.1830  147.9620 F   0  0  0  0  0  0  0  0  0  0  0  0
  163.2200  208.0800  151.3640 O   0  0  0  0  0  0  0  0  0  0  0  0
  162.2840  208.6840  150.8630 C   0  0  0  0  0  0  0  0  0  0  0  0
  162.0630  209.9840  151.2020 F   0  0  0  0  0  0  0  0  0  0  0  0
  161.9860  204.4270  151.2660 C   0  0  0  0  0  2  0  0  0  0  0  0
  159.5970  204.2840  150.5000 C   0  0  0  0  0  1  0  0  0  0  0  0
  160.8630  203.4950  150.7930 C   0  0  0  0  0  0  0  0  0  0  0  0
  160.5510  202.4380  151.8470 C   0  0  0  0  0  1  0  0  0  0  0  0
  161.2920  202.8140  149.4980 C   0  0  0  0  0  2  0  0  0  0  0  0
  160.2880  201.8650  149.0370 N   0  0  0  0  0  2  0  0  0  0  0  0
  161.8000  200.3500  148.1190 O   0  0  0  0  0  1  0  0  0  0  0  0
  160.7950  201.2680  147.8120 C   0  0  2  0  0  3  0  0  0  0  0  0
  161.3250  202.3350  146.9050 C   0  0  0  0  0  0  0  0  0  0  0  0
  162.3570  203.0920  147.2900 C   0  0  0  0  0  3  0  0  0  0  0  0
  162.3450  204.9630  145.6010 C   0  0  0  0  0  0  0  0  0  0  0  0
  160.2000  206.1810  144.9280 C   0  0  0  0  0  1  0  0  0  0  0  0
  160.8930  204.9150  145.2970 C   0  0  0  0  0  0  0  0  0  0  0  0
  162.9590  204.1870  146.5040 C   0  0  0  0  0  3  0  0  0  0  0  0
  163.0840  205.9420  145.0210 F   0  0  0  0  0  0  0  0  0  0  0  0
  160.7530  202.4360  145.5300 C   0  0  0  0  0  2  0  0  0  0  0  0
  160.1750  203.7900  145.2740 C   0  0  0  0  0  3  0  0  0  0  0  0
  1  8  1  6  0  0  0
  1  9  1  0  0  0  0
  1  2  1  0  0  0  0
  2 22  1  6  0  0  0
  2 15  1  0  0  0  0
  2  4  1  0  0  0  0
  3 11  1  0  0  0  0
  3  7  1  0  0  0  0
  4  5  1  6  0  0  0
  4 10  1  0  0  0  0
  4 12  1  0  0  0  0
  7 34  1  6  0  0  0
 10  6  1  6  0  0  0
 11  9  1  6  0  0  0
 11  7  1  0  0  0  0
 11 10  1  0  0  0  0
 12 14  1  0  0  0  0
 12 13  1  6  0  0  0
 15 16  1  6  0  0  0
 18 21  1  0  0  0  0
 18 17  1  1  0  0  0
 18 15  1  0  0  0  0
 19 21  2  0  0  0  0
 21 20  1  0  0  0  0
 23 24  2  6  0  0  0
 23 25  1  0  0  0  0
 23 22  1  0  0  0  0
 26 23  1  0  0  0  0
 27 26  1  0  0  0  0
 28 27  1  0  0  0  0
 29 28  1  0  0  0  0
 30 31  1  6  0  0  0
 30 29  1  0  0  0  0
 32 33  1  0  0  0  0
 33 30  1  0  0  0  0
 35 34  1  0  0  0  0
 36 35  1  0  0  0  0
 37 39  1  0  0  0  0
 38 37  2  0  0  0  0
 39 48  1  0  0  0  0
 39 36  1  0  0  0  0
 40 37  1  6  0  0  0
 40 46  1  0  0  0  0
 41 42  1  0  0  0  0
 42 40  1  0  0  0  0
 43 42  1  0  0  0  0
 44 42  1  0  0  0  0
 46 47  1  0  0  0  0
 46 45  2  0  0  0  0
 49 50  1  0  0  0  0
 50 48  1  0  0  0  0
 50 51  1  0  0  0  0
 52 50  1  0  0  0  0
 53 52  1  0  0  0  0
 55 54  1  1  0  0  0
 55 53  1  0  0  0  0
 56 57  2  0  0  0  0
 56 55  1  0  0  0  0
 58 61  2  0  0  0  0
 59 60  1  0  0  0  0
 60 58  1  0  0  0  0
 61 57  1  0  0  0  0
 62 58  1  0  0  0  0
 63 56  1  0  0  0  0
 64 60  2  0  0  0  0
 64 63  1  0  0  0  0
M  END
>  <MODEL>
1

>  <REMARK>
 VINA RESULT:      -4.0      0.000      0.000
  Name = 
  25 active torsions:
  status: ('A' for Active; 'I' for Inactive)
    1  A    between atoms: C_2  and  C_7
    2  A    between atoms: C_2  and  C_19
    3  A    between atoms: C_3  and  C_10
    4  A    between atoms: C_6  and  O_9
    5  A    between atoms: C_6  and  C_46
    6  A    between atoms: C_7  and  O_33
    7  A    between atoms: O_9  and  P_16
    8  A    between atoms: C_10  and  N_28
    9  A    between atoms: C_15  and  C_46
   10  A    between atoms: C_15  and  C_55
   11  A    between atoms: P_16  and  O_33
   12  A    between atoms: C_17  and  C_26
   13  A    between atoms: C_19  and  C_56
   14  A    between atoms: C_21  and  C_54
   15  A    between atoms: N_28  and  C_31
   16  A    between atoms: C_30  and  C_31
   17  A    between atoms: C_30  and  C_61
   18  A    between atoms: C_32  and  C_55
   19  A    between atoms: O_35  and  C_47
   20  A    between atoms: O_35  and  O_48
   21  A    between atoms: C_41  and  C_47
   22  A    between atoms: C_43  and  C_54
   23  A    between atoms: C_44  and  C_54
   24  A    between atoms: O_48  and  N_60
   25  A    between atoms: N_60  and  C_61
                            x       y       z     vdW  Elec       q    Type
                         _______ _______ _______ _____ _____    ______ ____

>  <TORSDO>
F 25

$$$$
