=
 OpenBabel11072414583D

 65 71  0  0  1  0  0  0  0  0999 V2000
  161.2650  210.1190  150.7850 C   0  0  2  0  0  3  0  0  0  0  0  0
  160.1050  212.5640  151.9730 O   0  0  0  0  0  0  0  0  0  0  0  0
  161.0930  213.6590  147.7460 C   0  0  2  0  0  3  0  0  0  0  0  0
  160.0480  213.8130  150.0060 N   0  0  0  0  0  2  0  0  0  0  0  0
  160.8770  211.3740  149.9980 C   0  0  2  0  0  3  0  0  0  0  0  0
  161.3640  212.1570  147.6870 C   0  0  0  0  0  2  0  0  0  0  0  0
  161.9760  211.6840  148.9900 C   0  0  0  0  0  2  0  0  0  0  0  0
  160.3570  212.6050  150.7250 C   0  0  0  0  0  0  0  0  0  0  0  0
  159.8270  213.9220  148.5690 C   0  0  0  0  0  2  0  0  0  0  0  0
  159.3710  214.4510  146.0060 C   0  0  0  0  0  1  0  0  0  0  0  0
  160.8370  214.1930  146.3040 C   0  0  2  0  0  3  0  0  0  0  0  0
  161.4680  213.3320  145.1920 C   0  0  0  0  0  2  0  0  0  0  0  0
  161.8920  214.1540  144.1090 O   0  0  0  0  0  0  0  0  0  0  0  0
  161.9090  213.2680  143.0070 C   0  0  0  0  0  2  0  0  0  0  0  0
  160.5330  213.1860  142.3300 C   0  0  1  0  0  3  0  0  0  0  0  0
  159.6840  214.4520  142.4040 C   0  0  0  0  0  1  0  0  0  0  0  0
  161.9350  210.1710  138.8480 C   0  0  0  0  0  0  0  0  0  0  0  0
  161.3420  210.6700  139.9790 C   0  0  0  0  0  0  0  0  0  0  0  0
  163.1240  210.7440  138.3770 C   0  0  0  0  0  3  0  0  0  0  0  0
  162.8630  212.5560  139.9690 C   0  0  0  0  0  3  0  0  0  0  0  0
  159.8760  210.5750  139.9010 C   0  0  1  0  0  3  0  0  0  0  0  0
  160.6190  212.6270  140.9730 N   0  0  0  0  0  0  0  0  0  0  0  0
  160.8350  209.9180  137.8390 C   0  0  2  0  0  3  0  0  0  0  0  0
  159.5050  211.8990  140.4660 C   0  0  0  0  0  0  0  0  0  0  0  0
  161.7550  211.8910  140.5210 C   0  0  0  0  0  0  0  0  0  0  0  0
  159.6360  210.5640  138.4470 N   0  0  0  0  0  0  0  0  0  0  0  0
  163.5950  211.9460  138.9460 C   0  0  0  0  0  3  0  0  0  0  0  0
  158.3090  212.3220  140.5190 O   0  0  0  0  0  0  0  0  0  0  0  0
  158.3270  210.0170  138.0780 C   0  0  0  0  0  1  0  0  0  0  0  0
  160.7240  208.3850  137.6010 C   0  0  0  0  0  2  0  0  0  0  0  0
  161.5310  207.7030  138.5290 O   0  0  0  0  0  1  0  0  0  0  0  0
  161.3840  210.4140  152.2770 C   0  0  0  0  0  2  0  0  0  0  0  0
  160.7550  209.6220  154.6560 C   0  0  1  0  0  3  0  0  0  0  0  0
  159.2380  208.7740  156.4660 C   0  0  0  0  0  1  0  0  0  0  0  0
  160.7510  209.3090  153.1390 C   0  0  2  0  0  3  0  0  0  0  0  0
  161.4130  207.9730  152.8840 C   0  0  0  0  0  3  0  0  0  0  0  0
  160.3990  208.4060  155.5540 C   0  0  1  0  0  3  0  0  0  0  0  0
  160.0980  207.1120  154.7500 C   0  0  0  0  0  2  0  0  0  0  0  0
  161.1150  206.9320  153.6410 C   0  0  0  0  0  0  0  0  0  0  0  0
  162.0750  210.9050  156.4900 C   0  0  0  0  0  1  0  0  0  0  0  0
  162.0310  210.2490  155.1410 C   0  0  0  0  0  0  0  0  0  0  0  0
  163.0420  210.2120  154.4710 O   0  0  0  0  0  0  0  0  0  0  0  0
  161.6500  205.6260  153.3870 N   0  0  0  0  0  2  0  0  0  0  0  0
  160.0370  203.7520  150.4900 N   0  0  0  0  0  0  0  0  0  0  0  0
  161.9480  203.2720  152.4780 C   0  0  1  0  0  3  0  0  0  0  0  0
  163.1590  203.6420  151.9170 F   0  0  0  0  0  0  0  0  0  0  0  0
  161.0040  204.4910  152.6730 C   0  0  2  0  0  3  0  0  0  0  0  0
  160.0480  202.5000  151.3180 C   0  0  0  0  0  2  0  0  0  0  0  0
  160.5270  204.9050  151.2930 C   0  0  0  0  0  2  0  0  0  0  0  0
  161.3650  202.1820  151.7580 O   0  0  0  0  0  0  0  0  0  0  0  0
  160.8540  203.5910  149.2840 C   0  0  0  0  0  0  0  0  0  0  0  0
  160.9100  202.2400  148.9020 F   0  0  0  0  0  0  0  0  0  0  0  0
  160.2660  204.2810  148.2400 F   0  0  0  0  0  0  0  0  0  0  0  0
  162.1220  204.0860  149.4360 F   0  0  0  0  0  0  0  0  0  0  0  0
  162.4500  209.4000  150.2970 N   0  0  0  0  0  2  0  0  0  0  0  0
  161.9700  207.8330  149.6240 P   0  0  2  0  0  0  0  0  0  0  0  0
  160.3620  207.5300  150.0650 O   0  0  0  0  0  0  0  0  0  0  0  0
  162.8620  206.7400  150.2070 O   0  0  0  0  0  1  0  0  0  0  0  0
  163.4530  207.9520  147.5430 O   0  0  0  0  0  1  0  0  0  0  0  0
  162.1240  207.8490  147.8560 N   0  0  0  0  0  0  0  0  0  0  0  0
  162.0600  204.9910  145.5260 C   0  0  0  0  0  2  0  0  0  0  0  0
  161.6520  206.5660  147.3230 C   0  0  2  0  0  3  0  0  0  0  0  0
  160.6810  205.6180  145.4240 C   0  0  0  0  0  2  0  0  0  0  0  0
  162.7460  205.6920  146.7100 C   0  0  0  0  0  2  0  0  0  0  0  0
  160.6470  206.8000  146.2770 N   0  0  0  0  0  2  0  0  0  0  0  0
  1 32  1  1  0  0  0
  3 11  1  6  0  0  0
  3  9  1  0  0  0  0
  4  8  1  0  0  0  0
  5  8  1  0  0  0  0
  5  1  1  1  0  0  0
  6  3  1  0  0  0  0
  6  7  1  0  0  0  0
  7  5  1  0  0  0  0
  8  2  2  0  0  0  0
  9  4  1  0  0  0  0
 11 10  1  6  0  0  0
 12 11  1  0  0  0  0
 13 12  1  0  0  0  0
 14 13  1  0  0  0  0
 15 16  1  6  0  0  0
 15 14  1  0  0  0  0
 17 18  1  0  0  0  0
 18 25  2  0  0  0  0
 19 17  2  0  0  0  0
 19 27  1  0  0  0  0
 20 25  1  0  0  0  0
 21 18  1  6  0  0  0
 21 24  1  0  0  0  0
 22 15  1  0  0  0  0
 23 30  1  1  0  0  0
 23 26  1  0  0  0  0
 23 17  1  0  0  0  0
 24 28  2  0  0  0  0
 24 22  1  0  0  0  0
 25 22  1  0  0  0  0
 26 21  1  0  0  0  0
 27 20  2  0  0  0  0
 29 26  1  0  0  0  0
 30 31  1  0  0  0  0
 33 41  1  1  0  0  0
 33 37  1  0  0  0  0
 35 32  1  6  0  0  0
 35 33  1  0  0  0  0
 36 35  1  0  0  0  0
 36 39  2  0  0  0  0
 37 34  1  6  0  0  0
 38 37  1  0  0  0  0
 39 38  1  0  0  0  0
 41 40  1  0  0  0  0
 42 41  2  0  0  0  0
 43 39  1  0  0  0  0
 44 49  1  0  0  0  0
 44 48  1  0  0  0  0
 45 46  1  6  0  0  0
 45 47  1  0  0  0  0
 47 43  1  6  0  0  0
 48 50  1  0  0  0  0
 49 47  1  0  0  0  0
 50 45  1  0  0  0  0
 51 54  1  0  0  0  0
 51 44  1  0  0  0  0
 52 51  1  0  0  0  0
 53 51  1  0  0  0  0
 55  1  1  0  0  0  0
 56 57  2  1  0  0  0
 56 58  1  0  0  0  0
 56 55  1  0  0  0  0
 59 60  1  0  0  0  0
 60 56  1  0  0  0  0
 61 64  1  0  0  0  0
 62 60  1  6  0  0  0
 63 61  1  0  0  0  0
 63 65  1  0  0  0  0
 64 62  1  0  0  0  0
 65 62  1  0  0  0  0
M  END
>  <MODEL>
1

>  <REMARK>
 VINA RESULT:      -4.2      0.000      0.000
  Name = 
  18 active torsions:
  status: ('A' for Active; 'I' for Inactive)
    1  A    between atoms: C_3  and  N_50
    2  A    between atoms: P_6  and  N_40
    3  A    between atoms: P_6  and  N_50
    4  A    between atoms: C_7  and  N_24
    5  A    between atoms: C_7  and  C_29
    6  A    between atoms: N_9  and  C_31
    7  A    between atoms: C_11  and  C_65
    8  A    between atoms: N_14  and  C_17
    9  A    between atoms: N_14  and  C_62
   10  A    between atoms: C_21  and  C_61
   11  A    between atoms: C_27  and  C_35
   12  A    between atoms: C_29  and  O_41
   13  A    between atoms: C_33  and  C_43
   14  A    between atoms: C_34  and  C_54
   15  A    between atoms: C_35  and  C_54
   16  A    between atoms: N_40  and  C_54
   17  A    between atoms: O_41  and  C_46
   18  A    between atoms: C_46  and  C_65
                            x       y       z     vdW  Elec       q    Type
                         _______ _______ _______ _____ _____    ______ ____

>  <TORSDO>
F 18

$$$$
=
 OpenBabel11072414583D

 65 71  0  0  1  0  0  0  0  0999 V2000
  161.3600  210.4310  151.3030 C   0  0  2  0  0  3  0  0  0  0  0  0
  159.6570  212.8250  151.6290 O   0  0  0  0  0  0  0  0  0  0  0  0
  161.0490  212.9370  147.3760 C   0  0  2  0  0  3  0  0  0  0  0  0
  159.6790  213.4730  149.3910 N   0  0  0  0  0  2  0  0  0  0  0  0
  160.8880  211.3320  150.1580 C   0  0  2  0  0  3  0  0  0  0  0  0
  161.5670  211.5570  147.7750 C   0  0  0  0  0  2  0  0  0  0  0  0
  162.0550  211.5750  149.2090 C   0  0  0  0  0  2  0  0  0  0  0  0
  160.0750  212.5840  150.4510 C   0  0  0  0  0  0  0  0  0  0  0  0
  159.6520  213.1530  147.9690 C   0  0  0  0  0  2  0  0  0  0  0  0
  160.1000  211.8780  145.2320 C   0  0  0  0  0  1  0  0  0  0  0  0
  160.9180  213.0100  145.8250 C   0  0  2  0  0  3  0  0  0  0  0  0
  162.2650  213.1440  145.0850 C   0  0  0  0  0  2  0  0  0  0  0  0
  162.2520  212.3690  143.8900 O   0  0  0  0  0  0  0  0  0  0  0  0
  161.1190  212.8510  143.1940 C   0  0  0  0  0  2  0  0  0  0  0  0
  161.5230  213.6790  141.9650 C   0  0  1  0  0  3  0  0  0  0  0  0
  163.0080  213.6550  141.6120 C   0  0  0  0  0  1  0  0  0  0  0  0
  159.5020  211.1310  138.4150 C   0  0  0  0  0  0  0  0  0  0  0  0
  159.8550  211.5750  139.6640 C   0  0  0  0  0  0  0  0  0  0  0  0
  160.3870  211.3050  137.3430 C   0  0  0  0  0  3  0  0  0  0  0  0
  161.7770  212.7220  138.7380 C   0  0  0  0  0  3  0  0  0  0  0  0
  158.6810  212.0480  140.4140 C   0  0  1  0  0  3  0  0  0  0  0  0
  160.6510  213.4160  140.8120 N   0  0  0  0  0  0  0  0  0  0  0  0
  158.0550  211.5140  138.1960 C   0  0  2  0  0  3  0  0  0  0  0  0
  159.2520  213.2720  141.0360 C   0  0  0  0  0  0  0  0  0  0  0  0
  160.9560  212.4180  139.8370 C   0  0  0  0  0  0  0  0  0  0  0  0
  157.7460  212.4210  139.3380 N   0  0  0  0  0  0  0  0  0  0  0  0
  161.5370  212.1050  137.5070 C   0  0  0  0  0  3  0  0  0  0  0  0
  158.5650  214.0870  141.7250 O   0  0  0  0  0  0  0  0  0  0  0  0
  156.3490  212.4850  139.7780 C   0  0  0  0  0  1  0  0  0  0  0  0
  157.2050  210.2130  138.1210 C   0  0  0  0  0  2  0  0  0  0  0  0
  156.1550  210.3870  137.2010 O   0  0  0  0  0  1  0  0  0  0  0  0
  161.5950  211.2340  152.5790 C   0  0  0  0  0  2  0  0  0  0  0  0
  160.5320  210.0100  154.5920 C   0  0  1  0  0  3  0  0  0  0  0  0
  160.0050  208.0510  156.0680 C   0  0  0  0  0  1  0  0  0  0  0  0
  161.8240  210.3280  153.8010 C   0  0  2  0  0  3  0  0  0  0  0  0
  162.8680  210.9130  154.7250 C   0  0  0  0  0  3  0  0  0  0  0  0
  160.7840  209.3540  155.9780 C   0  0  1  0  0  3  0  0  0  0  0  0
  162.2890  209.1370  156.2930 C   0  0  0  0  0  2  0  0  0  0  0  0
  163.0910  210.3620  155.9050 C   0  0  0  0  0  0  0  0  0  0  0  0
  158.5240  211.4290  153.7520 C   0  0  0  0  0  1  0  0  0  0  0  0
  159.6160  211.1890  154.7530 C   0  0  0  0  0  0  0  0  0  0  0  0
  159.7240  211.9430  155.6980 O   0  0  0  0  0  0  0  0  0  0  0  0
  164.1270  210.8270  156.7810 N   0  0  0  0  0  2  0  0  0  0  0  0
  167.4680  212.6530  156.8800 N   0  0  0  0  0  0  0  0  0  0  0  0
  165.4060  212.1730  155.0480 C   0  0  1  0  0  3  0  0  0  0  0  0
  165.7610  211.0020  154.3990 F   0  0  0  0  0  0  0  0  0  0  0  0
  165.0970  211.9310  156.5510 C   0  0  2  0  0  3  0  0  0  0  0  0
  166.8810  213.7330  156.0180 C   0  0  0  0  0  2  0  0  0  0  0  0
  166.4240  211.6540  157.2360 C   0  0  0  0  0  2  0  0  0  0  0  0
  166.3680  213.2030  154.8000 O   0  0  0  0  0  0  0  0  0  0  0  0
  168.5900  211.9940  156.2040 C   0  0  0  0  0  0  0  0  0  0  0  0
  169.6470  212.8980  156.0060 F   0  0  0  0  0  0  0  0  0  0  0  0
  169.0720  210.9790  157.0090 F   0  0  0  0  0  0  0  0  0  0  0  0
  168.2280  211.4300  155.0110 F   0  0  0  0  0  0  0  0  0  0  0  0
  162.5110  209.5690  151.0050 N   0  0  0  0  0  2  0  0  0  0  0  0
  161.9550  207.9380  150.5970 P   0  0  2  0  0  0  0  0  0  0  0  0
  160.6360  207.5570  151.5900 O   0  0  0  0  0  1  0  0  0  0  0  0
  163.0810  206.9410  150.8570 O   0  0  0  0  0  0  0  0  0  0  0  0
  162.6090  207.8620  148.1240 O   0  0  0  0  0  1  0  0  0  0  0  0
  161.4730  207.8610  148.8900 N   0  0  0  0  0  0  0  0  0  0  0  0
  160.5320  204.3590  149.5610 C   0  0  0  0  0  2  0  0  0  0  0  0
  160.7870  206.5890  148.6430 C   0  0  2  0  0  3  0  0  0  0  0  0
  161.2090  204.3360  148.2010 C   0  0  0  0  0  2  0  0  0  0  0  0
  160.3510  205.8460  149.9070 C   0  0  0  0  0  2  0  0  0  0  0  0
  161.6680  205.6850  147.8900 N   0  0  0  0  0  2  0  0  0  0  0  0
  1 32  1  1  0  0  0
  3 11  1  6  0  0  0
  3  6  1  0  0  0  0
  3  9  1  0  0  0  0
  4  8  1  0  0  0  0
  5  8  1  0  0  0  0
  5  1  1  1  0  0  0
  6  7  1  0  0  0  0
  7  5  1  0  0  0  0
  8  2  2  0  0  0  0
  9  4  1  0  0  0  0
 11 10  1  6  0  0  0
 12 11  1  0  0  0  0
 13 12  1  0  0  0  0
 14 13  1  0  0  0  0
 15 16  1  6  0  0  0
 15 14  1  0  0  0  0
 17 18  1  0  0  0  0
 18 25  2  0  0  0  0
 19 27  1  0  0  0  0
 19 17  2  0  0  0  0
 20 25  1  0  0  0  0
 21 18  1  6  0  0  0
 21 24  1  0  0  0  0
 22 24  1  0  0  0  0
 22 15  1  0  0  0  0
 23 30  1  1  0  0  0
 23 17  1  0  0  0  0
 23 26  1  0  0  0  0
 24 28  2  0  0  0  0
 25 22  1  0  0  0  0
 26 29  1  0  0  0  0
 26 21  1  0  0  0  0
 27 20  2  0  0  0  0
 31 30  1  0  0  0  0
 33 41  1  1  0  0  0
 33 37  1  0  0  0  0
 35 32  1  6  0  0  0
 35 33  1  0  0  0  0
 35 36  1  0  0  0  0
 36 39  2  0  0  0  0
 37 34  1  6  0  0  0
 37 38  1  0  0  0  0
 39 38  1  0  0  0  0
 39 43  1  0  0  0  0
 40 41  1  0  0  0  0
 41 42  2  0  0  0  0
 44 49  1  0  0  0  0
 45 46  1  1  0  0  0
 45 47  1  0  0  0  0
 47 43  1  6  0  0  0
 47 49  1  0  0  0  0
 48 44  1  0  0  0  0
 50 45  1  0  0  0  0
 50 48  1  0  0  0  0
 51 44  1  0  0  0  0
 51 53  1  0  0  0  0
 52 51  1  0  0  0  0
 54 51  1  0  0  0  0
 55  1  1  0  0  0  0
 56 58  2  1  0  0  0
 56 55  1  0  0  0  0
 56 57  1  0  0  0  0
 59 60  1  0  0  0  0
 60 56  1  0  0  0  0
 61 64  1  0  0  0  0
 62 60  1  1  0  0  0
 62 64  1  0  0  0  0
 63 61  1  0  0  0  0
 65 63  1  0  0  0  0
 65 62  1  0  0  0  0
M  END
>  <MODEL>
2

>  <REMARK>
 VINA RESULT:      -3.1      3.566      5.533
  Name = 
  18 active torsions:
  status: ('A' for Active; 'I' for Inactive)
    1  A    between atoms: C_3  and  N_50
    2  A    between atoms: P_6  and  N_40
    3  A    between atoms: P_6  and  N_50
    4  A    between atoms: C_7  and  N_24
    5  A    between atoms: C_7  and  C_29
    6  A    between atoms: N_9  and  C_31
    7  A    between atoms: C_11  and  C_65
    8  A    between atoms: N_14  and  C_17
    9  A    between atoms: N_14  and  C_62
   10  A    between atoms: C_21  and  C_61
   11  A    between atoms: C_27  and  C_35
   12  A    between atoms: C_29  and  O_41
   13  A    between atoms: C_33  and  C_43
   14  A    between atoms: C_34  and  C_54
   15  A    between atoms: C_35  and  C_54
   16  A    between atoms: N_40  and  C_54
   17  A    between atoms: O_41  and  C_46
   18  A    between atoms: C_46  and  C_65
                            x       y       z     vdW  Elec       q    Type
                         _______ _______ _______ _____ _____    ______ ____

>  <TORSDO>
F 18

$$$$
