=
 OpenBabel11072412183D

 38 40  0  0  1  0  0  0  0  0999 V2000
  161.9910  208.8230  148.2880 C   0  0  0  0  0  2  0  0  0  0  0  0
  162.1730  209.7610  151.3160 C   0  0  0  0  0  0  0  0  0  0  0  0
  161.9650  211.2110  149.2130 C   0  0  0  0  0  0  0  0  0  0  0  0
  161.8980  210.3160  148.2170 C   0  0  0  0  0  3  0  0  0  0  0  0
  162.0520  210.9250  150.6650 C   0  0  0  0  0  3  0  0  0  0  0  0
  161.8900  212.5500  148.8540 O   0  0  0  0  0  1  0  0  0  0  0  0
  162.3440  208.4360  150.6530 C   0  0  0  0  0  2  0  0  0  0  0  0
  161.3470  208.2540  149.5330 C   0  0  2  0  0  3  0  0  0  0  0  0
  161.0430  206.8060  149.3370 C   0  0  0  0  0  0  0  0  0  0  0  0
  161.5400  206.1460  148.1750 N   0  0  0  0  0  2  0  0  0  0  0  0
  160.3870  206.1650  150.2060 O   0  0  0  0  0  0  0  0  0  0  0  0
  161.2410  204.7490  147.8900 C   0  0  0  0  0  2  0  0  0  0  0  0
  163.0940  204.7520  146.2890 C   0  0  0  0  0  1  0  0  0  0  0  0
  161.6340  204.3520  146.4580 C   0  0  2  0  0  0  0  0  0  0  0  0
  161.5930  205.6150  144.2440 C   0  0  0  0  0  1  0  0  0  0  0  0
  159.6970  204.1480  144.8100 C   0  0  0  0  0  1  0  0  0  0  0  0
  160.7520  205.0810  145.3950 C   0  0  0  0  0  0  0  0  0  0  0  0
  160.0920  206.1520  145.9730 F   0  0  0  0  0  0  0  0  0  0  0  0
  161.1410  202.1280  147.1810 O   0  0  0  0  0  0  0  0  0  0  0  0
  161.5750  202.8530  146.2980 C   0  0  0  0  0  3  0  0  0  0  0  0
  162.1570  209.7830  152.8150 C   0  0  0  0  0  2  0  0  0  0  0  0
  159.7210  210.4450  152.6730 C   0  0  0  0  0  2  0  0  0  0  0  0
  158.1210  213.4450  154.5120 C   0  0  0  0  0  0  0  0  0  0  0  0
  158.9590  214.4520  154.0670 F   0  0  0  0  0  0  0  0  0  0  0  0
  156.8360  213.9420  154.5950 F   0  0  0  0  0  0  0  0  0  0  0  0
  159.6110  211.0270  154.9540 N   0  0  1  0  0  0  0  0  0  0  0  0
  160.7580  209.6040  153.4210 C   0  0  2  0  0  0  0  0  0  0  0  0
  160.7830  210.1740  154.8410 C   0  0  0  0  0  2  0  0  0  0  0  0
  158.5750  212.9970  155.9190 C   0  0  0  0  0  2  0  0  0  0  0  0
  159.8500  212.1420  155.8590 C   0  0  0  0  0  2  0  0  0  0  0  0
  158.1430  212.2840  153.5020 C   0  0  0  0  0  2  0  0  0  0  0  0
  159.4850  211.5840  153.6240 C   0  0  2  0  0  3  0  0  0  0  0  0
  160.3770  208.1150  153.4350 C   0  0  0  0  0  2  0  0  0  0  0  0
  161.4310  205.8780  153.8370 C   0  0  0  0  0  1  0  0  0  0  0  0
  161.2010  207.2700  154.4030 C   0  0  2  0  0  3  0  0  0  0  0  0
  161.1490  207.3200  156.7840 O   0  0  0  0  0  1  0  0  0  0  0  0
  159.1240  206.9750  155.7720 O   0  0  0  0  0  0  0  0  0  0  0  0
  160.4970  207.1810  155.7160 C   0  0  0  0  0  0  0  0  0  0  0  0
  1  8  1  0  0  0  0
  2 21  1  0  0  0  0
  3  5  1  0  0  0  0
  4  1  1  0  0  0  0
  4  3  2  0  0  0  0
  5  2  2  0  0  0  0
  6  3  1  0  0  0  0
  7  2  1  0  0  0  0
  8  9  1  6  0  0  0
  8  7  1  0  0  0  0
  9 11  2  0  0  0  0
 10  9  1  0  0  0  0
 12 10  1  0  0  0  0
 14 13  1  6  0  0  0
 14 12  1  0  0  0  0
 15 17  1  0  0  0  0
 16 17  1  0  0  0  0
 17 18  1  0  0  0  0
 17 14  1  0  0  0  0
 20 14  1  0  0  0  0
 20 19  2  0  0  0  0
 22 27  1  0  0  0  0
 23 25  1  0  0  0  0
 23 29  1  0  0  0  0
 24 23  1  0  0  0  0
 26 28  1  6  0  0  0
 26 30  1  0  0  0  0
 27 21  1  6  0  0  0
 27 33  1  0  0  0  0
 27 28  1  0  0  0  0
 30 29  1  0  0  0  0
 31 32  1  0  0  0  0
 31 23  1  0  0  0  0
 32 22  1  6  0  0  0
 32 26  1  0  0  0  0
 33 35  1  0  0  0  0
 35 34  1  6  0  0  0
 35 38  1  0  0  0  0
 38 37  2  0  0  0  0
 38 36  1  0  0  0  0
M  END
>  <MODEL>
1

>  <REMARK>
 VINA RESULT:      -6.7      0.000      0.000
  Name = 
  10 active torsions:
  status: ('A' for Active; 'I' for Inactive)
    1  A    between atoms: C_1  and  N_17
    2  A    between atoms: C_1  and  C_31
    3  A    between atoms: C_3  and  C_22
    4  A    between atoms: C_15  and  C_19
    5  A    between atoms: C_15  and  C_38
    6  A    between atoms: C_16  and  C_35
    7  A    between atoms: C_18  and  C_19
    8  A    between atoms: C_18  and  C_22
    9  A    between atoms: C_21  and  C_31
   10  A    between atoms: C_31  and  C_33
                            x       y       z     vdW  Elec       q    Type
                         _______ _______ _______ _____ _____    ______ ____

>  <TORSDO>
F 10

$$$$
=
 OpenBabel11072412183D

 38 40  0  0  1  0  0  0  0  0999 V2000
  161.8500  207.6640  149.1200 C   0  0  0  0  0  2  0  0  0  0  0  0
  162.2440  209.6180  151.5920 C   0  0  0  0  0  0  0  0  0  0  0  0
  161.9820  210.2220  149.1140 C   0  0  0  0  0  0  0  0  0  0  0  0
  161.8190  209.0340  148.5150 C   0  0  0  0  0  3  0  0  0  0  0  0
  162.1380  210.4740  150.5670 C   0  0  0  0  0  3  0  0  0  0  0  0
  161.9460  211.3430  148.2960 O   0  0  0  0  0  1  0  0  0  0  0  0
  162.3180  208.1350  151.4500 C   0  0  0  0  0  2  0  0  0  0  0  0
  161.2520  207.6240  150.5090 C   0  0  2  0  0  3  0  0  0  0  0  0
  160.8730  206.2250  150.8640 C   0  0  0  0  0  0  0  0  0  0  0  0
  160.4580  205.3370  149.8280 N   0  0  0  0  0  2  0  0  0  0  0  0
  160.9560  205.8210  152.0590 O   0  0  0  0  0  0  0  0  0  0  0  0
  160.0240  203.9740  150.1050 C   0  0  0  0  0  2  0  0  0  0  0  0
  161.9440  203.5830  148.6340 C   0  0  0  0  0  1  0  0  0  0  0  0
  161.0910  202.9360  149.7170 C   0  0  2  0  0  0  0  0  0  0  0  0
  158.9330  201.6240  149.3670 C   0  0  0  0  0  1  0  0  0  0  0  0
  160.7270  201.4280  147.6910 C   0  0  0  0  0  1  0  0  0  0  0  0
  160.4440  201.6210  149.1770 C   0  0  0  0  0  0  0  0  0  0  0  0
  160.9540  200.5240  149.8490 F   0  0  0  0  0  0  0  0  0  0  0  0
  161.6040  202.7010  152.0390 O   0  0  0  0  0  0  0  0  0  0  0  0
  162.0060  202.6680  150.8860 C   0  0  0  0  0  3  0  0  0  0  0  0
  162.3130  210.1810  152.9790 C   0  0  0  0  0  2  0  0  0  0  0  0
  159.7860  210.1910  152.9170 C   0  0  0  0  0  2  0  0  0  0  0  0
  157.5580  213.2770  153.5930 C   0  0  0  0  0  0  0  0  0  0  0  0
  158.1020  214.1520  152.6710 F   0  0  0  0  0  0  0  0  0  0  0  0
  156.1940  213.4790  153.6440 F   0  0  0  0  0  0  0  0  0  0  0  0
  159.6160  211.6460  154.7630 N   0  0  1  0  0  0  0  0  0  0  0  0
  161.0250  209.9850  153.7910 C   0  0  2  0  0  0  0  0  0  0  0  0
  160.9580  211.0940  154.8440 C   0  0  0  0  0  2  0  0  0  0  0  0
  158.1580  213.5730  154.9850 C   0  0  0  0  0  2  0  0  0  0  0  0
  159.6030  213.0630  155.1000 C   0  0  0  0  0  2  0  0  0  0  0  0
  157.8310  211.8310  153.1430 C   0  0  0  0  0  2  0  0  0  0  0  0
  159.3080  211.5480  153.3510 C   0  0  2  0  0  3  0  0  0  0  0  0
  161.0270  208.5990  154.4550 C   0  0  0  0  0  2  0  0  0  0  0  0
  162.0530  208.7610  156.7350 C   0  0  0  0  0  1  0  0  0  0  0  0
  160.7540  208.6260  155.9570 C   0  0  2  0  0  3  0  0  0  0  0  0
  160.5240  206.6470  157.2610 O   0  0  0  0  0  1  0  0  0  0  0  0
  158.8280  207.0360  155.7720 O   0  0  0  0  0  0  0  0  0  0  0  0
  160.0390  207.3800  156.3610 C   0  0  0  0  0  0  0  0  0  0  0  0
  1  8  1  0  0  0  0
  2 21  1  0  0  0  0
  3  5  1  0  0  0  0
  4  3  2  0  0  0  0
  4  1  1  0  0  0  0
  5  2  2  0  0  0  0
  6  3  1  0  0  0  0
  7  2  1  0  0  0  0
  8  9  1  1  0  0  0
  8  7  1  0  0  0  0
  9 11  2  0  0  0  0
 10 12  1  0  0  0  0
 10  9  1  0  0  0  0
 14 13  1  6  0  0  0
 14 12  1  0  0  0  0
 14 20  1  0  0  0  0
 16 17  1  0  0  0  0
 17 15  1  0  0  0  0
 17 14  1  0  0  0  0
 17 18  1  0  0  0  0
 20 19  2  0  0  0  0
 22 27  1  0  0  0  0
 23 25  1  0  0  0  0
 23 29  1  0  0  0  0
 24 23  1  0  0  0  0
 26 28  1  6  0  0  0
 26 30  1  0  0  0  0
 27 21  1  6  0  0  0
 27 33  1  0  0  0  0
 27 28  1  0  0  0  0
 29 30  1  0  0  0  0
 31 32  1  0  0  0  0
 31 23  1  0  0  0  0
 32 22  1  1  0  0  0
 32 26  1  0  0  0  0
 33 35  1  0  0  0  0
 35 38  1  0  0  0  0
 35 34  1  1  0  0  0
 37 38  2  0  0  0  0
 38 36  1  0  0  0  0
M  END
>  <MODEL>
2

>  <REMARK>
 VINA RESULT:      -6.5      2.209      2.663
  Name = 
  10 active torsions:
  status: ('A' for Active; 'I' for Inactive)
    1  A    between atoms: C_1  and  N_17
    2  A    between atoms: C_1  and  C_31
    3  A    between atoms: C_3  and  C_22
    4  A    between atoms: C_15  and  C_19
    5  A    between atoms: C_15  and  C_38
    6  A    between atoms: C_16  and  C_35
    7  A    between atoms: C_18  and  C_19
    8  A    between atoms: C_18  and  C_22
    9  A    between atoms: C_21  and  C_31
   10  A    between atoms: C_31  and  C_33
                            x       y       z     vdW  Elec       q    Type
                         _______ _______ _______ _____ _____    ______ ____

>  <TORSDO>
F 10

$$$$
=
 OpenBabel11072412183D

 38 40  0  0  1  0  0  0  0  0999 V2000
  160.7180  211.4320  151.4770 C   0  0  0  0  0  2  0  0  0  0  0  0
  161.9490  208.7280  150.3560 C   0  0  0  0  0  0  0  0  0  0  0  0
  161.9520  211.0480  149.2650 C   0  0  0  0  0  0  0  0  0  0  0  0
  161.3330  211.8220  150.1680 C   0  0  0  0  0  3  0  0  0  0  0  0
  162.2660  209.6040  149.3940 C   0  0  0  0  0  3  0  0  0  0  0  0
  162.3950  211.6720  148.1070 O   0  0  0  0  0  1  0  0  0  0  0  0
  161.0790  209.0370  151.5270 C   0  0  0  0  0  2  0  0  0  0  0  0
  161.4860  210.3360  152.1810 C   0  0  2  0  0  3  0  0  0  0  0  0
  161.1390  210.3190  153.6330 C   0  0  0  0  0  0  0  0  0  0  0  0
  159.7710  210.4320  154.0180 N   0  0  0  0  0  2  0  0  0  0  0  0
  162.0400  210.1670  154.5060 O   0  0  0  0  0  0  0  0  0  0  0  0
  159.3620  210.4750  155.4150 C   0  0  0  0  0  2  0  0  0  0  0  0
  158.9720  212.0390  157.2610 C   0  0  0  0  0  1  0  0  0  0  0  0
  158.6880  211.8070  155.7820 C   0  0  2  0  0  0  0  0  0  0  0  0
  156.3800  212.4600  156.6480 C   0  0  0  0  0  1  0  0  0  0  0  0
  156.7720  212.4310  154.2160 C   0  0  0  0  0  1  0  0  0  0  0  0
  157.1460  211.7600  155.5330 C   0  0  0  0  0  0  0  0  0  0  0  0
  156.7090  210.4470  155.4760 F   0  0  0  0  0  0  0  0  0  0  0  0
  159.5270  214.0330  155.5550 O   0  0  0  0  0  0  0  0  0  0  0  0
  159.3370  212.9440  155.0330 C   0  0  0  0  0  3  0  0  0  0  0  0
  162.4840  207.3330  150.2460 C   0  0  0  0  0  2  0  0  0  0  0  0
  162.0870  205.0720  149.1880 C   0  0  0  0  0  2  0  0  0  0  0  0
  161.5160  204.4520  145.4150 C   0  0  0  0  0  0  0  0  0  0  0  0
  162.6500  205.0660  144.9130 F   0  0  0  0  0  0  0  0  0  0  0  0
  161.2510  203.3280  144.6600 F   0  0  0  0  0  0  0  0  0  0  0  0
  160.4970  205.9180  147.6680 N   0  0  1  0  0  0  0  0  0  0  0  0
  161.4310  206.2970  149.8290 C   0  0  2  0  0  0  0  0  0  0  0  0
  160.5740  206.9150  148.7220 C   0  0  0  0  0  2  0  0  0  0  0  0
  160.3230  205.4240  145.2980 C   0  0  0  0  0  2  0  0  0  0  0  0
  160.3920  206.5390  146.3550 C   0  0  0  0  0  2  0  0  0  0  0  0
  161.7720  204.0250  146.8710 C   0  0  0  0  0  2  0  0  0  0  0  0
  161.7940  205.2780  147.7280 C   0  0  2  0  0  3  0  0  0  0  0  0
  160.5670  205.9090  151.0390 C   0  0  0  0  0  2  0  0  0  0  0  0
  160.8150  203.8510  152.4470 C   0  0  0  0  0  1  0  0  0  0  0  0
  161.3450  205.2510  152.1760 C   0  0  2  0  0  3  0  0  0  0  0  0
  160.1540  206.1310  154.0420 O   0  0  0  0  0  1  0  0  0  0  0  0
  162.3390  206.7980  153.8760 O   0  0  0  0  0  0  0  0  0  0  0  0
  161.2400  206.0880  153.4070 C   0  0  0  0  0  0  0  0  0  0  0  0
  1  8  1  0  0  0  0
  2  7  1  0  0  0  0
  3  5  1  0  0  0  0
  3  4  2  0  0  0  0
  4  1  1  0  0  0  0
  5  2  2  0  0  0  0
  6  3  1  0  0  0  0
  7  8  1  0  0  0  0
  8  9  1  1  0  0  0
  9 10  1  0  0  0  0
  9 11  2  0  0  0  0
 10 12  1  0  0  0  0
 12 14  1  0  0  0  0
 14 13  1  1  0  0  0
 16 17  1  0  0  0  0
 17 14  1  0  0  0  0
 17 15  1  0  0  0  0
 18 17  1  0  0  0  0
 20 19  2  0  0  0  0
 20 14  1  0  0  0  0
 21  2  1  0  0  0  0
 22 27  1  0  0  0  0
 23 31  1  0  0  0  0
 24 23  1  0  0  0  0
 25 23  1  0  0  0  0
 26 30  1  6  0  0  0
 26 32  1  0  0  0  0
 26 28  1  0  0  0  0
 27 21  1  1  0  0  0
 27 33  1  0  0  0  0
 28 27  1  0  0  0  0
 29 23  1  0  0  0  0
 29 30  1  0  0  0  0
 32 31  1  6  0  0  0
 32 22  1  0  0  0  0
 33 35  1  0  0  0  0
 35 34  1  1  0  0  0
 35 38  1  0  0  0  0
 38 37  2  0  0  0  0
 38 36  1  0  0  0  0
M  END
>  <MODEL>
3

>  <REMARK>
 VINA RESULT:      -6.3      2.261      8.940
  Name = 
  10 active torsions:
  status: ('A' for Active; 'I' for Inactive)
    1  A    between atoms: C_1  and  N_17
    2  A    between atoms: C_1  and  C_31
    3  A    between atoms: C_3  and  C_22
    4  A    between atoms: C_15  and  C_19
    5  A    between atoms: C_15  and  C_38
    6  A    between atoms: C_16  and  C_35
    7  A    between atoms: C_18  and  C_19
    8  A    between atoms: C_18  and  C_22
    9  A    between atoms: C_21  and  C_31
   10  A    between atoms: C_31  and  C_33
                            x       y       z     vdW  Elec       q    Type
                         _______ _______ _______ _____ _____    ______ ____

>  <TORSDO>
F 10

$$$$
=
 OpenBabel11072412183D

 38 40  0  0  1  0  0  0  0  0999 V2000
  160.5040  206.7340  154.5160 C   0  0  0  0  0  2  0  0  0  0  0  0
  160.7340  209.7220  153.4680 C   0  0  0  0  0  0  0  0  0  0  0  0
  160.7500  208.8820  155.8890 C   0  0  0  0  0  0  0  0  0  0  0  0
  160.6550  207.5510  155.7620 C   0  0  0  0  0  3  0  0  0  0  0  0
  160.8270  209.8790  154.7950 C   0  0  0  0  0  3  0  0  0  0  0  0
  160.8410  209.3800  157.1820 O   0  0  0  0  0  1  0  0  0  0  0  0
  160.4250  208.4310  152.7890 C   0  0  0  0  0  2  0  0  0  0  0  0
  161.2690  207.3080  153.3440 C   0  0  2  0  0  3  0  0  0  0  0  0
  161.4820  206.2560  152.3070 C   0  0  0  0  0  0  0  0  0  0  0  0
  162.0320  206.6300  151.0450 N   0  0  0  0  0  2  0  0  0  0  0  0
  161.2160  205.0460  152.5550 O   0  0  0  0  0  0  0  0  0  0  0  0
  162.2200  205.6690  149.9670 C   0  0  0  0  0  2  0  0  0  0  0  0
  160.2580  206.5600  148.8020 C   0  0  0  0  0  1  0  0  0  0  0  0
  161.7280  206.2100  148.6140 C   0  0  2  0  0  0  0  0  0  0  0  0
  161.6280  203.7390  147.9930 C   0  0  0  0  0  1  0  0  0  0  0  0
  160.9170  205.4120  146.3310 C   0  0  0  0  0  1  0  0  0  0  0  0
  161.8860  205.1490  147.4790 C   0  0  0  0  0  0  0  0  0  0  0  0
  163.1700  205.1850  146.9630 F   0  0  0  0  0  0  0  0  0  0  0  0
  161.8550  208.5700  148.2580 O   0  0  0  0  0  0  0  0  0  0  0  0
  162.4400  207.4970  148.2770 C   0  0  0  0  0  3  0  0  0  0  0  0
  160.9340  210.9260  152.5970 C   0  0  0  0  0  2  0  0  0  0  0  0
  159.7320  213.0490  153.2600 C   0  0  0  0  0  2  0  0  0  0  0  0
  157.3050  213.3880  156.2510 C   0  0  0  0  0  0  0  0  0  0  0  0
  158.1280  212.9220  157.2610 F   0  0  0  0  0  0  0  0  0  0  0  0
  156.5380  214.4220  156.7470 F   0  0  0  0  0  0  0  0  0  0  0  0
  157.7520  211.9040  153.8300 N   0  0  1  0  0  0  0  0  0  0  0  0
  159.6680  211.7750  152.4150 C   0  0  2  0  0  0  0  0  0  0  0  0
  158.4850  210.9820  152.9780 C   0  0  0  0  0  2  0  0  0  0  0  0
  156.3710  212.2470  155.7950 C   0  0  0  0  0  2  0  0  0  0  0  0
  157.1160  211.2090  154.9400 C   0  0  0  0  0  2  0  0  0  0  0  0
  158.1710  213.9200  155.0960 C   0  0  0  0  0  2  0  0  0  0  0  0
  158.7990  212.7280  154.3950 C   0  0  2  0  0  3  0  0  0  0  0  0
  159.4570  212.0920  150.9260 C   0  0  0  0  0  2  0  0  0  0  0  0
  159.4500  214.4240  150.0100 C   0  0  0  0  0  1  0  0  0  0  0  0
  160.3180  213.2400  150.4050 C   0  0  2  0  0  3  0  0  0  0  0  0
  161.1340  213.4610  148.1790 O   0  0  0  0  0  0  0  0  0  0  0  0
  161.8710  211.6100  149.3080 O   0  0  0  0  0  1  0  0  0  0  0  0
  161.1190  212.7760  149.2350 C   0  0  0  0  0  0  0  0  0  0  0  0
  1  4  1  0  0  0  0
  2  5  2  0  0  0  0
  3  6  1  0  0  0  0
  4  3  2  0  0  0  0
  5  3  1  0  0  0  0
  7  8  1  0  0  0  0
  7  2  1  0  0  0  0
  8  9  1  6  0  0  0
  8  1  1  0  0  0  0
  9 11  2  0  0  0  0
 10  9  1  0  0  0  0
 12 10  1  0  0  0  0
 14 13  1  1  0  0  0
 14 12  1  0  0  0  0
 16 17  1  0  0  0  0
 17 15  1  0  0  0  0
 17 14  1  0  0  0  0
 18 17  1  0  0  0  0
 19 20  2  0  0  0  0
 20 14  1  0  0  0  0
 21  2  1  0  0  0  0
 23 25  1  0  0  0  0
 23 24  1  0  0  0  0
 26 28  1  6  0  0  0
 26 32  1  0  0  0  0
 26 30  1  0  0  0  0
 27 33  1  6  0  0  0
 27 21  1  0  0  0  0
 27 28  1  0  0  0  0
 27 22  1  0  0  0  0
 29 23  1  0  0  0  0
 30 29  1  0  0  0  0
 31 23  1  0  0  0  0
 32 22  1  6  0  0  0
 32 31  1  0  0  0  0
 35 34  1  6  0  0  0
 35 33  1  0  0  0  0
 36 38  2  0  0  0  0
 38 37  1  0  0  0  0
 38 35  1  0  0  0  0
M  END
>  <MODEL>
4

>  <REMARK>
 VINA RESULT:      -6.2      2.145      5.024
  Name = 
  10 active torsions:
  status: ('A' for Active; 'I' for Inactive)
    1  A    between atoms: C_1  and  N_17
    2  A    between atoms: C_1  and  C_31
    3  A    between atoms: C_3  and  C_22
    4  A    between atoms: C_15  and  C_19
    5  A    between atoms: C_15  and  C_38
    6  A    between atoms: C_16  and  C_35
    7  A    between atoms: C_18  and  C_19
    8  A    between atoms: C_18  and  C_22
    9  A    between atoms: C_21  and  C_31
   10  A    between atoms: C_31  and  C_33
                            x       y       z     vdW  Elec       q    Type
                         _______ _______ _______ _____ _____    ______ ____

>  <TORSDO>
F 10

$$$$
=
 OpenBabel11072412183D

 38 40  0  0  1  0  0  0  0  0999 V2000
  161.4180  206.1080  151.1780 C   0  0  0  0  0  2  0  0  0  0  0  0
  160.7930  208.9590  152.4280 C   0  0  0  0  0  0  0  0  0  0  0  0
  161.3900  206.7860  153.6480 C   0  0  0  0  0  0  0  0  0  0  0  0
  161.5800  205.9070  152.6530 C   0  0  0  0  0  3  0  0  0  0  0  0
  161.0610  208.2250  153.5160 C   0  0  0  0  0  3  0  0  0  0  0  0
  161.5740  206.3130  154.9400 O   0  0  0  0  0  1  0  0  0  0  0  0
  160.6780  208.4110  151.0460 C   0  0  0  0  0  2  0  0  0  0  0  0
  161.8330  207.4910  150.7270 C   0  0  2  0  0  3  0  0  0  0  0  0
  162.1070  207.4910  149.2600 C   0  0  0  0  0  0  0  0  0  0  0  0
  161.5850  206.4330  148.4580 N   0  0  0  0  0  2  0  0  0  0  0  0
  162.7600  208.4330  148.7290 O   0  0  0  0  0  0  0  0  0  0  0  0
  161.8550  206.3380  147.0300 C   0  0  0  0  0  2  0  0  0  0  0  0
  163.3360  204.4860  146.4140 C   0  0  0  0  0  1  0  0  0  0  0  0
  161.8700  204.8810  146.5380 C   0  0  2  0  0  0  0  0  0  0  0  0
  160.7260  203.2940  144.9020 C   0  0  0  0  0  1  0  0  0  0  0  0
  159.9130  205.6130  145.0730 C   0  0  0  0  0  1  0  0  0  0  0  0
  161.1560  204.7340  145.1570 C   0  0  0  0  0  0  0  0  0  0  0  0
  162.0080  205.1100  144.1330 F   0  0  0  0  0  0  0  0  0  0  0  0
  161.5440  202.7850  147.6380 O   0  0  0  0  0  0  0  0  0  0  0  0
  161.2630  203.9730  147.5780 C   0  0  0  0  0  3  0  0  0  0  0  0
  160.5710  210.4310  152.6050 C   0  0  0  0  0  2  0  0  0  0  0  0
  158.9600  210.2810  154.5470 C   0  0  0  0  0  2  0  0  0  0  0  0
  156.0670  212.7520  155.2330 C   0  0  0  0  0  0  0  0  0  0  0  0
  155.4170  212.6780  154.0130 F   0  0  0  0  0  0  0  0  0  0  0  0
  155.1220  212.8640  156.2320 F   0  0  0  0  0  0  0  0  0  0  0  0
  158.9140  212.6170  154.8580 N   0  0  1  0  0  0  0  0  0  0  0  0
  160.2960  210.8450  154.0570 C   0  0  2  0  0  0  0  0  0  0  0  0
  160.1210  212.3660  154.0880 C   0  0  0  0  0  2  0  0  0  0  0  0
  156.9650  214.0080  155.2500 C   0  0  0  0  0  2  0  0  0  0  0  0
  158.2280  213.8150  154.3960 C   0  0  0  0  0  2  0  0  0  0  0  0
  156.8760  211.4620  155.4550 C   0  0  0  0  0  2  0  0  0  0  0  0
  158.0700  211.4910  154.5170 C   0  0  2  0  0  3  0  0  0  0  0  0
  161.4610  210.4090  154.9590 C   0  0  0  0  0  2  0  0  0  0  0  0
  161.9860  211.4040  157.1980 C   0  0  0  0  0  1  0  0  0  0  0  0
  161.1270  210.3980  156.4480 C   0  0  2  0  0  3  0  0  0  0  0  0
  162.5040  208.6330  157.2600 O   0  0  0  0  0  1  0  0  0  0  0  0
  160.2560  208.1950  157.2590 O   0  0  0  0  0  0  0  0  0  0  0  0
  161.3380  209.0280  157.0010 C   0  0  0  0  0  0  0  0  0  0  0  0
  1  4  1  0  0  0  0
  2 21  1  0  0  0  0
  2  5  2  0  0  0  0
  3  6  1  0  0  0  0
  4  3  2  0  0  0  0
  5  3  1  0  0  0  0
  7  2  1  0  0  0  0
  8  9  1  6  0  0  0
  8  7  1  0  0  0  0
  8  1  1  0  0  0  0
 10  9  1  0  0  0  0
 11  9  2  0  0  0  0
 12 10  1  0  0  0  0
 14 13  1  6  0  0  0
 14 12  1  0  0  0  0
 14 20  1  0  0  0  0
 15 17  1  0  0  0  0
 16 17  1  0  0  0  0
 17 14  1  0  0  0  0
 18 17  1  0  0  0  0
 20 19  2  0  0  0  0
 23 29  1  0  0  0  0
 23 31  1  0  0  0  0
 23 25  1  0  0  0  0
 24 23  1  0  0  0  0
 26 28  1  6  0  0  0
 27 21  1  6  0  0  0
 27 28  1  0  0  0  0
 27 22  1  0  0  0  0
 27 33  1  0  0  0  0
 30 26  1  0  0  0  0
 30 29  1  0  0  0  0
 32 22  1  1  0  0  0
 32 26  1  0  0  0  0
 32 31  1  0  0  0  0
 33 35  1  0  0  0  0
 35 38  1  0  0  0  0
 35 34  1  1  0  0  0
 38 37  2  0  0  0  0
 38 36  1  0  0  0  0
M  END
>  <MODEL>
5

>  <REMARK>
 VINA RESULT:      -6.1      1.906      3.170
  Name = 
  10 active torsions:
  status: ('A' for Active; 'I' for Inactive)
    1  A    between atoms: C_1  and  N_17
    2  A    between atoms: C_1  and  C_31
    3  A    between atoms: C_3  and  C_22
    4  A    between atoms: C_15  and  C_19
    5  A    between atoms: C_15  and  C_38
    6  A    between atoms: C_16  and  C_35
    7  A    between atoms: C_18  and  C_19
    8  A    between atoms: C_18  and  C_22
    9  A    between atoms: C_21  and  C_31
   10  A    between atoms: C_31  and  C_33
                            x       y       z     vdW  Elec       q    Type
                         _______ _______ _______ _____ _____    ______ ____

>  <TORSDO>
F 10

$$$$
=
 OpenBabel11072412183D

 38 40  0  0  1  0  0  0  0  0999 V2000
  160.4570  211.3140  151.6590 C   0  0  0  0  0  2  0  0  0  0  0  0
  161.8890  208.7160  150.5270 C   0  0  0  0  0  0  0  0  0  0  0  0
  161.9450  211.0990  149.5840 C   0  0  0  0  0  0  0  0  0  0  0  0
  161.2050  211.8000  150.4550 C   0  0  0  0  0  3  0  0  0  0  0  0
  162.2870  209.6580  149.6620 C   0  0  0  0  0  3  0  0  0  0  0  0
  162.4970  211.8050  148.5250 O   0  0  0  0  0  1  0  0  0  0  0  0
  160.8830  208.9300  151.6070 C   0  0  0  0  0  2  0  0  0  0  0  0
  161.1740  210.1950  152.3800 C   0  0  2  0  0  3  0  0  0  0  0  0
  160.6660  210.0780  153.7790 C   0  0  0  0  0  0  0  0  0  0  0  0
  159.4760  210.7750  154.1430 N   0  0  0  0  0  2  0  0  0  0  0  0
  161.2590  209.3430  154.6180 O   0  0  0  0  0  0  0  0  0  0  0  0
  158.9490  210.7500  155.5000 C   0  0  0  0  0  2  0  0  0  0  0  0
  157.0820  212.0560  154.5990 C   0  0  0  0  0  1  0  0  0  0  0  0
  158.0290  211.9480  155.7870 C   0  0  2  0  0  0  0  0  0  0  0  0
  158.1270  214.2600  156.8600 C   0  0  0  0  0  1  0  0  0  0  0  0
  160.2260  213.0110  156.5330 C   0  0  0  0  0  1  0  0  0  0  0  0
  158.8430  213.2730  155.9460 C   0  0  0  0  0  0  0  0  0  0  0  0
  159.0150  213.8810  154.7150 F   0  0  0  0  0  0  0  0  0  0  0  0
  156.0360  211.2360  156.8970 O   0  0  0  0  0  0  0  0  0  0  0  0
  157.1740  211.6710  156.9980 C   0  0  0  0  0  3  0  0  0  0  0  0
  162.4760  207.3430  150.3970 C   0  0  0  0  0  2  0  0  0  0  0  0
  162.2030  205.1520  149.1670 C   0  0  0  0  0  2  0  0  0  0  0  0
  161.6980  204.7910  145.3510 C   0  0  0  0  0  0  0  0  0  0  0  0
  162.8030  205.4980  144.9120 F   0  0  0  0  0  0  0  0  0  0  0  0
  161.4970  203.7150  144.5110 F   0  0  0  0  0  0  0  0  0  0  0  0
  160.5850  206.0290  147.6950 N   0  0  1  0  0  0  0  0  0  0  0  0
  161.4810  206.2900  149.8910 C   0  0  2  0  0  0  0  0  0  0  0  0
  160.6030  206.9470  148.8220 C   0  0  0  0  0  2  0  0  0  0  0  0
  160.4570  205.7080  145.2930 C   0  0  0  0  0  2  0  0  0  0  0  0
  160.4610  206.7420  146.4320 C   0  0  0  0  0  2  0  0  0  0  0  0
  161.9630  204.2690  146.7740 C   0  0  0  0  0  2  0  0  0  0  0  0
  161.9130  205.4530  147.7230 C   0  0  2  0  0  3  0  0  0  0  0  0
  160.6270  205.7690  151.0570 C   0  0  0  0  0  2  0  0  0  0  0  0
  160.8190  203.6560  152.3900 C   0  0  0  0  0  1  0  0  0  0  0  0
  161.4220  205.0270  152.1290 C   0  0  2  0  0  3  0  0  0  0  0  0
  162.4210  206.5740  153.6380 O   0  0  0  0  0  0  0  0  0  0  0  0
  160.3680  205.7830  154.2710 O   0  0  0  0  0  1  0  0  0  0  0  0
  161.4390  205.8290  153.3870 C   0  0  0  0  0  0  0  0  0  0  0  0
  1  8  1  0  0  0  0
  2  7  1  0  0  0  0
  3  5  1  0  0  0  0
  3  4  2  0  0  0  0
  4  1  1  0  0  0  0
  5  2  2  0  0  0  0
  6  3  1  0  0  0  0
  7  8  1  0  0  0  0
  8  9  1  1  0  0  0
  9 10  1  0  0  0  0
  9 11  2  0  0  0  0
 10 12  1  0  0  0  0
 12 14  1  0  0  0  0
 14 13  1  6  0  0  0
 14 17  1  0  0  0  0
 14 20  1  0  0  0  0
 17 16  1  0  0  0  0
 17 15  1  0  0  0  0
 18 17  1  0  0  0  0
 19 20  2  0  0  0  0
 21  2  1  0  0  0  0
 22 27  1  0  0  0  0
 23 31  1  0  0  0  0
 24 23  1  0  0  0  0
 25 23  1  0  0  0  0
 26 30  1  6  0  0  0
 26 32  1  0  0  0  0
 26 28  1  0  0  0  0
 27 21  1  1  0  0  0
 27 33  1  0  0  0  0
 28 27  1  0  0  0  0
 29 23  1  0  0  0  0
 29 30  1  0  0  0  0
 32 31  1  6  0  0  0
 32 22  1  0  0  0  0
 33 35  1  0  0  0  0
 35 34  1  1  0  0  0
 35 38  1  0  0  0  0
 38 36  2  0  0  0  0
 38 37  1  0  0  0  0
M  END
>  <MODEL>
6

>  <REMARK>
 VINA RESULT:      -5.9      2.071      9.052
  Name = 
  10 active torsions:
  status: ('A' for Active; 'I' for Inactive)
    1  A    between atoms: C_1  and  N_17
    2  A    between atoms: C_1  and  C_31
    3  A    between atoms: C_3  and  C_22
    4  A    between atoms: C_15  and  C_19
    5  A    between atoms: C_15  and  C_38
    6  A    between atoms: C_16  and  C_35
    7  A    between atoms: C_18  and  C_19
    8  A    between atoms: C_18  and  C_22
    9  A    between atoms: C_21  and  C_31
   10  A    between atoms: C_31  and  C_33
                            x       y       z     vdW  Elec       q    Type
                         _______ _______ _______ _____ _____    ______ ____

>  <TORSDO>
F 10

$$$$
=
 OpenBabel11072412183D

 38 40  0  0  1  0  0  0  0  0999 V2000
  161.5670  204.4280  153.1360 C   0  0  0  0  0  2  0  0  0  0  0  0
  160.8340  206.1000  150.5380 C   0  0  0  0  0  0  0  0  0  0  0  0
  160.6240  203.5730  150.9120 C   0  0  0  0  0  0  0  0  0  0  0  0
  161.0380  203.4060  152.1770 C   0  0  0  0  0  3  0  0  0  0  0  0
  160.4970  204.8550  150.1770 C   0  0  0  0  0  3  0  0  0  0  0  0
  160.2170  202.4330  150.2330 O   0  0  0  0  0  1  0  0  0  0  0  0
  161.5330  206.4530  151.8070 C   0  0  0  0  0  2  0  0  0  0  0  0
  160.8890  205.7720  152.9910 C   0  0  2  0  0  3  0  0  0  0  0  0
  161.0880  206.5820  154.2290 C   0  0  0  0  0  0  0  0  0  0  0  0
  159.9920  207.3300  154.7500 N   0  0  0  0  0  2  0  0  0  0  0  0
  162.2010  206.5750  154.8280 O   0  0  0  0  0  0  0  0  0  0  0  0
  160.1250  208.1830  155.9230 C   0  0  0  0  0  2  0  0  0  0  0  0
  160.3960  209.7100  154.0270 C   0  0  0  0  0  1  0  0  0  0  0  0
  160.3030  209.6640  155.5470 C   0  0  2  0  0  0  0  0  0  0  0  0
  161.2750  211.4660  157.0670 C   0  0  0  0  0  1  0  0  0  0  0  0
  162.3310  209.2400  157.0360 C   0  0  0  0  0  1  0  0  0  0  0  0
  161.5960  210.2680  156.1820 C   0  0  0  0  0  0  0  0  0  0  0  0
  162.4640  210.6920  155.1910 F   0  0  0  0  0  0  0  0  0  0  0  0
  158.4740  211.1410  155.1190 O   0  0  0  0  0  0  0  0  0  0  0  0
  159.0740  210.4500  155.9290 C   0  0  0  0  0  3  0  0  0  0  0  0
  160.5070  207.2210  149.5980 C   0  0  0  0  0  2  0  0  0  0  0  0
  160.8310  207.5690  147.1150 C   0  0  0  0  0  2  0  0  0  0  0  0
  161.1740  204.7430  144.4990 C   0  0  0  0  0  0  0  0  0  0  0  0
  160.0150  204.0400  144.7770 F   0  0  0  0  0  0  0  0  0  0  0  0
  161.3880  204.7230  143.1360 F   0  0  0  0  0  0  0  0  0  0  0  0
  162.3320  205.7630  146.9250 N   0  0  1  0  0  0  0  0  0  0  0  0
  161.5290  207.3970  148.4660 C   0  0  2  0  0  0  0  0  0  0  0  0
  162.3220  206.0930  148.3400 C   0  0  0  0  0  2  0  0  0  0  0  0
  162.3630  204.0540  145.2020 C   0  0  0  0  0  2  0  0  0  0  0  0
  162.3620  204.3220  146.7160 C   0  0  0  0  0  2  0  0  0  0  0  0
  161.0020  206.2030  144.9550 C   0  0  0  0  0  2  0  0  0  0  0  0
  161.0370  206.2260  146.4730 C   0  0  2  0  0  3  0  0  0  0  0  0
  162.4610  208.5780  148.7770 C   0  0  0  0  0  2  0  0  0  0  0  0
  162.2390  211.0190  148.2610 C   0  0  0  0  0  1  0  0  0  0  0  0
  161.7320  209.8740  149.1230 C   0  0  2  0  0  3  0  0  0  0  0  0
  162.7050  209.4860  151.2610 O   0  0  0  0  0  1  0  0  0  0  0  0
  161.2830  211.2760  151.1480 O   0  0  0  0  0  0  0  0  0  0  0  0
  161.9280  210.1910  150.5670 C   0  0  0  0  0  0  0  0  0  0  0  0
  2  7  1  0  0  0  0
  3  4  2  0  0  0  0
  4  1  1  0  0  0  0
  5  2  2  0  0  0  0
  5  3  1  0  0  0  0
  6  3  1  0  0  0  0
  7  8  1  0  0  0  0
  8  1  1  0  0  0  0
  8  9  1  1  0  0  0
  9 10  1  0  0  0  0
  9 11  2  0  0  0  0
 10 12  1  0  0  0  0
 14 13  1  6  0  0  0
 14 12  1  0  0  0  0
 14 20  1  0  0  0  0
 14 17  1  0  0  0  0
 17 16  1  0  0  0  0
 17 15  1  0  0  0  0
 18 17  1  0  0  0  0
 19 20  2  0  0  0  0
 21  2  1  0  0  0  0
 22 27  1  0  0  0  0
 23 24  1  0  0  0  0
 23 31  1  0  0  0  0
 23 29  1  0  0  0  0
 25 23  1  0  0  0  0
 26 30  1  1  0  0  0
 26 28  1  0  0  0  0
 27 33  1  1  0  0  0
 27 21  1  0  0  0  0
 28 27  1  0  0  0  0
 29 30  1  0  0  0  0
 32 31  1  6  0  0  0
 32 26  1  0  0  0  0
 32 22  1  0  0  0  0
 33 35  1  0  0  0  0
 35 34  1  6  0  0  0
 35 38  1  0  0  0  0
 38 37  2  0  0  0  0
 38 36  1  0  0  0  0
M  END
>  <MODEL>
7

>  <REMARK>
 VINA RESULT:      -5.8      2.362      9.386
  Name = 
  10 active torsions:
  status: ('A' for Active; 'I' for Inactive)
    1  A    between atoms: C_1  and  N_17
    2  A    between atoms: C_1  and  C_31
    3  A    between atoms: C_3  and  C_22
    4  A    between atoms: C_15  and  C_19
    5  A    between atoms: C_15  and  C_38
    6  A    between atoms: C_16  and  C_35
    7  A    between atoms: C_18  and  C_19
    8  A    between atoms: C_18  and  C_22
    9  A    between atoms: C_21  and  C_31
   10  A    between atoms: C_31  and  C_33
                            x       y       z     vdW  Elec       q    Type
                         _______ _______ _______ _____ _____    ______ ____

>  <TORSDO>
F 10

$$$$
=
 OpenBabel11072412183D

 38 40  0  0  1  0  0  0  0  0999 V2000
  160.9540  207.0650  151.8290 C   0  0  0  0  0  2  0  0  0  0  0  0
  161.9040  209.3560  149.8460 C   0  0  0  0  0  0  0  0  0  0  0  0
  161.8850  209.3800  152.4100 C   0  0  0  0  0  0  0  0  0  0  0  0
  161.4210  208.1640  152.7330 C   0  0  0  0  0  3  0  0  0  0  0  0
  162.1420  209.9030  151.0460 C   0  0  0  0  0  3  0  0  0  0  0  0
  162.2120  210.2230  153.4620 O   0  0  0  0  0  1  0  0  0  0  0  0
  161.2010  208.0580  149.6330 C   0  0  0  0  0  2  0  0  0  0  0  0
  161.7490  206.9860  150.5450 C   0  0  2  0  0  3  0  0  0  0  0  0
  161.5830  205.6390  149.9220 C   0  0  0  0  0  0  0  0  0  0  0  0
  161.5290  205.5370  148.5010 N   0  0  0  0  0  2  0  0  0  0  0  0
  161.5300  204.6020  150.6420 O   0  0  0  0  0  0  0  0  0  0  0  0
  161.3170  204.2640  147.8240 C   0  0  0  0  0  2  0  0  0  0  0  0
  163.2550  204.0300  146.3440 C   0  0  0  0  0  1  0  0  0  0  0  0
  161.7580  204.3100  146.3520 C   0  0  2  0  0  0  0  0  0  0  0  0
  161.5790  205.6490  144.1900 C   0  0  0  0  0  1  0  0  0  0  0  0
  160.0700  206.2010  146.0570 C   0  0  0  0  0  1  0  0  0  0  0  0
  161.4690  205.7030  145.7080 C   0  0  0  0  0  0  0  0  0  0  0  0
  162.3770  206.6420  146.1670 F   0  0  0  0  0  0  0  0  0  0  0  0
  161.2020  202.0250  145.9260 O   0  0  0  0  0  0  0  0  0  0  0  0
  161.1050  203.1920  145.5770 C   0  0  0  0  0  3  0  0  0  0  0  0
  162.3530  210.1030  148.6270 C   0  0  0  0  0  2  0  0  0  0  0  0
  160.5050  211.4890  147.6000 C   0  0  0  0  0  2  0  0  0  0  0  0
  160.7040  213.2730  144.1760 C   0  0  0  0  0  0  0  0  0  0  0  0
  161.0450  212.1930  143.3810 F   0  0  0  0  0  0  0  0  0  0  0  0
  159.8420  214.0870  143.4710 F   0  0  0  0  0  0  0  0  0  0  0  0
  162.0060  213.0850  146.7320 N   0  0  1  0  0  0  0  0  0  0  0  0
  161.7420  211.5060  148.5010 C   0  0  2  0  0  0  0  0  0  0  0  0
  162.7530  212.3950  147.7710 C   0  0  0  0  0  2  0  0  0  0  0  0
  161.9810  214.0720  144.5160 C   0  0  0  0  0  2  0  0  0  0  0  0
  162.8390  213.3520  145.5690 C   0  0  0  0  0  2  0  0  0  0  0  0
  159.9880  212.7660  145.4400 C   0  0  0  0  0  2  0  0  0  0  0  0
  161.0240  212.1000  146.3290 C   0  0  2  0  0  3  0  0  0  0  0  0
  161.4220  212.0680  149.8940 C   0  0  0  0  0  2  0  0  0  0  0  0
  160.6560  214.4520  149.7980 C   0  0  0  0  0  1  0  0  0  0  0  0
  160.2150  213.0020  149.9270 C   0  0  2  0  0  3  0  0  0  0  0  0
  160.0810  212.4930  152.2500 O   0  0  0  0  0  1  0  0  0  0  0  0
  158.0850  212.9920  151.2450 O   0  0  0  0  0  0  0  0  0  0  0  0
  159.4620  212.8060  151.2000 C   0  0  0  0  0  0  0  0  0  0  0  0
  1  4  1  0  0  0  0
  2  5  2  0  0  0  0
  3  4  2  0  0  0  0
  3  6  1  0  0  0  0
  5  3  1  0  0  0  0
  7  2  1  0  0  0  0
  7  8  1  0  0  0  0
  8  9  1  6  0  0  0
  8  1  1  0  0  0  0
  9 11  2  0  0  0  0
 10  9  1  0  0  0  0
 12 10  1  0  0  0  0
 14 13  1  6  0  0  0
 14 12  1  0  0  0  0
 15 17  1  0  0  0  0
 17 16  1  0  0  0  0
 17 18  1  0  0  0  0
 17 14  1  0  0  0  0
 20 19  2  0  0  0  0
 20 14  1  0  0  0  0
 21  2  1  0  0  0  0
 22 27  1  0  0  0  0
 23 29  1  0  0  0  0
 23 31  1  0  0  0  0
 24 23  1  0  0  0  0
 25 23  1  0  0  0  0
 26 30  1  6  0  0  0
 26 28  1  0  0  0  0
 27 21  1  1  0  0  0
 27 33  1  0  0  0  0
 28 27  1  0  0  0  0
 29 30  1  0  0  0  0
 32 31  1  1  0  0  0
 32 26  1  0  0  0  0
 32 22  1  0  0  0  0
 33 35  1  0  0  0  0
 35 34  1  1  0  0  0
 35 38  1  0  0  0  0
 38 37  2  0  0  0  0
 38 36  1  0  0  0  0
M  END
>  <MODEL>
8

>  <REMARK>
 VINA RESULT:      -5.8      3.695      6.091
  Name = 
  10 active torsions:
  status: ('A' for Active; 'I' for Inactive)
    1  A    between atoms: C_1  and  N_17
    2  A    between atoms: C_1  and  C_31
    3  A    between atoms: C_3  and  C_22
    4  A    between atoms: C_15  and  C_19
    5  A    between atoms: C_15  and  C_38
    6  A    between atoms: C_16  and  C_35
    7  A    between atoms: C_18  and  C_19
    8  A    between atoms: C_18  and  C_22
    9  A    between atoms: C_21  and  C_31
   10  A    between atoms: C_31  and  C_33
                            x       y       z     vdW  Elec       q    Type
                         _______ _______ _______ _____ _____    ______ ____

>  <TORSDO>
F 10

$$$$
=
 OpenBabel11072412183D

 38 40  0  0  1  0  0  0  0  0999 V2000
  162.2840  208.4970  148.9420 C   0  0  0  0  0  2  0  0  0  0  0  0
  162.0400  209.8970  151.7820 C   0  0  0  0  0  0  0  0  0  0  0  0
  161.9780  210.9860  149.4620 C   0  0  0  0  0  0  0  0  0  0  0  0
  162.0930  209.9470  148.6220 C   0  0  0  0  0  3  0  0  0  0  0  0
  161.9140  210.9330  150.9430 C   0  0  0  0  0  3  0  0  0  0  0  0
  161.8500  212.2420  148.8860 O   0  0  0  0  0  1  0  0  0  0  0  0
  162.3820  208.5070  151.3630 C   0  0  0  0  0  2  0  0  0  0  0  0
  161.5400  208.0690  150.1880 C   0  0  2  0  0  3  0  0  0  0  0  0
  161.3660  206.5870  150.1970 C   0  0  0  0  0  0  0  0  0  0  0  0
  161.5070  205.8660  148.9740 N   0  0  0  0  0  2  0  0  0  0  0  0
  161.1340  205.9740  151.2780 O   0  0  0  0  0  0  0  0  0  0  0  0
  161.3000  204.4270  148.8960 C   0  0  0  0  0  2  0  0  0  0  0  0
  160.4820  204.6920  146.6020 C   0  0  0  0  0  1  0  0  0  0  0  0
  161.4550  203.8950  147.4610 C   0  0  2  0  0  0  0  0  0  0  0  0
  160.1060  201.9600  148.4290 C   0  0  0  0  0  1  0  0  0  0  0  0
  160.5570  202.0000  146.0080 C   0  0  0  0  0  1  0  0  0  0  0  0
  161.1250  202.3710  147.3740 C   0  0  0  0  0  0  0  0  0  0  0  0
  162.2700  201.6190  147.5730 F   0  0  0  0  0  0  0  0  0  0  0  0
  163.0390  205.0800  146.1200 O   0  0  0  0  0  0  0  0  0  0  0  0
  162.8380  204.1960  146.9400 C   0  0  0  0  0  3  0  0  0  0  0  0
  161.8450  210.1450  153.2470 C   0  0  0  0  0  2  0  0  0  0  0  0
  159.4710  210.4040  152.4200 C   0  0  0  0  0  2  0  0  0  0  0  0
  157.7670  213.7670  151.5660 C   0  0  0  0  0  0  0  0  0  0  0  0
  158.6880  214.2600  150.6590 F   0  0  0  0  0  0  0  0  0  0  0  0
  156.5010  214.1180  151.1460 F   0  0  0  0  0  0  0  0  0  0  0  0
  159.1050  212.3580  153.6850 N   0  0  1  0  0  0  0  0  0  0  0  0
  160.3780  210.3410  153.6510 C   0  0  2  0  0  0  0  0  0  0  0  0
  160.2510  211.7180  154.3090 C   0  0  0  0  0  2  0  0  0  0  0  0
  158.0300  214.4050  152.9470 C   0  0  0  0  0  2  0  0  0  0  0  0
  159.2720  213.8030  153.6240 C   0  0  0  0  0  2  0  0  0  0  0  0
  157.8700  212.2330  151.6110 C   0  0  0  0  0  2  0  0  0  0  0  0
  159.1620  211.8710  152.3230 C   0  0  2  0  0  3  0  0  0  0  0  0
  159.9450  209.2290  154.6190 C   0  0  0  0  0  2  0  0  0  0  0  0
  160.8600  206.8970  154.6600 C   0  0  0  0  0  1  0  0  0  0  0  0
  161.0890  208.3360  155.0940 C   0  0  2  0  0  3  0  0  0  0  0  0
  161.6420  207.4250  157.2230 O   0  0  0  0  0  0  0  0  0  0  0  0
  160.8590  209.5770  157.2570 O   0  0  0  0  0  1  0  0  0  0  0  0
  161.2040  208.4130  156.5790 C   0  0  0  0  0  0  0  0  0  0  0  0
  1  8  1  0  0  0  0
  2 21  1  0  0  0  0
  3  5  1  0  0  0  0
  4  1  1  0  0  0  0
  4  3  2  0  0  0  0
  5  2  2  0  0  0  0
  6  3  1  0  0  0  0
  7  2  1  0  0  0  0
  8  9  1  6  0  0  0
  8  7  1  0  0  0  0
  9 11  2  0  0  0  0
 10  9  1  0  0  0  0
 12 10  1  0  0  0  0
 14 13  1  6  0  0  0
 14 12  1  0  0  0  0
 16 17  1  0  0  0  0
 17 14  1  0  0  0  0
 17 18  1  0  0  0  0
 17 15  1  0  0  0  0
 19 20  2  0  0  0  0
 20 14  1  0  0  0  0
 22 27  1  0  0  0  0
 23 31  1  0  0  0  0
 23 29  1  0  0  0  0
 24 23  1  0  0  0  0
 25 23  1  0  0  0  0
 26 30  1  6  0  0  0
 26 28  1  0  0  0  0
 27 21  1  6  0  0  0
 27 28  1  0  0  0  0
 27 33  1  0  0  0  0
 29 30  1  0  0  0  0
 32 31  1  1  0  0  0
 32 22  1  0  0  0  0
 32 26  1  0  0  0  0
 33 35  1  0  0  0  0
 35 34  1  1  0  0  0
 35 38  1  0  0  0  0
 38 36  2  0  0  0  0
 38 37  1  0  0  0  0
M  END
>  <MODEL>
9

>  <REMARK>
 VINA RESULT:      -5.4      1.822      2.286
  Name = 
  10 active torsions:
  status: ('A' for Active; 'I' for Inactive)
    1  A    between atoms: C_1  and  N_17
    2  A    between atoms: C_1  and  C_31
    3  A    between atoms: C_3  and  C_22
    4  A    between atoms: C_15  and  C_19
    5  A    between atoms: C_15  and  C_38
    6  A    between atoms: C_16  and  C_35
    7  A    between atoms: C_18  and  C_19
    8  A    between atoms: C_18  and  C_22
    9  A    between atoms: C_21  and  C_31
   10  A    between atoms: C_31  and  C_33
                            x       y       z     vdW  Elec       q    Type
                         _______ _______ _______ _____ _____    ______ ____

>  <TORSDO>
F 10

$$$$
