=
 OpenBabel11072412403D

 31 35  0  0  1  0  0  0  0  0999 V2000
  160.4370  206.9940  156.3850 N   0  0  0  0  0  2  0  0  0  0  0  0
  160.3310  208.2330  154.2670 C   0  0  2  0  0  3  0  0  0  0  0  0
  160.0180  209.4830  155.0780 C   0  0  0  0  0  0  0  0  0  0  0  0
  161.1250  205.9760  154.4140 F   0  0  0  0  0  0  0  0  0  0  0  0
  161.0900  207.1820  155.0930 C   0  0  2  0  0  3  0  0  0  0  0  0
  160.4770  208.2200  157.0710 N   0  0  0  0  0  2  0  0  0  0  0  0
  160.1220  209.4400  156.4130 C   0  0  0  0  0  3  0  0  0  0  0  0
  160.5980  211.5890  153.8210 C   0  0  0  0  0  2  0  0  0  0  0  0
  158.2440  211.1880  154.5420 C   0  0  2  0  0  3  0  0  0  0  0  0
  160.0070  212.4190  152.6780 C   0  0  0  0  0  2  0  0  0  0  0  0
  157.6940  212.1520  153.5540 C   0  0  1  0  0  3  0  0  0  0  0  0
  156.1920  211.5490  155.5320 C   0  0  2  0  0  3  0  0  0  0  0  0
  157.4890  210.8960  155.5450 N   0  0  0  0  0  2  0  0  0  0  0  0
  156.3030  212.9680  154.3910 S   0  0  0  0  0  0  0  0  0  0  0  0
  159.5960  210.7040  154.4310 N   0  0  0  0  0  0  0  0  0  0  0  0
  155.8410  212.0240  156.9250 C   0  0  0  0  0  1  0  0  0  0  0  0
  158.7630  213.1600  153.1550 C   0  0  0  0  0  2  0  0  0  0  0  0
  161.1190  208.5570  152.9960 C   0  0  0  0  0  2  0  0  0  0  0  0
  160.6970  207.7080  151.8920 N   0  0  0  0  0  2  0  0  0  0  0  0
  160.7070  204.0360  148.6390 O   0  0  0  0  0  0  0  0  0  0  0  0
  161.1970  205.0850  149.4260 C   0  0  1  0  0  3  0  0  0  0  0  0
  159.8510  204.7210  151.5510 C   0  0  0  0  0  1  0  0  0  0  0  0
  160.4010  206.3660  149.2130 C   0  0  0  0  0  2  0  0  0  0  0  0
  161.2470  202.8760  149.2270 C   0  0  1  0  0  3  0  0  0  0  0  0
  161.5190  203.1470  150.6990 C   0  0  0  0  0  2  0  0  0  0  0  0
  162.8370  206.6160  151.2430 C   0  0  0  0  0  2  0  0  0  0  0  0
  161.7870  207.6870  150.9250 C   0  0  1  0  0  3  0  0  0  0  0  0
  160.2650  201.7280  149.0920 C   0  0  0  0  0  1  0  0  0  0  0  0
  161.2110  204.6060  150.8720 C   0  0  1  0  0  0  0  0  0  0  0  0
  162.2830  205.2710  151.7430 C   0  0  0  0  0  2  0  0  0  0  0  0
  161.2630  207.5960  149.4910 C   0  0  0  0  0  2  0  0  0  0  0  0
  1  6  1  0  0  0  0
  2 18  1  6  0  0  0
  2  3  1  0  0  0  0
  2  5  1  0  0  0  0
  3  7  2  0  0  0  0
  5  4  1  6  0  0  0
  5  1  1  0  0  0  0
  7  6  1  0  0  0  0
  8 15  1  0  0  0  0
  9 13  1  1  0  0  0
 10 17  1  0  0  0  0
 10  8  1  0  0  0  0
 11 17  1  1  0  0  0
 11 14  1  0  0  0  0
 11  9  1  0  0  0  0
 12 13  1  0  0  0  0
 12 16  1  1  0  0  0
 14 12  1  0  0  0  0
 15  9  1  0  0  0  0
 15  3  1  0  0  0  0
 19 18  1  0  0  0  0
 20 24  1  0  0  0  0
 20 21  1  0  0  0  0
 21 23  1  1  0  0  0
 21 29  1  0  0  0  0
 23 31  1  0  0  0  0
 24 28  1  1  0  0  0
 24 25  1  0  0  0  0
 25 29  1  0  0  0  0
 26 30  1  0  0  0  0
 27 26  1  0  0  0  0
 27 19  1  1  0  0  0
 29 22  1  1  0  0  0
 29 30  1  0  0  0  0
 31 27  1  0  0  0  0
M  END
>  <MODEL>
1

>  <REMARK>
 VINA RESULT:      -7.5      0.000      0.000
  Name = 
  4 active torsions:
  status: ('A' for Active; 'I' for Inactive)
    1  A    between atoms: C_4  and  C_25
    2  A    between atoms: C_6  and  N_23
    3  A    between atoms: N_8  and  C_25
    4  A    between atoms: N_8  and  C_26
                            x       y       z     vdW  Elec       q    Type
                         _______ _______ _______ _____ _____    ______ ____

>  <TORSDO>
F 4

$$$$
=
 OpenBabel11072412403D

 31 35  0  0  1  0  0  0  0  0999 V2000
  161.7680  209.8220  149.0740 N   0  0  0  0  0  2  0  0  0  0  0  0
  161.3330  208.4470  151.0620 C   0  0  2  0  0  3  0  0  0  0  0  0
  161.7350  207.2300  150.2390 C   0  0  0  0  0  0  0  0  0  0  0  0
  161.3700  210.8430  151.1210 F   0  0  0  0  0  0  0  0  0  0  0  0
  161.9570  209.7440  150.5190 C   0  0  2  0  0  3  0  0  0  0  0  0
  162.4300  208.7270  148.4930 N   0  0  0  0  0  2  0  0  0  0  0  0
  162.2760  207.4080  149.0270 C   0  0  0  0  0  3  0  0  0  0  0  0
  161.9850  205.5380  152.0900 C   0  0  0  0  0  2  0  0  0  0  0  0
  161.0620  204.8290  149.8830 C   0  0  2  0  0  3  0  0  0  0  0  0
  161.1610  204.3980  152.6950 C   0  0  0  0  0  2  0  0  0  0  0  0
  160.4280  203.6110  150.4510 C   0  0  1  0  0  3  0  0  0  0  0  0
  160.8100  203.6390  147.9240 C   0  0  2  0  0  3  0  0  0  0  0  0
  161.2650  204.8340  148.6110 N   0  0  0  0  0  2  0  0  0  0  0  0
  160.6110  202.3280  149.1780 S   0  0  0  0  0  0  0  0  0  0  0  0
  161.5240  205.8910  150.7400 N   0  0  0  0  0  0  0  0  0  0  0  0
  161.8310  203.2200  146.8880 C   0  0  0  0  0  1  0  0  0  0  0  0
  161.1300  203.2090  151.7410 C   0  0  0  0  0  2  0  0  0  0  0  0
  161.6910  208.2830  152.5400 C   0  0  0  0  0  2  0  0  0  0  0  0
  160.6180  208.7710  153.3920 N   0  0  0  0  0  2  0  0  0  0  0  0
  158.0700  211.6760  156.4170 O   0  0  0  0  0  0  0  0  0  0  0  0
  159.1670  210.9940  155.8770 C   0  0  1  0  0  3  0  0  0  0  0  0
  158.6460  211.1930  153.3970 C   0  0  0  0  0  1  0  0  0  0  0  0
  158.8950  209.5000  155.7520 C   0  0  0  0  0  2  0  0  0  0  0  0
  158.3050  213.0260  156.0960 C   0  0  1  0  0  3  0  0  0  0  0  0
  159.1680  213.0950  154.8450 C   0  0  0  0  0  2  0  0  0  0  0  0
  161.7980  210.4210  154.8350 C   0  0  0  0  0  2  0  0  0  0  0  0
  161.1920  209.0180  154.7090 C   0  0  1  0  0  3  0  0  0  0  0  0
  156.9850  213.7300  155.8440 C   0  0  0  0  0  1  0  0  0  0  0  0
  159.5190  211.6650  154.5550 C   0  0  1  0  0  0  0  0  0  0  0  0
  160.9980  211.5520  154.1680 C   0  0  0  0  0  2  0  0  0  0  0  0
  160.1950  208.7010  155.8250 C   0  0  0  0  0  2  0  0  0  0  0  0
  1  5  1  0  0  0  0
  2 18  1  1  0  0  0
  3 15  1  0  0  0  0
  3  2  1  0  0  0  0
  5  2  1  0  0  0  0
  5  4  1  1  0  0  0
  6  7  1  0  0  0  0
  6  1  1  0  0  0  0
  7  3  2  0  0  0  0
  8 10  1  0  0  0  0
  9 13  1  1  0  0  0
  9 11  1  0  0  0  0
  9 15  1  0  0  0  0
 11 17  1  1  0  0  0
 12 16  1  6  0  0  0
 12 13  1  0  0  0  0
 12 14  1  0  0  0  0
 14 11  1  0  0  0  0
 15  8  1  0  0  0  0
 17 10  1  0  0  0  0
 18 19  1  0  0  0  0
 21 23  1  6  0  0  0
 21 20  1  0  0  0  0
 23 31  1  0  0  0  0
 24 28  1  6  0  0  0
 24 20  1  0  0  0  0
 25 24  1  0  0  0  0
 27 19  1  6  0  0  0
 27 26  1  0  0  0  0
 27 31  1  0  0  0  0
 29 22  1  6  0  0  0
 29 25  1  0  0  0  0
 29 21  1  0  0  0  0
 30 29  1  0  0  0  0
 30 26  1  0  0  0  0
M  END
>  <MODEL>
2

>  <REMARK>
 VINA RESULT:      -7.0      3.713      8.673
  Name = 
  4 active torsions:
  status: ('A' for Active; 'I' for Inactive)
    1  A    between atoms: C_4  and  C_25
    2  A    between atoms: C_6  and  N_23
    3  A    between atoms: N_8  and  C_25
    4  A    between atoms: N_8  and  C_26
                            x       y       z     vdW  Elec       q    Type
                         _______ _______ _______ _____ _____    ______ ____

>  <TORSDO>
F 4

$$$$
=
 OpenBabel11072412403D

 31 35  0  0  1  0  0  0  0  0999 V2000
  161.4360  209.2460  155.7020 N   0  0  0  0  0  2  0  0  0  0  0  0
  160.3920  209.3750  153.4830 C   0  0  2  0  0  3  0  0  0  0  0  0
  160.4160  210.8920  153.6210 C   0  0  0  0  0  0  0  0  0  0  0  0
  161.2460  207.3330  154.4010 F   0  0  0  0  0  0  0  0  0  0  0  0
  161.4660  208.6980  154.3500 C   0  0  2  0  0  3  0  0  0  0  0  0
  161.7270  210.6190  155.6170 N   0  0  0  0  0  2  0  0  0  0  0  0
  161.0840  211.4460  154.6420 C   0  0  0  0  0  3  0  0  0  0  0  0
  158.2760  211.9710  152.8420 C   0  0  0  0  0  2  0  0  0  0  0  0
  160.3450  212.1910  151.4650 C   0  0  2  0  0  3  0  0  0  0  0  0
  157.8430  213.3080  152.2350 C   0  0  0  0  0  2  0  0  0  0  0  0
  159.8290  213.3800  150.7380 C   0  0  1  0  0  3  0  0  0  0  0  0
  161.7480  212.1010  149.6370 C   0  0  2  0  0  3  0  0  0  0  0  0
  161.3040  211.5410  150.9010 N   0  0  0  0  0  2  0  0  0  0  0  0
  160.4280  213.2050  149.0310 S   0  0  0  0  0  0  0  0  0  0  0  0
  159.7180  211.7360  152.6790 N   0  0  0  0  0  0  0  0  0  0  0  0
  161.9950  210.9890  148.6400 C   0  0  0  0  0  1  0  0  0  0  0  0
  158.3070  213.4030  150.7860 C   0  0  0  0  0  2  0  0  0  0  0  0
  160.5480  208.9290  152.0280 C   0  0  0  0  0  2  0  0  0  0  0  0
  160.8660  207.5120  151.9500 N   0  0  0  0  0  2  0  0  0  0  0  0
  160.6980  203.7010  148.8650 O   0  0  0  0  0  0  0  0  0  0  0  0
  161.2410  204.7480  149.6170 C   0  0  1  0  0  3  0  0  0  0  0  0
  159.8200  204.5780  151.7180 C   0  0  0  0  0  1  0  0  0  0  0  0
  160.5430  206.0710  149.3250 C   0  0  0  0  0  2  0  0  0  0  0  0
  161.1400  202.5350  149.5180 C   0  0  1  0  0  3  0  0  0  0  0  0
  161.3930  202.8540  150.9840 C   0  0  0  0  0  2  0  0  0  0  0  0
  162.9390  206.2450  151.4100 C   0  0  0  0  0  2  0  0  0  0  0  0
  161.9750  207.3700  151.0150 C   0  0  1  0  0  3  0  0  0  0  0  0
  160.0830  201.4530  149.4070 C   0  0  0  0  0  1  0  0  0  0  0  0
  161.1850  204.3370  151.0830 C   0  0  1  0  0  0  0  0  0  0  0  0
  162.2790  204.9660  151.9530 C   0  0  0  0  0  2  0  0  0  0  0  0
  161.4820  207.2500  149.5720 C   0  0  0  0  0  2  0  0  0  0  0  0
  2 18  1  6  0  0  0
  2  3  1  0  0  0  0
  2  5  1  0  0  0  0
  3  7  2  0  0  0  0
  5  4  1  1  0  0  0
  5  1  1  0  0  0  0
  6  1  1  0  0  0  0
  7  6  1  0  0  0  0
  9 13  1  6  0  0  0
  9 15  1  0  0  0  0
 10  8  1  0  0  0  0
 11 17  1  6  0  0  0
 11  9  1  0  0  0  0
 12 16  1  6  0  0  0
 12 13  1  0  0  0  0
 14 12  1  0  0  0  0
 14 11  1  0  0  0  0
 15  8  1  0  0  0  0
 15  3  1  0  0  0  0
 17 10  1  0  0  0  0
 19 18  1  0  0  0  0
 20 24  1  0  0  0  0
 20 21  1  0  0  0  0
 21 23  1  1  0  0  0
 21 29  1  0  0  0  0
 23 31  1  0  0  0  0
 24 28  1  1  0  0  0
 24 25  1  0  0  0  0
 25 29  1  0  0  0  0
 26 30  1  0  0  0  0
 27 26  1  0  0  0  0
 27 19  1  1  0  0  0
 29 22  1  1  0  0  0
 29 30  1  0  0  0  0
 31 27  1  0  0  0  0
M  END
>  <MODEL>
3

>  <REMARK>
 VINA RESULT:      -6.2      2.093      3.338
  Name = 
  4 active torsions:
  status: ('A' for Active; 'I' for Inactive)
    1  A    between atoms: C_4  and  C_25
    2  A    between atoms: C_6  and  N_23
    3  A    between atoms: N_8  and  C_25
    4  A    between atoms: N_8  and  C_26
                            x       y       z     vdW  Elec       q    Type
                         _______ _______ _______ _____ _____    ______ ____

>  <TORSDO>
F 4

$$$$
=
 OpenBabel11072412403D

 31 35  0  0  1  0  0  0  0  0999 V2000
  161.2420  204.7130  153.5040 N   0  0  0  0  0  2  0  0  0  0  0  0
  161.5800  206.4320  151.7830 C   0  0  2  0  0  3  0  0  0  0  0  0
  161.0970  205.4170  150.7540 C   0  0  0  0  0  0  0  0  0  0  0  0
  161.7060  206.9000  154.1300 F   0  0  0  0  0  0  0  0  0  0  0  0
  161.0460  206.1250  153.1930 C   0  0  2  0  0  3  0  0  0  0  0  0
  160.5080  203.9590  152.5720 N   0  0  0  0  0  2  0  0  0  0  0  0
  160.5720  204.2590  151.1740 C   0  0  0  0  0  3  0  0  0  0  0  0
  160.8280  206.9940  148.8070 C   0  0  0  0  0  2  0  0  0  0  0  0
  161.5050  204.6280  148.3980 C   0  0  2  0  0  3  0  0  0  0  0  0
  161.5820  207.3340  147.5180 C   0  0  0  0  0  2  0  0  0  0  0  0
  162.0600  204.9370  147.0540 C   0  0  1  0  0  3  0  0  0  0  0  0
  161.4890  202.4910  147.5300 C   0  0  2  0  0  3  0  0  0  0  0  0
  161.2060  203.3960  148.6300 N   0  0  0  0  0  2  0  0  0  0  0  0
  161.6560  203.4990  146.0190 S   0  0  0  0  0  0  0  0  0  0  0  0
  161.2150  205.6800  149.3390 N   0  0  0  0  0  0  0  0  0  0  0  0
  160.3550  201.5010  147.3740 C   0  0  0  0  0  1  0  0  0  0  0  0
  161.4240  206.2060  146.5050 C   0  0  0  0  0  2  0  0  0  0  0  0
  161.2090  207.8640  151.3930 C   0  0  0  0  0  2  0  0  0  0  0  0
  160.9780  208.6810  152.5740 N   0  0  0  0  0  2  0  0  0  0  0  0
  160.5160  212.0710  156.0900 O   0  0  0  0  0  0  0  0  0  0  0  0
  160.7580  211.5300  154.8220 C   0  0  1  0  0  3  0  0  0  0  0  0
  159.0080  209.6860  154.7790 C   0  0  0  0  0  1  0  0  0  0  0  0
  161.8190  210.4370  154.8710 C   0  0  0  0  0  2  0  0  0  0  0  0
  159.2820  212.7350  155.9580 C   0  0  1  0  0  3  0  0  0  0  0  0
  158.4820  212.0750  154.8440 C   0  0  0  0  0  2  0  0  0  0  0  0
  160.6770  211.0770  151.9720 C   0  0  0  0  0  2  0  0  0  0  0  0
  161.6500  209.9550  152.3540 C   0  0  1  0  0  3  0  0  0  0  0  0
  158.5100  212.6490  157.2600 C   0  0  0  0  0  1  0  0  0  0  0  0
  159.4210  211.0600  154.2620 C   0  0  1  0  0  0  0  0  0  0  0  0
  159.3400  211.0830  152.7310 C   0  0  0  0  0  2  0  0  0  0  0  0
  162.5500  210.3270  153.5340 C   0  0  0  0  0  2  0  0  0  0  0  0
  2 18  1  6  0  0  0
  2  5  1  0  0  0  0
  3  7  2  0  0  0  0
  3  2  1  0  0  0  0
  5  1  1  0  0  0  0
  5  4  1  1  0  0  0
  6  1  1  0  0  0  0
  7  6  1  0  0  0  0
  8 15  1  0  0  0  0
  9 13  1  6  0  0  0
  9 15  1  0  0  0  0
 10  8  1  0  0  0  0
 11 17  1  6  0  0  0
 11  9  1  0  0  0  0
 12 16  1  6  0  0  0
 12 13  1  0  0  0  0
 14 11  1  0  0  0  0
 14 12  1  0  0  0  0
 15  3  1  0  0  0  0
 17 10  1  0  0  0  0
 18 19  1  0  0  0  0
 21 23  1  1  0  0  0
 21 20  1  0  0  0  0
 24 20  1  0  0  0  0
 24 28  1  1  0  0  0
 25 24  1  0  0  0  0
 26 27  1  0  0  0  0
 26 30  1  0  0  0  0
 27 19  1  1  0  0  0
 27 31  1  0  0  0  0
 29 22  1  1  0  0  0
 29 21  1  0  0  0  0
 29 25  1  0  0  0  0
 30 29  1  0  0  0  0
 31 23  1  0  0  0  0
M  END
>  <MODEL>
4

>  <REMARK>
 VINA RESULT:      -5.7      3.802      8.431
  Name = 
  4 active torsions:
  status: ('A' for Active; 'I' for Inactive)
    1  A    between atoms: C_4  and  C_25
    2  A    between atoms: C_6  and  N_23
    3  A    between atoms: N_8  and  C_25
    4  A    between atoms: N_8  and  C_26
                            x       y       z     vdW  Elec       q    Type
                         _______ _______ _______ _____ _____    ______ ____

>  <TORSDO>
F 4

$$$$
=
 OpenBabel11072412403D

 31 35  0  0  1  0  0  0  0  0999 V2000
  161.5710  208.8020  147.9810 N   0  0  0  0  0  2  0  0  0  0  0  0
  161.7840  207.8260  150.2260 C   0  0  2  0  0  3  0  0  0  0  0  0
  161.6250  206.4550  149.5830 C   0  0  0  0  0  0  0  0  0  0  0  0
  162.2040  210.1420  149.7690 F   0  0  0  0  0  0  0  0  0  0  0  0
  162.3200  208.8720  149.2320 C   0  0  2  0  0  3  0  0  0  0  0  0
  161.7630  207.5210  147.4340 N   0  0  0  0  0  2  0  0  0  0  0  0
  161.6430  206.3510  148.2480 C   0  0  0  0  0  3  0  0  0  0  0  0
  161.9630  205.2380  151.7640 C   0  0  0  0  0  2  0  0  0  0  0  0
  160.9350  204.0450  149.8290 C   0  0  2  0  0  3  0  0  0  0  0  0
  161.1680  204.2800  152.6560 C   0  0  0  0  0  2  0  0  0  0  0  0
  160.3280  203.0000  150.6950 C   0  0  1  0  0  3  0  0  0  0  0  0
  160.5880  202.4340  148.2160 C   0  0  2  0  0  3  0  0  0  0  0  0
  161.0760  203.7510  148.5820 N   0  0  0  0  0  2  0  0  0  0  0  0
  160.4490  201.4540  149.7480 S   0  0  0  0  0  0  0  0  0  0  0  0
  161.4380  205.2720  150.3920 N   0  0  0  0  0  0  0  0  0  0  0  0
  161.5580  201.7740  147.2600 C   0  0  0  0  0  1  0  0  0  0  0  0
  161.0910  202.9020  152.0080 C   0  0  0  0  0  2  0  0  0  0  0  0
  162.6860  207.7800  151.4600 C   0  0  0  0  0  2  0  0  0  0  0  0
  162.2590  208.7540  152.4530 N   0  0  0  0  0  2  0  0  0  0  0  0
  159.9610  212.1620  155.1320 O   0  0  0  0  0  0  0  0  0  0  0  0
  160.1860  210.9390  154.4890 C   0  0  1  0  0  3  0  0  0  0  0  0
  162.6850  210.6800  154.8740 C   0  0  0  0  0  1  0  0  0  0  0  0
  160.4950  211.1310  153.0100 C   0  0  0  0  0  2  0  0  0  0  0  0
  160.0970  211.8670  156.5020 C   0  0  1  0  0  3  0  0  0  0  0  0
  161.0140  210.6630  156.6610 C   0  0  0  0  0  2  0  0  0  0  0  0
  160.4100  208.1040  153.9870 C   0  0  0  0  0  2  0  0  0  0  0  0
  160.8160  208.6160  152.5990 C   0  0  1  0  0  3  0  0  0  0  0  0
  160.6900  213.0590  157.2270 C   0  0  0  0  0  1  0  0  0  0  0  0
  161.2850  210.2130  155.2550 C   0  0  1  0  0  0  0  0  0  0  0  0
  161.2070  208.6850  155.1670 C   0  0  0  0  0  2  0  0  0  0  0  0
  160.0850  209.9000  152.2030 C   0  0  0  0  0  2  0  0  0  0  0  0
  1  5  1  0  0  0  0
  2 18  1  1  0  0  0
  3  2  1  0  0  0  0
  3 15  1  0  0  0  0
  5  4  1  1  0  0  0
  5  2  1  0  0  0  0
  6  1  1  0  0  0  0
  6  7  1  0  0  0  0
  7  3  2  0  0  0  0
  8 10  1  0  0  0  0
  9 13  1  1  0  0  0
  9 15  1  0  0  0  0
  9 11  1  0  0  0  0
 11 17  1  1  0  0  0
 12 16  1  6  0  0  0
 12 13  1  0  0  0  0
 12 14  1  0  0  0  0
 14 11  1  0  0  0  0
 15  8  1  0  0  0  0
 17 10  1  0  0  0  0
 18 19  1  0  0  0  0
 20 24  1  0  0  0  0
 21 23  1  6  0  0  0
 21 20  1  0  0  0  0
 21 29  1  0  0  0  0
 24 25  1  0  0  0  0
 24 28  1  1  0  0  0
 26 30  1  0  0  0  0
 27 19  1  1  0  0  0
 27 26  1  0  0  0  0
 29 22  1  6  0  0  0
 29 25  1  0  0  0  0
 30 29  1  0  0  0  0
 31 27  1  0  0  0  0
 31 23  1  0  0  0  0
M  END
>  <MODEL>
5

>  <REMARK>
 VINA RESULT:      -5.6      4.022      8.643
  Name = 
  4 active torsions:
  status: ('A' for Active; 'I' for Inactive)
    1  A    between atoms: C_4  and  C_25
    2  A    between atoms: C_6  and  N_23
    3  A    between atoms: N_8  and  C_25
    4  A    between atoms: N_8  and  C_26
                            x       y       z     vdW  Elec       q    Type
                         _______ _______ _______ _____ _____    ______ ____

>  <TORSDO>
F 4

$$$$
=
 OpenBabel11072412403D

 31 35  0  0  1  0  0  0  0  0999 V2000
  161.3100  208.7030  156.1220 N   0  0  0  0  0  2  0  0  0  0  0  0
  160.1480  209.2450  154.0270 C   0  0  2  0  0  3  0  0  0  0  0  0
  159.8460  210.6170  154.6150 C   0  0  0  0  0  0  0  0  0  0  0  0
  161.4780  207.2700  154.3030 F   0  0  0  0  0  0  0  0  0  0  0  0
  161.3890  208.6010  154.6680 C   0  0  2  0  0  3  0  0  0  0  0  0
  161.2860  210.0670  156.4590 N   0  0  0  0  0  2  0  0  0  0  0  0
  160.4280  210.9790  155.7660 C   0  0  0  0  0  3  0  0  0  0  0  0
  157.4890  211.4210  154.2260 C   0  0  0  0  0  2  0  0  0  0  0  0
  159.3620  212.3890  152.8920 C   0  0  2  0  0  3  0  0  0  0  0  0
  156.7740  212.7580  154.0170 C   0  0  0  0  0  2  0  0  0  0  0  0
  158.5820  213.6010  152.5290 C   0  0  1  0  0  3  0  0  0  0  0  0
  160.6010  213.0500  151.0620 C   0  0  2  0  0  3  0  0  0  0  0  0
  160.3720  212.1070  152.1420 N   0  0  0  0  0  2  0  0  0  0  0  0
  159.0580  213.9930  150.8200 S   0  0  0  0  0  0  0  0  0  0  0  0
  158.9310  211.5220  153.9590 N   0  0  0  0  0  0  0  0  0  0  0  0
  160.9600  212.3030  149.7950 C   0  0  0  0  0  1  0  0  0  0  0  0
  157.0900  213.3130  152.6320 C   0  0  0  0  0  2  0  0  0  0  0  0
  160.3230  209.2980  152.5080 C   0  0  0  0  0  2  0  0  0  0  0  0
  160.6630  207.9870  151.9780 N   0  0  0  0  0  2  0  0  0  0  0  0
  161.9880  206.7160  147.4280 O   0  0  0  0  0  0  0  0  0  0  0  0
  162.1000  206.9480  148.8030 C   0  0  1  0  0  3  0  0  0  0  0  0
  159.8040  206.1800  149.5790 C   0  0  0  0  0  1  0  0  0  0  0  0
  161.6820  208.3670  149.1690 C   0  0  0  0  0  2  0  0  0  0  0  0
  162.0070  205.3130  147.3080 C   0  0  1  0  0  3  0  0  0  0  0  0
  161.4880  204.6980  148.5990 C   0  0  0  0  0  2  0  0  0  0  0  0
  162.6890  206.5890  151.6070 C   0  0  0  0  0  2  0  0  0  0  0  0
  162.0890  207.9990  151.6780 C   0  0  1  0  0  3  0  0  0  0  0  0
  161.1260  204.8860  146.1500 C   0  0  0  0  0  1  0  0  0  0  0  0
  161.2960  205.8700  149.5180 C   0  0  1  0  0  0  0  0  0  0  0  0
  161.8120  205.5290  150.9210 C   0  0  0  0  0  2  0  0  0  0  0  0
  162.3950  208.8370  150.4360 C   0  0  0  0  0  2  0  0  0  0  0  0
  1  6  1  0  0  0  0
  2 18  1  6  0  0  0
  2  3  1  0  0  0  0
  2  5  1  0  0  0  0
  3  7  2  0  0  0  0
  5  4  1  1  0  0  0
  5  1  1  0  0  0  0
  7  6  1  0  0  0  0
  9 13  1  6  0  0  0
  9 15  1  0  0  0  0
 10  8  1  0  0  0  0
 11 17  1  6  0  0  0
 11  9  1  0  0  0  0
 12 16  1  6  0  0  0
 12 13  1  0  0  0  0
 14 12  1  0  0  0  0
 14 11  1  0  0  0  0
 15  8  1  0  0  0  0
 15  3  1  0  0  0  0
 17 10  1  0  0  0  0
 19 18  1  0  0  0  0
 20 21  1  0  0  0  0
 21 23  1  6  0  0  0
 21 29  1  0  0  0  0
 23 31  1  0  0  0  0
 24 28  1  6  0  0  0
 24 20  1  0  0  0  0
 24 25  1  0  0  0  0
 25 29  1  0  0  0  0
 26 27  1  0  0  0  0
 27 19  1  6  0  0  0
 29 22  1  1  0  0  0
 29 30  1  0  0  0  0
 30 26  1  0  0  0  0
 31 27  1  0  0  0  0
M  END
>  <MODEL>
6

>  <REMARK>
 VINA RESULT:      -5.1      1.821      3.053
  Name = 
  4 active torsions:
  status: ('A' for Active; 'I' for Inactive)
    1  A    between atoms: C_4  and  C_25
    2  A    between atoms: C_6  and  N_23
    3  A    between atoms: N_8  and  C_25
    4  A    between atoms: N_8  and  C_26
                            x       y       z     vdW  Elec       q    Type
                         _______ _______ _______ _____ _____    ______ ____

>  <TORSDO>
F 4

$$$$
=
 OpenBabel11072412403D

 31 35  0  0  1  0  0  0  0  0999 V2000
  161.3370  211.9350  149.4940 N   0  0  0  0  0  2  0  0  0  0  0  0
  160.8390  210.3490  151.3030 C   0  0  2  0  0  3  0  0  0  0  0  0
  161.6100  209.2960  150.5160 C   0  0  0  0  0  0  0  0  0  0  0  0
  160.3930  212.6970  151.4740 F   0  0  0  0  0  0  0  0  0  0  0  0
  161.2810  211.7780  150.9440 C   0  0  2  0  0  3  0  0  0  0  0  0
  162.2930  211.0310  148.9990 N   0  0  0  0  0  2  0  0  0  0  0  0
  162.3100  209.6680  149.4360 C   0  0  0  0  0  3  0  0  0  0  0  0
  162.1000  207.5120  152.2270 C   0  0  0  0  0  2  0  0  0  0  0  0
  161.2550  206.8640  149.9710 C   0  0  2  0  0  3  0  0  0  0  0  0
  161.4400  206.2290  152.7400 C   0  0  0  0  0  2  0  0  0  0  0  0
  160.7930  205.5310  150.4410 C   0  0  1  0  0  3  0  0  0  0  0  0
  161.1400  205.8080  147.9240 C   0  0  2  0  0  3  0  0  0  0  0  0
  161.4420  206.9960  148.7030 N   0  0  0  0  0  2  0  0  0  0  0  0
  161.1290  204.3880  149.0690 S   0  0  0  0  0  0  0  0  0  0  0  0
  161.5830  207.9060  150.9100 N   0  0  0  0  0  0  0  0  0  0  0  0
  162.1960  205.6110  146.8580 C   0  0  0  0  0  1  0  0  0  0  0  0
  161.5550  205.1250  151.6940 C   0  0  0  0  0  2  0  0  0  0  0  0
  160.9570  210.1370  152.8130 C   0  0  0  0  0  2  0  0  0  0  0  0
  159.8740  210.8050  153.5180 N   0  0  0  0  0  2  0  0  0  0  0  0
  156.2940  212.1240  156.6020 O   0  0  0  0  0  0  0  0  0  0  0  0
  157.5870  211.8410  156.1480 C   0  0  1  0  0  3  0  0  0  0  0  0
  157.4390  212.7430  153.7750 C   0  0  0  0  0  1  0  0  0  0  0  0
  157.6770  210.4440  155.5450 C   0  0  0  0  0  2  0  0  0  0  0  0
  156.2700  213.5250  156.7390 C   0  0  1  0  0  3  0  0  0  0  0  0
  157.2860  214.1340  155.7830 C   0  0  0  0  0  2  0  0  0  0  0  0
  160.4120  212.0680  155.5940 C   0  0  0  0  0  2  0  0  0  0  0  0
  160.1600  210.7020  154.9440 C   0  0  1  0  0  3  0  0  0  0  0  0
  154.8860  214.0500  156.4120 C   0  0  0  0  0  1  0  0  0  0  0  0
  157.9880  212.9500  155.1830 C   0  0  1  0  0  0  0  0  0  0  0  0
  159.4970  213.2090  155.1170 C   0  0  0  0  0  2  0  0  0  0  0  0
  159.0930  209.8850  155.6730 C   0  0  0  0  0  2  0  0  0  0  0  0
  1  5  1  0  0  0  0
  2 18  1  1  0  0  0
  3 15  1  0  0  0  0
  3  2  1  0  0  0  0
  5  2  1  0  0  0  0
  5  4  1  6  0  0  0
  6  7  1  0  0  0  0
  6  1  1  0  0  0  0
  7  3  2  0  0  0  0
  8 10  1  0  0  0  0
  9 13  1  1  0  0  0
  9 11  1  0  0  0  0
  9 15  1  0  0  0  0
 11 17  1  1  0  0  0
 12 16  1  6  0  0  0
 12 13  1  0  0  0  0
 12 14  1  0  0  0  0
 14 11  1  0  0  0  0
 15  8  1  0  0  0  0
 17 10  1  0  0  0  0
 18 19  1  0  0  0  0
 20 24  1  0  0  0  0
 21 23  1  6  0  0  0
 21 20  1  0  0  0  0
 23 31  1  0  0  0  0
 24 28  1  6  0  0  0
 25 24  1  0  0  0  0
 27 19  1  6  0  0  0
 27 26  1  0  0  0  0
 27 31  1  0  0  0  0
 29 22  1  6  0  0  0
 29 25  1  0  0  0  0
 29 21  1  0  0  0  0
 30 29  1  0  0  0  0
 30 26  1  0  0  0  0
M  END
>  <MODEL>
7

>  <REMARK>
 VINA RESULT:      -4.9      3.859      8.830
  Name = 
  4 active torsions:
  status: ('A' for Active; 'I' for Inactive)
    1  A    between atoms: C_4  and  C_25
    2  A    between atoms: C_6  and  N_23
    3  A    between atoms: N_8  and  C_25
    4  A    between atoms: N_8  and  C_26
                            x       y       z     vdW  Elec       q    Type
                         _______ _______ _______ _____ _____    ______ ____

>  <TORSDO>
F 4

$$$$
=
 OpenBabel11072412403D

 31 35  0  0  1  0  0  0  0  0999 V2000
  162.3290  210.0710  149.9010 N   0  0  0  0  0  2  0  0  0  0  0  0
  162.2120  208.1950  151.4820 C   0  0  2  0  0  3  0  0  0  0  0  0
  161.3680  209.0830  152.3870 C   0  0  0  0  0  0  0  0  0  0  0  0
  163.1010  207.9750  149.2670 F   0  0  0  0  0  0  0  0  0  0  0  0
  162.1330  208.6290  150.0090 C   0  0  2  0  0  3  0  0  0  0  0  0
  161.2930  210.7020  150.6120 N   0  0  0  0  0  2  0  0  0  0  0  0
  160.9310  210.2620  151.9250 C   0  0  0  0  0  3  0  0  0  0  0  0
  160.4760  207.3500  153.9840 C   0  0  0  0  0  2  0  0  0  0  0  0
  161.0830  209.6160  154.8320 C   0  0  2  0  0  3  0  0  0  0  0  0
  160.7980  206.8400  155.3910 C   0  0  0  0  0  2  0  0  0  0  0  0
  161.2010  209.1450  156.2370 C   0  0  1  0  0  3  0  0  0  0  0  0
  160.8850  211.6570  155.8870 C   0  0  2  0  0  3  0  0  0  0  0  0
  160.9100  210.8820  154.6600 N   0  0  0  0  0  2  0  0  0  0  0  0
  160.5570  210.5010  157.2610 S   0  0  0  0  0  0  0  0  0  0  0  0
  161.0490  208.6800  153.7370 N   0  0  0  0  0  0  0  0  0  0  0  0
  159.7920  212.7020  155.8130 C   0  0  0  0  0  1  0  0  0  0  0  0
  160.3860  207.8740  156.4320 C   0  0  0  0  0  2  0  0  0  0  0  0
  161.8270  206.7200  151.6060 C   0  0  0  0  0  2  0  0  0  0  0  0
  161.9870  206.0320  150.3340 N   0  0  0  0  0  2  0  0  0  0  0  0
  161.3510  203.9830  145.9220 O   0  0  0  0  0  0  0  0  0  0  0  0
  161.0350  204.4450  147.2050 C   0  0  1  0  0  3  0  0  0  0  0  0
  162.4620  206.5480  147.2910 C   0  0  0  0  0  1  0  0  0  0  0  0
  161.9580  203.8490  148.2600 C   0  0  0  0  0  2  0  0  0  0  0  0
  160.7200  204.8950  145.0560 C   0  0  1  0  0  3  0  0  0  0  0  0
  160.5740  206.2330  145.7660 C   0  0  0  0  0  2  0  0  0  0  0  0
  159.6990  205.7860  149.3860 C   0  0  0  0  0  2  0  0  0  0  0  0
  160.8440  205.1420  150.1790 C   0  0  1  0  0  3  0  0  0  0  0  0
  161.5530  205.0720  143.8010 C   0  0  0  0  0  1  0  0  0  0  0  0
  161.0570  205.9680  147.1620 C   0  0  1  0  0  0  0  0  0  0  0  0
  160.1260  206.6380  148.1780 C   0  0  0  0  0  2  0  0  0  0  0  0
  161.2620  203.7820  149.6190 C   0  0  0  0  0  2  0  0  0  0  0  0
  1  5  1  0  0  0  0
  1  6  1  0  0  0  0
  2 18  1  6  0  0  0
  2  3  1  0  0  0  0
  3 15  1  0  0  0  0
  5  4  1  6  0  0  0
  5  2  1  0  0  0  0
  6  7  1  0  0  0  0
  7  3  2  0  0  0  0
  8 10  1  0  0  0  0
  9 13  1  1  0  0  0
  9 11  1  0  0  0  0
 10 17  1  0  0  0  0
 11 17  1  6  0  0  0
 11 14  1  0  0  0  0
 12 16  1  6  0  0  0
 12 14  1  0  0  0  0
 13 12  1  0  0  0  0
 15  8  1  0  0  0  0
 15  9  1  0  0  0  0
 19 18  1  0  0  0  0
 20 21  1  0  0  0  0
 21 23  1  1  0  0  0
 23 31  1  0  0  0  0
 24 28  1  6  0  0  0
 24 25  1  0  0  0  0
 24 20  1  0  0  0  0
 25 29  1  0  0  0  0
 26 27  1  0  0  0  0
 27 19  1  6  0  0  0
 29 21  1  0  0  0  0
 29 22  1  1  0  0  0
 29 30  1  0  0  0  0
 30 26  1  0  0  0  0
 31 27  1  0  0  0  0
M  END
>  <MODEL>
8

>  <REMARK>
 VINA RESULT:      -4.7      2.680      4.650
  Name = 
  4 active torsions:
  status: ('A' for Active; 'I' for Inactive)
    1  A    between atoms: C_4  and  C_25
    2  A    between atoms: C_6  and  N_23
    3  A    between atoms: N_8  and  C_25
    4  A    between atoms: N_8  and  C_26
                            x       y       z     vdW  Elec       q    Type
                         _______ _______ _______ _____ _____    ______ ____

>  <TORSDO>
F 4

$$$$
=
 OpenBabel11072412403D

 31 35  0  0  1  0  0  0  0  0999 V2000
  161.4560  206.9500  150.4570 N   0  0  0  0  0  2  0  0  0  0  0  0
  161.2150  209.3860  150.6630 C   0  0  2  0  0  3  0  0  0  0  0  0
  160.7740  209.1640  152.1040 C   0  0  0  0  0  0  0  0  0  0  0  0
  162.2420  208.3360  148.7690 F   0  0  0  0  0  0  0  0  0  0  0  0
  162.0820  208.2290  150.1390 C   0  0  2  0  0  3  0  0  0  0  0  0
  161.3690  206.8490  151.8570 N   0  0  0  0  0  2  0  0  0  0  0  0
  160.8860  207.9420  152.6430 C   0  0  0  0  0  3  0  0  0  0  0  0
  159.4520  211.3060  152.2270 C   0  0  0  0  0  2  0  0  0  0  0  0
  160.5830  210.4320  154.2710 C   0  0  2  0  0  3  0  0  0  0  0  0
  158.4420  211.9550  153.1770 C   0  0  0  0  0  2  0  0  0  0  0  0
  159.7190  211.2260  155.1840 C   0  0  1  0  0  3  0  0  0  0  0  0
  161.9300  210.3750  156.1430 C   0  0  2  0  0  3  0  0  0  0  0  0
  161.7030  210.0160  154.7540 N   0  0  0  0  0  2  0  0  0  0  0  0
  160.8010  211.7500  156.5460 S   0  0  0  0  0  0  0  0  0  0  0  0
  160.2250  210.2460  152.8890 N   0  0  0  0  0  0  0  0  0  0  0  0
  163.3680  210.8060  156.3340 C   0  0  0  0  0  1  0  0  0  0  0  0
  159.1430  212.4260  154.4470 C   0  0  0  0  0  2  0  0  0  0  0  0
  161.9610  210.7090  150.4890 C   0  0  0  0  0  2  0  0  0  0  0  0
  161.6170  211.3370  149.2230 N   0  0  0  0  0  2  0  0  0  0  0  0
  158.9560  214.2790  146.3350 O   0  0  0  0  0  0  0  0  0  0  0  0
  159.9940  213.8700  147.1800 C   0  0  1  0  0  3  0  0  0  0  0  0
  160.2950  211.4700  146.3960 C   0  0  0  0  0  1  0  0  0  0  0  0
  159.4610  213.3100  148.4930 C   0  0  0  0  0  2  0  0  0  0  0  0
  159.5570  214.3760  145.0650 C   0  0  1  0  0  3  0  0  0  0  0  0
  160.7500  213.4330  145.0080 C   0  0  0  0  0  2  0  0  0  0  0  0
  162.6320  213.3920  148.2520 C   0  0  0  0  0  2  0  0  0  0  0  0
  161.8080  212.7730  149.3880 C   0  0  1  0  0  3  0  0  0  0  0  0
  158.5550  213.9950  143.9930 C   0  0  0  0  0  1  0  0  0  0  0  0
  160.8600  212.8870  146.4020 C   0  0  1  0  0  0  0  0  0  0  0  0
  162.3270  212.8570  146.8430 C   0  0  0  0  0  2  0  0  0  0  0  0
  160.4790  213.4940  149.6170 C   0  0  0  0  0  2  0  0  0  0  0  0
  1  6  1  0  0  0  0
  2 18  1  1  0  0  0
  2  3  1  0  0  0  0
  3  7  2  0  0  0  0
  3 15  1  0  0  0  0
  5  4  1  6  0  0  0
  5  1  1  0  0  0  0
  5  2  1  0  0  0  0
  6  7  1  0  0  0  0
  8 15  1  0  0  0  0
  8 10  1  0  0  0  0
  9 13  1  6  0  0  0
  9 11  1  0  0  0  0
 10 17  1  0  0  0  0
 11 17  1  6  0  0  0
 11 14  1  0  0  0  0
 12 16  1  6  0  0  0
 12 14  1  0  0  0  0
 13 12  1  0  0  0  0
 15  9  1  0  0  0  0
 19 18  1  0  0  0  0
 20 21  1  0  0  0  0
 21 23  1  1  0  0  0
 23 31  1  0  0  0  0
 24 28  1  6  0  0  0
 24 20  1  0  0  0  0
 25 24  1  0  0  0  0
 25 29  1  0  0  0  0
 26 27  1  0  0  0  0
 27 19  1  6  0  0  0
 27 31  1  0  0  0  0
 29 22  1  1  0  0  0
 29 30  1  0  0  0  0
 29 21  1  0  0  0  0
 30 26  1  0  0  0  0
M  END
>  <MODEL>
9

>  <REMARK>
 VINA RESULT:      -4.7      4.580      6.836
  Name = 
  4 active torsions:
  status: ('A' for Active; 'I' for Inactive)
    1  A    between atoms: C_4  and  C_25
    2  A    between atoms: C_6  and  N_23
    3  A    between atoms: N_8  and  C_25
    4  A    between atoms: N_8  and  C_26
                            x       y       z     vdW  Elec       q    Type
                         _______ _______ _______ _____ _____    ______ ____

>  <TORSDO>
F 4

$$$$
