=
 OpenBabel11072410253D

 51 56  0  0  1  0  0  0  0  0999 V2000
  161.3720  206.7940  153.5110 C   0  0  2  0  0  3  0  0  0  0  0  0
  161.1760  205.3250  153.1710 C   0  0  0  0  0  1  0  0  0  0  0  0
  160.7530  207.1600  154.8350 C   0  0  0  0  0  0  0  0  0  0  0  0
  159.6490  206.6520  155.1690 O   0  0  0  0  0  0  0  0  0  0  0  0
  161.3750  208.1140  155.6560 O   0  0  0  0  0  0  0  0  0  0  0  0
  157.4450  213.8500  152.8390 C   0  0  0  0  0  1  0  0  0  0  0  0
  159.8380  209.7630  156.1010 O   0  0  0  0  0  0  0  0  0  0  0  0
  156.2880  213.0570  154.9200 C   0  0  1  0  0  3  0  0  0  0  0  0
  161.0000  211.4070  153.7850 C   0  0  0  0  0  2  0  0  0  0  0  0
  161.2600  209.9350  154.0970 C   0  0  0  0  0  2  0  0  0  0  0  0
  161.1390  209.5260  155.5830 C   0  0  2  0  0  0  0  0  0  0  0  0
  157.3300  212.7140  153.8490 C   0  0  2  0  0  3  0  0  0  0  0  0
  159.6780  211.0640  156.2670 O   0  0  0  0  0  0  0  0  0  0  0  0
  159.3430  213.4890  154.9340 O   0  0  0  0  0  1  0  0  0  0  0  0
  159.5570  211.6820  153.3620 C   0  0  2  0  0  3  0  0  0  0  0  0
  157.5900  211.9280  156.5880 O   0  0  0  0  0  0  0  0  0  0  0  0
  155.0180  213.0990  154.3370 O   0  0  0  0  0  1  0  0  0  0  0  0
  158.4650  211.3590  155.6390 C   0  0  1  0  0  3  0  0  0  0  0  0
  158.6970  212.3360  154.4610 C   0  0  2  0  0  0  0  0  0  0  0  0
  156.3180  211.9720  155.9980 C   0  0  1  0  0  3  0  0  0  0  0  0
  155.3640  212.2440  156.9760 O   0  0  0  0  0  1  0  0  0  0  0  0
  158.9390  210.5620  152.8280 F   0  0  0  0  0  0  0  0  0  0  0  0
  162.2480  210.1980  156.4360 C   0  0  0  0  0  0  0  0  0  0  0  0
  161.6870  211.1730  157.2390 F   0  0  0  0  0  0  0  0  0  0  0  0
  162.8510  209.2500  157.2460 F   0  0  0  0  0  0  0  0  0  0  0  0
  163.2290  210.7810  155.6520 F   0  0  0  0  0  0  0  0  0  0  0  0
  160.9070  207.6840  152.3480 C   0  0  0  0  0  2  0  0  0  0  0  0
  161.4620  208.7180  150.2250 N   0  0  0  0  0  0  0  0  0  0  0  0
  161.9870  207.9000  151.2900 C   0  0  1  0  0  3  0  0  0  0  0  0
  162.3060  209.2170  151.2050 O   0  0  0  0  0  0  0  0  0  0  0  0
  162.2640  208.4180  149.0430 C   0  0  1  0  0  3  0  0  0  0  0  0
  161.3970  206.1510  149.2620 N   0  0  0  0  0  0  0  0  0  0  0  0
  161.9680  205.6270  146.5930 C   0  0  0  0  0  3  0  0  0  0  0  0
  161.8370  204.4680  147.5350 C   0  0  2  0  0  3  0  0  0  0  0  0
  161.3090  203.3300  146.8990 O   0  0  0  0  0  0  0  0  0  0  0  0
  162.0190  206.8390  147.0710 N   0  0  0  0  0  0  0  0  0  0  0  0
  161.8570  207.0910  148.4820 C   0  0  0  0  0  0  0  0  0  0  0  0
  161.5010  202.2550  147.7960 C   0  0  0  0  0  2  0  0  0  0  0  0
  160.9410  203.7630  149.7380 C   0  0  0  0  0  2  0  0  0  0  0  0
  160.9310  204.8830  148.7010 C   0  0  1  0  0  3  0  0  0  0  0  0
  160.6210  202.4260  149.0470 C   0  0  0  0  0  2  0  0  0  0  0  0
  162.1260  209.4210  148.0780 O   0  0  0  0  0  0  0  0  0  0  0  0
  162.3930  210.6110  148.7620 C   0  0  0  0  0  2  0  0  0  0  0  0
  161.5190  211.7340  148.2360 C   0  0  1  0  0  3  0  0  0  0  0  0
  161.6060  213.8140  146.7760 C   0  0  1  0  0  3  0  0  0  0  0  0
  161.2260  212.7320  149.3620 C   0  0  0  0  0  2  0  0  0  0  0  0
  160.3730  213.9790  147.4340 O   0  0  0  0  0  0  0  0  0  0  0  0
  162.1810  212.4150  147.0320 C   0  0  0  0  0  2  0  0  0  0  0  0
  160.6750  214.0630  148.8100 C   0  0  0  0  0  2  0  0  0  0  0  0
  160.8430  212.8550  144.6750 N   0  0  0  0  0  1  0  0  0  0  0  0
  161.4320  214.0340  145.2830 C   0  0  0  0  0  2  0  0  0  0  0  0
  1  2  1  6  0  0  0
  1  3  1  0  0  0  0
  3  4  2  0  0  0  0
  3  5  1  0  0  0  0
  7 13  1  0  0  0  0
  8 17  1  6  0  0  0
  8 20  1  0  0  0  0
  9 10  1  0  0  0  0
 10 11  1  0  0  0  0
 11  5  1  1  0  0  0
 11  7  1  0  0  0  0
 11 23  1  0  0  0  0
 12  6  1  6  0  0  0
 12 19  1  0  0  0  0
 12  8  1  0  0  0  0
 15 22  1  1  0  0  0
 15  9  1  0  0  0  0
 15 19  1  0  0  0  0
 18 13  1  1  0  0  0
 18 16  1  0  0  0  0
 19 14  1  1  0  0  0
 19 18  1  0  0  0  0
 20 16  1  0  0  0  0
 20 21  1  1  0  0  0
 23 24  1  0  0  0  0
 23 25  1  0  0  0  0
 26 23  1  0  0  0  0
 27  1  1  0  0  0  0
 28 30  1  0  0  0  0
 28 29  1  0  0  0  0
 29 27  1  1  0  0  0
 30 29  1  0  0  0  0
 31 42  1  6  0  0  0
 31 28  1  0  0  0  0
 33 36  2  0  0  0  0
 34 33  1  6  0  0  0
 34 40  1  0  0  0  0
 35 34  1  0  0  0  0
 35 38  1  0  0  0  0
 36 37  1  0  0  0  0
 37 31  1  0  0  0  0
 37 32  2  0  0  0  0
 38 41  1  0  0  0  0
 40 32  1  0  0  0  0
 40 39  1  1  0  0  0
 41 39  1  0  0  0  0
 42 43  1  0  0  0  0
 44 43  1  1  0  0  0
 44 46  1  0  0  0  0
 45 51  1  6  0  0  0
 45 48  1  0  0  0  0
 45 47  1  0  0  0  0
 47 49  1  0  0  0  0
 48 44  1  0  0  0  0
 49 46  1  0  0  0  0
 50 51  1  0  0  0  0
M  END
>  <MODEL>
1

>  <REMARK>
 VINA RESULT:      -8.9      0.000      0.000
  Name = 
  12 active torsions:
  status: ('A' for Active; 'I' for Inactive)
    1  A    between atoms: N_2  and  C_34
    2  A    between atoms: C_3  and  C_12
    3  A    between atoms: C_3  and  C_22
    4  A    between atoms: C_4  and  C_26
    5  A    between atoms: C_7  and  C_37
    6  A    between atoms: C_12  and  C_25
    7  A    between atoms: C_17  and  C_20
    8  A    between atoms: C_17  and  O_47
    9  A    between atoms: C_22  and  O_47
   10  A    between atoms: C_26  and  O_28
   11  A    between atoms: O_28  and  C_34
   12  A    between atoms: C_32  and  C_34
                            x       y       z     vdW  Elec       q    Type
                         _______ _______ _______ _____ _____    ______ ____

>  <TORSDO>
F 12

$$$$
=
 OpenBabel11072410253D

 51 56  0  0  1  0  0  0  0  0999 V2000
  160.5600  209.0760  153.6350 C   0  0  2  0  0  3  0  0  0  0  0  0
  161.1000  209.0410  155.0560 C   0  0  0  0  0  1  0  0  0  0  0  0
  160.5900  207.7200  152.9800 C   0  0  0  0  0  0  0  0  0  0  0  0
  160.7920  206.6920  153.6820 O   0  0  0  0  0  0  0  0  0  0  0  0
  160.4620  207.6150  151.5860 O   0  0  0  0  0  0  0  0  0  0  0  0
  161.2410  202.1370  146.5200 C   0  0  0  0  0  1  0  0  0  0  0  0
  160.9630  207.1050  149.4010 O   0  0  0  0  0  0  0  0  0  0  0  0
  160.8570  204.2900  145.2890 C   0  0  1  0  0  3  0  0  0  0  0  0
  161.8670  204.3170  150.3080 C   0  0  0  0  0  2  0  0  0  0  0  0
  161.0790  205.3440  151.1180 C   0  0  0  0  0  2  0  0  0  0  0  0
  161.3170  206.8260  150.7480 C   0  0  2  0  0  0  0  0  0  0  0  0
  160.7660  203.5800  146.6450 C   0  0  2  0  0  3  0  0  0  0  0  0
  161.8770  206.5800  148.6050 O   0  0  0  0  0  0  0  0  0  0  0  0
  162.8970  204.1880  147.6020 O   0  0  0  0  0  1  0  0  0  0  0  0
  161.0810  203.7640  149.1200 C   0  0  2  0  0  3  0  0  0  0  0  0
  161.4510  206.3440  146.3750 O   0  0  0  0  0  0  0  0  0  0  0  0
  159.9360  203.7240  144.4040 O   0  0  0  0  0  1  0  0  0  0  0  0
  161.1520  205.8480  147.6600 C   0  0  1  0  0  3  0  0  0  0  0  0
  161.5110  204.3460  147.7600 C   0  0  2  0  0  0  0  0  0  0  0  0
  160.5280  205.7700  145.4890 C   0  0  1  0  0  3  0  0  0  0  0  0
  160.5800  206.4410  144.2680 O   0  0  0  0  0  1  0  0  0  0  0  0
  159.7100  203.8530  149.3050 F   0  0  0  0  0  0  0  0  0  0  0  0
  162.7700  207.2550  151.0810 C   0  0  0  0  0  0  0  0  0  0  0  0
  163.3190  206.3660  151.9860 F   0  0  0  0  0  0  0  0  0  0  0  0
  163.5370  207.2410  149.9280 F   0  0  0  0  0  0  0  0  0  0  0  0
  162.8280  208.5280  151.6210 F   0  0  0  0  0  0  0  0  0  0  0  0
  161.2630  210.1700  152.8160 C   0  0  0  0  0  2  0  0  0  0  0  0
  159.6390  211.5540  151.6610 N   0  0  0  0  0  0  0  0  0  0  0  0
  160.5050  211.4960  152.8130 C   0  0  1  0  0  3  0  0  0  0  0  0
  159.1710  211.2760  152.9360 O   0  0  0  0  0  0  0  0  0  0  0  0
  159.4100  212.9700  151.3900 C   0  0  1  0  0  3  0  0  0  0  0  0
  158.7940  213.4100  149.0740 N   0  0  0  0  0  0  0  0  0  0  0  0
  161.4630  213.3130  148.3010 C   0  0  0  0  0  3  0  0  0  0  0  0
  160.4090  213.0690  147.2620 C   0  0  2  0  0  3  0  0  0  0  0  0
  160.8050  213.5300  145.9930 O   0  0  0  0  0  0  0  0  0  0  0  0
  161.1230  213.3560  149.5590 N   0  0  0  0  0  0  0  0  0  0  0  0
  159.7410  213.2680  149.9610 C   0  0  0  0  0  0  0  0  0  0  0  0
  159.8740  212.9960  145.0730 C   0  0  0  0  0  2  0  0  0  0  0  0
  158.0080  213.3830  146.7250 C   0  0  0  0  0  2  0  0  0  0  0  0
  159.1190  213.7750  147.6950 C   0  0  1  0  0  3  0  0  0  0  0  0
  158.4840  213.6220  145.2810 C   0  0  0  0  0  2  0  0  0  0  0  0
  158.0860  213.3230  151.6710 O   0  0  0  0  0  0  0  0  0  0  0  0
  158.1870  214.4410  152.5050 C   0  0  0  0  0  2  0  0  0  0  0  0
  157.0570  214.4520  153.5180 C   0  0  1  0  0  3  0  0  0  0  0  0
  155.9020  212.9750  155.2360 C   0  0  1  0  0  3  0  0  0  0  0  0
  155.7090  214.3840  152.7910 C   0  0  0  0  0  2  0  0  0  0  0  0
  154.9810  214.0300  155.1020 O   0  0  0  0  0  0  0  0  0  0  0  0
  157.2190  213.3030  154.5200 C   0  0  0  0  0  2  0  0  0  0  0  0
  154.5640  214.0140  153.7540 C   0  0  0  0  0  2  0  0  0  0  0  0
  155.1310  211.8410  157.2450 N   0  0  0  0  0  1  0  0  0  0  0  0
  156.1690  212.7000  156.7050 C   0  0  0  0  0  2  0  0  0  0  0  0
  1  2  1  1  0  0  0
  3  1  1  0  0  0  0
  3  4  2  0  0  0  0
  5  3  1  0  0  0  0
  7 11  1  0  0  0  0
  8 17  1  6  0  0  0
  8 20  1  0  0  0  0
  8 12  1  0  0  0  0
  9 10  1  0  0  0  0
 11 23  1  0  0  0  0
 11 10  1  0  0  0  0
 11  5  1  1  0  0  0
 12  6  1  6  0  0  0
 12 19  1  0  0  0  0
 13  7  1  0  0  0  0
 15 22  1  1  0  0  0
 15  9  1  0  0  0  0
 18 16  1  6  0  0  0
 18 19  1  0  0  0  0
 18 13  1  0  0  0  0
 19 14  1  6  0  0  0
 19 15  1  0  0  0  0
 20 21  1  6  0  0  0
 20 16  1  0  0  0  0
 23 26  1  0  0  0  0
 23 24  1  0  0  0  0
 25 23  1  0  0  0  0
 27  1  1  0  0  0  0
 28 29  1  0  0  0  0
 28 30  1  0  0  0  0
 29 27  1  6  0  0  0
 29 30  1  0  0  0  0
 31 28  1  0  0  0  0
 31 42  1  6  0  0  0
 32 37  2  0  0  0  0
 33 36  2  0  0  0  0
 34 40  1  0  0  0  0
 34 33  1  1  0  0  0
 35 34  1  0  0  0  0
 36 37  1  0  0  0  0
 37 31  1  0  0  0  0
 38 41  1  0  0  0  0
 38 35  1  0  0  0  0
 40 39  1  6  0  0  0
 40 32  1  0  0  0  0
 41 39  1  0  0  0  0
 42 43  1  0  0  0  0
 44 43  1  6  0  0  0
 44 48  1  0  0  0  0
 45 51  1  1  0  0  0
 46 44  1  0  0  0  0
 46 49  1  0  0  0  0
 47 45  1  0  0  0  0
 48 45  1  0  0  0  0
 49 47  1  0  0  0  0
 51 50  1  0  0  0  0
M  END
>  <MODEL>
2

>  <REMARK>
 VINA RESULT:      -7.1      3.076      8.964
  Name = 
  12 active torsions:
  status: ('A' for Active; 'I' for Inactive)
    1  A    between atoms: N_2  and  C_34
    2  A    between atoms: C_3  and  C_12
    3  A    between atoms: C_3  and  C_22
    4  A    between atoms: C_4  and  C_26
    5  A    between atoms: C_7  and  C_37
    6  A    between atoms: C_12  and  C_25
    7  A    between atoms: C_17  and  C_20
    8  A    between atoms: C_17  and  O_47
    9  A    between atoms: C_22  and  O_47
   10  A    between atoms: C_26  and  O_28
   11  A    between atoms: O_28  and  C_34
   12  A    between atoms: C_32  and  C_34
                            x       y       z     vdW  Elec       q    Type
                         _______ _______ _______ _____ _____    ______ ____

>  <TORSDO>
F 12

$$$$
