=
 OpenBabel11072411133D

 30 32  0  0  1  0  0  0  0  0999 V2000
  162.2090  210.5830  149.7870 O   0  0  0  0  0  0  0  0  0  0  0  0
  161.1860  204.8900  153.9060 O   0  0  0  0  0  1  0  0  0  0  0  0
  161.6820  208.0100  152.2730 C   0  0  1  0  0  3  0  0  0  0  0  0
  160.7300  206.9730  152.8530 C   0  0  0  0  0  2  0  0  0  0  0  0
  161.8170  206.3850  149.8270 C   0  0  0  0  0  2  0  0  0  0  0  0
  161.1780  208.6290  150.9740 C   0  0  1  0  0  3  0  0  0  0  0  0
  161.9190  209.9880  148.5700 N   0  0  0  0  0  2  0  0  0  0  0  0
  162.3100  208.5750  148.6430 C   0  0  0  0  0  2  0  0  0  0  0  0
  160.8320  204.7840  151.5420 C   0  0  2  0  0  3  0  0  0  0  0  0
  161.8980  209.9240  150.9740 C   0  0  1  0  0  3  0  0  0  0  0  0
  160.5920  205.5920  150.2630 C   0  0  0  0  0  2  0  0  0  0  0  0
  162.3520  210.2850  152.1580 C   0  0  0  0  0  2  0  0  0  0  0  0
  161.4160  207.8450  149.6550 C   0  0  1  0  0  3  0  0  0  0  0  0
  161.3740  205.6020  152.7230 C   0  0  2  0  0  3  0  0  0  0  0  0
  162.0510  209.2190  153.1710 C   0  0  1  0  0  3  0  0  0  0  0  0
  159.6380  209.8790  153.5920 C   0  0  0  0  0  1  0  0  0  0  0  0
  161.0140  209.6810  154.2410 C   0  0  1  0  0  0  0  0  0  0  0  0
  160.9650  208.6590  155.3690 C   0  0  0  0  0  0  0  0  0  0  0  0
  162.0100  208.2180  155.8270 O   0  0  0  0  0  0  0  0  0  0  0  0
  159.8740  206.9700  156.6230 O   0  0  0  0  0  1  0  0  0  0  0  0
  159.6690  208.1710  155.9440 C   0  0  0  0  0  2  0  0  0  0  0  0
  161.4860  211.0280  154.8280 C   0  0  0  0  0  2  0  0  0  0  0  0
  160.1200  211.6400  156.6930 O   0  0  0  0  0  1  0  0  0  0  0  0
  159.6940  212.7700  154.7450 O   0  0  0  0  0  0  0  0  0  0  0  0
  160.4010  211.8290  155.4810 C   0  0  0  0  0  0  0  0  0  0  0  0
  161.6910  203.7150  151.2760 O   0  0  0  0  0  0  0  0  0  0  0  0
  160.9000  202.5720  151.4110 C   0  0  0  0  0  2  0  0  0  0  0  0
  161.1610  201.6180  150.2560 C   0  0  0  0  0  2  0  0  0  0  0  0
  161.1980  202.6490  147.9790 C   0  0  0  0  0  1  0  0  0  0  0  0
  160.3310  201.9950  149.0380 C   0  0  0  0  0  2  0  0  0  0  0  0
  1 10  1  0  0  0  0
  3  4  1  1  0  0  0
  3 15  1  0  0  0  0
  5 11  1  0  0  0  0
  6  3  1  0  0  0  0
  7  8  1  0  0  0  0
  7  1  1  0  0  0  0
  8 13  1  0  0  0  0
  9 14  1  0  0  0  0
 10  6  1  0  0  0  0
 10 12  1  0  0  0  0
 11  9  1  0  0  0  0
 12 15  1  0  0  0  0
 13  5  1  0  0  0  0
 13  6  1  0  0  0  0
 14  4  1  0  0  0  0
 14  2  1  0  0  0  0
 15 17  1  0  0  0  0
 16 17  1  0  0  0  0
 17 22  1  0  0  0  0
 17 18  1  0  0  0  0
 18 19  2  0  0  0  0
 18 21  1  0  0  0  0
 21 20  1  0  0  0  0
 22 25  1  0  0  0  0
 24 25  2  0  0  0  0
 25 23  1  0  0  0  0
 26 27  1  0  0  0  0
 26  9  1  0  0  0  0
 28 27  1  0  0  0  0
 29 30  1  0  0  0  0
 30 28  1  0  0  0  0
M  END
>  <MODEL>
1

>  <REMARK>
 VINA RESULT:      -6.4      0.000      0.000
  Name = 
  9 active torsions:
  status: ('A' for Active; 'I' for Inactive)
    1  A    between atoms: C_3  and  C_29
    2  A    between atoms: C_3  and  C_30
    3  A    between atoms: C_5  and  C_6
    4  A    between atoms: C_5  and  C_8
    5  A    between atoms: C_6  and  O_15
    6  A    between atoms: O_15  and  C_16
    7  A    between atoms: C_17  and  C_19
    8  A    between atoms: C_19  and  C_30
    9  A    between atoms: C_26  and  C_30
                            x       y       z     vdW  Elec       q    Type
                         _______ _______ _______ _____ _____    ______ ____

>  <TORSDO>
F 9

$$$$
=
 OpenBabel11072411133D

 30 32  0  0  1  0  0  0  0  0999 V2000
  162.3220  210.7230  149.7050 O   0  0  0  0  0  0  0  0  0  0  0  0
  161.2240  204.8890  153.6010 O   0  0  0  0  0  1  0  0  0  0  0  0
  161.7910  208.0590  152.0930 C   0  0  1  0  0  3  0  0  0  0  0  0
  160.8190  207.0400  152.6700 C   0  0  0  0  0  2  0  0  0  0  0  0
  161.7300  206.5510  149.5690 C   0  0  0  0  0  2  0  0  0  0  0  0
  161.2560  208.7630  150.8510 C   0  0  1  0  0  3  0  0  0  0  0  0
  161.9460  210.2020  148.4780 N   0  0  0  0  0  2  0  0  0  0  0  0
  162.2720  208.7720  148.4660 C   0  0  0  0  0  2  0  0  0  0  0  0
  160.7540  204.9150  151.2550 C   0  0  2  0  0  3  0  0  0  0  0  0
  162.0370  210.0220  150.8750 C   0  0  1  0  0  3  0  0  0  0  0  0
  160.4920  205.7940  150.0280 C   0  0  0  0  0  2  0  0  0  0  0  0
  162.5640  210.3040  152.0500 C   0  0  0  0  0  2  0  0  0  0  0  0
  161.3920  208.0340  149.4860 C   0  0  1  0  0  3  0  0  0  0  0  0
  161.3900  205.6480  152.4440 C   0  0  2  0  0  3  0  0  0  0  0  0
  162.2600  209.2040  153.0270 C   0  0  1  0  0  3  0  0  0  0  0  0
  162.1090  210.1100  155.3900 C   0  0  0  0  0  1  0  0  0  0  0  0
  161.2990  209.6600  154.1670 C   0  0  1  0  0  0  0  0  0  0  0  0
  160.3940  210.7690  153.6500 C   0  0  0  0  0  0  0  0  0  0  0  0
  160.7250  211.9370  153.8020 O   0  0  0  0  0  0  0  0  0  0  0  0
  158.5940  211.6470  152.3810 O   0  0  0  0  0  1  0  0  0  0  0  0
  159.0990  210.4780  152.9520 C   0  0  0  0  0  2  0  0  0  0  0  0
  160.4160  208.4610  154.5690 C   0  0  0  0  0  2  0  0  0  0  0  0
  159.2990  209.3400  156.4920 O   0  0  0  0  0  0  0  0  0  0  0  0
  160.5020  207.4210  156.8420 O   0  0  0  0  0  1  0  0  0  0  0  0
  160.0330  208.4350  156.0170 C   0  0  0  0  0  0  0  0  0  0  0  0
  161.5470  203.8220  150.8970 O   0  0  0  0  0  0  0  0  0  0  0  0
  160.8320  203.1700  149.8900 C   0  0  0  0  0  2  0  0  0  0  0  0
  160.8360  201.6690  150.1370 C   0  0  0  0  0  2  0  0  0  0  0  0
  160.8420  201.7120  147.6380 C   0  0  0  0  0  1  0  0  0  0  0  0
  161.2010  200.9070  148.8720 C   0  0  0  0  0  2  0  0  0  0  0  0
  1 10  1  0  0  0  0
  3  4  1  1  0  0  0
  3 15  1  0  0  0  0
  5 11  1  0  0  0  0
  6 10  1  0  0  0  0
  6  3  1  0  0  0  0
  7  1  1  0  0  0  0
  8  7  1  0  0  0  0
  8 13  1  0  0  0  0
  9 14  1  0  0  0  0
 10 12  1  0  0  0  0
 11  9  1  0  0  0  0
 12 15  1  0  0  0  0
 13  5  1  0  0  0  0
 13  6  1  0  0  0  0
 14  4  1  0  0  0  0
 14  2  1  0  0  0  0
 15 17  1  0  0  0  0
 17 22  1  0  0  0  0
 17 16  1  0  0  0  0
 18 19  2  0  0  0  0
 18 17  1  0  0  0  0
 20 21  1  0  0  0  0
 21 18  1  0  0  0  0
 22 25  1  0  0  0  0
 25 23  2  0  0  0  0
 25 24  1  0  0  0  0
 26  9  1  0  0  0  0
 27 28  1  0  0  0  0
 27 26  1  0  0  0  0
 29 30  1  0  0  0  0
 30 28  1  0  0  0  0
M  END
>  <MODEL>
2

>  <REMARK>
 VINA RESULT:      -5.5      0.989      2.305
  Name = 
  9 active torsions:
  status: ('A' for Active; 'I' for Inactive)
    1  A    between atoms: C_3  and  C_29
    2  A    between atoms: C_3  and  C_30
    3  A    between atoms: C_5  and  C_6
    4  A    between atoms: C_5  and  C_8
    5  A    between atoms: C_6  and  O_15
    6  A    between atoms: O_15  and  C_16
    7  A    between atoms: C_17  and  C_19
    8  A    between atoms: C_19  and  C_30
    9  A    between atoms: C_26  and  C_30
                            x       y       z     vdW  Elec       q    Type
                         _______ _______ _______ _____ _____    ______ ____

>  <TORSDO>
F 9

$$$$
=
 OpenBabel11072411133D

 30 32  0  0  1  0  0  0  0  0999 V2000
  160.9120  201.7760  150.0180 O   0  0  0  0  0  0  0  0  0  0  0  0
  162.4730  208.4290  148.0870 O   0  0  0  0  0  1  0  0  0  0  0  0
  161.7320  204.9830  148.5610 C   0  0  1  0  0  3  0  0  0  0  0  0
  161.2570  206.3900  148.2240 C   0  0  0  0  0  2  0  0  0  0  0  0
  161.5590  205.7050  151.4060 C   0  0  0  0  0  2  0  0  0  0  0  0
  160.7520  204.2120  149.4370 C   0  0  1  0  0  3  0  0  0  0  0  0
  160.4420  202.0560  151.2900 N   0  0  0  0  0  2  0  0  0  0  0  0
  161.1630  203.2290  151.8000 C   0  0  0  0  0  2  0  0  0  0  0  0
  161.5060  207.9570  150.2250 C   0  0  2  0  0  3  0  0  0  0  0  0
  161.1130  202.8120  149.1080 C   0  0  1  0  0  3  0  0  0  0  0  0
  160.7320  206.9360  151.0630 C   0  0  0  0  0  2  0  0  0  0  0  0
  161.7810  202.6820  147.9790 C   0  0  0  0  0  2  0  0  0  0  0  0
  160.7900  204.4650  150.9690 C   0  0  1  0  0  3  0  0  0  0  0  0
  162.1470  207.3860  148.9520 C   0  0  2  0  0  3  0  0  0  0  0  0
  162.0390  204.0320  147.3750 C   0  0  1  0  0  3  0  0  0  0  0  0
  159.8160  204.6630  146.3310 C   0  0  0  0  0  1  0  0  0  0  0  0
  161.2650  204.2530  146.0390 C   0  0  1  0  0  0  0  0  0  0  0  0
  161.9920  205.2980  145.2030 C   0  0  0  0  0  0  0  0  0  0  0  0
  163.1890  205.4820  145.3770 O   0  0  0  0  0  0  0  0  0  0  0  0
  161.6510  205.6820  142.8890 O   0  0  0  0  0  1  0  0  0  0  0  0
  161.2850  206.1160  144.1640 C   0  0  0  0  0  2  0  0  0  0  0  0
  161.2590  202.9240  145.2550 C   0  0  0  0  0  2  0  0  0  0  0  0
  159.4340  201.3800  145.2510 O   0  0  0  0  0  1  0  0  0  0  0  0
  159.1520  203.2420  143.9460 O   0  0  0  0  0  0  0  0  0  0  0  0
  159.8970  202.4690  144.8260 C   0  0  0  0  0  0  0  0  0  0  0  0
  162.4850  208.5730  151.0080 O   0  0  0  0  0  0  0  0  0  0  0  0
  161.9720  209.8390  151.3010 C   0  0  0  0  0  2  0  0  0  0  0  0
  161.9950  210.0740  152.8040 C   0  0  0  0  0  2  0  0  0  0  0  0
  160.8220  208.5830  154.4310 C   0  0  0  0  0  1  0  0  0  0  0  0
  160.6580  209.7130  153.4340 C   0  0  0  0  0  2  0  0  0  0  0  0
  1  7  1  0  0  0  0
  2 14  1  0  0  0  0
  3  4  1  6  0  0  0
  3  6  1  0  0  0  0
  4 14  1  0  0  0  0
  6 13  1  0  0  0  0
  7  8  1  0  0  0  0
  9 26  1  0  0  0  0
  9 11  1  0  0  0  0
 10  6  1  0  0  0  0
 10  1  1  0  0  0  0
 11  5  1  0  0  0  0
 12 10  1  0  0  0  0
 13  5  1  0  0  0  0
 13  8  1  0  0  0  0
 14  9  1  0  0  0  0
 15 12  1  0  0  0  0
 15  3  1  0  0  0  0
 17 16  1  0  0  0  0
 17 15  1  0  0  0  0
 18 19  2  0  0  0  0
 18 17  1  0  0  0  0
 20 21  1  0  0  0  0
 21 18  1  0  0  0  0
 22 17  1  0  0  0  0
 24 25  2  0  0  0  0
 25 23  1  0  0  0  0
 25 22  1  0  0  0  0
 26 27  1  0  0  0  0
 27 28  1  0  0  0  0
 28 30  1  0  0  0  0
 30 29  1  0  0  0  0
M  END
>  <MODEL>
3

>  <REMARK>
 VINA RESULT:      -5.4      3.696      8.967
  Name = 
  9 active torsions:
  status: ('A' for Active; 'I' for Inactive)
    1  A    between atoms: C_3  and  C_29
    2  A    between atoms: C_3  and  C_30
    3  A    between atoms: C_5  and  C_6
    4  A    between atoms: C_5  and  C_8
    5  A    between atoms: C_6  and  O_15
    6  A    between atoms: O_15  and  C_16
    7  A    between atoms: C_17  and  C_19
    8  A    between atoms: C_19  and  C_30
    9  A    between atoms: C_26  and  C_30
                            x       y       z     vdW  Elec       q    Type
                         _______ _______ _______ _____ _____    ______ ____

>  <TORSDO>
F 9

$$$$
=
 OpenBabel11072411133D

 30 32  0  0  1  0  0  0  0  0999 V2000
  160.6780  202.2950  151.7950 O   0  0  0  0  0  0  0  0  0  0  0  0
  161.3790  208.3780  148.1980 O   0  0  0  0  0  1  0  0  0  0  0  0
  160.9800  205.6230  150.4120 C   0  0  1  0  0  3  0  0  0  0  0  0
  161.8880  206.6540  149.7560 C   0  0  0  0  0  2  0  0  0  0  0  0
  161.2210  203.9960  147.9750 C   0  0  0  0  0  2  0  0  0  0  0  0
  161.6220  204.2460  150.5310 C   0  0  1  0  0  3  0  0  0  0  0  0
  161.1450  201.4400  150.8090 N   0  0  0  0  0  2  0  0  0  0  0  0
  160.8000  202.0130  149.5030 C   0  0  0  0  0  2  0  0  0  0  0  0
  162.0370  206.2880  147.2330 C   0  0  2  0  0  3  0  0  0  0  0  0
  160.8600  203.6710  151.6640 C   0  0  1  0  0  3  0  0  0  0  0  0
  162.4080  204.8290  147.5120 C   0  0  0  0  0  2  0  0  0  0  0  0
  160.2440  204.5680  152.4080 C   0  0  0  0  0  2  0  0  0  0  0  0
  161.5850  203.3150  149.2880 C   0  0  1  0  0  3  0  0  0  0  0  0
  161.3180  206.9980  148.3890 C   0  0  2  0  0  3  0  0  0  0  0  0
  160.4540  205.9410  151.8360 C   0  0  1  0  0  3  0  0  0  0  0  0
  162.7830  206.3690  152.7410 C   0  0  0  0  0  1  0  0  0  0  0  0
  161.3270  206.8500  152.7540 C   0  0  1  0  0  0  0  0  0  0  0  0
  161.2050  208.2960  152.2940 C   0  0  0  0  0  0  0  0  0  0  0  0
  160.1020  208.7510  152.0230 O   0  0  0  0  0  0  0  0  0  0  0  0
  162.2560  210.0110  151.0390 O   0  0  0  0  0  1  0  0  0  0  0  0
  162.4000  209.1910  152.1590 C   0  0  0  0  0  2  0  0  0  0  0  0
  160.7830  206.7530  154.1950 C   0  0  0  0  0  2  0  0  0  0  0  0
  162.0740  208.1780  155.6150 O   0  0  0  0  0  1  0  0  0  0  0  0
  159.9640  208.9250  155.1240 O   0  0  0  0  0  0  0  0  0  0  0  0
  160.9850  207.9910  155.0140 C   0  0  0  0  0  0  0  0  0  0  0  0
  161.2590  206.3700  146.0750 O   0  0  0  0  0  0  0  0  0  0  0  0
  162.0840  205.8970  145.0510 C   0  0  0  0  0  2  0  0  0  0  0  0
  161.2480  205.1950  143.9920 C   0  0  0  0  0  2  0  0  0  0  0  0
  160.4890  202.9930  144.8990 C   0  0  0  0  0  1  0  0  0  0  0  0
  160.0940  204.4310  144.6250 C   0  0  0  0  0  2  0  0  0  0  0  0
  2 14  1  0  0  0  0
  3  4  1  1  0  0  0
  3  6  1  0  0  0  0
  3 15  1  0  0  0  0
  5 13  1  0  0  0  0
  6 10  1  0  0  0  0
  7  1  1  0  0  0  0
  8  7  1  0  0  0  0
  9 11  1  0  0  0  0
  9 14  1  0  0  0  0
 10  1  1  0  0  0  0
 10 12  1  0  0  0  0
 11  5  1  0  0  0  0
 13  8  1  0  0  0  0
 13  6  1  0  0  0  0
 14  4  1  0  0  0  0
 15 12  1  0  0  0  0
 15 17  1  0  0  0  0
 16 17  1  0  0  0  0
 17 22  1  0  0  0  0
 18 17  1  0  0  0  0
 19 18  2  0  0  0  0
 20 21  1  0  0  0  0
 21 18  1  0  0  0  0
 22 25  1  0  0  0  0
 25 24  2  0  0  0  0
 25 23  1  0  0  0  0
 26  9  1  0  0  0  0
 27 26  1  0  0  0  0
 28 30  1  0  0  0  0
 28 27  1  0  0  0  0
 30 29  1  0  0  0  0
M  END
>  <MODEL>
4

>  <REMARK>
 VINA RESULT:      -5.4      2.849      5.272
  Name = 
  9 active torsions:
  status: ('A' for Active; 'I' for Inactive)
    1  A    between atoms: C_3  and  C_29
    2  A    between atoms: C_3  and  C_30
    3  A    between atoms: C_5  and  C_6
    4  A    between atoms: C_5  and  C_8
    5  A    between atoms: C_6  and  O_15
    6  A    between atoms: O_15  and  C_16
    7  A    between atoms: C_17  and  C_19
    8  A    between atoms: C_19  and  C_30
    9  A    between atoms: C_26  and  C_30
                            x       y       z     vdW  Elec       q    Type
                         _______ _______ _______ _____ _____    ______ ____

>  <TORSDO>
F 9

$$$$
=
 OpenBabel11072411133D

 30 32  0  0  1  0  0  0  0  0999 V2000
  160.8240  201.5460  148.2440 O   0  0  0  0  0  0  0  0  0  0  0  0
  162.4740  207.6590  151.4570 O   0  0  0  0  0  1  0  0  0  0  0  0
  161.7750  204.8320  149.4160 C   0  0  1  0  0  3  0  0  0  0  0  0
  161.3190  206.1490  150.0280 C   0  0  0  0  0  2  0  0  0  0  0  0
  161.0970  203.5210  151.9590 C   0  0  0  0  0  2  0  0  0  0  0  0
  160.6860  203.7660  149.4040 C   0  0  1  0  0  3  0  0  0  0  0  0
  160.1360  200.9620  149.2950 N   0  0  0  0  0  2  0  0  0  0  0  0
  160.7210  201.4420  150.5520 C   0  0  0  0  0  2  0  0  0  0  0  0
  161.1740  205.9890  152.5730 C   0  0  2  0  0  3  0  0  0  0  0  0
  161.1430  202.9020  148.2900 C   0  0  1  0  0  3  0  0  0  0  0  0
  160.3010  204.7420  152.3990 C   0  0  0  0  0  2  0  0  0  0  0  0
  161.9970  203.4850  147.4740 C   0  0  0  0  0  2  0  0  0  0  0  0
  160.4540  202.9470  150.7030 C   0  0  1  0  0  3  0  0  0  0  0  0
  162.0390  206.3390  151.3550 C   0  0  2  0  0  3  0  0  0  0  0  0
  162.3100  204.8700  147.9610 C   0  0  1  0  0  3  0  0  0  0  0  0
  160.2450  205.8610  146.8730 C   0  0  0  0  0  1  0  0  0  0  0  0
  161.7680  205.9810  147.0100 C   0  0  1  0  0  0  0  0  0  0  0  0
  162.1820  207.3460  147.5430 C   0  0  0  0  0  0  0  0  0  0  0  0
  163.3480  207.5420  147.8560 O   0  0  0  0  0  0  0  0  0  0  0  0
  161.7530  209.4760  148.4910 O   0  0  0  0  0  1  0  0  0  0  0  0
  161.2010  208.4700  147.6970 C   0  0  0  0  0  2  0  0  0  0  0  0
  162.4100  205.7890  145.6200 C   0  0  0  0  0  2  0  0  0  0  0  0
  161.1650  206.0950  143.6020 O   0  0  0  0  0  0  0  0  0  0  0  0
  160.8780  204.0720  144.6400 O   0  0  0  0  0  1  0  0  0  0  0  0
  161.4560  205.3320  144.5590 C   0  0  0  0  0  0  0  0  0  0  0  0
  161.9850  205.8490  153.7020 O   0  0  0  0  0  0  0  0  0  0  0  0
  161.1940  206.2770  154.7710 C   0  0  0  0  0  2  0  0  0  0  0  0
  160.7940  207.7310  154.5740 C   0  0  0  0  0  2  0  0  0  0  0  0
  160.0540  207.2370  156.9100 C   0  0  0  0  0  1  0  0  0  0  0  0
  160.1940  208.3090  155.8470 C   0  0  0  0  0  2  0  0  0  0  0  0
  1 10  1  0  0  0  0
  1  7  1  0  0  0  0
  3  4  1  6  0  0  0
  4 14  1  0  0  0  0
  5 11  1  0  0  0  0
  6  3  1  0  0  0  0
  6 13  1  0  0  0  0
  7  8  1  0  0  0  0
  8 13  1  0  0  0  0
  9 26  1  0  0  0  0
 10  6  1  0  0  0  0
 11  9  1  0  0  0  0
 12 15  1  0  0  0  0
 12 10  1  0  0  0  0
 13  5  1  0  0  0  0
 14  2  1  0  0  0  0
 14  9  1  0  0  0  0
 15  3  1  0  0  0  0
 16 17  1  0  0  0  0
 17 18  1  0  0  0  0
 17 15  1  0  0  0  0
 18 21  1  0  0  0  0
 18 19  2  0  0  0  0
 21 20  1  0  0  0  0
 22 17  1  0  0  0  0
 23 25  2  0  0  0  0
 25 24  1  0  0  0  0
 25 22  1  0  0  0  0
 26 27  1  0  0  0  0
 28 27  1  0  0  0  0
 28 30  1  0  0  0  0
 30 29  1  0  0  0  0
M  END
>  <MODEL>
5

>  <REMARK>
 VINA RESULT:      -5.2      3.282      7.878
  Name = 
  9 active torsions:
  status: ('A' for Active; 'I' for Inactive)
    1  A    between atoms: C_3  and  C_29
    2  A    between atoms: C_3  and  C_30
    3  A    between atoms: C_5  and  C_6
    4  A    between atoms: C_5  and  C_8
    5  A    between atoms: C_6  and  O_15
    6  A    between atoms: O_15  and  C_16
    7  A    between atoms: C_17  and  C_19
    8  A    between atoms: C_19  and  C_30
    9  A    between atoms: C_26  and  C_30
                            x       y       z     vdW  Elec       q    Type
                         _______ _______ _______ _____ _____    ______ ____

>  <TORSDO>
F 9

$$$$
=
 OpenBabel11072411133D

 30 32  0  0  1  0  0  0  0  0999 V2000
  161.5960  208.5830  147.7360 O   0  0  0  0  0  0  0  0  0  0  0  0
  160.5380  203.2020  152.2460 O   0  0  0  0  0  1  0  0  0  0  0  0
  160.9880  205.5560  149.6200 C   0  0  1  0  0  3  0  0  0  0  0  0
  161.5690  204.4810  150.5270 C   0  0  0  0  0  2  0  0  0  0  0  0
  161.3920  207.4850  151.8020 C   0  0  0  0  0  2  0  0  0  0  0  0
  161.9430  206.7200  149.3790 C   0  0  1  0  0  3  0  0  0  0  0  0
  162.1620  209.4720  148.6350 N   0  0  0  0  0  2  0  0  0  0  0  0
  161.5820  209.2200  149.9590 C   0  0  0  0  0  2  0  0  0  0  0  0
  161.5800  205.2320  152.9670 C   0  0  2  0  0  3  0  0  0  0  0  0
  161.4370  207.2440  148.0890 C   0  0  1  0  0  3  0  0  0  0  0  0
  162.3060  206.5050  152.5250 C   0  0  0  0  0  2  0  0  0  0  0  0
  160.6950  206.3880  147.4150 C   0  0  0  0  0  2  0  0  0  0  0  0
  162.0180  207.8350  150.4580 C   0  0  1  0  0  3  0  0  0  0  0  0
  160.8180  204.5080  151.8490 C   0  0  2  0  0  3  0  0  0  0  0  0
  160.5270  205.1220  148.2040 C   0  0  1  0  0  3  0  0  0  0  0  0
  160.2500  203.1320  146.6580 C   0  0  0  0  0  1  0  0  0  0  0  0
  161.2380  203.9010  147.5440 C   0  0  1  0  0  0  0  0  0  0  0  0
  162.4450  204.3880  146.7540 C   0  0  0  0  0  0  0  0  0  0  0  0
  163.4700  204.6940  147.3480 O   0  0  0  0  0  0  0  0  0  0  0  0
  162.6730  205.8280  144.8840 O   0  0  0  0  0  1  0  0  0  0  0  0
  162.4220  204.5070  145.2600 C   0  0  0  0  0  2  0  0  0  0  0  0
  161.7370  202.9640  148.6630 C   0  0  0  0  0  2  0  0  0  0  0  0
  161.4920  200.6230  148.2450 O   0  0  0  0  0  0  0  0  0  0  0  0
  159.7630  201.6070  149.3810 O   0  0  0  0  0  1  0  0  0  0  0  0
  160.9990  201.6630  148.7520 C   0  0  0  0  0  0  0  0  0  0  0  0
  160.7090  205.5210  154.0200 O   0  0  0  0  0  0  0  0  0  0  0  0
  161.2130  206.6880  154.5980 C   0  0  0  0  0  2  0  0  0  0  0  0
  160.2930  207.1550  155.7160 C   0  0  0  0  0  2  0  0  0  0  0  0
  161.2120  209.3020  154.8260 C   0  0  0  0  0  1  0  0  0  0  0  0
  160.1630  208.6700  155.7200 C   0  0  0  0  0  2  0  0  0  0  0  0
  1 10  1  0  0  0  0
  1  7  1  0  0  0  0
  3  4  1  6  0  0  0
  4 14  1  0  0  0  0
  5 11  1  0  0  0  0
  6  3  1  0  0  0  0
  6 13  1  0  0  0  0
  7  8  1  0  0  0  0
  8 13  1  0  0  0  0
  9 26  1  0  0  0  0
 10  6  1  0  0  0  0
 11  9  1  0  0  0  0
 12 10  1  0  0  0  0
 12 15  1  0  0  0  0
 13  5  1  0  0  0  0
 14  2  1  0  0  0  0
 14  9  1  0  0  0  0
 15  3  1  0  0  0  0
 16 17  1  0  0  0  0
 17 15  1  0  0  0  0
 17 22  1  0  0  0  0
 18 19  2  0  0  0  0
 18 17  1  0  0  0  0
 20 21  1  0  0  0  0
 21 18  1  0  0  0  0
 22 25  1  0  0  0  0
 23 25  2  0  0  0  0
 25 24  1  0  0  0  0
 26 27  1  0  0  0  0
 27 28  1  0  0  0  0
 28 30  1  0  0  0  0
 29 30  1  0  0  0  0
M  END
>  <MODEL>
6

>  <REMARK>
 VINA RESULT:      -4.7      2.435      7.498
  Name = 
  9 active torsions:
  status: ('A' for Active; 'I' for Inactive)
    1  A    between atoms: C_3  and  C_29
    2  A    between atoms: C_3  and  C_30
    3  A    between atoms: C_5  and  C_6
    4  A    between atoms: C_5  and  C_8
    5  A    between atoms: C_6  and  O_15
    6  A    between atoms: O_15  and  C_16
    7  A    between atoms: C_17  and  C_19
    8  A    between atoms: C_19  and  C_30
    9  A    between atoms: C_26  and  C_30
                            x       y       z     vdW  Elec       q    Type
                         _______ _______ _______ _____ _____    ______ ____

>  <TORSDO>
F 9

$$$$
=
 OpenBabel11072411133D

 30 32  0  0  1  0  0  0  0  0999 V2000
  161.6080  208.7900  147.8860 O   0  0  0  0  0  0  0  0  0  0  0  0
  160.5500  203.4160  152.4060 O   0  0  0  0  0  1  0  0  0  0  0  0
  161.0030  205.7660  149.7750 C   0  0  1  0  0  3  0  0  0  0  0  0
  161.5850  204.6950  150.6870 C   0  0  0  0  0  2  0  0  0  0  0  0
  161.3900  207.7020  151.9540 C   0  0  0  0  0  2  0  0  0  0  0  0
  161.9550  206.9320  149.5360 C   0  0  1  0  0  3  0  0  0  0  0  0
  162.1670  209.6830  148.7850 N   0  0  0  0  0  2  0  0  0  0  0  0
  161.5810  209.4330  150.1070 C   0  0  0  0  0  2  0  0  0  0  0  0
  161.5820  205.4530  153.1260 C   0  0  2  0  0  3  0  0  0  0  0  0
  161.4530  207.4520  148.2410 C   0  0  1  0  0  3  0  0  0  0  0  0
  162.3040  206.7280  152.6830 C   0  0  0  0  0  2  0  0  0  0  0  0
  160.7180  206.5910  147.5670 C   0  0  0  0  0  2  0  0  0  0  0  0
  162.0200  208.0510  150.6120 C   0  0  1  0  0  3  0  0  0  0  0  0
  160.8270  204.7230  152.0060 C   0  0  2  0  0  3  0  0  0  0  0  0
  160.5510  205.3260  148.3580 C   0  0  1  0  0  3  0  0  0  0  0  0
  162.7910  204.2960  147.7670 C   0  0  0  0  0  1  0  0  0  0  0  0
  161.2700  204.1060  147.7050 C   0  0  1  0  0  0  0  0  0  0  0  0
  160.8310  202.8280  148.4060 C   0  0  0  0  0  0  0  0  0  0  0  0
  159.9920  202.8860  149.2940 O   0  0  0  0  0  0  0  0  0  0  0  0
  161.2060  200.5910  149.0940 O   0  0  0  0  0  1  0  0  0  0  0  0
  161.3940  201.4870  148.0400 C   0  0  0  0  0  2  0  0  0  0  0  0
  160.8390  204.0210  146.2260 C   0  0  0  0  0  2  0  0  0  0  0  0
  163.0240  203.9540  145.2580 O   0  0  0  0  0  1  0  0  0  0  0  0
  161.5930  205.4990  144.3550 O   0  0  0  0  0  0  0  0  0  0  0  0
  161.8820  204.4800  145.2530 C   0  0  0  0  0  0  0  0  0  0  0  0
  160.7040  205.7410  154.1740 O   0  0  0  0  0  0  0  0  0  0  0  0
  161.2000  206.9130  154.7500 C   0  0  0  0  0  2  0  0  0  0  0  0
  160.2910  207.3600  155.8850 C   0  0  0  0  0  2  0  0  0  0  0  0
  161.2100  209.5200  155.0280 C   0  0  0  0  0  1  0  0  0  0  0  0
  160.1710  208.8760  155.9250 C   0  0  0  0  0  2  0  0  0  0  0  0
  1 10  1  0  0  0  0
  1  7  1  0  0  0  0
  3  4  1  6  0  0  0
  4 14  1  0  0  0  0
  5 11  1  0  0  0  0
  6  3  1  0  0  0  0
  6 13  1  0  0  0  0
  7  8  1  0  0  0  0
  8 13  1  0  0  0  0
  9 26  1  0  0  0  0
 10  6  1  0  0  0  0
 11  9  1  0  0  0  0
 12 10  1  0  0  0  0
 12 15  1  0  0  0  0
 13  5  1  0  0  0  0
 14  2  1  0  0  0  0
 14  9  1  0  0  0  0
 15  3  1  0  0  0  0
 17 16  1  0  0  0  0
 17 15  1  0  0  0  0
 17 18  1  0  0  0  0
 18 19  2  0  0  0  0
 21 18  1  0  0  0  0
 21 20  1  0  0  0  0
 22 17  1  0  0  0  0
 24 25  2  0  0  0  0
 25 23  1  0  0  0  0
 25 22  1  0  0  0  0
 26 27  1  0  0  0  0
 27 28  1  0  0  0  0
 28 30  1  0  0  0  0
 29 30  1  0  0  0  0
M  END
>  <MODEL>
7

>  <REMARK>
 VINA RESULT:      -4.7      2.405      7.353
  Name = 
  9 active torsions:
  status: ('A' for Active; 'I' for Inactive)
    1  A    between atoms: C_3  and  C_29
    2  A    between atoms: C_3  and  C_30
    3  A    between atoms: C_5  and  C_6
    4  A    between atoms: C_5  and  C_8
    5  A    between atoms: C_6  and  O_15
    6  A    between atoms: O_15  and  C_16
    7  A    between atoms: C_17  and  C_19
    8  A    between atoms: C_19  and  C_30
    9  A    between atoms: C_26  and  C_30
                            x       y       z     vdW  Elec       q    Type
                         _______ _______ _______ _____ _____    ______ ____

>  <TORSDO>
F 9

$$$$
=
 OpenBabel11072411133D

 30 32  0  0  1  0  0  0  0  0999 V2000
  160.7480  205.1640  153.6930 O   0  0  0  0  0  0  0  0  0  0  0  0
  161.5750  209.6900  148.2850 O   0  0  0  0  0  1  0  0  0  0  0  0
  161.0800  207.8350  151.2780 C   0  0  1  0  0  3  0  0  0  0  0  0
  162.0110  208.6170  150.3620 C   0  0  0  0  0  2  0  0  0  0  0  0
  161.5090  205.4890  149.5590 C   0  0  0  0  0  2  0  0  0  0  0  0
  161.7380  206.6060  151.8950 C   0  0  1  0  0  3  0  0  0  0  0  0
  161.2930  204.0450  153.0850 N   0  0  0  0  0  2  0  0  0  0  0  0
  161.0240  204.1270  151.6450 C   0  0  0  0  0  2  0  0  0  0  0  0
  162.3310  207.4240  148.1270 C   0  0  2  0  0  3  0  0  0  0  0  0
  160.9130  206.4200  153.1120 C   0  0  1  0  0  3  0  0  0  0  0  0
  162.7090  206.1620  148.9070 C   0  0  0  0  0  2  0  0  0  0  0  0
  160.2350  207.4920  153.4700 C   0  0  0  0  0  2  0  0  0  0  0  0
  161.7980  205.3090  151.0440 C   0  0  1  0  0  3  0  0  0  0  0  0
  161.5260  208.4560  148.9300 C   0  0  2  0  0  3  0  0  0  0  0  0
  160.4570  208.5960  152.4770 C   0  0  1  0  0  3  0  0  0  0  0  0
  162.5960  209.9520  152.3560 C   0  0  0  0  0  1  0  0  0  0  0  0
  161.2520  209.7960  153.0780 C   0  0  1  0  0  0  0  0  0  0  0  0
  160.4070  211.0590  152.9800 C   0  0  0  0  0  0  0  0  0  0  0  0
  160.8330  212.0210  152.3550 O   0  0  0  0  0  0  0  0  0  0  0  0
  158.2290  211.9860  152.8590 O   0  0  0  0  0  1  0  0  0  0  0  0
  159.0590  211.1660  153.6260 C   0  0  0  0  0  2  0  0  0  0  0  0
  161.5180  209.5060  154.5700 C   0  0  0  0  0  2  0  0  0  0  0  0
  161.4350  211.4750  155.9230 O   0  0  0  0  0  1  0  0  0  0  0  0
  163.5340  210.7830  155.3190 O   0  0  0  0  0  0  0  0  0  0  0  0
  162.1530  210.6410  155.3140 C   0  0  0  0  0  0  0  0  0  0  0  0
  161.6300  207.0780  146.9690 O   0  0  0  0  0  0  0  0  0  0  0  0
  162.2330  205.9020  146.5180 C   0  0  0  0  0  2  0  0  0  0  0  0
  161.5910  205.4550  145.2140 C   0  0  0  0  0  2  0  0  0  0  0  0
  161.5800  203.3790  146.6050 C   0  0  0  0  0  1  0  0  0  0  0  0
  161.2780  203.9660  145.2400 C   0  0  0  0  0  2  0  0  0  0  0  0
  2 14  1  0  0  0  0
  3  4  1  1  0  0  0
  3  6  1  0  0  0  0
  3 15  1  0  0  0  0
  5 13  1  0  0  0  0
  6 10  1  0  0  0  0
  7  1  1  0  0  0  0
  8  7  1  0  0  0  0
  9 11  1  0  0  0  0
  9 14  1  0  0  0  0
 10 12  1  0  0  0  0
 10  1  1  0  0  0  0
 11  5  1  0  0  0  0
 13  8  1  0  0  0  0
 13  6  1  0  0  0  0
 14  4  1  0  0  0  0
 15 17  1  0  0  0  0
 15 12  1  0  0  0  0
 16 17  1  0  0  0  0
 17 22  1  0  0  0  0
 18 17  1  0  0  0  0
 18 21  1  0  0  0  0
 19 18  2  0  0  0  0
 20 21  1  0  0  0  0
 22 25  1  0  0  0  0
 25 24  2  0  0  0  0
 25 23  1  0  0  0  0
 26  9  1  0  0  0  0
 27 26  1  0  0  0  0
 28 30  1  0  0  0  0
 28 27  1  0  0  0  0
 30 29  1  0  0  0  0
M  END
>  <MODEL>
8

>  <REMARK>
 VINA RESULT:      -4.4      2.346      4.341
  Name = 
  9 active torsions:
  status: ('A' for Active; 'I' for Inactive)
    1  A    between atoms: C_3  and  C_29
    2  A    between atoms: C_3  and  C_30
    3  A    between atoms: C_5  and  C_6
    4  A    between atoms: C_5  and  C_8
    5  A    between atoms: C_6  and  O_15
    6  A    between atoms: O_15  and  C_16
    7  A    between atoms: C_17  and  C_19
    8  A    between atoms: C_19  and  C_30
    9  A    between atoms: C_26  and  C_30
                            x       y       z     vdW  Elec       q    Type
                         _______ _______ _______ _____ _____    ______ ____

>  <TORSDO>
F 9

$$$$
=
 OpenBabel11072411133D

 30 32  0  0  1  0  0  0  0  0999 V2000
  160.7420  201.3680  150.2600 O   0  0  0  0  0  0  0  0  0  0  0  0
  161.1930  207.7820  147.2470 O   0  0  0  0  0  1  0  0  0  0  0  0
  160.9280  204.8200  149.1960 C   0  0  1  0  0  3  0  0  0  0  0  0
  161.7920  205.9290  148.6130 C   0  0  0  0  0  2  0  0  0  0  0  0
  161.1130  203.4400  146.6060 C   0  0  0  0  0  2  0  0  0  0  0  0
  161.6010  203.4520  149.1600 C   0  0  1  0  0  3  0  0  0  0  0  0
  161.1900  200.6230  149.1810 N   0  0  0  0  0  2  0  0  0  0  0  0
  160.7870  201.3100  147.9480 C   0  0  0  0  0  2  0  0  0  0  0  0
  161.8570  205.8110  146.0620 C   0  0  2  0  0  3  0  0  0  0  0  0
  160.8920  202.7530  150.2570 C   0  0  1  0  0  3  0  0  0  0  0  0
  162.2660  204.3400  146.1860 C   0  0  0  0  0  2  0  0  0  0  0  0
  160.2860  203.5610  151.1040 C   0  0  0  0  0  2  0  0  0  0  0  0
  161.5380  202.6450  147.8340 C   0  0  1  0  0  3  0  0  0  0  0  0
  161.1660  206.3900  147.3050 C   0  0  2  0  0  3  0  0  0  0  0  0
  160.4470  204.9870  150.6610 C   0  0  1  0  0  3  0  0  0  0  0  0
  162.7490  205.2330  151.6950 C   0  0  0  0  0  1  0  0  0  0  0  0
  161.3350  205.8230  151.6330 C   0  0  1  0  0  0  0  0  0  0  0  0
  161.3480  207.2760  151.1770 C   0  0  0  0  0  0  0  0  0  0  0  0
  160.2910  207.8400  150.9320 O   0  0  0  0  0  0  0  0  0  0  0  0
  162.3380  209.3850  150.7390 O   0  0  0  0  0  1  0  0  0  0  0  0
  162.6240  208.0480  151.0190 C   0  0  0  0  0  2  0  0  0  0  0  0
  160.7070  205.7630  153.0410 C   0  0  0  0  0  2  0  0  0  0  0  0
  162.1960  206.7080  154.6550 O   0  0  0  0  0  1  0  0  0  0  0  0
  160.4140  208.0250  154.0660 O   0  0  0  0  0  0  0  0  0  0  0  0
  161.1550  206.8550  153.9630 C   0  0  0  0  0  0  0  0  0  0  0  0
  161.0370  205.9850  144.9450 O   0  0  0  0  0  0  0  0  0  0  0  0
  161.7770  205.4860  143.8710 C   0  0  0  0  0  2  0  0  0  0  0  0
  161.2810  206.0960  142.5680 C   0  0  0  0  0  2  0  0  0  0  0  0
  161.9860  207.0160  140.3540 C   0  0  0  0  0  1  0  0  0  0  0  0
  162.3940  206.1540  141.5330 C   0  0  0  0  0  2  0  0  0  0  0  0
  2 14  1  0  0  0  0
  3  4  1  1  0  0  0
  3 15  1  0  0  0  0
  5 13  1  0  0  0  0
  6  3  1  0  0  0  0
  6 10  1  0  0  0  0
  7  1  1  0  0  0  0
  8  7  1  0  0  0  0
  9 11  1  0  0  0  0
  9 14  1  0  0  0  0
 10  1  1  0  0  0  0
 10 12  1  0  0  0  0
 11  5  1  0  0  0  0
 13  8  1  0  0  0  0
 13  6  1  0  0  0  0
 14  4  1  0  0  0  0
 15 12  1  0  0  0  0
 15 17  1  0  0  0  0
 17 16  1  0  0  0  0
 17 22  1  0  0  0  0
 18 17  1  0  0  0  0
 19 18  2  0  0  0  0
 20 21  1  0  0  0  0
 21 18  1  0  0  0  0
 22 25  1  0  0  0  0
 25 24  2  0  0  0  0
 25 23  1  0  0  0  0
 26  9  1  0  0  0  0
 27 26  1  0  0  0  0
 28 27  1  0  0  0  0
 29 30  1  0  0  0  0
 30 28  1  0  0  0  0
M  END
>  <MODEL>
9

>  <REMARK>
 VINA RESULT:      -4.3      3.771      6.489
  Name = 
  9 active torsions:
  status: ('A' for Active; 'I' for Inactive)
    1  A    between atoms: C_3  and  C_29
    2  A    between atoms: C_3  and  C_30
    3  A    between atoms: C_5  and  C_6
    4  A    between atoms: C_5  and  C_8
    5  A    between atoms: C_6  and  O_15
    6  A    between atoms: O_15  and  C_16
    7  A    between atoms: C_17  and  C_19
    8  A    between atoms: C_19  and  C_30
    9  A    between atoms: C_26  and  C_30
                            x       y       z     vdW  Elec       q    Type
                         _______ _______ _______ _____ _____    ______ ____

>  <TORSDO>
F 9

$$$$
