=
 OpenBabel11072410223D

 33 34  0  0  1  0  0  0  0  0999 V2000
  161.1280  206.7000  153.7030 C   0  0  0  0  0  3  0  0  0  0  0  0
  161.2370  209.6130  154.5700 C   0  0  0  0  0  0  0  0  0  0  0  0
  161.1100  208.5400  155.2930 N   0  0  0  0  0  0  0  0  0  0  0  0
  161.8360  210.7620  155.1610 N   0  0  0  0  0  1  0  0  0  0  0  0
  160.4280  207.3270  154.8620 C   0  0  0  0  0  2  0  0  0  0  0  0
  160.8430  208.7030  152.2840 C   0  0  0  0  0  3  0  0  0  0  0  0
  161.3100  207.3270  152.5370 C   0  0  0  0  0  0  0  0  0  0  0  0
  160.7520  209.7030  153.1700 C   0  0  0  0  0  0  0  0  0  0  0  0
  161.8660  206.5760  151.3640 C   0  0  1  0  0  3  0  0  0  0  0  0
  162.9630  205.8050  151.7600 O   0  0  0  0  0  1  0  0  0  0  0  0
  160.8120  205.6960  150.6720 C   0  0  1  0  0  3  0  0  0  0  0  0
  160.2260  206.3770  149.4360 C   0  0  0  0  0  1  0  0  0  0  0  0
  160.7510  203.2250  151.2130 C   0  0  0  0  0  1  0  0  0  0  0  0
  161.3750  204.3040  150.3450 C   0  0  1  0  0  3  0  0  0  0  0  0
  161.2970  203.9460  148.8900 C   0  0  0  0  0  0  0  0  0  0  0  0
  160.6100  202.9510  148.5390 O   0  0  0  0  0  0  0  0  0  0  0  0
  162.0100  204.7140  147.9140 N   0  0  0  0  0  2  0  0  0  0  0  0
  161.9710  204.4110  146.4910 C   0  0  2  0  0  3  0  0  0  0  0  0
  163.3640  204.5410  145.9060 C   0  0  0  0  0  1  0  0  0  0  0  0
  161.0350  205.3380  145.7870 C   0  0  0  0  0  0  0  0  0  0  0  0
  160.7920  206.4700  146.2780 O   0  0  0  0  0  1  0  0  0  0  0  0
  160.4200  204.9530  144.6010 O   0  0  0  0  0  0  0  0  0  0  0  0
  160.2570  211.0220  152.6660 C   0  0  0  0  0  2  0  0  0  0  0  0
  158.8360  211.0790  152.7480 O   0  0  0  0  0  0  0  0  0  0  0  0
  156.7110  214.1450  154.6660 C   0  0  0  0  0  3  0  0  0  0  0  0
  157.7270  212.0010  154.7510 C   0  0  0  0  0  0  0  0  0  0  0  0
  157.0580  214.2840  153.3260 C   0  0  0  0  0  3  0  0  0  0  0  0
  158.1170  212.1000  153.3920 C   0  0  0  0  0  0  0  0  0  0  0  0
  157.7580  213.2680  152.6730 C   0  0  0  0  0  0  0  0  0  0  0  0
  157.0470  213.0180  155.3400 N   0  0  0  0  0  0  0  0  0  0  0  0
  157.9930  210.8270  155.5120 N   0  0  0  0  0  1  0  0  0  0  0  0
  158.0810  213.4860  151.3230 O   0  0  0  0  0  0  0  0  0  0  0  0
  157.1640  213.9030  150.3220 C   0  0  0  0  0  1  0  0  0  0  0  0
  1  5  1  0  0  0  0
  2  4  1  0  0  0  0
  2  3  2  0  0  0  0
  5  3  1  0  0  0  0
  6  7  1  0  0  0  0
  6  8  2  0  0  0  0
  7  1  2  0  0  0  0
  8  2  1  0  0  0  0
  9 10  1  1  0  0  0
  9  7  1  0  0  0  0
 11 12  1  6  0  0  0
 11  9  1  0  0  0  0
 14 11  1  0  0  0  0
 14 13  1  1  0  0  0
 15 14  1  0  0  0  0
 16 15  2  0  0  0  0
 17 15  1  0  0  0  0
 18 19  1  6  0  0  0
 18 17  1  0  0  0  0
 20 21  1  0  0  0  0
 20 18  1  0  0  0  0
 22 20  2  0  0  0  0
 23 24  1  0  0  0  0
 23  8  1  0  0  0  0
 24 28  1  0  0  0  0
 25 30  1  0  0  0  0
 26 30  2  0  0  0  0
 26 31  1  0  0  0  0
 27 25  2  0  0  0  0
 28 26  1  0  0  0  0
 29 27  1  0  0  0  0
 29 28  2  0  0  0  0
 32 29  1  0  0  0  0
 33 32  1  0  0  0  0
M  END
>  <MODEL>
1

>  <REMARK>
 VINA RESULT:      -7.8      0.000      0.000
  Name = 
  10 active torsions:
  status: ('A' for Active; 'I' for Inactive)
    1  A    between atoms: O_1  and  C_29
    2  A    between atoms: CA_5  and  C_11
    3  A    between atoms: CA_5  and  N_19
    4  A    between atoms: C_7  and  C_33
    5  A    between atoms: C_14  and  C_17
    6  A    between atoms: C_14  and  C_23
    7  A    between atoms: C_17  and  C_33
    8  A    between atoms: O_24  and  C_25
    9  A    between atoms: O_24  and  C_27
   10  A    between atoms: C_25  and  C_26
                            x       y       z     vdW  Elec       q    Type
                         _______ _______ _______ _____ _____    ______ ____

>  <TORSDO>
F 10

$$$$
=
 OpenBabel11072410223D

 33 34  0  0  1  0  0  0  0  0999 V2000
  161.1030  206.6940  153.7320 C   0  0  0  0  0  3  0  0  0  0  0  0
  161.3120  209.5860  154.6510 C   0  0  0  0  0  0  0  0  0  0  0  0
  161.1350  208.5060  155.3530 N   0  0  0  0  0  0  0  0  0  0  0  0
  161.9470  210.7000  155.2700 N   0  0  0  0  0  1  0  0  0  0  0  0
  160.4130  207.3270  154.8930 C   0  0  0  0  0  2  0  0  0  0  0  0
  160.9130  208.7300  152.3450 C   0  0  0  0  0  3  0  0  0  0  0  0
  161.3230  207.3340  152.5790 C   0  0  0  0  0  0  0  0  0  0  0  0
  160.8490  209.7180  153.2470 C   0  0  0  0  0  0  0  0  0  0  0  0
  161.8650  206.5820  151.4000 C   0  0  1  0  0  3  0  0  0  0  0  0
  162.9700  205.8150  151.7820 O   0  0  0  0  0  1  0  0  0  0  0  0
  160.8040  205.6980  150.7240 C   0  0  1  0  0  3  0  0  0  0  0  0
  160.1940  206.3780  149.4990 C   0  0  0  0  0  1  0  0  0  0  0  0
  160.7420  203.2220  151.2400 C   0  0  0  0  0  1  0  0  0  0  0  0
  161.3690  204.3100  150.3850 C   0  0  1  0  0  3  0  0  0  0  0  0
  161.2960  203.9660  148.9260 C   0  0  0  0  0  0  0  0  0  0  0  0
  160.6320  202.9580  148.5660 O   0  0  0  0  0  0  0  0  0  0  0  0
  161.9870  204.7620  147.9580 N   0  0  0  0  0  2  0  0  0  0  0  0
  161.9510  204.4740  146.5310 C   0  0  2  0  0  3  0  0  0  0  0  0
  163.3580  204.5270  145.9680 C   0  0  0  0  0  1  0  0  0  0  0  0
  161.0820  205.4610  145.8220 C   0  0  0  0  0  0  0  0  0  0  0  0
  160.7700  206.5390  146.3910 O   0  0  0  0  0  1  0  0  0  0  0  0
  160.6040  205.1890  144.5450 O   0  0  0  0  0  0  0  0  0  0  0  0
  160.4110  211.0640  152.7610 C   0  0  0  0  0  2  0  0  0  0  0  0
  158.9900  211.1180  152.6740 O   0  0  0  0  0  0  0  0  0  0  0  0
  156.6060  214.1460  154.3290 C   0  0  0  0  0  3  0  0  0  0  0  0
  157.7650  213.2500  152.4610 C   0  0  0  0  0  0  0  0  0  0  0  0
  157.0180  213.0830  155.1270 C   0  0  0  0  0  3  0  0  0  0  0  0
  158.1980  212.1390  153.2270 C   0  0  0  0  0  0  0  0  0  0  0  0
  157.8190  212.0730  154.5910 C   0  0  0  0  0  0  0  0  0  0  0  0
  156.9860  214.2070  153.0290 N   0  0  0  0  0  0  0  0  0  0  0  0
  158.1670  213.4140  151.1040 N   0  0  0  0  0  1  0  0  0  0  0  0
  158.1860  211.0290  155.4560 O   0  0  0  0  0  0  0  0  0  0  0  0
  158.6970  211.1990  156.7710 C   0  0  0  0  0  1  0  0  0  0  0  0
  1  5  1  0  0  0  0
  2  4  1  0  0  0  0
  2  3  2  0  0  0  0
  5  3  1  0  0  0  0
  6  7  1  0  0  0  0
  6  8  2  0  0  0  0
  7  1  2  0  0  0  0
  8  2  1  0  0  0  0
  9 10  1  1  0  0  0
  9  7  1  0  0  0  0
 11 12  1  6  0  0  0
 11  9  1  0  0  0  0
 14 11  1  0  0  0  0
 14 13  1  1  0  0  0
 15 14  1  0  0  0  0
 16 15  2  0  0  0  0
 17 15  1  0  0  0  0
 18 19  1  6  0  0  0
 18 17  1  0  0  0  0
 20 21  1  0  0  0  0
 20 18  1  0  0  0  0
 22 20  2  0  0  0  0
 23  8  1  0  0  0  0
 24 23  1  0  0  0  0
 24 28  1  0  0  0  0
 25 27  1  0  0  0  0
 26 30  1  0  0  0  0
 26 28  2  0  0  0  0
 28 29  1  0  0  0  0
 29 27  2  0  0  0  0
 29 32  1  0  0  0  0
 30 25  2  0  0  0  0
 31 26  1  0  0  0  0
 32 33  1  0  0  0  0
M  END
>  <MODEL>
2

>  <REMARK>
 VINA RESULT:      -7.8      1.122      1.941
  Name = 
  10 active torsions:
  status: ('A' for Active; 'I' for Inactive)
    1  A    between atoms: O_1  and  C_29
    2  A    between atoms: CA_5  and  C_11
    3  A    between atoms: CA_5  and  N_19
    4  A    between atoms: C_7  and  C_33
    5  A    between atoms: C_14  and  C_17
    6  A    between atoms: C_14  and  C_23
    7  A    between atoms: C_17  and  C_33
    8  A    between atoms: O_24  and  C_25
    9  A    between atoms: O_24  and  C_27
   10  A    between atoms: C_25  and  C_26
                            x       y       z     vdW  Elec       q    Type
                         _______ _______ _______ _____ _____    ______ ____

>  <TORSDO>
F 10

$$$$
=
 OpenBabel11072410223D

 33 34  0  0  1  0  0  0  0  0999 V2000
  161.0640  206.6580  153.8050 C   0  0  0  0  0  3  0  0  0  0  0  0
  161.5060  209.4370  154.9610 C   0  0  0  0  0  0  0  0  0  0  0  0
  161.2060  208.3270  155.5680 N   0  0  0  0  0  0  0  0  0  0  0  0
  162.2190  210.4340  155.6850 N   0  0  0  0  0  1  0  0  0  0  0  0
  160.3950  207.2620  154.9940 C   0  0  0  0  0  2  0  0  0  0  0  0
  161.1100  208.8060  152.5830 C   0  0  0  0  0  3  0  0  0  0  0  0
  161.3810  207.3620  152.7150 C   0  0  0  0  0  0  0  0  0  0  0  0
  161.1050  209.7220  153.5600 C   0  0  0  0  0  0  0  0  0  0  0  0
  161.8930  206.6570  151.4930 C   0  0  1  0  0  3  0  0  0  0  0  0
  163.0620  205.9540  151.7950 O   0  0  0  0  0  1  0  0  0  0  0  0
  160.8460  205.7190  150.8710 C   0  0  1  0  0  3  0  0  0  0  0  0
  160.1220  206.3750  149.6950 C   0  0  0  0  0  1  0  0  0  0  0  0
  160.9480  203.2350  151.3430 C   0  0  0  0  0  1  0  0  0  0  0  0
  161.4680  204.3700  150.4780 C   0  0  1  0  0  3  0  0  0  0  0  0
  161.3400  204.0460  149.0190 C   0  0  0  0  0  0  0  0  0  0  0  0
  160.6740  203.0350  148.6710 O   0  0  0  0  0  0  0  0  0  0  0  0
  161.9830  204.8630  148.0350 N   0  0  0  0  0  2  0  0  0  0  0  0
  161.8930  204.5950  146.6070 C   0  0  2  0  0  3  0  0  0  0  0  0
  163.2860  204.5490  146.0110 C   0  0  0  0  0  1  0  0  0  0  0  0
  161.0840  205.6520  145.9280 C   0  0  0  0  0  0  0  0  0  0  0  0
  160.5920  206.5910  146.6050 O   0  0  0  0  0  1  0  0  0  0  0  0
  160.8590  205.5950  144.5570 O   0  0  0  0  0  0  0  0  0  0  0  0
  160.8100  211.1360  153.1730 C   0  0  0  0  0  2  0  0  0  0  0  0
  160.1780  211.1760  151.8970 O   0  0  0  0  0  0  0  0  0  0  0  0
  161.0430  214.0130  148.9300 C   0  0  0  0  0  3  0  0  0  0  0  0
  159.7990  213.3800  150.8510 C   0  0  0  0  0  0  0  0  0  0  0  0
  161.7070  212.7900  148.9260 C   0  0  0  0  0  3  0  0  0  0  0  0
  160.4590  212.1260  150.9000 C   0  0  0  0  0  0  0  0  0  0  0  0
  161.4220  211.8340  149.9030 C   0  0  0  0  0  0  0  0  0  0  0  0
  160.1120  214.2760  149.8800 N   0  0  0  0  0  0  0  0  0  0  0  0
  158.7710  213.7110  151.7800 N   0  0  0  0  0  1  0  0  0  0  0  0
  162.1410  210.6290  149.8380 O   0  0  0  0  0  0  0  0  0  0  0  0
  161.9080  209.5880  148.8990 C   0  0  0  0  0  1  0  0  0  0  0  0
  1  5  1  0  0  0  0
  2  3  2  0  0  0  0
  2  4  1  0  0  0  0
  5  3  1  0  0  0  0
  6  7  1  0  0  0  0
  6  8  2  0  0  0  0
  7  1  2  0  0  0  0
  8  2  1  0  0  0  0
  9 10  1  1  0  0  0
  9  7  1  0  0  0  0
 11 12  1  6  0  0  0
 11  9  1  0  0  0  0
 14 11  1  0  0  0  0
 14 13  1  1  0  0  0
 15 14  1  0  0  0  0
 16 15  2  0  0  0  0
 17 15  1  0  0  0  0
 18 19  1  6  0  0  0
 18 17  1  0  0  0  0
 20 21  1  0  0  0  0
 20 18  1  0  0  0  0
 22 20  2  0  0  0  0
 23  8  1  0  0  0  0
 24 23  1  0  0  0  0
 25 30  1  0  0  0  0
 26 28  1  0  0  0  0
 26 31  1  0  0  0  0
 27 25  2  0  0  0  0
 27 29  1  0  0  0  0
 28 24  1  0  0  0  0
 29 28  2  0  0  0  0
 30 26  2  0  0  0  0
 32 29  1  0  0  0  0
 33 32  1  0  0  0  0
M  END
>  <MODEL>
3

>  <REMARK>
 VINA RESULT:      -7.4      2.157      2.968
  Name = 
  10 active torsions:
  status: ('A' for Active; 'I' for Inactive)
    1  A    between atoms: O_1  and  C_29
    2  A    between atoms: CA_5  and  C_11
    3  A    between atoms: CA_5  and  N_19
    4  A    between atoms: C_7  and  C_33
    5  A    between atoms: C_14  and  C_17
    6  A    between atoms: C_14  and  C_23
    7  A    between atoms: C_17  and  C_33
    8  A    between atoms: O_24  and  C_25
    9  A    between atoms: O_24  and  C_27
   10  A    between atoms: C_25  and  C_26
                            x       y       z     vdW  Elec       q    Type
                         _______ _______ _______ _____ _____    ______ ____

>  <TORSDO>
F 10

$$$$
=
 OpenBabel11072410223D

 33 34  0  0  1  0  0  0  0  0999 V2000
  161.9160  210.3450  150.7160 C   0  0  0  0  0  3  0  0  0  0  0  0
  162.1950  208.0200  148.7740 C   0  0  0  0  0  0  0  0  0  0  0  0
  162.3600  209.2940  148.5690 N   0  0  0  0  0  0  0  0  0  0  0  0
  162.9130  207.1030  147.9550 N   0  0  0  0  0  1  0  0  0  0  0  0
  161.6210  210.3460  149.2540 C   0  0  0  0  0  2  0  0  0  0  0  0
  161.0930  208.0330  151.0090 C   0  0  0  0  0  3  0  0  0  0  0  0
  161.6700  209.2950  151.5070 C   0  0  0  0  0  0  0  0  0  0  0  0
  161.2650  207.4840  149.8000 C   0  0  0  0  0  0  0  0  0  0  0  0
  161.8300  209.4260  152.9930 C   0  0  1  0  0  3  0  0  0  0  0  0
  162.6740  210.4980  153.2960 O   0  0  0  0  0  1  0  0  0  0  0  0
  160.4840  209.5780  153.7190 C   0  0  1  0  0  3  0  0  0  0  0  0
  160.3310  208.5620  154.8510 C   0  0  0  0  0  1  0  0  0  0  0  0
  160.0440  211.9810  153.0610 C   0  0  0  0  0  1  0  0  0  0  0  0
  160.2760  211.0180  154.2130 C   0  0  1  0  0  3  0  0  0  0  0  0
  159.2090  211.1530  155.2590 C   0  0  0  0  0  0  0  0  0  0  0  0
  159.5410  211.1830  156.4740 O   0  0  0  0  0  0  0  0  0  0  0  0
  157.8300  211.2270  154.8830 N   0  0  0  0  0  2  0  0  0  0  0  0
  156.7540  211.3580  155.8560 C   0  0  2  0  0  3  0  0  0  0  0  0
  155.5700  210.5190  155.4170 C   0  0  0  0  0  1  0  0  0  0  0  0
  156.3430  212.7870  155.9890 C   0  0  0  0  0  0  0  0  0  0  0  0
  155.2270  213.0710  156.4940 O   0  0  0  0  0  1  0  0  0  0  0  0
  157.1800  213.8060  155.5460 O   0  0  0  0  0  0  0  0  0  0  0  0
  160.5790  206.1820  149.5330 C   0  0  0  0  0  2  0  0  0  0  0  0
  161.4430  205.0950  149.8520 O   0  0  0  0  0  0  0  0  0  0  0  0
  160.5990  201.0830  148.9640 C   0  0  0  0  0  3  0  0  0  0  0  0
  160.8380  202.8130  150.5730 C   0  0  0  0  0  0  0  0  0  0  0  0
  160.9320  201.9590  147.9350 C   0  0  0  0  0  3  0  0  0  0  0  0
  161.1670  203.7480  149.5600 C   0  0  0  0  0  0  0  0  0  0  0  0
  161.2230  203.2950  148.2180 C   0  0  0  0  0  0  0  0  0  0  0  0
  160.5630  201.5240  150.2460 N   0  0  0  0  0  0  0  0  0  0  0  0
  160.8330  203.1850  151.9480 N   0  0  0  0  0  1  0  0  0  0  0  0
  161.5410  204.1190  147.1260 O   0  0  0  0  0  0  0  0  0  0  0  0
  161.5400  203.7090  145.7660 C   0  0  0  0  0  1  0  0  0  0  0  0
  1  7  2  0  0  0  0
  2  8  1  0  0  0  0
  3  2  2  0  0  0  0
  3  5  1  0  0  0  0
  4  2  1  0  0  0  0
  5  1  1  0  0  0  0
  6  7  1  0  0  0  0
  7  9  1  0  0  0  0
  8  6  2  0  0  0  0
  9 10  1  6  0  0  0
  9 11  1  0  0  0  0
 11 14  1  0  0  0  0
 11 12  1  1  0  0  0
 14 13  1  6  0  0  0
 14 15  1  0  0  0  0
 15 16  2  0  0  0  0
 17 15  1  0  0  0  0
 17 18  1  0  0  0  0
 18 19  1  6  0  0  0
 18 20  1  0  0  0  0
 20 21  1  0  0  0  0
 22 20  2  0  0  0  0
 23  8  1  0  0  0  0
 23 24  1  0  0  0  0
 25 30  1  0  0  0  0
 26 31  1  0  0  0  0
 27 29  1  0  0  0  0
 27 25  2  0  0  0  0
 28 24  1  0  0  0  0
 28 26  1  0  0  0  0
 29 28  2  0  0  0  0
 30 26  2  0  0  0  0
 32 29  1  0  0  0  0
 33 32  1  0  0  0  0
M  END
>  <MODEL>
4

>  <REMARK>
 VINA RESULT:      -6.7      2.630      9.657
  Name = 
  10 active torsions:
  status: ('A' for Active; 'I' for Inactive)
    1  A    between atoms: O_1  and  C_29
    2  A    between atoms: CA_5  and  C_11
    3  A    between atoms: CA_5  and  N_19
    4  A    between atoms: C_7  and  C_33
    5  A    between atoms: C_14  and  C_17
    6  A    between atoms: C_14  and  C_23
    7  A    between atoms: C_17  and  C_33
    8  A    between atoms: O_24  and  C_25
    9  A    between atoms: O_24  and  C_27
   10  A    between atoms: C_25  and  C_26
                            x       y       z     vdW  Elec       q    Type
                         _______ _______ _______ _____ _____    ______ ____

>  <TORSDO>
F 10

$$$$
=
 OpenBabel11072410223D

 33 34  0  0  1  0  0  0  0  0999 V2000
  161.3590  206.5040  153.4420 C   0  0  0  0  0  3  0  0  0  0  0  0
  161.1390  209.3380  154.5220 C   0  0  0  0  0  0  0  0  0  0  0  0
  160.9640  208.2040  155.1340 N   0  0  0  0  0  0  0  0  0  0  0  0
  161.5600  210.4640  155.2870 N   0  0  0  0  0  1  0  0  0  0  0  0
  160.4400  206.9980  154.5090 C   0  0  0  0  0  2  0  0  0  0  0  0
  161.1820  208.5990  152.1430 C   0  0  0  0  0  3  0  0  0  0  0  0
  161.6880  207.2320  152.3710 C   0  0  0  0  0  0  0  0  0  0  0  0
  160.8840  209.5180  153.0710 C   0  0  0  0  0  0  0  0  0  0  0  0
  162.4750  206.6090  151.2560 C   0  0  1  0  0  3  0  0  0  0  0  0
  163.4640  205.7690  151.7740 O   0  0  0  0  0  1  0  0  0  0  0  0
  161.5860  205.8440  150.2620 C   0  0  1  0  0  3  0  0  0  0  0  0
  160.2650  205.4100  150.8970 C   0  0  0  0  0  1  0  0  0  0  0  0
  162.0970  207.9850  149.0120 C   0  0  0  0  0  1  0  0  0  0  0  0
  161.3620  206.6550  148.9760 C   0  0  1  0  0  3  0  0  0  0  0  0
  161.6710  205.8970  147.7190 C   0  0  0  0  0  0  0  0  0  0  0  0
  162.3270  206.4640  146.8050 O   0  0  0  0  0  0  0  0  0  0  0  0
  161.2100  204.5520  147.5520 N   0  0  0  0  0  2  0  0  0  0  0  0
  161.4800  203.7700  146.3530 C   0  0  2  0  0  3  0  0  0  0  0  0
  160.7690  204.3950  145.1690 C   0  0  0  0  0  1  0  0  0  0  0  0
  161.0210  202.3600  146.5370 C   0  0  0  0  0  0  0  0  0  0  0  0
  160.4980  201.7440  145.5730 O   0  0  0  0  0  0  0  0  0  0  0  0
  161.1550  201.7300  147.7700 O   0  0  0  0  0  1  0  0  0  0  0  0
  160.3950  210.8460  152.5880 C   0  0  0  0  0  2  0  0  0  0  0  0
  158.9760  210.9150  152.6880 O   0  0  0  0  0  0  0  0  0  0  0  0
  156.8820  214.2110  154.2200 C   0  0  0  0  0  3  0  0  0  0  0  0
  157.8540  212.0710  154.5580 C   0  0  0  0  0  0  0  0  0  0  0  0
  157.2520  214.1950  152.8790 C   0  0  0  0  0  3  0  0  0  0  0  0
  158.2670  212.0130  153.2030 C   0  0  0  0  0  0  0  0  0  0  0  0
  157.9420  213.1010  152.3540 C   0  0  0  0  0  0  0  0  0  0  0  0
  157.1850  213.1590  155.0200 N   0  0  0  0  0  0  0  0  0  0  0  0
  158.0860  210.9830  155.4480 N   0  0  0  0  0  1  0  0  0  0  0  0
  158.2900  213.1640  150.9950 O   0  0  0  0  0  0  0  0  0  0  0  0
  159.5760  213.5020  150.4960 C   0  0  0  0  0  1  0  0  0  0  0  0
  1  5  1  0  0  0  0
  2  3  2  0  0  0  0
  2  4  1  0  0  0  0
  5  3  1  0  0  0  0
  6  7  1  0  0  0  0
  6  8  2  0  0  0  0
  7  1  2  0  0  0  0
  8  2  1  0  0  0  0
  9 10  1  1  0  0  0
  9  7  1  0  0  0  0
 11 12  1  1  0  0  0
 11  9  1  0  0  0  0
 14 13  1  1  0  0  0
 14 11  1  0  0  0  0
 15 14  1  0  0  0  0
 16 15  2  0  0  0  0
 17 15  1  0  0  0  0
 18 19  1  6  0  0  0
 18 20  1  0  0  0  0
 18 17  1  0  0  0  0
 20 22  1  0  0  0  0
 21 20  2  0  0  0  0
 23 24  1  0  0  0  0
 23  8  1  0  0  0  0
 24 28  1  0  0  0  0
 25 30  1  0  0  0  0
 26 30  2  0  0  0  0
 26 31  1  0  0  0  0
 27 25  2  0  0  0  0
 28 26  1  0  0  0  0
 29 27  1  0  0  0  0
 29 28  2  0  0  0  0
 32 29  1  0  0  0  0
 33 32  1  0  0  0  0
M  END
>  <MODEL>
5

>  <REMARK>
 VINA RESULT:      -6.5      1.185      2.026
  Name = 
  10 active torsions:
  status: ('A' for Active; 'I' for Inactive)
    1  A    between atoms: O_1  and  C_29
    2  A    between atoms: CA_5  and  C_11
    3  A    between atoms: CA_5  and  N_19
    4  A    between atoms: C_7  and  C_33
    5  A    between atoms: C_14  and  C_17
    6  A    between atoms: C_14  and  C_23
    7  A    between atoms: C_17  and  C_33
    8  A    between atoms: O_24  and  C_25
    9  A    between atoms: O_24  and  C_27
   10  A    between atoms: C_25  and  C_26
                            x       y       z     vdW  Elec       q    Type
                         _______ _______ _______ _____ _____    ______ ____

>  <TORSDO>
F 10

$$$$
=
 OpenBabel11072410223D

 33 34  0  0  1  0  0  0  0  0999 V2000
  160.5270  209.7310  154.6190 C   0  0  0  0  0  3  0  0  0  0  0  0
  161.1400  206.8560  153.8370 C   0  0  0  0  0  0  0  0  0  0  0  0
  161.2160  207.4300  155.0010 N   0  0  0  0  0  0  0  0  0  0  0  0
  160.8990  205.4530  153.7870 N   0  0  0  0  0  1  0  0  0  0  0  0
  161.5570  208.8300  155.2130 C   0  0  0  0  0  2  0  0  0  0  0  0
  160.8720  208.8320  152.3430 C   0  0  0  0  0  3  0  0  0  0  0  0
  160.2240  209.7290  153.3170 C   0  0  0  0  0  0  0  0  0  0  0  0
  161.3290  207.5920  152.5620 C   0  0  0  0  0  0  0  0  0  0  0  0
  159.3060  210.7780  152.7620 C   0  0  1  0  0  3  0  0  0  0  0  0
  158.4260  211.2230  153.7530 O   0  0  0  0  0  1  0  0  0  0  0  0
  160.0670  211.9630  152.1470 C   0  0  1  0  0  3  0  0  0  0  0  0
  161.1340  211.5010  151.1550 C   0  0  0  0  0  1  0  0  0  0  0  0
  158.6540  214.0300  152.5170 C   0  0  0  0  0  1  0  0  0  0  0  0
  159.1020  212.9790  151.5160 C   0  0  1  0  0  3  0  0  0  0  0  0
  159.6240  213.6110  150.2590 C   0  0  0  0  0  0  0  0  0  0  0  0
  160.5580  214.4530  150.3380 O   0  0  0  0  0  0  0  0  0  0  0  0
  159.0560  213.2760  148.9880 N   0  0  0  0  0  2  0  0  0  0  0  0
  159.5230  213.8590  147.7390 C   0  0  2  0  0  3  0  0  0  0  0  0
  158.3330  214.2360  146.8790 C   0  0  0  0  0  1  0  0  0  0  0  0
  160.3940  212.8910  147.0060 C   0  0  0  0  0  0  0  0  0  0  0  0
  161.3900  212.3860  147.5850 O   0  0  0  0  0  1  0  0  0  0  0  0
  160.1190  212.5570  145.6850 O   0  0  0  0  0  0  0  0  0  0  0  0
  161.9420  206.8720  151.4030 C   0  0  0  0  0  2  0  0  0  0  0  0
  160.9280  206.4290  150.5060 O   0  0  0  0  0  0  0  0  0  0  0  0
  161.5800  203.7250  147.3660 C   0  0  0  0  0  3  0  0  0  0  0  0
  161.5710  205.9590  148.1700 C   0  0  0  0  0  0  0  0  0  0  0  0
  161.1420  203.2530  148.6000 C   0  0  0  0  0  3  0  0  0  0  0  0
  161.1400  205.5270  149.4490 C   0  0  0  0  0  0  0  0  0  0  0  0
  160.9130  204.1430  149.6500 C   0  0  0  0  0  0  0  0  0  0  0  0
  161.7800  205.0530  147.1800 N   0  0  0  0  0  0  0  0  0  0  0  0
  161.7510  207.3420  147.8780 N   0  0  0  0  0  1  0  0  0  0  0  0
  160.4820  203.5890  150.8670 O   0  0  0  0  0  0  0  0  0  0  0  0
  161.2080  202.6410  151.6360 C   0  0  0  0  0  1  0  0  0  0  0  0
  1  5  1  0  0  0  0
  2  3  2  0  0  0  0
  3  5  1  0  0  0  0
  4  2  1  0  0  0  0
  6  8  2  0  0  0  0
  6  7  1  0  0  0  0
  7  1  2  0  0  0  0
  8  2  1  0  0  0  0
  9  7  1  0  0  0  0
  9 10  1  1  0  0  0
 11 12  1  6  0  0  0
 11  9  1  0  0  0  0
 14 11  1  0  0  0  0
 14 13  1  1  0  0  0
 15 16  2  0  0  0  0
 15 14  1  0  0  0  0
 17 15  1  0  0  0  0
 18 19  1  6  0  0  0
 18 17  1  0  0  0  0
 20 21  1  0  0  0  0
 20 18  1  0  0  0  0
 22 20  2  0  0  0  0
 23  8  1  0  0  0  0
 24 23  1  0  0  0  0
 25 27  1  0  0  0  0
 26 28  2  0  0  0  0
 27 29  2  0  0  0  0
 28 29  1  0  0  0  0
 28 24  1  0  0  0  0
 29 32  1  0  0  0  0
 30 25  2  0  0  0  0
 30 26  1  0  0  0  0
 31 26  1  0  0  0  0
 32 33  1  0  0  0  0
M  END
>  <MODEL>
6

>  <REMARK>
 VINA RESULT:      -6.3      2.608      8.280
  Name = 
  10 active torsions:
  status: ('A' for Active; 'I' for Inactive)
    1  A    between atoms: O_1  and  C_29
    2  A    between atoms: CA_5  and  C_11
    3  A    between atoms: CA_5  and  N_19
    4  A    between atoms: C_7  and  C_33
    5  A    between atoms: C_14  and  C_17
    6  A    between atoms: C_14  and  C_23
    7  A    between atoms: C_17  and  C_33
    8  A    between atoms: O_24  and  C_25
    9  A    between atoms: O_24  and  C_27
   10  A    between atoms: C_25  and  C_26
                            x       y       z     vdW  Elec       q    Type
                         _______ _______ _______ _____ _____    ______ ____

>  <TORSDO>
F 10

$$$$
=
 OpenBabel11072410223D

 33 34  0  0  1  0  0  0  0  0999 V2000
  161.9750  206.7220  153.2030 C   0  0  0  0  0  3  0  0  0  0  0  0
  160.6980  204.9510  151.0850 C   0  0  0  0  0  0  0  0  0  0  0  0
  161.3080  204.6170  152.1840 N   0  0  0  0  0  0  0  0  0  0  0  0
  159.7050  204.0710  150.5670 N   0  0  0  0  0  1  0  0  0  0  0  0
  162.4110  205.3600  152.7780 C   0  0  0  0  0  2  0  0  0  0  0  0
  161.3060  207.3610  150.9110 C   0  0  0  0  0  3  0  0  0  0  0  0
  161.4790  207.6250  152.3520 C   0  0  0  0  0  0  0  0  0  0  0  0
  161.0180  206.1880  150.3310 C   0  0  0  0  0  0  0  0  0  0  0  0
  161.2240  209.0280  152.8170 C   0  0  1  0  0  3  0  0  0  0  0  0
  159.9720  209.4640  152.3750 O   0  0  0  0  0  1  0  0  0  0  0  0
  161.3380  209.1750  154.3420 C   0  0  1  0  0  3  0  0  0  0  0  0
  161.9560  210.5150  154.7410 C   0  0  0  0  0  1  0  0  0  0  0  0
  160.0330  207.7800  156.0020 C   0  0  0  0  0  1  0  0  0  0  0  0
  159.9820  208.9450  155.0280 C   0  0  1  0  0  3  0  0  0  0  0  0
  159.4150  210.1730  155.6760 C   0  0  0  0  0  0  0  0  0  0  0  0
  159.7150  210.4300  156.8730 O   0  0  0  0  0  0  0  0  0  0  0  0
  158.5290  211.0330  154.9520 N   0  0  0  0  0  2  0  0  0  0  0  0
  157.9500  212.2370  155.5320 C   0  0  2  0  0  3  0  0  0  0  0  0
  156.5490  212.4370  154.9890 C   0  0  0  0  0  1  0  0  0  0  0  0
  158.7940  213.4270  155.2130 C   0  0  0  0  0  0  0  0  0  0  0  0
  158.6640  214.0040  154.1030 O   0  0  0  0  0  0  0  0  0  0  0  0
  159.7330  213.8910  156.1280 O   0  0  0  0  0  1  0  0  0  0  0  0
  160.8800  206.1760  148.8420 C   0  0  0  0  0  2  0  0  0  0  0  0
  161.7670  205.2170  148.2730 O   0  0  0  0  0  0  0  0  0  0  0  0
  160.7320  202.4870  145.2610 C   0  0  0  0  0  3  0  0  0  0  0  0
  161.2230  204.7150  145.9180 C   0  0  0  0  0  0  0  0  0  0  0  0
  160.8920  202.0390  146.5680 C   0  0  0  0  0  3  0  0  0  0  0  0
  161.4120  204.3070  147.2620 C   0  0  0  0  0  0  0  0  0  0  0  0
  161.2280  202.9390  147.5820 C   0  0  0  0  0  0  0  0  0  0  0  0
  160.8960  203.8010  144.9690 N   0  0  0  0  0  0  0  0  0  0  0  0
  161.3230  206.0850  145.5410 N   0  0  0  0  0  1  0  0  0  0  0  0
  161.3810  202.4090  148.8740 O   0  0  0  0  0  0  0  0  0  0  0  0
  161.1400  201.0560  149.2360 C   0  0  0  0  0  1  0  0  0  0  0  0
  2  3  2  0  0  0  0
  3  5  1  0  0  0  0
  4  2  1  0  0  0  0
  5  1  1  0  0  0  0
  6  7  1  0  0  0  0
  7  9  1  0  0  0  0
  7  1  2  0  0  0  0
  8  6  2  0  0  0  0
  8  2  1  0  0  0  0
  9 10  1  1  0  0  0
  9 11  1  0  0  0  0
 11 12  1  6  0  0  0
 11 14  1  0  0  0  0
 14 15  1  0  0  0  0
 14 13  1  1  0  0  0
 15 16  2  0  0  0  0
 17 18  1  0  0  0  0
 17 15  1  0  0  0  0
 18 19  1  6  0  0  0
 20 18  1  0  0  0  0
 20 22  1  0  0  0  0
 21 20  2  0  0  0  0
 23  8  1  0  0  0  0
 24 23  1  0  0  0  0
 25 27  1  0  0  0  0
 26 28  2  0  0  0  0
 27 29  2  0  0  0  0
 28 29  1  0  0  0  0
 28 24  1  0  0  0  0
 29 32  1  0  0  0  0
 30 25  2  0  0  0  0
 30 26  1  0  0  0  0
 31 26  1  0  0  0  0
 32 33  1  0  0  0  0
M  END
>  <MODEL>
7

>  <REMARK>
 VINA RESULT:      -6.2      2.201      9.747
  Name = 
  10 active torsions:
  status: ('A' for Active; 'I' for Inactive)
    1  A    between atoms: O_1  and  C_29
    2  A    between atoms: CA_5  and  C_11
    3  A    between atoms: CA_5  and  N_19
    4  A    between atoms: C_7  and  C_33
    5  A    between atoms: C_14  and  C_17
    6  A    between atoms: C_14  and  C_23
    7  A    between atoms: C_17  and  C_33
    8  A    between atoms: O_24  and  C_25
    9  A    between atoms: O_24  and  C_27
   10  A    between atoms: C_25  and  C_26
                            x       y       z     vdW  Elec       q    Type
                         _______ _______ _______ _____ _____    ______ ____

>  <TORSDO>
F 10

$$$$
=
 OpenBabel11072410223D

 33 34  0  0  1  0  0  0  0  0999 V2000
  161.1560  208.9520  152.3880 C   0  0  0  0  0  3  0  0  0  0  0  0
  161.9820  208.2580  149.5450 C   0  0  0  0  0  0  0  0  0  0  0  0
  161.9500  209.4150  150.1370 N   0  0  0  0  0  0  0  0  0  0  0  0
  162.9100  208.0660  148.4810 N   0  0  0  0  0  1  0  0  0  0  0  0
  160.9910  209.7920  151.1660 C   0  0  0  0  0  2  0  0  0  0  0  0
  160.7070  206.8540  151.1610 C   0  0  0  0  0  3  0  0  0  0  0  0
  161.0220  207.6230  152.3800 C   0  0  0  0  0  0  0  0  0  0  0  0
  161.0700  207.1430  149.9050 C   0  0  0  0  0  0  0  0  0  0  0  0
  161.0300  206.8630  153.6740 C   0  0  1  0  0  3  0  0  0  0  0  0
  161.9670  205.8280  153.6210 O   0  0  0  0  0  1  0  0  0  0  0  0
  161.2950  207.7680  154.8880 C   0  0  1  0  0  3  0  0  0  0  0  0
  161.8600  209.1260  154.4720 C   0  0  0  0  0  1  0  0  0  0  0  0
  160.0850  207.0020  156.9740 C   0  0  0  0  0  1  0  0  0  0  0  0
  160.0390  207.9150  155.7600 C   0  0  1  0  0  3  0  0  0  0  0  0
  159.7360  209.3310  156.1530 C   0  0  0  0  0  0  0  0  0  0  0  0
  160.2740  209.8080  157.1880 O   0  0  0  0  0  0  0  0  0  0  0  0
  158.8330  210.1230  155.3750 N   0  0  0  0  0  2  0  0  0  0  0  0
  158.5040  211.5010  155.7110 C   0  0  2  0  0  3  0  0  0  0  0  0
  156.9980  211.6540  155.8030 C   0  0  0  0  0  1  0  0  0  0  0  0
  159.0480  212.4330  154.6780 C   0  0  0  0  0  0  0  0  0  0  0  0
  158.5570  213.5850  154.5570 O   0  0  0  0  0  1  0  0  0  0  0  0
  160.0840  212.0310  153.8420 O   0  0  0  0  0  0  0  0  0  0  0  0
  160.6350  206.1980  148.8310 C   0  0  0  0  0  2  0  0  0  0  0  0
  161.5380  205.0990  148.7460 O   0  0  0  0  0  0  0  0  0  0  0  0
  160.8260  201.6410  146.4800 C   0  0  0  0  0  3  0  0  0  0  0  0
  160.9330  202.7110  148.5980 C   0  0  0  0  0  0  0  0  0  0  0  0
  161.2050  202.8170  145.8390 C   0  0  0  0  0  3  0  0  0  0  0  0
  161.3060  203.9360  147.9910 C   0  0  0  0  0  0  0  0  0  0  0  0
  161.4540  203.9720  146.5820 C   0  0  0  0  0  0  0  0  0  0  0  0
  160.7030  201.6140  147.8300 N   0  0  0  0  0  0  0  0  0  0  0  0
  160.8360  202.5850  150.0130 N   0  0  0  0  0  1  0  0  0  0  0  0
  161.8220  205.1210  145.8630 O   0  0  0  0  0  0  0  0  0  0  0  0
  161.3610  205.4530  144.5610 C   0  0  0  0  0  1  0  0  0  0  0  0
  2  8  1  0  0  0  0
  2  3  2  0  0  0  0
  3  5  1  0  0  0  0
  4  2  1  0  0  0  0
  5  1  1  0  0  0  0
  6  7  1  0  0  0  0
  7  1  2  0  0  0  0
  7  9  1  0  0  0  0
  8  6  2  0  0  0  0
  9 10  1  6  0  0  0
  9 11  1  0  0  0  0
 11 12  1  6  0  0  0
 11 14  1  0  0  0  0
 14 15  1  0  0  0  0
 14 13  1  1  0  0  0
 15 16  2  0  0  0  0
 17 18  1  0  0  0  0
 17 15  1  0  0  0  0
 18 19  1  6  0  0  0
 20 18  1  0  0  0  0
 21 20  1  0  0  0  0
 22 20  2  0  0  0  0
 23  8  1  0  0  0  0
 24 23  1  0  0  0  0
 25 30  1  0  0  0  0
 26 31  1  0  0  0  0
 27 25  2  0  0  0  0
 27 29  1  0  0  0  0
 28 26  1  0  0  0  0
 28 24  1  0  0  0  0
 29 28  2  0  0  0  0
 30 26  2  0  0  0  0
 32 29  1  0  0  0  0
 33 32  1  0  0  0  0
M  END
>  <MODEL>
8

>  <REMARK>
 VINA RESULT:      -6.0      2.199      9.229
  Name = 
  10 active torsions:
  status: ('A' for Active; 'I' for Inactive)
    1  A    between atoms: O_1  and  C_29
    2  A    between atoms: CA_5  and  C_11
    3  A    between atoms: CA_5  and  N_19
    4  A    between atoms: C_7  and  C_33
    5  A    between atoms: C_14  and  C_17
    6  A    between atoms: C_14  and  C_23
    7  A    between atoms: C_17  and  C_33
    8  A    between atoms: O_24  and  C_25
    9  A    between atoms: O_24  and  C_27
   10  A    between atoms: C_25  and  C_26
                            x       y       z     vdW  Elec       q    Type
                         _______ _______ _______ _____ _____    ______ ____

>  <TORSDO>
F 10

$$$$
=
 OpenBabel11072410223D

 33 34  0  0  1  0  0  0  0  0999 V2000
  162.1850  207.5310  152.4500 C   0  0  0  0  0  3  0  0  0  0  0  0
  160.8050  205.5090  150.6450 C   0  0  0  0  0  0  0  0  0  0  0  0
  161.3100  205.3480  151.8320 N   0  0  0  0  0  0  0  0  0  0  0  0
  159.7380  204.6570  150.2420 N   0  0  0  0  0  1  0  0  0  0  0  0
  162.4670  206.0700  152.3460 C   0  0  0  0  0  2  0  0  0  0  0  0
  161.7200  207.7440  150.0320 C   0  0  0  0  0  3  0  0  0  0  0  0
  161.8510  208.2850  151.3980 C   0  0  0  0  0  0  0  0  0  0  0  0
  161.3170  206.5160  149.6820 C   0  0  0  0  0  0  0  0  0  0  0  0
  161.7520  209.7740  151.5470 C   0  0  1  0  0  3  0  0  0  0  0  0
  161.9650  210.3980  150.3150 O   0  0  0  0  0  1  0  0  0  0  0  0
  160.4100  210.2190  152.1500 C   0  0  1  0  0  3  0  0  0  0  0  0
  159.8310  209.1620  153.0900 C   0  0  0  0  0  1  0  0  0  0  0  0
  159.4540  212.5510  152.3770 C   0  0  0  0  0  1  0  0  0  0  0  0
  160.5340  211.5870  152.8380 C   0  0  1  0  0  3  0  0  0  0  0  0
  160.5920  211.5100  154.3360 C   0  0  0  0  0  0  0  0  0  0  0  0
  159.6670  212.0330  155.0130 O   0  0  0  0  0  0  0  0  0  0  0  0
  161.6930  210.8680  154.9870 N   0  0  0  0  0  2  0  0  0  0  0  0
  161.8000  210.7650  156.4350 C   0  0  2  0  0  3  0  0  0  0  0  0
  163.2570  210.8620  156.8440 C   0  0  0  0  0  1  0  0  0  0  0  0
  161.2240  209.4710  156.9090 C   0  0  0  0  0  0  0  0  0  0  0  0
  159.9810  209.3660  157.0750 O   0  0  0  0  0  0  0  0  0  0  0  0
  162.0520  208.3880  157.1820 O   0  0  0  0  0  1  0  0  0  0  0  0
  161.2560  206.2040  148.2200 C   0  0  0  0  0  2  0  0  0  0  0  0
  161.9460  204.9880  147.9460 O   0  0  0  0  0  0  0  0  0  0  0  0
  160.5720  201.9860  145.3590 C   0  0  0  0  0  3  0  0  0  0  0  0
  161.2290  204.2410  145.7060 C   0  0  0  0  0  0  0  0  0  0  0  0
  160.7870  201.6900  146.7010 C   0  0  0  0  0  3  0  0  0  0  0  0
  161.4780  203.9870  147.0770 C   0  0  0  0  0  0  0  0  0  0  0  0
  161.2360  202.6820  147.5750 C   0  0  0  0  0  0  0  0  0  0  0  0
  160.7920  203.2410  144.8960 N   0  0  0  0  0  0  0  0  0  0  0  0
  161.3830  205.5460  145.1550 N   0  0  0  0  0  1  0  0  0  0  0  0
  161.4400  202.3040  148.9120 O   0  0  0  0  0  0  0  0  0  0  0  0
  160.7030  201.3020  149.5990 C   0  0  0  0  0  1  0  0  0  0  0  0
  2  3  2  0  0  0  0
  3  5  1  0  0  0  0
  4  2  1  0  0  0  0
  5  1  1  0  0  0  0
  6  7  1  0  0  0  0
  7  9  1  0  0  0  0
  7  1  2  0  0  0  0
  8  6  2  0  0  0  0
  8  2  1  0  0  0  0
  9 10  1  6  0  0  0
  9 11  1  0  0  0  0
 11 14  1  0  0  0  0
 11 12  1  1  0  0  0
 14 13  1  1  0  0  0
 14 15  1  0  0  0  0
 15 17  1  0  0  0  0
 15 16  2  0  0  0  0
 17 18  1  0  0  0  0
 18 19  1  6  0  0  0
 18 20  1  0  0  0  0
 20 21  2  0  0  0  0
 20 22  1  0  0  0  0
 23  8  1  0  0  0  0
 24 23  1  0  0  0  0
 25 27  1  0  0  0  0
 26 28  2  0  0  0  0
 27 29  2  0  0  0  0
 28 29  1  0  0  0  0
 28 24  1  0  0  0  0
 29 32  1  0  0  0  0
 30 25  2  0  0  0  0
 30 26  1  0  0  0  0
 31 26  1  0  0  0  0
 32 33  1  0  0  0  0
M  END
>  <MODEL>
9

>  <REMARK>
 VINA RESULT:      -6.0      2.536      9.716
  Name = 
  10 active torsions:
  status: ('A' for Active; 'I' for Inactive)
    1  A    between atoms: O_1  and  C_29
    2  A    between atoms: CA_5  and  C_11
    3  A    between atoms: CA_5  and  N_19
    4  A    between atoms: C_7  and  C_33
    5  A    between atoms: C_14  and  C_17
    6  A    between atoms: C_14  and  C_23
    7  A    between atoms: C_17  and  C_33
    8  A    between atoms: O_24  and  C_25
    9  A    between atoms: O_24  and  C_27
   10  A    between atoms: C_25  and  C_26
                            x       y       z     vdW  Elec       q    Type
                         _______ _______ _______ _____ _____    ______ ____

>  <TORSDO>
F 10

$$$$
