=
 OpenBabel11072414323D

 36 41  0  0  1  0  0  0  0  0999 V2000
  159.8090  205.9180  150.5810 S   0  0  0  0  0  0  0  0  0  0  0  0
  161.4860  207.6360  153.3960 C   0  0  0  0  0  3  0  0  0  0  0  0
  162.2020  207.5940  148.6540 C   0  0  0  0  0  0  0  0  0  0  0  0
  161.4500  207.3000  152.1170 C   0  0  0  0  0  0  0  0  0  0  0  0
  161.7810  205.1630  148.5320 C   0  0  0  0  0  2  0  0  0  0  0  0
  163.2160  208.1550  148.2380 O   0  0  0  0  0  0  0  0  0  0  0  0
  160.4950  204.7970  149.2820 C   0  0  1  0  0  3  0  0  0  0  0  0
  161.2220  207.0110  150.8840 C   0  0  0  0  0  0  0  0  0  0  0  0
  161.5890  208.1110  149.9170 C   0  0  0  0  0  2  0  0  0  0  0  0
  161.5460  206.4990  147.8500 C   0  0  2  0  0  3  0  0  0  0  0  0
  160.4410  210.1340  153.5470 S   0  0  0  0  0  0  0  0  0  0  0  0
  160.4450  208.4530  153.9540 N   0  0  0  0  0  0  0  0  0  0  0  0
  159.0330  210.6570  153.4590 O   0  0  0  0  0  0  0  0  0  0  0  0
  162.3940  209.2060  156.7710 C   0  0  0  0  0  1  0  0  0  0  0  0
  161.2180  210.4400  152.2890 O   0  0  0  0  0  0  0  0  0  0  0  0
  160.2790  208.4070  155.4030 C   0  0  0  0  0  2  0  0  0  0  0  0
  160.4120  210.8530  156.3070 C   0  0  2  0  0  3  0  0  0  0  0  0
  161.1270  209.5450  155.9990 C   0  0  1  0  0  0  0  0  0  0  0  0
  162.5150  211.2450  154.9030 O   0  0  0  0  0  1  0  0  0  0  0  0
  161.2120  210.7190  155.0130 C   0  0  1  0  0  0  0  0  0  0  0  0
  161.1220  211.6140  157.2420 O   0  0  0  0  0  1  0  0  0  0  0  0
  161.6820  201.6000  151.2400 C   0  0  0  0  0  2  0  0  0  0  0  0
  161.5750  199.9580  147.6570 Cl  0  0  0  0  0  0  0  0  0  0  0  0
  160.4530  203.3300  149.7100 C   0  0  1  0  0  3  0  0  0  0  0  0
  161.0950  201.0990  148.8990 C   0  0  0  0  0  0  0  0  0  0  0  0
  160.8690  202.3890  148.5910 C   0  0  0  0  0  3  0  0  0  0  0  0
  160.9650  200.6140  150.3180 C   0  0  0  0  0  2  0  0  0  0  0  0
  161.1900  203.0670  151.0550 C   0  0  0  0  0  2  0  0  0  0  0  0
  161.8040  206.4900  146.3150 C   0  0  0  0  0  2  0  0  0  0  0  0
  161.2360  204.6070  144.8920 C   0  0  2  0  0  0  0  0  0  0  0  0
  162.0630  204.8880  143.6560 C   0  0  0  0  0  2  0  0  0  0  0  0
  160.9360  205.8170  144.0520 C   0  0  2  0  0  3  0  0  0  0  0  0
  160.7370  205.8420  145.5180 N   0  0  0  0  0  0  0  0  0  0  0  0
  160.1260  203.5910  144.6390 C   0  0  0  0  0  2  0  0  0  0  0  0
  159.7760  201.2300  144.8650 O   0  0  0  0  0  0  0  0  0  0  0  0
  160.4360  202.2160  145.1960 C   0  0  0  0  0  3  0  0  0  0  0  0
  1  8  1  0  0  0  0
  2 12  1  0  0  0  0
  3  9  1  0  0  0  0
  4  2  2  0  0  0  0
  6  3  2  0  0  0  0
  7  5  1  1  0  0  0
  7 24  1  0  0  0  0
  7  1  1  0  0  0  0
  8  4  2  0  0  0  0
  9  8  1  0  0  0  0
 10 29  1  6  0  0  0
 10  5  1  0  0  0  0
 10  3  1  0  0  0  0
 11 12  1  0  0  0  0
 11 20  1  0  0  0  0
 12 16  1  0  0  0  0
 13 11  2  0  0  0  0
 15 11  2  0  0  0  0
 16 18  1  0  0  0  0
 17 21  1  1  0  0  0
 18 17  1  0  0  0  0
 18 14  1  1  0  0  0
 20 19  1  6  0  0  0
 20 18  1  0  0  0  0
 20 17  1  0  0  0  0
 23 25  1  0  0  0  0
 24 26  1  6  0  0  0
 24 28  1  0  0  0  0
 25 27  1  0  0  0  0
 26 25  2  0  0  0  0
 27 22  1  0  0  0  0
 28 22  1  0  0  0  0
 30 34  1  6  0  0  0
 30 33  1  0  0  0  0
 31 30  1  0  0  0  0
 32 31  1  1  0  0  0
 32 30  1  0  0  0  0
 32 33  1  0  0  0  0
 33 29  1  0  0  0  0
 34 36  1  0  0  0  0
 35 36  2  0  0  0  0
M  END
>  <MODEL>
1

>  <REMARK>
 VINA RESULT:      -5.5      0.000      0.000
  Name = 
  6 active torsions:
  status: ('A' for Active; 'I' for Inactive)
    1  A    between atoms: N_6  and  C_9
    2  A    between atoms: C_7  and  C_23
    3  A    between atoms: C_8  and  C_12
    4  A    between atoms: C_12  and  C_25
    5  A    between atoms: C_21  and  C_34
    6  A    between atoms: C_21  and  N_36
                            x       y       z     vdW  Elec       q    Type
                         _______ _______ _______ _____ _____    ______ ____

>  <TORSDO>
F 6

$$$$
=
 OpenBabel11072414323D

 36 41  0  0  1  0  0  0  0  0999 V2000
  162.3070  210.4280  150.8160 S   0  0  0  0  0  0  0  0  0  0  0  0
  159.5380  210.3730  153.2710 C   0  0  0  0  0  3  0  0  0  0  0  0
  161.3790  207.0950  150.2930 C   0  0  0  0  0  0  0  0  0  0  0  0
  160.2080  209.7970  152.2860 C   0  0  0  0  0  0  0  0  0  0  0  0
  161.6330  208.7620  148.4880 C   0  0  0  0  0  2  0  0  0  0  0  0
  160.7670  206.0310  150.1880 O   0  0  0  0  0  0  0  0  0  0  0  0
  162.3170  210.0290  149.0130 C   0  0  1  0  0  3  0  0  0  0  0  0
  161.0200  209.3030  151.4190 C   0  0  0  0  0  0  0  0  0  0  0  0
  161.2830  207.8270  151.5940 C   0  0  0  0  0  2  0  0  0  0  0  0
  162.2780  207.5750  149.1810 C   0  0  2  0  0  3  0  0  0  0  0  0
  159.3010  210.3790  155.9730 S   0  0  0  0  0  0  0  0  0  0  0  0
  160.1940  210.6540  154.5170 N   0  0  0  0  0  0  0  0  0  0  0  0
  160.2110  209.9150  157.0770 O   0  0  0  0  0  0  0  0  0  0  0  0
  159.0370  213.9640  154.5090 C   0  0  0  0  0  1  0  0  0  0  0  0
  158.1410  209.4300  155.7850 O   0  0  0  0  0  0  0  0  0  0  0  0
  160.7780  211.9830  154.6690 C   0  0  0  0  0  2  0  0  0  0  0  0
  159.7980  213.0500  156.8410 C   0  0  2  0  0  3  0  0  0  0  0  0
  159.7150  212.8780  155.3310 C   0  0  1  0  0  0  0  0  0  0  0  0
  157.4460  212.3580  156.1050 O   0  0  0  0  0  1  0  0  0  0  0  0
  158.8130  212.0440  156.2500 C   0  0  1  0  0  0  0  0  0  0  0  0
  159.1240  214.2020  157.2610 O   0  0  0  0  0  1  0  0  0  0  0  0
  162.6760  213.7820  147.8910 C   0  0  0  0  0  2  0  0  0  0  0  0
  158.7380  213.7100  148.0790 Cl  0  0  0  0  0  0  0  0  0  0  0  0
  162.0300  211.2590  148.1510 C   0  0  1  0  0  3  0  0  0  0  0  0
  160.3330  213.0150  147.8580 C   0  0  0  0  0  0  0  0  0  0  0  0
  160.6320  211.8110  148.3780 C   0  0  0  0  0  3  0  0  0  0  0  0
  161.3690  213.8020  147.1000 C   0  0  0  0  0  2  0  0  0  0  0  0
  163.1490  212.3370  148.2380 C   0  0  0  0  0  2  0  0  0  0  0  0
  162.8510  206.5000  148.2140 C   0  0  0  0  0  2  0  0  0  0  0  0
  162.3070  204.5430  146.8830 C   0  0  2  0  0  0  0  0  0  0  0  0
  163.3070  204.6450  145.7530 C   0  0  0  0  0  2  0  0  0  0  0  0
  162.2250  205.6910  145.9150 C   0  0  2  0  0  3  0  0  0  0  0  0
  161.8430  205.8660  147.3340 N   0  0  0  0  0  0  0  0  0  0  0  0
  161.1530  203.5970  146.5650 C   0  0  0  0  0  2  0  0  0  0  0  0
  160.6070  202.3510  148.5400 O   0  0  0  0  0  0  0  0  0  0  0  0
  161.1440  202.3530  147.4310 C   0  0  0  0  0  3  0  0  0  0  0  0
  1  8  1  0  0  0  0
  2 12  1  0  0  0  0
  3  9  1  0  0  0  0
  4  2  2  0  0  0  0
  5 10  1  0  0  0  0
  6  3  2  0  0  0  0
  7  5  1  1  0  0  0
  7  1  1  0  0  0  0
  8  9  1  0  0  0  0
  8  4  2  0  0  0  0
 10 29  1  6  0  0  0
 10  3  1  0  0  0  0
 11 20  1  0  0  0  0
 11 13  2  0  0  0  0
 12 16  1  0  0  0  0
 12 11  1  0  0  0  0
 15 11  2  0  0  0  0
 16 18  1  0  0  0  0
 17 21  1  6  0  0  0
 18 14  1  6  0  0  0
 18 20  1  0  0  0  0
 18 17  1  0  0  0  0
 20 19  1  1  0  0  0
 20 17  1  0  0  0  0
 22 28  1  0  0  0  0
 24 28  1  1  0  0  0
 24 26  1  0  0  0  0
 24  7  1  0  0  0  0
 25 23  1  0  0  0  0
 25 26  2  0  0  0  0
 27 25  1  0  0  0  0
 27 22  1  0  0  0  0
 30 34  1  6  0  0  0
 30 33  1  0  0  0  0
 31 30  1  0  0  0  0
 32 31  1  1  0  0  0
 32 30  1  0  0  0  0
 32 33  1  0  0  0  0
 33 29  1  0  0  0  0
 34 36  1  0  0  0  0
 36 35  2  0  0  0  0
M  END
>  <MODEL>
2

>  <REMARK>
 VINA RESULT:      -5.4      3.816      5.965
  Name = 
  6 active torsions:
  status: ('A' for Active; 'I' for Inactive)
    1  A    between atoms: N_6  and  C_9
    2  A    between atoms: C_7  and  C_23
    3  A    between atoms: C_8  and  C_12
    4  A    between atoms: C_12  and  C_25
    5  A    between atoms: C_21  and  C_34
    6  A    between atoms: C_21  and  N_36
                            x       y       z     vdW  Elec       q    Type
                         _______ _______ _______ _____ _____    ______ ____

>  <TORSDO>
F 6

$$$$
=
 OpenBabel11072414323D

 36 41  0  0  1  0  0  0  0  0999 V2000
  162.3980  207.2620  150.8660 S   0  0  0  0  0  0  0  0  0  0  0  0
  160.1100  209.4840  152.7410 C   0  0  0  0  0  3  0  0  0  0  0  0
  160.7980  204.7380  152.6880 C   0  0  0  0  0  0  0  0  0  0  0  0
  160.4900  208.2680  152.3860 C   0  0  0  0  0  0  0  0  0  0  0  0
  161.0540  204.7240  150.2310 C   0  0  0  0  0  2  0  0  0  0  0  0
  159.9920  204.0510  153.3170 O   0  0  0  0  0  0  0  0  0  0  0  0
  162.0370  205.8100  149.7820 C   0  0  1  0  0  3  0  0  0  0  0  0
  161.0430  207.1520  152.0650 C   0  0  0  0  0  0  0  0  0  0  0  0
  161.0550  206.1300  153.1750 C   0  0  0  0  0  2  0  0  0  0  0  0
  161.5750  204.1500  151.5370 C   0  0  2  0  0  3  0  0  0  0  0  0
  161.3090  209.9090  155.1370 S   0  0  0  0  0  0  0  0  0  0  0  0
  161.0020  210.3270  153.4870 N   0  0  0  0  0  0  0  0  0  0  0  0
  162.7200  210.2610  155.5220 O   0  0  0  0  0  0  0  0  0  0  0  0
  158.3570  212.3630  154.5630 C   0  0  0  0  0  1  0  0  0  0  0  0
  161.0020  208.4630  155.4470 O   0  0  0  0  0  0  0  0  0  0  0  0
  160.7000  211.7550  153.5020 C   0  0  0  0  0  2  0  0  0  0  0  0
  160.5450  212.5200  155.9930 C   0  0  2  0  0  3  0  0  0  0  0  0
  159.8310  212.0280  154.7430 C   0  0  1  0  0  0  0  0  0  0  0  0
  159.0410  210.5120  156.5040 O   0  0  0  0  0  1  0  0  0  0  0  0
  160.1820  211.0420  155.8660 C   0  0  1  0  0  0  0  0  0  0  0  0
  159.6610  213.1650  156.8650 O   0  0  0  0  0  1  0  0  0  0  0  0
  160.0590  206.2270  146.4080 C   0  0  0  0  0  2  0  0  0  0  0  0
  163.2370  204.4540  144.8890 Cl  0  0  0  0  0  0  0  0  0  0  0  0
  161.8440  206.2200  148.3220 C   0  0  1  0  0  3  0  0  0  0  0  0
  162.3680  205.4410  146.0490 C   0  0  0  0  0  0  0  0  0  0  0  0
  162.6270  205.3360  147.3650 C   0  0  0  0  0  3  0  0  0  0  0  0
  161.3110  206.3890  145.5470 C   0  0  0  0  0  2  0  0  0  0  0  0
  160.3470  206.3930  147.9310 C   0  0  0  0  0  2  0  0  0  0  0  0
  161.7730  202.6070  151.5270 C   0  0  0  0  0  2  0  0  0  0  0  0
  160.9170  202.2750  149.2780 C   0  0  2  0  0  0  0  0  0  0  0  0
  159.7760  201.3110  149.5170 C   0  0  0  0  0  2  0  0  0  0  0  0
  161.2050  200.8870  149.7790 C   0  0  2  0  0  3  0  0  0  0  0  0
  162.0480  202.0320  150.1890 N   0  0  0  0  0  0  0  0  0  0  0  0
  161.3470  202.3290  147.8160 C   0  0  0  0  0  2  0  0  0  0  0  0
  160.5180  201.7050  145.6540 O   0  0  0  0  0  0  0  0  0  0  0  0
  160.3300  201.7180  146.8710 C   0  0  0  0  0  3  0  0  0  0  0  0
  1  8  1  0  0  0  0
  2 12  1  0  0  0  0
  3  9  1  0  0  0  0
  3  6  2  0  0  0  0
  4  2  2  0  0  0  0
  5 10  1  0  0  0  0
  7  5  1  1  0  0  0
  7  1  1  0  0  0  0
  8  4  2  0  0  0  0
  8  9  1  0  0  0  0
 10 29  1  6  0  0  0
 10  3  1  0  0  0  0
 11 15  2  0  0  0  0
 11 13  2  0  0  0  0
 11 20  1  0  0  0  0
 12 16  1  0  0  0  0
 12 11  1  0  0  0  0
 16 18  1  0  0  0  0
 17 21  1  1  0  0  0
 18 14  1  6  0  0  0
 18 20  1  0  0  0  0
 18 17  1  0  0  0  0
 20 17  1  0  0  0  0
 20 19  1  1  0  0  0
 22 28  1  0  0  0  0
 23 25  1  0  0  0  0
 24 26  1  6  0  0  0
 24  7  1  0  0  0  0
 25 26  2  0  0  0  0
 27 25  1  0  0  0  0
 27 22  1  0  0  0  0
 28 24  1  0  0  0  0
 30 34  1  6  0  0  0
 30 31  1  0  0  0  0
 30 32  1  0  0  0  0
 30 33  1  0  0  0  0
 32 31  1  1  0  0  0
 32 33  1  0  0  0  0
 33 29  1  0  0  0  0
 35 36  2  0  0  0  0
 36 34  1  0  0  0  0
M  END
>  <MODEL>
3

>  <REMARK>
 VINA RESULT:      -4.7      2.543      4.410
  Name = 
  6 active torsions:
  status: ('A' for Active; 'I' for Inactive)
    1  A    between atoms: N_6  and  C_9
    2  A    between atoms: C_7  and  C_23
    3  A    between atoms: C_8  and  C_12
    4  A    between atoms: C_12  and  C_25
    5  A    between atoms: C_21  and  C_34
    6  A    between atoms: C_21  and  N_36
                            x       y       z     vdW  Elec       q    Type
                         _______ _______ _______ _____ _____    ______ ____

>  <TORSDO>
F 6

$$$$
=
 OpenBabel11072414323D

 36 41  0  0  1  0  0  0  0  0999 V2000
  162.2230  210.6660  151.0430 S   0  0  0  0  0  0  0  0  0  0  0  0
  159.3900  210.4560  153.4140 C   0  0  0  0  0  3  0  0  0  0  0  0
  161.2060  207.4350  150.1610 C   0  0  0  0  0  0  0  0  0  0  0  0
  160.0670  209.9610  152.3910 C   0  0  0  0  0  0  0  0  0  0  0  0
  161.5600  209.2670  148.5420 C   0  0  0  0  0  2  0  0  0  0  0  0
  160.5640  206.4090  149.9340 O   0  0  0  0  0  0  0  0  0  0  0  0
  162.2690  210.4510  149.2090 C   0  0  1  0  0  3  0  0  0  0  0  0
  160.8860  209.5290  151.4980 C   0  0  0  0  0  0  0  0  0  0  0  0
  161.0980  208.0350  151.5280 C   0  0  0  0  0  2  0  0  0  0  0  0
  162.1490  207.9950  149.1260 C   0  0  2  0  0  3  0  0  0  0  0  0
  161.7080  210.2260  154.8020 S   0  0  0  0  0  0  0  0  0  0  0  0
  160.0200  210.5870  154.6980 N   0  0  0  0  0  0  0  0  0  0  0  0
  162.3790  211.1090  155.8190 O   0  0  0  0  0  0  0  0  0  0  0  0
  159.3220  207.2460  155.5040 C   0  0  0  0  0  1  0  0  0  0  0  0
  162.4120  210.2950  153.4680 O   0  0  0  0  0  0  0  0  0  0  0  0
  159.4030  209.8700  155.8090 C   0  0  0  0  0  2  0  0  0  0  0  0
  161.2290  208.3620  156.9070 C   0  0  2  0  0  3  0  0  0  0  0  0
  160.0910  208.4960  155.9080 C   0  0  1  0  0  0  0  0  0  0  0  0
  161.9180  207.5270  154.5880 O   0  0  0  0  0  1  0  0  0  0  0  0
  161.5470  208.5940  155.4320 C   0  0  1  0  0  0  0  0  0  0  0  0
  161.4530  207.0240  157.2490 O   0  0  0  0  0  1  0  0  0  0  0  0
  160.7370  214.0310  148.6550 C   0  0  0  0  0  2  0  0  0  0  0  0
  159.8220  212.5620  145.1130 Cl  0  0  0  0  0  0  0  0  0  0  0  0
  162.0430  211.7710  148.4710 C   0  0  1  0  0  3  0  0  0  0  0  0
  160.7670  212.6950  146.5840 C   0  0  0  0  0  0  0  0  0  0  0  0
  161.2280  211.5930  147.2010 C   0  0  0  0  0  3  0  0  0  0  0  0
  161.0300  214.0630  147.1560 C   0  0  0  0  0  2  0  0  0  0  0  0
  161.5170  212.9050  149.3990 C   0  0  0  0  0  2  0  0  0  0  0  0
  162.7150  207.0050  148.0680 C   0  0  0  0  0  2  0  0  0  0  0  0
  162.1420  204.8190  147.1790 C   0  0  2  0  0  0  0  0  0  0  0  0
  163.1110  204.6870  146.0240 C   0  0  0  0  0  2  0  0  0  0  0  0
  162.0300  205.7460  146.0000 C   0  0  2  0  0  3  0  0  0  0  0  0
  161.6850  206.2060  147.3630 N   0  0  0  0  0  0  0  0  0  0  0  0
  160.9840  203.8300  147.0910 C   0  0  0  0  0  2  0  0  0  0  0  0
  161.1600  203.1320  149.3780 O   0  0  0  0  0  0  0  0  0  0  0  0
  160.9920  202.8000  148.2040 C   0  0  0  0  0  3  0  0  0  0  0  0
  1  8  1  0  0  0  0
  2 12  1  0  0  0  0
  3  9  1  0  0  0  0
  4  2  2  0  0  0  0
  5 10  1  0  0  0  0
  6  3  2  0  0  0  0
  7  5  1  6  0  0  0
  7  1  1  0  0  0  0
  8  9  1  0  0  0  0
  8  4  2  0  0  0  0
 10 29  1  6  0  0  0
 10  3  1  0  0  0  0
 11 20  1  0  0  0  0
 11 13  2  0  0  0  0
 12 11  1  0  0  0  0
 12 16  1  0  0  0  0
 15 11  2  0  0  0  0
 16 18  1  0  0  0  0
 17 21  1  6  0  0  0
 18 14  1  6  0  0  0
 18 17  1  0  0  0  0
 20 19  1  6  0  0  0
 20 18  1  0  0  0  0
 20 17  1  0  0  0  0
 22 28  1  0  0  0  0
 23 25  1  0  0  0  0
 24 26  1  6  0  0  0
 24  7  1  0  0  0  0
 24 28  1  0  0  0  0
 25 27  1  0  0  0  0
 25 26  2  0  0  0  0
 27 22  1  0  0  0  0
 30 34  1  1  0  0  0
 30 33  1  0  0  0  0
 31 30  1  0  0  0  0
 32 31  1  1  0  0  0
 32 30  1  0  0  0  0
 32 33  1  0  0  0  0
 33 29  1  0  0  0  0
 34 36  1  0  0  0  0
 36 35  2  0  0  0  0
M  END
>  <MODEL>
4

>  <REMARK>
 VINA RESULT:      -4.1      3.700      5.821
  Name = 
  6 active torsions:
  status: ('A' for Active; 'I' for Inactive)
    1  A    between atoms: N_6  and  C_9
    2  A    between atoms: C_7  and  C_23
    3  A    between atoms: C_8  and  C_12
    4  A    between atoms: C_12  and  C_25
    5  A    between atoms: C_21  and  C_34
    6  A    between atoms: C_21  and  N_36
                            x       y       z     vdW  Elec       q    Type
                         _______ _______ _______ _____ _____    ______ ____

>  <TORSDO>
F 6

$$$$
=
 OpenBabel11072414323D

 36 41  0  0  1  0  0  0  0  0999 V2000
  162.6480  207.7560  150.9140 S   0  0  0  0  0  0  0  0  0  0  0  0
  160.7450  205.2410  148.9790 C   0  0  0  0  0  3  0  0  0  0  0  0
  161.5650  209.9300  148.3940 C   0  0  0  0  0  0  0  0  0  0  0  0
  161.0810  206.5010  149.2020 C   0  0  0  0  0  0  0  0  0  0  0  0
  161.2850  210.3600  150.8100 C   0  0  0  0  0  2  0  0  0  0  0  0
  160.9380  210.4980  147.4990 O   0  0  0  0  0  0  0  0  0  0  0  0
  162.1100  209.3690  151.6370 C   0  0  1  0  0  3  0  0  0  0  0  0
  161.5880  207.6570  149.4460 C   0  0  0  0  0  0  0  0  0  0  0  0
  161.8740  208.4770  148.2120 C   0  0  0  0  0  2  0  0  0  0  0  0
  162.0950  210.7070  149.5730 C   0  0  2  0  0  3  0  0  0  0  0  0
  161.8740  203.8840  146.9200 S   0  0  0  0  0  0  0  0  0  0  0  0
  161.7480  204.2870  148.5970 N   0  0  0  0  0  0  0  0  0  0  0  0
  163.3040  203.6060  146.5440 O   0  0  0  0  0  0  0  0  0  0  0  0
  159.5180  201.6110  149.0050 C   0  0  0  0  0  1  0  0  0  0  0  0
  161.2640  204.9270  146.0130 O   0  0  0  0  0  0  0  0  0  0  0  0
  161.7420  203.0080  149.3000 C   0  0  0  0  0  2  0  0  0  0  0  0
  161.6110  201.1080  147.5150 C   0  0  2  0  0  3  0  0  0  0  0  0
  160.8810  202.0340  148.4750 C   0  0  1  0  0  0  0  0  0  0  0  0
  159.7060  202.3530  146.3450 O   0  0  0  0  0  1  0  0  0  0  0  0
  160.9630  202.3840  146.9830 C   0  0  1  0  0  0  0  0  0  0  0  0
  160.8310  199.9930  147.1890 O   0  0  0  0  0  1  0  0  0  0  0  0
  160.2440  207.5710  154.5960 C   0  0  0  0  0  2  0  0  0  0  0  0
  158.4500  211.0660  154.9450 Cl  0  0  0  0  0  0  0  0  0  0  0  0
  161.5930  209.2120  153.0670 C   0  0  1  0  0  3  0  0  0  0  0  0
  159.7660  209.9890  154.5190 C   0  0  0  0  0  0  0  0  0  0  0  0
  160.4600  210.1750  153.3810 C   0  0  0  0  0  3  0  0  0  0  0  0
  160.0890  208.8390  155.4350 C   0  0  0  0  0  2  0  0  0  0  0  0
  161.2790  207.7340  153.4420 C   0  0  0  0  0  2  0  0  0  0  0  0
  162.3380  212.2300  149.3700 C   0  0  0  0  0  2  0  0  0  0  0  0
  160.5340  213.3540  148.1950 C   0  0  2  0  0  0  0  0  0  0  0  0
  161.2740  214.4530  147.4640 C   0  0  0  0  0  2  0  0  0  0  0  0
  161.2120  214.4460  148.9760 C   0  0  2  0  0  3  0  0  0  0  0  0
  161.1250  213.0690  149.5130 N   0  0  0  0  0  0  0  0  0  0  0  0
  159.0320  213.6060  148.2710 C   0  0  0  0  0  2  0  0  0  0  0  0
  157.1980  212.4810  147.2120 O   0  0  0  0  0  0  0  0  0  0  0  0
  158.2740  213.0660  147.0750 C   0  0  0  0  0  3  0  0  0  0  0  0
  1  7  1  0  0  0  0
  2  4  2  0  0  0  0
  3 10  1  0  0  0  0
  4  8  2  0  0  0  0
  6  3  2  0  0  0  0
  7  5  1  6  0  0  0
  7 24  1  0  0  0  0
  8  1  1  0  0  0  0
  9  3  1  0  0  0  0
  9  8  1  0  0  0  0
 10 29  1  6  0  0  0
 10  5  1  0  0  0  0
 11 20  1  0  0  0  0
 11 12  1  0  0  0  0
 12  2  1  0  0  0  0
 12 16  1  0  0  0  0
 13 11  2  0  0  0  0
 15 11  2  0  0  0  0
 17 21  1  6  0  0  0
 17 18  1  0  0  0  0
 18 14  1  1  0  0  0
 18 16  1  0  0  0  0
 20 19  1  6  0  0  0
 20 17  1  0  0  0  0
 20 18  1  0  0  0  0
 22 27  1  0  0  0  0
 24 26  1  6  0  0  0
 24 28  1  0  0  0  0
 25 23  1  0  0  0  0
 25 27  1  0  0  0  0
 26 25  2  0  0  0  0
 28 22  1  0  0  0  0
 29 33  1  0  0  0  0
 30 34  1  6  0  0  0
 30 32  1  0  0  0  0
 30 33  1  0  0  0  0
 31 30  1  0  0  0  0
 32 31  1  6  0  0  0
 32 33  1  0  0  0  0
 36 35  2  0  0  0  0
 36 34  1  0  0  0  0
M  END
>  <MODEL>
5

>  <REMARK>
 VINA RESULT:      -3.7      4.242      8.923
  Name = 
  6 active torsions:
  status: ('A' for Active; 'I' for Inactive)
    1  A    between atoms: N_6  and  C_9
    2  A    between atoms: C_7  and  C_23
    3  A    between atoms: C_8  and  C_12
    4  A    between atoms: C_12  and  C_25
    5  A    between atoms: C_21  and  C_34
    6  A    between atoms: C_21  and  N_36
                            x       y       z     vdW  Elec       q    Type
                         _______ _______ _______ _____ _____    ______ ____

>  <TORSDO>
F 6

$$$$
=
 OpenBabel11072414323D

 36 41  0  0  1  0  0  0  0  0999 V2000
  162.7510  207.3510  150.6920 S   0  0  0  0  0  0  0  0  0  0  0  0
  160.7520  205.0370  148.6080 C   0  0  0  0  0  3  0  0  0  0  0  0
  161.5130  209.7710  148.4890 C   0  0  0  0  0  0  0  0  0  0  0  0
  161.0940  206.2700  148.9470 C   0  0  0  0  0  0  0  0  0  0  0  0
  161.3710  209.9350  150.9490 C   0  0  0  0  0  2  0  0  0  0  0  0
  160.8310  210.4260  147.6990 O   0  0  0  0  0  0  0  0  0  0  0  0
  162.2480  208.8690  151.6150 C   0  0  1  0  0  3  0  0  0  0  0  0
  161.6090  207.3990  149.2860 C   0  0  0  0  0  0  0  0  0  0  0  0
  161.8180  208.3500  148.1330 C   0  0  0  0  0  2  0  0  0  0  0  0
  162.1060  210.4230  149.7130 C   0  0  2  0  0  3  0  0  0  0  0  0
  161.6450  203.7740  146.3800 S   0  0  0  0  0  0  0  0  0  0  0  0
  161.7370  204.1420  148.0670 N   0  0  0  0  0  0  0  0  0  0  0  0
  163.0200  203.5750  145.8030 O   0  0  0  0  0  0  0  0  0  0  0  0
  159.7170  201.3500  148.7200 C   0  0  0  0  0  1  0  0  0  0  0  0
  160.8650  204.7990  145.5920 O   0  0  0  0  0  0  0  0  0  0  0  0
  161.8910  202.8530  148.7350 C   0  0  0  0  0  2  0  0  0  0  0  0
  161.6020  200.9780  146.9410 C   0  0  2  0  0  3  0  0  0  0  0  0
  160.9700  201.8500  148.0150 C   0  0  1  0  0  0  0  0  0  0  0  0
  159.4940  202.1440  146.0780 O   0  0  0  0  0  1  0  0  0  0  0  0
  160.8250  202.2280  146.5350 C   0  0  1  0  0  0  0  0  0  0  0  0
  160.8390  199.8300  146.7020 O   0  0  0  0  0  1  0  0  0  0  0  0
  160.4370  206.8200  154.4420 C   0  0  0  0  0  2  0  0  0  0  0  0
  158.9750  210.3560  155.3960 Cl  0  0  0  0  0  0  0  0  0  0  0  0
  161.8160  208.5530  153.0470 C   0  0  1  0  0  3  0  0  0  0  0  0
  160.1630  209.2540  154.7280 C   0  0  0  0  0  0  0  0  0  0  0  0
  160.7930  209.5450  153.5760 C   0  0  0  0  0  3  0  0  0  0  0  0
  160.4470  207.9660  155.4540 C   0  0  0  0  0  2  0  0  0  0  0  0
  161.4030  207.0650  153.2430 C   0  0  0  0  0  2  0  0  0  0  0  0
  162.3290  211.9610  149.6640 C   0  0  0  0  0  2  0  0  0  0  0  0
  162.4850  213.1710  147.5640 C   0  0  2  0  0  0  0  0  0  0  0  0
  163.1650  214.4530  147.9920 C   0  0  0  0  0  2  0  0  0  0  0  0
  161.7770  214.1190  148.4920 C   0  0  2  0  0  3  0  0  0  0  0  0
  161.5710  212.6570  148.5970 N   0  0  0  0  0  0  0  0  0  0  0  0
  161.8150  213.2870  146.1980 C   0  0  0  0  0  2  0  0  0  0  0  0
  162.7220  212.8920  144.0140 O   0  0  0  0  0  0  0  0  0  0  0  0
  162.7990  213.5230  145.0690 C   0  0  0  0  0  3  0  0  0  0  0  0
  1  7  1  0  0  0  0
  2  4  2  0  0  0  0
  3 10  1  0  0  0  0
  4  8  2  0  0  0  0
  6  3  2  0  0  0  0
  7  5  1  6  0  0  0
  7 24  1  0  0  0  0
  8  1  1  0  0  0  0
  9  3  1  0  0  0  0
  9  8  1  0  0  0  0
 10 29  1  6  0  0  0
 10  5  1  0  0  0  0
 11 20  1  0  0  0  0
 11 12  1  0  0  0  0
 12  2  1  0  0  0  0
 12 16  1  0  0  0  0
 13 11  2  0  0  0  0
 15 11  2  0  0  0  0
 17 21  1  6  0  0  0
 17 18  1  0  0  0  0
 18 14  1  1  0  0  0
 18 16  1  0  0  0  0
 20 19  1  6  0  0  0
 20 17  1  0  0  0  0
 20 18  1  0  0  0  0
 22 27  1  0  0  0  0
 24 28  1  6  0  0  0
 24 26  1  0  0  0  0
 25 23  1  0  0  0  0
 25 27  1  0  0  0  0
 26 25  2  0  0  0  0
 28 22  1  0  0  0  0
 30 34  1  6  0  0  0
 30 31  1  0  0  0  0
 30 32  1  0  0  0  0
 30 33  1  0  0  0  0
 32 31  1  1  0  0  0
 32 33  1  0  0  0  0
 33 29  1  0  0  0  0
 35 36  2  0  0  0  0
 36 34  1  0  0  0  0
M  END
>  <MODEL>
6

>  <REMARK>
 VINA RESULT:      -3.6      4.154      8.936
  Name = 
  6 active torsions:
  status: ('A' for Active; 'I' for Inactive)
    1  A    between atoms: N_6  and  C_9
    2  A    between atoms: C_7  and  C_23
    3  A    between atoms: C_8  and  C_12
    4  A    between atoms: C_12  and  C_25
    5  A    between atoms: C_21  and  C_34
    6  A    between atoms: C_21  and  N_36
                            x       y       z     vdW  Elec       q    Type
                         _______ _______ _______ _____ _____    ______ ____

>  <TORSDO>
F 6

$$$$
=
 OpenBabel11072414323D

 36 41  0  0  1  0  0  0  0  0999 V2000
  160.2910  213.6330  148.7870 S   0  0  0  0  0  0  0  0  0  0  0  0
  158.9830  212.5930  145.4870 C   0  0  0  0  0  3  0  0  0  0  0  0
  156.9010  213.7800  149.6410 C   0  0  0  0  0  0  0  0  0  0  0  0
  158.7810  212.8600  146.7670 C   0  0  0  0  0  0  0  0  0  0  0  0
  158.6040  212.5470  150.9370 C   0  0  0  0  0  2  0  0  0  0  0  0
  155.6850  213.6020  149.7260 O   0  0  0  0  0  0  0  0  0  0  0  0
  160.0150  212.9150  150.4660 C   0  0  1  0  0  3  0  0  0  0  0  0
  158.7080  213.2700  147.9840 C   0  0  0  0  0  0  0  0  0  0  0  0
  157.4670  214.0740  148.2880 C   0  0  0  0  0  2  0  0  0  0  0  0
  157.7610  213.8090  150.8800 C   0  0  2  0  0  3  0  0  0  0  0  0
  159.9000  213.1600  142.9980 S   0  0  0  0  0  0  0  0  0  0  0  0
  159.4520  213.6230  144.6030 N   0  0  0  0  0  0  0  0  0  0  0  0
  159.5790  214.2560  142.0180 O   0  0  0  0  0  0  0  0  0  0  0  0
  162.7760  213.1220  145.6050 C   0  0  0  0  0  1  0  0  0  0  0  0
  159.2900  211.8470  142.5690 O   0  0  0  0  0  0  0  0  0  0  0  0
  160.5520  214.4530  145.0850 C   0  0  0  0  0  2  0  0  0  0  0  0
  162.4700  214.3560  143.3160 C   0  0  2  0  0  3  0  0  0  0  0  0
  161.8620  213.8070  144.5980 C   0  0  1  0  0  0  0  0  0  0  0  0
  162.2440  211.8080  143.2270 O   0  0  0  0  0  1  0  0  0  0  0  0
  161.6340  213.0790  143.2670 C   0  0  1  0  0  0  0  0  0  0  0  0
  163.8320  214.0500  143.2260 O   0  0  0  0  0  1  0  0  0  0  0  0
  162.0600  209.5980  149.9290 C   0  0  0  0  0  2  0  0  0  0  0  0
  160.9310  208.8730  153.6370 Cl  0  0  0  0  0  0  0  0  0  0  0  0
  161.0540  211.8470  150.8110 C   0  0  1  0  0  3  0  0  0  0  0  0
  161.3500  209.8910  152.2720 C   0  0  0  0  0  0  0  0  0  0  0  0
  160.6420  211.0030  152.0060 C   0  0  0  0  0  3  0  0  0  0  0  0
  162.4990  209.4830  151.3880 C   0  0  0  0  0  2  0  0  0  0  0  0
  161.4980  211.0090  149.5770 C   0  0  0  0  0  2  0  0  0  0  0  0
  157.0650  214.1780  152.2210 C   0  0  0  0  0  2  0  0  0  0  0  0
  156.3520  212.8480  154.1230 C   0  0  2  0  0  0  0  0  0  0  0  0
  155.7210  213.8930  155.0170 C   0  0  0  0  0  2  0  0  0  0  0  0
  157.2050  213.9310  154.7220 C   0  0  2  0  0  3  0  0  0  0  0  0
  157.5100  213.3760  153.3850 N   0  0  0  0  0  0  0  0  0  0  0  0
  156.6730  211.5540  154.8650 C   0  0  0  0  0  2  0  0  0  0  0  0
  158.7530  210.6260  155.6130 O   0  0  0  0  0  0  0  0  0  0  0  0
  158.1060  211.0970  154.6770 C   0  0  0  0  0  3  0  0  0  0  0  0
  1  7  1  0  0  0  0
  2  4  2  0  0  0  0
  3  6  2  0  0  0  0
  3 10  1  0  0  0  0
  4  8  2  0  0  0  0
  7 24  1  0  0  0  0
  7  5  1  6  0  0  0
  8  9  1  0  0  0  0
  8  1  1  0  0  0  0
  9  3  1  0  0  0  0
 10  5  1  0  0  0  0
 10 29  1  1  0  0  0
 11 20  1  0  0  0  0
 11 12  1  0  0  0  0
 12 16  1  0  0  0  0
 12  2  1  0  0  0  0
 13 11  2  0  0  0  0
 15 11  2  0  0  0  0
 17 21  1  1  0  0  0
 17 18  1  0  0  0  0
 18 16  1  0  0  0  0
 18 14  1  1  0  0  0
 20 19  1  6  0  0  0
 20 17  1  0  0  0  0
 20 18  1  0  0  0  0
 22 27  1  0  0  0  0
 24 28  1  6  0  0  0
 24 26  1  0  0  0  0
 25 23  1  0  0  0  0
 26 25  2  0  0  0  0
 27 25  1  0  0  0  0
 28 22  1  0  0  0  0
 29 33  1  0  0  0  0
 30 32  1  0  0  0  0
 30 34  1  1  0  0  0
 30 31  1  0  0  0  0
 32 31  1  6  0  0  0
 33 30  1  0  0  0  0
 33 32  1  0  0  0  0
 36 34  1  0  0  0  0
 36 35  2  0  0  0  0
M  END
>  <MODEL>
7

>  <REMARK>
 VINA RESULT:      -3.5      6.326     10.921
  Name = 
  6 active torsions:
  status: ('A' for Active; 'I' for Inactive)
    1  A    between atoms: N_6  and  C_9
    2  A    between atoms: C_7  and  C_23
    3  A    between atoms: C_8  and  C_12
    4  A    between atoms: C_12  and  C_25
    5  A    between atoms: C_21  and  C_34
    6  A    between atoms: C_21  and  N_36
                            x       y       z     vdW  Elec       q    Type
                         _______ _______ _______ _____ _____    ______ ____

>  <TORSDO>
F 6

$$$$
=
 OpenBabel11072414323D

 36 41  0  0  1  0  0  0  0  0999 V2000
  160.6890  208.9530  150.7550 S   0  0  0  0  0  0  0  0  0  0  0  0
  162.5710  210.2620  153.6590 C   0  0  0  0  0  3  0  0  0  0  0  0
  161.9330  211.8100  149.1640 C   0  0  0  0  0  0  0  0  0  0  0  0
  162.2710  210.3110  152.3710 C   0  0  0  0  0  0  0  0  0  0  0  0
  162.1430  209.5200  148.2620 C   0  0  0  0  0  2  0  0  0  0  0  0
  162.6120  212.7740  148.8050 O   0  0  0  0  0  0  0  0  0  0  0  0
  161.2550  208.5460  149.0440 C   0  0  1  0  0  3  0  0  0  0  0  0
  161.7950  210.3250  151.1760 C   0  0  0  0  0  0  0  0  0  0  0  0
  161.5820  211.7100  150.6150 C   0  0  0  0  0  2  0  0  0  0  0  0
  161.3900  210.8340  148.1510 C   0  0  2  0  0  3  0  0  0  0  0  0
  161.9980  210.3530  156.3080 S   0  0  0  0  0  0  0  0  0  0  0  0
  161.5500  210.4860  154.6430 N   0  0  0  0  0  0  0  0  0  0  0  0
  161.2180  211.3270  157.1490 O   0  0  0  0  0  0  0  0  0  0  0  0
  160.6770  207.0900  154.6740 C   0  0  0  0  0  1  0  0  0  0  0  0
  163.4840  210.5030  156.5350 O   0  0  0  0  0  0  0  0  0  0  0  0
  160.3250  209.7040  154.5100 C   0  0  0  0  0  2  0  0  0  0  0  0
  159.9150  208.4610  156.7690 C   0  0  2  0  0  3  0  0  0  0  0  0
  160.4960  208.4340  155.3640 C   0  0  1  0  0  0  0  0  0  0  0  0
  162.3600  207.7040  156.7840 O   0  0  0  0  0  1  0  0  0  0  0  0
  161.4060  208.7200  156.5670 C   0  0  1  0  0  0  0  0  0  0  0  0
  159.7070  207.1680  157.2610 O   0  0  0  0  0  1  0  0  0  0  0  0
  161.5250  205.0000  147.3640 C   0  0  0  0  0  2  0  0  0  0  0  0
  160.4560  203.7550  150.9500 Cl  0  0  0  0  0  0  0  0  0  0  0  0
  161.7160  207.0940  148.9230 C   0  0  1  0  0  3  0  0  0  0  0  0
  161.1930  204.8580  149.8030 C   0  0  0  0  0  0  0  0  0  0  0  0
  161.0520  206.1880  149.9460 C   0  0  0  0  0  3  0  0  0  0  0  0
  161.9660  204.2880  148.6430 C   0  0  0  0  0  2  0  0  0  0  0  0
  161.6420  206.5510  147.4660 C   0  0  0  0  0  2  0  0  0  0  0  0
  161.2060  211.3480  146.6940 C   0  0  0  0  0  2  0  0  0  0  0  0
  159.6160  212.6670  145.4180 C   0  0  2  0  0  0  0  0  0  0  0  0
  160.3680  212.9000  144.1260 C   0  0  0  0  0  2  0  0  0  0  0  0
  160.8710  213.4940  145.4240 C   0  0  2  0  0  3  0  0  0  0  0  0
  160.5120  212.6520  146.5870 N   0  0  0  0  0  0  0  0  0  0  0  0
  158.4400  213.6230  145.5970 C   0  0  0  0  0  2  0  0  0  0  0  0
  157.3980  212.2030  147.2240 O   0  0  0  0  0  0  0  0  0  0  0  0
  157.2480  212.9830  146.2830 C   0  0  0  0  0  3  0  0  0  0  0  0
  1  8  1  0  0  0  0
  2 12  1  0  0  0  0
  3  9  1  0  0  0  0
  4  2  2  0  0  0  0
  6  3  2  0  0  0  0
  7  5  1  1  0  0  0
  7  1  1  0  0  0  0
  8  4  2  0  0  0  0
  9  8  1  0  0  0  0
 10 29  1  6  0  0  0
 10  5  1  0  0  0  0
 10  3  1  0  0  0  0
 11 15  2  0  0  0  0
 11 20  1  0  0  0  0
 11 13  2  0  0  0  0
 12 11  1  0  0  0  0
 16 12  1  0  0  0  0
 16 18  1  0  0  0  0
 17 21  1  1  0  0  0
 18 14  1  6  0  0  0
 18 20  1  0  0  0  0
 18 17  1  0  0  0  0
 20 17  1  0  0  0  0
 20 19  1  1  0  0  0
 22 28  1  0  0  0  0
 22 27  1  0  0  0  0
 24 28  1  6  0  0  0
 24  7  1  0  0  0  0
 24 26  1  0  0  0  0
 25 26  2  0  0  0  0
 25 23  1  0  0  0  0
 27 25  1  0  0  0  0
 30 32  1  0  0  0  0
 30 34  1  1  0  0  0
 30 33  1  0  0  0  0
 31 30  1  0  0  0  0
 32 31  1  6  0  0  0
 32 33  1  0  0  0  0
 33 29  1  0  0  0  0
 34 36  1  0  0  0  0
 36 35  2  0  0  0  0
M  END
>  <MODEL>
8

>  <REMARK>
 VINA RESULT:      -3.2      3.911      5.387
  Name = 
  6 active torsions:
  status: ('A' for Active; 'I' for Inactive)
    1  A    between atoms: N_6  and  C_9
    2  A    between atoms: C_7  and  C_23
    3  A    between atoms: C_8  and  C_12
    4  A    between atoms: C_12  and  C_25
    5  A    between atoms: C_21  and  C_34
    6  A    between atoms: C_21  and  N_36
                            x       y       z     vdW  Elec       q    Type
                         _______ _______ _______ _____ _____    ______ ____

>  <TORSDO>
F 6

$$$$
=
 OpenBabel11072414323D

 36 41  0  0  1  0  0  0  0  0999 V2000
  159.6430  209.7590  152.0360 S   0  0  0  0  0  0  0  0  0  0  0  0
  161.7170  207.0410  150.6200 C   0  0  0  0  0  3  0  0  0  0  0  0
  161.1730  208.8210  155.0410 C   0  0  0  0  0  0  0  0  0  0  0  0
  161.4000  207.8320  151.6330 C   0  0  0  0  0  0  0  0  0  0  0  0
  161.1040  211.1370  154.1850 C   0  0  0  0  0  2  0  0  0  0  0  0
  161.9490  208.4120  155.9060 O   0  0  0  0  0  0  0  0  0  0  0  0
  160.1270  211.2520  153.0100 C   0  0  1  0  0  3  0  0  0  0  0  0
  160.9050  208.5700  152.5630 C   0  0  0  0  0  0  0  0  0  0  0  0
  160.8400  207.8970  153.9120 C   0  0  0  0  0  2  0  0  0  0  0  0
  160.5030  210.1650  155.1840 C   0  0  2  0  0  3  0  0  0  0  0  0
  161.1910  204.4520  150.0070 S   0  0  0  0  0  0  0  0  0  0  0  0
  160.7460  206.1210  150.0960 N   0  0  0  0  0  0  0  0  0  0  0  0
  159.9970  203.5690  150.2500 O   0  0  0  0  0  0  0  0  0  0  0  0
  161.9420  206.5490  146.8270 C   0  0  0  0  0  1  0  0  0  0  0  0
  162.3330  204.0940  150.9280 O   0  0  0  0  0  0  0  0  0  0  0  0
  160.1760  206.4390  148.7910 C   0  0  0  0  0  2  0  0  0  0  0  0
  160.5380  204.3760  147.2310 C   0  0  2  0  0  3  0  0  0  0  0  0
  161.0340  205.7250  147.7300 C   0  0  1  0  0  0  0  0  0  0  0  0
  162.9840  204.2560  147.9760 O   0  0  0  0  0  1  0  0  0  0  0  0
  161.6230  204.4300  148.3040 C   0  0  1  0  0  0  0  0  0  0  0  0
  161.0960  204.0550  145.9900 O   0  0  0  0  0  1  0  0  0  0  0  0
  159.2320  214.4370  150.8820 C   0  0  0  0  0  2  0  0  0  0  0  0
  161.3420  212.5840  148.1140 Cl  0  0  0  0  0  0  0  0  0  0  0  0
  160.4180  212.4530  152.1100 C   0  0  1  0  0  3  0  0  0  0  0  0
  160.8820  212.9910  149.7560 C   0  0  0  0  0  0  0  0  0  0  0  0
  160.8210  212.0400  150.7040 C   0  0  0  0  0  3  0  0  0  0  0  0
  160.5310  214.4200  150.0780 C   0  0  0  0  0  2  0  0  0  0  0  0
  159.2930  213.5290  152.1470 C   0  0  0  0  0  2  0  0  0  0  0  0
  160.3510  210.7350  156.6240 C   0  0  0  0  0  2  0  0  0  0  0  0
  158.2910  211.8330  155.9550 C   0  0  2  0  0  0  0  0  0  0  0  0
  158.6910  213.2920  155.9820 C   0  0  0  0  0  2  0  0  0  0  0  0
  158.6570  212.4830  157.2610 C   0  0  2  0  0  3  0  0  0  0  0  0
  158.9580  211.0560  157.0130 N   0  0  0  0  0  0  0  0  0  0  0  0
  156.7780  211.6370  155.9540 C   0  0  0  0  0  2  0  0  0  0  0  0
  155.2340  210.3540  154.6430 O   0  0  0  0  0  0  0  0  0  0  0  0
  156.2530  211.0450  154.6600 C   0  0  0  0  0  3  0  0  0  0  0  0
  1  8  1  0  0  0  0
  1  7  1  0  0  0  0
  2  4  2  0  0  0  0
  3 10  1  0  0  0  0
  3  6  2  0  0  0  0
  4  8  2  0  0  0  0
  5 10  1  0  0  0  0
  7  5  1  6  0  0  0
  8  9  1  0  0  0  0
  9  3  1  0  0  0  0
 10 29  1  1  0  0  0
 11 12  1  0  0  0  0
 11 13  2  0  0  0  0
 11 15  2  0  0  0  0
 12  2  1  0  0  0  0
 16 12  1  0  0  0  0
 17 21  1  6  0  0  0
 17 18  1  0  0  0  0
 17 20  1  0  0  0  0
 18 14  1  6  0  0  0
 18 20  1  0  0  0  0
 18 16  1  0  0  0  0
 20 19  1  6  0  0  0
 20 11  1  0  0  0  0
 22 28  1  0  0  0  0
 23 25  1  0  0  0  0
 24 26  1  6  0  0  0
 24 28  1  0  0  0  0
 24  7  1  0  0  0  0
 25 27  1  0  0  0  0
 25 26  2  0  0  0  0
 27 22  1  0  0  0  0
 29 33  1  0  0  0  0
 30 34  1  6  0  0  0
 30 31  1  0  0  0  0
 30 33  1  0  0  0  0
 30 32  1  0  0  0  0
 32 31  1  6  0  0  0
 33 32  1  0  0  0  0
 35 36  2  0  0  0  0
 36 34  1  0  0  0  0
M  END
>  <MODEL>
9

>  <REMARK>
 VINA RESULT:      -3.1      3.867     10.171
  Name = 
  6 active torsions:
  status: ('A' for Active; 'I' for Inactive)
    1  A    between atoms: N_6  and  C_9
    2  A    between atoms: C_7  and  C_23
    3  A    between atoms: C_8  and  C_12
    4  A    between atoms: C_12  and  C_25
    5  A    between atoms: C_21  and  C_34
    6  A    between atoms: C_21  and  N_36
                            x       y       z     vdW  Elec       q    Type
                         _______ _______ _______ _____ _____    ______ ____

>  <TORSDO>
F 6

$$$$
