=
 OpenBabel11072411283D

 35 38  0  0  1  0  0  0  0  0999 V2000
  160.1720  213.6260  150.2790 C   0  0  1  0  0  3  0  0  0  0  0  0
  161.3140  213.6230  149.2490 C   0  0  0  0  0  2  0  0  0  0  0  0
  161.0070  209.8500  153.0380 C   0  0  0  0  0  1  0  0  0  0  0  0
  161.0220  211.3380  150.9350 C   0  0  0  0  0  0  0  0  0  0  0  0
  161.2910  210.1620  151.6090 C   0  0  0  0  0  0  0  0  0  0  0  0
  158.8420  213.3550  149.5820 C   0  0  0  0  0  1  0  0  0  0  0  0
  160.4660  212.6440  151.4400 C   0  0  2  0  0  3  0  0  0  0  0  0
  161.9270  209.3450  150.6900 C   0  0  0  0  0  0  0  0  0  0  0  0
  161.5590  211.1790  149.6780 C   0  0  0  0  0  0  0  0  0  0  0  0
  161.5280  212.2360  148.6180 C   0  0  0  0  0  2  0  0  0  0  0  0
  162.0730  209.9790  149.5450 O   0  0  0  0  0  0  0  0  0  0  0  0
  158.3440  211.7340  152.0430 O   0  0  0  0  0  0  0  0  0  0  0  0
  159.3060  212.4750  152.3790 C   0  0  0  0  0  0  0  0  0  0  0  0
  159.3070  213.1300  153.6510 N   0  0  0  0  0  2  0  0  0  0  0  0
  157.9170  214.4300  155.1840 C   0  0  0  0  0  2  0  0  0  0  0  0
  158.4840  211.9970  155.6120 C   0  0  0  0  0  3  0  0  0  0  0  0
  158.1930  213.0470  154.5820 C   0  0  2  0  0  3  0  0  0  0  0  0
  156.1740  212.0430  156.4740 C   0  0  0  0  0  0  0  0  0  0  0  0
  155.2230  211.2630  156.7460 O   0  0  0  0  0  0  0  0  0  0  0  0
  157.5470  211.5160  156.4330 C   0  0  0  0  0  3  0  0  0  0  0  0
  155.9030  213.4310  156.2470 N   0  0  0  0  0  2  0  0  0  0  0  0
  156.9460  214.4420  156.3670 C   0  0  0  0  0  2  0  0  0  0  0  0
  162.3760  207.9350  150.9260 C   0  0  0  0  0  2  0  0  0  0  0  0
  161.0950  205.5480  152.2760 C   0  0  0  0  0  1  0  0  0  0  0  0
  161.4890  206.9070  150.2130 C   0  0  1  0  0  3  0  0  0  0  0  0
  160.7860  204.4640  150.0390 C   0  0  2  0  0  3  0  0  0  0  0  0
  161.1280  204.5070  148.5520 C   0  0  0  0  0  2  0  0  0  0  0  0
  161.7910  206.8940  148.7130 C   0  0  0  0  0  2  0  0  0  0  0  0
  160.8890  205.9020  147.9950 C   0  0  0  0  0  2  0  0  0  0  0  0
  161.5950  205.5030  150.8380 C   0  0  2  0  0  3  0  0  0  0  0  0
  161.5220  202.9050  151.7000 O   0  0  0  0  0  0  0  0  0  0  0  0
  161.0090  203.0750  150.5610 C   0  0  0  0  0  0  0  0  0  0  0  0
  159.3030  201.6730  149.4420 O   0  0  0  0  0  1  0  0  0  0  0  0
  160.6380  201.9100  149.7480 C   0  0  0  0  0  0  0  0  0  0  0  0
  161.5220  201.1220  149.3220 O   0  0  0  0  0  0  0  0  0  0  0  0
  1  6  1  6  0  0  0
  1  7  1  0  0  0  0
  2  1  1  0  0  0  0
  4  7  1  0  0  0  0
  4  5  1  0  0  0  0
  5  3  1  0  0  0  0
  7 13  1  6  0  0  0
  8 23  1  0  0  0  0
  8  5  2  0  0  0  0
  9  4  2  0  0  0  0
 10  2  1  0  0  0  0
 10  9  1  0  0  0  0
 11  9  1  0  0  0  0
 11  8  1  0  0  0  0
 12 13  2  0  0  0  0
 13 14  1  0  0  0  0
 15 22  1  0  0  0  0
 16 20  2  0  0  0  0
 17 14  1  6  0  0  0
 17 15  1  0  0  0  0
 17 16  1  0  0  0  0
 18 19  2  0  0  0  0
 20 18  1  0  0  0  0
 21 22  1  0  0  0  0
 21 18  1  0  0  0  0
 25 30  1  0  0  0  0
 25 23  1  1  0  0  0
 26 32  1  1  0  0  0
 26 30  1  0  0  0  0
 27 26  1  0  0  0  0
 28 25  1  0  0  0  0
 29 27  1  0  0  0  0
 29 28  1  0  0  0  0
 30 24  1  1  0  0  0
 32 31  2  0  0  0  0
 33 34  1  0  0  0  0
 34 32  1  0  0  0  0
 35 34  2  0  0  0  0
M  END
>  <MODEL>
1

>  <REMARK>
 VINA RESULT:      -7.5      0.000      0.000
  Name = 
  6 active torsions:
  status: ('A' for Active; 'I' for Inactive)
    1  A    between atoms: C_3  and  C_8
    2  A    between atoms: C_3  and  C_11
    3  A    between atoms: C_7  and  C_27
    4  A    between atoms: C_18  and  C_31
    5  A    between atoms: C_19  and  N_32
    6  A    between atoms: C_22  and  C_27
                            x       y       z     vdW  Elec       q    Type
                         _______ _______ _______ _____ _____    ______ ____

>  <TORSDO>
F 6

$$$$
=
 OpenBabel11072411283D

 35 38  0  0  1  0  0  0  0  0999 V2000
  161.3000  204.1690  151.6210 C   0  0  1  0  0  3  0  0  0  0  0  0
  161.5630  204.2520  153.1350 C   0  0  0  0  0  2  0  0  0  0  0  0
  161.9810  208.5900  150.0220 C   0  0  0  0  0  1  0  0  0  0  0  0
  161.4000  206.6940  151.6660 C   0  0  0  0  0  0  0  0  0  0  0  0
  161.5140  208.0270  151.3210 C   0  0  0  0  0  0  0  0  0  0  0  0
  159.8300  203.8480  151.3660 C   0  0  0  0  0  1  0  0  0  0  0  0
  161.7810  205.4540  150.9010 C   0  0  2  0  0  3  0  0  0  0  0  0
  161.1520  208.7380  152.4520 C   0  0  0  0  0  0  0  0  0  0  0  0
  161.0300  206.6830  152.9920 C   0  0  0  0  0  0  0  0  0  0  0  0
  160.8280  205.4340  153.7910 C   0  0  0  0  0  2  0  0  0  0  0  0
  160.8670  207.9080  153.4350 O   0  0  0  0  0  0  0  0  0  0  0  0
  160.5000  206.3140  149.0820 O   0  0  0  0  0  0  0  0  0  0  0  0
  161.3880  205.5010  149.4530 C   0  0  0  0  0  0  0  0  0  0  0  0
  162.0330  204.6490  148.5030 N   0  0  0  0  0  2  0  0  0  0  0  0
  161.1170  203.2230  146.7420 C   0  0  0  0  0  2  0  0  0  0  0  0
  162.8400  205.0190  146.2620 C   0  0  0  0  0  3  0  0  0  0  0  0
  161.6620  204.6110  147.0970 C   0  0  2  0  0  3  0  0  0  0  0  0
  161.4700  205.2010  144.2190 C   0  0  0  0  0  0  0  0  0  0  0  0
  161.2250  206.0070  143.2830 O   0  0  0  0  0  0  0  0  0  0  0  0
  162.7310  205.3300  144.9680 C   0  0  0  0  0  3  0  0  0  0  0  0
  160.5360  204.1560  144.5110 N   0  0  0  0  0  2  0  0  0  0  0  0
  160.9310  202.9600  145.2450 C   0  0  0  0  0  2  0  0  0  0  0  0
  161.0640  210.2280  152.5670 C   0  0  0  0  0  2  0  0  0  0  0  0
  158.2950  211.4130  152.8790 C   0  0  0  0  0  1  0  0  0  0  0  0
  160.4590  210.6820  153.9010 C   0  0  1  0  0  3  0  0  0  0  0  0
  158.9670  212.3690  155.0940 C   0  0  2  0  0  3  0  0  0  0  0  0
  160.1200  212.6590  156.0520 C   0  0  0  0  0  2  0  0  0  0  0  0
  161.5670  210.9990  154.9070 C   0  0  0  0  0  2  0  0  0  0  0  0
  160.9730  211.4150  156.2430 C   0  0  0  0  0  2  0  0  0  0  0  0
  159.4750  211.8560  153.7330 C   0  0  2  0  0  3  0  0  0  0  0  0
  158.4180  214.4530  154.0510 O   0  0  0  0  0  0  0  0  0  0  0  0
  158.1290  213.6030  154.9370 C   0  0  0  0  0  0  0  0  0  0  0  0
  155.7130  213.3880  155.4350 O   0  0  0  0  0  0  0  0  0  0  0  0
  156.9750  213.8320  155.8150 C   0  0  0  0  0  0  0  0  0  0  0  0
  157.1170  214.4260  156.9150 O   0  0  0  0  0  1  0  0  0  0  0  0
  1  6  1  1  0  0  0
  1  2  1  0  0  0  0
  2 10  1  0  0  0  0
  3  5  1  0  0  0  0
  4  9  2  0  0  0  0
  5  4  1  0  0  0  0
  5  8  2  0  0  0  0
  7 13  1  6  0  0  0
  7  1  1  0  0  0  0
  7  4  1  0  0  0  0
  8 23  1  0  0  0  0
  8 11  1  0  0  0  0
  9 11  1  0  0  0  0
  9 10  1  0  0  0  0
 12 13  2  0  0  0  0
 14 13  1  0  0  0  0
 15 17  1  0  0  0  0
 16 17  1  0  0  0  0
 17 14  1  1  0  0  0
 18 21  1  0  0  0  0
 18 20  1  0  0  0  0
 19 18  2  0  0  0  0
 20 16  2  0  0  0  0
 21 22  1  0  0  0  0
 22 15  1  0  0  0  0
 25 23  1  6  0  0  0
 25 28  1  0  0  0  0
 26 32  1  6  0  0  0
 26 27  1  0  0  0  0
 27 29  1  0  0  0  0
 28 29  1  0  0  0  0
 30 24  1  6  0  0  0
 30 25  1  0  0  0  0
 30 26  1  0  0  0  0
 31 32  2  0  0  0  0
 32 34  1  0  0  0  0
 33 34  2  0  0  0  0
 34 35  1  0  0  0  0
M  END
>  <MODEL>
2

>  <REMARK>
 VINA RESULT:      -7.3      3.818     10.460
  Name = 
  6 active torsions:
  status: ('A' for Active; 'I' for Inactive)
    1  A    between atoms: C_3  and  C_8
    2  A    between atoms: C_3  and  C_11
    3  A    between atoms: C_7  and  C_27
    4  A    between atoms: C_18  and  C_31
    5  A    between atoms: C_19  and  N_32
    6  A    between atoms: C_22  and  C_27
                            x       y       z     vdW  Elec       q    Type
                         _______ _______ _______ _____ _____    ______ ____

>  <TORSDO>
F 6

$$$$
=
 OpenBabel11072411283D

 35 38  0  0  1  0  0  0  0  0999 V2000
  160.0930  214.1000  149.7670 C   0  0  1  0  0  3  0  0  0  0  0  0
  161.3120  214.1110  148.8280 C   0  0  0  0  0  2  0  0  0  0  0  0
  160.8160  210.4030  152.6610 C   0  0  0  0  0  1  0  0  0  0  0  0
  160.9540  211.8510  150.5350 C   0  0  0  0  0  0  0  0  0  0  0  0
  161.2020  210.6960  151.2520 C   0  0  0  0  0  0  0  0  0  0  0  0
  158.8300  213.7770  148.9750 C   0  0  0  0  0  1  0  0  0  0  0  0
  160.3230  213.1490  150.9680 C   0  0  2  0  0  3  0  0  0  0  0  0
  161.9300  209.8810  150.4030 C   0  0  0  0  0  0  0  0  0  0  0  0
  161.5900  211.6840  149.3260 C   0  0  0  0  0  0  0  0  0  0  0  0
  161.6130  212.7190  148.2450 C   0  0  0  0  0  2  0  0  0  0  0  0
  162.1470  210.4970  149.2590 O   0  0  0  0  0  0  0  0  0  0  0  0
  158.0650  212.4560  151.3070 O   0  0  0  0  0  0  0  0  0  0  0  0
  159.0990  212.9640  151.8170 C   0  0  0  0  0  0  0  0  0  0  0  0
  159.1170  213.3380  153.1980 N   0  0  0  0  0  2  0  0  0  0  0  0
  157.8610  211.8140  154.6390 C   0  0  0  0  0  2  0  0  0  0  0  0
  156.7270  213.6370  153.2920 C   0  0  0  0  0  3  0  0  0  0  0  0
  157.9500  213.2310  154.0600 C   0  0  2  0  0  3  0  0  0  0  0  0
  155.3320  213.6940  155.3250 C   0  0  0  0  0  0  0  0  0  0  0  0
  154.5310  214.4530  155.9320 O   0  0  0  0  0  0  0  0  0  0  0  0
  155.5580  213.8900  153.8840 C   0  0  0  0  0  3  0  0  0  0  0  0
  155.9790  212.6360  156.0410 N   0  0  0  0  0  2  0  0  0  0  0  0
  156.5480  211.4830  155.3530 C   0  0  0  0  0  2  0  0  0  0  0  0
  162.3980  208.4900  150.7020 C   0  0  0  0  0  2  0  0  0  0  0  0
  161.0430  206.1620  152.0830 C   0  0  0  0  0  1  0  0  0  0  0  0
  161.5650  207.4210  149.9840 C   0  0  1  0  0  3  0  0  0  0  0  0
  160.8880  204.9660  149.8880 C   0  0  2  0  0  3  0  0  0  0  0  0
  161.3270  204.9380  148.4260 C   0  0  0  0  0  2  0  0  0  0  0  0
  161.9660  207.3350  148.5110 C   0  0  0  0  0  2  0  0  0  0  0  0
  161.1190  206.3010  147.7860 C   0  0  0  0  0  2  0  0  0  0  0  0
  161.6370  206.0500  150.6850 C   0  0  2  0  0  3  0  0  0  0  0  0
  161.5570  203.4960  151.6550 O   0  0  0  0  0  0  0  0  0  0  0  0
  161.0830  203.6070  150.4920 C   0  0  0  0  0  0  0  0  0  0  0  0
  161.0800  201.1460  150.2180 O   0  0  0  0  0  1  0  0  0  0  0  0
  160.7300  202.4010  149.7330 C   0  0  0  0  0  0  0  0  0  0  0  0
  160.1090  202.4930  148.6420 O   0  0  0  0  0  0  0  0  0  0  0  0
  1  6  1  6  0  0  0
  1  7  1  0  0  0  0
  2  1  1  0  0  0  0
  4  7  1  0  0  0  0
  4  5  1  0  0  0  0
  5  3  1  0  0  0  0
  7 13  1  6  0  0  0
  8 23  1  0  0  0  0
  8  5  2  0  0  0  0
  9  4  2  0  0  0  0
 10  2  1  0  0  0  0
 10  9  1  0  0  0  0
 11  9  1  0  0  0  0
 11  8  1  0  0  0  0
 12 13  2  0  0  0  0
 13 14  1  0  0  0  0
 15 22  1  0  0  0  0
 16 20  2  0  0  0  0
 16 17  1  0  0  0  0
 17 14  1  6  0  0  0
 17 15  1  0  0  0  0
 18 19  2  0  0  0  0
 18 21  1  0  0  0  0
 20 18  1  0  0  0  0
 22 21  1  0  0  0  0
 25 30  1  0  0  0  0
 25 23  1  1  0  0  0
 26 32  1  1  0  0  0
 26 30  1  0  0  0  0
 27 26  1  0  0  0  0
 28 25  1  0  0  0  0
 29 27  1  0  0  0  0
 29 28  1  0  0  0  0
 30 24  1  1  0  0  0
 32 31  2  0  0  0  0
 34 33  1  0  0  0  0
 34 32  1  0  0  0  0
 35 34  2  0  0  0  0
M  END
>  <MODEL>
3

>  <REMARK>
 VINA RESULT:      -6.6      1.128      1.512
  Name = 
  6 active torsions:
  status: ('A' for Active; 'I' for Inactive)
    1  A    between atoms: C_3  and  C_8
    2  A    between atoms: C_3  and  C_11
    3  A    between atoms: C_7  and  C_27
    4  A    between atoms: C_18  and  C_31
    5  A    between atoms: C_19  and  N_32
    6  A    between atoms: C_22  and  C_27
                            x       y       z     vdW  Elec       q    Type
                         _______ _______ _______ _____ _____    ______ ____

>  <TORSDO>
F 6

$$$$
=
 OpenBabel11072411283D

 35 38  0  0  1  0  0  0  0  0999 V2000
  161.2780  204.8140  152.0110 C   0  0  1  0  0  3  0  0  0  0  0  0
  161.5870  205.1900  153.4710 C   0  0  0  0  0  2  0  0  0  0  0  0
  162.0800  208.7880  149.5340 C   0  0  0  0  0  1  0  0  0  0  0  0
  161.4750  207.2900  151.5410 C   0  0  0  0  0  0  0  0  0  0  0  0
  161.6290  208.5190  150.9290 C   0  0  0  0  0  0  0  0  0  0  0  0
  159.7910  204.5120  151.8560 C   0  0  0  0  0  1  0  0  0  0  0  0
  161.7860  205.9050  151.0360 C   0  0  2  0  0  3  0  0  0  0  0  0
  161.3260  209.4590  151.9000 C   0  0  0  0  0  0  0  0  0  0  0  0
  161.1430  207.5630  152.8480 C   0  0  0  0  0  0  0  0  0  0  0  0
  160.9170  206.5110  153.8880 C   0  0  0  0  0  2  0  0  0  0  0  0
  161.0380  208.8580  153.0360 O   0  0  0  0  0  0  0  0  0  0  0  0
  160.3480  206.2900  149.1710 O   0  0  0  0  0  0  0  0  0  0  0  0
  161.3540  205.6760  149.6170 C   0  0  0  0  0  0  0  0  0  0  0  0
  162.0930  204.7880  148.7730 N   0  0  0  0  0  2  0  0  0  0  0  0
  161.3090  203.0060  147.2950 C   0  0  0  0  0  2  0  0  0  0  0  0
  162.7990  204.8820  146.4700 C   0  0  0  0  0  3  0  0  0  0  0  0
  161.6970  204.4850  147.4070 C   0  0  2  0  0  3  0  0  0  0  0  0
  161.3710  204.5820  144.4820 C   0  0  0  0  0  0  0  0  0  0  0  0
  161.0120  205.1950  143.4430 O   0  0  0  0  0  0  0  0  0  0  0  0
  162.6250  204.9690  145.1490 C   0  0  0  0  0  3  0  0  0  0  0  0
  160.5710  203.5000  144.9720 N   0  0  0  0  0  2  0  0  0  0  0  0
  161.1200  202.4880  145.8670 C   0  0  0  0  0  2  0  0  0  0  0  0
  161.2970  210.9440  151.7110 C   0  0  0  0  0  2  0  0  0  0  0  0
  161.6860  211.2240  154.7000 C   0  0  0  0  0  1  0  0  0  0  0  0
  160.3070  211.6390  152.6540 C   0  0  1  0  0  3  0  0  0  0  0  0
  159.2340  211.6650  154.9650 C   0  0  2  0  0  3  0  0  0  0  0  0
  157.8640  211.6520  154.2910 C   0  0  0  0  0  2  0  0  0  0  0  0
  158.9070  211.6500  152.0380 C   0  0  0  0  0  2  0  0  0  0  0  0
  157.9270  212.3700  152.9520 C   0  0  0  0  0  2  0  0  0  0  0  0
  160.3140  211.0290  154.0680 C   0  0  2  0  0  3  0  0  0  0  0  0
  158.5660  211.5340  157.2600 O   0  0  0  0  0  0  0  0  0  0  0  0
  159.1420  210.9690  156.2910 C   0  0  0  0  0  0  0  0  0  0  0  0
  159.1870  208.5440  155.7970 O   0  0  0  0  0  0  0  0  0  0  0  0
  159.7260  209.6340  156.4700 C   0  0  0  0  0  0  0  0  0  0  0  0
  160.7160  209.4670  157.2290 O   0  0  0  0  0  1  0  0  0  0  0  0
  1  6  1  1  0  0  0
  1  2  1  0  0  0  0
  2 10  1  0  0  0  0
  3  5  1  0  0  0  0
  4  9  2  0  0  0  0
  5  4  1  0  0  0  0
  5  8  2  0  0  0  0
  7 13  1  6  0  0  0
  7  4  1  0  0  0  0
  7  1  1  0  0  0  0
  8 11  1  0  0  0  0
  9 11  1  0  0  0  0
  9 10  1  0  0  0  0
 12 13  2  0  0  0  0
 14 13  1  0  0  0  0
 15 17  1  0  0  0  0
 16 17  1  0  0  0  0
 17 14  1  1  0  0  0
 18 21  1  0  0  0  0
 18 20  1  0  0  0  0
 19 18  2  0  0  0  0
 20 16  2  0  0  0  0
 21 22  1  0  0  0  0
 22 15  1  0  0  0  0
 23  8  1  0  0  0  0
 25 23  1  6  0  0  0
 25 30  1  0  0  0  0
 26 32  1  1  0  0  0
 27 26  1  0  0  0  0
 28 25  1  0  0  0  0
 28 29  1  0  0  0  0
 29 27  1  0  0  0  0
 30 24  1  1  0  0  0
 30 26  1  0  0  0  0
 32 34  1  0  0  0  0
 32 31  2  0  0  0  0
 33 34  2  0  0  0  0
 34 35  1  0  0  0  0
M  END
>  <MODEL>
4

>  <REMARK>
 VINA RESULT:      -6.3      3.851      9.668
  Name = 
  6 active torsions:
  status: ('A' for Active; 'I' for Inactive)
    1  A    between atoms: C_3  and  C_8
    2  A    between atoms: C_3  and  C_11
    3  A    between atoms: C_7  and  C_27
    4  A    between atoms: C_18  and  C_31
    5  A    between atoms: C_19  and  N_32
    6  A    between atoms: C_22  and  C_27
                            x       y       z     vdW  Elec       q    Type
                         _______ _______ _______ _____ _____    ______ ____

>  <TORSDO>
F 6

$$$$
=
 OpenBabel11072411283D

 35 38  0  0  1  0  0  0  0  0999 V2000
  161.6360  208.5030  149.3730 C   0  0  1  0  0  3  0  0  0  0  0  0
  161.5540  210.0260  149.5710 C   0  0  0  0  0  2  0  0  0  0  0  0
  160.5500  206.6650  153.6180 C   0  0  0  0  0  1  0  0  0  0  0  0
  161.4190  208.3650  151.8880 C   0  0  0  0  0  0  0  0  0  0  0  0
  161.1980  207.9340  153.1820 C   0  0  0  0  0  0  0  0  0  0  0  0
  163.0770  208.0910  149.0900 C   0  0  0  0  0  1  0  0  0  0  0  0
  161.0090  207.7510  150.5740 C   0  0  2  0  0  3  0  0  0  0  0  0
  161.6610  208.9540  153.9970 C   0  0  0  0  0  0  0  0  0  0  0  0
  161.9460  209.6310  152.0010 C   0  0  0  0  0  0  0  0  0  0  0  0
  162.3050  210.4930  150.8300 C   0  0  0  0  0  2  0  0  0  0  0  0
  162.1020  209.9540  153.2640 O   0  0  0  0  0  0  0  0  0  0  0  0
  162.2030  205.7600  151.1220 O   0  0  0  0  0  0  0  0  0  0  0  0
  161.2210  206.2660  150.5180 C   0  0  0  0  0  0  0  0  0  0  0  0
  160.3010  205.4340  149.8050 N   0  0  0  0  0  2  0  0  0  0  0  0
  160.8640  203.3930  151.0260 C   0  0  0  0  0  2  0  0  0  0  0  0
  161.4820  203.7200  148.5900 C   0  0  0  0  0  3  0  0  0  0  0  0
  160.4790  203.9970  149.6700 C   0  0  2  0  0  3  0  0  0  0  0  0
  160.9570  201.3100  148.5650 C   0  0  0  0  0  0  0  0  0  0  0  0
  160.6550  200.3910  147.7600 O   0  0  0  0  0  0  0  0  0  0  0  0
  161.6560  202.5050  148.0640 C   0  0  0  0  0  3  0  0  0  0  0  0
  160.6470  201.1590  149.9550 N   0  0  0  0  0  2  0  0  0  0  0  0
  161.3330  201.9360  150.9800 C   0  0  0  0  0  2  0  0  0  0  0  0
  161.6890  208.9420  155.4950 C   0  0  0  0  0  2  0  0  0  0  0  0
  158.6710  208.7930  155.6680 C   0  0  0  0  0  1  0  0  0  0  0  0
  160.8010  210.0300  156.1100 C   0  0  1  0  0  3  0  0  0  0  0  0
  158.5800  211.2740  155.9980 C   0  0  2  0  0  3  0  0  0  0  0  0
  159.3570  212.5880  155.9570 C   0  0  0  0  0  2  0  0  0  0  0  0
  161.5220  211.3790  156.0890 C   0  0  0  0  0  2  0  0  0  0  0  0
  160.6590  212.4550  156.7310 C   0  0  0  0  0  2  0  0  0  0  0  0
  159.4140  210.1030  155.4440 C   0  0  2  0  0  3  0  0  0  0  0  0
  157.3060  211.8430  154.0530 O   0  0  0  0  0  0  0  0  0  0  0  0
  157.2920  211.4360  155.2460 C   0  0  0  0  0  0  0  0  0  0  0  0
  155.1960  210.1250  155.3820 O   0  0  0  0  0  0  0  0  0  0  0  0
  156.0120  211.1270  155.8940 C   0  0  0  0  0  0  0  0  0  0  0  0
  155.6440  211.7630  156.9160 O   0  0  0  0  0  1  0  0  0  0  0  0
  1  6  1  1  0  0  0
  1  2  1  0  0  0  0
  1  7  1  0  0  0  0
  2 10  1  0  0  0  0
  4  9  2  0  0  0  0
  4  5  1  0  0  0  0
  5  3  1  0  0  0  0
  5  8  2  0  0  0  0
  7 13  1  1  0  0  0
  7  4  1  0  0  0  0
  8 23  1  0  0  0  0
  9 11  1  0  0  0  0
 10  9  1  0  0  0  0
 11  8  1  0  0  0  0
 13 12  2  0  0  0  0
 14 13  1  0  0  0  0
 16 17  1  0  0  0  0
 17 14  1  1  0  0  0
 17 15  1  0  0  0  0
 18 21  1  0  0  0  0
 19 18  2  0  0  0  0
 20 18  1  0  0  0  0
 20 16  2  0  0  0  0
 21 22  1  0  0  0  0
 22 15  1  0  0  0  0
 25 23  1  6  0  0  0
 26 32  1  6  0  0  0
 27 26  1  0  0  0  0
 27 29  1  0  0  0  0
 28 25  1  0  0  0  0
 28 29  1  0  0  0  0
 30 24  1  1  0  0  0
 30 26  1  0  0  0  0
 30 25  1  0  0  0  0
 31 32  2  0  0  0  0
 32 34  1  0  0  0  0
 33 34  2  0  0  0  0
 34 35  1  0  0  0  0
M  END
>  <MODEL>
5

>  <REMARK>
 VINA RESULT:      -5.8      3.208      9.233
  Name = 
  6 active torsions:
  status: ('A' for Active; 'I' for Inactive)
    1  A    between atoms: C_3  and  C_8
    2  A    between atoms: C_3  and  C_11
    3  A    between atoms: C_7  and  C_27
    4  A    between atoms: C_18  and  C_31
    5  A    between atoms: C_19  and  N_32
    6  A    between atoms: C_22  and  C_27
                            x       y       z     vdW  Elec       q    Type
                         _______ _______ _______ _____ _____    ______ ____

>  <TORSDO>
F 6

$$$$
=
 OpenBabel11072411283D

 35 38  0  0  1  0  0  0  0  0999 V2000
  159.7980  210.3580  155.2300 C   0  0  1  0  0  3  0  0  0  0  0  0
  159.8870  209.2460  156.2890 C   0  0  0  0  0  2  0  0  0  0  0  0
  160.5340  208.1560  151.0850 C   0  0  0  0  0  1  0  0  0  0  0  0
  160.6670  208.6180  153.6160 C   0  0  0  0  0  0  0  0  0  0  0  0
  160.9980  207.9060  152.4790 C   0  0  0  0  0  0  0  0  0  0  0  0
  160.9580  211.3340  155.4020 C   0  0  0  0  0  1  0  0  0  0  0  0
  159.7060  209.7630  153.8030 C   0  0  2  0  0  3  0  0  0  0  0  0
  161.8150  206.8750  152.9100 C   0  0  0  0  0  0  0  0  0  0  0  0
  161.2560  207.9450  154.6620 C   0  0  0  0  0  0  0  0  0  0  0  0
  161.1250  208.3540  156.0960 C   0  0  0  0  0  2  0  0  0  0  0  0
  161.9520  206.9240  154.2190 O   0  0  0  0  0  0  0  0  0  0  0  0
  158.7640  211.4420  152.3940 O   0  0  0  0  0  0  0  0  0  0  0  0
  159.7970  210.8010  152.7220 C   0  0  0  0  0  0  0  0  0  0  0  0
  161.0510  211.0750  152.0910 N   0  0  0  0  0  2  0  0  0  0  0  0
  159.9460  212.9170  150.9240 C   0  0  0  0  0  2  0  0  0  0  0  0
  161.4850  211.2950  149.7300 C   0  0  0  0  0  3  0  0  0  0  0  0
  161.1950  212.0310  151.0050 C   0  0  2  0  0  3  0  0  0  0  0  0
  162.0570  213.3710  148.5290 C   0  0  0  0  0  0  0  0  0  0  0  0
  162.9700  213.8570  147.8100 O   0  0  0  0  0  0  0  0  0  0  0  0
  161.9210  211.9090  148.6280 C   0  0  0  0  0  3  0  0  0  0  0  0
  161.1500  214.2500  149.2040 N   0  0  0  0  0  2  0  0  0  0  0  0
  159.8480  213.7910  149.6710 C   0  0  0  0  0  2  0  0  0  0  0  0
  162.4790  205.8520  152.0400 C   0  0  0  0  0  2  0  0  0  0  0  0
  160.7660  203.3560  152.1010 C   0  0  0  0  0  1  0  0  0  0  0  0
  161.5810  205.3870  150.8870 C   0  0  1  0  0  3  0  0  0  0  0  0
  160.6310  203.4030  149.6010 C   0  0  2  0  0  3  0  0  0  0  0  0
  161.1680  204.0250  148.3140 C   0  0  0  0  0  2  0  0  0  0  0  0
  162.0740  205.9700  149.5620 C   0  0  0  0  0  2  0  0  0  0  0  0
  161.1660  205.5420  148.4190 C   0  0  0  0  0  2  0  0  0  0  0  0
  161.4420  203.8540  150.8300 C   0  0  2  0  0  3  0  0  0  0  0  0
  160.2870  201.1900  150.4450 O   0  0  0  0  0  0  0  0  0  0  0  0
  160.6230  201.9090  149.4650 C   0  0  0  0  0  0  0  0  0  0  0  0
  160.4300  201.6970  147.0060 O   0  0  0  0  0  0  0  0  0  0  0  0
  161.0100  201.2780  148.1980 C   0  0  0  0  0  0  0  0  0  0  0  0
  161.8690  200.3580  148.1790 O   0  0  0  0  0  1  0  0  0  0  0  0
  1  6  1  6  0  0  0
  1  2  1  0  0  0  0
  3  5  1  0  0  0  0
  4  7  1  0  0  0  0
  4  9  2  0  0  0  0
  5  8  2  0  0  0  0
  5  4  1  0  0  0  0
  7 13  1  6  0  0  0
  7  1  1  0  0  0  0
  8 11  1  0  0  0  0
  9 10  1  0  0  0  0
 10  2  1  0  0  0  0
 11  9  1  0  0  0  0
 12 13  2  0  0  0  0
 14 13  1  0  0  0  0
 15 17  1  0  0  0  0
 16 17  1  0  0  0  0
 17 14  1  1  0  0  0
 18 20  1  0  0  0  0
 18 21  1  0  0  0  0
 19 18  2  0  0  0  0
 20 16  2  0  0  0  0
 21 22  1  0  0  0  0
 22 15  1  0  0  0  0
 23  8  1  0  0  0  0
 25 23  1  1  0  0  0
 26 32  1  6  0  0  0
 26 30  1  0  0  0  0
 27 29  1  0  0  0  0
 27 26  1  0  0  0  0
 28 25  1  0  0  0  0
 29 28  1  0  0  0  0
 30 25  1  0  0  0  0
 30 24  1  1  0  0  0
 32 31  2  0  0  0  0
 33 34  2  0  0  0  0
 34 32  1  0  0  0  0
 35 34  1  0  0  0  0
M  END
>  <MODEL>
6

>  <REMARK>
 VINA RESULT:      -5.8      2.582      5.189
  Name = 
  6 active torsions:
  status: ('A' for Active; 'I' for Inactive)
    1  A    between atoms: C_3  and  C_8
    2  A    between atoms: C_3  and  C_11
    3  A    between atoms: C_7  and  C_27
    4  A    between atoms: C_18  and  C_31
    5  A    between atoms: C_19  and  N_32
    6  A    between atoms: C_22  and  C_27
                            x       y       z     vdW  Elec       q    Type
                         _______ _______ _______ _____ _____    ______ ____

>  <TORSDO>
F 6

$$$$
=
 OpenBabel11072411283D

 35 38  0  0  1  0  0  0  0  0999 V2000
  161.7410  206.1860  149.5920 C   0  0  1  0  0  3  0  0  0  0  0  0
  161.6200  205.1570  150.7290 C   0  0  0  0  0  2  0  0  0  0  0  0
  162.6260  210.3130  151.7730 C   0  0  0  0  0  1  0  0  0  0  0  0
  161.7300  207.9220  151.4290 C   0  0  0  0  0  0  0  0  0  0  0  0
  161.8760  209.0850  152.1610 C   0  0  0  0  0  0  0  0  0  0  0  0
  160.3930  206.3550  148.8970 C   0  0  0  0  0  1  0  0  0  0  0  0
  162.3350  207.5200  150.1090 C   0  0  2  0  0  3  0  0  0  0  0  0
  161.2180  208.8560  153.3580 C   0  0  0  0  0  0  0  0  0  0  0  0
  161.0460  207.0500  152.2460 C   0  0  0  0  0  0  0  0  0  0  0  0
  160.7010  205.6450  151.8630 C   0  0  0  0  0  2  0  0  0  0  0  0
  160.7320  207.6320  153.3800 O   0  0  0  0  0  0  0  0  0  0  0  0
  162.7060  208.3730  147.9120 O   0  0  0  0  0  0  0  0  0  0  0  0
  162.3090  208.6150  149.0830 C   0  0  0  0  0  0  0  0  0  0  0  0
  161.8150  209.9130  149.4270 N   0  0  0  0  0  2  0  0  0  0  0  0
  163.2470  211.5140  148.2610 C   0  0  0  0  0  2  0  0  0  0  0  0
  160.8970  212.1020  149.0060 C   0  0  0  0  0  3  0  0  0  0  0  0
  161.8120  211.0290  148.4940 C   0  0  2  0  0  3  0  0  0  0  0  0
  160.9810  213.3460  146.8780 C   0  0  0  0  0  0  0  0  0  0  0  0
  160.2130  213.8640  146.0260 O   0  0  0  0  0  0  0  0  0  0  0  0
  160.4900  213.1220  148.2480 C   0  0  0  0  0  3  0  0  0  0  0  0
  162.3250  213.0180  146.5080 N   0  0  0  0  0  2  0  0  0  0  0  0
  163.3720  212.8410  147.5070 C   0  0  0  0  0  2  0  0  0  0  0  0
  161.0480  209.8410  154.4730 C   0  0  0  0  0  2  0  0  0  0  0  0
  160.4550  212.1980  156.2790 C   0  0  0  0  0  1  0  0  0  0  0  0
  160.2730  211.0920  154.0410 C   0  0  1  0  0  3  0  0  0  0  0  0
  158.6260  212.9130  154.7240 C   0  0  2  0  0  3  0  0  0  0  0  0
  157.7620  212.5330  153.5240 C   0  0  0  0  0  2  0  0  0  0  0  0
  159.3760  210.7750  152.8430 C   0  0  0  0  0  2  0  0  0  0  0  0
  158.6330  212.0210  152.3880 C   0  0  0  0  0  2  0  0  0  0  0  0
  159.4850  211.7270  155.2030 C   0  0  2  0  0  3  0  0  0  0  0  0
  158.0980  214.4530  156.4790 O   0  0  0  0  0  0  0  0  0  0  0  0
  157.7490  213.4340  155.8230 C   0  0  0  0  0  0  0  0  0  0  0  0
  156.4950  211.4570  156.6280 O   0  0  0  0  0  1  0  0  0  0  0  0
  156.4850  212.7610  156.1460 C   0  0  0  0  0  0  0  0  0  0  0  0
  155.3870  213.3560  155.9900 O   0  0  0  0  0  0  0  0  0  0  0  0
  1  6  1  1  0  0  0
  1  7  1  0  0  0  0
  1  2  1  0  0  0  0
  2 10  1  0  0  0  0
  3  5  1  0  0  0  0
  4  5  1  0  0  0  0
  4  9  2  0  0  0  0
  5  8  2  0  0  0  0
  7 13  1  6  0  0  0
  7  4  1  0  0  0  0
  8 11  1  0  0  0  0
  8 23  1  0  0  0  0
  9 11  1  0  0  0  0
 10  9  1  0  0  0  0
 12 13  2  0  0  0  0
 13 14  1  0  0  0  0
 15 17  1  0  0  0  0
 17 16  1  0  0  0  0
 17 14  1  1  0  0  0
 18 20  1  0  0  0  0
 19 18  2  0  0  0  0
 20 16  2  0  0  0  0
 21 18  1  0  0  0  0
 21 22  1  0  0  0  0
 22 15  1  0  0  0  0
 25 23  1  1  0  0  0
 25 30  1  0  0  0  0
 26 30  1  0  0  0  0
 26 32  1  1  0  0  0
 27 26  1  0  0  0  0
 28 25  1  0  0  0  0
 29 28  1  0  0  0  0
 29 27  1  0  0  0  0
 30 24  1  1  0  0  0
 32 34  1  0  0  0  0
 32 31  2  0  0  0  0
 34 33  1  0  0  0  0
 35 34  2  0  0  0  0
M  END
>  <MODEL>
7

>  <REMARK>
 VINA RESULT:      -5.7      3.200      8.615
  Name = 
  6 active torsions:
  status: ('A' for Active; 'I' for Inactive)
    1  A    between atoms: C_3  and  C_8
    2  A    between atoms: C_3  and  C_11
    3  A    between atoms: C_7  and  C_27
    4  A    between atoms: C_18  and  C_31
    5  A    between atoms: C_19  and  N_32
    6  A    between atoms: C_22  and  C_27
                            x       y       z     vdW  Elec       q    Type
                         _______ _______ _______ _____ _____    ______ ____

>  <TORSDO>
F 6

$$$$
=
 OpenBabel11072411283D

 35 38  0  0  1  0  0  0  0  0999 V2000
  160.5060  210.0060  137.4310 C   0  0  1  0  0  3  0  0  0  0  0  0
  162.0200  210.1860  137.6370 C   0  0  0  0  0  2  0  0  0  0  0  0
  158.5090  213.5220  139.9250 C   0  0  0  0  0  1  0  0  0  0  0  0
  160.2530  211.7530  139.2400 C   0  0  0  0  0  0  0  0  0  0  0  0
  159.7680  212.7390  140.0780 C   0  0  0  0  0  0  0  0  0  0  0  0
  160.0430  208.7070  138.0850 C   0  0  0  0  0  1  0  0  0  0  0  0
  159.7250  211.2510  137.9210 C   0  0  2  0  0  3  0  0  0  0  0  0
  160.7230  212.8850  141.0700 C   0  0  0  0  0  0  0  0  0  0  0  0
  161.4860  211.4070  139.7430 C   0  0  0  0  0  0  0  0  0  0  0  0
  162.3880  210.3900  139.1170 C   0  0  0  0  0  2  0  0  0  0  0  0
  161.7380  212.0770  140.8440 O   0  0  0  0  0  0  0  0  0  0  0  0
  157.5490  211.6130  137.0120 O   0  0  0  0  0  0  0  0  0  0  0  0
  158.2360  211.0560  137.9090 C   0  0  0  0  0  0  0  0  0  0  0  0
  157.6100  210.2280  138.8930 N   0  0  0  0  0  2  0  0  0  0  0  0
  155.6680  209.3670  137.6830 C   0  0  0  0  0  2  0  0  0  0  0  0
  155.5110  211.3610  139.2390 C   0  0  0  0  0  3  0  0  0  0  0  0
  156.1690  210.0410  138.9660 C   0  0  2  0  0  3  0  0  0  0  0  0
  153.3290  210.3050  139.6950 C   0  0  0  0  0  0  0  0  0  0  0  0
  152.4190  210.2930  140.5650 O   0  0  0  0  0  0  0  0  0  0  0  0
  154.2340  211.4630  139.6160 C   0  0  0  0  0  3  0  0  0  0  0  0
  153.4420  209.2100  138.7800 N   0  0  0  0  0  2  0  0  0  0  0  0
  154.1480  209.3440  137.5110 C   0  0  0  0  0  2  0  0  0  0  0  0
  160.6350  213.8030  142.2510 C   0  0  0  0  0  2  0  0  0  0  0  0
  159.2660  212.5620  144.6490 C   0  0  0  0  0  1  0  0  0  0  0  0
  161.3680  213.2540  143.4800 C   0  0  1  0  0  3  0  0  0  0  0  0
  161.3360  212.9380  146.0080 C   0  0  2  0  0  3  0  0  0  0  0  0
  162.7020  213.6160  146.0760 C   0  0  0  0  0  2  0  0  0  0  0  0
  162.7470  213.9030  143.6110 C   0  0  0  0  0  2  0  0  0  0  0  0
  163.4930  213.3360  144.8080 C   0  0  0  0  0  2  0  0  0  0  0  0
  160.5380  213.3910  144.7710 C   0  0  2  0  0  3  0  0  0  0  0  0
  159.5810  213.9770  147.2630 O   0  0  0  0  0  0  0  0  0  0  0  0
  160.5830  213.2110  147.2770 C   0  0  0  0  0  0  0  0  0  0  0  0
  161.6790  211.3770  148.5280 O   0  0  0  0  0  0  0  0  0  0  0  0
  161.0090  212.5960  148.5390 C   0  0  0  0  0  0  0  0  0  0  0  0
  160.7760  213.1640  149.6380 O   0  0  0  0  0  1  0  0  0  0  0  0
  1  2  1  0  0  0  0
  1  7  1  0  0  0  0
  1  6  1  1  0  0  0
  2 10  1  0  0  0  0
  3  5  1  0  0  0  0
  4  9  2  0  0  0  0
  4  5  1  0  0  0  0
  5  8  2  0  0  0  0
  7 13  1  1  0  0  0
  7  4  1  0  0  0  0
  8 23  1  0  0  0  0
  9 11  1  0  0  0  0
 10  9  1  0  0  0  0
 11  8  1  0  0  0  0
 12 13  2  0  0  0  0
 13 14  1  0  0  0  0
 15 17  1  0  0  0  0
 16 20  2  0  0  0  0
 17 14  1  6  0  0  0
 17 16  1  0  0  0  0
 18 19  2  0  0  0  0
 20 18  1  0  0  0  0
 21 18  1  0  0  0  0
 22 15  1  0  0  0  0
 22 21  1  0  0  0  0
 25 23  1  6  0  0  0
 25 28  1  0  0  0  0
 25 30  1  0  0  0  0
 26 27  1  0  0  0  0
 26 32  1  1  0  0  0
 28 29  1  0  0  0  0
 29 27  1  0  0  0  0
 30 24  1  6  0  0  0
 30 26  1  0  0  0  0
 31 32  2  0  0  0  0
 32 34  1  0  0  0  0
 33 34  2  0  0  0  0
 34 35  1  0  0  0  0
M  END
>  <MODEL>
8

>  <REMARK>
 VINA RESULT:      -5.2      9.349     13.084
  Name = 
  6 active torsions:
  status: ('A' for Active; 'I' for Inactive)
    1  A    between atoms: C_3  and  C_8
    2  A    between atoms: C_3  and  C_11
    3  A    between atoms: C_7  and  C_27
    4  A    between atoms: C_18  and  C_31
    5  A    between atoms: C_19  and  N_32
    6  A    between atoms: C_22  and  C_27
                            x       y       z     vdW  Elec       q    Type
                         _______ _______ _______ _____ _____    ______ ____

>  <TORSDO>
F 6

$$$$
