=
 OpenBabel11072410073D

 69 76  0  0  1  0  0  0  0  0999 V2000
  162.3260  207.7410  148.7850 C   0  0  1  0  0  3  0  0  0  0  0  0
  162.1580  210.6200  149.1700 O   0  0  0  0  0  1  0  0  0  0  0  0
  161.4230  209.7440  149.9800 C   0  0  1  0  0  3  0  0  0  0  0  0
  161.0550  208.4900  149.2010 C   0  0  0  0  0  2  0  0  0  0  0  0
  163.1720  208.1750  150.9720 C   0  0  2  0  0  3  0  0  0  0  0  0
  162.2130  209.3450  151.2280 C   0  0  2  0  0  0  0  0  0  0  0  0
  161.2560  208.7720  152.2520 C   0  0  1  0  0  3  0  0  0  0  0  0
  161.8880  207.4640  152.6780 C   0  0  2  0  0  3  0  0  0  0  0  0
  162.9310  210.4340  151.7350 O   0  0  0  0  0  1  0  0  0  0  0  0
  163.4780  207.9050  149.6070 O   0  0  0  0  0  0  0  0  0  0  0  0
  162.7290  207.0200  151.6460 O   0  0  0  0  0  0  0  0  0  0  0  0
  157.5320  212.3540  154.2090 O   0  0  0  0  0  0  0  0  0  0  0  0
  160.8360  209.6560  153.4360 C   0  0  1  0  0  3  0  0  0  0  0  0
  155.3000  212.5980  155.0300 C   0  0  0  0  0  1  0  0  0  0  0  0
  157.7350  214.4510  153.1680 C   0  0  0  0  0  2  0  0  0  0  0  0
  160.9590  211.4070  155.6110 C   0  0  1  0  0  3  0  0  0  0  0  0
  158.7120  212.3370  152.1040 C   0  0  2  0  0  3  0  0  0  0  0  0
  161.1340  210.0050  155.5420 O   0  0  0  0  0  0  0  0  0  0  0  0
  161.8150  209.7390  154.4360 O   0  0  0  0  0  0  0  0  0  0  0  0
  156.2750  214.1950  153.4180 C   0  0  0  0  0  2  0  0  0  0  0  0
  158.4130  213.1170  153.4150 C   0  0  2  0  0  0  0  0  0  0  0  0
  159.7150  213.3110  154.1880 C   0  0  0  0  0  2  0  0  0  0  0  0
  160.4100  211.0600  153.0270 C   0  0  1  0  0  3  0  0  0  0  0  0
  156.2330  212.7530  153.8480 C   0  0  1  0  0  3  0  0  0  0  0  0
  159.1230  211.0210  152.4360 O   0  0  0  0  0  0  0  0  0  0  0  0
  160.4750  211.9870  154.2600 C   0  0  2  0  0  3  0  0  0  0  0  0
  159.2440  210.8290  157.1830 O   0  0  0  0  0  0  0  0  0  0  0  0
  159.9570  213.0080  157.2360 O   0  0  0  0  0  1  0  0  0  0  0  0
  160.0030  211.7220  156.7180 C   0  0  0  0  0  0  0  0  0  0  0  0
  160.2610  211.8960  150.3320 O   0  0  0  0  0  1  0  0  0  0  0  0
  159.6590  212.9470  151.0270 C   0  0  1  0  0  3  0  0  0  0  0  0
  157.0980  212.5050  149.9380 O   0  0  0  0  0  1  0  0  0  0  0  0
  159.0140  213.9300  150.0400 C   0  0  1  0  0  3  0  0  0  0  0  0
  159.4780  213.7030  148.7400 O   0  0  0  0  0  0  0  0  0  0  0  0
  156.3310  213.7810  147.8530 F   0  0  0  0  0  0  0  0  0  0  0  0
  157.5080  213.8430  149.9450 C   0  0  1  0  0  3  0  0  0  0  0  0
  157.3170  214.4390  148.5770 C   0  0  1  0  0  3  0  0  0  0  0  0
  158.6430  214.4210  147.9340 N   0  0  2  0  0  0  0  0  0  0  0  0
  159.9530  213.8410  145.8980 C   0  0  1  0  0  0  0  0  0  0  0  0
  158.6100  213.7540  146.6300 C   0  0  1  0  0  3  0  0  0  0  0  0
  159.5610  212.5690  146.6240 C   0  0  1  0  0  3  0  0  0  0  0  0
  160.3090  212.4930  145.3100 C   0  0  0  0  0  2  0  0  0  0  0  0
  161.1120  214.4380  146.6790 C   0  0  0  0  0  1  0  0  0  0  0  0
  160.8520  206.3860  153.0170 C   0  0  0  0  0  0  0  0  0  0  0  0
  161.4780  205.1690  153.2320 F   0  0  0  0  0  0  0  0  0  0  0  0
  160.0050  206.2410  151.9330 F   0  0  0  0  0  0  0  0  0  0  0  0
  160.9070  206.9040  155.1550 F   0  0  0  0  0  0  0  0  0  0  0  0
  160.0760  206.7560  154.1310 O   0  0  0  0  0  0  0  0  0  0  0  0
  163.3640  205.6660  148.1830 O   0  0  0  0  0  1  0  0  0  0  0  0
  162.1270  206.3170  148.2150 C   0  0  1  0  0  0  0  0  0  0  0  0
  161.1980  205.5240  149.1630 C   0  0  1  0  0  3  0  0  0  0  0  0
  159.8700  205.5530  148.7110 O   0  0  0  0  0  0  0  0  0  0  0  0
  159.9550  205.4350  147.3260 C   0  0  0  0  0  1  0  0  0  0  0  0
  161.6330  204.1690  149.2310 O   0  0  0  0  0  0  0  0  0  0  0  0
  160.8360  203.1470  149.7540 C   0  0  0  0  0  0  0  0  0  0  0  0
  160.5030  203.1500  150.9700 O   0  0  0  0  0  0  0  0  0  0  0  0
  160.3250  202.0690  148.8560 C   0  0  1  0  0  3  0  0  0  0  0  0
  161.3750  200.0600  147.3640 O   0  0  0  0  0  1  0  0  0  0  0  0
  160.4860  202.1580  146.1840 O   0  0  0  0  0  1  0  0  0  0  0  0
  161.5690  201.7800  147.4910 P   0  0  0  0  0  0  0  0  0  0  0  0
  160.8290  200.8500  150.8510 O   0  0  0  0  0  1  0  0  0  0  0  0
  160.1110  200.7950  149.6560 C   0  0  0  0  0  2  0  0  0  0  0  0
  161.6110  206.3600  146.7660 C   0  0  0  0  0  2  0  0  0  0  0  0
  162.6670  206.0780  145.7010 C   0  0  0  0  0  2  0  0  0  0  0  0
  162.2270  204.9370  144.7960 C   0  0  0  0  0  2  0  0  0  0  0  0
  161.0140  205.2970  143.9470 C   0  0  0  0  0  0  0  0  0  0  0  0
  160.4460  206.4730  144.4030 F   0  0  0  0  0  0  0  0  0  0  0  0
  161.4280  205.4770  142.6380 F   0  0  0  0  0  0  0  0  0  0  0  0
  160.0790  204.2790  143.9870 F   0  0  0  0  0  0  0  0  0  0  0  0
  1 50  1  1  0  0  0
  1  4  1  0  0  0  0
  1 10  1  0  0  0  0
  3  2  1  6  0  0  0
  3  6  1  0  0  0  0
  4  3  1  0  0  0  0
  5 10  1  6  0  0  0
  5  6  1  0  0  0  0
  5 11  1  0  0  0  0
  6  9  1  1  0  0  0
  6  7  1  0  0  0  0
  7  8  1  0  0  0  0
  7 13  1  1  0  0  0
  8 44  1  6  0  0  0
 11  8  1  0  0  0  0
 13 19  1  1  0  0  0
 15 20  1  0  0  0  0
 16 29  1  1  0  0  0
 17 31  1  1  0  0  0
 17 25  1  0  0  0  0
 17 21  1  0  0  0  0
 18 16  1  0  0  0  0
 19 18  1  0  0  0  0
 20 24  1  0  0  0  0
 21 15  1  6  0  0  0
 21 22  1  0  0  0  0
 21 12  1  0  0  0  0
 23 25  1  1  0  0  0
 23 13  1  0  0  0  0
 23 26  1  0  0  0  0
 24 12  1  0  0  0  0
 24 14  1  1  0  0  0
 26 22  1  1  0  0  0
 26 16  1  0  0  0  0
 29 27  2  0  0  0  0
 29 28  1  0  0  0  0
 31 30  1  6  0  0  0
 33 31  1  1  0  0  0
 34 33  1  0  0  0  0
 36 32  1  6  0  0  0
 36 33  1  0  0  0  0
 37 35  1  6  0  0  0
 37 36  1  0  0  0  0
 38 37  1  0  0  0  0
 38 34  1  1  0  0  0
 39 41  1  0  0  0  0
 39 40  1  0  0  0  0
 39 43  1  1  0  0  0
 40 38  1  1  0  0  0
 41 42  1  6  0  0  0
 41 40  1  0  0  0  0
 42 39  1  0  0  0  0
 44 45  1  0  0  0  0
 44 48  1  0  0  0  0
 46 44  1  0  0  0  0
 48 47  1  0  0  0  0
 50 49  1  6  0  0  0
 50 51  1  0  0  0  0
 51 52  1  6  0  0  0
 51 54  1  0  0  0  0
 53 52  1  0  0  0  0
 54 55  1  0  0  0  0
 55 56  2  0  0  0  0
 57 62  1  1  0  0  0
 57 55  1  0  0  0  0
 58 60  1  0  0  0  0
 59 60  1  0  0  0  0
 60 57  1  0  0  0  0
 62 61  1  0  0  0  0
 63 50  1  0  0  0  0
 64 63  1  0  0  0  0
 65 64  1  0  0  0  0
 66 69  1  0  0  0  0
 66 67  1  0  0  0  0
 66 65  1  0  0  0  0
 68 66  1  0  0  0  0
M  END
>  <MODEL>
1

>  <REMARK>
 VINA RESULT:      -2.6      0.000      0.000
  Name = 
  19 active torsions:
  status: ('A' for Active; 'I' for Inactive)
    1  A    between atoms: C_1  and  C_41
    2  A    between atoms: C_7  and  C_57
    3  A    between atoms: C_10  and  C_37
    4  A    between atoms: C_16  and  C_49
    5  A    between atoms: C_17  and  C_33
    6  A    between atoms: C_18  and  C_57
    7  A    between atoms: C_18  and  C_63
    8  A    between atoms: C_19  and  O_21
    9  A    between atoms: C_19  and  C_41
   10  A    between atoms: C_19  and  O_43
   11  A    between atoms: C_22  and  C_33
   12  A    between atoms: C_25  and  N_62
   13  A    between atoms: C_36  and  C_45
   14  A    between atoms: C_36  and  O_69
   15  A    between atoms: P_40  and  C_66
   16  A    between atoms: C_41  and  C_63
   17  A    between atoms: O_43  and  C_47
   18  A    between atoms: C_47  and  C_66
   19  A    between atoms: C_60  and  C_66
                            x       y       z     vdW  Elec       q    Type
                         _______ _______ _______ _____ _____    ______ ____

>  <TORSDO>
F 19

$$$$
=
 OpenBabel11072410073D

 69 77  0  0  1  0  0  0  0  0999 V2000
  162.1340  207.2750  148.9510 C   0  0  1  0  0  3  0  0  0  0  0  0
  162.0860  210.1740  149.2030 O   0  0  0  0  0  1  0  0  0  0  0  0
  161.3500  209.3650  150.0790 C   0  0  1  0  0  3  0  0  0  0  0  0
  160.9070  208.0910  149.3760 C   0  0  0  0  0  2  0  0  0  0  0  0
  163.0760  207.7790  151.0830 C   0  0  2  0  0  3  0  0  0  0  0  0
  162.1710  208.9960  151.3160 C   0  0  2  0  0  0  0  0  0  0  0  0
  161.2330  208.5090  152.4000 C   0  0  1  0  0  3  0  0  0  0  0  0
  161.8330  207.1980  152.8660 C   0  0  2  0  0  3  0  0  0  0  0  0
  162.9470  210.0790  151.7440 O   0  0  0  0  0  1  0  0  0  0  0  0
  163.3210  207.4340  149.7220 O   0  0  0  0  0  0  0  0  0  0  0  0
  162.6170  206.6750  151.8280 O   0  0  0  0  0  0  0  0  0  0  0  0
  157.7940  212.4140  154.2570 O   0  0  0  0  0  0  0  0  0  0  0  0
  160.8900  209.4620  153.5550 C   0  0  1  0  0  3  0  0  0  0  0  0
  155.5940  212.8460  155.0890 C   0  0  0  0  0  1  0  0  0  0  0  0
  158.1320  214.4520  153.1370 C   0  0  0  0  0  2  0  0  0  0  0  0
  161.1620  211.2790  155.6610 C   0  0  1  0  0  3  0  0  0  0  0  0
  158.9450  212.2370  152.1430 C   0  0  2  0  0  3  0  0  0  0  0  0
  161.2370  209.8670  155.6430 O   0  0  0  0  0  0  0  0  0  0  0  0
  161.8850  209.5120  154.5420 O   0  0  0  0  0  0  0  0  0  0  0  0
  156.6600  214.3100  153.4090 C   0  0  0  0  0  2  0  0  0  0  0  0
  158.7170  213.0840  153.4260 C   0  0  2  0  0  0  0  0  0  0  0  0
  160.0380  213.2130  154.1800 C   0  0  0  0  0  2  0  0  0  0  0  0
  160.5600  210.8780  153.0980 C   0  0  1  0  0  3  0  0  0  0  0  0
  156.5230  212.8910  153.8930 C   0  0  1  0  0  3  0  0  0  0  0  0
  159.2660  210.9080  152.5200 O   0  0  0  0  0  0  0  0  0  0  0  0
  160.7050  211.8420  154.2940 C   0  0  2  0  0  3  0  0  0  0  0  0
  160.3190  212.8630  157.2510 O   0  0  0  0  0  1  0  0  0  0  0  0
  159.3030  210.8070  157.2510 O   0  0  0  0  0  0  0  0  0  0  0  0
  160.2440  211.7010  156.7640 C   0  0  0  0  0  0  0  0  0  0  0  0
  160.3950  211.6260  150.3380 O   0  0  0  0  0  1  0  0  0  0  0  0
  159.9200  212.7390  151.0350 C   0  0  1  0  0  3  0  0  0  0  0  0
  157.2790  212.5810  150.0650 O   0  0  0  0  0  1  0  0  0  0  0  0
  159.3510  213.7730  150.0540 C   0  0  1  0  0  3  0  0  0  0  0  0
  159.7270  213.4690  148.7410 O   0  0  0  0  0  0  0  0  0  0  0  0
  156.5750  213.9000  147.9850 F   0  0  0  0  0  0  0  0  0  0  0  0
  157.8430  213.8620  150.0240 C   0  0  1  0  0  3  0  0  0  0  0  0
  157.6630  214.4510  148.6510 C   0  0  1  0  0  3  0  0  0  0  0  0
  158.9470  214.2650  147.9540 N   0  0  2  0  0  0  0  0  0  0  0  0
  160.0180  213.7070  145.7760 C   0  0  1  0  0  0  0  0  0  0  0  0
  158.7790  213.5820  146.6680 C   0  0  1  0  0  3  0  0  0  0  0  0
  159.7630  212.4310  146.5540 C   0  0  1  0  0  3  0  0  0  0  0  0
  160.3480  212.3660  145.1590 C   0  0  0  0  0  2  0  0  0  0  0  0
  161.2430  214.3530  146.4060 C   0  0  0  0  0  1  0  0  0  0  0  0
  160.7710  206.1780  153.2940 C   0  0  0  0  0  0  0  0  0  0  0  0
  159.8640  205.9720  152.2670 F   0  0  0  0  0  0  0  0  0  0  0  0
  160.0780  206.6980  154.3720 F   0  0  0  0  0  0  0  0  0  0  0  0
  161.2500  204.1200  152.6780 F   0  0  0  0  0  0  0  0  0  0  0  0
  161.3610  204.9660  153.6950 O   0  0  0  0  0  0  0  0  0  0  0  0
  160.4810  205.6590  148.3150 O   0  0  0  0  0  1  0  0  0  0  0  0
  161.8610  205.8350  148.4580 C   0  0  1  0  0  0  0  0  0  0  0  0
  162.5100  205.6520  147.0660 C   0  0  1  0  0  3  0  0  0  0  0  0
  163.3080  204.4980  147.0280 O   0  0  0  0  0  0  0  0  0  0  0  0
  163.9490  204.5420  145.7920 C   0  0  0  0  0  2  0  0  0  0  0  0
  161.4890  205.5410  146.0780 O   0  0  0  0  0  0  0  0  0  0  0  0
  161.5590  204.6260  145.0230 C   0  0  1  0  0  3  0  0  0  0  0  0
  162.6650  204.3480  144.4860 O   0  0  0  0  0  0  0  0  0  0  0  0
  160.3220  203.9280  144.5620 C   0  0  1  0  0  3  0  0  0  0  0  0
  161.6240  202.3840  146.3740 O   0  0  0  0  0  1  0  0  0  0  0  0
  159.0610  202.4710  146.4210 O   0  0  0  0  0  1  0  0  0  0  0  0
  160.3160  202.1910  145.2510 P   0  0  0  0  0  0  0  0  0  0  0  0
  157.9640  204.2630  144.3440 O   0  0  0  0  0  1  0  0  0  0  0  0
  159.0970  204.6910  145.0370 C   0  0  0  0  0  2  0  0  0  0  0  0
  162.3370  204.7920  149.4840 C   0  0  0  0  0  2  0  0  0  0  0  0
  161.2440  203.8690  150.0130 C   0  0  0  0  0  2  0  0  0  0  0  0
  161.3110  202.5080  149.3360 C   0  0  0  0  0  2  0  0  0  0  0  0
  160.3300  201.5070  149.9330 C   0  0  0  0  0  0  0  0  0  0  0  0
  160.9010  200.2480  149.9750 F   0  0  0  0  0  0  0  0  0  0  0  0
  160.0230  201.9040  151.2230 F   0  0  0  0  0  0  0  0  0  0  0  0
  159.1670  201.4690  149.1860 F   0  0  0  0  0  0  0  0  0  0  0  0
  1 50  1  1  0  0  0
  1  4  1  0  0  0  0
  1 10  1  0  0  0  0
  3  2  1  6  0  0  0
  3  6  1  0  0  0  0
  4  3  1  0  0  0  0
  5 10  1  6  0  0  0
  5  6  1  0  0  0  0
  5 11  1  0  0  0  0
  6  9  1  1  0  0  0
  6  7  1  0  0  0  0
  7  8  1  0  0  0  0
  7 13  1  1  0  0  0
  8 44  1  6  0  0  0
 11  8  1  0  0  0  0
 13 19  1  1  0  0  0
 15 20  1  0  0  0  0
 16 29  1  1  0  0  0
 17 31  1  1  0  0  0
 17 25  1  0  0  0  0
 17 21  1  0  0  0  0
 18 16  1  0  0  0  0
 19 18  1  0  0  0  0
 20 24  1  0  0  0  0
 21 15  1  6  0  0  0
 21 22  1  0  0  0  0
 21 12  1  0  0  0  0
 23 25  1  1  0  0  0
 23 13  1  0  0  0  0
 23 26  1  0  0  0  0
 24 12  1  0  0  0  0
 24 14  1  1  0  0  0
 26 22  1  1  0  0  0
 26 16  1  0  0  0  0
 29 28  2  0  0  0  0
 29 27  1  0  0  0  0
 31 30  1  6  0  0  0
 33 31  1  1  0  0  0
 34 33  1  0  0  0  0
 36 33  1  0  0  0  0
 36 32  1  6  0  0  0
 37 35  1  6  0  0  0
 37 36  1  0  0  0  0
 38 37  1  0  0  0  0
 38 34  1  1  0  0  0
 39 43  1  1  0  0  0
 39 41  1  0  0  0  0
 39 40  1  0  0  0  0
 40 38  1  1  0  0  0
 41 42  1  6  0  0  0
 41 40  1  0  0  0  0
 42 39  1  0  0  0  0
 44 48  1  0  0  0  0
 44 46  1  0  0  0  0
 45 44  1  0  0  0  0
 47 48  1  0  0  0  0
 50 49  1  6  0  0  0
 50 63  1  0  0  0  0
 51 50  1  1  0  0  0
 52 51  1  0  0  0  0
 53 52  1  0  0  0  0
 54 51  1  0  0  0  0
 55 57  1  1  0  0  0
 55 54  1  0  0  0  0
 56 55  1  0  0  0  0
 56 53  1  0  0  0  0
 57 62  1  1  0  0  0
 57 60  1  0  0  0  0
 60 58  1  0  0  0  0
 60 59  1  0  0  0  0
 61 62  1  0  0  0  0
 63 64  1  0  0  0  0
 65 66  1  0  0  0  0
 65 64  1  0  0  0  0
 66 67  1  0  0  0  0
 66 68  1  0  0  0  0
 69 66  1  0  0  0  0
M  END
>  <MODEL>
2

>  <REMARK>
 VINA RESULT:      -0.8      1.842      3.009
  Name = 
  19 active torsions:
  status: ('A' for Active; 'I' for Inactive)
    1  A    between atoms: C_1  and  C_41
    2  A    between atoms: C_7  and  C_57
    3  A    between atoms: C_10  and  C_37
    4  A    between atoms: C_16  and  C_49
    5  A    between atoms: C_17  and  C_33
    6  A    between atoms: C_18  and  C_57
    7  A    between atoms: C_18  and  C_63
    8  A    between atoms: C_19  and  O_21
    9  A    between atoms: C_19  and  C_41
   10  A    between atoms: C_19  and  O_43
   11  A    between atoms: C_22  and  C_33
   12  A    between atoms: C_25  and  N_62
   13  A    between atoms: C_36  and  C_45
   14  A    between atoms: C_36  and  O_69
   15  A    between atoms: P_40  and  C_66
   16  A    between atoms: C_41  and  C_63
   17  A    between atoms: O_43  and  C_47
   18  A    between atoms: C_47  and  C_66
   19  A    between atoms: C_60  and  C_66
                            x       y       z     vdW  Elec       q    Type
                         _______ _______ _______ _____ _____    ______ ____

>  <TORSDO>
F 19

$$$$
