=
 OpenBabel11072411393D

 53 56  0  0  1  0  0  0  0  0999 V2000
  161.9610  209.9180  148.3120 C   0  0  0  0  0  2  0  0  0  0  0  0
  161.6680  209.0220  149.5090 C   0  0  1  0  0  3  0  0  0  0  0  0
  160.5210  206.0410  147.3150 C   0  0  2  0  0  3  0  0  0  0  0  0
  161.1470  207.3070  147.8060 C   0  0  0  0  0  3  0  0  0  0  0  0
  160.2920  205.5730  150.1980 C   0  0  0  0  0  3  0  0  0  0  0  0
  160.3250  206.9030  150.0850 C   0  0  0  0  0  3  0  0  0  0  0  0
  161.1250  207.6710  149.0990 C   0  0  0  0  0  0  0  0  0  0  0  0
  161.4220  203.5820  147.0160 C   0  0  1  0  0  3  0  0  0  0  0  0
  162.6310  204.4210  147.4220 C   0  0  2  0  0  3  0  0  0  0  0  0
  161.4310  202.2600  147.7770 C   0  0  0  0  0  1  0  0  0  0  0  0
  161.1650  204.6090  149.4400 C   0  0  0  0  0  2  0  0  0  0  0  0
  161.2320  204.8050  147.9160 C   0  0  1  0  0  0  0  0  0  0  0  0
  159.5990  205.0880  145.3040 O   0  0  0  0  0  1  0  0  0  0  0  0
  160.2420  206.0290  145.8370 C   0  0  0  0  0  0  0  0  0  0  0  0
  160.6990  207.0760  145.0470 O   0  0  0  0  0  0  0  0  0  0  0  0
  163.1900  204.2970  145.0070 C   0  0  0  0  0  1  0  0  0  0  0  0
  163.1410  205.2020  146.2210 C   0  0  0  0  0  2  0  0  0  0  0  0
  162.8330  208.8830  150.2760 O   0  0  0  0  0  0  0  0  0  0  0  0
  162.3930  208.5200  151.5510 C   0  0  0  0  0  2  0  0  0  0  0  0
  162.1270  209.7720  152.3600 C   0  0  0  0  0  2  0  0  0  0  0  0
  159.7750  209.8470  152.4620 O   0  0  0  0  0  0  0  0  0  0  0  0
  160.8200  209.6760  153.0690 C   0  0  0  0  0  0  0  0  0  0  0  0
  160.8040  209.4350  154.5460 C   0  0  0  0  0  2  0  0  0  0  0  0
  161.0630  211.5130  155.5760 C   0  0  0  0  0  1  0  0  0  0  0  0
  161.7730  210.2960  155.2050 N   0  0  0  0  0  0  0  0  0  0  0  0
  162.1400  209.6270  156.4460 C   0  0  0  0  0  2  0  0  0  0  0  0
  161.6570  208.1880  156.4100 C   0  0  0  0  0  1  0  0  0  0  0  0
  161.9930  211.3870  148.7220 C   0  0  0  0  0  2  0  0  0  0  0  0
  160.3170  211.5040  146.8590 C   0  0  0  0  0  1  0  0  0  0  0  0
  161.1810  212.3340  147.8110 C   0  0  1  0  0  0  0  0  0  0  0  0
  159.0860  213.1980  150.5370 C   0  0  2  0  0  3  0  0  0  0  0  0
  160.3840  213.0830  150.0120 O   0  0  0  0  0  0  0  0  0  0  0  0
  158.8400  213.3420  148.2130 C   0  0  0  0  0  2  0  0  0  0  0  0
  160.2920  213.3070  148.6230 C   0  0  2  0  0  3  0  0  0  0  0  0
  156.9220  213.1260  149.5780 O   0  0  0  0  0  1  0  0  0  0  0  0
  158.1660  213.7420  149.4770 C   0  0  1  0  0  3  0  0  0  0  0  0
  159.0940  214.0390  151.6510 O   0  0  0  0  0  0  0  0  0  0  0  0
  159.4790  213.2260  152.7080 C   0  0  0  0  0  1  0  0  0  0  0  0
  162.1940  213.1290  146.9500 C   0  0  2  0  0  3  0  0  0  0  0  0
  162.7000  214.4060  147.6190 C   0  0  0  0  0  2  0  0  0  0  0  0
  164.0210  214.1420  148.3050 C   0  0  0  0  0  1  0  0  0  0  0  0
  161.7230  213.3890  145.5520 C   0  0  0  0  0  0  0  0  0  0  0  0
  160.7910  214.2180  145.3690 O   0  0  0  0  0  0  0  0  0  0  0  0
  162.3470  212.7730  144.4700 O   0  0  0  0  0  0  0  0  0  0  0  0
  161.7130  212.6870  143.1980 C   0  0  0  0  0  2  0  0  0  0  0  0
  162.9190  214.1710  141.7940 C   0  0  0  0  0  2  0  0  0  0  0  0
  162.6840  212.7580  142.0980 N   0  0  0  0  0  0  0  0  0  0  0  0
  162.2200  212.1470  140.8400 C   0  0  2  0  0  3  0  0  0  0  0  0
  161.8970  212.9530  138.6180 O   0  0  0  0  0  1  0  0  0  0  0  0
  162.4650  214.4520  140.3650 C   0  0  0  0  0  2  0  0  0  0  0  0
  161.6610  213.2450  139.9630 C   0  0  2  0  0  3  0  0  0  0  0  0
  161.7200  209.8590  140.3150 O   0  0  0  0  0  1  0  0  0  0  0  0
  161.2390  210.9790  140.9970 C   0  0  0  0  0  2  0  0  0  0  0  0
  1 28  1  0  0  0  0
  2  1  1  6  0  0  0
  2 18  1  0  0  0  0
  3 14  1  6  0  0  0
  3  4  1  0  0  0  0
  3 12  1  0  0  0  0
  4  7  2  0  0  0  0
  6  5  2  0  0  0  0
  7  2  1  0  0  0  0
  7  6  1  0  0  0  0
  8  9  1  0  0  0  0
  8 10  1  1  0  0  0
  8 12  1  0  0  0  0
  9 17  1  6  0  0  0
  9 12  1  0  0  0  0
 11  5  1  0  0  0  0
 12 11  1  1  0  0  0
 13 14  1  0  0  0  0
 15 14  2  0  0  0  0
 16 17  1  0  0  0  0
 18 19  1  0  0  0  0
 19 20  1  0  0  0  0
 20 22  1  0  0  0  0
 21 22  2  0  0  0  0
 22 23  1  0  0  0  0
 23 25  1  0  0  0  0
 25 24  1  0  0  0  0
 25 26  1  0  0  0  0
 27 26  1  0  0  0  0
 30 29  1  6  0  0  0
 30 28  1  0  0  0  0
 31 37  1  1  0  0  0
 32 31  1  0  0  0  0
 33 34  1  0  0  0  0
 33 36  1  0  0  0  0
 34 30  1  6  0  0  0
 34 32  1  0  0  0  0
 36 35  1  1  0  0  0
 36 31  1  0  0  0  0
 37 38  1  0  0  0  0
 39 40  1  1  0  0  0
 39 30  1  0  0  0  0
 40 41  1  0  0  0  0
 42 39  1  0  0  0  0
 43 42  2  0  0  0  0
 44 42  1  0  0  0  0
 45 44  1  0  0  0  0
 46 47  1  0  0  0  0
 47 45  1  0  0  0  0
 48 53  1  1  0  0  0
 48 47  1  0  0  0  0
 50 46  1  0  0  0  0
 51 49  1  6  0  0  0
 51 50  1  0  0  0  0
 51 48  1  0  0  0  0
 52 53  1  0  0  0  0
M  END
>  <MODEL>
1

>  <REMARK>
 VINA RESULT:      -4.7      0.000      0.000
  Name = 
  22 active torsions:
  status: ('A' for Active; 'I' for Inactive)
    1  A    between atoms: C_3  and  C_18
    2  A    between atoms: C_3  and  C_25
    3  A    between atoms: C_4  and  C_18
    4  A    between atoms: C_4  and  N_51
    5  A    between atoms: C_5  and  C_16
    6  A    between atoms: C_5  and  C_24
    7  A    between atoms: C_6  and  C_13
    8  A    between atoms: N_7  and  C_21
    9  A    between atoms: C_9  and  O_35
   10  A    between atoms: C_9  and  C_48
   11  A    between atoms: C_10  and  O_29
   12  A    between atoms: C_16  and  C_31
   13  A    between atoms: C_16  and  O_45
   14  A    between atoms: C_17  and  C_39
   15  A    between atoms: C_20  and  N_51
   16  A    between atoms: C_21  and  O_35
   17  A    between atoms: C_22  and  C_48
   18  A    between atoms: C_24  and  C_34
   19  A    between atoms: C_25  and  O_45
   20  A    between atoms: C_28  and  C_34
   21  A    between atoms: C_33  and  C_41
   22  A    between atoms: C_34  and  C_48
                            x       y       z     vdW  Elec       q    Type
                         _______ _______ _______ _____ _____    ______ ____

>  <TORSDO>
F 22

$$$$
=
 OpenBabel11072411393D

 53 56  0  0  1  0  0  0  0  0999 V2000
  162.1440  209.2690  149.9820 C   0  0  0  0  0  2  0  0  0  0  0  0
  161.3440  210.5250  150.2990 C   0  0  1  0  0  3  0  0  0  0  0  0
  160.2990  212.0660  153.6990 C   0  0  2  0  0  3  0  0  0  0  0  0
  160.3470  211.6480  152.2630 C   0  0  0  0  0  3  0  0  0  0  0  0
  162.3350  209.9680  153.9020 C   0  0  0  0  0  3  0  0  0  0  0  0
  162.4180  210.3820  152.6350 C   0  0  0  0  0  3  0  0  0  0  0  0
  161.2790  210.8080  151.7840 C   0  0  0  0  0  0  0  0  0  0  0  0
  159.1030  211.0720  155.8270 C   0  0  1  0  0  3  0  0  0  0  0  0
  158.6100  210.2390  154.6470 C   0  0  2  0  0  3  0  0  0  0  0  0
  159.4250  210.1580  157.0050 C   0  0  0  0  0  1  0  0  0  0  0  0
  161.0580  209.7240  154.6600 C   0  0  0  0  0  2  0  0  0  0  0  0
  160.0140  210.8530  154.6170 C   0  0  1  0  0  0  0  0  0  0  0  0
  159.5120  213.8800  155.0720 O   0  0  0  0  0  1  0  0  0  0  0  0
  159.5100  213.3220  153.9450 C   0  0  0  0  0  0  0  0  0  0  0  0
  158.7690  213.8770  152.9100 O   0  0  0  0  0  0  0  0  0  0  0  0
  156.4560  211.4550  154.8460 C   0  0  0  0  0  1  0  0  0  0  0  0
  157.5400  211.0090  153.8880 C   0  0  0  0  0  2  0  0  0  0  0  0
  161.8950  211.6110  149.6060 O   0  0  0  0  0  0  0  0  0  0  0  0
  160.8050  212.4000  149.2310 C   0  0  0  0  0  2  0  0  0  0  0  0
  161.2510  213.3970  148.1810 C   0  0  0  0  0  2  0  0  0  0  0  0
  160.1880  214.0440  146.1820 O   0  0  0  0  0  0  0  0  0  0  0  0
  160.0870  213.8850  147.3880 C   0  0  0  0  0  0  0  0  0  0  0  0
  158.8180  214.2420  148.0940 C   0  0  0  0  0  2  0  0  0  0  0  0
  157.6780  212.5150  147.0150 C   0  0  0  0  0  1  0  0  0  0  0  0
  157.6730  213.9540  147.2460 N   0  0  0  0  0  0  0  0  0  0  0  0
  156.4880  214.2480  148.0400 C   0  0  0  0  0  2  0  0  0  0  0  0
  156.6290  213.6210  149.4150 C   0  0  0  0  0  1  0  0  0  0  0  0
  161.4680  208.4500  148.8860 C   0  0  0  0  0  2  0  0  0  0  0  0
  163.3380  206.8040  149.1810 C   0  0  0  0  0  1  0  0  0  0  0  0
  161.8490  206.9540  148.8660 C   0  0  1  0  0  0  0  0  0  0  0  0
  161.4140  204.9870  151.7830 C   0  0  2  0  0  3  0  0  0  0  0  0
  161.4660  206.2610  151.1920 O   0  0  0  0  0  0  0  0  0  0  0  0
  160.8740  204.6580  149.5280 C   0  0  0  0  0  2  0  0  0  0  0  0
  161.0090  206.1230  149.8660 C   0  0  2  0  0  3  0  0  0  0  0  0
  161.2780  202.7870  150.9160 O   0  0  0  0  0  1  0  0  0  0  0  0
  160.6800  204.0440  150.8690 C   0  0  1  0  0  3  0  0  0  0  0  0
  160.7740  205.0600  153.0210 O   0  0  0  0  0  0  0  0  0  0  0  0
  161.1550  206.2870  153.5470 C   0  0  0  0  0  1  0  0  0  0  0  0
  161.6230  206.4380  147.4220 C   0  0  2  0  0  3  0  0  0  0  0  0
  160.1600  206.4590  146.9840 C   0  0  0  0  0  2  0  0  0  0  0  0
  160.0610  206.2110  145.4960 C   0  0  0  0  0  1  0  0  0  0  0  0
  162.2620  205.1110  147.1490 C   0  0  0  0  0  0  0  0  0  0  0  0
  163.4510  205.0850  146.7300 O   0  0  0  0  0  0  0  0  0  0  0  0
  161.5760  203.9290  147.4140 O   0  0  0  0  0  0  0  0  0  0  0  0
  161.3540  202.9560  146.3980 C   0  0  0  0  0  2  0  0  0  0  0  0
  161.4880  201.0940  147.8620 C   0  0  0  0  0  2  0  0  0  0  0  0
  160.6210  201.7910  146.9090 N   0  0  0  0  0  0  0  0  0  0  0  0
  160.2710  200.7960  145.8800 C   0  0  2  0  0  3  0  0  0  0  0  0
  160.7550  198.4790  145.5720 O   0  0  0  0  0  1  0  0  0  0  0  0
  161.7790  199.6920  147.3340 C   0  0  0  0  0  2  0  0  0  0  0  0
  161.3270  199.7110  145.8980 C   0  0  2  0  0  3  0  0  0  0  0  0
  159.3310  202.5550  144.5450 O   0  0  0  0  0  1  0  0  0  0  0  0
  160.0450  201.3560  144.4710 C   0  0  0  0  0  2  0  0  0  0  0  0
  2  1  1  1  0  0  0
  2  7  1  0  0  0  0
  3 14  1  6  0  0  0
  3 12  1  0  0  0  0
  4  3  1  0  0  0  0
  5 11  1  0  0  0  0
  6  5  2  0  0  0  0
  7  4  2  0  0  0  0
  7  6  1  0  0  0  0
  8 10  1  1  0  0  0
  9 17  1  6  0  0  0
  9  8  1  0  0  0  0
 12  9  1  0  0  0  0
 12 11  1  1  0  0  0
 12  8  1  0  0  0  0
 14 13  1  0  0  0  0
 15 14  2  0  0  0  0
 17 16  1  0  0  0  0
 18  2  1  0  0  0  0
 19 18  1  0  0  0  0
 20 19  1  0  0  0  0
 21 22  2  0  0  0  0
 22 23  1  0  0  0  0
 22 20  1  0  0  0  0
 24 25  1  0  0  0  0
 25 26  1  0  0  0  0
 25 23  1  0  0  0  0
 26 27  1  0  0  0  0
 28  1  1  0  0  0  0
 30 28  1  0  0  0  0
 30 29  1  1  0  0  0
 31 37  1  1  0  0  0
 32 31  1  0  0  0  0
 33 34  1  0  0  0  0
 33 36  1  0  0  0  0
 34 30  1  6  0  0  0
 34 32  1  0  0  0  0
 36 35  1  6  0  0  0
 36 31  1  0  0  0  0
 37 38  1  0  0  0  0
 39 40  1  1  0  0  0
 39 30  1  0  0  0  0
 41 40  1  0  0  0  0
 42 44  1  0  0  0  0
 42 39  1  0  0  0  0
 43 42  2  0  0  0  0
 45 47  1  0  0  0  0
 45 44  1  0  0  0  0
 47 46  1  0  0  0  0
 48 53  1  6  0  0  0
 48 51  1  0  0  0  0
 48 47  1  0  0  0  0
 50 46  1  0  0  0  0
 51 49  1  1  0  0  0
 51 50  1  0  0  0  0
 53 52  1  0  0  0  0
M  END
>  <MODEL>
2

>  <REMARK>
 VINA RESULT:      -2.6      3.607      9.516
  Name = 
  22 active torsions:
  status: ('A' for Active; 'I' for Inactive)
    1  A    between atoms: C_3  and  C_18
    2  A    between atoms: C_3  and  C_25
    3  A    between atoms: C_4  and  C_18
    4  A    between atoms: C_4  and  N_51
    5  A    between atoms: C_5  and  C_16
    6  A    between atoms: C_5  and  C_24
    7  A    between atoms: C_6  and  C_13
    8  A    between atoms: N_7  and  C_21
    9  A    between atoms: C_9  and  O_35
   10  A    between atoms: C_9  and  C_48
   11  A    between atoms: C_10  and  O_29
   12  A    between atoms: C_16  and  C_31
   13  A    between atoms: C_16  and  O_45
   14  A    between atoms: C_17  and  C_39
   15  A    between atoms: C_20  and  N_51
   16  A    between atoms: C_21  and  O_35
   17  A    between atoms: C_22  and  C_48
   18  A    between atoms: C_24  and  C_34
   19  A    between atoms: C_25  and  O_45
   20  A    between atoms: C_28  and  C_34
   21  A    between atoms: C_33  and  C_41
   22  A    between atoms: C_34  and  C_48
                            x       y       z     vdW  Elec       q    Type
                         _______ _______ _______ _____ _____    ______ ____

>  <TORSDO>
F 22

$$$$
=
 OpenBabel11072411393D

 53 56  0  0  1  0  0  0  0  0999 V2000
  160.7930  209.2400  150.8030 C   0  0  0  0  0  2  0  0  0  0  0  0
  161.8260  208.3650  150.1060 C   0  0  1  0  0  3  0  0  0  0  0  0
  160.5610  205.6810  147.6120 C   0  0  2  0  0  3  0  0  0  0  0  0
  161.2400  206.8600  148.2340 C   0  0  0  0  0  3  0  0  0  0  0  0
  160.2910  204.9280  150.4300 C   0  0  0  0  0  3  0  0  0  0  0  0
  160.3850  206.2600  150.4560 C   0  0  0  0  0  3  0  0  0  0  0  0
  161.2260  207.0890  149.5570 C   0  0  0  0  0  0  0  0  0  0  0  0
  161.3540  203.2280  147.0620 C   0  0  1  0  0  3  0  0  0  0  0  0
  162.5960  203.9640  147.5560 C   0  0  2  0  0  3  0  0  0  0  0  0
  161.2980  201.8350  147.6820 C   0  0  0  0  0  1  0  0  0  0  0  0
  161.1250  204.0100  149.5790 C   0  0  0  0  0  2  0  0  0  0  0  0
  161.2120  204.3590  148.0840 C   0  0  1  0  0  0  0  0  0  0  0  0
  159.8790  204.8680  145.4500 O   0  0  0  0  0  0  0  0  0  0  0  0
  160.2930  205.8350  146.1400 C   0  0  0  0  0  0  0  0  0  0  0  0
  160.5030  207.0660  145.5320 O   0  0  0  0  0  1  0  0  0  0  0  0
  163.8480  203.9790  145.4140 C   0  0  0  0  0  1  0  0  0  0  0  0
  163.1490  204.8420  146.4430 C   0  0  0  0  0  2  0  0  0  0  0  0
  162.4470  209.1040  149.0890 O   0  0  0  0  0  0  0  0  0  0  0  0
  162.2200  210.4430  149.4160 C   0  0  0  0  0  2  0  0  0  0  0  0
  161.4600  211.1080  148.2870 C   0  0  0  0  0  2  0  0  0  0  0  0
  162.3630  213.1500  149.0360 O   0  0  0  0  0  0  0  0  0  0  0  0
  161.9230  212.5120  148.0940 C   0  0  0  0  0  0  0  0  0  0  0  0
  161.7780  213.1520  146.7500 C   0  0  0  0  0  2  0  0  0  0  0  0
  159.7380  214.2530  146.4810 C   0  0  0  0  0  1  0  0  0  0  0  0
  160.4200  212.9850  146.2580 N   0  0  0  0  0  0  0  0  0  0  0  0
  160.5240  212.8110  144.8160 C   0  0  0  0  0  2  0  0  0  0  0  0
  161.9490  213.0860  144.3720 C   0  0  0  0  0  1  0  0  0  0  0  0
  160.8540  209.0610  152.3160 C   0  0  0  0  0  2  0  0  0  0  0  0
  162.2920  211.0510  152.8310 C   0  0  0  0  0  1  0  0  0  0  0  0
  160.9510  210.3740  153.1220 C   0  0  1  0  0  0  0  0  0  0  0  0
  159.6020  213.4950  152.1200 C   0  0  2  0  0  3  0  0  0  0  0  0
  160.1050  212.2350  151.7580 O   0  0  0  0  0  0  0  0  0  0  0  0
  159.2560  212.1200  153.9840 C   0  0  0  0  0  2  0  0  0  0  0  0
  159.7870  211.3440  152.8030 C   0  0  2  0  0  3  0  0  0  0  0  0
  158.9090  214.4510  154.1740 O   0  0  0  0  0  1  0  0  0  0  0  0
  158.7290  213.3520  153.3380 C   0  0  1  0  0  3  0  0  0  0  0  0
  158.8730  214.0420  151.0630 O   0  0  0  0  0  0  0  0  0  0  0  0
  159.2190  213.2750  149.9590 C   0  0  0  0  0  1  0  0  0  0  0  0
  160.9340  209.9980  154.6250 C   0  0  2  0  0  3  0  0  0  0  0  0
  162.2990  209.5790  155.1690 C   0  0  0  0  0  2  0  0  0  0  0  0
  162.5730  210.2810  156.4800 C   0  0  0  0  0  1  0  0  0  0  0  0
  159.8690  209.0100  154.9880 C   0  0  0  0  0  0  0  0  0  0  0  0
  160.1590  207.7830  155.0030 O   0  0  0  0  0  0  0  0  0  0  0  0
  158.6010  209.4430  155.3640 O   0  0  0  0  0  0  0  0  0  0  0  0
  158.4180  210.6410  156.1120 C   0  0  0  0  0  2  0  0  0  0  0  0
  156.1430  210.2680  155.5510 C   0  0  0  0  0  2  0  0  0  0  0  0
  157.0370  210.7790  156.5930 N   0  0  0  0  0  0  0  0  0  0  0  0
  156.6170  212.1700  156.8380 C   0  0  2  0  0  3  0  0  0  0  0  0
  154.8730  213.5570  155.9850 O   0  0  0  0  0  1  0  0  0  0  0  0
  155.2520  211.4070  155.0610 C   0  0  0  0  0  2  0  0  0  0  0  0
  155.8770  212.6600  155.6130 C   0  0  2  0  0  3  0  0  0  0  0  0
  157.3230  214.4530  157.0660 O   0  0  0  0  0  1  0  0  0  0  0  0
  157.7340  213.1310  157.2600 C   0  0  0  0  0  2  0  0  0  0  0  0
  1 28  1  0  0  0  0
  2  1  1  6  0  0  0
  3 14  1  6  0  0  0
  3 12  1  0  0  0  0
  3  4  1  0  0  0  0
  4  7  2  0  0  0  0
  5  6  2  0  0  0  0
  7  2  1  0  0  0  0
  7  6  1  0  0  0  0
  8  9  1  0  0  0  0
  8 10  1  1  0  0  0
  8 12  1  0  0  0  0
  9 17  1  6  0  0  0
  9 12  1  0  0  0  0
 11  5  1  0  0  0  0
 12 11  1  1  0  0  0
 13 14  2  0  0  0  0
 15 14  1  0  0  0  0
 16 17  1  0  0  0  0
 18 19  1  0  0  0  0
 18  2  1  0  0  0  0
 20 19  1  0  0  0  0
 22 20  1  0  0  0  0
 22 21  2  0  0  0  0
 23 22  1  0  0  0  0
 25 24  1  0  0  0  0
 25 23  1  0  0  0  0
 26 25  1  0  0  0  0
 27 26  1  0  0  0  0
 28 30  1  0  0  0  0
 30 29  1  6  0  0  0
 30 39  1  0  0  0  0
 31 37  1  6  0  0  0
 31 36  1  0  0  0  0
 32 31  1  0  0  0  0
 32 34  1  0  0  0  0
 34 30  1  1  0  0  0
 34 33  1  0  0  0  0
 36 33  1  0  0  0  0
 36 35  1  1  0  0  0
 38 37  1  0  0  0  0
 39 42  1  0  0  0  0
 39 40  1  6  0  0  0
 40 41  1  0  0  0  0
 42 43  2  0  0  0  0
 42 44  1  0  0  0  0
 44 45  1  0  0  0  0
 45 47  1  0  0  0  0
 46 47  1  0  0  0  0
 47 48  1  0  0  0  0
 48 53  1  6  0  0  0
 50 46  1  0  0  0  0
 50 51  1  0  0  0  0
 51 49  1  1  0  0  0
 51 48  1  0  0  0  0
 52 53  1  0  0  0  0
M  END
>  <MODEL>
3

>  <REMARK>
 VINA RESULT:      -2.0      2.563      8.670
  Name = 
  22 active torsions:
  status: ('A' for Active; 'I' for Inactive)
    1  A    between atoms: C_3  and  C_18
    2  A    between atoms: C_3  and  C_25
    3  A    between atoms: C_4  and  C_18
    4  A    between atoms: C_4  and  N_51
    5  A    between atoms: C_5  and  C_16
    6  A    between atoms: C_5  and  C_24
    7  A    between atoms: C_6  and  C_13
    8  A    between atoms: N_7  and  C_21
    9  A    between atoms: C_9  and  O_35
   10  A    between atoms: C_9  and  C_48
   11  A    between atoms: C_10  and  O_29
   12  A    between atoms: C_16  and  C_31
   13  A    between atoms: C_16  and  O_45
   14  A    between atoms: C_17  and  C_39
   15  A    between atoms: C_20  and  N_51
   16  A    between atoms: C_21  and  O_35
   17  A    between atoms: C_22  and  C_48
   18  A    between atoms: C_24  and  C_34
   19  A    between atoms: C_25  and  O_45
   20  A    between atoms: C_28  and  C_34
   21  A    between atoms: C_33  and  C_41
   22  A    between atoms: C_34  and  C_48
                            x       y       z     vdW  Elec       q    Type
                         _______ _______ _______ _____ _____    ______ ____

>  <TORSDO>
F 22

$$$$
=
 OpenBabel11072411393D

 53 56  0  0  1  0  0  0  0  0999 V2000
  161.9450  209.0930  150.5730 C   0  0  0  0  0  2  0  0  0  0  0  0
  161.0460  210.3170  150.6870 C   0  0  1  0  0  3  0  0  0  0  0  0
  160.1700  209.6600  154.4050 C   0  0  2  0  0  3  0  0  0  0  0  0
  160.8500  209.7010  153.0730 C   0  0  0  0  0  3  0  0  0  0  0  0
  158.6020  211.7990  153.1580 C   0  0  0  0  0  3  0  0  0  0  0  0
  159.0520  211.0800  152.1270 C   0  0  0  0  0  3  0  0  0  0  0  0
  160.3780  210.4180  152.0400 C   0  0  0  0  0  0  0  0  0  0  0  0
  160.3850  211.1270  156.5840 C   0  0  1  0  0  3  0  0  0  0  0  0
  161.4820  211.6180  155.6440 C   0  0  2  0  0  3  0  0  0  0  0  0
  159.6950  212.3190  157.2400 C   0  0  0  0  0  1  0  0  0  0  0  0
  159.4080  212.1910  154.3670 C   0  0  0  0  0  2  0  0  0  0  0  0
  160.1760  211.0580  155.0700 C   0  0  1  0  0  0  0  0  0  0  0  0
  161.6570  207.8890  155.0770 O   0  0  0  0  0  0  0  0  0  0  0  0
  160.5630  208.4850  155.2570 C   0  0  0  0  0  0  0  0  0  0  0  0
  159.7070  208.0520  156.2610 O   0  0  0  0  0  1  0  0  0  0  0  0
  163.4510  210.8540  156.9460 C   0  0  0  0  0  1  0  0  0  0  0  0
  162.6540  210.6500  155.6740 C   0  0  0  0  0  2  0  0  0  0  0  0
  161.7960  211.4680  150.4110 O   0  0  0  0  0  0  0  0  0  0  0  0
  160.8670  212.5100  150.3640 C   0  0  0  0  0  2  0  0  0  0  0  0
  161.0720  213.3020  149.0890 C   0  0  0  0  0  2  0  0  0  0  0  0
  158.7960  213.2270  148.4900 O   0  0  0  0  0  0  0  0  0  0  0  0
  159.9520  213.0660  148.1350 C   0  0  0  0  0  0  0  0  0  0  0  0
  160.2570  212.5620  146.7590 C   0  0  0  0  0  2  0  0  0  0  0  0
  161.0770  213.1490  144.6550 C   0  0  0  0  0  1  0  0  0  0  0  0
  160.4140  213.6770  145.8390 N   0  0  0  0  0  0  0  0  0  0  0  0
  159.0710  214.0670  145.4320 C   0  0  0  0  0  2  0  0  0  0  0  0
  159.0250  214.2310  143.9240 C   0  0  0  0  0  1  0  0  0  0  0  0
  161.2160  207.9380  149.8940 C   0  0  0  0  0  2  0  0  0  0  0  0
  163.5770  207.2550  149.3920 C   0  0  0  0  0  1  0  0  0  0  0  0
  162.1240  206.7770  149.4350 C   0  0  1  0  0  0  0  0  0  0  0  0
  160.3770  204.6190  151.6380 C   0  0  2  0  0  3  0  0  0  0  0  0
  160.7100  204.9740  150.3200 O   0  0  0  0  0  0  0  0  0  0  0  0
  162.4170  205.7590  151.7880 C   0  0  0  0  0  2  0  0  0  0  0  0
  162.0010  205.5380  150.3540 C   0  0  2  0  0  3  0  0  0  0  0  0
  161.2220  205.2420  153.7610 O   0  0  0  0  0  1  0  0  0  0  0  0
  161.5950  204.7530  152.5120 C   0  0  1  0  0  3  0  0  0  0  0  0
  159.8960  203.3090  151.6750 O   0  0  0  0  0  0  0  0  0  0  0  0
  160.7780  202.5840  150.8850 C   0  0  0  0  0  1  0  0  0  0  0  0
  161.7110  206.4100  147.9870 C   0  0  2  0  0  3  0  0  0  0  0  0
  160.1990  206.3390  147.7790 C   0  0  0  0  0  2  0  0  0  0  0  0
  159.8760  206.3850  146.3030 C   0  0  0  0  0  1  0  0  0  0  0  0
  162.4000  205.1920  147.4540 C   0  0  0  0  0  0  0  0  0  0  0  0
  163.5120  205.3270  146.8760 O   0  0  0  0  0  0  0  0  0  0  0  0
  161.8510  203.9270  147.6510 O   0  0  0  0  0  0  0  0  0  0  0  0
  161.3790  203.1450  146.5580 C   0  0  0  0  0  2  0  0  0  0  0  0
  161.3760  201.2750  148.0180 C   0  0  0  0  0  2  0  0  0  0  0  0
  160.5890  201.9930  147.0130 N   0  0  0  0  0  0  0  0  0  0  0  0
  160.2900  201.0100  145.9570 C   0  0  2  0  0  3  0  0  0  0  0  0
  160.7450  198.6850  145.6700 O   0  0  0  0  0  1  0  0  0  0  0  0
  161.6720  199.8690  147.5020 C   0  0  0  0  0  2  0  0  0  0  0  0
  161.3190  199.9040  146.0400 C   0  0  2  0  0  3  0  0  0  0  0  0
  159.2130  202.5980  144.5150 O   0  0  0  0  0  1  0  0  0  0  0  0
  160.1700  201.5810  144.5390 C   0  0  0  0  0  2  0  0  0  0  0  0
  2  1  1  1  0  0  0
  2  7  1  0  0  0  0
  3 12  1  0  0  0  0
  3 14  1  1  0  0  0
  4  3  1  0  0  0  0
  5 11  1  0  0  0  0
  6  5  2  0  0  0  0
  7  6  1  0  0  0  0
  7  4  2  0  0  0  0
  8 10  1  1  0  0  0
  9 17  1  6  0  0  0
  9  8  1  0  0  0  0
 12 11  1  6  0  0  0
 12  9  1  0  0  0  0
 12  8  1  0  0  0  0
 13 14  2  0  0  0  0
 14 15  1  0  0  0  0
 17 16  1  0  0  0  0
 18  2  1  0  0  0  0
 19 18  1  0  0  0  0
 20 19  1  0  0  0  0
 22 21  2  0  0  0  0
 22 20  1  0  0  0  0
 23 22  1  0  0  0  0
 24 25  1  0  0  0  0
 25 23  1  0  0  0  0
 26 25  1  0  0  0  0
 27 26  1  0  0  0  0
 28  1  1  0  0  0  0
 30 29  1  6  0  0  0
 30 28  1  0  0  0  0
 31 37  1  6  0  0  0
 31 36  1  0  0  0  0
 32 34  1  0  0  0  0
 32 31  1  0  0  0  0
 33 36  1  0  0  0  0
 34 30  1  6  0  0  0
 34 33  1  0  0  0  0
 36 35  1  1  0  0  0
 38 37  1  0  0  0  0
 39 40  1  1  0  0  0
 39 30  1  0  0  0  0
 41 40  1  0  0  0  0
 42 44  1  0  0  0  0
 42 39  1  0  0  0  0
 43 42  2  0  0  0  0
 45 47  1  0  0  0  0
 45 44  1  0  0  0  0
 47 46  1  0  0  0  0
 48 53  1  6  0  0  0
 48 51  1  0  0  0  0
 48 47  1  0  0  0  0
 50 46  1  0  0  0  0
 51 49  1  1  0  0  0
 51 50  1  0  0  0  0
 52 53  1  0  0  0  0
M  END
>  <MODEL>
4

>  <REMARK>
 VINA RESULT:      -2.0      3.295      9.722
  Name = 
  22 active torsions:
  status: ('A' for Active; 'I' for Inactive)
    1  A    between atoms: C_3  and  C_18
    2  A    between atoms: C_3  and  C_25
    3  A    between atoms: C_4  and  C_18
    4  A    between atoms: C_4  and  N_51
    5  A    between atoms: C_5  and  C_16
    6  A    between atoms: C_5  and  C_24
    7  A    between atoms: C_6  and  C_13
    8  A    between atoms: N_7  and  C_21
    9  A    between atoms: C_9  and  O_35
   10  A    between atoms: C_9  and  C_48
   11  A    between atoms: C_10  and  O_29
   12  A    between atoms: C_16  and  C_31
   13  A    between atoms: C_16  and  O_45
   14  A    between atoms: C_17  and  C_39
   15  A    between atoms: C_20  and  N_51
   16  A    between atoms: C_21  and  O_35
   17  A    between atoms: C_22  and  C_48
   18  A    between atoms: C_24  and  C_34
   19  A    between atoms: C_25  and  O_45
   20  A    between atoms: C_28  and  C_34
   21  A    between atoms: C_33  and  C_41
   22  A    between atoms: C_34  and  C_48
                            x       y       z     vdW  Elec       q    Type
                         _______ _______ _______ _____ _____    ______ ____

>  <TORSDO>
F 22

$$$$
=
 OpenBabel11072411393D

 53 56  0  0  1  0  0  0  0  0999 V2000
  160.7620  208.5130  151.0800 C   0  0  0  0  0  2  0  0  0  0  0  0
  161.0180  210.0020  150.8880 C   0  0  1  0  0  3  0  0  0  0  0  0
  159.8000  212.5790  153.5150 C   0  0  2  0  0  3  0  0  0  0  0  0
  159.9130  211.6910  152.3170 C   0  0  0  0  0  3  0  0  0  0  0  0
  161.9010  210.7780  154.4790 C   0  0  0  0  0  3  0  0  0  0  0  0
  162.0140  210.7290  153.1490 C   0  0  0  0  0  3  0  0  0  0  0  0
  160.8910  210.7810  152.1790 C   0  0  0  0  0  0  0  0  0  0  0  0
  158.5660  212.3330  155.8310 C   0  0  1  0  0  3  0  0  0  0  0  0
  158.1450  211.1200  155.0060 C   0  0  2  0  0  3  0  0  0  0  0  0
  158.8800  211.9010  157.2610 C   0  0  0  0  0  1  0  0  0  0  0  0
  160.6080  210.7540  155.2480 C   0  0  0  0  0  2  0  0  0  0  0  0
  159.5260  211.7490  154.7920 C   0  0  1  0  0  0  0  0  0  0  0  0
  158.7560  214.2510  152.1320 O   0  0  0  0  0  0  0  0  0  0  0  0
  158.9580  213.8040  153.2910 C   0  0  0  0  0  0  0  0  0  0  0  0
  158.3910  214.4530  154.3810 O   0  0  0  0  0  1  0  0  0  0  0  0
  155.7540  210.8930  154.3820 C   0  0  0  0  0  1  0  0  0  0  0  0
  157.0760  211.5280  154.0040 C   0  0  0  0  0  2  0  0  0  0  0  0
  162.2850  210.1830  150.3180 O   0  0  0  0  0  0  0  0  0  0  0  0
  162.0470  210.4520  148.9680 C   0  0  0  0  0  2  0  0  0  0  0  0
  161.6920  211.9160  148.8090 C   0  0  0  0  0  2  0  0  0  0  0  0
  163.8340  212.3640  147.9370 O   0  0  0  0  0  0  0  0  0  0  0  0
  162.6370  212.5900  147.8720 C   0  0  0  0  0  0  0  0  0  0  0  0
  162.1090  213.5970  146.9000 C   0  0  0  0  0  2  0  0  0  0  0  0
  160.5920  213.6420  145.1270 C   0  0  0  0  0  1  0  0  0  0  0  0
  161.7640  212.9500  145.6440 N   0  0  0  0  0  0  0  0  0  0  0  0
  162.8590  213.2280  144.7240 C   0  0  0  0  0  2  0  0  0  0  0  0
  162.3760  213.0590  143.2950 C   0  0  0  0  0  1  0  0  0  0  0  0
  162.0030  207.8080  151.6170 C   0  0  0  0  0  2  0  0  0  0  0  0
  163.0740  206.2770  153.2910 C   0  0  0  0  0  1  0  0  0  0  0  0
  161.7430  206.8450  152.7960 C   0  0  1  0  0  0  0  0  0  0  0  0
  160.7560  207.1730  156.1840 C   0  0  2  0  0  3  0  0  0  0  0  0
  161.6990  207.4420  155.1790 O   0  0  0  0  0  0  0  0  0  0  0  0
  159.5700  207.0810  154.1680 C   0  0  0  0  0  2  0  0  0  0  0  0
  160.9940  207.5350  153.9620 C   0  0  2  0  0  3  0  0  0  0  0  0
  158.5330  206.3550  156.1640 O   0  0  0  0  0  1  0  0  0  0  0  0
  159.3690  207.3270  155.6200 C   0  0  1  0  0  3  0  0  0  0  0  0
  160.9410  208.0420  157.2600 O   0  0  0  0  0  0  0  0  0  0  0  0
  162.2820  208.3990  157.2020 C   0  0  0  0  0  1  0  0  0  0  0  0
  160.9050  205.6610  152.2500 C   0  0  2  0  0  3  0  0  0  0  0  0
  160.6940  204.5380  153.2650 C   0  0  0  0  0  2  0  0  0  0  0  0
  160.4150  203.2370  152.5480 C   0  0  0  0  0  1  0  0  0  0  0  0
  161.3910  205.1330  150.9360 C   0  0  0  0  0  0  0  0  0  0  0  0
  162.5630  204.6740  150.8620 O   0  0  0  0  0  0  0  0  0  0  0  0
  160.5420  205.0900  149.8330 O   0  0  0  0  0  0  0  0  0  0  0  0
  160.7800  205.8930  148.6820 C   0  0  0  0  0  2  0  0  0  0  0  0
  162.0210  206.2230  146.6870 C   0  0  0  0  0  2  0  0  0  0  0  0
  161.8730  205.3580  147.8600 N   0  0  0  0  0  0  0  0  0  0  0  0
  161.6280  204.0040  147.3330 C   0  0  2  0  0  3  0  0  0  0  0  0
  161.5220  203.0640  145.1430 O   0  0  0  0  0  1  0  0  0  0  0  0
  161.7300  205.4080  145.4310 C   0  0  0  0  0  2  0  0  0  0  0  0
  161.0920  204.1380  145.9250 C   0  0  2  0  0  3  0  0  0  0  0  0
  161.4310  201.9410  148.5440 O   0  0  0  0  0  1  0  0  0  0  0  0
  160.7410  203.1080  148.2060 C   0  0  0  0  0  2  0  0  0  0  0  0
  1 28  1  0  0  0  0
  2  1  1  1  0  0  0
  2  7  1  0  0  0  0
  3 14  1  6  0  0  0
  3 12  1  0  0  0  0
  4  3  1  0  0  0  0
  5 11  1  0  0  0  0
  6  5  2  0  0  0  0
  7  4  2  0  0  0  0
  7  6  1  0  0  0  0
  8 10  1  1  0  0  0
  9 17  1  6  0  0  0
  9  8  1  0  0  0  0
 12  9  1  0  0  0  0
 12 11  1  1  0  0  0
 12  8  1  0  0  0  0
 13 14  2  0  0  0  0
 14 15  1  0  0  0  0
 17 16  1  0  0  0  0
 18  2  1  0  0  0  0
 19 18  1  0  0  0  0
 20 19  1  0  0  0  0
 22 21  2  0  0  0  0
 22 20  1  0  0  0  0
 23 22  1  0  0  0  0
 24 25  1  0  0  0  0
 25 23  1  0  0  0  0
 26 25  1  0  0  0  0
 27 26  1  0  0  0  0
 28 30  1  0  0  0  0
 30 29  1  1  0  0  0
 31 37  1  1  0  0  0
 32 31  1  0  0  0  0
 33 36  1  0  0  0  0
 34 30  1  6  0  0  0
 34 33  1  0  0  0  0
 34 32  1  0  0  0  0
 36 35  1  1  0  0  0
 36 31  1  0  0  0  0
 38 37  1  0  0  0  0
 39 30  1  0  0  0  0
 39 40  1  1  0  0  0
 41 40  1  0  0  0  0
 42 39  1  0  0  0  0
 43 42  2  0  0  0  0
 44 42  1  0  0  0  0
 45 44  1  0  0  0  0
 46 47  1  0  0  0  0
 47 45  1  0  0  0  0
 48 47  1  0  0  0  0
 48 53  1  1  0  0  0
 50 51  1  0  0  0  0
 50 46  1  0  0  0  0
 51 49  1  6  0  0  0
 51 48  1  0  0  0  0
 53 52  1  0  0  0  0
M  END
>  <MODEL>
5

>  <REMARK>
 VINA RESULT:      -2.0      3.015      9.433
  Name = 
  22 active torsions:
  status: ('A' for Active; 'I' for Inactive)
    1  A    between atoms: C_3  and  C_18
    2  A    between atoms: C_3  and  C_25
    3  A    between atoms: C_4  and  C_18
    4  A    between atoms: C_4  and  N_51
    5  A    between atoms: C_5  and  C_16
    6  A    between atoms: C_5  and  C_24
    7  A    between atoms: C_6  and  C_13
    8  A    between atoms: N_7  and  C_21
    9  A    between atoms: C_9  and  O_35
   10  A    between atoms: C_9  and  C_48
   11  A    between atoms: C_10  and  O_29
   12  A    between atoms: C_16  and  C_31
   13  A    between atoms: C_16  and  O_45
   14  A    between atoms: C_17  and  C_39
   15  A    between atoms: C_20  and  N_51
   16  A    between atoms: C_21  and  O_35
   17  A    between atoms: C_22  and  C_48
   18  A    between atoms: C_24  and  C_34
   19  A    between atoms: C_25  and  O_45
   20  A    between atoms: C_28  and  C_34
   21  A    between atoms: C_33  and  C_41
   22  A    between atoms: C_34  and  C_48
                            x       y       z     vdW  Elec       q    Type
                         _______ _______ _______ _____ _____    ______ ____

>  <TORSDO>
F 22

$$$$
=
 OpenBabel11072411393D

 53 56  0  0  1  0  0  0  0  0999 V2000
  160.8970  209.1650  150.6520 C   0  0  0  0  0  2  0  0  0  0  0  0
  161.8790  208.4130  149.7630 C   0  0  1  0  0  3  0  0  0  0  0  0
  160.8070  205.9160  147.0000 C   0  0  2  0  0  3  0  0  0  0  0  0
  161.4930  206.9960  147.7740 C   0  0  0  0  0  3  0  0  0  0  0  0
  159.8790  205.2090  149.6870 C   0  0  0  0  0  3  0  0  0  0  0  0
  160.1370  206.5170  149.7650 C   0  0  0  0  0  3  0  0  0  0  0  0
  161.2420  207.2270  149.0730 C   0  0  0  0  0  0  0  0  0  0  0  0
  161.3690  203.3790  146.5570 C   0  0  1  0  0  3  0  0  0  0  0  0
  162.5710  203.9460  147.3090 C   0  0  2  0  0  3  0  0  0  0  0  0
  161.0100  202.0070  147.1190 C   0  0  0  0  0  1  0  0  0  0  0  0
  160.7410  204.1870  148.9970 C   0  0  0  0  0  2  0  0  0  0  0  0
  161.1720  204.5200  147.5580 C   0  0  1  0  0  0  0  0  0  0  0  0
  159.8340  205.9690  144.7980 O   0  0  0  0  0  0  0  0  0  0  0  0
  160.8630  206.1020  145.5090 C   0  0  0  0  0  0  0  0  0  0  0  0
  162.0710  206.4310  144.9060 O   0  0  0  0  0  1  0  0  0  0  0  0
  163.7260  203.9170  145.1120 C   0  0  0  0  0  1  0  0  0  0  0  0
  163.4460  204.7410  146.3520 C   0  0  0  0  0  2  0  0  0  0  0  0
  162.4280  209.3010  148.8280 O   0  0  0  0  0  0  0  0  0  0  0  0
  162.0650  210.5740  149.2720 C   0  0  0  0  0  2  0  0  0  0  0  0
  161.5150  211.3690  148.1050 C   0  0  0  0  0  2  0  0  0  0  0  0
  163.6240  212.4170  148.1030 O   0  0  0  0  0  0  0  0  0  0  0  0
  162.4770  212.4280  147.6870 C   0  0  0  0  0  0  0  0  0  0  0  0
  162.0030  213.5420  146.8080 C   0  0  0  0  0  2  0  0  0  0  0  0
  160.6820  213.9420  144.9260 C   0  0  0  0  0  1  0  0  0  0  0  0
  161.6730  213.0330  145.4860 N   0  0  0  0  0  0  0  0  0  0  0  0
  162.8780  213.1740  144.6790 C   0  0  0  0  0  2  0  0  0  0  0  0
  162.5210  213.0510  143.2090 C   0  0  0  0  0  1  0  0  0  0  0  0
  161.1090  208.8140  152.1220 C   0  0  0  0  0  2  0  0  0  0  0  0
  162.2730  210.7930  153.1310 C   0  0  0  0  0  1  0  0  0  0  0  0
  160.9660  210.0000  153.0990 C   0  0  1  0  0  0  0  0  0  0  0  0
  159.4070  213.1640  152.7460 C   0  0  2  0  0  3  0  0  0  0  0  0
  160.2310  212.1660  152.2000 O   0  0  0  0  0  0  0  0  0  0  0  0
  158.7860  211.1790  153.8200 C   0  0  0  0  0  2  0  0  0  0  0  0
  159.7890  210.9320  152.7200 C   0  0  2  0  0  3  0  0  0  0  0  0
  157.9540  213.2450  154.6140 O   0  0  0  0  0  1  0  0  0  0  0  0
  158.2520  212.5200  153.4630 C   0  0  1  0  0  3  0  0  0  0  0  0
  158.9420  214.0070  151.7350 O   0  0  0  0  0  0  0  0  0  0  0  0
  159.8170  213.8080  150.6750 C   0  0  0  0  0  1  0  0  0  0  0  0
  160.7440  209.4100  154.5150 C   0  0  2  0  0  3  0  0  0  0  0  0
  161.7570  209.8960  155.5490 C   0  0  0  0  0  2  0  0  0  0  0  0
  161.0390  210.4590  156.7540 C   0  0  0  0  0  1  0  0  0  0  0  0
  160.6100  207.9180  154.5320 C   0  0  0  0  0  0  0  0  0  0  0  0
  159.5190  207.4110  154.9090 O   0  0  0  0  0  0  0  0  0  0  0  0
  161.6500  207.1100  154.0810 O   0  0  0  0  0  0  0  0  0  0  0  0
  161.5300  205.6920  154.0540 C   0  0  0  0  0  2  0  0  0  0  0  0
  159.9850  204.1790  153.0770 C   0  0  0  0  0  2  0  0  0  0  0  0
  160.9770  205.2140  152.7800 N   0  0  0  0  0  0  0  0  0  0  0  0
  161.9670  204.5800  151.8910 C   0  0  2  0  0  3  0  0  0  0  0  0
  162.1670  202.4200  150.8970 O   0  0  0  0  0  1  0  0  0  0  0  0
  160.4470  202.8590  152.4690 C   0  0  0  0  0  2  0  0  0  0  0  0
  161.8880  203.0820  152.0940 C   0  0  2  0  0  3  0  0  0  0  0  0
  163.5170  206.3380  151.3760 O   0  0  0  0  0  1  0  0  0  0  0  0
  163.4020  205.1040  152.0210 C   0  0  0  0  0  2  0  0  0  0  0  0
  1 28  1  0  0  0  0
  2  1  1  6  0  0  0
  3 14  1  6  0  0  0
  3 12  1  0  0  0  0
  3  4  1  0  0  0  0
  4  7  2  0  0  0  0
  5  6  2  0  0  0  0
  7  2  1  0  0  0  0
  7  6  1  0  0  0  0
  8 10  1  1  0  0  0
  8  9  1  0  0  0  0
  8 12  1  0  0  0  0
  9 17  1  6  0  0  0
  9 12  1  0  0  0  0
 11  5  1  0  0  0  0
 12 11  1  1  0  0  0
 13 14  2  0  0  0  0
 15 14  1  0  0  0  0
 16 17  1  0  0  0  0
 18 19  1  0  0  0  0
 18  2  1  0  0  0  0
 20 19  1  0  0  0  0
 22 21  2  0  0  0  0
 22 20  1  0  0  0  0
 23 22  1  0  0  0  0
 24 25  1  0  0  0  0
 25 23  1  0  0  0  0
 26 25  1  0  0  0  0
 27 26  1  0  0  0  0
 28 30  1  0  0  0  0
 30 29  1  6  0  0  0
 30 39  1  0  0  0  0
 31 37  1  6  0  0  0
 31 36  1  0  0  0  0
 32 34  1  0  0  0  0
 32 31  1  0  0  0  0
 34 30  1  1  0  0  0
 34 33  1  0  0  0  0
 36 33  1  0  0  0  0
 36 35  1  1  0  0  0
 38 37  1  0  0  0  0
 39 42  1  0  0  0  0
 39 40  1  1  0  0  0
 40 41  1  0  0  0  0
 42 43  2  0  0  0  0
 44 42  1  0  0  0  0
 45 44  1  0  0  0  0
 47 46  1  0  0  0  0
 47 45  1  0  0  0  0
 48 53  1  1  0  0  0
 48 51  1  0  0  0  0
 48 47  1  0  0  0  0
 50 46  1  0  0  0  0
 51 49  1  6  0  0  0
 51 50  1  0  0  0  0
 52 53  1  0  0  0  0
M  END
>  <MODEL>
6

>  <REMARK>
 VINA RESULT:      -1.7      2.426      8.093
  Name = 
  22 active torsions:
  status: ('A' for Active; 'I' for Inactive)
    1  A    between atoms: C_3  and  C_18
    2  A    between atoms: C_3  and  C_25
    3  A    between atoms: C_4  and  C_18
    4  A    between atoms: C_4  and  N_51
    5  A    between atoms: C_5  and  C_16
    6  A    between atoms: C_5  and  C_24
    7  A    between atoms: C_6  and  C_13
    8  A    between atoms: N_7  and  C_21
    9  A    between atoms: C_9  and  O_35
   10  A    between atoms: C_9  and  C_48
   11  A    between atoms: C_10  and  O_29
   12  A    between atoms: C_16  and  C_31
   13  A    between atoms: C_16  and  O_45
   14  A    between atoms: C_17  and  C_39
   15  A    between atoms: C_20  and  N_51
   16  A    between atoms: C_21  and  O_35
   17  A    between atoms: C_22  and  C_48
   18  A    between atoms: C_24  and  C_34
   19  A    between atoms: C_25  and  O_45
   20  A    between atoms: C_28  and  C_34
   21  A    between atoms: C_33  and  C_41
   22  A    between atoms: C_34  and  C_48
                            x       y       z     vdW  Elec       q    Type
                         _______ _______ _______ _____ _____    ______ ____

>  <TORSDO>
F 22

$$$$
