=
 OpenBabel11072413183D

 27 28  0  0  1  0  0  0  0  0999 V2000
  161.7900  205.3420  146.8550 C   0  0  1  0  0  3  0  0  0  0  0  0
  162.0310  205.4100  145.4190 N   0  0  0  0  0  0  0  0  0  0  0  0
  161.4350  205.7570  143.1720 N   0  0  0  0  0  1  0  0  0  0  0  0
  159.7750  205.9920  144.9720 N   0  0  0  0  0  1  0  0  0  0  0  0
  161.1100  205.7150  144.5560 C   0  0  0  0  0  0  0  0  0  0  0  0
  162.3870  204.1880  147.3710 O   0  0  0  0  0  0  0  0  0  0  0  0
  161.3510  202.8180  149.0260 C   0  0  0  0  0  2  0  0  0  0  0  0
  161.4860  202.0640  146.7490 C   0  0  1  0  0  3  0  0  0  0  0  0
  160.9480  200.9110  147.5780 C   0  0  0  0  0  2  0  0  0  0  0  0
  160.5430  202.2280  145.2490 Cl  0  0  0  0  0  0  0  0  0  0  0  0
  160.7340  201.4330  148.9900 C   0  0  2  0  0  3  0  0  0  0  0  0
  161.3270  203.3070  147.5970 C   0  0  2  0  0  3  0  0  0  0  0  0
  159.3640  201.5280  149.2450 O   0  0  0  0  0  0  0  0  0  0  0  0
  159.1500  200.7130  150.3580 C   0  0  0  0  0  1  0  0  0  0  0  0
  162.3650  206.5790  147.5380 C   0  0  0  0  0  2  0  0  0  0  0  0
  161.3970  207.1260  148.5370 C   0  0  0  0  0  0  0  0  0  0  0  0
  160.3480  206.4750  148.7820 O   0  0  0  0  0  0  0  0  0  0  0  0
  161.6670  208.4140  149.2150 C   0  0  0  0  0  0  0  0  0  0  0  0
  162.3610  209.2800  148.6190 O   0  0  0  0  0  0  0  0  0  0  0  0
  161.1830  208.7180  150.4930 O   0  0  0  0  0  0  0  0  0  0  0  0
  161.9370  208.5440  151.6850 C   0  0  0  0  0  2  0  0  0  0  0  0
  161.1820  207.6460  152.6500 C   0  0  0  0  0  2  0  0  0  0  0  0
  161.1460  204.5370  152.5210 C   0  0  0  0  0  0  0  0  0  0  0  0
  161.9750  205.5220  151.7610 C   0  0  0  0  0  2  0  0  0  0  0  0
  160.6520  203.4070  152.2730 O   0  0  0  0  0  0  0  0  0  0  0  0
  161.1480  205.4460  153.6830 N   0  0  0  0  0  2  0  0  0  0  0  0
  161.9630  206.3670  152.9220 C   0  0  2  0  0  3  0  0  0  0  0  0
  1  6  1  0  0  0  0
  1 15  1  1  0  0  0
  2  1  1  0  0  0  0
  3  5  1  0  0  0  0
  5  4  1  0  0  0  0
  5  2  2  0  0  0  0
  8 10  1  6  0  0  0
  8  9  1  0  0  0  0
  8 12  1  0  0  0  0
  9 11  1  0  0  0  0
 11  7  1  0  0  0  0
 11 13  1  6  0  0  0
 12  6  1  1  0  0  0
 12  7  1  0  0  0  0
 13 14  1  0  0  0  0
 15 16  1  0  0  0  0
 16 17  2  0  0  0  0
 16 18  1  0  0  0  0
 18 20  1  0  0  0  0
 19 18  2  0  0  0  0
 20 21  1  0  0  0  0
 21 22  1  0  0  0  0
 23 26  1  0  0  0  0
 24 23  1  0  0  0  0
 24 27  1  0  0  0  0
 25 23  2  0  0  0  0
 27 22  1  6  0  0  0
 27 26  1  0  0  0  0
M  END
>  <MODEL>
1

>  <REMARK>
 VINA RESULT:      -6.1      0.000      0.000
  Name = 
  11 active torsions:
  status: ('A' for Active; 'I' for Inactive)
    1  A    between atoms: O_1  and  C_23
    2  A    between atoms: O_2  and  C_5
    3  A    between atoms: O_2  and  C_24
    4  A    between atoms: N_4  and  C_5
    5  A    between atoms: C_5  and  C_6
    6  A    between atoms: C_6  and  C_8
    7  A    between atoms: C_8  and  C_17
    8  A    between atoms: C_13  and  O_18
    9  A    between atoms: C_13  and  C_20
   10  A    between atoms: C_17  and  O_18
   11  A    between atoms: C_19  and  C_20
                            x       y       z     vdW  Elec       q    Type
                         _______ _______ _______ _____ _____    ______ ____

>  <TORSDO>
F 11

$$$$
=
 OpenBabel11072413183D

 27 28  0  0  1  0  0  0  0  0999 V2000
  161.7190  207.3300  151.2190 C   0  0  1  0  0  3  0  0  0  0  0  0
  161.0700  206.8630  149.9990 N   0  0  0  0  0  0  0  0  0  0  0  0
  160.6850  206.7950  147.6820 N   0  0  0  0  0  1  0  0  0  0  0  0
  162.3640  208.3150  148.6410 N   0  0  0  0  0  1  0  0  0  0  0  0
  161.3710  207.3080  148.8180 C   0  0  0  0  0  0  0  0  0  0  0  0
  160.7470  207.7860  152.1150 O   0  0  0  0  0  0  0  0  0  0  0  0
  160.9460  208.9550  154.1850 C   0  0  0  0  0  2  0  0  0  0  0  0
  160.7490  210.1760  152.1250 C   0  0  1  0  0  3  0  0  0  0  0  0
  160.6720  211.1830  153.2590 C   0  0  0  0  0  2  0  0  0  0  0  0
  161.8250  210.7800  150.8450 Cl  0  0  0  0  0  0  0  0  0  0  0  0
  160.9340  210.4260  154.5520 C   0  0  2  0  0  3  0  0  0  0  0  0
  161.3180  208.9080  152.7220 C   0  0  2  0  0  3  0  0  0  0  0  0
  162.1860  210.7900  155.0540 O   0  0  0  0  0  0  0  0  0  0  0  0
  162.3050  210.0950  156.2580 C   0  0  0  0  0  1  0  0  0  0  0  0
  162.5210  206.1960  151.8490 C   0  0  0  0  0  2  0  0  0  0  0  0
  161.6100  205.2020  152.4940 C   0  0  0  0  0  0  0  0  0  0  0  0
  161.1730  205.4440  153.6490 O   0  0  0  0  0  0  0  0  0  0  0  0
  161.2420  203.9530  151.7890 C   0  0  0  0  0  0  0  0  0  0  0  0
  160.5500  203.0940  152.3960 O   0  0  0  0  0  0  0  0  0  0  0  0
  161.6290  203.6820  150.4710 O   0  0  0  0  0  0  0  0  0  0  0  0
  160.7920  203.0410  149.5180 C   0  0  0  0  0  2  0  0  0  0  0  0
  160.9730  203.6830  148.1530 C   0  0  0  0  0  2  0  0  0  0  0  0
  160.5390  201.7650  145.7420 C   0  0  0  0  0  0  0  0  0  0  0  0
  161.3010  203.0470  145.8260 C   0  0  0  0  0  2  0  0  0  0  0  0
  159.8720  201.1790  144.8510 O   0  0  0  0  0  0  0  0  0  0  0  0
  160.8930  201.4740  147.1450 N   0  0  0  0  0  2  0  0  0  0  0  0
  161.6350  202.7140  147.1820 C   0  0  2  0  0  3  0  0  0  0  0  0
  1 15  1  1  0  0  0
  1  6  1  0  0  0  0
  2  1  1  0  0  0  0
  3  5  1  0  0  0  0
  4  5  1  0  0  0  0
  5  2  2  0  0  0  0
  7 11  1  0  0  0  0
  8 10  1  6  0  0  0
  8 12  1  0  0  0  0
  8  9  1  0  0  0  0
  9 11  1  0  0  0  0
 11 13  1  6  0  0  0
 12  6  1  6  0  0  0
 12  7  1  0  0  0  0
 13 14  1  0  0  0  0
 15 16  1  0  0  0  0
 16 17  2  0  0  0  0
 18 19  2  0  0  0  0
 18 16  1  0  0  0  0
 20 18  1  0  0  0  0
 21 20  1  0  0  0  0
 22 21  1  0  0  0  0
 23 24  1  0  0  0  0
 23 26  1  0  0  0  0
 24 27  1  0  0  0  0
 25 23  2  0  0  0  0
 26 27  1  0  0  0  0
 27 22  1  1  0  0  0
M  END
>  <MODEL>
2

>  <REMARK>
 VINA RESULT:      -6.0      3.288      7.434
  Name = 
  11 active torsions:
  status: ('A' for Active; 'I' for Inactive)
    1  A    between atoms: O_1  and  C_23
    2  A    between atoms: O_2  and  C_5
    3  A    between atoms: O_2  and  C_24
    4  A    between atoms: N_4  and  C_5
    5  A    between atoms: C_5  and  C_6
    6  A    between atoms: C_6  and  C_8
    7  A    between atoms: C_8  and  C_17
    8  A    between atoms: C_13  and  O_18
    9  A    between atoms: C_13  and  C_20
   10  A    between atoms: C_17  and  O_18
   11  A    between atoms: C_19  and  C_20
                            x       y       z     vdW  Elec       q    Type
                         _______ _______ _______ _____ _____    ______ ____

>  <TORSDO>
F 11

$$$$
=
 OpenBabel11072413183D

 27 28  0  0  1  0  0  0  0  0999 V2000
  161.0740  206.2310  148.4290 C   0  0  1  0  0  3  0  0  0  0  0  0
  161.4960  205.1040  147.6070 N   0  0  0  0  0  0  0  0  0  0  0  0
  161.7650  203.9120  145.6000 N   0  0  0  0  0  1  0  0  0  0  0  0
  160.6740  206.1170  145.6260 N   0  0  0  0  0  1  0  0  0  0  0  0
  161.3210  205.0540  146.3220 C   0  0  0  0  0  0  0  0  0  0  0  0
  160.2860  205.7650  149.4860 O   0  0  0  0  0  0  0  0  0  0  0  0
  160.2040  203.3910  149.7040 C   0  0  0  0  0  2  0  0  0  0  0  0
  161.0760  204.7360  151.4930 C   0  0  1  0  0  3  0  0  0  0  0  0
  160.9880  203.3080  152.0010 C   0  0  0  0  0  2  0  0  0  0  0  0
  162.6350  205.4540  151.9610 Cl  0  0  0  0  0  0  0  0  0  0  0  0
  160.5670  202.4380  150.8260 C   0  0  2  0  0  3  0  0  0  0  0  0
  160.9770  204.6580  149.9860 C   0  0  2  0  0  3  0  0  0  0  0  0
  161.6450  201.6430  150.4310 O   0  0  0  0  0  0  0  0  0  0  0  0
  161.2430  201.0680  149.2240 C   0  0  0  0  0  1  0  0  0  0  0  0
  162.2950  206.9670  148.9710 C   0  0  0  0  0  2  0  0  0  0  0  0
  161.9550  208.3860  149.2930 C   0  0  0  0  0  0  0  0  0  0  0  0
  161.7670  209.1930  148.3460 O   0  0  0  0  0  0  0  0  0  0  0  0
  161.8530  208.8320  150.7020 C   0  0  0  0  0  0  0  0  0  0  0  0
  162.6510  209.7130  151.1190 O   0  0  0  0  0  0  0  0  0  0  0  0
  160.9050  208.3200  151.5950 O   0  0  0  0  0  0  0  0  0  0  0  0
  160.6050  208.9090  152.8530 C   0  0  0  0  0  2  0  0  0  0  0  0
  161.0240  207.9750  153.9760 C   0  0  0  0  0  2  0  0  0  0  0  0
  162.0950  209.4050  156.5230 C   0  0  0  0  0  0  0  0  0  0  0  0
  161.1730  209.9010  155.4580 C   0  0  0  0  0  2  0  0  0  0  0  0
  162.9710  209.9260  157.2610 O   0  0  0  0  0  0  0  0  0  0  0  0
  161.5510  208.0450  156.3470 N   0  0  0  0  0  2  0  0  0  0  0  0
  160.6620  208.5650  155.3330 C   0  0  2  0  0  3  0  0  0  0  0  0
  1 15  1  1  0  0  0
  1  6  1  0  0  0  0
  2  1  1  0  0  0  0
  3  5  1  0  0  0  0
  4  5  1  0  0  0  0
  5  2  2  0  0  0  0
  7 12  1  0  0  0  0
  7 11  1  0  0  0  0
  8 10  1  6  0  0  0
  8  9  1  0  0  0  0
 11 13  1  6  0  0  0
 11  9  1  0  0  0  0
 12  6  1  1  0  0  0
 12  8  1  0  0  0  0
 14 13  1  0  0  0  0
 15 16  1  0  0  0  0
 16 18  1  0  0  0  0
 17 16  2  0  0  0  0
 18 19  2  0  0  0  0
 18 20  1  0  0  0  0
 20 21  1  0  0  0  0
 21 22  1  0  0  0  0
 23 25  2  0  0  0  0
 24 23  1  0  0  0  0
 26 23  1  0  0  0  0
 27 22  1  6  0  0  0
 27 24  1  0  0  0  0
 27 26  1  0  0  0  0
M  END
>  <MODEL>
3

>  <REMARK>
 VINA RESULT:      -5.9      2.774      3.747
  Name = 
  11 active torsions:
  status: ('A' for Active; 'I' for Inactive)
    1  A    between atoms: O_1  and  C_23
    2  A    between atoms: O_2  and  C_5
    3  A    between atoms: O_2  and  C_24
    4  A    between atoms: N_4  and  C_5
    5  A    between atoms: C_5  and  C_6
    6  A    between atoms: C_6  and  C_8
    7  A    between atoms: C_8  and  C_17
    8  A    between atoms: C_13  and  O_18
    9  A    between atoms: C_13  and  C_20
   10  A    between atoms: C_17  and  O_18
   11  A    between atoms: C_19  and  C_20
                            x       y       z     vdW  Elec       q    Type
                         _______ _______ _______ _____ _____    ______ ____

>  <TORSDO>
F 11

$$$$
=
 OpenBabel11072413183D

 27 28  0  0  1  0  0  0  0  0999 V2000
  161.8100  205.4740  147.0120 C   0  0  1  0  0  3  0  0  0  0  0  0
  162.0490  205.4960  145.5740 N   0  0  0  0  0  0  0  0  0  0  0  0
  161.4400  205.7210  143.3160 N   0  0  0  0  0  1  0  0  0  0  0  0
  159.7680  205.9450  145.1050 N   0  0  0  0  0  1  0  0  0  0  0  0
  161.1160  205.7190  144.7010 C   0  0  0  0  0  0  0  0  0  0  0  0
  162.4310  204.3510  147.5680 O   0  0  0  0  0  0  0  0  0  0  0  0
  161.3790  203.3300  149.4500 C   0  0  0  0  0  2  0  0  0  0  0  0
  161.5760  202.1270  147.3800 C   0  0  1  0  0  3  0  0  0  0  0  0
  161.0380  201.1590  148.4180 C   0  0  0  0  0  2  0  0  0  0  0  0
  160.6640  201.9620  145.8610 Cl  0  0  0  0  0  0  0  0  0  0  0  0
  160.7850  201.9560  149.6890 C   0  0  2  0  0  3  0  0  0  0  0  0
  161.3790  203.5140  147.9510 C   0  0  2  0  0  3  0  0  0  0  0  0
  159.4080  202.0740  149.8940 O   0  0  0  0  0  0  0  0  0  0  0  0
  158.8460  201.0270  149.1620 C   0  0  0  0  0  1  0  0  0  0  0  0
  162.3600  206.7460  147.6510 C   0  0  0  0  0  2  0  0  0  0  0  0
  161.5040  207.1710  148.7990 C   0  0  0  0  0  0  0  0  0  0  0  0
  160.3220  206.7420  148.8630 O   0  0  0  0  0  0  0  0  0  0  0  0
  162.0360  208.0890  149.8320 C   0  0  0  0  0  0  0  0  0  0  0  0
  162.1010  209.3200  149.5760 O   0  0  0  0  0  0  0  0  0  0  0  0
  162.4710  207.6490  151.0880 O   0  0  0  0  0  0  0  0  0  0  0  0
  162.1970  206.3570  151.6120 C   0  0  0  0  0  2  0  0  0  0  0  0
  162.0480  206.4300  153.1220 C   0  0  0  0  0  2  0  0  0  0  0  0
  160.6840  208.2820  155.2180 C   0  0  0  0  0  0  0  0  0  0  0  0
  161.0550  208.5500  153.7950 C   0  0  0  0  0  2  0  0  0  0  0  0
  160.6210  208.9710  156.2690 O   0  0  0  0  0  0  0  0  0  0  0  0
  160.4240  206.8710  154.8750 N   0  0  0  0  0  2  0  0  0  0  0  0
  160.7730  207.1710  153.5050 C   0  0  2  0  0  3  0  0  0  0  0  0
  1  6  1  0  0  0  0
  1 15  1  1  0  0  0
  2  1  1  0  0  0  0
  3  5  1  0  0  0  0
  5  4  1  0  0  0  0
  5  2  2  0  0  0  0
  7 11  1  0  0  0  0
  8 10  1  6  0  0  0
  8 12  1  0  0  0  0
  8  9  1  0  0  0  0
  9 11  1  0  0  0  0
 11 13  1  6  0  0  0
 12  6  1  1  0  0  0
 12  7  1  0  0  0  0
 14 13  1  0  0  0  0
 15 16  1  0  0  0  0
 16 17  2  0  0  0  0
 16 18  1  0  0  0  0
 18 20  1  0  0  0  0
 19 18  2  0  0  0  0
 20 21  1  0  0  0  0
 21 22  1  0  0  0  0
 23 25  2  0  0  0  0
 24 23  1  0  0  0  0
 26 23  1  0  0  0  0
 27 22  1  1  0  0  0
 27 24  1  0  0  0  0
 27 26  1  0  0  0  0
M  END
>  <MODEL>
4

>  <REMARK>
 VINA RESULT:      -5.6      1.482      1.989
  Name = 
  11 active torsions:
  status: ('A' for Active; 'I' for Inactive)
    1  A    between atoms: O_1  and  C_23
    2  A    between atoms: O_2  and  C_5
    3  A    between atoms: O_2  and  C_24
    4  A    between atoms: N_4  and  C_5
    5  A    between atoms: C_5  and  C_6
    6  A    between atoms: C_6  and  C_8
    7  A    between atoms: C_8  and  C_17
    8  A    between atoms: C_13  and  O_18
    9  A    between atoms: C_13  and  C_20
   10  A    between atoms: C_17  and  O_18
   11  A    between atoms: C_19  and  C_20
                            x       y       z     vdW  Elec       q    Type
                         _______ _______ _______ _____ _____    ______ ____

>  <TORSDO>
F 11

$$$$
=
 OpenBabel11072413183D

 27 28  0  0  1  0  0  0  0  0999 V2000
  161.9310  207.6300  151.5450 C   0  0  1  0  0  3  0  0  0  0  0  0
  161.6440  208.2220  150.2440 N   0  0  0  0  0  0  0  0  0  0  0  0
  161.7180  209.9040  148.6050 N   0  0  0  0  0  1  0  0  0  0  0  0
  162.7920  210.2230  150.7950 N   0  0  0  0  0  1  0  0  0  0  0  0
  162.0450  209.4060  149.8970 C   0  0  0  0  0  0  0  0  0  0  0  0
  160.7620  207.6080  152.3130 O   0  0  0  0  0  0  0  0  0  0  0  0
  160.8200  207.1000  154.6430 C   0  0  0  0  0  2  0  0  0  0  0  0
  160.3370  209.3360  153.9080 C   0  0  1  0  0  3  0  0  0  0  0  0
  160.1210  209.2950  155.4100 C   0  0  0  0  0  2  0  0  0  0  0  0
  161.2440  210.8000  153.4620 Cl  0  0  0  0  0  0  0  0  0  0  0  0
  160.5590  207.9200  155.8910 C   0  0  2  0  0  3  0  0  0  0  0  0
  161.1440  208.1040  153.5610 C   0  0  2  0  0  3  0  0  0  0  0  0
  161.7430  208.0420  156.6230 O   0  0  0  0  0  0  0  0  0  0  0  0
  161.6450  209.2810  157.2580 C   0  0  0  0  0  1  0  0  0  0  0  0
  162.4660  206.2120  151.3660 C   0  0  0  0  0  2  0  0  0  0  0  0
  161.3500  205.2620  151.0730 C   0  0  0  0  0  0  0  0  0  0  0  0
  160.7060  204.7710  152.0360 O   0  0  0  0  0  0  0  0  0  0  0  0
  161.0210  204.9000  149.6750 C   0  0  0  0  0  0  0  0  0  0  0  0
  160.9030  203.6830  149.3750 O   0  0  0  0  0  0  0  0  0  0  0  0
  160.8320  205.8530  148.6670 O   0  0  0  0  0  0  0  0  0  0  0  0
  161.7870  206.1290  147.6520 C   0  0  0  0  0  2  0  0  0  0  0  0
  161.1190  206.0960  146.2880 C   0  0  0  0  0  2  0  0  0  0  0  0
  160.9770  203.1390  145.3300 C   0  0  0  0  0  0  0  0  0  0  0  0
  160.7570  204.4070  144.5710 C   0  0  0  0  0  2  0  0  0  0  0  0
  160.5060  201.9740  145.2770 O   0  0  0  0  0  0  0  0  0  0  0  0
  161.9770  203.8260  146.1700 N   0  0  0  0  0  2  0  0  0  0  0  0
  161.7500  205.0290  145.4020 C   0  0  2  0  0  3  0  0  0  0  0  0
  1 15  1  6  0  0  0
  1  6  1  0  0  0  0
  2  1  1  0  0  0  0
  3  5  1  0  0  0  0
  5  2  2  0  0  0  0
  5  4  1  0  0  0  0
  7 11  1  0  0  0  0
  8 10  1  1  0  0  0
  8  9  1  0  0  0  0
  9 11  1  0  0  0  0
 11 13  1  6  0  0  0
 12  6  1  6  0  0  0
 12  8  1  0  0  0  0
 12  7  1  0  0  0  0
 13 14  1  0  0  0  0
 16 15  1  0  0  0  0
 16 17  2  0  0  0  0
 18 16  1  0  0  0  0
 19 18  2  0  0  0  0
 20 18  1  0  0  0  0
 21 20  1  0  0  0  0
 22 21  1  0  0  0  0
 23 26  1  0  0  0  0
 24 23  1  0  0  0  0
 24 27  1  0  0  0  0
 25 23  2  0  0  0  0
 27 26  1  0  0  0  0
 27 22  1  1  0  0  0
M  END
>  <MODEL>
5

>  <REMARK>
 VINA RESULT:      -5.6      3.694      7.441
  Name = 
  11 active torsions:
  status: ('A' for Active; 'I' for Inactive)
    1  A    between atoms: O_1  and  C_23
    2  A    between atoms: O_2  and  C_5
    3  A    between atoms: O_2  and  C_24
    4  A    between atoms: N_4  and  C_5
    5  A    between atoms: C_5  and  C_6
    6  A    between atoms: C_6  and  C_8
    7  A    between atoms: C_8  and  C_17
    8  A    between atoms: C_13  and  O_18
    9  A    between atoms: C_13  and  C_20
   10  A    between atoms: C_17  and  O_18
   11  A    between atoms: C_19  and  C_20
                            x       y       z     vdW  Elec       q    Type
                         _______ _______ _______ _____ _____    ______ ____

>  <TORSDO>
F 11

$$$$
=
 OpenBabel11072413183D

 27 28  0  0  1  0  0  0  0  0999 V2000
  162.1130  208.8390  151.4060 C   0  0  1  0  0  3  0  0  0  0  0  0
  161.8900  209.9020  150.4340 N   0  0  0  0  0  0  0  0  0  0  0  0
  161.8030  210.8350  148.2790 N   0  0  0  0  0  1  0  0  0  0  0  0
  162.4610  208.4890  148.6160 N   0  0  0  0  0  1  0  0  0  0  0  0
  162.0420  209.7400  149.1550 C   0  0  0  0  0  0  0  0  0  0  0  0
  162.3730  209.4040  152.6590 O   0  0  0  0  0  0  0  0  0  0  0  0
  160.7550  211.0750  153.1890 C   0  0  0  0  0  2  0  0  0  0  0  0
  161.1330  209.2410  154.6950 C   0  0  1  0  0  3  0  0  0  0  0  0
  160.1960  210.2140  155.3890 C   0  0  0  0  0  2  0  0  0  0  0  0
  160.5510  207.5740  154.9120 Cl  0  0  0  0  0  0  0  0  0  0  0  0
  159.8500  211.3020  154.3840 C   0  0  2  0  0  3  0  0  0  0  0  0
  161.1130  209.6080  153.2270 C   0  0  2  0  0  3  0  0  0  0  0  0
  158.5170  211.1610  153.9910 O   0  0  0  0  0  0  0  0  0  0  0  0
  157.7870  211.1970  155.1800 C   0  0  0  0  0  1  0  0  0  0  0  0
  160.8850  207.9370  151.4830 C   0  0  0  0  0  2  0  0  0  0  0  0
  161.2860  206.4980  151.4480 C   0  0  0  0  0  0  0  0  0  0  0  0
  162.1830  206.1010  152.2370 O   0  0  0  0  0  0  0  0  0  0  0  0
  160.6450  205.5640  150.4960 C   0  0  0  0  0  0  0  0  0  0  0  0
  160.3940  205.9640  149.3280 O   0  0  0  0  0  0  0  0  0  0  0  0
  160.3040  204.2490  150.8330 O   0  0  0  0  0  0  0  0  0  0  0  0
  161.0510  203.1100  150.4270 C   0  0  0  0  0  2  0  0  0  0  0  0
  160.3940  202.4610  149.2210 C   0  0  0  0  0  2  0  0  0  0  0  0
  161.0090  202.8380  146.1940 C   0  0  0  0  0  0  0  0  0  0  0  0
  161.6520  203.4610  147.3900 C   0  0  0  0  0  2  0  0  0  0  0  0
  160.7720  203.2070  145.0140 O   0  0  0  0  0  0  0  0  0  0  0  0
  160.7660  201.6100  146.9750 N   0  0  0  0  0  2  0  0  0  0  0  0
  161.4090  202.2390  148.1060 C   0  0  2  0  0  3  0  0  0  0  0  0
  1 15  1  1  0  0  0
  1  6  1  0  0  0  0
  2  1  1  0  0  0  0
  3  5  1  0  0  0  0
  4  5  1  0  0  0  0
  5  2  2  0  0  0  0
  7 12  1  0  0  0  0
  7 11  1  0  0  0  0
  8 10  1  6  0  0  0
  8  9  1  0  0  0  0
 11 13  1  6  0  0  0
 11  9  1  0  0  0  0
 12  6  1  1  0  0  0
 12  8  1  0  0  0  0
 13 14  1  0  0  0  0
 16 15  1  0  0  0  0
 16 17  2  0  0  0  0
 18 20  1  0  0  0  0
 18 16  1  0  0  0  0
 19 18  2  0  0  0  0
 21 20  1  0  0  0  0
 22 21  1  0  0  0  0
 23 26  1  0  0  0  0
 23 24  1  0  0  0  0
 24 27  1  0  0  0  0
 25 23  2  0  0  0  0
 26 27  1  0  0  0  0
 27 22  1  1  0  0  0
M  END
>  <MODEL>
6

>  <REMARK>
 VINA RESULT:      -5.5      3.761      7.583
  Name = 
  11 active torsions:
  status: ('A' for Active; 'I' for Inactive)
    1  A    between atoms: O_1  and  C_23
    2  A    between atoms: O_2  and  C_5
    3  A    between atoms: O_2  and  C_24
    4  A    between atoms: N_4  and  C_5
    5  A    between atoms: C_5  and  C_6
    6  A    between atoms: C_6  and  C_8
    7  A    between atoms: C_8  and  C_17
    8  A    between atoms: C_13  and  O_18
    9  A    between atoms: C_13  and  C_20
   10  A    between atoms: C_17  and  O_18
   11  A    between atoms: C_19  and  C_20
                            x       y       z     vdW  Elec       q    Type
                         _______ _______ _______ _____ _____    ______ ____

>  <TORSDO>
F 11

$$$$
=
 OpenBabel11072413183D

 27 28  0  0  1  0  0  0  0  0999 V2000
  161.0620  205.4910  149.8090 C   0  0  1  0  0  3  0  0  0  0  0  0
  160.8360  205.4900  151.2490 N   0  0  0  0  0  0  0  0  0  0  0  0
  161.4440  205.7660  153.5020 N   0  0  0  0  0  1  0  0  0  0  0  0
  163.0730  206.1390  151.6970 N   0  0  0  0  0  1  0  0  0  0  0  0
  161.7540  205.7940  152.1140 C   0  0  0  0  0  0  0  0  0  0  0  0
  160.3210  204.4600  149.2220 O   0  0  0  0  0  0  0  0  0  0  0  0
  161.0950  204.5770  146.9690 C   0  0  0  0  0  2  0  0  0  0  0  0
  160.7820  202.4420  148.0270 C   0  0  1  0  0  3  0  0  0  0  0  0
  161.0960  202.1830  146.5640 C   0  0  0  0  0  2  0  0  0  0  0  0
  161.7170  201.3340  149.0580 Cl  0  0  0  0  0  0  0  0  0  0  0  0
  161.4290  203.5240  145.9300 C   0  0  2  0  0  3  0  0  0  0  0  0
  161.1930  203.8720  148.3020 C   0  0  2  0  0  3  0  0  0  0  0  0
  162.7950  203.5730  145.6410 O   0  0  0  0  0  0  0  0  0  0  0  0
  163.0810  204.9310  145.4940 C   0  0  0  0  0  1  0  0  0  0  0  0
  160.6470  206.8350  149.2170 C   0  0  0  0  0  2  0  0  0  0  0  0
  161.8500  207.6520  148.8720 C   0  0  0  0  0  0  0  0  0  0  0  0
  162.7070  207.1650  148.0900 O   0  0  0  0  0  0  0  0  0  0  0  0
  162.0300  209.0030  149.4510 C   0  0  0  0  0  0  0  0  0  0  0  0
  161.9620  210.0040  148.6900 O   0  0  0  0  0  0  0  0  0  0  0  0
  162.2710  209.2210  150.8130 O   0  0  0  0  0  0  0  0  0  0  0  0
  161.4890  210.0860  151.6250 C   0  0  0  0  0  2  0  0  0  0  0  0
  160.6410  209.2690  152.5860 C   0  0  0  0  0  2  0  0  0  0  0  0
  160.6430  210.8200  155.2830 C   0  0  0  0  0  0  0  0  0  0  0  0
  160.1520  209.4450  154.9650 C   0  0  0  0  0  2  0  0  0  0  0  0
  160.2970  211.7280  156.0820 O   0  0  0  0  0  0  0  0  0  0  0  0
  161.7010  210.6670  154.2670 N   0  0  0  0  0  2  0  0  0  0  0  0
  161.2080  209.3350  153.9980 C   0  0  2  0  0  3  0  0  0  0  0  0
  1 15  1  6  0  0  0
  1  2  1  0  0  0  0
  2  5  2  0  0  0  0
  4  5  1  0  0  0  0
  5  3  1  0  0  0  0
  6  1  1  0  0  0  0
  7 12  1  0  0  0  0
  8 12  1  0  0  0  0
  8 10  1  1  0  0  0
  9  8  1  0  0  0  0
 11 13  1  1  0  0  0
 11  9  1  0  0  0  0
 11  7  1  0  0  0  0
 12  6  1  1  0  0  0
 14 13  1  0  0  0  0
 16 15  1  0  0  0  0
 16 18  1  0  0  0  0
 17 16  2  0  0  0  0
 18 20  1  0  0  0  0
 19 18  2  0  0  0  0
 20 21  1  0  0  0  0
 21 22  1  0  0  0  0
 23 25  2  0  0  0  0
 24 23  1  0  0  0  0
 26 23  1  0  0  0  0
 27 22  1  6  0  0  0
 27 26  1  0  0  0  0
 27 24  1  0  0  0  0
M  END
>  <MODEL>
7

>  <REMARK>
 VINA RESULT:      -5.5      2.897      4.802
  Name = 
  11 active torsions:
  status: ('A' for Active; 'I' for Inactive)
    1  A    between atoms: O_1  and  C_23
    2  A    between atoms: O_2  and  C_5
    3  A    between atoms: O_2  and  C_24
    4  A    between atoms: N_4  and  C_5
    5  A    between atoms: C_5  and  C_6
    6  A    between atoms: C_6  and  C_8
    7  A    between atoms: C_8  and  C_17
    8  A    between atoms: C_13  and  O_18
    9  A    between atoms: C_13  and  C_20
   10  A    between atoms: C_17  and  O_18
   11  A    between atoms: C_19  and  C_20
                            x       y       z     vdW  Elec       q    Type
                         _______ _______ _______ _____ _____    ______ ____

>  <TORSDO>
F 11

$$$$
=
 OpenBabel11072413183D

 27 28  0  0  1  0  0  0  0  0999 V2000
  161.3670  202.5950  147.5780 C   0  0  1  0  0  3  0  0  0  0  0  0
  160.6640  201.6930  146.6740 N   0  0  0  0  0  0  0  0  0  0  0  0
  159.7090  201.0430  144.6280 N   0  0  0  0  0  1  0  0  0  0  0  0
  160.7780  203.2430  144.8830 N   0  0  0  0  0  1  0  0  0  0  0  0
  160.4010  201.9850  145.4370 C   0  0  0  0  0  0  0  0  0  0  0  0
  160.5050  203.6260  147.9660 O   0  0  0  0  0  0  0  0  0  0  0  0
  160.5470  205.8940  148.7050 C   0  0  0  0  0  2  0  0  0  0  0  0
  161.7970  205.2360  146.7620 C   0  0  1  0  0  3  0  0  0  0  0  0
  161.8770  206.7490  146.8630 C   0  0  0  0  0  2  0  0  0  0  0  0
  163.4020  204.5630  146.3940 Cl  0  0  0  0  0  0  0  0  0  0  0  0
  161.2040  207.1500  148.1660 C   0  0  2  0  0  3  0  0  0  0  0  0
  161.3290  204.7450  148.1140 C   0  0  2  0  0  3  0  0  0  0  0  0
  162.1720  207.5920  149.0700 O   0  0  0  0  0  0  0  0  0  0  0  0
  161.9520  208.9660  149.1860 C   0  0  0  0  0  1  0  0  0  0  0  0
  161.8530  201.8290  148.8040 C   0  0  0  0  0  2  0  0  0  0  0  0
  160.8250  201.8650  149.8890 C   0  0  0  0  0  0  0  0  0  0  0  0
  159.7040  201.3350  149.6760 O   0  0  0  0  0  0  0  0  0  0  0  0
  161.1220  202.5220  151.1820 C   0  0  0  0  0  0  0  0  0  0  0  0
  161.9640  201.9910  151.9540 O   0  0  0  0  0  0  0  0  0  0  0  0
  160.5090  203.7130  151.5880 O   0  0  0  0  0  0  0  0  0  0  0  0
  161.2150  204.9220  151.8320 C   0  0  0  0  0  2  0  0  0  0  0  0
  161.1580  205.2670  153.3110 C   0  0  0  0  0  2  0  0  0  0  0  0
  160.9560  208.3350  152.8340 C   0  0  0  0  0  0  0  0  0  0  0  0
  160.8280  207.5480  154.0980 C   0  0  0  0  0  2  0  0  0  0  0  0
  160.4440  209.3930  152.3860 O   0  0  0  0  0  0  0  0  0  0  0  0
  161.9340  207.3520  152.3320 N   0  0  0  0  0  2  0  0  0  0  0  0
  161.7960  206.6260  153.5740 C   0  0  2  0  0  3  0  0  0  0  0  0
  1  6  1  0  0  0  0
  1 15  1  1  0  0  0
  2  1  1  0  0  0  0
  3  5  1  0  0  0  0
  4  5  1  0  0  0  0
  5  2  2  0  0  0  0
  8 10  1  1  0  0  0
  8  9  1  0  0  0  0
  8 12  1  0  0  0  0
  9 11  1  0  0  0  0
 11  7  1  0  0  0  0
 11 13  1  1  0  0  0
 12  6  1  6  0  0  0
 12  7  1  0  0  0  0
 13 14  1  0  0  0  0
 15 16  1  0  0  0  0
 16 18  1  0  0  0  0
 17 16  2  0  0  0  0
 18 20  1  0  0  0  0
 18 19  2  0  0  0  0
 20 21  1  0  0  0  0
 21 22  1  0  0  0  0
 23 24  1  0  0  0  0
 25 23  2  0  0  0  0
 26 23  1  0  0  0  0
 26 27  1  0  0  0  0
 27 22  1  6  0  0  0
 27 24  1  0  0  0  0
M  END
>  <MODEL>
8

>  <REMARK>
 VINA RESULT:      -5.4      1.994      4.750
  Name = 
  11 active torsions:
  status: ('A' for Active; 'I' for Inactive)
    1  A    between atoms: O_1  and  C_23
    2  A    between atoms: O_2  and  C_5
    3  A    between atoms: O_2  and  C_24
    4  A    between atoms: N_4  and  C_5
    5  A    between atoms: C_5  and  C_6
    6  A    between atoms: C_6  and  C_8
    7  A    between atoms: C_8  and  C_17
    8  A    between atoms: C_13  and  O_18
    9  A    between atoms: C_13  and  C_20
   10  A    between atoms: C_17  and  O_18
   11  A    between atoms: C_19  and  C_20
                            x       y       z     vdW  Elec       q    Type
                         _______ _______ _______ _____ _____    ______ ____

>  <TORSDO>
F 11

$$$$
=
 OpenBabel11072413183D

 27 28  0  0  1  0  0  0  0  0999 V2000
  161.5230  205.1900  149.2180 C   0  0  1  0  0  3  0  0  0  0  0  0
  160.8320  203.9070  149.2650 N   0  0  0  0  0  0  0  0  0  0  0  0
  160.1250  201.9020  150.2660 N   0  0  0  0  0  1  0  0  0  0  0  0
  161.5270  203.5050  151.4960 N   0  0  0  0  0  1  0  0  0  0  0  0
  160.8270  203.1380  150.3100 C   0  0  0  0  0  0  0  0  0  0  0  0
  162.2560  205.2780  148.0300 O   0  0  0  0  0  0  0  0  0  0  0  0
  162.0040  203.3150  146.6990 C   0  0  0  0  0  2  0  0  0  0  0  0
  161.4710  205.4700  145.7810 C   0  0  1  0  0  3  0  0  0  0  0  0
  161.3860  204.4610  144.6500 C   0  0  0  0  0  2  0  0  0  0  0  0
  160.0730  206.5680  145.7260 Cl  0  0  0  0  0  0  0  0  0  0  0  0
  161.5880  203.0830  145.2600 C   0  0  2  0  0  3  0  0  0  0  0  0
  161.4480  204.6710  147.0650 C   0  0  2  0  0  3  0  0  0  0  0  0
  160.3790  202.3830  145.2320 O   0  0  0  0  0  0  0  0  0  0  0  0
  160.5580  201.3240  146.1230 C   0  0  0  0  0  1  0  0  0  0  0  0
  160.5120  206.3290  149.2950 C   0  0  0  0  0  2  0  0  0  0  0  0
  161.2090  207.6430  149.4370 C   0  0  0  0  0  0  0  0  0  0  0  0
  161.5250  208.2750  148.3950 O   0  0  0  0  0  0  0  0  0  0  0  0
  161.5290  208.1810  150.7780 C   0  0  0  0  0  0  0  0  0  0  0  0
  162.3050  209.1690  150.8670 O   0  0  0  0  0  0  0  0  0  0  0  0
  161.0050  207.6420  151.9590 O   0  0  0  0  0  0  0  0  0  0  0  0
  161.2220  208.2000  153.2480 C   0  0  0  0  0  2  0  0  0  0  0  0
  160.7700  207.2230  154.3190 C   0  0  0  0  0  2  0  0  0  0  0  0
  160.2400  209.2550  156.6150 C   0  0  0  0  0  0  0  0  0  0  0  0
  160.0700  207.7710  156.5860 C   0  0  0  0  0  2  0  0  0  0  0  0
  159.6530  210.2100  157.1860 O   0  0  0  0  0  0  0  0  0  0  0  0
  161.3840  209.1320  155.6910 N   0  0  0  0  0  2  0  0  0  0  0  0
  161.1990  207.6990  155.7020 C   0  0  2  0  0  3  0  0  0  0  0  0
  1  2  1  0  0  0  0
  1 15  1  6  0  0  0
  2  5  2  0  0  0  0
  3  5  1  0  0  0  0
  5  4  1  0  0  0  0
  6  1  1  0  0  0  0
  7 12  1  0  0  0  0
  8 10  1  1  0  0  0
  8 12  1  0  0  0  0
  9 11  1  0  0  0  0
  9  8  1  0  0  0  0
 11 13  1  1  0  0  0
 11  7  1  0  0  0  0
 12  6  1  1  0  0  0
 13 14  1  0  0  0  0
 15 16  1  0  0  0  0
 16 18  1  0  0  0  0
 17 16  2  0  0  0  0
 18 19  2  0  0  0  0
 18 20  1  0  0  0  0
 20 21  1  0  0  0  0
 21 22  1  0  0  0  0
 23 25  2  0  0  0  0
 24 23  1  0  0  0  0
 26 27  1  0  0  0  0
 26 23  1  0  0  0  0
 27 22  1  6  0  0  0
 27 24  1  0  0  0  0
M  END
>  <MODEL>
9

>  <REMARK>
 VINA RESULT:      -5.4      2.907      4.312
  Name = 
  11 active torsions:
  status: ('A' for Active; 'I' for Inactive)
    1  A    between atoms: O_1  and  C_23
    2  A    between atoms: O_2  and  C_5
    3  A    between atoms: O_2  and  C_24
    4  A    between atoms: N_4  and  C_5
    5  A    between atoms: C_5  and  C_6
    6  A    between atoms: C_6  and  C_8
    7  A    between atoms: C_8  and  C_17
    8  A    between atoms: C_13  and  O_18
    9  A    between atoms: C_13  and  C_20
   10  A    between atoms: C_17  and  O_18
   11  A    between atoms: C_19  and  C_20
                            x       y       z     vdW  Elec       q    Type
                         _______ _______ _______ _____ _____    ______ ____

>  <TORSDO>
F 11

$$$$
