=
 OpenBabel11072413203D

 44 47  0  0  1  0  0  0  0  0999 V2000
  160.9160  206.5730  147.4960 C   0  0  2  0  0  3  0  0  0  0  0  0
  161.6300  208.4020  149.9770 C   0  0  1  0  0  3  0  0  0  0  0  0
  162.2510  207.3130  147.7100 C   0  0  0  0  0  2  0  0  0  0  0  0
  162.1660  208.5970  148.5480 C   0  0  1  0  0  3  0  0  0  0  0  0
  160.1330  206.2750  148.7880 C   0  0  0  0  0  2  0  0  0  0  0  0
  161.7450  206.9910  150.5260 C   0  0  0  0  0  0  0  0  0  0  0  0
  161.0370  206.0020  149.9610 C   0  0  0  0  0  3  0  0  0  0  0  0
  161.4100  209.5450  147.8880 F   0  0  0  0  0  0  0  0  0  0  0  0
  161.1840  205.3250  146.7990 N   0  0  0  0  0  2  0  0  0  0  0  0
  160.9780  203.8130  144.8430 N   0  0  0  0  0  2  0  0  0  0  0  0
  160.4520  206.0710  144.7110 O   0  0  0  0  0  0  0  0  0  0  0  0
  160.8600  205.1150  145.4200 C   0  0  0  0  0  0  0  0  0  0  0  0
  160.5570  201.6980  145.8480 C   0  0  0  0  0  3  0  0  0  0  0  0
  161.3990  202.6880  145.6110 C   0  0  0  0  0  3  0  0  0  0  0  0
  160.9970  200.5300  146.6550 C   0  0  0  0  0  2  0  0  0  0  0  0
  161.7960  200.9790  147.8660 C   0  0  0  0  0  2  0  0  0  0  0  0
  161.0710  200.5970  149.1430 C   0  0  0  0  0  2  0  0  0  0  0  0
  158.6760  201.2580  149.2340 O   0  0  0  0  0  0  0  0  0  0  0  0
  160.0070  201.5910  149.4400 C   0  0  0  0  0  0  0  0  0  0  0  0
  160.3110  202.7410  149.8520 O   0  0  0  0  0  1  0  0  0  0  0  0
  162.2120  210.8180  150.4840 N   0  0  0  0  0  1  0  0  0  0  0  0
  162.0730  209.4710  150.9240 C   0  0  0  0  0  0  0  0  0  0  0  0
  162.3650  209.1670  152.1070 O   0  0  0  0  0  0  0  0  0  0  0  0
  162.7320  206.6300  151.5920 C   0  0  0  0  0  2  0  0  0  0  0  0
  161.4340  205.8910  153.6670 N   0  0  0  0  0  0  0  0  0  0  0  0
  160.7290  205.4740  152.4450 C   0  0  2  0  0  3  0  0  0  0  0  0
  160.2820  204.1740  152.5920 F   0  0  0  0  0  0  0  0  0  0  0  0
  162.1870  205.4820  152.4500 C   0  0  1  0  0  3  0  0  0  0  0  0
  161.2220  207.3350  153.7840 C   0  0  0  0  0  2  0  0  0  0  0  0
  160.0550  207.6320  154.7200 C   0  0  0  0  0  2  0  0  0  0  0  0
  162.5040  208.8420  157.2580 O   0  0  0  0  0  1  0  0  0  0  0  0
  160.5190  208.0680  156.1100 C   0  0  1  0  0  0  0  0  0  0  0  0
  161.7170  209.0170  156.1160 C   0  0  1  0  0  3  0  0  0  0  0  0
  160.3350  209.5310  156.5190 C   0  0  1  0  0  3  0  0  0  0  0  0
  160.3980  207.0780  157.2600 C   0  0  0  0  0  1  0  0  0  0  0  0
  160.5930  211.3520  154.7620 C   0  0  0  0  0  3  0  0  0  0  0  0
  156.2660  212.1020  154.8370 C   0  0  0  0  0  1  0  0  0  0  0  0
  159.2120  211.1220  152.7360 C   0  0  0  0  0  2  0  0  0  0  0  0
  160.3880  211.6700  153.4830 C   0  0  0  0  0  3  0  0  0  0  0  0
  157.4760  211.6110  154.5970 C   0  0  0  0  0  0  0  0  0  0  0  0
  159.6390  210.4460  155.4800 C   0  0  2  0  0  3  0  0  0  0  0  0
  157.8750  211.2730  156.9030 O   0  0  0  0  0  0  0  0  0  0  0  0
  157.9600  211.6720  153.2470 N   0  0  0  0  0  0  0  0  0  0  0  0
  158.2910  211.0960  155.7300 C   0  0  0  0  0  0  0  0  0  0  0  0
  1  9  1  1  0  0  0
  1  3  1  0  0  0  0
  1  5  1  0  0  0  0
  2  6  1  0  0  0  0
  2 22  1  1  0  0  0
  3  4  1  0  0  0  0
  4  8  1  6  0  0  0
  4  2  1  0  0  0  0
  5  7  1  0  0  0  0
  6 24  1  0  0  0  0
  7  6  2  0  0  0  0
 10 12  1  0  0  0  0
 10 14  1  0  0  0  0
 11 12  2  0  0  0  0
 12  9  1  0  0  0  0
 13 15  1  0  0  0  0
 14 13  2  0  0  0  0
 15 16  1  0  0  0  0
 16 17  1  0  0  0  0
 17 19  1  0  0  0  0
 18 19  2  0  0  0  0
 19 20  1  0  0  0  0
 21 22  1  0  0  0  0
 22 23  2  0  0  0  0
 25 29  1  0  0  0  0
 26 28  1  0  0  0  0
 26 27  1  1  0  0  0
 26 25  1  0  0  0  0
 28 24  1  6  0  0  0
 28 25  1  0  0  0  0
 29 30  1  0  0  0  0
 30 32  1  0  0  0  0
 32 33  1  0  0  0  0
 32 34  1  0  0  0  0
 32 35  1  1  0  0  0
 33 34  1  0  0  0  0
 33 31  1  1  0  0  0
 34 41  1  6  0  0  0
 38 43  1  0  0  0  0
 38 39  1  0  0  0  0
 39 36  2  0  0  0  0
 40 37  1  0  0  0  0
 40 44  1  0  0  0  0
 41 36  1  1  0  0  0
 41 44  1  0  0  0  0
 43 40  2  0  0  0  0
 44 42  2  0  0  0  0
M  END
>  <MODEL>
1

>  <REMARK>
 VINA RESULT:      -8.5      0.000      0.000
  Name = 
  13 active torsions:
  status: ('A' for Active; 'I' for Inactive)
    1  A    between atoms: C_2  and  C_21
    2  A    between atoms: N_3  and  C_44
    3  A    between atoms: N_7  and  C_13
    4  A    between atoms: C_8  and  C_9
    5  A    between atoms: C_9  and  C_44
    6  A    between atoms: C_10  and  C_21
    7  A    between atoms: C_10  and  C_29
    8  A    between atoms: N_11  and  C_20
    9  A    between atoms: C_14  and  C_38
   10  A    between atoms: C_18  and  C_29
   11  A    between atoms: C_19  and  C_25
   12  A    between atoms: C_19  and  C_33
   13  A    between atoms: C_27  and  C_30
                            x       y       z     vdW  Elec       q    Type
                         _______ _______ _______ _____ _____    ______ ____

>  <TORSDO>
F 13

$$$$
=
 OpenBabel11072413203D

 44 47  0  0  1  0  0  0  0  0999 V2000
  160.3120  211.6690  153.7070 C   0  0  2  0  0  3  0  0  0  0  0  0
  160.7300  209.1930  155.6320 C   0  0  1  0  0  3  0  0  0  0  0  0
  161.6730  211.1010  154.1550 C   0  0  0  0  0  2  0  0  0  0  0  0
  161.6770  210.4010  155.5220 C   0  0  1  0  0  3  0  0  0  0  0  0
  159.1490  210.6610  153.7550 C   0  0  0  0  0  2  0  0  0  0  0  0
  160.3330  208.5580  154.3110 C   0  0  0  0  0  0  0  0  0  0  0  0
  159.5900  209.2550  153.4390 C   0  0  0  0  0  3  0  0  0  0  0  0
  161.3960  211.3110  156.5220 F   0  0  0  0  0  0  0  0  0  0  0  0
  160.4460  212.1820  152.3530 N   0  0  0  0  0  2  0  0  0  0  0  0
  159.6900  213.5800  150.4480 N   0  0  0  0  0  2  0  0  0  0  0  0
  158.8620  213.8800  152.5960 O   0  0  0  0  0  0  0  0  0  0  0  0
  159.6380  213.2450  151.8350 C   0  0  0  0  0  0  0  0  0  0  0  0
  160.6190  213.2660  148.2800 C   0  0  0  0  0  3  0  0  0  0  0  0
  160.5240  212.8680  149.5360 C   0  0  0  0  0  3  0  0  0  0  0  0
  161.4830  212.5180  147.3300 C   0  0  0  0  0  2  0  0  0  0  0  0
  161.9570  213.4190  146.2040 C   0  0  0  0  0  2  0  0  0  0  0  0
  161.4220  212.9230  144.8740 C   0  0  0  0  0  2  0  0  0  0  0  0
  162.1630  212.7930  142.5050 O   0  0  0  0  0  0  0  0  0  0  0  0
  162.4860  212.9960  143.8390 C   0  0  0  0  0  0  0  0  0  0  0  0
  163.6810  213.2120  144.1720 O   0  0  0  0  0  1  0  0  0  0  0  0
  160.1920  207.3250  157.2610 N   0  0  0  0  0  1  0  0  0  0  0  0
  161.1410  208.2180  156.6880 C   0  0  0  0  0  0  0  0  0  0  0  0
  162.3270  208.2180  157.1010 O   0  0  0  0  0  0  0  0  0  0  0  0
  160.8590  207.2250  153.8800 C   0  0  0  0  0  2  0  0  0  0  0  0
  162.3500  206.2030  152.0720 N   0  0  0  0  0  0  0  0  0  0  0  0
  161.5210  207.2790  151.5060 C   0  0  2  0  0  3  0  0  0  0  0  0
  162.2940  208.0690  150.6760 F   0  0  0  0  0  0  0  0  0  0  0  0
  162.0040  207.4080  152.8750 C   0  0  1  0  0  3  0  0  0  0  0  0
  161.4530  205.0660  152.2790 C   0  0  0  0  0  2  0  0  0  0  0  0
  160.7780  204.6700  150.9690 C   0  0  0  0  0  2  0  0  0  0  0  0
  159.9520  201.1970  149.8930 O   0  0  0  0  0  1  0  0  0  0  0  0
  161.0830  203.2250  150.5710 C   0  0  1  0  0  0  0  0  0  0  0  0
  160.0340  202.5740  149.6710 C   0  0  1  0  0  3  0  0  0  0  0  0
  161.4120  202.9210  149.1070 C   0  0  1  0  0  3  0  0  0  0  0  0
  161.8060  202.3340  151.5710 C   0  0  0  0  0  1  0  0  0  0  0  0
  160.4650  205.2080  148.5210 C   0  0  0  0  0  3  0  0  0  0  0  0
  162.2860  204.9930  144.5310 C   0  0  0  0  0  2  0  0  0  0  0  0
  162.0820  206.8990  147.7520 C   0  0  0  0  0  2  0  0  0  0  0  0
  160.7610  206.4940  148.3300 C   0  0  0  0  0  3  0  0  0  0  0  0
  162.0630  205.1620  145.8280 C   0  0  0  0  0  0  0  0  0  0  0  0
  161.4490  204.1400  148.1510 C   0  0  2  0  0  3  0  0  0  0  0  0
  161.3340  202.9260  146.0690 O   0  0  0  0  0  0  0  0  0  0  0  0
  162.1940  206.4910  146.3550 N   0  0  0  0  0  2  0  0  0  0  0  0
  161.6250  204.0020  146.6510 C   0  0  0  0  0  0  0  0  0  0  0  0
  1  9  1  6  0  0  0
  1  5  1  0  0  0  0
  1  3  1  0  0  0  0
  2 22  1  1  0  0  0
  3  4  1  0  0  0  0
  4  2  1  0  0  0  0
  4  8  1  1  0  0  0
  6  2  1  0  0  0  0
  7  5  1  0  0  0  0
  7  6  2  0  0  0  0
 10 12  1  0  0  0  0
 12  9  1  0  0  0  0
 12 11  2  0  0  0  0
 13 14  2  0  0  0  0
 14 10  1  0  0  0  0
 15 13  1  0  0  0  0
 16 15  1  0  0  0  0
 17 16  1  0  0  0  0
 18 19  2  0  0  0  0
 19 20  1  0  0  0  0
 19 17  1  0  0  0  0
 22 23  2  0  0  0  0
 22 21  1  0  0  0  0
 24  6  1  0  0  0  0
 25 29  1  0  0  0  0
 25 28  1  0  0  0  0
 26 27  1  6  0  0  0
 26 25  1  0  0  0  0
 26 28  1  0  0  0  0
 28 24  1  1  0  0  0
 30 29  1  0  0  0  0
 32 30  1  0  0  0  0
 32 35  1  1  0  0  0
 33 31  1  1  0  0  0
 33 32  1  0  0  0  0
 34 41  1  6  0  0  0
 34 33  1  0  0  0  0
 34 32  1  0  0  0  0
 37 40  2  0  0  0  0
 38 39  1  0  0  0  0
 39 36  2  0  0  0  0
 40 43  1  0  0  0  0
 40 44  1  0  0  0  0
 41 36  1  6  0  0  0
 42 44  2  0  0  0  0
 43 38  1  0  0  0  0
 44 41  1  0  0  0  0
M  END
>  <MODEL>
2

>  <REMARK>
 VINA RESULT:      -7.3      3.356      9.192
  Name = 
  13 active torsions:
  status: ('A' for Active; 'I' for Inactive)
    1  A    between atoms: C_2  and  C_21
    2  A    between atoms: N_3  and  C_44
    3  A    between atoms: N_7  and  C_13
    4  A    between atoms: C_8  and  C_9
    5  A    between atoms: C_9  and  C_44
    6  A    between atoms: C_10  and  C_21
    7  A    between atoms: C_10  and  C_29
    8  A    between atoms: N_11  and  C_20
    9  A    between atoms: C_14  and  C_38
   10  A    between atoms: C_18  and  C_29
   11  A    between atoms: C_19  and  C_25
   12  A    between atoms: C_19  and  C_33
   13  A    between atoms: C_27  and  C_30
                            x       y       z     vdW  Elec       q    Type
                         _______ _______ _______ _____ _____    ______ ____

>  <TORSDO>
F 13

$$$$
=
 OpenBabel11072413203D

 44 47  0  0  1  0  0  0  0  0999 V2000
  161.4600  202.0710  148.6170 C   0  0  2  0  0  3  0  0  0  0  0  0
  161.5560  204.0000  151.1220 C   0  0  1  0  0  3  0  0  0  0  0  0
  160.3970  202.1480  149.7300 C   0  0  0  0  0  2  0  0  0  0  0  0
  160.9140  202.6020  151.1040 C   0  0  1  0  0  3  0  0  0  0  0  0
  162.2960  203.3520  148.4370 C   0  0  0  0  0  2  0  0  0  0  0  0
  161.1520  204.9150  149.9800 C   0  0  0  0  0  0  0  0  0  0  0  0
  161.5060  204.6020  148.7260 C   0  0  0  0  0  3  0  0  0  0  0  0
  161.7990  201.6710  151.6090 F   0  0  0  0  0  0  0  0  0  0  0  0
  160.7960  201.7520  147.3620 N   0  0  0  0  0  2  0  0  0  0  0  0
  160.4250  200.3130  145.3770 N   0  0  0  0  0  2  0  0  0  0  0  0
  161.5750  199.5550  147.2460 O   0  0  0  0  0  0  0  0  0  0  0  0
  160.9540  200.4980  146.6910 C   0  0  0  0  0  0  0  0  0  0  0  0
  160.1330  202.6130  144.8450 C   0  0  0  0  0  3  0  0  0  0  0  0
  159.7450  201.3600  144.6880 C   0  0  0  0  0  3  0  0  0  0  0  0
  159.4180  203.7030  144.1310 C   0  0  0  0  0  2  0  0  0  0  0  0
  159.8700  205.0640  144.6290 C   0  0  0  0  0  2  0  0  0  0  0  0
  161.2630  205.3740  144.1130 C   0  0  0  0  0  2  0  0  0  0  0  0
  163.1710  204.3970  145.3720 O   0  0  0  0  0  0  0  0  0  0  0  0
  162.2280  205.4060  145.2440 C   0  0  0  0  0  0  0  0  0  0  0  0
  162.1740  206.3290  146.0980 O   0  0  0  0  0  1  0  0  0  0  0  0
  162.5550  205.5400  152.8740 N   0  0  0  0  0  1  0  0  0  0  0  0
  161.5240  204.6440  152.4720 C   0  0  0  0  0  0  0  0  0  0  0  0
  160.5980  204.3570  153.2710 O   0  0  0  0  0  0  0  0  0  0  0  0
  160.2470  206.0900  150.1840 C   0  0  0  0  0  2  0  0  0  0  0  0
  161.2490  208.4280  150.4390 N   0  0  0  0  0  0  0  0  0  0  0  0
  162.2430  207.5020  149.8720 C   0  0  2  0  0  3  0  0  0  0  0  0
  162.9070  208.1210  148.8290 F   0  0  0  0  0  0  0  0  0  0  0  0
  160.8400  207.3360  149.5140 C   0  0  1  0  0  3  0  0  0  0  0  0
  161.1400  208.0850  151.8570 C   0  0  0  0  0  2  0  0  0  0  0  0
  160.4960  209.2280  152.6370 C   0  0  0  0  0  2  0  0  0  0  0  0
  162.1370  209.5490  155.9700 O   0  0  0  0  0  1  0  0  0  0  0  0
  160.6250  209.0440  154.1500 C   0  0  1  0  0  0  0  0  0  0  0  0
  161.4980  210.0850  154.8490 C   0  0  1  0  0  3  0  0  0  0  0  0
  159.9860  210.0850  155.0730 C   0  0  1  0  0  3  0  0  0  0  0  0
  160.6270  207.6300  154.7130 C   0  0  0  0  0  1  0  0  0  0  0  0
  160.1110  212.2910  153.8120 C   0  0  0  0  0  3  0  0  0  0  0  0
  155.8320  212.9880  154.5090 C   0  0  0  0  0  1  0  0  0  0  0  0
  158.5330  212.5760  151.9430 C   0  0  0  0  0  2  0  0  0  0  0  0
  159.7900  212.9200  152.6810 C   0  0  0  0  0  3  0  0  0  0  0  0
  157.0000  212.5760  154.0330 C   0  0  0  0  0  0  0  0  0  0  0  0
  159.2120  211.2310  154.3720 C   0  0  2  0  0  3  0  0  0  0  0  0
  157.6160  211.6690  156.1280 O   0  0  0  0  0  0  0  0  0  0  0  0
  157.3500  212.9770  152.7000 N   0  0  0  0  0  0  0  0  0  0  0  0
  157.9110  211.7940  154.9120 C   0  0  0  0  0  0  0  0  0  0  0  0
  1  9  1  6  0  0  0
  1  3  1  0  0  0  0
  2 22  1  1  0  0  0
  3  4  1  0  0  0  0
  4  2  1  0  0  0  0
  4  8  1  6  0  0  0
  5  1  1  0  0  0  0
  5  7  1  0  0  0  0
  6 24  1  0  0  0  0
  6  2  1  0  0  0  0
  7  6  2  0  0  0  0
 10 12  1  0  0  0  0
 12 11  2  0  0  0  0
 12  9  1  0  0  0  0
 14 13  2  0  0  0  0
 14 10  1  0  0  0  0
 15 16  1  0  0  0  0
 15 13  1  0  0  0  0
 17 16  1  0  0  0  0
 17 19  1  0  0  0  0
 19 18  2  0  0  0  0
 19 20  1  0  0  0  0
 22 21  1  0  0  0  0
 22 23  2  0  0  0  0
 25 29  1  0  0  0  0
 26 27  1  6  0  0  0
 26 25  1  0  0  0  0
 28 26  1  0  0  0  0
 28 24  1  1  0  0  0
 28 25  1  0  0  0  0
 29 30  1  0  0  0  0
 30 32  1  0  0  0  0
 32 35  1  1  0  0  0
 32 33  1  0  0  0  0
 32 34  1  0  0  0  0
 33 34  1  0  0  0  0
 33 31  1  1  0  0  0
 34 41  1  6  0  0  0
 38 39  1  0  0  0  0
 38 43  1  0  0  0  0
 39 36  2  0  0  0  0
 40 37  1  0  0  0  0
 40 44  1  0  0  0  0
 41 36  1  1  0  0  0
 41 44  1  0  0  0  0
 43 40  2  0  0  0  0
 44 42  2  0  0  0  0
M  END
>  <MODEL>
3

>  <REMARK>
 VINA RESULT:      -7.0      1.941      4.154
  Name = 
  13 active torsions:
  status: ('A' for Active; 'I' for Inactive)
    1  A    between atoms: C_2  and  C_21
    2  A    between atoms: N_3  and  C_44
    3  A    between atoms: N_7  and  C_13
    4  A    between atoms: C_8  and  C_9
    5  A    between atoms: C_9  and  C_44
    6  A    between atoms: C_10  and  C_21
    7  A    between atoms: C_10  and  C_29
    8  A    between atoms: N_11  and  C_20
    9  A    between atoms: C_14  and  C_38
   10  A    between atoms: C_18  and  C_29
   11  A    between atoms: C_19  and  C_25
   12  A    between atoms: C_19  and  C_33
   13  A    between atoms: C_27  and  C_30
                            x       y       z     vdW  Elec       q    Type
                         _______ _______ _______ _____ _____    ______ ____

>  <TORSDO>
F 13

$$$$
=
 OpenBabel11072413203D

 44 47  0  0  1  0  0  0  0  0999 V2000
  158.9480  212.6670  153.5470 C   0  0  2  0  0  3  0  0  0  0  0  0
  160.2210  210.4260  155.3800 C   0  0  1  0  0  3  0  0  0  0  0  0
  160.4560  212.4500  153.7810 C   0  0  0  0  0  2  0  0  0  0  0  0
  160.8280  211.8170  155.1310 C   0  0  1  0  0  3  0  0  0  0  0  0
  158.0770  211.4170  153.7680 C   0  0  0  0  0  2  0  0  0  0  0  0
  159.7950  209.6700  154.1340 C   0  0  0  0  0  0  0  0  0  0  0  0
  158.7870  210.1440  153.3870 C   0  0  0  0  0  3  0  0  0  0  0  0
  160.4910  212.6690  156.1630 F   0  0  0  0  0  0  0  0  0  0  0  0
  158.7540  213.1510  152.1890 N   0  0  0  0  0  2  0  0  0  0  0  0
  157.3560  214.1000  150.3730 N   0  0  0  0  0  2  0  0  0  0  0  0
  156.6730  214.1290  152.5910 O   0  0  0  0  0  0  0  0  0  0  0  0
  157.5600  213.8120  151.7570 C   0  0  0  0  0  0  0  0  0  0  0  0
  157.9050  213.2710  148.2110 C   0  0  0  0  0  3  0  0  0  0  0  0
  158.3120  213.7290  149.3810 C   0  0  0  0  0  3  0  0  0  0  0  0
  158.9040  212.8790  147.1820 C   0  0  0  0  0  2  0  0  0  0  0  0
  160.1950  212.4130  147.8320 C   0  0  0  0  0  2  0  0  0  0  0  0
  161.3760  212.7240  146.9320 C   0  0  0  0  0  2  0  0  0  0  0  0
  163.2350  212.1850  148.4930 O   0  0  0  0  0  1  0  0  0  0  0  0
  162.5460  213.1350  147.7530 C   0  0  0  0  0  0  0  0  0  0  0  0
  162.8940  214.3430  147.7990 O   0  0  0  0  0  0  0  0  0  0  0  0
  162.4200  209.7200  156.4290 N   0  0  0  0  0  1  0  0  0  0  0  0
  161.0030  209.6100  156.3600 C   0  0  0  0  0  0  0  0  0  0  0  0
  160.4020  208.7910  157.1000 O   0  0  0  0  0  0  0  0  0  0  0  0
  160.5510  208.4840  153.6250 C   0  0  0  0  0  2  0  0  0  0  0  0
  162.2390  207.8170  151.8250 N   0  0  0  0  0  0  0  0  0  0  0  0
  161.1190  208.5620  151.2280 C   0  0  2  0  0  3  0  0  0  0  0  0
  161.6090  209.4830  150.3210 F   0  0  0  0  0  0  0  0  0  0  0  0
  161.5720  208.9210  152.5660 C   0  0  1  0  0  3  0  0  0  0  0  0
  161.7190  206.4850  152.1360 C   0  0  0  0  0  2  0  0  0  0  0  0
  162.4560  205.4200  151.3300 C   0  0  0  0  0  2  0  0  0  0  0  0
  159.4940  203.1850  151.7080 O   0  0  0  0  0  1  0  0  0  0  0  0
  161.6990  204.0910  151.2930 C   0  0  1  0  0  0  0  0  0  0  0  0
  160.1920  204.2180  151.0760 C   0  0  1  0  0  3  0  0  0  0  0  0
  161.0750  203.6370  149.9710 C   0  0  1  0  0  3  0  0  0  0  0  0
  162.1910  202.9510  152.1740 C   0  0  0  0  0  1  0  0  0  0  0  0
  160.4120  205.7650  148.7460 C   0  0  0  0  0  3  0  0  0  0  0  0
  162.5200  204.4060  145.1420 C   0  0  0  0  0  2  0  0  0  0  0  0
  162.2460  207.0770  147.7570 C   0  0  0  0  0  2  0  0  0  0  0  0
  160.8480  206.9340  148.2760 C   0  0  0  0  0  3  0  0  0  0  0  0
  162.2110  204.9160  146.3280 C   0  0  0  0  0  0  0  0  0  0  0  0
  161.3110  204.5670  148.7540 C   0  0  2  0  0  3  0  0  0  0  0  0
  161.2450  202.8760  147.0340 O   0  0  0  0  0  0  0  0  0  0  0  0
  162.4300  206.3210  146.5220 N   0  0  0  0  0  2  0  0  0  0  0  0
  161.5940  204.0400  147.3600 C   0  0  0  0  0  0  0  0  0  0  0  0
  1  9  1  6  0  0  0
  1  5  1  0  0  0  0
  1  3  1  0  0  0  0
  2 22  1  6  0  0  0
  3  4  1  0  0  0  0
  4  2  1  0  0  0  0
  4  8  1  1  0  0  0
  6  2  1  0  0  0  0
  7  5  1  0  0  0  0
  7  6  2  0  0  0  0
 10 12  1  0  0  0  0
 12  9  1  0  0  0  0
 12 11  2  0  0  0  0
 13 14  2  0  0  0  0
 14 10  1  0  0  0  0
 15 16  1  0  0  0  0
 15 13  1  0  0  0  0
 17 19  1  0  0  0  0
 17 16  1  0  0  0  0
 19 20  2  0  0  0  0
 19 18  1  0  0  0  0
 22 21  1  0  0  0  0
 22 23  2  0  0  0  0
 24  6  1  0  0  0  0
 25 29  1  0  0  0  0
 25 28  1  0  0  0  0
 26 27  1  6  0  0  0
 26 25  1  0  0  0  0
 26 28  1  0  0  0  0
 28 24  1  1  0  0  0
 30 29  1  0  0  0  0
 32 30  1  0  0  0  0
 32 35  1  1  0  0  0
 33 32  1  0  0  0  0
 33 31  1  1  0  0  0
 34 41  1  6  0  0  0
 34 33  1  0  0  0  0
 34 32  1  0  0  0  0
 37 40  2  0  0  0  0
 38 39  1  0  0  0  0
 39 36  2  0  0  0  0
 40 43  1  0  0  0  0
 40 44  1  0  0  0  0
 41 36  1  6  0  0  0
 42 44  2  0  0  0  0
 43 38  1  0  0  0  0
 44 41  1  0  0  0  0
M  END
>  <MODEL>
4

>  <REMARK>
 VINA RESULT:      -6.6      3.213      9.013
  Name = 
  13 active torsions:
  status: ('A' for Active; 'I' for Inactive)
    1  A    between atoms: C_2  and  C_21
    2  A    between atoms: N_3  and  C_44
    3  A    between atoms: N_7  and  C_13
    4  A    between atoms: C_8  and  C_9
    5  A    between atoms: C_9  and  C_44
    6  A    between atoms: C_10  and  C_21
    7  A    between atoms: C_10  and  C_29
    8  A    between atoms: N_11  and  C_20
    9  A    between atoms: C_14  and  C_38
   10  A    between atoms: C_18  and  C_29
   11  A    between atoms: C_19  and  C_25
   12  A    between atoms: C_19  and  C_33
   13  A    between atoms: C_27  and  C_30
                            x       y       z     vdW  Elec       q    Type
                         _______ _______ _______ _____ _____    ______ ____

>  <TORSDO>
F 13

$$$$
=
 OpenBabel11072413203D

 44 47  0  0  1  0  0  0  0  0999 V2000
  162.2710  203.7100  145.6660 C   0  0  2  0  0  3  0  0  0  0  0  0
  161.3610  203.2520  148.6610 C   0  0  1  0  0  3  0  0  0  0  0  0
  160.8310  203.4200  146.1300 C   0  0  0  0  0  2  0  0  0  0  0  0
  160.7080  202.6040  147.4270 C   0  0  1  0  0  3  0  0  0  0  0  0
  163.1770  204.3400  146.7390 C   0  0  0  0  0  2  0  0  0  0  0  0
  161.5650  204.7540  148.5730 C   0  0  0  0  0  0  0  0  0  0  0  0
  162.4210  205.2530  147.6690 C   0  0  0  0  0  3  0  0  0  0  0  0
  161.2160  201.3340  147.2380 F   0  0  0  0  0  0  0  0  0  0  0  0
  162.2180  204.5880  144.5070 N   0  0  0  0  0  2  0  0  0  0  0  0
  161.1260  206.3300  143.1200 N   0  0  0  0  0  2  0  0  0  0  0  0
  160.4660  205.9090  145.3050 O   0  0  0  0  0  0  0  0  0  0  0  0
  161.2420  205.6240  144.3560 C   0  0  0  0  0  0  0  0  0  0  0  0
  161.9370  206.8000  140.9330 C   0  0  0  0  0  3  0  0  0  0  0  0
  161.9540  206.0220  142.0000 C   0  0  0  0  0  3  0  0  0  0  0  0
  162.7960  206.4720  139.7650 C   0  0  0  0  0  2  0  0  0  0  0  0
  162.1600  206.9530  138.4730 C   0  0  0  0  0  2  0  0  0  0  0  0
  161.1930  208.0880  138.7550 C   0  0  0  0  0  2  0  0  0  0  0  0
  161.9560  209.6870  137.0120 O   0  0  0  0  0  0  0  0  0  0  0  0
  161.8010  209.3850  138.3570 C   0  0  0  0  0  0  0  0  0  0  0  0
  162.1990  210.1950  139.2340 O   0  0  0  0  0  1  0  0  0  0  0  0
  161.2170  203.3200  151.1920 N   0  0  0  0  0  1  0  0  0  0  0  0
  160.7710  202.7830  149.9520 C   0  0  0  0  0  0  0  0  0  0  0  0
  159.9030  201.8750  149.9410 O   0  0  0  0  0  0  0  0  0  0  0  0
  160.7400  205.7170  149.3670 C   0  0  0  0  0  2  0  0  0  0  0  0
  161.1660  208.1610  149.9840 N   0  0  0  0  0  0  0  0  0  0  0  0
  162.3390  207.5920  149.3000 C   0  0  2  0  0  3  0  0  0  0  0  0
  162.8150  208.4980  148.3710 F   0  0  0  0  0  0  0  0  0  0  0  0
  161.0070  207.1530  148.9000 C   0  0  1  0  0  3  0  0  0  0  0  0
  161.1700  207.5950  151.3330 C   0  0  0  0  0  2  0  0  0  0  0  0
  161.1150  208.7030  152.3800 C   0  0  0  0  0  2  0  0  0  0  0  0
  161.9580  208.1020  155.9620 O   0  0  0  0  0  1  0  0  0  0  0  0
  160.8900  208.1600  153.7920 C   0  0  1  0  0  0  0  0  0  0  0  0
  161.6050  208.9350  154.8980 C   0  0  1  0  0  3  0  0  0  0  0  0
  160.0820  209.0010  154.7820 C   0  0  1  0  0  3  0  0  0  0  0  0
  160.7300  206.6570  153.9750 C   0  0  0  0  0  1  0  0  0  0  0  0
  160.5830  211.3360  153.9060 C   0  0  0  0  0  3  0  0  0  0  0  0
  156.3880  212.5020  154.4750 C   0  0  0  0  0  1  0  0  0  0  0  0
  159.1990  212.1200  152.0250 C   0  0  0  0  0  2  0  0  0  0  0  0
  160.4300  212.1700  152.8760 C   0  0  0  0  0  3  0  0  0  0  0  0
  157.5260  212.0110  154.0010 C   0  0  0  0  0  0  0  0  0  0  0  0
  159.5160  210.3370  154.2370 C   0  0  2  0  0  3  0  0  0  0  0  0
  157.8610  210.7150  155.9510 O   0  0  0  0  0  0  0  0  0  0  0  0
  158.0240  212.5590  152.7720 N   0  0  0  0  0  0  0  0  0  0  0  0
  158.2610  210.9840  154.7890 C   0  0  0  0  0  0  0  0  0  0  0  0
  1  9  1  6  0  0  0
  1  3  1  0  0  0  0
  1  5  1  0  0  0  0
  2 22  1  1  0  0  0
  3  4  1  0  0  0  0
  4  8  1  6  0  0  0
  4  2  1  0  0  0  0
  5  7  1  0  0  0  0
  6  2  1  0  0  0  0
  6 24  1  0  0  0  0
  7  6  2  0  0  0  0
 10 12  1  0  0  0  0
 12  9  1  0  0  0  0
 12 11  2  0  0  0  0
 13 14  2  0  0  0  0
 14 10  1  0  0  0  0
 15 13  1  0  0  0  0
 16 17  1  0  0  0  0
 16 15  1  0  0  0  0
 18 19  2  0  0  0  0
 19 17  1  0  0  0  0
 19 20  1  0  0  0  0
 22 21  1  0  0  0  0
 23 22  2  0  0  0  0
 25 29  1  0  0  0  0
 26 27  1  6  0  0  0
 26 25  1  0  0  0  0
 28 26  1  0  0  0  0
 28 24  1  1  0  0  0
 28 25  1  0  0  0  0
 29 30  1  0  0  0  0
 30 32  1  0  0  0  0
 32 35  1  1  0  0  0
 32 34  1  0  0  0  0
 32 33  1  0  0  0  0
 33 31  1  1  0  0  0
 34 41  1  6  0  0  0
 34 33  1  0  0  0  0
 38 43  1  0  0  0  0
 38 39  1  0  0  0  0
 39 36  2  0  0  0  0
 40 37  1  0  0  0  0
 40 44  1  0  0  0  0
 41 36  1  1  0  0  0
 41 44  1  0  0  0  0
 43 40  2  0  0  0  0
 44 42  2  0  0  0  0
M  END
>  <MODEL>
5

>  <REMARK>
 VINA RESULT:      -6.4      3.388      5.995
  Name = 
  13 active torsions:
  status: ('A' for Active; 'I' for Inactive)
    1  A    between atoms: C_2  and  C_21
    2  A    between atoms: N_3  and  C_44
    3  A    between atoms: N_7  and  C_13
    4  A    between atoms: C_8  and  C_9
    5  A    between atoms: C_9  and  C_44
    6  A    between atoms: C_10  and  C_21
    7  A    between atoms: C_10  and  C_29
    8  A    between atoms: N_11  and  C_20
    9  A    between atoms: C_14  and  C_38
   10  A    between atoms: C_18  and  C_29
   11  A    between atoms: C_19  and  C_25
   12  A    between atoms: C_19  and  C_33
   13  A    between atoms: C_27  and  C_30
                            x       y       z     vdW  Elec       q    Type
                         _______ _______ _______ _____ _____    ______ ____

>  <TORSDO>
F 13

$$$$
=
 OpenBabel11072413203D

 44 47  0  0  1  0  0  0  0  0999 V2000
  158.2700  214.2910  150.4390 C   0  0  2  0  0  3  0  0  0  0  0  0
  160.6650  213.1470  148.7180 C   0  0  1  0  0  3  0  0  0  0  0  0
  158.1520  213.2130  149.3440 C   0  0  0  0  0  2  0  0  0  0  0  0
  159.2110  213.2840  148.2330 C   0  0  1  0  0  3  0  0  0  0  0  0
  159.6640  214.4010  151.0850 C   0  0  0  0  0  2  0  0  0  0  0  0
  160.8380  212.4720  150.0670 C   0  0  0  0  0  0  0  0  0  0  0  0
  160.3660  213.0710  151.1700 C   0  0  0  0  0  3  0  0  0  0  0  0
  159.0640  214.4510  147.5110 F   0  0  0  0  0  0  0  0  0  0  0  0
  157.2840  214.0140  151.4720 N   0  0  0  0  0  2  0  0  0  0  0  0
  154.9600  213.9790  152.3380 N   0  0  0  0  0  2  0  0  0  0  0  0
  155.4250  214.2520  150.0800 O   0  0  0  0  0  0  0  0  0  0  0  0
  155.8720  214.0820  151.2440 C   0  0  0  0  0  0  0  0  0  0  0  0
  155.4760  212.6210  154.2220 C   0  0  0  0  0  3  0  0  0  0  0  0
  155.4150  213.8240  153.6810 C   0  0  0  0  0  3  0  0  0  0  0  0
  155.9440  212.4630  155.6240 C   0  0  0  0  0  2  0  0  0  0  0  0
  157.3030  211.7890  155.6690 C   0  0  0  0  0  2  0  0  0  0  0  0
  158.2970  212.5530  154.8140 C   0  0  0  0  0  2  0  0  0  0  0  0
  159.8600  213.0460  156.6820 O   0  0  0  0  0  1  0  0  0  0  0  0
  159.6490  212.4920  155.4280 C   0  0  0  0  0  0  0  0  0  0  0  0
  160.6060  211.9650  154.8030 O   0  0  0  0  0  0  0  0  0  0  0  0
  163.0040  212.6850  147.8520 N   0  0  0  0  0  1  0  0  0  0  0  0
  161.5950  212.6530  147.6560 C   0  0  0  0  0  0  0  0  0  0  0  0
  161.1240  212.2450  146.5640 O   0  0  0  0  0  0  0  0  0  0  0  0
  161.3960  211.0910  150.2000 C   0  0  0  0  0  2  0  0  0  0  0  0
  161.1730  209.0220  151.6850 N   0  0  0  0  0  0  0  0  0  0  0  0
  162.1930  209.9350  152.2260 C   0  0  2  0  0  3  0  0  0  0  0  0
  162.0370  210.0430  153.5950 F   0  0  0  0  0  0  0  0  0  0  0  0
  161.0230  210.4980  151.5640 C   0  0  1  0  0  3  0  0  0  0  0  0
  161.7800  208.3830  150.5170 C   0  0  0  0  0  2  0  0  0  0  0  0
  161.0390  207.0980  150.1630 C   0  0  0  0  0  2  0  0  0  0  0  0
  160.7050  204.1210  152.3840 O   0  0  0  0  0  1  0  0  0  0  0  0
  161.5390  205.8970  150.9680 C   0  0  1  0  0  0  0  0  0  0  0  0
  160.5070  204.7890  151.1730 C   0  0  1  0  0  3  0  0  0  0  0  0
  161.7060  204.5530  150.2550 C   0  0  1  0  0  3  0  0  0  0  0  0
  162.5430  206.1400  152.0860 C   0  0  0  0  0  1  0  0  0  0  0  0
  160.6000  205.7390  148.2960 C   0  0  0  0  0  3  0  0  0  0  0  0
  160.8580  202.0830  145.8760 C   0  0  0  0  0  1  0  0  0  0  0  0
  161.8210  205.6950  146.1580 C   0  0  0  0  0  2  0  0  0  0  0  0
  160.7990  206.2700  147.0890 C   0  0  0  0  0  3  0  0  0  0  0  0
  161.1180  203.2240  146.5020 C   0  0  0  0  0  0  0  0  0  0  0  0
  161.3890  204.5440  148.7380 C   0  0  2  0  0  3  0  0  0  0  0  0
  160.5370  202.2910  148.5960 O   0  0  0  0  0  0  0  0  0  0  0  0
  161.4230  204.3700  145.6920 N   0  0  0  0  0  0  0  0  0  0  0  0
  161.0130  203.2830  147.9850 C   0  0  0  0  0  0  0  0  0  0  0  0
  1  5  1  0  0  0  0
  1  9  1  1  0  0  0
  2 22  1  6  0  0  0
  2  6  1  0  0  0  0
  3  1  1  0  0  0  0
  4  8  1  1  0  0  0
  4  2  1  0  0  0  0
  4  3  1  0  0  0  0
  5  7  1  0  0  0  0
  6 24  1  0  0  0  0
  6  7  2  0  0  0  0
 10 14  1  0  0  0  0
 11 12  2  0  0  0  0
 12  9  1  0  0  0  0
 12 10  1  0  0  0  0
 13 15  1  0  0  0  0
 14 13  2  0  0  0  0
 15 16  1  0  0  0  0
 17 19  1  0  0  0  0
 17 16  1  0  0  0  0
 19 18  1  0  0  0  0
 20 19  2  0  0  0  0
 22 21  1  0  0  0  0
 23 22  2  0  0  0  0
 25 26  1  0  0  0  0
 26 27  1  1  0  0  0
 28 24  1  6  0  0  0
 28 25  1  0  0  0  0
 28 26  1  0  0  0  0
 29 25  1  0  0  0  0
 30 29  1  0  0  0  0
 30 32  1  0  0  0  0
 32 33  1  0  0  0  0
 32 35  1  1  0  0  0
 33 31  1  1  0  0  0
 34 41  1  6  0  0  0
 34 32  1  0  0  0  0
 34 33  1  0  0  0  0
 37 40  1  0  0  0  0
 38 39  1  0  0  0  0
 39 36  2  0  0  0  0
 40 44  1  0  0  0  0
 41 36  1  1  0  0  0
 43 38  1  0  0  0  0
 43 40  2  0  0  0  0
 44 42  2  0  0  0  0
 44 41  1  0  0  0  0
M  END
>  <MODEL>
6

>  <REMARK>
 VINA RESULT:      -6.1      3.110      9.522
  Name = 
  13 active torsions:
  status: ('A' for Active; 'I' for Inactive)
    1  A    between atoms: C_2  and  C_21
    2  A    between atoms: N_3  and  C_44
    3  A    between atoms: N_7  and  C_13
    4  A    between atoms: C_8  and  C_9
    5  A    between atoms: C_9  and  C_44
    6  A    between atoms: C_10  and  C_21
    7  A    between atoms: C_10  and  C_29
    8  A    between atoms: N_11  and  C_20
    9  A    between atoms: C_14  and  C_38
   10  A    between atoms: C_18  and  C_29
   11  A    between atoms: C_19  and  C_25
   12  A    between atoms: C_19  and  C_33
   13  A    between atoms: C_27  and  C_30
                            x       y       z     vdW  Elec       q    Type
                         _______ _______ _______ _____ _____    ______ ____

>  <TORSDO>
F 13

$$$$
=
 OpenBabel11072413203D

 44 47  0  0  1  0  0  0  0  0999 V2000
  157.6040  213.4890  153.7660 C   0  0  2  0  0  3  0  0  0  0  0  0
  159.4750  211.7020  155.5860 C   0  0  1  0  0  3  0  0  0  0  0  0
  159.0940  213.7550  154.0540 C   0  0  0  0  0  2  0  0  0  0  0  0
  159.6110  213.2230  155.3990 C   0  0  1  0  0  3  0  0  0  0  0  0
  157.1740  212.0180  153.9190 C   0  0  0  0  0  2  0  0  0  0  0  0
  159.3490  210.8990  154.3040 C   0  0  0  0  0  0  0  0  0  0  0  0
  158.2650  211.0540  153.5310 C   0  0  0  0  0  3  0  0  0  0  0  0
  158.9890  213.8830  156.4400 F   0  0  0  0  0  0  0  0  0  0  0  0
  157.3050  213.9380  152.4150 N   0  0  0  0  0  2  0  0  0  0  0  0
  155.7310  214.4360  150.5630 N   0  0  0  0  0  2  0  0  0  0  0  0
  155.0020  214.1360  152.7470 O   0  0  0  0  0  0  0  0  0  0  0  0
  155.9730  214.1740  151.9470 C   0  0  0  0  0  0  0  0  0  0  0  0
  156.9060  213.4700  148.7330 C   0  0  0  0  0  3  0  0  0  0  0  0
  156.7900  214.4530  149.6080 C   0  0  0  0  0  3  0  0  0  0  0  0
  158.0140  213.4870  147.7440 C   0  0  0  0  0  2  0  0  0  0  0  0
  159.3090  213.9450  148.3900 C   0  0  0  0  0  2  0  0  0  0  0  0
  160.4620  213.8020  147.4130 C   0  0  0  0  0  2  0  0  0  0  0  0
  162.3320  212.5910  148.5160 O   0  0  0  0  0  1  0  0  0  0  0  0
  161.2150  212.5520  147.6940 C   0  0  0  0  0  0  0  0  0  0  0  0
  160.8580  211.4650  147.1680 O   0  0  0  0  0  0  0  0  0  0  0  0
  160.1690  209.9270  157.2600 N   0  0  0  0  0  1  0  0  0  0  0  0
  160.4480  211.1420  156.5740 C   0  0  0  0  0  0  0  0  0  0  0  0
  161.5040  211.7750  156.8270 O   0  0  0  0  0  0  0  0  0  0  0  0
  160.4600  210.0370  153.7930 C   0  0  0  0  0  2  0  0  0  0  0  0
  160.8560  207.6340  153.0160 N   0  0  0  0  0  0  0  0  0  0  0  0
  161.1280  207.7590  154.4570 C   0  0  2  0  0  3  0  0  0  0  0  0
  160.5750  206.6830  155.1250 F   0  0  0  0  0  0  0  0  0  0  0  0
  160.0600  208.5580  153.8690 C   0  0  1  0  0  3  0  0  0  0  0  0
  161.9840  208.2690  152.3340 C   0  0  0  0  0  2  0  0  0  0  0  0
  162.4980  207.3800  151.2050 C   0  0  0  0  0  2  0  0  0  0  0  0
  162.3810  207.9020  147.5140 O   0  0  0  0  0  1  0  0  0  0  0  0
  161.8370  207.7030  149.8640 C   0  0  1  0  0  0  0  0  0  0  0  0
  162.5310  207.0960  148.6450 C   0  0  1  0  0  3  0  0  0  0  0  0
  161.1650  206.5700  149.0850 C   0  0  1  0  0  3  0  0  0  0  0  0
  161.1700  209.0610  149.6910 C   0  0  0  0  0  1  0  0  0  0  0  0
  162.0560  205.1230  150.9770 C   0  0  0  0  0  3  0  0  0  0  0  0
  160.7240  201.4940  148.8940 C   0  0  0  0  0  2  0  0  0  0  0  0
  160.4570  203.5610  152.0090 C   0  0  0  0  0  2  0  0  0  0  0  0
  161.7200  204.3640  152.0210 C   0  0  0  0  0  3  0  0  0  0  0  0
  160.7860  202.6000  149.6250 C   0  0  0  0  0  0  0  0  0  0  0  0
  161.1770  205.1770  149.7640 C   0  0  2  0  0  3  0  0  0  0  0  0
  161.5940  203.8540  147.7910 O   0  0  0  0  0  0  0  0  0  0  0  0
  160.5280  202.4790  151.0320 N   0  0  0  0  0  2  0  0  0  0  0  0
  161.1840  203.8800  148.9790 C   0  0  0  0  0  0  0  0  0  0  0  0
  1  9  1  6  0  0  0
  1  5  1  0  0  0  0
  1  3  1  0  0  0  0
  2 22  1  6  0  0  0
  3  4  1  0  0  0  0
  4  2  1  0  0  0  0
  4  8  1  1  0  0  0
  6  2  1  0  0  0  0
  7  5  1  0  0  0  0
  7  6  2  0  0  0  0
 10 12  1  0  0  0  0
 12  9  1  0  0  0  0
 12 11  2  0  0  0  0
 13 14  2  0  0  0  0
 14 10  1  0  0  0  0
 15 16  1  0  0  0  0
 15 13  1  0  0  0  0
 17 19  1  0  0  0  0
 17 16  1  0  0  0  0
 19 18  1  0  0  0  0
 20 19  2  0  0  0  0
 22 23  2  0  0  0  0
 22 21  1  0  0  0  0
 24  6  1  0  0  0  0
 25 28  1  0  0  0  0
 25 26  1  0  0  0  0
 26 27  1  1  0  0  0
 28 24  1  6  0  0  0
 28 26  1  0  0  0  0
 29 25  1  0  0  0  0
 30 29  1  0  0  0  0
 32 35  1  6  0  0  0
 32 30  1  0  0  0  0
 33 31  1  6  0  0  0
 33 34  1  0  0  0  0
 33 32  1  0  0  0  0
 34 41  1  1  0  0  0
 34 32  1  0  0  0  0
 36 39  2  0  0  0  0
 37 40  2  0  0  0  0
 38 39  1  0  0  0  0
 40 43  1  0  0  0  0
 41 36  1  6  0  0  0
 42 44  2  0  0  0  0
 43 38  1  0  0  0  0
 44 40  1  0  0  0  0
 44 41  1  0  0  0  0
M  END
>  <MODEL>
7

>  <REMARK>
 VINA RESULT:      -6.0      3.478      9.266
  Name = 
  13 active torsions:
  status: ('A' for Active; 'I' for Inactive)
    1  A    between atoms: C_2  and  C_21
    2  A    between atoms: N_3  and  C_44
    3  A    between atoms: N_7  and  C_13
    4  A    between atoms: C_8  and  C_9
    5  A    between atoms: C_9  and  C_44
    6  A    between atoms: C_10  and  C_21
    7  A    between atoms: C_10  and  C_29
    8  A    between atoms: N_11  and  C_20
    9  A    between atoms: C_14  and  C_38
   10  A    between atoms: C_18  and  C_29
   11  A    between atoms: C_19  and  C_25
   12  A    between atoms: C_19  and  C_33
   13  A    between atoms: C_27  and  C_30
                            x       y       z     vdW  Elec       q    Type
                         _______ _______ _______ _____ _____    ______ ____

>  <TORSDO>
F 13

$$$$
=
 OpenBabel11072413203D

 44 47  0  0  1  0  0  0  0  0999 V2000
  161.3720  204.7160  152.3760 C   0  0  2  0  0  3  0  0  0  0  0  0
  161.6690  207.8060  152.9850 C   0  0  1  0  0  3  0  0  0  0  0  0
  160.2140  205.7280  152.4590 C   0  0  0  0  0  2  0  0  0  0  0  0
  160.4600  206.9380  153.3750 C   0  0  1  0  0  3  0  0  0  0  0  0
  162.7400  205.3330  152.0290 C   0  0  0  0  0  2  0  0  0  0  0  0
  162.1200  207.6800  151.5410 C   0  0  0  0  0  0  0  0  0  0  0  0
  162.6220  206.5160  151.1050 C   0  0  0  0  0  3  0  0  0  0  0  0
  160.5820  206.5230  154.6860 F   0  0  0  0  0  0  0  0  0  0  0  0
  161.0360  203.7070  151.3830 N   0  0  0  0  0  2  0  0  0  0  0  0
  161.3480  201.4940  150.3070 N   0  0  0  0  0  2  0  0  0  0  0  0
  162.2540  201.9870  152.3870 O   0  0  0  0  0  0  0  0  0  0  0  0
  161.5700  202.3790  151.4060 C   0  0  0  0  0  0  0  0  0  0  0  0
  161.0850  201.6500  147.9470 C   0  0  0  0  0  3  0  0  0  0  0  0
  160.6120  201.9000  149.1550 C   0  0  0  0  0  3  0  0  0  0  0  0
  160.3190  202.0800  146.7490 C   0  0  0  0  0  2  0  0  0  0  0  0
  161.2080  202.8430  145.7830 C   0  0  0  0  0  2  0  0  0  0  0  0
  161.5030  204.2290  146.3240 C   0  0  0  0  0  2  0  0  0  0  0  0
  161.4540  205.1690  144.0230 O   0  0  0  0  0  0  0  0  0  0  0  0
  161.0590  205.2600  145.3500 C   0  0  0  0  0  0  0  0  0  0  0  0
  160.3490  206.2280  145.7300 O   0  0  0  0  0  1  0  0  0  0  0  0
  160.4290  209.6420  154.2200 N   0  0  0  0  0  1  0  0  0  0  0  0
  161.5670  209.2130  153.4800 C   0  0  0  0  0  0  0  0  0  0  0  0
  162.4770  210.0330  153.2030 O   0  0  0  0  0  0  0  0  0  0  0  0
  161.8960  208.7690  150.5400 C   0  0  0  0  0  2  0  0  0  0  0  0
  161.5280  209.1380  148.0370 N   0  0  0  0  0  0  0  0  0  0  0  0
  162.7210  208.3070  148.2640 C   0  0  2  0  0  3  0  0  0  0  0  0
  162.7250  207.2520  147.3700 F   0  0  0  0  0  0  0  0  0  0  0  0
  161.5830  208.1670  149.1640 C   0  0  1  0  0  3  0  0  0  0  0  0
  161.9100  210.5030  148.4020 C   0  0  0  0  0  2  0  0  0  0  0  0
  161.0990  211.5190  147.6030 C   0  0  0  0  0  2  0  0  0  0  0  0
  163.3310  214.4310  148.2680 O   0  0  0  0  0  1  0  0  0  0  0  0
  161.4300  212.9610  147.9900 C   0  0  1  0  0  0  0  0  0  0  0  0
  162.7420  213.4940  147.4160 C   0  0  1  0  0  3  0  0  0  0  0  0
  161.4080  214.0370  146.9020 C   0  0  1  0  0  3  0  0  0  0  0  0
  161.0090  213.4580  149.3660 C   0  0  0  0  0  1  0  0  0  0  0  0
  159.8540  212.5970  145.4950 C   0  0  0  0  0  3  0  0  0  0  0  0
  162.5250  213.0100  142.0340 C   0  0  0  0  0  2  0  0  0  0  0  0
  159.0710  213.5780  143.3750 C   0  0  0  0  0  2  0  0  0  0  0  0
  158.9570  212.6030  144.5070 C   0  0  0  0  0  3  0  0  0  0  0  0
  161.6030  213.2040  142.9690 C   0  0  0  0  0  0  0  0  0  0  0  0
  161.0010  213.5610  145.4840 C   0  0  2  0  0  3  0  0  0  0  0  0
  163.2010  212.9620  144.6950 O   0  0  0  0  0  0  0  0  0  0  0  0
  160.2350  213.2860  142.5430 N   0  0  0  0  0  2  0  0  0  0  0  0
  162.0140  213.2520  144.3980 C   0  0  0  0  0  0  0  0  0  0  0  0
  1  9  1  6  0  0  0
  1  3  1  0  0  0  0
  2  4  1  0  0  0  0
  2 22  1  6  0  0  0
  3  4  1  0  0  0  0
  4  8  1  1  0  0  0
  5  1  1  0  0  0  0
  6  2  1  0  0  0  0
  7  6  2  0  0  0  0
  7  5  1  0  0  0  0
  9 12  1  0  0  0  0
 10 12  1  0  0  0  0
 12 11  2  0  0  0  0
 13 14  2  0  0  0  0
 14 10  1  0  0  0  0
 15 13  1  0  0  0  0
 16 17  1  0  0  0  0
 16 15  1  0  0  0  0
 18 19  2  0  0  0  0
 19 20  1  0  0  0  0
 19 17  1  0  0  0  0
 22 21  1  0  0  0  0
 23 22  2  0  0  0  0
 24  6  1  0  0  0  0
 25 26  1  0  0  0  0
 25 29  1  0  0  0  0
 25 28  1  0  0  0  0
 26 27  1  6  0  0  0
 26 28  1  0  0  0  0
 28 24  1  1  0  0  0
 30 32  1  0  0  0  0
 30 29  1  0  0  0  0
 32 35  1  1  0  0  0
 33 32  1  0  0  0  0
 33 31  1  1  0  0  0
 34 41  1  6  0  0  0
 34 33  1  0  0  0  0
 34 32  1  0  0  0  0
 37 40  2  0  0  0  0
 38 39  1  0  0  0  0
 39 36  2  0  0  0  0
 40 44  1  0  0  0  0
 41 36  1  1  0  0  0
 43 40  1  0  0  0  0
 43 38  1  0  0  0  0
 44 42  2  0  0  0  0
 44 41  1  0  0  0  0
M  END
>  <MODEL>
8

>  <REMARK>
 VINA RESULT:      -6.0      4.047      7.528
  Name = 
  13 active torsions:
  status: ('A' for Active; 'I' for Inactive)
    1  A    between atoms: C_2  and  C_21
    2  A    between atoms: N_3  and  C_44
    3  A    between atoms: N_7  and  C_13
    4  A    between atoms: C_8  and  C_9
    5  A    between atoms: C_9  and  C_44
    6  A    between atoms: C_10  and  C_21
    7  A    between atoms: C_10  and  C_29
    8  A    between atoms: N_11  and  C_20
    9  A    between atoms: C_14  and  C_38
   10  A    between atoms: C_18  and  C_29
   11  A    between atoms: C_19  and  C_25
   12  A    between atoms: C_19  and  C_33
   13  A    between atoms: C_27  and  C_30
                            x       y       z     vdW  Elec       q    Type
                         _______ _______ _______ _____ _____    ______ ____

>  <TORSDO>
F 13

$$$$
=
 OpenBabel11072413203D

 44 47  0  0  1  0  0  0  0  0999 V2000
  158.9050  214.0510  150.1020 C   0  0  2  0  0  3  0  0  0  0  0  0
  160.7050  213.1500  147.6620 C   0  0  1  0  0  3  0  0  0  0  0  0
  158.4940  213.0470  149.0070 C   0  0  0  0  0  2  0  0  0  0  0  0
  159.1700  213.2470  147.6420 C   0  0  1  0  0  3  0  0  0  0  0  0
  160.4240  214.1840  150.3120 C   0  0  0  0  0  2  0  0  0  0  0  0
  161.2920  212.3920  148.8390 C   0  0  0  0  0  0  0  0  0  0  0  0
  161.1560  212.8880  150.0780 C   0  0  0  0  0  3  0  0  0  0  0  0
  158.7820  214.4530  147.0930 F   0  0  0  0  0  0  0  0  0  0  0  0
  158.2800  213.6540  151.3540 N   0  0  0  0  0  2  0  0  0  0  0  0
  156.4140  213.6920  152.9880 N   0  0  0  0  0  2  0  0  0  0  0  0
  156.1530  214.4430  150.8070 O   0  0  0  0  0  0  0  0  0  0  0  0
  156.9160  213.9450  151.6740 C   0  0  0  0  0  0  0  0  0  0  0  0
  156.7800  212.2300  154.8290 C   0  0  0  0  0  3  0  0  0  0  0  0
  157.2460  213.1630  154.0190 C   0  0  0  0  0  3  0  0  0  0  0  0
  157.6480  211.6870  155.9070 C   0  0  0  0  0  2  0  0  0  0  0  0
  158.7310  210.7930  155.3310 C   0  0  0  0  0  2  0  0  0  0  0  0
  160.0910  211.2130  155.8560 C   0  0  0  0  0  2  0  0  0  0  0  0
  161.7370  210.7850  154.0420 O   0  0  0  0  0  0  0  0  0  0  0  0
  161.1550  210.3800  155.2350 C   0  0  0  0  0  0  0  0  0  0  0  0
  161.5080  209.2980  155.7720 O   0  0  0  0  0  1  0  0  0  0  0  0
  162.4080  213.4800  145.8110 N   0  0  0  0  0  1  0  0  0  0  0  0
  161.2880  212.7770  146.3350 C   0  0  0  0  0  0  0  0  0  0  0  0
  160.7530  211.8610  145.6620 O   0  0  0  0  0  0  0  0  0  0  0  0
  161.9010  211.0340  148.6880 C   0  0  0  0  0  2  0  0  0  0  0  0
  161.6080  208.6950  149.6770 N   0  0  0  0  0  0  0  0  0  0  0  0
  162.7250  209.3930  150.3330 C   0  0  2  0  0  3  0  0  0  0  0  0
  162.6590  209.1900  151.6980 F   0  0  0  0  0  0  0  0  0  0  0  0
  161.5640  210.1650  149.9070 C   0  0  1  0  0  3  0  0  0  0  0  0
  162.0940  208.3090  148.3520 C   0  0  0  0  0  2  0  0  0  0  0  0
  162.5290  206.8470  148.3450 C   0  0  0  0  0  2  0  0  0  0  0  0
  161.9590  204.1290  145.8560 O   0  0  0  0  0  1  0  0  0  0  0  0
  161.7100  206.0000  147.3700 C   0  0  1  0  0  0  0  0  0  0  0  0
  162.2420  204.5850  147.1460 C   0  0  1  0  0  3  0  0  0  0  0  0
  160.9370  204.7960  147.9130 C   0  0  1  0  0  3  0  0  0  0  0  0
  161.0370  206.6940  146.1930 C   0  0  0  0  0  1  0  0  0  0  0  0
  160.5650  203.2020  149.8600 C   0  0  0  0  0  3  0  0  0  0  0  0
  160.8720  206.5320  152.7070 C   0  0  0  0  0  1  0  0  0  0  0  0
  162.2730  203.2240  151.6350 C   0  0  0  0  0  2  0  0  0  0  0  0
  161.1470  202.5800  150.8860 C   0  0  0  0  0  3  0  0  0  0  0  0
  161.1350  205.5410  151.8630 C   0  0  0  0  0  0  0  0  0  0  0  0
  161.0220  204.5670  149.4430 C   0  0  2  0  0  3  0  0  0  0  0  0
  159.9000  206.5870  150.1390 O   0  0  0  0  0  0  0  0  0  0  0  0
  161.8090  204.3870  152.3860 N   0  0  0  0  0  0  0  0  0  0  0  0
  160.6620  205.6380  150.4550 C   0  0  0  0  0  0  0  0  0  0  0  0
  1  5  1  0  0  0  0
  1  9  1  1  0  0  0
  2 22  1  6  0  0  0
  2  6  1  0  0  0  0
  3  1  1  0  0  0  0
  4  8  1  1  0  0  0
  4  2  1  0  0  0  0
  4  3  1  0  0  0  0
  6  7  2  0  0  0  0
  7  5  1  0  0  0  0
  9 12  1  0  0  0  0
 10 14  1  0  0  0  0
 11 12  2  0  0  0  0
 12 10  1  0  0  0  0
 13 15  1  0  0  0  0
 14 13  2  0  0  0  0
 16 17  1  0  0  0  0
 16 15  1  0  0  0  0
 18 19  2  0  0  0  0
 19 20  1  0  0  0  0
 19 17  1  0  0  0  0
 21 22  1  0  0  0  0
 23 22  2  0  0  0  0
 24  6  1  0  0  0  0
 25 28  1  0  0  0  0
 25 26  1  0  0  0  0
 26 27  1  1  0  0  0
 28 24  1  6  0  0  0
 28 26  1  0  0  0  0
 29 25  1  0  0  0  0
 30 29  1  0  0  0  0
 32 35  1  6  0  0  0
 32 34  1  0  0  0  0
 32 30  1  0  0  0  0
 33 31  1  6  0  0  0
 33 32  1  0  0  0  0
 33 34  1  0  0  0  0
 34 41  1  1  0  0  0
 36 39  2  0  0  0  0
 38 43  1  0  0  0  0
 39 38  1  0  0  0  0
 40 43  2  0  0  0  0
 40 37  1  0  0  0  0
 41 36  1  1  0  0  0
 41 44  1  0  0  0  0
 42 44  2  0  0  0  0
 44 40  1  0  0  0  0
M  END
>  <MODEL>
9

>  <REMARK>
 VINA RESULT:      -5.8      3.129      9.146
  Name = 
  13 active torsions:
  status: ('A' for Active; 'I' for Inactive)
    1  A    between atoms: C_2  and  C_21
    2  A    between atoms: N_3  and  C_44
    3  A    between atoms: N_7  and  C_13
    4  A    between atoms: C_8  and  C_9
    5  A    between atoms: C_9  and  C_44
    6  A    between atoms: C_10  and  C_21
    7  A    between atoms: C_10  and  C_29
    8  A    between atoms: N_11  and  C_20
    9  A    between atoms: C_14  and  C_38
   10  A    between atoms: C_18  and  C_29
   11  A    between atoms: C_19  and  C_25
   12  A    between atoms: C_19  and  C_33
   13  A    between atoms: C_27  and  C_30
                            x       y       z     vdW  Elec       q    Type
                         _______ _______ _______ _____ _____    ______ ____

>  <TORSDO>
F 13

$$$$
