=
 OpenBabel11072411553D

 32 34  0  0  1  0  0  0  0  0999 V2000
  161.6120  203.4710  151.6300 N   0  0  0  0  0  2  0  0  0  0  0  0
  160.9920  203.3530  150.5040 C   0  0  0  0  0  0  0  0  0  0  0  0
  160.9240  202.0670  149.8780 N   0  0  0  0  0  2  0  0  0  0  0  0
  160.4720  204.5810  149.8310 C   0  0  0  0  0  2  0  0  0  0  0  0
  160.8310  205.7750  150.6410 C   0  0  0  0  0  3  0  0  0  0  0  0
  161.0100  206.9580  150.0690 C   0  0  0  0  0  3  0  0  0  0  0  0
  159.7850  209.6690  154.8680 O   0  0  0  0  0  1  0  0  0  0  0  0
  161.7300  209.6170  152.4690 C   0  0  0  0  0  0  0  0  0  0  0  0
  161.3780  208.1600  150.8420 C   0  0  0  0  0  0  0  0  0  0  0  0
  160.8400  207.3860  153.2750 C   0  0  0  0  0  2  0  0  0  0  0  0
  162.0720  210.2010  151.2640 C   0  0  0  0  0  3  0  0  0  0  0  0
  161.1440  209.3470  154.8840 C   0  0  2  0  0  3  0  0  0  0  0  0
  161.9030  210.1850  153.8410 C   0  0  0  0  0  2  0  0  0  0  0  0
  161.3390  207.8370  154.6580 C   0  0  0  0  0  2  0  0  0  0  0  0
  161.8460  209.2990  150.2850 N   0  0  0  0  0  0  0  0  0  0  0  0
  161.3210  208.3280  152.2150 C   0  0  0  0  0  0  0  0  0  0  0  0
  162.0720  209.5380  148.8660 C   0  0  0  0  0  2  0  0  0  0  0  0
  162.2470  211.0240  148.6050 C   0  0  0  0  0  2  0  0  0  0  0  0
  161.2510  211.4610  147.7340 O   0  0  0  0  0  1  0  0  0  0  0  0
  160.1980  201.7770  148.6470 C   0  0  0  0  0  2  0  0  0  0  0  0
  161.1310  201.7140  147.4450 C   0  0  1  0  0  3  0  0  0  0  0  0
  161.5010  200.3950  147.1730 O   0  0  0  0  0  1  0  0  0  0  0  0
  160.1860  201.3720  145.2610 O   0  0  0  0  0  1  0  0  0  0  0  0
  160.4550  202.3430  146.2310 C   0  0  2  0  0  3  0  0  0  0  0  0
  161.3170  203.4690  145.6570 C   0  0  2  0  0  3  0  0  0  0  0  0
  161.4410  204.5740  146.6690 C   0  0  2  0  0  3  0  0  0  0  0  0
  160.9430  205.5190  144.5450 O   0  0  0  0  0  0  0  0  0  0  0  0
  161.0310  205.8250  145.9110 C   0  0  1  0  0  3  0  0  0  0  0  0
  160.6330  204.1550  144.4910 C   0  0  0  0  0  2  0  0  0  0  0  0
  159.8010  206.2570  146.3640 F   0  0  0  0  0  0  0  0  0  0  0  0
  163.8200  204.3880  145.9870 C   0  0  0  0  0  1  0  0  0  0  0  0
  162.8780  204.6870  147.1350 C   0  0  0  0  0  2  0  0  0  0  0  0
  2  1  2  0  0  0  0
  3  2  1  0  0  0  0
  4  2  1  0  0  0  0
  4  5  1  0  0  0  0
  6  5  2  0  0  0  0
  6  9  1  0  0  0  0
  8 13  1  0  0  0  0
  9 16  2  0  0  0  0
 10 14  1  0  0  0  0
 11  8  2  0  0  0  0
 12  7  1  6  0  0  0
 13 12  1  0  0  0  0
 14 12  1  0  0  0  0
 15  9  1  0  0  0  0
 15 11  1  0  0  0  0
 16  8  1  0  0  0  0
 16 10  1  0  0  0  0
 17 15  1  0  0  0  0
 18 17  1  0  0  0  0
 19 18  1  0  0  0  0
 20  3  1  0  0  0  0
 21 22  1  6  0  0  0
 21 20  1  0  0  0  0
 24 23  1  6  0  0  0
 24 21  1  0  0  0  0
 25 24  1  1  0  0  0
 25 26  1  0  0  0  0
 26 32  1  6  0  0  0
 27 28  1  0  0  0  0
 28 30  1  1  0  0  0
 28 26  1  0  0  0  0
 29 27  1  0  0  0  0
 29 25  1  0  0  0  0
 31 32  1  0  0  0  0
M  END
>  <MODEL>
1

>  <REMARK>
 VINA RESULT:      -8.2      0.000      0.000
  Name = 
  10 active torsions:
  status: ('A' for Active; 'I' for Inactive)
    1  A    between atoms: C_1  and  C_15
    2  A    between atoms: C_3  and  C_20
    3  A    between atoms: C_6  and  C_9
    4  A    between atoms: C_8  and  C_9
    5  A    between atoms: C_12  and  C_14
    6  A    between atoms: N_13  and  C_23
    7  A    between atoms: C_15  and  C_27
    8  A    between atoms: C_22  and  N_26
    9  A    between atoms: C_22  and  C_28
   10  A    between atoms: C_23  and  C_27
                            x       y       z     vdW  Elec       q    Type
                         _______ _______ _______ _____ _____    ______ ____

>  <TORSDO>
F 10

$$$$
=
 OpenBabel11072411553D

 32 34  0  0  1  0  0  0  0  0999 V2000
  161.9750  209.2680  149.1310 N   0  0  0  0  0  2  0  0  0  0  0  0
  161.8310  209.1260  150.4060 C   0  0  0  0  0  0  0  0  0  0  0  0
  162.4750  210.0520  151.2870 N   0  0  0  0  0  2  0  0  0  0  0  0
  161.1000  207.9310  150.9240 C   0  0  0  0  0  2  0  0  0  0  0  0
  160.9710  206.9230  149.8380 C   0  0  0  0  0  3  0  0  0  0  0  0
  161.4940  205.7120  149.9670 C   0  0  0  0  0  3  0  0  0  0  0  0
  160.2710  205.1560  144.4830 O   0  0  0  0  0  1  0  0  0  0  0  0
  161.3580  203.6520  146.9520 C   0  0  0  0  0  0  0  0  0  0  0  0
  161.3940  204.6930  148.9040 C   0  0  0  0  0  0  0  0  0  0  0  0
  161.9000  206.1220  146.7800 C   0  0  0  0  0  2  0  0  0  0  0  0
  161.0730  202.7410  147.9500 C   0  0  0  0  0  3  0  0  0  0  0  0
  161.5720  204.6910  144.6880 C   0  0  2  0  0  3  0  0  0  0  0  0
  161.5490  203.3810  145.4940 C   0  0  0  0  0  2  0  0  0  0  0  0
  162.4240  205.7730  145.3770 C   0  0  0  0  0  2  0  0  0  0  0  0
  161.0950  203.3950  149.1310 N   0  0  0  0  0  0  0  0  0  0  0  0
  161.5890  204.8730  147.5450 C   0  0  0  0  0  0  0  0  0  0  0  0
  160.8300  202.7820  150.4260 C   0  0  0  0  0  2  0  0  0  0  0  0
  160.7320  201.2740  150.2840 C   0  0  0  0  0  2  0  0  0  0  0  0
  159.4550  200.9330  149.8450 O   0  0  0  0  0  1  0  0  0  0  0  0
  162.3410  210.0540  152.7390 C   0  0  0  0  0  2  0  0  0  0  0  0
  161.1220  210.8480  153.1910 C   0  0  1  0  0  3  0  0  0  0  0  0
  160.4860  211.4420  152.0980 O   0  0  0  0  0  1  0  0  0  0  0  0
  159.2180  210.6900  154.6500 O   0  0  0  0  0  1  0  0  0  0  0  0
  160.1590  209.9350  153.9420 C   0  0  2  0  0  3  0  0  0  0  0  0
  160.9240  208.9960  154.8760 C   0  0  2  0  0  3  0  0  0  0  0  0
  160.4880  207.5780  154.6310 C   0  0  2  0  0  3  0  0  0  0  0  0
  160.5440  207.9780  156.9740 O   0  0  0  0  0  0  0  0  0  0  0  0
  160.1150  207.0570  156.0080 C   0  0  1  0  0  3  0  0  0  0  0  0
  160.5430  209.2200  156.3260 C   0  0  0  0  0  2  0  0  0  0  0  0
  158.7450  206.9110  156.0910 F   0  0  0  0  0  0  0  0  0  0  0  0
  161.1360  205.4470  153.5340 C   0  0  0  0  0  1  0  0  0  0  0  0
  161.6400  206.7760  154.0580 C   0  0  0  0  0  2  0  0  0  0  0  0
  1  2  2  0  0  0  0
  2  4  1  0  0  0  0
  2  3  1  0  0  0  0
  3 20  1  0  0  0  0
  5  6  2  0  0  0  0
  5  4  1  0  0  0  0
  8 16  1  0  0  0  0
  8 11  2  0  0  0  0
  9 15  1  0  0  0  0
  9  6  1  0  0  0  0
 10 16  1  0  0  0  0
 11 15  1  0  0  0  0
 12  7  1  1  0  0  0
 12 14  1  0  0  0  0
 12 13  1  0  0  0  0
 13  8  1  0  0  0  0
 14 10  1  0  0  0  0
 15 17  1  0  0  0  0
 16  9  2  0  0  0  0
 18 17  1  0  0  0  0
 19 18  1  0  0  0  0
 20 21  1  0  0  0  0
 21 22  1  6  0  0  0
 21 24  1  0  0  0  0
 24 23  1  1  0  0  0
 25 24  1  6  0  0  0
 25 29  1  0  0  0  0
 26 32  1  1  0  0  0
 26 25  1  0  0  0  0
 26 28  1  0  0  0  0
 28 30  1  6  0  0  0
 28 27  1  0  0  0  0
 29 27  1  0  0  0  0
 31 32  1  0  0  0  0
M  END
>  <MODEL>
2

>  <REMARK>
 VINA RESULT:      -8.1      2.449      9.076
  Name = 
  10 active torsions:
  status: ('A' for Active; 'I' for Inactive)
    1  A    between atoms: C_1  and  C_15
    2  A    between atoms: C_3  and  C_20
    3  A    between atoms: C_6  and  C_9
    4  A    between atoms: C_8  and  C_9
    5  A    between atoms: C_12  and  C_14
    6  A    between atoms: N_13  and  C_23
    7  A    between atoms: C_15  and  C_27
    8  A    between atoms: C_22  and  N_26
    9  A    between atoms: C_22  and  C_28
   10  A    between atoms: C_23  and  C_27
                            x       y       z     vdW  Elec       q    Type
                         _______ _______ _______ _____ _____    ______ ____

>  <TORSDO>
F 10

$$$$
=
 OpenBabel11072411553D

 32 34  0  0  1  0  0  0  0  0999 V2000
  161.3040  203.4000  152.2660 N   0  0  0  0  0  2  0  0  0  0  0  0
  160.8380  203.2760  151.0680 C   0  0  0  0  0  0  0  0  0  0  0  0
  160.6520  201.9640  150.5260 N   0  0  0  0  0  2  0  0  0  0  0  0
  160.6240  204.5020  150.2430 C   0  0  0  0  0  2  0  0  0  0  0  0
  161.0210  205.7000  151.0300 C   0  0  0  0  0  3  0  0  0  0  0  0
  160.8730  206.9210  150.5340 C   0  0  0  0  0  3  0  0  0  0  0  0
  159.6580  209.7910  155.2420 O   0  0  0  0  0  1  0  0  0  0  0  0
  161.6400  209.6150  152.8790 C   0  0  0  0  0  0  0  0  0  0  0  0
  161.2680  208.1300  151.2830 C   0  0  0  0  0  0  0  0  0  0  0  0
  160.6630  207.4350  153.7250 C   0  0  0  0  0  2  0  0  0  0  0  0
  162.0220  210.1560  151.6670 C   0  0  0  0  0  3  0  0  0  0  0  0
  161.0050  209.4260  155.2900 C   0  0  2  0  0  3  0  0  0  0  0  0
  161.8090  210.2110  154.2400 C   0  0  0  0  0  2  0  0  0  0  0  0
  161.1530  207.9040  155.1040 C   0  0  0  0  0  2  0  0  0  0  0  0
  161.7820  209.2380  150.7070 N   0  0  0  0  0  0  0  0  0  0  0  0
  161.1930  208.3340  152.6510 C   0  0  0  0  0  0  0  0  0  0  0  0
  162.0400  209.4330  149.2860 C   0  0  0  0  0  2  0  0  0  0  0  0
  162.2500  210.9080  148.9880 C   0  0  0  0  0  2  0  0  0  0  0  0
  161.4280  211.2870  147.9280 O   0  0  0  0  0  1  0  0  0  0  0  0
  160.0700  201.6760  149.2200 C   0  0  0  0  0  2  0  0  0  0  0  0
  161.1390  201.5520  148.1430 C   0  0  1  0  0  3  0  0  0  0  0  0
  161.5390  200.2220  147.9940 O   0  0  0  0  0  1  0  0  0  0  0  0
  161.1380  201.3880  145.7440 O   0  0  0  0  0  1  0  0  0  0  0  0
  160.6100  202.1050  146.8230 C   0  0  2  0  0  3  0  0  0  0  0  0
  160.9260  203.5970  146.6980 C   0  0  2  0  0  3  0  0  0  0  0  0
  161.4280  203.8900  145.3110 C   0  0  2  0  0  3  0  0  0  0  0  0
  162.8400  204.9670  146.8910 O   0  0  0  0  0  0  0  0  0  0  0  0
  162.7350  204.6310  145.5340 C   0  0  1  0  0  3  0  0  0  0  0  0
  162.1000  203.9930  147.5720 C   0  0  0  0  0  2  0  0  0  0  0  0
  163.7930  203.8180  145.1800 F   0  0  0  0  0  0  0  0  0  0  0  0
  160.3410  206.1200  145.2690 C   0  0  0  0  0  1  0  0  0  0  0  0
  160.4380  204.7750  144.5810 C   0  0  0  0  0  2  0  0  0  0  0  0
  2  1  2  0  0  0  0
  3  2  1  0  0  0  0
  4  5  1  0  0  0  0
  4  2  1  0  0  0  0
  6  5  2  0  0  0  0
  6  9  1  0  0  0  0
  8 13  1  0  0  0  0
  9 16  2  0  0  0  0
 10 14  1  0  0  0  0
 11  8  2  0  0  0  0
 12  7  1  6  0  0  0
 13 12  1  0  0  0  0
 14 12  1  0  0  0  0
 15  9  1  0  0  0  0
 15 11  1  0  0  0  0
 16  8  1  0  0  0  0
 16 10  1  0  0  0  0
 17 15  1  0  0  0  0
 18 17  1  0  0  0  0
 19 18  1  0  0  0  0
 20  3  1  0  0  0  0
 21 22  1  6  0  0  0
 21 20  1  0  0  0  0
 24 23  1  6  0  0  0
 24 21  1  0  0  0  0
 25 24  1  6  0  0  0
 25 29  1  0  0  0  0
 26 32  1  1  0  0  0
 26 28  1  0  0  0  0
 26 25  1  0  0  0  0
 27 29  1  0  0  0  0
 28 30  1  1  0  0  0
 28 27  1  0  0  0  0
 32 31  1  0  0  0  0
M  END
>  <MODEL>
3

>  <REMARK>
 VINA RESULT:      -7.9      1.197      1.659
  Name = 
  10 active torsions:
  status: ('A' for Active; 'I' for Inactive)
    1  A    between atoms: C_1  and  C_15
    2  A    between atoms: C_3  and  C_20
    3  A    between atoms: C_6  and  C_9
    4  A    between atoms: C_8  and  C_9
    5  A    between atoms: C_12  and  C_14
    6  A    between atoms: N_13  and  C_23
    7  A    between atoms: C_15  and  C_27
    8  A    between atoms: C_22  and  N_26
    9  A    between atoms: C_22  and  C_28
   10  A    between atoms: C_23  and  C_27
                            x       y       z     vdW  Elec       q    Type
                         _______ _______ _______ _____ _____    ______ ____

>  <TORSDO>
F 10

$$$$
=
 OpenBabel11072411553D

 32 34  0  0  1  0  0  0  0  0999 V2000
  161.7200  208.8260  150.8140 N   0  0  0  0  0  2  0  0  0  0  0  0
  161.9350  209.5130  149.7420 C   0  0  0  0  0  0  0  0  0  0  0  0
  161.9820  210.9410  149.8290 N   0  0  0  0  0  2  0  0  0  0  0  0
  162.0060  208.8050  148.4290 C   0  0  0  0  0  2  0  0  0  0  0  0
  161.6200  207.3810  148.6160 C   0  0  0  0  0  3  0  0  0  0  0  0
  162.0670  206.4410  147.7960 C   0  0  0  0  0  3  0  0  0  0  0  0
  162.0610  202.2530  151.5830 O   0  0  0  0  0  1  0  0  0  0  0  0
  161.0900  203.0550  148.7630 C   0  0  0  0  0  0  0  0  0  0  0  0
  161.6930  205.0200  147.9470 C   0  0  0  0  0  0  0  0  0  0  0  0
  161.2010  204.8910  150.5060 C   0  0  0  0  0  2  0  0  0  0  0  0
  161.3010  202.9280  147.4040 C   0  0  0  0  0  3  0  0  0  0  0  0
  160.7440  202.4660  151.1680 C   0  0  2  0  0  3  0  0  0  0  0  0
  160.5670  202.0200  149.7070 C   0  0  0  0  0  2  0  0  0  0  0  0
  160.3540  203.9420  151.3680 C   0  0  0  0  0  2  0  0  0  0  0  0
  161.6740  204.1350  146.9260 N   0  0  0  0  0  0  0  0  0  0  0  0
  161.3060  204.3700  149.1060 C   0  0  0  0  0  0  0  0  0  0  0  0
  162.0010  204.4130  145.5330 C   0  0  0  0  0  2  0  0  0  0  0  0
  160.7370  204.7160  144.7480 C   0  0  0  0  0  2  0  0  0  0  0  0
  160.6430  206.0890  144.5340 O   0  0  0  0  0  1  0  0  0  0  0  0
  162.2860  211.8350  148.7170 C   0  0  0  0  0  2  0  0  0  0  0  0
  161.1670  212.8410  148.4820 C   0  0  1  0  0  3  0  0  0  0  0  0
  161.6600  214.1470  148.5240 O   0  0  0  0  0  1  0  0  0  0  0  0
  161.4380  212.5790  146.1070 O   0  0  0  0  0  1  0  0  0  0  0  0
  160.4950  212.5630  147.1410 C   0  0  2  0  0  3  0  0  0  0  0  0
  159.3760  213.5730  146.8790 C   0  0  2  0  0  3  0  0  0  0  0  0
  158.1020  213.0860  147.5140 C   0  0  2  0  0  3  0  0  0  0  0  0
  157.6340  213.8330  145.3060 O   0  0  0  0  0  0  0  0  0  0  0  0
  157.0810  213.1390  146.3910 C   0  0  1  0  0  3  0  0  0  0  0  0
  159.0160  213.6370  145.4080 C   0  0  0  0  0  2  0  0  0  0  0  0
  156.7590  211.8540  145.9990 F   0  0  0  0  0  0  0  0  0  0  0  0
  157.6270  213.2540  149.9440 C   0  0  0  0  0  1  0  0  0  0  0  0
  157.6980  214.0190  148.6390 C   0  0  0  0  0  2  0  0  0  0  0  0
  2  3  1  0  0  0  0
  2  1  2  0  0  0  0
  4  5  1  0  0  0  0
  4  2  1  0  0  0  0
  6  9  1  0  0  0  0
  6  5  2  0  0  0  0
  8 16  1  0  0  0  0
  8 13  1  0  0  0  0
  9 16  2  0  0  0  0
 10 14  1  0  0  0  0
 11  8  2  0  0  0  0
 12 14  1  0  0  0  0
 12  7  1  6  0  0  0
 13 12  1  0  0  0  0
 15 11  1  0  0  0  0
 15  9  1  0  0  0  0
 16 10  1  0  0  0  0
 17 15  1  0  0  0  0
 18 17  1  0  0  0  0
 19 18  1  0  0  0  0
 20  3  1  0  0  0  0
 21 22  1  6  0  0  0
 21 20  1  0  0  0  0
 24 23  1  6  0  0  0
 24 21  1  0  0  0  0
 25 24  1  6  0  0  0
 25 26  1  0  0  0  0
 26 32  1  1  0  0  0
 27 29  1  0  0  0  0
 27 28  1  0  0  0  0
 28 30  1  6  0  0  0
 28 26  1  0  0  0  0
 29 25  1  0  0  0  0
 32 31  1  0  0  0  0
M  END
>  <MODEL>
4

>  <REMARK>
 VINA RESULT:      -7.7      3.172      8.223
  Name = 
  10 active torsions:
  status: ('A' for Active; 'I' for Inactive)
    1  A    between atoms: C_1  and  C_15
    2  A    between atoms: C_3  and  C_20
    3  A    between atoms: C_6  and  C_9
    4  A    between atoms: C_8  and  C_9
    5  A    between atoms: C_12  and  C_14
    6  A    between atoms: N_13  and  C_23
    7  A    between atoms: C_15  and  C_27
    8  A    between atoms: C_22  and  N_26
    9  A    between atoms: C_22  and  C_28
   10  A    between atoms: C_23  and  C_27
                            x       y       z     vdW  Elec       q    Type
                         _______ _______ _______ _____ _____    ______ ____

>  <TORSDO>
F 10

$$$$
=
 OpenBabel11072411553D

 32 34  0  0  1  0  0  0  0  0999 V2000
  161.9620  209.2100  149.0630 N   0  0  0  0  0  2  0  0  0  0  0  0
  161.8350  209.0790  150.3410 C   0  0  0  0  0  0  0  0  0  0  0  0
  162.4540  210.0380  151.2040 N   0  0  0  0  0  2  0  0  0  0  0  0
  161.1510  207.8660  150.8800 C   0  0  0  0  0  2  0  0  0  0  0  0
  161.5390  206.6810  150.0700 C   0  0  0  0  0  3  0  0  0  0  0  0
  160.6440  206.0350  149.3360 C   0  0  0  0  0  3  0  0  0  0  0  0
  162.0690  200.5970  149.8690 O   0  0  0  0  0  1  0  0  0  0  0  0
  161.3030  202.7770  147.8180 C   0  0  0  0  0  0  0  0  0  0  0  0
  160.9930  204.8480  148.5300 C   0  0  0  0  0  0  0  0  0  0  0  0
  160.2180  202.9170  150.1040 C   0  0  0  0  0  2  0  0  0  0  0  0
  161.7670  203.6530  146.8580 C   0  0  0  0  0  3  0  0  0  0  0  0
  160.9040  200.6690  149.1020 C   0  0  2  0  0  3  0  0  0  0  0  0
  161.2070  201.2870  147.7270 C   0  0  0  0  0  2  0  0  0  0  0  0
  159.8150  201.4540  149.8560 C   0  0  0  0  0  2  0  0  0  0  0  0
  161.5750  204.9100  147.3120 N   0  0  0  0  0  0  0  0  0  0  0  0
  160.7900  203.5180  148.8580 C   0  0  0  0  0  0  0  0  0  0  0  0
  161.9450  206.1210  146.5910 C   0  0  0  0  0  2  0  0  0  0  0  0
  162.0870  205.8270  145.1080 C   0  0  0  0  0  2  0  0  0  0  0  0
  160.8280  205.8420  144.5110 O   0  0  0  0  0  1  0  0  0  0  0  0
  162.3340  210.0530  152.6570 C   0  0  0  0  0  2  0  0  0  0  0  0
  161.1050  210.8300  153.1120 C   0  0  1  0  0  3  0  0  0  0  0  0
  160.4560  211.4110  152.0200 O   0  0  0  0  0  1  0  0  0  0  0  0
  159.2150  210.6500  154.5860 O   0  0  0  0  0  1  0  0  0  0  0  0
  160.1590  209.9060  153.8700 C   0  0  2  0  0  3  0  0  0  0  0  0
  160.9420  208.9740  154.7970 C   0  0  2  0  0  3  0  0  0  0  0  0
  160.4770  207.5580  154.5980 C   0  0  2  0  0  3  0  0  0  0  0  0
  160.6210  208.0070  156.9280 O   0  0  0  0  0  0  0  0  0  0  0  0
  160.1450  207.0730  155.9980 C   0  0  1  0  0  3  0  0  0  0  0  0
  160.6160  209.2350  156.2540 C   0  0  0  0  0  2  0  0  0  0  0  0
  158.7760  206.9500  156.1310 F   0  0  0  0  0  0  0  0  0  0  0  0
  161.0510  205.4030  153.5090 C   0  0  0  0  0  1  0  0  0  0  0  0
  161.5960  206.7270  154.0020 C   0  0  0  0  0  2  0  0  0  0  0  0
  1  2  2  0  0  0  0
  2  4  1  0  0  0  0
  2  3  1  0  0  0  0
  3 20  1  0  0  0  0
  5  4  1  0  0  0  0
  6  5  2  0  0  0  0
  8 16  1  0  0  0  0
  9 16  2  0  0  0  0
  9  6  1  0  0  0  0
 11 15  1  0  0  0  0
 11  8  2  0  0  0  0
 12 14  1  0  0  0  0
 12  7  1  1  0  0  0
 13  8  1  0  0  0  0
 13 12  1  0  0  0  0
 14 10  1  0  0  0  0
 15  9  1  0  0  0  0
 16 10  1  0  0  0  0
 17 15  1  0  0  0  0
 18 17  1  0  0  0  0
 19 18  1  0  0  0  0
 20 21  1  0  0  0  0
 21 22  1  6  0  0  0
 21 24  1  0  0  0  0
 24 23  1  1  0  0  0
 25 24  1  6  0  0  0
 25 29  1  0  0  0  0
 26 32  1  1  0  0  0
 26 25  1  0  0  0  0
 26 28  1  0  0  0  0
 28 30  1  6  0  0  0
 28 27  1  0  0  0  0
 29 27  1  0  0  0  0
 31 32  1  0  0  0  0
M  END
>  <MODEL>
5

>  <REMARK>
 VINA RESULT:      -7.7      2.677      8.605
  Name = 
  10 active torsions:
  status: ('A' for Active; 'I' for Inactive)
    1  A    between atoms: C_1  and  C_15
    2  A    between atoms: C_3  and  C_20
    3  A    between atoms: C_6  and  C_9
    4  A    between atoms: C_8  and  C_9
    5  A    between atoms: C_12  and  C_14
    6  A    between atoms: N_13  and  C_23
    7  A    between atoms: C_15  and  C_27
    8  A    between atoms: C_22  and  N_26
    9  A    between atoms: C_22  and  C_28
   10  A    between atoms: C_23  and  C_27
                            x       y       z     vdW  Elec       q    Type
                         _______ _______ _______ _____ _____    ______ ____

>  <TORSDO>
F 10

$$$$
=
 OpenBabel11072411553D

 32 34  0  0  1  0  0  0  0  0999 V2000
  162.2380  207.1340  151.5900 N   0  0  0  0  0  2  0  0  0  0  0  0
  161.5790  206.6000  152.5640 C   0  0  0  0  0  0  0  0  0  0  0  0
  161.2560  207.4000  153.7060 N   0  0  0  0  0  2  0  0  0  0  0  0
  161.2840  205.1370  152.5220 C   0  0  0  0  0  2  0  0  0  0  0  0
  161.5440  204.6210  151.1520 C   0  0  0  0  0  3  0  0  0  0  0  0
  160.5440  204.3290  150.3320 C   0  0  0  0  0  3  0  0  0  0  0  0
  160.4940  205.9290  144.9170 O   0  0  0  0  0  1  0  0  0  0  0  0
  161.2310  203.6070  146.8160 C   0  0  0  0  0  0  0  0  0  0  0  0
  160.7680  203.8040  148.9700 C   0  0  0  0  0  0  0  0  0  0  0  0
  161.5230  205.9600  147.7100 C   0  0  0  0  0  2  0  0  0  0  0  0
  160.8560  202.3720  147.3070 C   0  0  0  0  0  3  0  0  0  0  0  0
  161.7720  205.4520  145.2180 C   0  0  2  0  0  3  0  0  0  0  0  0
  161.7340  203.9320  145.4460 C   0  0  0  0  0  2  0  0  0  0  0  0
  162.3480  206.2000  146.4350 C   0  0  0  0  0  2  0  0  0  0  0  0
  160.5730  202.5140  148.6200 N   0  0  0  0  0  0  0  0  0  0  0  0
  161.2060  204.5050  147.8590 C   0  0  0  0  0  0  0  0  0  0  0  0
  160.1270  201.4380  149.4960 C   0  0  0  0  0  2  0  0  0  0  0  0
  161.3220  200.7430  150.1240 C   0  0  0  0  0  2  0  0  0  0  0  0
  161.5970  201.3220  151.3610 O   0  0  0  0  0  1  0  0  0  0  0  0
  160.4590  206.9480  154.8410 C   0  0  0  0  0  2  0  0  0  0  0  0
  160.2700  208.0550  155.8710 C   0  0  1  0  0  3  0  0  0  0  0  0
  160.1160  207.5180  157.1510 O   0  0  0  0  0  1  0  0  0  0  0  0
  162.1950  208.9290  157.0150 O   0  0  0  0  0  1  0  0  0  0  0  0
  161.4580  209.0090  155.8280 C   0  0  2  0  0  3  0  0  0  0  0  0
  160.9900  210.4430  155.5680 C   0  0  2  0  0  3  0  0  0  0  0  0
  159.5050  210.4510  155.3310 C   0  0  2  0  0  3  0  0  0  0  0  0
  160.5630  211.7920  153.6770 O   0  0  0  0  0  0  0  0  0  0  0  0
  159.3400  211.1990  154.0200 C   0  0  1  0  0  3  0  0  0  0  0  0
  161.5430  210.9820  154.2640 C   0  0  0  0  0  2  0  0  0  0  0  0
  158.9650  210.3150  153.0280 F   0  0  0  0  0  0  0  0  0  0  0  0
  157.5190  211.8060  155.9470 C   0  0  0  0  0  1  0  0  0  0  0  0
  158.8080  211.1930  156.4540 C   0  0  0  0  0  2  0  0  0  0  0  0
  1  2  2  0  0  0  0
  2  3  1  0  0  0  0
  3 20  1  0  0  0  0
  4  2  1  0  0  0  0
  5  4  1  0  0  0  0
  6  5  2  0  0  0  0
  8 11  2  0  0  0  0
  8 16  1  0  0  0  0
  9  6  1  0  0  0  0
 10 16  1  0  0  0  0
 11 15  1  0  0  0  0
 12  7  1  1  0  0  0
 12 13  1  0  0  0  0
 12 14  1  0  0  0  0
 13  8  1  0  0  0  0
 14 10  1  0  0  0  0
 15  9  1  0  0  0  0
 15 17  1  0  0  0  0
 16  9  2  0  0  0  0
 17 18  1  0  0  0  0
 18 19  1  0  0  0  0
 20 21  1  0  0  0  0
 21 22  1  1  0  0  0
 24 21  1  0  0  0  0
 24 23  1  1  0  0  0
 25 24  1  6  0  0  0
 26 25  1  0  0  0  0
 26 32  1  1  0  0  0
 27 28  1  0  0  0  0
 27 29  1  0  0  0  0
 28 30  1  6  0  0  0
 28 26  1  0  0  0  0
 29 25  1  0  0  0  0
 31 32  1  0  0  0  0
M  END
>  <MODEL>
6

>  <REMARK>
 VINA RESULT:      -7.5      2.847      9.297
  Name = 
  10 active torsions:
  status: ('A' for Active; 'I' for Inactive)
    1  A    between atoms: C_1  and  C_15
    2  A    between atoms: C_3  and  C_20
    3  A    between atoms: C_6  and  C_9
    4  A    between atoms: C_8  and  C_9
    5  A    between atoms: C_12  and  C_14
    6  A    between atoms: N_13  and  C_23
    7  A    between atoms: C_15  and  C_27
    8  A    between atoms: C_22  and  N_26
    9  A    between atoms: C_22  and  C_28
   10  A    between atoms: C_23  and  C_27
                            x       y       z     vdW  Elec       q    Type
                         _______ _______ _______ _____ _____    ______ ____

>  <TORSDO>
F 10

$$$$
=
 OpenBabel11072411553D

 32 34  0  0  1  0  0  0  0  0999 V2000
  162.3180  209.7820  149.2310 N   0  0  0  0  0  2  0  0  0  0  0  0
  161.9510  208.5760  149.5070 C   0  0  0  0  0  0  0  0  0  0  0  0
  161.1900  207.8410  148.5420 N   0  0  0  0  0  2  0  0  0  0  0  0
  162.2260  208.0290  150.8690 C   0  0  0  0  0  2  0  0  0  0  0  0
  161.2080  208.5460  151.8220 C   0  0  0  0  0  3  0  0  0  0  0  0
  161.5560  209.3360  152.8280 C   0  0  0  0  0  3  0  0  0  0  0  0
  158.9130  214.1000  154.3120 O   0  0  0  0  0  1  0  0  0  0  0  0
  159.0090  211.0530  154.8080 C   0  0  0  0  0  0  0  0  0  0  0  0
  160.5730  209.8580  153.7980 C   0  0  0  0  0  0  0  0  0  0  0  0
  159.5510  211.8540  152.4650 C   0  0  0  0  0  2  0  0  0  0  0  0
  159.4230  210.0480  155.6600 C   0  0  0  0  0  3  0  0  0  0  0  0
  157.9440  213.1540  153.9690 C   0  0  2  0  0  3  0  0  0  0  0  0
  157.8990  212.0320  155.0200 C   0  0  0  0  0  2  0  0  0  0  0  0
  158.2120  212.6040  152.5550 C   0  0  0  0  0  2  0  0  0  0  0  0
  160.3790  209.3340  155.0290 N   0  0  0  0  0  0  0  0  0  0  0  0
  159.7050  210.9230  153.6270 C   0  0  0  0  0  0  0  0  0  0  0  0
  161.0790  208.1910  155.6020 C   0  0  0  0  0  2  0  0  0  0  0  0
  161.7230  208.5780  156.9220 C   0  0  0  0  0  2  0  0  0  0  0  0
  162.6960  209.5490  156.6950 O   0  0  0  0  0  1  0  0  0  0  0  0
  160.7730  206.4520  148.6920 C   0  0  0  0  0  2  0  0  0  0  0  0
  161.2970  205.5820  147.5570 C   0  0  1  0  0  3  0  0  0  0  0  0
  162.3380  206.2240  146.8810 O   0  0  0  0  0  1  0  0  0  0  0  0
  162.1840  203.4010  147.0690 O   0  0  0  0  0  1  0  0  0  0  0  0
  161.7630  204.2380  148.1080 C   0  0  2  0  0  3  0  0  0  0  0  0
  160.6530  203.5770  148.9290 C   0  0  2  0  0  3  0  0  0  0  0  0
  161.1900  203.1870  150.2780 C   0  0  2  0  0  3  0  0  0  0  0  0
  159.9380  201.3740  149.3870 O   0  0  0  0  0  0  0  0  0  0  0  0
  160.8230  201.7200  150.4170 C   0  0  1  0  0  3  0  0  0  0  0  0
  160.2360  202.2470  148.3340 C   0  0  0  0  0  2  0  0  0  0  0  0
  161.9640  200.9470  150.3210 F   0  0  0  0  0  0  0  0  0  0  0  0
  161.5530  204.7180  152.1970 C   0  0  0  0  0  1  0  0  0  0  0  0
  160.5130  204.0050  151.3590 C   0  0  0  0  0  2  0  0  0  0  0  0
  1  2  2  0  0  0  0
  2  4  1  0  0  0  0
  3 20  1  0  0  0  0
  3  2  1  0  0  0  0
  4  5  1  0  0  0  0
  5  6  2  0  0  0  0
  6  9  1  0  0  0  0
  8 13  1  0  0  0  0
  8 11  2  0  0  0  0
  9 15  1  0  0  0  0
 10 14  1  0  0  0  0
 10 16  1  0  0  0  0
 12  7  1  1  0  0  0
 12 13  1  0  0  0  0
 14 12  1  0  0  0  0
 15 17  1  0  0  0  0
 15 11  1  0  0  0  0
 16  9  2  0  0  0  0
 16  8  1  0  0  0  0
 17 18  1  0  0  0  0
 19 18  1  0  0  0  0
 21 22  1  1  0  0  0
 21 24  1  0  0  0  0
 21 20  1  0  0  0  0
 24 23  1  6  0  0  0
 25 24  1  6  0  0  0
 25 26  1  0  0  0  0
 26 28  1  0  0  0  0
 26 32  1  1  0  0  0
 27 28  1  0  0  0  0
 28 30  1  6  0  0  0
 29 25  1  0  0  0  0
 29 27  1  0  0  0  0
 32 31  1  0  0  0  0
M  END
>  <MODEL>
7

>  <REMARK>
 VINA RESULT:      -7.5      2.828      5.323
  Name = 
  10 active torsions:
  status: ('A' for Active; 'I' for Inactive)
    1  A    between atoms: C_1  and  C_15
    2  A    between atoms: C_3  and  C_20
    3  A    between atoms: C_6  and  C_9
    4  A    between atoms: C_8  and  C_9
    5  A    between atoms: C_12  and  C_14
    6  A    between atoms: N_13  and  C_23
    7  A    between atoms: C_15  and  C_27
    8  A    between atoms: C_22  and  N_26
    9  A    between atoms: C_22  and  C_28
   10  A    between atoms: C_23  and  C_27
                            x       y       z     vdW  Elec       q    Type
                         _______ _______ _______ _____ _____    ______ ____

>  <TORSDO>
F 10

$$$$
=
 OpenBabel11072411553D

 32 34  0  0  1  0  0  0  0  0999 V2000
  162.3320  208.7510  150.6600 N   0  0  0  0  0  2  0  0  0  0  0  0
  161.6190  208.5480  151.7180 C   0  0  0  0  0  0  0  0  0  0  0  0
  161.6130  209.5360  152.7530 N   0  0  0  0  0  2  0  0  0  0  0  0
  160.9220  207.2380  151.8810 C   0  0  0  0  0  2  0  0  0  0  0  0
  161.3340  206.3210  150.7840 C   0  0  0  0  0  3  0  0  0  0  0  0
  160.4530  205.5230  150.1960 C   0  0  0  0  0  3  0  0  0  0  0  0
  160.5680  205.1140  144.5660 O   0  0  0  0  0  1  0  0  0  0  0  0
  161.4580  203.7260  147.1780 C   0  0  0  0  0  0  0  0  0  0  0  0
  160.8310  204.5940  149.1130 C   0  0  0  0  0  0  0  0  0  0  0  0
  161.3960  206.2590  147.1860 C   0  0  0  0  0  2  0  0  0  0  0  0
  161.2080  202.7000  148.0670 C   0  0  0  0  0  3  0  0  0  0  0  0
  161.8720  204.9550  145.0410 C   0  0  2  0  0  3  0  0  0  0  0  0
  162.0080  203.6200  145.7910 C   0  0  0  0  0  2  0  0  0  0  0  0
  162.2690  206.1530  145.9250 C   0  0  0  0  0  2  0  0  0  0  0  0
  160.8220  203.2480  149.2390 N   0  0  0  0  0  0  0  0  0  0  0  0
  161.2520  204.9180  147.8350 C   0  0  0  0  0  0  0  0  0  0  0  0
  160.4550  202.4940  150.4300 C   0  0  0  0  0  2  0  0  0  0  0  0
  161.4660  202.7350  151.5370 C   0  0  0  0  0  2  0  0  0  0  0  0
  160.8300  203.3360  152.6220 O   0  0  0  0  0  1  0  0  0  0  0  0
  160.8020  209.4710  153.9640 C   0  0  0  0  0  2  0  0  0  0  0  0
  161.3330  210.4010  155.0470 C   0  0  1  0  0  3  0  0  0  0  0  0
  162.6790  210.7020  154.8250 O   0  0  0  0  0  1  0  0  0  0  0  0
  160.4520  212.1920  156.3880 O   0  0  0  0  0  1  0  0  0  0  0  0
  160.4970  211.6760  155.0880 C   0  0  2  0  0  3  0  0  0  0  0  0
  159.0880  211.4150  154.5530 C   0  0  2  0  0  3  0  0  0  0  0  0
  158.5630  212.6590  153.8910 C   0  0  2  0  0  3  0  0  0  0  0  0
  156.8760  211.7610  155.3050 O   0  0  0  0  0  0  0  0  0  0  0  0
  157.2130  212.8920  154.5470 C   0  0  1  0  0  3  0  0  0  0  0  0
  158.0970  211.1880  155.6780 C   0  0  0  0  0  2  0  0  0  0  0  0
  157.2860  213.9940  155.3760 F   0  0  0  0  0  0  0  0  0  0  0  0
  159.7040  212.6630  151.6870 C   0  0  0  0  0  1  0  0  0  0  0  0
  158.3930  212.4190  152.4040 C   0  0  0  0  0  2  0  0  0  0  0  0
  1  2  2  0  0  0  0
  2  4  1  0  0  0  0
  2  3  1  0  0  0  0
  3 20  1  0  0  0  0
  5  4  1  0  0  0  0
  6  5  2  0  0  0  0
  8 16  1  0  0  0  0
  8 11  2  0  0  0  0
  9 15  1  0  0  0  0
  9  6  1  0  0  0  0
 10 16  1  0  0  0  0
 11 15  1  0  0  0  0
 12  7  1  1  0  0  0
 12 13  1  0  0  0  0
 12 14  1  0  0  0  0
 13  8  1  0  0  0  0
 14 10  1  0  0  0  0
 15 17  1  0  0  0  0
 16  9  2  0  0  0  0
 17 18  1  0  0  0  0
 18 19  1  0  0  0  0
 20 21  1  0  0  0  0
 21 22  1  6  0  0  0
 21 24  1  0  0  0  0
 24 23  1  1  0  0  0
 25 24  1  1  0  0  0
 25 29  1  0  0  0  0
 26 32  1  6  0  0  0
 26 28  1  0  0  0  0
 26 25  1  0  0  0  0
 27 29  1  0  0  0  0
 28 27  1  0  0  0  0
 28 30  1  1  0  0  0
 31 32  1  0  0  0  0
M  END
>  <MODEL>
8

>  <REMARK>
 VINA RESULT:      -7.4      3.303      9.646
  Name = 
  10 active torsions:
  status: ('A' for Active; 'I' for Inactive)
    1  A    between atoms: C_1  and  C_15
    2  A    between atoms: C_3  and  C_20
    3  A    between atoms: C_6  and  C_9
    4  A    between atoms: C_8  and  C_9
    5  A    between atoms: C_12  and  C_14
    6  A    between atoms: N_13  and  C_23
    7  A    between atoms: C_15  and  C_27
    8  A    between atoms: C_22  and  N_26
    9  A    between atoms: C_22  and  C_28
   10  A    between atoms: C_23  and  C_27
                            x       y       z     vdW  Elec       q    Type
                         _______ _______ _______ _____ _____    ______ ____

>  <TORSDO>
F 10

$$$$
=
 OpenBabel11072411553D

 32 34  0  0  1  0  0  0  0  0999 V2000
  161.5890  206.1120  153.9040 N   0  0  0  0  0  2  0  0  0  0  0  0
  161.3270  206.2020  152.6440 C   0  0  0  0  0  0  0  0  0  0  0  0
  161.1110  205.0040  151.8900 N   0  0  0  0  0  2  0  0  0  0  0  0
  161.3780  207.5420  151.9870 C   0  0  0  0  0  2  0  0  0  0  0  0
  160.8250  208.5660  152.9140 C   0  0  0  0  0  3  0  0  0  0  0  0
  161.5450  209.6190  153.2740 C   0  0  0  0  0  3  0  0  0  0  0  0
  158.6140  214.4440  153.3340 O   0  0  0  0  0  1  0  0  0  0  0  0
  159.8510  212.2640  155.1400 C   0  0  0  0  0  0  0  0  0  0  0  0
  161.0310  210.6460  154.2010 C   0  0  0  0  0  0  0  0  0  0  0  0
  158.9510  211.5200  152.8900 C   0  0  0  0  0  2  0  0  0  0  0  0
  160.9000  211.9350  155.9750 C   0  0  0  0  0  3  0  0  0  0  0  0
  157.9370  213.5140  154.1260 C   0  0  2  0  0  3  0  0  0  0  0  0
  158.7350  213.2240  155.4080 C   0  0  0  0  0  2  0  0  0  0  0  0
  157.6580  212.2310  153.3210 C   0  0  0  0  0  2  0  0  0  0  0  0
  161.6100  210.9510  155.3840 N   0  0  0  0  0  0  0  0  0  0  0  0
  159.9090  211.4410  154.0380 C   0  0  0  0  0  0  0  0  0  0  0  0
  162.8060  210.3350  155.9440 C   0  0  0  0  0  2  0  0  0  0  0  0
  162.4380  209.4490  157.1210 C   0  0  0  0  0  2  0  0  0  0  0  0
  161.8300  208.2860  156.6520 O   0  0  0  0  0  1  0  0  0  0  0  0
  160.7380  204.9620  150.4810 C   0  0  0  0  0  2  0  0  0  0  0  0
  161.3710  203.7740  149.7670 C   0  0  1  0  0  3  0  0  0  0  0  0
  161.1140  202.5870  150.4580 O   0  0  0  0  0  1  0  0  0  0  0  0
  160.6700  202.3530  147.9590 O   0  0  0  0  0  1  0  0  0  0  0  0
  160.8440  203.6880  148.3380 C   0  0  2  0  0  3  0  0  0  0  0  0
  161.7820  204.4160  147.3730 C   0  0  2  0  0  3  0  0  0  0  0  0
  161.2870  205.8190  147.1530 C   0  0  2  0  0  3  0  0  0  0  0  0
  161.8510  204.8560  145.0540 O   0  0  0  0  0  0  0  0  0  0  0  0
  161.2130  205.9570  145.6420 C   0  0  1  0  0  3  0  0  0  0  0  0
  161.7240  203.8160  145.9820 C   0  0  0  0  0  2  0  0  0  0  0  0
  159.8910  205.9880  145.2450 F   0  0  0  0  0  0  0  0  0  0  0  0
  161.5420  207.9210  148.4470 C   0  0  0  0  0  1  0  0  0  0  0  0
  162.2790  206.8110  147.7260 C   0  0  0  0  0  2  0  0  0  0  0  0
  2  1  2  0  0  0  0
  3  2  1  0  0  0  0
  4  2  1  0  0  0  0
  4  5  1  0  0  0  0
  5  6  2  0  0  0  0
  6  9  1  0  0  0  0
  8 13  1  0  0  0  0
  8 11  2  0  0  0  0
  9 15  1  0  0  0  0
 10 14  1  0  0  0  0
 10 16  1  0  0  0  0
 12  7  1  6  0  0  0
 12 13  1  0  0  0  0
 14 12  1  0  0  0  0
 15 17  1  0  0  0  0
 15 11  1  0  0  0  0
 16  9  2  0  0  0  0
 16  8  1  0  0  0  0
 17 18  1  0  0  0  0
 19 18  1  0  0  0  0
 20  3  1  0  0  0  0
 21 22  1  1  0  0  0
 21 20  1  0  0  0  0
 24 23  1  6  0  0  0
 24 21  1  0  0  0  0
 25 24  1  1  0  0  0
 26 25  1  0  0  0  0
 26 32  1  6  0  0  0
 27 28  1  0  0  0  0
 27 29  1  0  0  0  0
 28 30  1  6  0  0  0
 28 26  1  0  0  0  0
 29 25  1  0  0  0  0
 32 31  1  0  0  0  0
M  END
>  <MODEL>
9

>  <REMARK>
 VINA RESULT:      -7.4      2.746      4.443
  Name = 
  10 active torsions:
  status: ('A' for Active; 'I' for Inactive)
    1  A    between atoms: C_1  and  C_15
    2  A    between atoms: C_3  and  C_20
    3  A    between atoms: C_6  and  C_9
    4  A    between atoms: C_8  and  C_9
    5  A    between atoms: C_12  and  C_14
    6  A    between atoms: N_13  and  C_23
    7  A    between atoms: C_15  and  C_27
    8  A    between atoms: C_22  and  N_26
    9  A    between atoms: C_22  and  C_28
   10  A    between atoms: C_23  and  C_27
                            x       y       z     vdW  Elec       q    Type
                         _______ _______ _______ _____ _____    ______ ____

>  <TORSDO>
F 10

$$$$
