=
 OpenBabel11072412013D

 45 49  0  0  1  0  0  0  0  0999 V2000
  161.9590  208.5160  151.8080 C   0  0  0  0  0  2  0  0  0  0  0  0
  161.8330  210.7090  150.9670 O   0  0  0  0  0  0  0  0  0  0  0  0
  161.5220  209.9470  151.8680 C   0  0  0  0  0  0  0  0  0  0  0  0
  160.7900  210.4840  153.0630 C   0  0  0  0  0  2  0  0  0  0  0  0
  160.3860  212.4130  151.6740 N   0  0  0  0  0  0  0  0  0  0  0  0
  160.0730  211.7620  152.7620 C   0  0  0  0  0  0  0  0  0  0  0  0
  159.0050  212.1820  153.6900 C   0  0  0  0  0  0  0  0  0  0  0  0
  157.8370  213.2060  155.4720 C   0  0  0  0  0  3  0  0  0  0  0  0
  157.8170  211.6140  153.7650 C   0  0  0  0  0  3  0  0  0  0  0  0
  159.1870  213.1940  154.7650 C   0  0  0  0  0  2  0  0  0  0  0  0
  157.0460  212.1800  154.8060 N   0  0  0  0  0  0  0  0  0  0  0  0
  159.9230  213.6910  151.3070 N   0  0  0  0  0  2  0  0  0  0  0  0
  158.3480  214.4530  147.8830 C   0  0  0  0  0  2  0  0  0  0  0  0
  157.8430  212.8370  150.3130 C   0  0  0  0  0  2  0  0  0  0  0  0
  159.4810  214.1670  148.8820 C   0  0  1  0  0  3  0  0  0  0  0  0
  157.2610  213.3770  147.9330 C   0  0  0  0  0  2  0  0  0  0  0  0
  156.7150  213.2180  149.3570 C   0  0  0  0  0  2  0  0  0  0  0  0
  158.8990  213.9330  150.2960 C   0  0  2  0  0  3  0  0  0  0  0  0
  161.5720  212.6170  146.3580 N   0  0  0  0  0  2  0  0  0  0  0  0
  161.9180  213.4510  148.5670 C   0  0  0  0  0  2  0  0  0  0  0  0
  160.4760  213.1160  148.3430 C   0  0  2  0  0  3  0  0  0  0  0  0
  162.5800  212.7890  147.3990 C   0  0  0  0  0  2  0  0  0  0  0  0
  160.3060  212.9110  146.9150 N   0  0  0  0  0  2  0  0  0  0  0  0
  162.4150  208.2080  150.4600 N   0  0  0  0  0  2  0  0  0  0  0  0
  160.3910  205.8680  148.7430 C   0  0  2  0  0  3  0  0  0  0  0  0
  160.2310  206.6020  146.4250 C   0  0  0  0  0  1  0  0  0  0  0  0
  160.6080  206.6690  150.0120 C   0  0  0  0  0  2  0  0  0  0  0  0
  161.7190  205.2960  148.2560 C   0  0  2  0  0  3  0  0  0  0  0  0
  161.6440  207.8940  148.1770 C   0  0  0  0  0  2  0  0  0  0  0  0
  161.1310  206.5740  147.6430 C   0  0  2  0  0  0  0  0  0  0  0  0
  161.2410  207.9940  149.6370 C   0  0  2  0  0  3  0  0  0  0  0  0
  161.5730  204.0440  147.4040 C   0  0  2  0  0  3  0  0  0  0  0  0
  161.0750  202.8790  147.9120 C   0  0  1  0  0  3  0  0  0  0  0  0
  161.6090  199.2930  146.5030 C   0  0  0  0  0  1  0  0  0  0  0  0
  160.0810  201.6440  146.1380 O   0  0  0  0  0  0  0  0  0  0  0  0
  161.7390  200.5000  147.3030 N   0  0  0  0  0  2  0  0  0  0  0  0
  160.9230  201.6540  147.0780 C   0  0  0  0  0  0  0  0  0  0  0  0
  161.4970  203.1620  150.2490 O   0  0  0  0  0  1  0  0  0  0  0  0
  159.5620  202.0630  149.7140 O   0  0  0  0  0  0  0  0  0  0  0  0
  160.7240  202.7350  149.3490 C   0  0  0  0  0  0  0  0  0  0  0  0
  163.5410  204.7010  146.1990 O   0  0  0  0  0  1  0  0  0  0  0  0
  162.3310  204.0130  146.0920 C   0  0  2  0  0  3  0  0  0  0  0  0
  161.9570  205.5800  144.1770 O   0  0  0  0  0  0  0  0  0  0  0  0
  161.5420  204.4660  144.8970 C   0  0  0  0  0  0  0  0  0  0  0  0
  160.4690  203.8790  144.5720 O   0  0  0  0  0  1  0  0  0  0  0  0
  1  3  1  0  0  0  0
  2  3  2  0  0  0  0
  3  4  1  0  0  0  0
  5  6  2  0  0  0  0
  6  4  1  0  0  0  0
  6  7  1  0  0  0  0
  7  9  2  0  0  0  0
  7 10  1  0  0  0  0
  9 11  1  0  0  0  0
 10  8  1  0  0  0  0
 11  8  2  0  0  0  0
 12  5  1  0  0  0  0
 13 16  1  0  0  0  0
 15 13  1  6  0  0  0
 15 18  1  0  0  0  0
 16 17  1  0  0  0  0
 17 14  1  0  0  0  0
 18 14  1  0  0  0  0
 18 12  1  1  0  0  0
 19 23  1  0  0  0  0
 19 22  1  0  0  0  0
 21 20  1  6  0  0  0
 21 15  1  0  0  0  0
 22 20  1  0  0  0  0
 23 21  1  0  0  0  0
 24  1  1  0  0  0  0
 25 27  1  1  0  0  0
 28 32  1  6  0  0  0
 28 25  1  0  0  0  0
 29 31  1  0  0  0  0
 30 26  1  6  0  0  0
 30 29  1  0  0  0  0
 30 28  1  0  0  0  0
 30 25  1  0  0  0  0
 31 27  1  0  0  0  0
 31 24  1  1  0  0  0
 32 42  1  1  0  0  0
 32 33  1  0  0  0  0
 33 37  1  1  0  0  0
 33 40  1  0  0  0  0
 34 36  1  0  0  0  0
 35 37  2  0  0  0  0
 37 36  1  0  0  0  0
 40 39  2  0  0  0  0
 40 38  1  0  0  0  0
 42 41  1  1  0  0  0
 43 44  2  0  0  0  0
 44 42  1  0  0  0  0
 45 44  1  0  0  0  0
M  END
>  <MODEL>
1

>  <REMARK>
 VINA RESULT:      -7.4      0.000      0.000
  Name = 
  14 active torsions:
  status: ('A' for Active; 'I' for Inactive)
    1  A    between atoms: C_2  and  C_17
    2  A    between atoms: C_7  and  C_30
    3  A    between atoms: C_7  and  N_33
    4  A    between atoms: N_10  and  N_27
    5  A    between atoms: C_12  and  C_25
    6  A    between atoms: C_17  and  C_28
    7  A    between atoms: C_19  and  C_35
    8  A    between atoms: C_19  and  C_38
    9  A    between atoms: C_23  and  C_32
   10  A    between atoms: C_23  and  C_36
   11  A    between atoms: C_26  and  C_38
   12  A    between atoms: N_27  and  C_45
   13  A    between atoms: C_28  and  C_30
   14  A    between atoms: N_33  and  C_44
                            x       y       z     vdW  Elec       q    Type
                         _______ _______ _______ _____ _____    ______ ____

>  <TORSDO>
F 14

$$$$
=
 OpenBabel11072412013D

 45 49  0  0  1  0  0  0  0  0999 V2000
  161.2370  208.1510  152.6980 C   0  0  0  0  0  2  0  0  0  0  0  0
  161.6820  206.1260  153.8080 O   0  0  0  0  0  0  0  0  0  0  0  0
  161.1690  207.2310  153.8770 C   0  0  0  0  0  0  0  0  0  0  0  0
  160.3980  207.6060  155.1100 C   0  0  0  0  0  2  0  0  0  0  0  0
  159.3410  209.7720  155.0990 N   0  0  0  0  0  0  0  0  0  0  0  0
  160.4160  209.0800  155.3640 C   0  0  0  0  0  0  0  0  0  0  0  0
  161.6370  209.6570  155.9580 C   0  0  0  0  0  0  0  0  0  0  0  0
  163.5750  210.9630  156.3130 C   0  0  0  0  0  3  0  0  0  0  0  0
  162.2920  209.1290  156.9740 C   0  0  0  0  0  2  0  0  0  0  0  0
  162.3720  210.8170  155.3890 C   0  0  0  0  0  3  0  0  0  0  0  0
  163.4660  209.8620  157.2600 N   0  0  0  0  0  0  0  0  0  0  0  0
  159.2240  211.1750  155.1390 N   0  0  0  0  0  2  0  0  0  0  0  0
  156.5660  213.7810  154.1760 C   0  0  0  0  0  2  0  0  0  0  0  0
  156.7850  210.9340  154.9590 C   0  0  0  0  0  2  0  0  0  0  0  0
  157.9170  213.0510  154.1020 C   0  0  1  0  0  3  0  0  0  0  0  0
  155.3890  212.8120  154.0550 C   0  0  0  0  0  2  0  0  0  0  0  0
  155.4790  211.7090  155.1160 C   0  0  0  0  0  2  0  0  0  0  0  0
  157.9540  211.8930  155.1270 C   0  0  2  0  0  3  0  0  0  0  0  0
  158.6070  213.8320  150.6300 N   0  0  0  0  0  2  0  0  0  0  0  0
  159.7930  212.7400  152.3880 C   0  0  0  0  0  2  0  0  0  0  0  0
  158.3180  212.7210  152.6480 C   0  0  2  0  0  3  0  0  0  0  0  0
  159.8550  213.1460  150.9500 C   0  0  0  0  0  2  0  0  0  0  0  0
  157.7120  213.6500  151.7090 N   0  0  0  0  0  2  0  0  0  0  0  0
  161.8280  207.4460  151.5700 N   0  0  0  0  0  2  0  0  0  0  0  0
  160.1500  205.4870  149.1490 C   0  0  2  0  0  3  0  0  0  0  0  0
  160.4850  206.5540  146.9840 C   0  0  0  0  0  1  0  0  0  0  0  0
  160.1190  206.0840  150.5420 C   0  0  0  0  0  2  0  0  0  0  0  0
  161.5370  204.9230  148.8560 C   0  0  2  0  0  3  0  0  0  0  0  0
  161.5350  207.5050  149.1590 C   0  0  0  0  0  2  0  0  0  0  0  0
  161.1150  206.3050  148.3380 C   0  0  2  0  0  0  0  0  0  0  0  0
  160.8440  207.4140  150.5070 C   0  0  2  0  0  3  0  0  0  0  0  0
  161.5420  203.8160  147.8120 C   0  0  2  0  0  3  0  0  0  0  0  0
  161.0010  202.5870  148.0600 C   0  0  1  0  0  3  0  0  0  0  0  0
  160.2460  200.6020  144.8010 C   0  0  0  0  0  1  0  0  0  0  0  0
  161.6270  200.4350  147.2620 O   0  0  0  0  0  0  0  0  0  0  0  0
  160.2630  201.6430  145.8160 N   0  0  0  0  0  2  0  0  0  0  0  0
  160.9970  201.5040  147.0360 C   0  0  0  0  0  0  0  0  0  0  0  0
  161.1240  202.4090  150.4410 O   0  0  0  0  0  1  0  0  0  0  0  0
  159.2030  201.6160  149.4830 O   0  0  0  0  0  0  0  0  0  0  0  0
  160.4510  202.2260  149.3920 C   0  0  0  0  0  0  0  0  0  0  0  0
  163.6730  204.5940  147.0320 O   0  0  0  0  0  1  0  0  0  0  0  0
  162.4810  203.9850  146.6340 C   0  0  2  0  0  3  0  0  0  0  0  0
  162.4440  205.8520  144.9690 O   0  0  0  0  0  1  0  0  0  0  0  0
  161.8810  204.6740  145.4430 C   0  0  0  0  0  0  0  0  0  0  0  0
  160.8300  204.2240  144.9000 O   0  0  0  0  0  0  0  0  0  0  0  0
  1  3  1  0  0  0  0
  2  3  2  0  0  0  0
  3  4  1  0  0  0  0
  4  6  1  0  0  0  0
  5 12  1  0  0  0  0
  5  6  2  0  0  0  0
  6  7  1  0  0  0  0
  7  9  1  0  0  0  0
  8 11  2  0  0  0  0
  9 11  1  0  0  0  0
 10  7  2  0  0  0  0
 10  8  1  0  0  0  0
 14 17  1  0  0  0  0
 14 18  1  0  0  0  0
 15 13  1  6  0  0  0
 15 18  1  0  0  0  0
 16 13  1  0  0  0  0
 16 17  1  0  0  0  0
 18 12  1  6  0  0  0
 19 22  1  0  0  0  0
 19 23  1  0  0  0  0
 21 20  1  1  0  0  0
 21 15  1  0  0  0  0
 22 20  1  0  0  0  0
 23 21  1  0  0  0  0
 24  1  1  0  0  0  0
 25 27  1  1  0  0  0
 28 32  1  6  0  0  0
 28 25  1  0  0  0  0
 29 31  1  0  0  0  0
 30 26  1  6  0  0  0
 30 28  1  0  0  0  0
 30 25  1  0  0  0  0
 30 29  1  0  0  0  0
 31 27  1  0  0  0  0
 31 24  1  1  0  0  0
 32 42  1  1  0  0  0
 32 33  1  0  0  0  0
 33 37  1  1  0  0  0
 33 40  1  0  0  0  0
 34 36  1  0  0  0  0
 36 37  1  0  0  0  0
 37 35  2  0  0  0  0
 40 39  2  0  0  0  0
 40 38  1  0  0  0  0
 42 41  1  1  0  0  0
 43 44  1  0  0  0  0
 44 42  1  0  0  0  0
 45 44  2  0  0  0  0
M  END
>  <MODEL>
2

>  <REMARK>
 VINA RESULT:      -7.2      2.285      3.744
  Name = 
  14 active torsions:
  status: ('A' for Active; 'I' for Inactive)
    1  A    between atoms: C_2  and  C_17
    2  A    between atoms: C_7  and  C_30
    3  A    between atoms: C_7  and  N_33
    4  A    between atoms: N_10  and  N_27
    5  A    between atoms: C_12  and  C_25
    6  A    between atoms: C_17  and  C_28
    7  A    between atoms: C_19  and  C_35
    8  A    between atoms: C_19  and  C_38
    9  A    between atoms: C_23  and  C_32
   10  A    between atoms: C_23  and  C_36
   11  A    between atoms: C_26  and  C_38
   12  A    between atoms: N_27  and  C_45
   13  A    between atoms: C_28  and  C_30
   14  A    between atoms: N_33  and  C_44
                            x       y       z     vdW  Elec       q    Type
                         _______ _______ _______ _____ _____    ______ ____

>  <TORSDO>
F 14

$$$$
=
 OpenBabel11072412013D

 45 49  0  0  1  0  0  0  0  0999 V2000
  162.0500  208.5480  151.7940 C   0  0  0  0  0  2  0  0  0  0  0  0
  163.3540  210.4310  152.3280 O   0  0  0  0  0  0  0  0  0  0  0  0
  162.4130  209.9960  151.6850 C   0  0  0  0  0  0  0  0  0  0  0  0
  161.5820  210.9440  150.8700 C   0  0  0  0  0  2  0  0  0  0  0  0
  160.0210  210.7960  152.7010 N   0  0  0  0  0  0  0  0  0  0  0  0
  160.3760  211.4260  151.6140 C   0  0  0  0  0  0  0  0  0  0  0  0
  159.6930  212.6290  151.1010 C   0  0  0  0  0  0  0  0  0  0  0  0
  158.0510  214.2620  150.6270 C   0  0  0  0  0  3  0  0  0  0  0  0
  160.1780  213.4180  150.1620 C   0  0  0  0  0  3  0  0  0  0  0  0
  158.3040  213.0150  151.4660 C   0  0  0  0  0  2  0  0  0  0  0  0
  159.2560  214.4360  149.8260 N   0  0  0  0  0  0  0  0  0  0  0  0
  158.8440  211.0170  153.4430 N   0  0  0  0  0  2  0  0  0  0  0  0
  158.9620  211.4970  157.2550 C   0  0  0  0  0  2  0  0  0  0  0  0
  159.7330  212.8920  154.7590 C   0  0  0  0  0  2  0  0  0  0  0  0
  159.0570  210.7290  155.9270 C   0  0  1  0  0  3  0  0  0  0  0  0
  159.8580  212.7370  157.2600 C   0  0  0  0  0  2  0  0  0  0  0  0
  159.5360  213.6490  156.0710 C   0  0  0  0  0  2  0  0  0  0  0  0
  158.8050  211.6860  154.7390 C   0  0  2  0  0  3  0  0  0  0  0  0
  161.3930  208.2530  157.1750 N   0  0  0  0  0  2  0  0  0  0  0  0
  160.1140  208.5210  155.1780 C   0  0  0  0  0  2  0  0  0  0  0  0
  160.3160  209.8380  155.8630 C   0  0  2  0  0  3  0  0  0  0  0  0
  161.1040  207.6460  155.8790 C   0  0  0  0  0  2  0  0  0  0  0  0
  160.8270  209.5490  157.1920 N   0  0  0  0  0  2  0  0  0  0  0  0
  162.4320  207.8610  150.5690 N   0  0  0  0  0  2  0  0  0  0  0  0
  160.3820  205.6330  148.7380 C   0  0  2  0  0  3  0  0  0  0  0  0
  160.1440  206.5390  146.4880 C   0  0  0  0  0  1  0  0  0  0  0  0
  160.6290  206.3370  150.0580 C   0  0  0  0  0  2  0  0  0  0  0  0
  161.7010  205.1170  148.1700 C   0  0  2  0  0  3  0  0  0  0  0  0
  161.5950  207.7120  148.2920 C   0  0  0  0  0  2  0  0  0  0  0  0
  161.0810  206.4300  147.6730 C   0  0  2  0  0  0  0  0  0  0  0  0
  161.2360  207.6950  149.7670 C   0  0  2  0  0  3  0  0  0  0  0  0
  161.5420  203.9320  147.2290 C   0  0  2  0  0  3  0  0  0  0  0  0
  161.0270  202.7390  147.6510 C   0  0  1  0  0  3  0  0  0  0  0  0
  161.4700  199.2300  146.0310 C   0  0  0  0  0  1  0  0  0  0  0  0
  160.0720  201.6710  145.7510 O   0  0  0  0  0  0  0  0  0  0  0  0
  161.6140  200.3760  146.9160 N   0  0  0  0  0  2  0  0  0  0  0  0
  160.8630  201.5800  146.7290 C   0  0  0  0  0  0  0  0  0  0  0  0
  159.5010  202.1530  149.3950 O   0  0  0  0  0  0  0  0  0  0  0  0
  161.6140  202.7140  150.0700 O   0  0  0  0  0  1  0  0  0  0  0  0
  160.6700  202.4970  149.0720 C   0  0  0  0  0  0  0  0  0  0  0  0
  163.5100  204.6720  146.0740 O   0  0  0  0  0  1  0  0  0  0  0  0
  162.3050  203.9850  145.9200 C   0  0  2  0  0  3  0  0  0  0  0  0
  160.2430  204.0140  144.5030 O   0  0  0  0  0  1  0  0  0  0  0  0
  161.5180  204.5070  144.7530 C   0  0  0  0  0  0  0  0  0  0  0  0
  162.0250  205.3510  143.9580 O   0  0  0  0  0  0  0  0  0  0  0  0
  3  1  1  0  0  0  0
  3  2  2  0  0  0  0
  4  6  1  0  0  0  0
  4  3  1  0  0  0  0
  5 12  1  0  0  0  0
  6  5  2  0  0  0  0
  7 10  1  0  0  0  0
  7  6  1  0  0  0  0
  8 10  1  0  0  0  0
  9  7  2  0  0  0  0
 11  9  1  0  0  0  0
 11  8  2  0  0  0  0
 13 16  1  0  0  0  0
 14 17  1  0  0  0  0
 15 13  1  1  0  0  0
 17 16  1  0  0  0  0
 18 12  1  6  0  0  0
 18 14  1  0  0  0  0
 18 15  1  0  0  0  0
 19 23  1  0  0  0  0
 20 22  1  0  0  0  0
 21 20  1  1  0  0  0
 21 15  1  0  0  0  0
 21 23  1  0  0  0  0
 22 19  1  0  0  0  0
 24  1  1  0  0  0  0
 25 27  1  1  0  0  0
 28 32  1  6  0  0  0
 28 25  1  0  0  0  0
 29 31  1  0  0  0  0
 30 26  1  6  0  0  0
 30 28  1  0  0  0  0
 30 29  1  0  0  0  0
 30 25  1  0  0  0  0
 31 27  1  0  0  0  0
 31 24  1  1  0  0  0
 32 42  1  1  0  0  0
 32 33  1  0  0  0  0
 33 37  1  1  0  0  0
 33 40  1  0  0  0  0
 34 36  1  0  0  0  0
 35 37  2  0  0  0  0
 37 36  1  0  0  0  0
 40 38  2  0  0  0  0
 40 39  1  0  0  0  0
 42 41  1  1  0  0  0
 43 44  1  0  0  0  0
 44 42  1  0  0  0  0
 45 44  2  0  0  0  0
M  END
>  <MODEL>
3

>  <REMARK>
 VINA RESULT:      -6.8      1.867      4.710
  Name = 
  14 active torsions:
  status: ('A' for Active; 'I' for Inactive)
    1  A    between atoms: C_2  and  C_17
    2  A    between atoms: C_7  and  C_30
    3  A    between atoms: C_7  and  N_33
    4  A    between atoms: N_10  and  N_27
    5  A    between atoms: C_12  and  C_25
    6  A    between atoms: C_17  and  C_28
    7  A    between atoms: C_19  and  C_35
    8  A    between atoms: C_19  and  C_38
    9  A    between atoms: C_23  and  C_32
   10  A    between atoms: C_23  and  C_36
   11  A    between atoms: C_26  and  C_38
   12  A    between atoms: N_27  and  C_45
   13  A    between atoms: C_28  and  C_30
   14  A    between atoms: N_33  and  C_44
                            x       y       z     vdW  Elec       q    Type
                         _______ _______ _______ _____ _____    ______ ____

>  <TORSDO>
F 14

$$$$
=
 OpenBabel11072412013D

 45 49  0  0  1  0  0  0  0  0999 V2000
  162.1240  209.2340  150.0150 C   0  0  0  0  0  2  0  0  0  0  0  0
  161.3160  209.3540  147.8100 O   0  0  0  0  0  0  0  0  0  0  0  0
  162.0240  208.7530  148.6010 C   0  0  0  0  0  0  0  0  0  0  0  0
  162.7040  207.4880  148.1630 C   0  0  0  0  0  2  0  0  0  0  0  0
  161.0680  205.9290  149.0010 N   0  0  0  0  0  0  0  0  0  0  0  0
  161.7390  206.3620  147.9680 C   0  0  0  0  0  0  0  0  0  0  0  0
  161.5580  205.8460  146.5970 C   0  0  0  0  0  0  0  0  0  0  0  0
  161.9580  204.8660  144.4840 C   0  0  0  0  0  3  0  0  0  0  0  0
  160.5140  206.1080  145.8350 C   0  0  0  0  0  3  0  0  0  0  0  0
  162.6010  205.0990  145.8460 C   0  0  0  0  0  2  0  0  0  0  0  0
  160.6690  205.5440  144.5480 N   0  0  0  0  0  0  0  0  0  0  0  0
  160.2320  204.7960  149.0340 N   0  0  0  0  0  2  0  0  0  0  0  0
  160.2410  201.2520  150.5230 C   0  0  0  0  0  2  0  0  0  0  0  0
  161.6190  203.8550  150.8310 C   0  0  0  0  0  2  0  0  0  0  0  0
  160.1580  202.3160  149.4180 C   0  0  1  0  0  3  0  0  0  0  0  0
  161.5060  201.4060  151.3680 C   0  0  0  0  0  2  0  0  0  0  0  0
  161.6030  202.8190  151.9540 C   0  0  0  0  0  2  0  0  0  0  0  0
  160.3360  203.7290  150.0230 C   0  0  2  0  0  3  0  0  0  0  0  0
  161.5200  200.0910  146.9010 N   0  0  0  0  0  2  0  0  0  0  0  0
  160.3800  202.1870  146.8710 C   0  0  0  0  0  2  0  0  0  0  0  0
  161.0330  201.9540  148.1980 C   0  0  2  0  0  3  0  0  0  0  0  0
  161.0210  201.1390  146.0160 C   0  0  0  0  0  2  0  0  0  0  0  0
  161.4340  200.5580  148.2330 N   0  0  0  0  0  2  0  0  0  0  0  0
  161.6210  208.2020  150.9120 N   0  0  0  0  0  2  0  0  0  0  0  0
  161.0640  208.7100  154.3690 C   0  0  2  0  0  3  0  0  0  0  0  0
  162.1800  210.7850  154.9920 C   0  0  0  0  0  1  0  0  0  0  0  0
  161.3810  207.7190  153.2660 C   0  0  0  0  0  2  0  0  0  0  0  0
  159.9770  209.6740  153.9030 C   0  0  2  0  0  3  0  0  0  0  0  0
  162.1850  209.9060  152.5500 C   0  0  0  0  0  2  0  0  0  0  0  0
  161.4590  210.0700  153.8680 C   0  0  2  0  0  0  0  0  0  0  0  0
  162.2140  208.4250  152.2150 C   0  0  2  0  0  3  0  0  0  0  0  0
  159.1720  210.2870  155.0400 C   0  0  2  0  0  3  0  0  0  0  0  0
  158.5500  211.4960  154.9140 C   0  0  1  0  0  3  0  0  0  0  0  0
  155.5690  212.3570  157.2600 C   0  0  0  0  0  1  0  0  0  0  0  0
  158.3060  212.9070  156.8150 O   0  0  0  0  0  0  0  0  0  0  0  0
  156.3660  211.7880  156.1850 N   0  0  0  0  0  2  0  0  0  0  0  0
  157.7540  212.0940  156.0230 C   0  0  0  0  0  0  0  0  0  0  0  0
  159.3900  213.3770  153.7000 O   0  0  0  0  0  1  0  0  0  0  0  0
  157.9920  211.9870  152.5380 O   0  0  0  0  0  0  0  0  0  0  0  0
  158.6910  212.3280  153.6920 C   0  0  0  0  0  0  0  0  0  0  0  0
  160.3340  210.4400  157.1330 O   0  0  0  0  0  1  0  0  0  0  0  0
  159.3830  209.7050  156.4240 C   0  0  2  0  0  3  0  0  0  0  0  0
  160.8340  207.7800  157.0920 O   0  0  0  0  0  1  0  0  0  0  0  0
  159.6900  208.2350  156.4490 C   0  0  0  0  0  0  0  0  0  0  0  0
  158.9470  207.4100  155.8410 O   0  0  0  0  0  0  0  0  0  0  0  0
  1 24  1  0  0  0  0
  2  3  2  0  0  0  0
  3  1  1  0  0  0  0
  4  3  1  0  0  0  0
  5 12  1  0  0  0  0
  6  4  1  0  0  0  0
  6  5  2  0  0  0  0
  7  6  1  0  0  0  0
  8 11  2  0  0  0  0
  8 10  1  0  0  0  0
  9  7  2  0  0  0  0
 10  7  1  0  0  0  0
 11  9  1  0  0  0  0
 13 16  1  0  0  0  0
 14 17  1  0  0  0  0
 15 18  1  0  0  0  0
 15 13  1  1  0  0  0
 16 17  1  0  0  0  0
 18 12  1  6  0  0  0
 18 14  1  0  0  0  0
 19 23  1  0  0  0  0
 21 20  1  6  0  0  0
 21 23  1  0  0  0  0
 21 15  1  0  0  0  0
 22 20  1  0  0  0  0
 22 19  1  0  0  0  0
 25 27  1  6  0  0  0
 28 25  1  0  0  0  0
 28 32  1  1  0  0  0
 29 30  1  0  0  0  0
 30 28  1  0  0  0  0
 30 25  1  0  0  0  0
 30 26  1  1  0  0  0
 31 24  1  6  0  0  0
 31 29  1  0  0  0  0
 31 27  1  0  0  0  0
 32 33  1  1  0  0  0
 32 42  1  0  0  0  0
 33 40  1  1  0  0  0
 33 37  1  0  0  0  0
 36 34  1  0  0  0  0
 37 36  1  0  0  0  0
 37 35  2  0  0  0  0
 39 40  2  0  0  0  0
 40 38  1  0  0  0  0
 42 44  1  0  0  0  0
 42 41  1  6  0  0  0
 44 43  1  0  0  0  0
 45 44  2  0  0  0  0
M  END
>  <MODEL>
4

>  <REMARK>
 VINA RESULT:      -6.4      3.835     10.715
  Name = 
  14 active torsions:
  status: ('A' for Active; 'I' for Inactive)
    1  A    between atoms: C_2  and  C_17
    2  A    between atoms: C_7  and  C_30
    3  A    between atoms: C_7  and  N_33
    4  A    between atoms: N_10  and  N_27
    5  A    between atoms: C_12  and  C_25
    6  A    between atoms: C_17  and  C_28
    7  A    between atoms: C_19  and  C_35
    8  A    between atoms: C_19  and  C_38
    9  A    between atoms: C_23  and  C_32
   10  A    between atoms: C_23  and  C_36
   11  A    between atoms: C_26  and  C_38
   12  A    between atoms: N_27  and  C_45
   13  A    between atoms: C_28  and  C_30
   14  A    between atoms: N_33  and  C_44
                            x       y       z     vdW  Elec       q    Type
                         _______ _______ _______ _____ _____    ______ ____

>  <TORSDO>
F 14

$$$$
=
 OpenBabel11072412013D

 45 49  0  0  1  0  0  0  0  0999 V2000
  162.0570  209.8870  150.8790 C   0  0  0  0  0  2  0  0  0  0  0  0
  162.4260  210.9420  148.8100 O   0  0  0  0  0  0  0  0  0  0  0  0
  161.9060  211.0190  149.9110 C   0  0  0  0  0  0  0  0  0  0  0  0
  161.2060  212.2870  150.3050 C   0  0  0  0  0  2  0  0  0  0  0  0
  160.7150  211.2680  152.4340 N   0  0  0  0  0  0  0  0  0  0  0  0
  160.3340  212.1050  151.5070 C   0  0  0  0  0  0  0  0  0  0  0  0
  159.1170  212.9340  151.6000 C   0  0  0  0  0  0  0  0  0  0  0  0
  157.2530  214.1200  152.4400 C   0  0  0  0  0  3  0  0  0  0  0  0
  158.3580  213.2600  150.5720 C   0  0  0  0  0  3  0  0  0  0  0  0
  158.5060  213.3720  152.8830 C   0  0  0  0  0  2  0  0  0  0  0  0
  157.2190  213.9870  150.9900 N   0  0  0  0  0  0  0  0  0  0  0  0
  159.9600  210.8660  153.5530 N   0  0  0  0  0  2  0  0  0  0  0  0
  160.6960  208.7930  156.7070 C   0  0  0  0  0  2  0  0  0  0  0  0
  162.0520  210.6300  154.8210 C   0  0  0  0  0  2  0  0  0  0  0  0
  160.0800  209.0990  155.3320 C   0  0  1  0  0  3  0  0  0  0  0  0
  162.2140  208.9790  156.7030 C   0  0  0  0  0  2  0  0  0  0  0  0
  162.5910  210.3870  156.2290 C   0  0  0  0  0  2  0  0  0  0  0  0
  160.5370  210.4920  154.8400 C   0  0  2  0  0  3  0  0  0  0  0  0
  161.9320  206.8240  153.2010 N   0  0  0  0  0  2  0  0  0  0  0  0
  160.3930  206.5790  155.0090 C   0  0  0  0  0  2  0  0  0  0  0  0
  160.2360  207.9160  154.3520 C   0  0  2  0  0  3  0  0  0  0  0  0
  161.2300  205.8360  154.0150 C   0  0  0  0  0  2  0  0  0  0  0  0
  161.3860  208.0980  153.4830 N   0  0  0  0  0  2  0  0  0  0  0  0
  162.3560  208.6640  150.1480 N   0  0  0  0  0  2  0  0  0  0  0  0
  160.4610  206.0140  148.7680 C   0  0  2  0  0  3  0  0  0  0  0  0
  160.0800  206.5350  146.4170 C   0  0  0  0  0  1  0  0  0  0  0  0
  160.6810  206.9350  149.9520 C   0  0  0  0  0  2  0  0  0  0  0  0
  161.8030  205.5270  148.2300 C   0  0  2  0  0  3  0  0  0  0  0  0
  161.4720  208.0920  147.9580 C   0  0  0  0  0  2  0  0  0  0  0  0
  161.0560  206.6910  147.5650 C   0  0  2  0  0  0  0  0  0  0  0  0
  161.1570  208.2760  149.4310 C   0  0  2  0  0  3  0  0  0  0  0  0
  161.7230  204.2010  147.4900 C   0  0  2  0  0  3  0  0  0  0  0  0
  161.2360  203.0710  148.0830 C   0  0  1  0  0  3  0  0  0  0  0  0
  160.3890  200.4200  145.3650 C   0  0  0  0  0  1  0  0  0  0  0  0
  161.6440  200.7360  147.8780 O   0  0  0  0  0  0  0  0  0  0  0  0
  160.4850  201.6750  146.0930 N   0  0  0  0  0  2  0  0  0  0  0  0
  161.1490  201.7720  147.3570 C   0  0  0  0  0  0  0  0  0  0  0  0
  161.5390  203.6060  150.3930 O   0  0  0  0  0  1  0  0  0  0  0  0
  159.6980  202.3400  149.8990 O   0  0  0  0  0  0  0  0  0  0  0  0
  160.8330  203.0460  149.5120 C   0  0  0  0  0  0  0  0  0  0  0  0
  163.7930  204.6550  146.3660 O   0  0  0  0  0  1  0  0  0  0  0  0
  162.5330  204.0750  146.2150 C   0  0  2  0  0  3  0  0  0  0  0  0
  160.6890  203.9380  144.5280 O   0  0  0  0  0  1  0  0  0  0  0  0
  161.8410  204.5720  144.9780 C   0  0  0  0  0  0  0  0  0  0  0  0
  162.3290  205.5260  144.3050 O   0  0  0  0  0  0  0  0  0  0  0  0
  2  3  2  0  0  0  0
  3  4  1  0  0  0  0
  3  1  1  0  0  0  0
  4  6  1  0  0  0  0
  5 12  1  0  0  0  0
  6  7  1  0  0  0  0
  6  5  2  0  0  0  0
  7 10  1  0  0  0  0
  8 10  1  0  0  0  0
  9 11  1  0  0  0  0
  9  7  2  0  0  0  0
 11  8  2  0  0  0  0
 14 18  1  0  0  0  0
 14 17  1  0  0  0  0
 15 13  1  1  0  0  0
 16 13  1  0  0  0  0
 17 16  1  0  0  0  0
 18 12  1  6  0  0  0
 18 15  1  0  0  0  0
 19 23  1  0  0  0  0
 19 22  1  0  0  0  0
 21 20  1  1  0  0  0
 21 15  1  0  0  0  0
 22 20  1  0  0  0  0
 23 21  1  0  0  0  0
 24  1  1  0  0  0  0
 25 27  1  1  0  0  0
 28 32  1  6  0  0  0
 28 25  1  0  0  0  0
 29 31  1  0  0  0  0
 30 26  1  6  0  0  0
 30 29  1  0  0  0  0
 30 28  1  0  0  0  0
 30 25  1  0  0  0  0
 31 27  1  0  0  0  0
 31 24  1  1  0  0  0
 32 42  1  1  0  0  0
 32 33  1  0  0  0  0
 33 37  1  1  0  0  0
 33 40  1  0  0  0  0
 34 36  1  0  0  0  0
 36 37  1  0  0  0  0
 37 35  2  0  0  0  0
 40 39  2  0  0  0  0
 40 38  1  0  0  0  0
 42 41  1  1  0  0  0
 43 44  1  0  0  0  0
 44 42  1  0  0  0  0
 45 44  2  0  0  0  0
M  END
>  <MODEL>
5

>  <REMARK>
 VINA RESULT:      -5.9      2.014      4.682
  Name = 
  14 active torsions:
  status: ('A' for Active; 'I' for Inactive)
    1  A    between atoms: C_2  and  C_17
    2  A    between atoms: C_7  and  C_30
    3  A    between atoms: C_7  and  N_33
    4  A    between atoms: N_10  and  N_27
    5  A    between atoms: C_12  and  C_25
    6  A    between atoms: C_17  and  C_28
    7  A    between atoms: C_19  and  C_35
    8  A    between atoms: C_19  and  C_38
    9  A    between atoms: C_23  and  C_32
   10  A    between atoms: C_23  and  C_36
   11  A    between atoms: C_26  and  C_38
   12  A    between atoms: N_27  and  C_45
   13  A    between atoms: C_28  and  C_30
   14  A    between atoms: N_33  and  C_44
                            x       y       z     vdW  Elec       q    Type
                         _______ _______ _______ _____ _____    ______ ____

>  <TORSDO>
F 14

$$$$
=
 OpenBabel11072412013D

 45 49  0  0  1  0  0  0  0  0999 V2000
  160.0600  209.3520  153.0690 C   0  0  0  0  0  2  0  0  0  0  0  0
  159.2500  210.2940  155.0650 O   0  0  0  0  0  0  0  0  0  0  0  0
  159.9160  210.4660  154.0570 C   0  0  0  0  0  0  0  0  0  0  0  0
  160.4990  211.8230  153.7860 C   0  0  0  0  0  2  0  0  0  0  0  0
  159.7560  213.3030  152.0350 N   0  0  0  0  0  0  0  0  0  0  0  0
  159.4970  212.7630  153.1950 C   0  0  0  0  0  0  0  0  0  0  0  0
  158.2400  212.9770  153.9380 C   0  0  0  0  0  0  0  0  0  0  0  0
  156.0190  212.7760  154.7210 C   0  0  0  0  0  3  0  0  0  0  0  0
  157.9750  214.0490  154.6600 C   0  0  0  0  0  2  0  0  0  0  0  0
  157.0530  212.0870  153.8380 C   0  0  0  0  0  3  0  0  0  0  0  0
  156.6610  214.0020  155.1780 N   0  0  0  0  0  0  0  0  0  0  0  0
  159.0040  214.3100  151.4000 N   0  0  0  0  0  2  0  0  0  0  0  0
  159.0560  214.3940  147.5560 C   0  0  0  0  0  2  0  0  0  0  0  0
  157.7550  212.9410  149.7850 C   0  0  0  0  0  2  0  0  0  0  0  0
  159.6420  214.4520  148.9760 C   0  0  1  0  0  3  0  0  0  0  0  0
  158.2400  213.1200  147.3300 C   0  0  0  0  0  2  0  0  0  0  0  0
  157.1400  212.9810  148.3880 C   0  0  0  0  0  2  0  0  0  0  0  0
  158.5250  214.2320  150.0240 C   0  0  2  0  0  3  0  0  0  0  0  0
  161.8510  211.7020  148.1420 N   0  0  0  0  0  2  0  0  0  0  0  0
  162.0800  214.0720  148.2950 C   0  0  0  0  0  2  0  0  0  0  0  0
  160.9180  213.5940  149.1110 C   0  0  2  0  0  3  0  0  0  0  0  0
  162.8070  212.7970  148.0040 C   0  0  0  0  0  2  0  0  0  0  0  0
  160.6710  212.2150  148.7270 N   0  0  0  0  0  2  0  0  0  0  0  0
  160.6140  209.8760  151.8280 N   0  0  0  0  0  2  0  0  0  0  0  0
  162.2980  207.3260  150.0450 C   0  0  2  0  0  3  0  0  0  0  0  0
  163.3710  205.8750  151.6830 C   0  0  0  0  0  1  0  0  0  0  0  0
  161.9420  208.7980  150.1230 C   0  0  0  0  0  2  0  0  0  0  0  0
  161.0790  206.4770  150.3960 C   0  0  2  0  0  3  0  0  0  0  0  0
  161.9260  207.9100  152.3940 C   0  0  0  0  0  2  0  0  0  0  0  0
  162.1720  206.7660  151.4340 C   0  0  2  0  0  0  0  0  0  0  0  0
  161.8690  209.1940  151.5850 C   0  0  2  0  0  3  0  0  0  0  0  0
  161.1110  205.0800  149.7970 C   0  0  2  0  0  3  0  0  0  0  0  0
  161.3840  204.8670  148.4760 C   0  0  1  0  0  3  0  0  0  0  0  0
  160.7570  201.0630  147.9520 C   0  0  0  0  0  1  0  0  0  0  0  0
  162.1000  203.2910  146.8430 O   0  0  0  0  0  0  0  0  0  0  0  0
  160.7350  202.4070  148.5070 N   0  0  0  0  0  2  0  0  0  0  0  0
  161.4240  203.4980  147.8880 C   0  0  0  0  0  0  0  0  0  0  0  0
  162.7310  206.2730  147.0880 O   0  0  0  0  0  0  0  0  0  0  0  0
  160.5020  206.7850  147.1560 O   0  0  0  0  0  1  0  0  0  0  0  0
  161.5830  205.9890  147.5240 C   0  0  0  0  0  0  0  0  0  0  0  0
  159.1930  204.3320  151.0300 O   0  0  0  0  0  1  0  0  0  0  0  0
  160.4730  203.9690  150.6070 C   0  0  2  0  0  3  0  0  0  0  0  0
  161.0400  203.8880  153.0430 O   0  0  0  0  0  1  0  0  0  0  0  0
  161.3080  203.4620  151.7480 C   0  0  0  0  0  0  0  0  0  0  0  0
  162.2920  202.6950  151.5370 O   0  0  0  0  0  0  0  0  0  0  0  0
  1  3  1  0  0  0  0
  3  2  2  0  0  0  0
  4  3  1  0  0  0  0
  5  6  2  0  0  0  0
  6  4  1  0  0  0  0
  6  7  1  0  0  0  0
  7  9  1  0  0  0  0
  8 11  2  0  0  0  0
  9 11  1  0  0  0  0
 10  7  2  0  0  0  0
 10  8  1  0  0  0  0
 12  5  1  0  0  0  0
 14 18  1  0  0  0  0
 15 13  1  6  0  0  0
 15 21  1  0  0  0  0
 15 18  1  0  0  0  0
 16 13  1  0  0  0  0
 16 17  1  0  0  0  0
 17 14  1  0  0  0  0
 18 12  1  1  0  0  0
 19 23  1  0  0  0  0
 21 20  1  6  0  0  0
 22 19  1  0  0  0  0
 22 20  1  0  0  0  0
 23 21  1  0  0  0  0
 24  1  1  0  0  0  0
 25 27  1  1  0  0  0
 25 28  1  0  0  0  0
 25 30  1  0  0  0  0
 27 31  1  0  0  0  0
 28 32  1  6  0  0  0
 28 30  1  0  0  0  0
 30 26  1  1  0  0  0
 30 29  1  0  0  0  0
 31 24  1  6  0  0  0
 31 29  1  0  0  0  0
 32 33  1  6  0  0  0
 32 42  1  0  0  0  0
 33 40  1  6  0  0  0
 34 36  1  0  0  0  0
 35 37  2  0  0  0  0
 37 33  1  0  0  0  0
 37 36  1  0  0  0  0
 38 40  2  0  0  0  0
 39 40  1  0  0  0  0
 42 41  1  1  0  0  0
 42 44  1  0  0  0  0
 44 43  1  0  0  0  0
 45 44  2  0  0  0  0
M  END
>  <MODEL>
6

>  <REMARK>
 VINA RESULT:      -5.9      1.767      3.449
  Name = 
  14 active torsions:
  status: ('A' for Active; 'I' for Inactive)
    1  A    between atoms: C_2  and  C_17
    2  A    between atoms: C_7  and  C_30
    3  A    between atoms: C_7  and  N_33
    4  A    between atoms: N_10  and  N_27
    5  A    between atoms: C_12  and  C_25
    6  A    between atoms: C_17  and  C_28
    7  A    between atoms: C_19  and  C_35
    8  A    between atoms: C_19  and  C_38
    9  A    between atoms: C_23  and  C_32
   10  A    between atoms: C_23  and  C_36
   11  A    between atoms: C_26  and  C_38
   12  A    between atoms: N_27  and  C_45
   13  A    between atoms: C_28  and  C_30
   14  A    between atoms: N_33  and  C_44
                            x       y       z     vdW  Elec       q    Type
                         _______ _______ _______ _____ _____    ______ ____

>  <TORSDO>
F 14

$$$$
=
 OpenBabel11072412013D

 45 49  0  0  1  0  0  0  0  0999 V2000
  162.2400  210.5390  149.9070 C   0  0  0  0  0  2  0  0  0  0  0  0
  163.1330  211.2750  147.8600 O   0  0  0  0  0  0  0  0  0  0  0  0
  162.4210  211.5450  148.8130 C   0  0  0  0  0  0  0  0  0  0  0  0
  161.8200  212.9170  148.9140 C   0  0  0  0  0  2  0  0  0  0  0  0
  160.0510  212.6930  150.5370 N   0  0  0  0  0  0  0  0  0  0  0  0
  160.3710  212.8760  149.2840 C   0  0  0  0  0  0  0  0  0  0  0  0
  159.3840  213.1050  148.2100 C   0  0  0  0  0  0  0  0  0  0  0  0
  157.4190  213.7020  147.0410 C   0  0  0  0  0  3  0  0  0  0  0  0
  159.4820  212.6100  146.9920 C   0  0  0  0  0  3  0  0  0  0  0  0
  158.0810  213.7900  148.4110 C   0  0  0  0  0  2  0  0  0  0  0  0
  158.3440  212.9330  146.2180 N   0  0  0  0  0  0  0  0  0  0  0  0
  158.7530  212.4850  151.0420 N   0  0  0  0  0  2  0  0  0  0  0  0
  158.0830  211.9620  154.7910 C   0  0  0  0  0  2  0  0  0  0  0  0
  159.0030  214.0590  152.9130 C   0  0  0  0  0  2  0  0  0  0  0  0
  158.5660  211.5910  153.3800 C   0  0  1  0  0  3  0  0  0  0  0  0
  158.7020  213.2740  155.2770 C   0  0  0  0  0  2  0  0  0  0  0  0
  158.4270  214.4080  154.2830 C   0  0  0  0  0  2  0  0  0  0  0  0
  158.3500  212.7790  152.4130 C   0  0  2  0  0  3  0  0  0  0  0  0
  161.1760  209.4570  154.7140 N   0  0  0  0  0  2  0  0  0  0  0  0
  160.0770  209.6740  152.6070 C   0  0  0  0  0  2  0  0  0  0  0  0
  159.9660  210.9400  153.3990 C   0  0  2  0  0  3  0  0  0  0  0  0
  161.1340  208.9260  153.3550 C   0  0  0  0  0  2  0  0  0  0  0  0
  160.3850  210.6290  154.7550 N   0  0  0  0  0  2  0  0  0  0  0  0
  162.4860  209.2040  149.3800 N   0  0  0  0  0  2  0  0  0  0  0  0
  160.5630  206.3060  148.7360 C   0  0  2  0  0  3  0  0  0  0  0  0
  159.7900  206.4390  146.4280 C   0  0  0  0  0  1  0  0  0  0  0  0
  160.9090  207.4070  149.7190 C   0  0  0  0  0  2  0  0  0  0  0  0
  161.8320  205.7890  148.0650 C   0  0  2  0  0  3  0  0  0  0  0  0
  161.3080  208.2660  147.4730 C   0  0  0  0  0  2  0  0  0  0  0  0
  160.9210  206.8070  147.3650 C   0  0  2  0  0  0  0  0  0  0  0  0
  161.2160  208.6670  148.9340 C   0  0  2  0  0  3  0  0  0  0  0  0
  161.7180  204.3620  147.5530 C   0  0  2  0  0  3  0  0  0  0  0  0
  161.3410  203.3310  148.3660 C   0  0  1  0  0  3  0  0  0  0  0  0
  160.5160  200.2970  146.0740 C   0  0  0  0  0  1  0  0  0  0  0  0
  161.6100  200.9770  148.5910 O   0  0  0  0  0  0  0  0  0  0  0  0
  160.6430  201.6530  146.5860 N   0  0  0  0  0  2  0  0  0  0  0  0
  161.2220  201.9320  147.8640 C   0  0  0  0  0  0  0  0  0  0  0  0
  159.9310  203.5530  150.2830 O   0  0  0  0  0  0  0  0  0  0  0  0
  162.1780  203.7410  150.6750 O   0  0  0  0  0  1  0  0  0  0  0  0
  161.1020  203.5240  149.8190 C   0  0  0  0  0  0  0  0  0  0  0  0
  163.6290  204.6770  146.1370 O   0  0  0  0  0  1  0  0  0  0  0  0
  162.3850  204.0510  146.2280 C   0  0  2  0  0  3  0  0  0  0  0  0
  161.8720  205.3730  144.1660 O   0  0  0  0  0  0  0  0  0  0  0  0
  161.5390  204.3270  145.0170 C   0  0  0  0  0  0  0  0  0  0  0  0
  160.4910  203.6530  144.7950 O   0  0  0  0  0  1  0  0  0  0  0  0
  2  3  2  0  0  0  0
  3  4  1  0  0  0  0
  3  1  1  0  0  0  0
  4  6  1  0  0  0  0
  5 12  1  0  0  0  0
  6  5  2  0  0  0  0
  7 10  1  0  0  0  0
  7  6  1  0  0  0  0
  8 10  1  0  0  0  0
  9  7  2  0  0  0  0
 11  9  1  0  0  0  0
 11  8  2  0  0  0  0
 13 16  1  0  0  0  0
 14 17  1  0  0  0  0
 15 21  1  0  0  0  0
 15 13  1  1  0  0  0
 17 16  1  0  0  0  0
 18 12  1  6  0  0  0
 18 14  1  0  0  0  0
 18 15  1  0  0  0  0
 19 23  1  0  0  0  0
 20 22  1  0  0  0  0
 21 20  1  6  0  0  0
 21 23  1  0  0  0  0
 22 19  1  0  0  0  0
 24  1  1  0  0  0  0
 25 27  1  1  0  0  0
 28 32  1  6  0  0  0
 28 25  1  0  0  0  0
 29 31  1  0  0  0  0
 30 26  1  6  0  0  0
 30 29  1  0  0  0  0
 30 28  1  0  0  0  0
 30 25  1  0  0  0  0
 31 24  1  1  0  0  0
 31 27  1  0  0  0  0
 32 42  1  1  0  0  0
 32 33  1  0  0  0  0
 33 37  1  1  0  0  0
 33 40  1  0  0  0  0
 34 36  1  0  0  0  0
 36 37  1  0  0  0  0
 37 35  2  0  0  0  0
 40 38  2  0  0  0  0
 40 39  1  0  0  0  0
 42 41  1  6  0  0  0
 43 44  2  0  0  0  0
 44 42  1  0  0  0  0
 45 44  1  0  0  0  0
M  END
>  <MODEL>
7

>  <REMARK>
 VINA RESULT:      -5.3      1.542      4.283
  Name = 
  14 active torsions:
  status: ('A' for Active; 'I' for Inactive)
    1  A    between atoms: C_2  and  C_17
    2  A    between atoms: C_7  and  C_30
    3  A    between atoms: C_7  and  N_33
    4  A    between atoms: N_10  and  N_27
    5  A    between atoms: C_12  and  C_25
    6  A    between atoms: C_17  and  C_28
    7  A    between atoms: C_19  and  C_35
    8  A    between atoms: C_19  and  C_38
    9  A    between atoms: C_23  and  C_32
   10  A    between atoms: C_23  and  C_36
   11  A    between atoms: C_26  and  C_38
   12  A    between atoms: N_27  and  C_45
   13  A    between atoms: C_28  and  C_30
   14  A    between atoms: N_33  and  C_44
                            x       y       z     vdW  Elec       q    Type
                         _______ _______ _______ _____ _____    ______ ____

>  <TORSDO>
F 14

$$$$
=
 OpenBabel11072412013D

 45 49  0  0  1  0  0  0  0  0999 V2000
  160.8310  208.2820  151.5490 C   0  0  0  0  0  2  0  0  0  0  0  0
  161.9300  209.8630  152.9000 O   0  0  0  0  0  0  0  0  0  0  0  0
  161.6480  209.5180  151.7640 C   0  0  0  0  0  0  0  0  0  0  0  0
  162.0470  210.3930  150.6110 C   0  0  0  0  0  2  0  0  0  0  0  0
  160.4560  211.9610  151.5200 N   0  0  0  0  0  0  0  0  0  0  0  0
  161.1760  211.6040  150.4910 C   0  0  0  0  0  0  0  0  0  0  0  0
  161.2300  212.3610  149.2250 C   0  0  0  0  0  0  0  0  0  0  0  0
  161.5480  212.9460  146.9570 C   0  0  0  0  0  3  0  0  0  0  0  0
  161.1460  213.6740  149.1380 C   0  0  0  0  0  2  0  0  0  0  0  0
  161.5420  211.7520  147.9050 C   0  0  0  0  0  3  0  0  0  0  0  0
  161.3160  214.1090  147.8040 N   0  0  0  0  0  0  0  0  0  0  0  0
  159.4820  212.9770  151.5410 N   0  0  0  0  0  2  0  0  0  0  0  0
  156.9190  212.0590  154.2550 C   0  0  0  0  0  2  0  0  0  0  0  0
  157.5200  214.2280  152.3310 C   0  0  0  0  0  2  0  0  0  0  0  0
  158.3080  212.1660  153.6060 C   0  0  1  0  0  3  0  0  0  0  0  0
  156.2100  213.4130  154.3100 C   0  0  0  0  0  2  0  0  0  0  0  0
  156.1210  214.0400  152.9140 C   0  0  0  0  0  2  0  0  0  0  0  0
  158.2020  212.8720  152.2340 C   0  0  2  0  0  3  0  0  0  0  0  0
  159.5380  213.2110  156.8530 N   0  0  0  0  0  2  0  0  0  0  0  0
  160.2410  211.6410  155.1990 C   0  0  0  0  0  2  0  0  0  0  0  0
  159.3690  212.6970  154.5950 C   0  0  2  0  0  3  0  0  0  0  0  0
  160.5720  212.2300  156.5340 C   0  0  0  0  0  2  0  0  0  0  0  0
  158.7520  213.4170  155.6950 N   0  0  0  0  0  2  0  0  0  0  0  0
  160.8160  207.4950  152.7750 N   0  0  0  0  0  2  0  0  0  0  0  0
  162.4330  205.1930  150.6290 C   0  0  2  0  0  3  0  0  0  0  0  0
  162.2150  202.9820  151.6320 C   0  0  0  0  0  1  0  0  0  0  0  0
  162.4660  206.5630  151.2760 C   0  0  0  0  0  2  0  0  0  0  0  0
  161.0220  204.8830  150.1370 C   0  0  2  0  0  3  0  0  0  0  0  0
  161.1700  205.0920  152.7250 C   0  0  0  0  0  2  0  0  0  0  0  0
  161.5380  204.3270  151.4710 C   0  0  2  0  0  0  0  0  0  0  0  0
  161.8220  206.4600  152.6450 C   0  0  2  0  0  3  0  0  0  0  0  0
  160.9770  203.8810  148.9940 C   0  0  2  0  0  3  0  0  0  0  0  0
  161.3130  204.2270  147.7160 C   0  0  1  0  0  3  0  0  0  0  0  0
  160.0110  201.5900  145.1700 C   0  0  0  0  0  1  0  0  0  0  0  0
  162.3340  202.9990  145.9530 O   0  0  0  0  0  0  0  0  0  0  0  0
  160.0720  202.5510  146.2590 N   0  0  0  0  0  2  0  0  0  0  0  0
  161.2770  203.2450  146.5960 C   0  0  0  0  0  0  0  0  0  0  0  0
  162.8600  206.0130  147.3480 O   0  0  0  0  0  1  0  0  0  0  0  0
  160.6510  206.5360  147.0580 O   0  0  0  0  0  0  0  0  0  0  0  0
  161.6610  205.6230  147.3470 C   0  0  0  0  0  0  0  0  0  0  0  0
  159.3140  202.7470  150.2990 O   0  0  0  0  0  1  0  0  0  0  0  0
  160.2020  202.6000  149.2320 C   0  0  2  0  0  3  0  0  0  0  0  0
  161.5810  200.7530  148.2570 O   0  0  0  0  0  0  0  0  0  0  0  0
  161.0500  201.3700  149.3840 C   0  0  0  0  0  0  0  0  0  0  0  0
  161.2390  200.8530  150.5240 O   0  0  0  0  0  1  0  0  0  0  0  0
  1  3  1  0  0  0  0
  1 24  1  0  0  0  0
  3  2  2  0  0  0  0
  4  3  1  0  0  0  0
  5 12  1  0  0  0  0
  6  4  1  0  0  0  0
  6  5  2  0  0  0  0
  7  6  1  0  0  0  0
  8 11  2  0  0  0  0
  8 10  1  0  0  0  0
  9  7  1  0  0  0  0
 10  7  2  0  0  0  0
 11  9  1  0  0  0  0
 13 16  1  0  0  0  0
 14 17  1  0  0  0  0
 15 13  1  1  0  0  0
 15 21  1  0  0  0  0
 17 16  1  0  0  0  0
 18 12  1  1  0  0  0
 18 14  1  0  0  0  0
 18 15  1  0  0  0  0
 20 22  1  0  0  0  0
 21 20  1  1  0  0  0
 21 23  1  0  0  0  0
 22 19  1  0  0  0  0
 23 19  1  0  0  0  0
 25 27  1  1  0  0  0
 25 30  1  0  0  0  0
 27 31  1  0  0  0  0
 28 32  1  6  0  0  0
 28 25  1  0  0  0  0
 28 30  1  0  0  0  0
 30 26  1  1  0  0  0
 30 29  1  0  0  0  0
 31 29  1  0  0  0  0
 31 24  1  6  0  0  0
 32 33  1  6  0  0  0
 32 42  1  0  0  0  0
 33 37  1  6  0  0  0
 34 36  1  0  0  0  0
 35 37  2  0  0  0  0
 36 37  1  0  0  0  0
 39 40  2  0  0  0  0
 40 38  1  0  0  0  0
 40 33  1  0  0  0  0
 42 44  1  0  0  0  0
 42 41  1  1  0  0  0
 43 44  2  0  0  0  0
 44 45  1  0  0  0  0
M  END
>  <MODEL>
8

>  <REMARK>
 VINA RESULT:      -5.1      1.991      5.171
  Name = 
  14 active torsions:
  status: ('A' for Active; 'I' for Inactive)
    1  A    between atoms: C_2  and  C_17
    2  A    between atoms: C_7  and  C_30
    3  A    between atoms: C_7  and  N_33
    4  A    between atoms: N_10  and  N_27
    5  A    between atoms: C_12  and  C_25
    6  A    between atoms: C_17  and  C_28
    7  A    between atoms: C_19  and  C_35
    8  A    between atoms: C_19  and  C_38
    9  A    between atoms: C_23  and  C_32
   10  A    between atoms: C_23  and  C_36
   11  A    between atoms: C_26  and  C_38
   12  A    between atoms: N_27  and  C_45
   13  A    between atoms: C_28  and  C_30
   14  A    between atoms: N_33  and  C_44
                            x       y       z     vdW  Elec       q    Type
                         _______ _______ _______ _____ _____    ______ ____

>  <TORSDO>
F 14

$$$$
=
 OpenBabel11072412013D

 45 49  0  0  1  0  0  0  0  0999 V2000
  160.3290  209.6530  152.0820 C   0  0  0  0  0  2  0  0  0  0  0  0
  158.7820  210.4350  153.6720 O   0  0  0  0  0  0  0  0  0  0  0  0
  159.7650  210.6950  152.9960 C   0  0  0  0  0  0  0  0  0  0  0  0
  160.3280  212.0870  153.0280 C   0  0  0  0  0  2  0  0  0  0  0  0
  159.6470  213.4330  151.1470 N   0  0  0  0  0  0  0  0  0  0  0  0
  159.4160  213.0820  152.3840 C   0  0  0  0  0  0  0  0  0  0  0  0
  158.2660  213.5660  153.1720 C   0  0  0  0  0  0  0  0  0  0  0  0
  156.8620  214.1820  154.9710 C   0  0  0  0  0  3  0  0  0  0  0  0
  157.0550  213.7540  152.6850 C   0  0  0  0  0  3  0  0  0  0  0  0
  158.2880  213.7510  154.6470 C   0  0  0  0  0  2  0  0  0  0  0  0
  156.1510  214.1380  153.7010 N   0  0  0  0  0  0  0  0  0  0  0  0
  158.9870  214.4530  150.4350 N   0  0  0  0  0  2  0  0  0  0  0  0
  158.6430  214.1890  146.6150 C   0  0  0  0  0  2  0  0  0  0  0  0
  157.5380  212.9950  149.0890 C   0  0  0  0  0  2  0  0  0  0  0  0
  159.3750  214.3520  147.9570 C   0  0  1  0  0  3  0  0  0  0  0  0
  157.7700  212.9330  146.5920 C   0  0  0  0  0  2  0  0  0  0  0  0
  156.7820  212.9330  147.7630 C   0  0  0  0  0  2  0  0  0  0  0  0
  158.3670  214.2700  149.1270 C   0  0  2  0  0  3  0  0  0  0  0  0
  162.3620  212.7570  146.6620 N   0  0  0  0  0  2  0  0  0  0  0  0
  161.8630  214.1620  148.5250 C   0  0  0  0  0  2  0  0  0  0  0  0
  160.6320  213.4590  148.0420 C   0  0  2  0  0  3  0  0  0  0  0  0
  162.9510  213.4060  147.8300 C   0  0  0  0  0  2  0  0  0  0  0  0
  160.9560  212.8780  146.7510 N   0  0  0  0  0  2  0  0  0  0  0  0
  160.9520  210.3030  150.9370 N   0  0  0  0  0  2  0  0  0  0  0  0
  162.3850  207.6750  149.0510 C   0  0  2  0  0  3  0  0  0  0  0  0
  163.4970  206.1740  150.6160 C   0  0  0  0  0  1  0  0  0  0  0  0
  162.1070  209.1620  149.1490 C   0  0  0  0  0  2  0  0  0  0  0  0
  161.1540  206.8860  149.4870 C   0  0  2  0  0  3  0  0  0  0  0  0
  162.2030  208.2760  151.4170 C   0  0  0  0  0  2  0  0  0  0  0  0
  162.3280  207.1220  150.4470 C   0  0  2  0  0  0  0  0  0  0  0  0
  162.1530  209.5610  150.6100 C   0  0  2  0  0  3  0  0  0  0  0  0
  161.0780  205.4890  148.8910 C   0  0  2  0  0  3  0  0  0  0  0  0
  160.8350  204.3870  149.6610 C   0  0  1  0  0  3  0  0  0  0  0  0
  161.2510  201.3970  147.2080 C   0  0  0  0  0  1  0  0  0  0  0  0
  160.1480  202.1100  149.7110 O   0  0  0  0  0  0  0  0  0  0  0  0
  161.3170  202.7250  147.7960 N   0  0  0  0  0  2  0  0  0  0  0  0
  160.7520  203.0180  149.0780 C   0  0  0  0  0  0  0  0  0  0  0  0
  159.7110  205.0130  151.6760 O   0  0  0  0  0  0  0  0  0  0  0  0
  161.7520  204.0140  151.9460 O   0  0  0  0  0  1  0  0  0  0  0  0
  160.7150  204.4740  151.1390 C   0  0  0  0  0  0  0  0  0  0  0  0
  162.9020  205.8930  147.3850 O   0  0  0  0  0  1  0  0  0  0  0  0
  161.6410  205.3040  147.4950 C   0  0  2  0  0  3  0  0  0  0  0  0
  159.8160  206.7660  146.6040 O   0  0  0  0  0  1  0  0  0  0  0  0
  160.7290  205.7410  146.3850 C   0  0  0  0  0  0  0  0  0  0  0  0
  160.7410  205.1460  145.2680 O   0  0  0  0  0  0  0  0  0  0  0  0
  1  3  1  0  0  0  0
  3  4  1  0  0  0  0
  3  2  2  0  0  0  0
  5  6  2  0  0  0  0
  6  4  1  0  0  0  0
  6  7  1  0  0  0  0
  7 10  1  0  0  0  0
  9  7  2  0  0  0  0
  9 11  1  0  0  0  0
 10  8  1  0  0  0  0
 11  8  2  0  0  0  0
 12  5  1  0  0  0  0
 14 18  1  0  0  0  0
 15 13  1  6  0  0  0
 15 21  1  0  0  0  0
 15 18  1  0  0  0  0
 16 13  1  0  0  0  0
 16 17  1  0  0  0  0
 17 14  1  0  0  0  0
 18 12  1  1  0  0  0
 19 23  1  0  0  0  0
 19 22  1  0  0  0  0
 21 20  1  6  0  0  0
 22 20  1  0  0  0  0
 23 21  1  0  0  0  0
 24  1  1  0  0  0  0
 25 27  1  1  0  0  0
 25 28  1  0  0  0  0
 25 30  1  0  0  0  0
 27 31  1  0  0  0  0
 28 32  1  6  0  0  0
 28 30  1  0  0  0  0
 30 26  1  1  0  0  0
 30 29  1  0  0  0  0
 31 24  1  1  0  0  0
 31 29  1  0  0  0  0
 32 42  1  1  0  0  0
 32 33  1  0  0  0  0
 33 37  1  1  0  0  0
 33 40  1  0  0  0  0
 34 36  1  0  0  0  0
 36 37  1  0  0  0  0
 37 35  2  0  0  0  0
 40 38  2  0  0  0  0
 40 39  1  0  0  0  0
 42 41  1  1  0  0  0
 44 43  1  0  0  0  0
 44 42  1  0  0  0  0
 45 44  2  0  0  0  0
M  END
>  <MODEL>
9

>  <REMARK>
 VINA RESULT:      -4.8      1.653      2.314
  Name = 
  14 active torsions:
  status: ('A' for Active; 'I' for Inactive)
    1  A    between atoms: C_2  and  C_17
    2  A    between atoms: C_7  and  C_30
    3  A    between atoms: C_7  and  N_33
    4  A    between atoms: N_10  and  N_27
    5  A    between atoms: C_12  and  C_25
    6  A    between atoms: C_17  and  C_28
    7  A    between atoms: C_19  and  C_35
    8  A    between atoms: C_19  and  C_38
    9  A    between atoms: C_23  and  C_32
   10  A    between atoms: C_23  and  C_36
   11  A    between atoms: C_26  and  C_38
   12  A    between atoms: N_27  and  C_45
   13  A    between atoms: C_28  and  C_30
   14  A    between atoms: N_33  and  C_44
                            x       y       z     vdW  Elec       q    Type
                         _______ _______ _______ _____ _____    ______ ____

>  <TORSDO>
F 14

$$$$
