=
 OpenBabel11072409583D

 54 59  0  0  1  0  0  0  0  0999 V2000
  160.9270  207.8840  154.1830 C   0  0  0  0  0  2  0  0  0  0  0  0
  161.9870  210.7220  149.9050 O   0  0  0  0  0  0  0  0  0  0  0  0
  161.4390  210.0020  153.4660 C   0  0  1  0  0  3  0  0  0  0  0  0
  161.4890  207.1750  151.8950 C   0  0  0  0  0  0  0  0  0  0  0  0
  158.0030  213.4340  150.1930 C   0  0  0  0  0  2  0  0  0  0  0  0
  160.5540  212.0590  151.2320 C   0  0  0  0  0  0  0  0  0  0  0  0
  160.7300  210.7710  155.6160 O   0  0  0  0  0  1  0  0  0  0  0  0
  157.5990  213.1560  151.6470 C   0  0  1  0  0  3  0  0  0  0  0  0
  161.0620  209.6980  151.9930 C   0  0  2  0  0  3  0  0  0  0  0  0
  156.1050  212.9060  151.7010 C   0  0  0  0  0  1  0  0  0  0  0  0
  161.1060  204.8090  151.0560 C   0  0  0  0  0  0  0  0  0  0  0  0
  161.9320  208.5440  151.4650 C   0  0  0  0  0  2  0  0  0  0  0  0
  160.3540  210.7460  154.2730 C   0  0  0  0  0  0  0  0  0  0  0  0
  161.1270  206.9030  153.1170 N   0  0  0  0  0  0  0  0  0  0  0  0
  161.7080  206.1070  150.9710 N   0  0  0  0  0  2  0  0  0  0  0  0
  162.3220  211.7930  149.0120 C   0  0  1  0  0  3  0  0  0  0  0  0
  161.2110  210.8910  151.0650 C   0  0  0  0  0  0  0  0  0  0  0  0
  158.3000  211.9920  152.2020 N   0  0  0  0  0  2  0  0  0  0  0  0
  160.0680  204.6330  151.7460 O   0  0  0  0  0  0  0  0  0  0  0  0
  161.2790  212.8760  149.0320 C   0  0  0  0  0  0  0  0  0  0  0  0
  159.1190  210.1040  154.1680 O   0  0  0  0  0  1  0  0  0  0  0  0
  159.3940  214.0670  150.1010 C   0  0  0  0  0  2  0  0  0  0  0  0
  159.6880  212.3850  152.4090 C   0  0  1  0  0  3  0  0  0  0  0  0
  160.2320  212.1860  153.8170 C   0  0  0  0  0  2  0  0  0  0  0  0
  161.9390  208.8670  154.1580 O   0  0  0  0  0  0  0  0  0  0  0  0
  160.4720  213.0130  150.0960 C   0  0  0  0  0  0  0  0  0  0  0  0
  165.1400  211.9190  147.1930 C   0  0  0  0  0  2  0  0  0  0  0  0
  163.7850  213.6290  148.8430 O   0  0  0  0  0  0  0  0  0  0  0  0
  163.6970  212.3560  149.3310 C   0  0  2  0  0  3  0  0  0  0  0  0
  164.4310  212.4540  148.1710 C   0  0  0  0  0  0  0  0  0  0  0  0
  161.6840  203.7210  150.3990 O   0  0  0  0  0  0  0  0  0  0  0  0
  160.9870  202.9730  149.4190 C   0  0  1  0  0  3  0  0  0  0  0  0
  161.7070  203.3060  147.7690 S   0  0  0  0  0  1  0  0  0  0  0  0
  161.8170  200.6950  148.7650 C   0  0  0  0  0  1  0  0  0  0  0  0
  161.5500  201.2430  151.1630 C   0  0  0  0  0  1  0  0  0  0  0  0
  159.6260  200.9770  149.7280 N   0  0  0  0  0  1  0  0  0  0  0  0
  160.9890  201.4790  149.7730 C   0  0  0  0  0  0  0  0  0  0  0  0
  161.2040  213.8250  147.8710 C   0  0  0  0  0  2  0  0  0  0  0  0
  162.7620  214.1420  144.3820 C   0  0  0  0  0  2  0  0  0  0  0  0
  157.8280  212.1400  142.4220 O   0  0  0  0  0  0  0  0  0  0  0  0
  161.4330  211.9590  146.1500 C   0  0  2  0  0  3  0  0  0  0  0  0
  161.9290  210.8330  147.0510 C   0  0  0  0  0  1  0  0  0  0  0  0
  161.2240  214.2600  142.6090 C   0  0  0  0  0  2  0  0  0  0  0  0
  161.8220  214.3790  145.5530 C   0  0  0  0  0  2  0  0  0  0  0  0
  159.6510  210.9270  145.1790 C   0  0  0  0  0  2  0  0  0  0  0  0
  160.1300  213.4750  141.8980 C   0  0  1  0  0  3  0  0  0  0  0  0
  161.9510  213.3200  146.6410 C   0  0  1  0  0  3  0  0  0  0  0  0
  159.0780  212.6350  143.0860 S   0  0  0  0  0  0  0  0  0  0  0  0
  158.7070  213.5870  144.1870 O   0  0  0  0  0  0  0  0  0  0  0  0
  159.9860  211.2400  143.7240 C   0  0  0  0  0  2  0  0  0  0  0  0
  160.0290  211.9630  146.0490 O   0  0  0  0  0  0  0  0  0  0  0  0
  162.1040  213.3650  143.3430 N   0  0  0  0  0  2  0  0  0  0  0  0
  158.7190  213.7380  139.8560 C   0  0  0  0  0  1  0  0  0  0  0  0
  159.3240  214.4430  141.0490 C   0  0  0  0  0  2  0  0  0  0  0  0
  2 17  1  0  0  0  0
  3 25  1  1  0  0  0
  3 13  1  0  0  0  0
  4 14  2  0  0  0  0
  5  8  1  0  0  0  0
  6 23  1  0  0  0  0
  8 10  1  6  0  0  0
  8 18  1  0  0  0  0
  9 12  1  6  0  0  0
  9  3  1  0  0  0  0
 11 19  2  0  0  0  0
 12  4  1  0  0  0  0
 13  7  1  0  0  0  0
 14  1  1  0  0  0  0
 15 11  1  0  0  0  0
 15  4  1  0  0  0  0
 16 20  1  1  0  0  0
 16 29  1  0  0  0  0
 16  2  1  0  0  0  0
 17  6  2  0  0  0  0
 17  9  1  0  0  0  0
 18 23  1  0  0  0  0
 20 26  2  0  0  0  0
 21 13  1  0  0  0  0
 22  5  1  0  0  0  0
 23 24  1  1  0  0  0
 24 13  1  0  0  0  0
 25  1  1  0  0  0  0
 26 22  1  0  0  0  0
 26  6  1  0  0  0  0
 27 30  2  0  0  0  0
 28 29  1  0  0  0  0
 29 30  1  6  0  0  0
 30 28  1  0  0  0  0
 31 11  1  0  0  0  0
 32 33  1  6  0  0  0
 32 37  1  0  0  0  0
 32 31  1  0  0  0  0
 34 37  1  0  0  0  0
 36 37  1  0  0  0  0
 37 35  1  0  0  0  0
 38 20  1  0  0  0  0
 39 44  1  0  0  0  0
 40 48  2  0  0  0  0
 41 47  1  0  0  0  0
 41 42  1  1  0  0  0
 43 52  1  0  0  0  0
 44 47  1  0  0  0  0
 45 51  1  0  0  0  0
 46 54  1  1  0  0  0
 46 43  1  0  0  0  0
 46 48  1  0  0  0  0
 47 38  1  1  0  0  0
 48 50  1  0  0  0  0
 48 49  2  0  0  0  0
 50 45  1  0  0  0  0
 51 41  1  0  0  0  0
 52 39  1  0  0  0  0
 53 54  1  0  0  0  0
M  END
>  <MODEL>
1

>  <REMARK>
 VINA RESULT:       8.5      0.000      0.000
  Name = 
  7 active torsions:
  status: ('A' for Active; 'I' for Inactive)
    1  A    between atoms: C_15  and  O_24
    2  A    between atoms: C_15  and  C_53
    3  A    between atoms: C_20  and  O_24
    4  A    between atoms: C_22  and  C_38
    5  A    between atoms: C_29  and  C_31
    6  A    between atoms: C_34  and  C_46
    7  A    between atoms: C_42  and  C_46
                            x       y       z     vdW  Elec       q    Type
                         _______ _______ _______ _____ _____    ______ ____

>  <TORSDO>
F 7

$$$$
=
 OpenBabel11072409583D

 54 59  0  0  1  0  0  0  0  0999 V2000
  159.1790  214.4530  150.5970 C   0  0  0  0  0  2  0  0  0  0  0  0
  160.7660  209.8870  152.6230 O   0  0  0  0  0  0  0  0  0  0  0  0
  161.0020  213.0780  150.8180 C   0  0  1  0  0  3  0  0  0  0  0  0
  158.0940  212.9690  152.2310 C   0  0  0  0  0  0  0  0  0  0  0  0
  161.6330  207.8020  148.3560 C   0  0  0  0  0  2  0  0  0  0  0  0
  161.7620  210.0260  150.4810 C   0  0  0  0  0  0  0  0  0  0  0  0
  162.0400  214.3760  149.0990 O   0  0  0  0  0  1  0  0  0  0  0  0
  161.6720  209.0460  147.4580 C   0  0  1  0  0  3  0  0  0  0  0  0
  160.1440  211.8410  151.1900 C   0  0  2  0  0  3  0  0  0  0  0  0
  160.8800  208.7640  146.1960 C   0  0  0  0  0  1  0  0  0  0  0  0
  155.6370  213.1600  152.8420 C   0  0  0  0  0  0  0  0  0  0  0  0
  159.3270  212.1410  152.4580 C   0  0  0  0  0  2  0  0  0  0  0  0
  161.4630  213.1310  149.3460 C   0  0  0  0  0  0  0  0  0  0  0  0
  158.0850  214.0240  151.4670 N   0  0  0  0  0  0  0  0  0  0  0  0
  156.9750  212.7030  153.0790 N   0  0  0  0  0  2  0  0  0  0  0  0
  161.5580  208.7610  153.0270 C   0  0  1  0  0  3  0  0  0  0  0  0
  160.9570  210.5780  151.4150 C   0  0  0  0  0  0  0  0  0  0  0  0
  161.1070  210.2260  148.1230 N   0  0  0  0  0  2  0  0  0  0  0  0
  155.2830  213.5210  151.6890 O   0  0  0  0  0  0  0  0  0  0  0  0
  162.0910  208.0070  151.8400 C   0  0  0  0  0  0  0  0  0  0  0  0
  160.3860  212.9570  148.4760 O   0  0  0  0  0  1  0  0  0  0  0  0
  162.7030  207.8560  149.4490 C   0  0  0  0  0  2  0  0  0  0  0  0
  162.0580  210.6380  149.1470 C   0  0  1  0  0  3  0  0  0  0  0  0
  162.5260  212.0850  149.0750 C   0  0  0  0  0  2  0  0  0  0  0  0
  160.4240  214.3040  151.2440 O   0  0  0  0  0  0  0  0  0  0  0  0
  162.2130  208.6210  150.6520 C   0  0  0  0  0  0  0  0  0  0  0  0
  161.7410  211.2270  155.2970 C   0  0  0  0  0  2  0  0  0  0  0  0
  162.5150  208.6060  155.1710 O   0  0  0  0  0  0  0  0  0  0  0  0
  162.6860  209.1920  153.9500 C   0  0  2  0  0  3  0  0  0  0  0  0
  162.1900  210.0450  154.9090 C   0  0  0  0  0  0  0  0  0  0  0  0
  154.7230  213.2350  153.8940 O   0  0  0  0  0  0  0  0  0  0  0  0
  155.1040  213.6290  155.2000 C   0  0  1  0  0  3  0  0  0  0  0  0
  153.6910  214.4470  156.0290 S   0  0  0  0  0  1  0  0  0  0  0  0
  155.4240  211.1380  155.2200 C   0  0  0  0  0  1  0  0  0  0  0  0
  157.1200  212.5840  156.2950 C   0  0  0  0  0  1  0  0  0  0  0  0
  154.9170  212.3300  157.2530 N   0  0  0  0  0  1  0  0  0  0  0  0
  155.6400  212.4290  155.9950 C   0  0  0  0  0  0  0  0  0  0  0  0
  162.5330  206.5850  152.0300 C   0  0  0  0  0  2  0  0  0  0  0  0
  160.9210  203.1300  152.4360 C   0  0  0  0  0  2  0  0  0  0  0  0
  161.3220  202.7080  146.7930 O   0  0  0  0  0  0  0  0  0  0  0  0
  160.4100  205.7710  150.8810 C   0  0  2  0  0  3  0  0  0  0  0  0
  159.5240  206.9970  151.0730 C   0  0  0  0  0  1  0  0  0  0  0  0
  161.2890  201.6420  150.6550 C   0  0  0  0  0  2  0  0  0  0  0  0
  161.9550  204.1930  152.1000 C   0  0  0  0  0  2  0  0  0  0  0  0
  160.2300  205.5080  148.6260 C   0  0  0  0  0  2  0  0  0  0  0  0
  161.0220  201.4380  149.1700 C   0  0  1  0  0  3  0  0  0  0  0  0
  161.3700  205.5990  152.0680 C   0  0  1  0  0  3  0  0  0  0  0  0
  161.2620  202.9710  148.2680 S   0  0  0  0  0  0  0  0  0  0  0  0
  162.5450  203.6160  148.7060 O   0  0  0  0  0  0  0  0  0  0  0  0
  159.8650  204.0260  148.6100 C   0  0  0  0  0  2  0  0  0  0  0  0
  161.1180  205.8290  149.6660 O   0  0  0  0  0  0  0  0  0  0  0  0
  160.3350  202.5810  151.2240 N   0  0  0  0  0  2  0  0  0  0  0  0
  161.6330  199.9880  147.2320 C   0  0  0  0  0  1  0  0  0  0  0  0
  161.9610  200.3580  148.6620 C   0  0  0  0  0  2  0  0  0  0  0  0
  1 25  1  0  0  0  0
  1 14  1  0  0  0  0
  2 16  1  0  0  0  0
  3  9  1  0  0  0  0
  3 25  1  6  0  0  0
  4 12  1  0  0  0  0
  4 15  1  0  0  0  0
  5 22  1  0  0  0  0
  6 26  1  0  0  0  0
  6 17  2  0  0  0  0
  7 13  1  0  0  0  0
  8 10  1  6  0  0  0
  8 18  1  0  0  0  0
  8  5  1  0  0  0  0
  9 17  1  0  0  0  0
  9 12  1  1  0  0  0
 11 15  1  0  0  0  0
 11 31  1  0  0  0  0
 13  3  1  0  0  0  0
 14  4  2  0  0  0  0
 16 20  1  6  0  0  0
 16 29  1  0  0  0  0
 17  2  1  0  0  0  0
 18 23  1  0  0  0  0
 19 11  2  0  0  0  0
 20 38  1  0  0  0  0
 21 13  1  0  0  0  0
 22 26  1  0  0  0  0
 23 24  1  1  0  0  0
 23  6  1  0  0  0  0
 24 13  1  0  0  0  0
 26 20  2  0  0  0  0
 29 30  1  1  0  0  0
 29 28  1  0  0  0  0
 30 28  1  0  0  0  0
 30 27  2  0  0  0  0
 31 32  1  0  0  0  0
 32 37  1  0  0  0  0
 32 33  1  1  0  0  0
 34 37  1  0  0  0  0
 37 35  1  0  0  0  0
 37 36  1  0  0  0  0
 40 48  2  0  0  0  0
 41 42  1  1  0  0  0
 41 47  1  0  0  0  0
 43 52  1  0  0  0  0
 44 39  1  0  0  0  0
 45 51  1  0  0  0  0
 46 54  1  6  0  0  0
 46 43  1  0  0  0  0
 47 38  1  6  0  0  0
 47 44  1  0  0  0  0
 48 50  1  0  0  0  0
 48 49  2  0  0  0  0
 48 46  1  0  0  0  0
 50 45  1  0  0  0  0
 51 41  1  0  0  0  0
 52 39  1  0  0  0  0
 53 54  1  0  0  0  0
M  END
>  <MODEL>
2

>  <REMARK>
 VINA RESULT:      10.6      3.491      9.521
  Name = 
  7 active torsions:
  status: ('A' for Active; 'I' for Inactive)
    1  A    between atoms: C_15  and  O_24
    2  A    between atoms: C_15  and  C_53
    3  A    between atoms: C_20  and  O_24
    4  A    between atoms: C_22  and  C_38
    5  A    between atoms: C_29  and  C_31
    6  A    between atoms: C_34  and  C_46
    7  A    between atoms: C_42  and  C_46
                            x       y       z     vdW  Elec       q    Type
                         _______ _______ _______ _____ _____    ______ ____

>  <TORSDO>
F 7

$$$$
=
 OpenBabel11072409583D

 54 59  0  0  1  0  0  0  0  0999 V2000
  160.8700  208.4480  152.7270 C   0  0  0  0  0  2  0  0  0  0  0  0
  162.0300  211.0670  148.3370 O   0  0  0  0  0  0  0  0  0  0  0  0
  161.3930  210.5290  151.9150 C   0  0  1  0  0  3  0  0  0  0  0  0
  161.4920  207.6250  150.4940 C   0  0  0  0  0  0  0  0  0  0  0  0
  158.0310  213.7740  148.3830 C   0  0  0  0  0  2  0  0  0  0  0  0
  160.5590  212.4650  149.5560 C   0  0  0  0  0  0  0  0  0  0  0  0
  160.6260  211.4050  154.0030 O   0  0  0  0  0  1  0  0  0  0  0  0
  157.5920  213.5690  149.8390 C   0  0  1  0  0  3  0  0  0  0  0  0
  161.0550  210.1480  150.4500 C   0  0  2  0  0  3  0  0  0  0  0  0
  156.0970  213.3150  149.8680 C   0  0  0  0  0  1  0  0  0  0  0  0
  161.1380  205.2170  149.7690 C   0  0  0  0  0  0  0  0  0  0  0  0
  161.9410  208.9720  150.0050 C   0  0  0  0  0  2  0  0  0  0  0  0
  160.2850  211.3090  152.6550 C   0  0  0  0  0  0  0  0  0  0  0  0
  161.1000  207.4140  151.7180 N   0  0  0  0  0  0  0  0  0  0  0  0
  161.7380  206.5120  149.6320 N   0  0  0  0  0  2  0  0  0  0  0  0
  162.3850  212.0920  147.3990 C   0  0  1  0  0  3  0  0  0  0  0  0
  161.2240  211.2920  149.4660 C   0  0  0  0  0  0  0  0  0  0  0  0
  158.2810  212.4380  150.4710 N   0  0  0  0  0  2  0  0  0  0  0  0
  160.0830  205.0730  150.4400 O   0  0  0  0  0  0  0  0  0  0  0  0
  161.3380  213.1710  147.3360 C   0  0  0  0  0  0  0  0  0  0  0  0
  159.0560  210.6560  152.5510 O   0  0  0  0  0  1  0  0  0  0  0  0
  159.4220  214.4070  148.2940 C   0  0  0  0  0  2  0  0  0  0  0  0
  159.6620  212.8470  150.6930 C   0  0  1  0  0  3  0  0  0  0  0  0
  160.1710  212.7230  152.1220 C   0  0  0  0  0  2  0  0  0  0  0  0
  161.8780  209.4330  152.6770 O   0  0  0  0  0  0  0  0  0  0  0  0
  160.5030  213.3590  148.3710 C   0  0  0  0  0  0  0  0  0  0  0  0
  164.3750  211.7150  150.0750 C   0  0  0  0  0  2  0  0  0  0  0  0
  164.7170  211.7830  147.3620 O   0  0  0  0  0  0  0  0  0  0  0  0
  163.7490  212.6770  147.7230 C   0  0  2  0  0  3  0  0  0  0  0  0
  164.2970  211.9950  148.7850 C   0  0  0  0  0  0  0  0  0  0  0  0
  161.7350  204.1000  149.1830 O   0  0  0  0  0  0  0  0  0  0  0  0
  161.5290  203.7580  147.8240 C   0  0  1  0  0  3  0  0  0  0  0  0
  159.8190  203.1430  147.6010 S   0  0  0  0  0  1  0  0  0  0  0  0
  163.2230  205.5180  147.2400 C   0  0  0  0  0  1  0  0  0  0  0  0
  161.8260  204.5410  145.4470 C   0  0  0  0  0  1  0  0  0  0  0  0
  160.8630  205.9920  147.1200 N   0  0  0  0  0  1  0  0  0  0  0  0
  161.8510  204.9480  146.9090 C   0  0  0  0  0  0  0  0  0  0  0  0
  161.2900  214.0580  146.1260 C   0  0  0  0  0  2  0  0  0  0  0  0
  162.7740  214.0900  142.5910 C   0  0  0  0  0  2  0  0  0  0  0  0
  157.6770  212.3040  140.8550 O   0  0  0  0  0  0  0  0  0  0  0  0
  161.3580  212.0930  144.5050 C   0  0  2  0  0  3  0  0  0  0  0  0
  161.8060  210.9870  145.4550 C   0  0  0  0  0  1  0  0  0  0  0  0
  161.2010  214.2110  140.8500 C   0  0  0  0  0  2  0  0  0  0  0  0
  161.8810  214.4480  143.7690 C   0  0  0  0  0  2  0  0  0  0  0  0
  159.4900  211.1260  143.6320 C   0  0  0  0  0  2  0  0  0  0  0  0
  160.0420  213.4600  140.2070 C   0  0  1  0  0  3  0  0  0  0  0  0
  161.9720  213.4420  144.9090 C   0  0  1  0  0  3  0  0  0  0  0  0
  158.9720  212.7540  141.4620 S   0  0  0  0  0  0  0  0  0  0  0  0
  158.6890  213.7840  142.5180 O   0  0  0  0  0  0  0  0  0  0  0  0
  159.8070  211.3390  142.1550 C   0  0  0  0  0  2  0  0  0  0  0  0
  159.9550  212.1810  144.4360 O   0  0  0  0  0  0  0  0  0  0  0  0
  162.0420  213.3020  141.6110 N   0  0  0  0  0  2  0  0  0  0  0  0
  158.6850  213.7210  138.1280 C   0  0  0  0  0  1  0  0  0  0  0  0
  159.2770  214.4310  139.3250 C   0  0  0  0  0  2  0  0  0  0  0  0
  2 17  1  0  0  0  0
  3 13  1  0  0  0  0
  3 25  1  1  0  0  0
  4 14  2  0  0  0  0
  5  8  1  0  0  0  0
  6 23  1  0  0  0  0
  8 10  1  6  0  0  0
  8 18  1  0  0  0  0
  9 12  1  6  0  0  0
  9  3  1  0  0  0  0
 11 19  2  0  0  0  0
 12  4  1  0  0  0  0
 13  7  1  0  0  0  0
 14  1  1  0  0  0  0
 15 11  1  0  0  0  0
 15  4  1  0  0  0  0
 16 20  1  1  0  0  0
 16 29  1  0  0  0  0
 16  2  1  0  0  0  0
 17  6  2  0  0  0  0
 17  9  1  0  0  0  0
 18 23  1  0  0  0  0
 20 26  2  0  0  0  0
 21 13  1  0  0  0  0
 22 26  1  0  0  0  0
 22  5  1  0  0  0  0
 23 24  1  1  0  0  0
 24 13  1  0  0  0  0
 25  1  1  0  0  0  0
 26  6  1  0  0  0  0
 28 30  1  0  0  0  0
 29 28  1  6  0  0  0
 29 30  1  0  0  0  0
 30 27  2  0  0  0  0
 31 11  1  0  0  0  0
 32 33  1  1  0  0  0
 32 31  1  0  0  0  0
 35 37  1  0  0  0  0
 37 36  1  0  0  0  0
 37 34  1  0  0  0  0
 37 32  1  0  0  0  0
 38 20  1  0  0  0  0
 39 44  1  0  0  0  0
 40 48  2  0  0  0  0
 41 47  1  0  0  0  0
 41 42  1  1  0  0  0
 43 52  1  0  0  0  0
 44 47  1  0  0  0  0
 45 51  1  0  0  0  0
 46 54  1  1  0  0  0
 46 43  1  0  0  0  0
 46 48  1  0  0  0  0
 47 38  1  1  0  0  0
 48 50  1  0  0  0  0
 48 49  2  0  0  0  0
 50 45  1  0  0  0  0
 51 41  1  0  0  0  0
 52 39  1  0  0  0  0
 53 54  1  0  0  0  0
M  END
>  <MODEL>
3

>  <REMARK>
 VINA RESULT:      10.8      1.793      2.249
  Name = 
  7 active torsions:
  status: ('A' for Active; 'I' for Inactive)
    1  A    between atoms: C_15  and  O_24
    2  A    between atoms: C_15  and  C_53
    3  A    between atoms: C_20  and  O_24
    4  A    between atoms: C_22  and  C_38
    5  A    between atoms: C_29  and  C_31
    6  A    between atoms: C_34  and  C_46
    7  A    between atoms: C_42  and  C_46
                            x       y       z     vdW  Elec       q    Type
                         _______ _______ _______ _____ _____    ______ ____

>  <TORSDO>
F 7

$$$$
