=
 OpenBabel11072412383D

 31 35  0  0  1  0  0  0  0  0999 V2000
  161.1240  210.2330  151.6150 C   0  0  2  0  0  3  0  0  0  0  0  0
  161.6000  210.0140  152.9860 N   0  0  2  0  0  0  0  0  0  0  0  0
  161.2540  208.3570  154.5140 C   0  0  1  0  0  3  0  0  0  0  0  0
  161.0720  207.9550  152.0690 C   0  0  0  0  0  0  0  0  0  0  0  0
  161.1450  205.6570  152.9820 C   0  0  0  0  0  3  0  0  0  0  0  0
  160.8660  208.9230  151.0920 O   0  0  0  0  0  0  0  0  0  0  0  0
  160.4540  207.1410  154.8920 C   0  0  1  0  0  3  0  0  0  0  0  0
  161.5160  208.6450  153.2540 C   0  0  1  0  0  3  0  0  0  0  0  0
  162.2110  210.9010  150.7970 C   0  0  0  0  0  1  0  0  0  0  0  0
  160.8890  206.6380  151.9060 C   0  0  0  0  0  0  0  0  0  0  0  0
  161.2280  210.7340  154.1980 C   0  0  2  0  0  3  0  0  0  0  0  0
  161.0000  205.8760  154.2940 C   0  0  0  0  0  3  0  0  0  0  0  0
  161.2150  209.6470  155.2980 C   0  0  2  0  0  3  0  0  0  0  0  0
  160.3930  207.0050  156.2790 O   0  0  0  0  0  1  0  0  0  0  0  0
  158.8670  210.7470  154.5370 O   0  0  0  0  0  1  0  0  0  0  0  0
  159.7070  212.5960  153.4750 O   0  0  0  0  0  0  0  0  0  0  0  0
  159.8690  211.3540  154.0800 C   0  0  0  0  0  0  0  0  0  0  0  0
  162.4490  208.8560  157.2080 O   0  0  0  0  0  1  0  0  0  0  0  0
  162.4650  209.7890  156.1700 C   0  0  2  0  0  3  0  0  0  0  0  0
  162.5370  211.1820  156.7700 C   0  0  0  0  0  1  0  0  0  0  0  0
  160.4920  206.1150  150.5650 C   0  0  0  0  0  2  0  0  0  0  0  0
  160.8510  203.8150  150.2580 C   0  0  0  0  0  2  0  0  0  0  0  0
  161.1370  204.1320  147.9250 C   0  0  2  0  0  3  0  0  0  0  0  0
  161.6460  205.3500  148.6750 C   0  0  0  0  0  2  0  0  0  0  0  0
  161.4620  205.1310  150.1070 N   0  0  0  0  0  0  0  0  0  0  0  0
  161.0740  203.0550  148.9760 C   0  0  0  0  0  2  0  0  0  0  0  0
  161.7520  205.6470  144.8550 S   0  0  0  0  0  0  0  0  0  0  0  0
  161.3320  203.0930  145.6390 C   0  0  0  0  0  2  0  0  0  0  0  0
  162.7700  204.9670  146.2030 C   0  0  0  0  0  2  0  0  0  0  0  0
  162.0840  203.7420  146.7850 C   0  0  1  0  0  3  0  0  0  0  0  0
  160.6630  204.1930  144.8430 C   0  0  0  0  0  2  0  0  0  0  0  0
  1  9  1  6  0  0  0
  1  2  1  0  0  0  0
  2  8  1  0  0  0  0
  2 11  1  0  0  0  0
  3  7  1  0  0  0  0
  3 13  1  0  0  0  0
  4  8  1  0  0  0  0
  5 12  2  0  0  0  0
  6  1  1  0  0  0  0
  6  4  1  0  0  0  0
  7 14  1  0  0  0  0
  8  3  1  0  0  0  0
 10  4  2  0  0  0  0
 10  5  1  0  0  0  0
 11 13  1  0  0  0  0
 12  7  1  0  0  0  0
 13 19  1  0  0  0  0
 16 17  2  0  0  0  0
 17 11  1  0  0  0  0
 17 15  1  0  0  0  0
 19 20  1  0  0  0  0
 19 18  1  0  0  0  0
 21 10  1  0  0  0  0
 23 24  1  0  0  0  0
 23 26  1  0  0  0  0
 24 25  1  0  0  0  0
 25 22  1  0  0  0  0
 25 21  1  0  0  0  0
 26 22  1  0  0  0  0
 27 29  1  0  0  0  0
 28 30  1  0  0  0  0
 29 30  1  0  0  0  0
 30 23  1  0  0  0  0
 31 27  1  0  0  0  0
 31 28  1  0  0  0  0
M  END
>  <MODEL>
1

>  <REMARK>
 VINA RESULT:      -7.7      0.000      0.000
  Name = 
  5 active torsions:
  status: ('A' for Active; 'I' for Inactive)
    1  A    between atoms: C_6  and  C_19
    2  A    between atoms: C_16  and  C_30
    3  A    between atoms: N_21  and  C_24
    4  A    between atoms: C_22  and  C_24
    5  A    between atoms: C_25  and  C_26
                            x       y       z     vdW  Elec       q    Type
                         _______ _______ _______ _____ _____    ______ ____

>  <TORSDO>
F 5

$$$$
=
 OpenBabel11072412383D

 31 35  0  0  1  0  0  0  0  0999 V2000
  159.7240  211.1660  152.7670 C   0  0  2  0  0  3  0  0  0  0  0  0
  160.2770  210.8450  154.0880 N   0  0  2  0  0  0  0  0  0  0  0  0
  160.6090  208.8870  155.2100 C   0  0  1  0  0  3  0  0  0  0  0  0
  160.5380  208.9890  152.7290 C   0  0  0  0  0  0  0  0  0  0  0  0
  161.4830  206.7400  153.1420 C   0  0  0  0  0  3  0  0  0  0  0  0
  159.9640  210.0000  151.9660 O   0  0  0  0  0  0  0  0  0  0  0  0
  160.3300  207.4110  155.2750 C   0  0  1  0  0  3  0  0  0  0  0  0
  160.7170  209.5190  154.0570 C   0  0  1  0  0  3  0  0  0  0  0  0
  160.4660  212.3480  152.1760 C   0  0  0  0  0  1  0  0  0  0  0  0
  160.8560  207.7670  152.2820 C   0  0  0  0  0  0  0  0  0  0  0  0
  159.6900  211.0950  155.3990 C   0  0  2  0  0  3  0  0  0  0  0  0
  161.2950  206.6000  154.4600 C   0  0  0  0  0  3  0  0  0  0  0  0
  160.1090  209.8680  156.2430 C   0  0  2  0  0  3  0  0  0  0  0  0
  160.3540  206.9640  156.5960 O   0  0  0  0  0  1  0  0  0  0  0  0
  157.5070  210.1360  155.4720 O   0  0  0  0  0  1  0  0  0  0  0  0
  157.5650  212.3990  155.1160 O   0  0  0  0  0  0  0  0  0  0  0  0
  158.1960  211.1790  155.3300 C   0  0  0  0  0  0  0  0  0  0  0  0
  161.4400  211.6480  157.1670 O   0  0  0  0  0  1  0  0  0  0  0  0
  161.2340  210.2680  157.2010 C   0  0  2  0  0  3  0  0  0  0  0  0
  162.5280  209.5730  156.8190 C   0  0  0  0  0  1  0  0  0  0  0  0
  160.6550  207.4390  150.8390 C   0  0  0  0  0  2  0  0  0  0  0  0
  160.6970  205.1180  150.4940 C   0  0  0  0  0  2  0  0  0  0  0  0
  161.2900  205.4280  148.2190 C   0  0  2  0  0  3  0  0  0  0  0  0
  161.8870  206.5400  149.0610 C   0  0  0  0  0  2  0  0  0  0  0  0
  161.5120  206.3270  150.4570 N   0  0  0  0  0  0  0  0  0  0  0  0
  160.9470  204.3550  149.2180 C   0  0  0  0  0  2  0  0  0  0  0  0
  161.1660  205.4450  144.7420 S   0  0  0  0  0  0  0  0  0  0  0  0
  161.8510  203.5910  146.5890 C   0  0  0  0  0  2  0  0  0  0  0  0
  162.4000  205.8840  146.0070 C   0  0  0  0  0  2  0  0  0  0  0  0
  162.2910  204.9190  147.1760 C   0  0  1  0  0  3  0  0  0  0  0  0
  160.7720  203.8730  145.5650 C   0  0  0  0  0  2  0  0  0  0  0  0
  1  9  1  6  0  0  0
  1  2  1  0  0  0  0
  2 11  1  0  0  0  0
  3  7  1  0  0  0  0
  3 13  1  0  0  0  0
  4  8  1  0  0  0  0
  5 12  2  0  0  0  0
  6  4  1  0  0  0  0
  6  1  1  0  0  0  0
  7 14  1  0  0  0  0
  8  2  1  0  0  0  0
  8  3  1  0  0  0  0
 10  4  2  0  0  0  0
 10  5  1  0  0  0  0
 11 13  1  0  0  0  0
 12  7  1  0  0  0  0
 13 19  1  0  0  0  0
 16 17  2  0  0  0  0
 17 11  1  0  0  0  0
 17 15  1  0  0  0  0
 18 19  1  0  0  0  0
 20 19  1  0  0  0  0
 21 10  1  0  0  0  0
 23 24  1  0  0  0  0
 23 26  1  0  0  0  0
 24 25  1  0  0  0  0
 25 22  1  0  0  0  0
 25 21  1  0  0  0  0
 26 22  1  0  0  0  0
 27 31  1  0  0  0  0
 27 29  1  0  0  0  0
 28 30  1  0  0  0  0
 29 30  1  0  0  0  0
 30 23  1  0  0  0  0
 31 28  1  0  0  0  0
M  END
>  <MODEL>
2

>  <REMARK>
 VINA RESULT:      -7.2      1.393      1.575
  Name = 
  5 active torsions:
  status: ('A' for Active; 'I' for Inactive)
    1  A    between atoms: C_6  and  C_19
    2  A    between atoms: C_16  and  C_30
    3  A    between atoms: N_21  and  C_24
    4  A    between atoms: C_22  and  C_24
    5  A    between atoms: C_25  and  C_26
                            x       y       z     vdW  Elec       q    Type
                         _______ _______ _______ _____ _____    ______ ____

>  <TORSDO>
F 5

$$$$
=
 OpenBabel11072412383D

 31 35  0  0  1  0  0  0  0  0999 V2000
  161.8420  206.4310  147.8270 C   0  0  2  0  0  3  0  0  0  0  0  0
  161.1930  205.2430  147.2600 N   0  0  2  0  0  0  0  0  0  0  0  0
  161.1080  203.0540  147.8980 C   0  0  1  0  0  3  0  0  0  0  0  0
  161.4870  204.8900  149.5290 C   0  0  0  0  0  0  0  0  0  0  0  0
  160.9570  202.9710  150.9990 C   0  0  0  0  0  3  0  0  0  0  0  0
  161.9460  206.1690  149.2330 O   0  0  0  0  0  0  0  0  0  0  0  0
  161.6610  201.9830  148.7960 C   0  0  1  0  0  3  0  0  0  0  0  0
  161.0310  204.3120  148.2900 C   0  0  1  0  0  3  0  0  0  0  0  0
  160.9670  207.6480  147.6010 C   0  0  0  0  0  1  0  0  0  0  0  0
  161.4780  204.3320  150.7470 C   0  0  0  0  0  0  0  0  0  0  0  0
  161.5390  204.5150  146.0450 C   0  0  2  0  0  3  0  0  0  0  0  0
  160.9920  201.9470  150.1390 C   0  0  0  0  0  3  0  0  0  0  0  0
  161.2630  203.0350  146.3960 C   0  0  2  0  0  3  0  0  0  0  0  0
  161.5510  200.7310  148.1920 O   0  0  0  0  0  1  0  0  0  0  0  0
  163.2990  205.4500  144.7340 O   0  0  0  0  0  0  0  0  0  0  0  0
  163.9760  204.0330  146.4030 O   0  0  0  0  0  1  0  0  0  0  0  0
  162.9830  204.6920  145.6870 C   0  0  0  0  0  0  0  0  0  0  0  0
  160.0640  201.2580  145.3020 O   0  0  0  0  0  1  0  0  0  0  0  0
  159.9640  202.5850  145.7220 C   0  0  2  0  0  3  0  0  0  0  0  0
  159.6640  203.4560  144.5160 C   0  0  0  0  0  1  0  0  0  0  0  0
  161.9300  205.1350  151.9230 C   0  0  0  0  0  2  0  0  0  0  0  0
  160.7250  205.5370  153.8970 C   0  0  0  0  0  2  0  0  0  0  0  0
  161.2860  207.8400  153.8160 C   0  0  2  0  0  3  0  0  0  0  0  0
  161.1570  207.2930  152.4060 C   0  0  0  0  0  2  0  0  0  0  0  0
  160.8090  205.8760  152.4800 N   0  0  0  0  0  0  0  0  0  0  0  0
  160.5770  206.8220  154.6700 C   0  0  0  0  0  2  0  0  0  0  0  0
  162.3120  210.6970  155.5140 S   0  0  0  0  0  0  0  0  0  0  0  0
  159.9540  209.3930  155.2850 C   0  0  0  0  0  2  0  0  0  0  0  0
  161.6770  210.3250  153.8490 C   0  0  0  0  0  2  0  0  0  0  0  0
  160.6360  209.2220  153.9410 C   0  0  1  0  0  3  0  0  0  0  0  0
  161.0250  209.6930  156.3120 C   0  0  0  0  0  2  0  0  0  0  0  0
  1  9  1  1  0  0  0
  1  6  1  0  0  0  0
  2  1  1  0  0  0  0
  2  8  1  0  0  0  0
  3  8  1  0  0  0  0
  3  7  1  0  0  0  0
  4 10  2  0  0  0  0
  6  4  1  0  0  0  0
  7 12  1  0  0  0  0
  8  4  1  0  0  0  0
 10  5  1  0  0  0  0
 10 21  1  0  0  0  0
 11 13  1  0  0  0  0
 11  2  1  0  0  0  0
 12  5  2  0  0  0  0
 13  3  1  0  0  0  0
 14  7  1  0  0  0  0
 15 17  2  0  0  0  0
 17 11  1  0  0  0  0
 17 16  1  0  0  0  0
 18 19  1  0  0  0  0
 19 13  1  0  0  0  0
 20 19  1  0  0  0  0
 21 25  1  0  0  0  0
 22 26  1  0  0  0  0
 23 30  1  0  0  0  0
 23 26  1  0  0  0  0
 24 25  1  0  0  0  0
 24 23  1  0  0  0  0
 25 22  1  0  0  0  0
 27 31  1  0  0  0  0
 28 31  1  0  0  0  0
 29 30  1  0  0  0  0
 29 27  1  0  0  0  0
 30 28  1  0  0  0  0
M  END
>  <MODEL>
3

>  <REMARK>
 VINA RESULT:      -6.7      3.941      8.891
  Name = 
  5 active torsions:
  status: ('A' for Active; 'I' for Inactive)
    1  A    between atoms: C_6  and  C_19
    2  A    between atoms: C_16  and  C_30
    3  A    between atoms: N_21  and  C_24
    4  A    between atoms: C_22  and  C_24
    5  A    between atoms: C_25  and  C_26
                            x       y       z     vdW  Elec       q    Type
                         _______ _______ _______ _____ _____    ______ ____

>  <TORSDO>
F 5

$$$$
=
 OpenBabel11072412383D

 31 35  0  0  1  0  0  0  0  0999 V2000
  160.9050  207.7330  155.5290 C   0  0  2  0  0  3  0  0  0  0  0  0
  160.5820  208.9990  154.8610 N   0  0  2  0  0  0  0  0  0  0  0  0
  161.1730  209.8990  152.8490 C   0  0  1  0  0  3  0  0  0  0  0  0
  161.1300  207.4450  153.2350 C   0  0  0  0  0  0  0  0  0  0  0  0
  161.2790  207.5950  150.7690 C   0  0  0  0  0  3  0  0  0  0  0  0
  161.1820  206.8080  154.4690 O   0  0  0  0  0  0  0  0  0  0  0  0
  162.0740  209.8140  151.6490 C   0  0  1  0  0  3  0  0  0  0  0  0
  160.7690  208.8170  153.4870 C   0  0  1  0  0  3  0  0  0  0  0  0
  159.7050  207.2540  156.3210 C   0  0  0  0  0  1  0  0  0  0  0  0
  161.3700  206.8640  152.0520 C   0  0  0  0  0  0  0  0  0  0  0  0
  161.0330  210.3430  155.2030 C   0  0  2  0  0  3  0  0  0  0  0  0
  161.5430  208.8940  150.5870 C   0  0  0  0  0  3  0  0  0  0  0  0
  161.2180  211.0420  153.8350 C   0  0  2  0  0  3  0  0  0  0  0  0
  162.2820  211.0790  151.1000 O   0  0  0  0  0  1  0  0  0  0  0  0
  163.3850  210.7030  155.3650 O   0  0  0  0  0  0  0  0  0  0  0  0
  162.3940  209.8820  157.2600 O   0  0  0  0  0  1  0  0  0  0  0  0
  162.3360  210.3190  155.9420 C   0  0  0  0  0  0  0  0  0  0  0  0
  159.4440  212.3500  154.8050 O   0  0  0  0  0  1  0  0  0  0  0  0
  160.0560  212.0100  153.5970 C   0  0  2  0  0  3  0  0  0  0  0  0
  159.0180  211.3780  152.6860 C   0  0  0  0  0  1  0  0  0  0  0  0
  161.6580  205.4000  152.0000 C   0  0  0  0  0  2  0  0  0  0  0  0
  160.8830  205.0560  149.8110 C   0  0  0  0  0  2  0  0  0  0  0  0
  161.2840  202.7260  149.9930 C   0  0  2  0  0  3  0  0  0  0  0  0
  160.8870  203.2860  151.3480 C   0  0  0  0  0  2  0  0  0  0  0  0
  160.6430  204.7190  151.2110 N   0  0  0  0  0  0  0  0  0  0  0  0
  160.8320  203.7770  149.0150 C   0  0  0  0  0  2  0  0  0  0  0  0
  161.5810  200.5130  147.3260 S   0  0  0  0  0  0  0  0  0  0  0  0
  159.4850  201.5240  148.7040 C   0  0  0  0  0  2  0  0  0  0  0  0
  161.5810  200.3770  149.1420 C   0  0  0  0  0  2  0  0  0  0  0  0
  160.6000  201.3820  149.7230 C   0  0  1  0  0  3  0  0  0  0  0  0
  160.1190  201.5920  147.3310 C   0  0  0  0  0  2  0  0  0  0  0  0
  1  9  1  6  0  0  0
  2 11  1  0  0  0  0
  2  1  1  0  0  0  0
  3  8  1  0  0  0  0
  3 13  1  0  0  0  0
  4  8  1  0  0  0  0
  4  6  1  0  0  0  0
  5 10  1  0  0  0  0
  6  1  1  0  0  0  0
  7  3  1  0  0  0  0
  8  2  1  0  0  0  0
 10  4  2  0  0  0  0
 11 17  1  0  0  0  0
 12  5  2  0  0  0  0
 12  7  1  0  0  0  0
 13 11  1  0  0  0  0
 14  7  1  0  0  0  0
 15 17  2  0  0  0  0
 17 16  1  0  0  0  0
 19 13  1  0  0  0  0
 19 18  1  0  0  0  0
 20 19  1  0  0  0  0
 21 10  1  0  0  0  0
 22 25  1  0  0  0  0
 23 24  1  0  0  0  0
 25 24  1  0  0  0  0
 25 21  1  0  0  0  0
 26 22  1  0  0  0  0
 26 23  1  0  0  0  0
 27 31  1  0  0  0  0
 27 29  1  0  0  0  0
 28 30  1  0  0  0  0
 29 30  1  0  0  0  0
 30 23  1  0  0  0  0
 31 28  1  0  0  0  0
M  END
>  <MODEL>
4

>  <REMARK>
 VINA RESULT:      -6.1      1.961      3.913
  Name = 
  5 active torsions:
  status: ('A' for Active; 'I' for Inactive)
    1  A    between atoms: C_6  and  C_19
    2  A    between atoms: C_16  and  C_30
    3  A    between atoms: N_21  and  C_24
    4  A    between atoms: C_22  and  C_24
    5  A    between atoms: C_25  and  C_26
                            x       y       z     vdW  Elec       q    Type
                         _______ _______ _______ _____ _____    ______ ____

>  <TORSDO>
F 5

$$$$
=
 OpenBabel11072412383D

 31 35  0  0  1  0  0  0  0  0999 V2000
  161.2000  206.3640  146.6860 C   0  0  2  0  0  3  0  0  0  0  0  0
  160.9490  204.9550  147.0090 N   0  0  2  0  0  0  0  0  0  0  0  0
  161.2320  203.7110  148.9000 C   0  0  1  0  0  3  0  0  0  0  0  0
  160.8790  206.1690  148.9790 C   0  0  0  0  0  0  0  0  0  0  0  0
  160.5180  205.5030  151.3350 C   0  0  0  0  0  3  0  0  0  0  0  0
  161.0900  207.0620  147.9340 O   0  0  0  0  0  0  0  0  0  0  0  0
  161.8290  203.6340  150.2780 C   0  0  1  0  0  3  0  0  0  0  0  0
  160.8060  204.8530  148.3960 C   0  0  1  0  0  3  0  0  0  0  0  0
  160.1350  206.8650  145.7300 C   0  0  0  0  0  1  0  0  0  0  0  0
  160.7630  206.5010  150.2710 C   0  0  0  0  0  0  0  0  0  0  0  0
  161.6730  203.7770  146.5430 C   0  0  2  0  0  3  0  0  0  0  0  0
  160.9430  204.2340  151.3310 C   0  0  0  0  0  3  0  0  0  0  0  0
  161.6700  202.8230  147.7600 C   0  0  2  0  0  3  0  0  0  0  0  0
  162.1160  202.3120  150.6160 O   0  0  0  0  0  1  0  0  0  0  0  0
  163.4850  203.8630  144.9940 O   0  0  0  0  0  0  0  0  0  0  0  0
  163.9470  204.6950  147.0790 O   0  0  0  0  0  1  0  0  0  0  0  0
  163.0820  204.1100  146.1600 C   0  0  0  0  0  0  0  0  0  0  0  0
  161.0660  200.5280  148.1610 O   0  0  0  0  0  1  0  0  0  0  0  0
  160.6550  201.7010  147.5260 C   0  0  2  0  0  3  0  0  0  0  0  0
  160.5060  201.4240  146.0410 C   0  0  0  0  0  1  0  0  0  0  0  0
  160.7940  207.9420  150.6620 C   0  0  0  0  0  2  0  0  0  0  0  0
  162.3240  209.4570  151.5980 C   0  0  0  0  0  2  0  0  0  0  0  0
  161.0400  209.5840  153.5880 C   0  0  2  0  0  3  0  0  0  0  0  0
  160.9200  208.1950  152.9880 C   0  0  0  0  0  2  0  0  0  0  0  0
  161.7200  208.1390  151.7670 N   0  0  0  0  0  0  0  0  0  0  0  0
  162.2620  210.1640  152.9270 C   0  0  0  0  0  2  0  0  0  0  0  0
  159.0670  210.8660  156.1500 S   0  0  0  0  0  0  0  0  0  0  0  0
  161.7270  210.8340  155.6640 C   0  0  0  0  0  2  0  0  0  0  0  0
  159.8720  209.2720  155.7950 C   0  0  0  0  0  2  0  0  0  0  0  0
  161.2060  209.5220  155.1100 C   0  0  1  0  0  3  0  0  0  0  0  0
  160.5660  211.8030  155.7280 C   0  0  0  0  0  2  0  0  0  0  0  0
  1  9  1  6  0  0  0
  1  2  1  0  0  0  0
  1  6  1  0  0  0  0
  2  8  1  0  0  0  0
  3  7  1  0  0  0  0
  4 10  2  0  0  0  0
  6  4  1  0  0  0  0
  7 14  1  0  0  0  0
  7 12  1  0  0  0  0
  8  3  1  0  0  0  0
  8  4  1  0  0  0  0
 10 21  1  0  0  0  0
 10  5  1  0  0  0  0
 11  2  1  0  0  0  0
 11 13  1  0  0  0  0
 12  5  2  0  0  0  0
 13  3  1  0  0  0  0
 15 17  2  0  0  0  0
 17 11  1  0  0  0  0
 17 16  1  0  0  0  0
 19 13  1  0  0  0  0
 19 18  1  0  0  0  0
 20 19  1  0  0  0  0
 21 25  1  0  0  0  0
 22 25  1  0  0  0  0
 22 26  1  0  0  0  0
 23 30  1  0  0  0  0
 24 23  1  0  0  0  0
 25 24  1  0  0  0  0
 26 23  1  0  0  0  0
 28 31  1  0  0  0  0
 29 27  1  0  0  0  0
 30 28  1  0  0  0  0
 30 29  1  0  0  0  0
 31 27  1  0  0  0  0
M  END
>  <MODEL>
5

>  <REMARK>
 VINA RESULT:      -5.6      4.030      8.858
  Name = 
  5 active torsions:
  status: ('A' for Active; 'I' for Inactive)
    1  A    between atoms: C_6  and  C_19
    2  A    between atoms: C_16  and  C_30
    3  A    between atoms: N_21  and  C_24
    4  A    between atoms: C_22  and  C_24
    5  A    between atoms: C_25  and  C_26
                            x       y       z     vdW  Elec       q    Type
                         _______ _______ _______ _____ _____    ______ ____

>  <TORSDO>
F 5

$$$$
=
 OpenBabel11072412383D

 31 35  0  0  1  0  0  0  0  0999 V2000
  161.5110  207.6080  153.0900 C   0  0  2  0  0  3  0  0  0  0  0  0
  160.8280  208.8840  152.8470 N   0  0  2  0  0  0  0  0  0  0  0  0
  161.0550  210.5000  151.2530 C   0  0  1  0  0  3  0  0  0  0  0  0
  161.6910  208.1350  150.8340 C   0  0  0  0  0  0  0  0  0  0  0  0
  161.6720  209.0940  148.5530 C   0  0  0  0  0  3  0  0  0  0  0  0
  161.9730  207.1780  151.8020 O   0  0  0  0  0  0  0  0  0  0  0  0
  161.8850  211.0470  150.1250 C   0  0  1  0  0  3  0  0  0  0  0  0
  160.9890  209.2050  151.4960 C   0  0  1  0  0  3  0  0  0  0  0  0
  160.5240  206.5970  153.6390 C   0  0  0  0  0  1  0  0  0  0  0  0
  162.0190  208.0470  149.5390 C   0  0  0  0  0  0  0  0  0  0  0  0
  160.9180  210.1190  153.6180 C   0  0  2  0  0  3  0  0  0  0  0  0
  161.5680  210.4040  148.8050 C   0  0  0  0  0  3  0  0  0  0  0  0
  160.8400  211.2380  152.5530 C   0  0  2  0  0  3  0  0  0  0  0  0
  161.7190  212.4270  150.0170 O   0  0  0  0  0  1  0  0  0  0  0  0
  163.2900  210.3520  153.7230 O   0  0  0  0  0  0  0  0  0  0  0  0
  162.2400  210.1580  155.7510 O   0  0  0  0  0  1  0  0  0  0  0  0
  162.2150  210.2140  154.3620 C   0  0  0  0  0  0  0  0  0  0  0  0
  159.5350  213.2460  152.3110 O   0  0  0  0  0  1  0  0  0  0  0  0
  159.4510  211.8810  152.5890 C   0  0  2  0  0  3  0  0  0  0  0  0
  158.8190  211.6990  153.9570 C   0  0  0  0  0  1  0  0  0  0  0  0
  162.6860  206.8100  149.0350 C   0  0  0  0  0  2  0  0  0  0  0  0
  162.6890  205.4930  147.0920 C   0  0  0  0  0  2  0  0  0  0  0  0
  161.6000  203.7270  148.2400 C   0  0  2  0  0  3  0  0  0  0  0  0
  161.1440  205.0620  148.8010 C   0  0  0  0  0  2  0  0  0  0  0  0
  161.8240  206.1330  148.0780 N   0  0  0  0  0  0  0  0  0  0  0  0
  162.2060  204.0770  146.9080 C   0  0  0  0  0  2  0  0  0  0  0  0
  160.8380  200.7720  149.9110 S   0  0  0  0  0  0  0  0  0  0  0  0
  160.8310  201.5160  147.3100 C   0  0  0  0  0  2  0  0  0  0  0  0
  159.9270  202.2740  149.4330 C   0  0  0  0  0  2  0  0  0  0  0  0
  160.4240  202.7570  148.0810 C   0  0  1  0  0  3  0  0  0  0  0  0
  161.5820  200.6070  148.2610 C   0  0  0  0  0  2  0  0  0  0  0  0
  1  9  1  6  0  0  0
  2  1  1  0  0  0  0
  2 11  1  0  0  0  0
  3  8  1  0  0  0  0
  3 13  1  0  0  0  0
  4  8  1  0  0  0  0
  4  6  1  0  0  0  0
  5 12  2  0  0  0  0
  5 10  1  0  0  0  0
  6  1  1  0  0  0  0
  7  3  1  0  0  0  0
  8  2  1  0  0  0  0
 10  4  2  0  0  0  0
 11 17  1  0  0  0  0
 12  7  1  0  0  0  0
 13 19  1  0  0  0  0
 13 11  1  0  0  0  0
 14  7  1  0  0  0  0
 15 17  2  0  0  0  0
 17 16  1  0  0  0  0
 18 19  1  0  0  0  0
 19 20  1  0  0  0  0
 21 10  1  0  0  0  0
 22 25  1  0  0  0  0
 23 24  1  0  0  0  0
 25 24  1  0  0  0  0
 25 21  1  0  0  0  0
 26 22  1  0  0  0  0
 26 23  1  0  0  0  0
 28 30  1  0  0  0  0
 28 31  1  0  0  0  0
 29 27  1  0  0  0  0
 30 23  1  0  0  0  0
 30 29  1  0  0  0  0
 31 27  1  0  0  0  0
M  END
>  <MODEL>
6

>  <REMARK>
 VINA RESULT:      -5.4      2.214      4.298
  Name = 
  5 active torsions:
  status: ('A' for Active; 'I' for Inactive)
    1  A    between atoms: C_6  and  C_19
    2  A    between atoms: C_16  and  C_30
    3  A    between atoms: N_21  and  C_24
    4  A    between atoms: C_22  and  C_24
    5  A    between atoms: C_25  and  C_26
                            x       y       z     vdW  Elec       q    Type
                         _______ _______ _______ _____ _____    ______ ____

>  <TORSDO>
F 5

$$$$
=
 OpenBabel11072412383D

 31 35  0  0  1  0  0  0  0  0999 V2000
  159.7630  211.4600  152.2880 C   0  0  2  0  0  3  0  0  0  0  0  0
  160.1020  211.5740  153.7110 N   0  0  2  0  0  0  0  0  0  0  0  0
  160.2410  210.0600  155.4120 C   0  0  1  0  0  3  0  0  0  0  0  0
  160.5560  209.4070  153.0350 C   0  0  0  0  0  0  0  0  0  0  0  0
  161.4100  207.4270  154.2490 C   0  0  0  0  0  3  0  0  0  0  0  0
  160.1160  210.1180  151.9240 O   0  0  0  0  0  0  0  0  0  0  0  0
  159.9440  208.6620  155.8790 C   0  0  1  0  0  3  0  0  0  0  0  0
  160.5310  210.3190  154.1510 C   0  0  1  0  0  3  0  0  0  0  0  0
  160.5960  212.4380  151.4850 C   0  0  0  0  0  1  0  0  0  0  0  0
  160.9310  208.1210  153.0340 C   0  0  0  0  0  0  0  0  0  0  0  0
  159.3200  212.1830  154.7810 C   0  0  2  0  0  3  0  0  0  0  0  0
  161.0180  207.6820  155.5030 C   0  0  0  0  0  3  0  0  0  0  0  0
  159.5930  211.2850  156.0110 C   0  0  2  0  0  3  0  0  0  0  0  0
  159.7590  208.6350  157.2610 O   0  0  0  0  0  1  0  0  0  0  0  0
  157.3120  213.2310  154.0340 O   0  0  0  0  0  0  0  0  0  0  0  0
  157.0950  211.0320  154.6390 O   0  0  0  0  0  1  0  0  0  0  0  0
  157.8560  212.1830  154.4660 C   0  0  0  0  0  0  0  0  0  0  0  0
  160.5980  213.3670  156.6810 O   0  0  0  0  0  1  0  0  0  0  0  0
  160.5590  212.0000  156.9600 C   0  0  2  0  0  3  0  0  0  0  0  0
  161.9600  211.4330  156.8160 C   0  0  0  0  0  1  0  0  0  0  0  0
  160.9540  207.3670  151.7460 C   0  0  0  0  0  2  0  0  0  0  0  0
  160.8170  205.2360  152.7210 C   0  0  0  0  0  2  0  0  0  0  0  0
  160.9680  204.2080  150.5890 C   0  0  2  0  0  3  0  0  0  0  0  0
  161.7710  205.4960  150.5960 C   0  0  0  0  0  2  0  0  0  0  0  0
  161.6660  206.1090  151.9180 N   0  0  0  0  0  0  0  0  0  0  0  0
  160.7760  203.8880  152.0480 C   0  0  0  0  0  2  0  0  0  0  0  0
  160.1460  202.3730  147.7500 S   0  0  0  0  0  0  0  0  0  0  0  0
  161.1260  201.7260  150.1870 C   0  0  0  0  0  2  0  0  0  0  0  0
  161.6240  203.2460  148.3580 C   0  0  0  0  0  2  0  0  0  0  0  0
  161.7200  203.0850  149.8670 C   0  0  1  0  0  3  0  0  0  0  0  0
  159.8730  201.5610  149.3530 C   0  0  0  0  0  2  0  0  0  0  0  0
  1  9  1  6  0  0  0
  1  2  1  0  0  0  0
  2  8  1  0  0  0  0
  2 11  1  0  0  0  0
  3  7  1  0  0  0  0
  3 13  1  0  0  0  0
  4  8  1  0  0  0  0
  5 12  2  0  0  0  0
  6  1  1  0  0  0  0
  6  4  1  0  0  0  0
  7 14  1  0  0  0  0
  8  3  1  0  0  0  0
 10  4  2  0  0  0  0
 10  5  1  0  0  0  0
 11 13  1  0  0  0  0
 12  7  1  0  0  0  0
 13 19  1  0  0  0  0
 15 17  2  0  0  0  0
 17 16  1  0  0  0  0
 17 11  1  0  0  0  0
 18 19  1  0  0  0  0
 20 19  1  0  0  0  0
 21 25  1  0  0  0  0
 21 10  1  0  0  0  0
 23 24  1  0  0  0  0
 23 26  1  0  0  0  0
 24 25  1  0  0  0  0
 25 22  1  0  0  0  0
 26 22  1  0  0  0  0
 27 29  1  0  0  0  0
 27 31  1  0  0  0  0
 29 30  1  0  0  0  0
 30 28  1  0  0  0  0
 30 23  1  0  0  0  0
 31 28  1  0  0  0  0
M  END
>  <MODEL>
7

>  <REMARK>
 VINA RESULT:      -5.2      1.954      2.828
  Name = 
  5 active torsions:
  status: ('A' for Active; 'I' for Inactive)
    1  A    between atoms: C_6  and  C_19
    2  A    between atoms: C_16  and  C_30
    3  A    between atoms: N_21  and  C_24
    4  A    between atoms: C_22  and  C_24
    5  A    between atoms: C_25  and  C_26
                            x       y       z     vdW  Elec       q    Type
                         _______ _______ _______ _____ _____    ______ ____

>  <TORSDO>
F 5

$$$$
=
 OpenBabel11072412383D

 31 35  0  0  1  0  0  0  0  0999 V2000
  161.1880  206.5080  146.9630 C   0  0  2  0  0  3  0  0  0  0  0  0
  160.8920  205.1450  147.4180 N   0  0  2  0  0  0  0  0  0  0  0  0
  161.2600  204.0370  149.3790 C   0  0  1  0  0  3  0  0  0  0  0  0
  161.0390  206.5100  149.2820 C   0  0  0  0  0  0  0  0  0  0  0  0
  160.8310  206.0510  151.7050 C   0  0  0  0  0  3  0  0  0  0  0  0
  161.2120  207.3060  148.1550 O   0  0  0  0  0  0  0  0  0  0  0  0
  161.9590  204.0340  150.7100 C   0  0  1  0  0  3  0  0  0  0  0  0
  160.8540  205.1600  148.8160 C   0  0  1  0  0  3  0  0  0  0  0  0
  160.0790  206.9940  146.0510 C   0  0  0  0  0  1  0  0  0  0  0  0
  161.0420  206.9480  150.5480 C   0  0  0  0  0  0  0  0  0  0  0  0
  161.5160  203.8960  146.9980 C   0  0  2  0  0  3  0  0  0  0  0  0
  161.1890  204.7630  151.7730 C   0  0  0  0  0  3  0  0  0  0  0  0
  161.5610  203.0400  148.2860 C   0  0  2  0  0  3  0  0  0  0  0  0
  162.2040  202.7280  151.1330 O   0  0  0  0  0  1  0  0  0  0  0  0
  163.1980  203.7740  145.3100 O   0  0  0  0  0  0  0  0  0  0  0  0
  163.8750  204.7030  147.2930 O   0  0  0  0  0  1  0  0  0  0  0  0
  162.9070  204.1170  146.4850 C   0  0  0  0  0  0  0  0  0  0  0  0
  159.7990  201.8730  149.4370 O   0  0  0  0  0  1  0  0  0  0  0  0
  160.4750  201.9630  148.2200 C   0  0  2  0  0  3  0  0  0  0  0  0
  161.0890  200.6110  147.9030 C   0  0  0  0  0  1  0  0  0  0  0  0
  161.1770  208.4110  150.8160 C   0  0  0  0  0  2  0  0  0  0  0  0
  162.3350  209.7070  152.3940 C   0  0  0  0  0  2  0  0  0  0  0  0
  160.2960  210.5910  153.2220 C   0  0  2  0  0  3  0  0  0  0  0  0
  160.0820  209.1660  152.7450 C   0  0  0  0  0  2  0  0  0  0  0  0
  161.3490  208.6420  152.2430 N   0  0  0  0  0  0  0  0  0  0  0  0
  161.7890  210.7020  153.3860 C   0  0  0  0  0  2  0  0  0  0  0  0
  157.6620  212.7280  153.9940 S   0  0  0  0  0  0  0  0  0  0  0  0
  160.0240  212.1540  155.1790 C   0  0  0  0  0  2  0  0  0  0  0  0
  158.0710  210.9860  154.3290 C   0  0  0  0  0  2  0  0  0  0  0  0
  159.5700  210.8520  154.5460 C   0  0  1  0  0  3  0  0  0  0  0  0
  159.3280  213.2870  154.4570 C   0  0  0  0  0  2  0  0  0  0  0  0
  1  9  1  6  0  0  0
  1  2  1  0  0  0  0
  1  6  1  0  0  0  0
  2  8  1  0  0  0  0
  3  7  1  0  0  0  0
  4 10  2  0  0  0  0
  5 12  2  0  0  0  0
  6  4  1  0  0  0  0
  7 14  1  0  0  0  0
  7 12  1  0  0  0  0
  8  4  1  0  0  0  0
  8  3  1  0  0  0  0
 10 21  1  0  0  0  0
 10  5  1  0  0  0  0
 11  2  1  0  0  0  0
 11 13  1  0  0  0  0
 13  3  1  0  0  0  0
 15 17  2  0  0  0  0
 17 11  1  0  0  0  0
 17 16  1  0  0  0  0
 19 13  1  0  0  0  0
 19 18  1  0  0  0  0
 20 19  1  0  0  0  0
 21 25  1  0  0  0  0
 22 26  1  0  0  0  0
 23 26  1  0  0  0  0
 23 30  1  0  0  0  0
 24 23  1  0  0  0  0
 25 22  1  0  0  0  0
 25 24  1  0  0  0  0
 27 29  1  0  0  0  0
 27 31  1  0  0  0  0
 29 30  1  0  0  0  0
 30 28  1  0  0  0  0
 31 28  1  0  0  0  0
M  END
>  <MODEL>
8

>  <REMARK>
 VINA RESULT:      -5.1      3.949      8.668
  Name = 
  5 active torsions:
  status: ('A' for Active; 'I' for Inactive)
    1  A    between atoms: C_6  and  C_19
    2  A    between atoms: C_16  and  C_30
    3  A    between atoms: N_21  and  C_24
    4  A    between atoms: C_22  and  C_24
    5  A    between atoms: C_25  and  C_26
                            x       y       z     vdW  Elec       q    Type
                         _______ _______ _______ _____ _____    ______ ____

>  <TORSDO>
F 5

$$$$
=
 OpenBabel11072412383D

 31 35  0  0  1  0  0  0  0  0999 V2000
  161.5970  210.2930  151.2000 C   0  0  2  0  0  3  0  0  0  0  0  0
  161.4700  210.3970  152.6590 N   0  0  2  0  0  0  0  0  0  0  0  0
  160.8390  208.9230  154.2820 C   0  0  1  0  0  3  0  0  0  0  0  0
  161.8120  208.1710  152.1230 C   0  0  0  0  0  0  0  0  0  0  0  0
  161.9430  206.1250  153.5080 C   0  0  0  0  0  3  0  0  0  0  0  0
  161.8580  208.9060  150.9430 O   0  0  0  0  0  0  0  0  0  0  0  0
  160.2160  207.5920  154.5990 C   0  0  1  0  0  3  0  0  0  0  0  0
  161.5550  209.1060  153.1880 C   0  0  1  0  0  3  0  0  0  0  0  0
  162.7720  211.1260  150.7300 C   0  0  0  0  0  1  0  0  0  0  0  0
  161.9840  206.8460  152.2170 C   0  0  0  0  0  0  0  0  0  0  0  0
  160.4770  211.1360  153.4300 C   0  0  2  0  0  3  0  0  0  0  0  0
  161.2070  206.4640  154.5720 C   0  0  0  0  0  3  0  0  0  0  0  0
  160.2100  210.2410  154.6630 C   0  0  2  0  0  3  0  0  0  0  0  0
  159.5920  207.6270  155.8460 O   0  0  0  0  0  1  0  0  0  0  0  0
  158.2000  210.6280  152.9320 O   0  0  0  0  0  1  0  0  0  0  0  0
  159.1320  212.2790  151.6450 O   0  0  0  0  0  0  0  0  0  0  0  0
  159.2080  211.3290  152.6570 C   0  0  0  0  0  0  0  0  0  0  0  0
  160.7460  212.2270  155.9140 O   0  0  0  0  0  1  0  0  0  0  0  0
  160.9060  210.8410  155.8880 C   0  0  2  0  0  3  0  0  0  0  0  0
  162.3900  210.5220  155.8620 C   0  0  0  0  0  1  0  0  0  0  0  0
  162.3170  206.0620  150.9910 C   0  0  0  0  0  2  0  0  0  0  0  0
  161.2390  206.2260  148.9120 C   0  0  0  0  0  2  0  0  0  0  0  0
  161.1720  203.8640  148.7160 C   0  0  2  0  0  3  0  0  0  0  0  0
  161.0590  204.2610  150.1770 C   0  0  0  0  0  2  0  0  0  0  0  0
  161.0990  205.7180  150.2730 N   0  0  0  0  0  0  0  0  0  0  0  0
  160.8340  205.1250  147.9660 C   0  0  0  0  0  2  0  0  0  0  0  0
  161.0050  200.5770  149.8420 S   0  0  0  0  0  0  0  0  0  0  0  0
  160.8270  201.7400  147.4070 C   0  0  0  0  0  2  0  0  0  0  0  0
  159.8200  201.9390  149.6080 C   0  0  0  0  0  2  0  0  0  0  0  0
  160.2000  202.7320  148.3680 C   0  0  1  0  0  3  0  0  0  0  0  0
  161.7480  200.8410  148.2050 C   0  0  0  0  0  2  0  0  0  0  0  0
  1  9  1  1  0  0  0
  1  2  1  0  0  0  0
  2  8  1  0  0  0  0
  2 11  1  0  0  0  0
  3  7  1  0  0  0  0
  3 13  1  0  0  0  0
  4 10  2  0  0  0  0
  4  8  1  0  0  0  0
  5 12  2  0  0  0  0
  6  1  1  0  0  0  0
  6  4  1  0  0  0  0
  7 14  1  0  0  0  0
  8  3  1  0  0  0  0
 10  5  1  0  0  0  0
 11 13  1  0  0  0  0
 12  7  1  0  0  0  0
 13 19  1  0  0  0  0
 16 17  2  0  0  0  0
 17 15  1  0  0  0  0
 17 11  1  0  0  0  0
 19 18  1  0  0  0  0
 20 19  1  0  0  0  0
 21 10  1  0  0  0  0
 22 25  1  0  0  0  0
 23 24  1  0  0  0  0
 24 25  1  0  0  0  0
 25 21  1  0  0  0  0
 26 23  1  0  0  0  0
 26 22  1  0  0  0  0
 28 31  1  0  0  0  0
 28 30  1  0  0  0  0
 29 27  1  0  0  0  0
 30 23  1  0  0  0  0
 30 29  1  0  0  0  0
 31 27  1  0  0  0  0
M  END
>  <MODEL>
9

>  <REMARK>
 VINA RESULT:      -5.1      1.942      2.405
  Name = 
  5 active torsions:
  status: ('A' for Active; 'I' for Inactive)
    1  A    between atoms: C_6  and  C_19
    2  A    between atoms: C_16  and  C_30
    3  A    between atoms: N_21  and  C_24
    4  A    between atoms: C_22  and  C_24
    5  A    between atoms: C_25  and  C_26
                            x       y       z     vdW  Elec       q    Type
                         _______ _______ _______ _____ _____    ______ ____

>  <TORSDO>
F 5

$$$$
