=
 OpenBabel11072413473D

 29 32  0  0  1  0  0  0  0  0999 V2000
  160.7920  205.7910  150.5150 C   0  0  0  0  0  2  0  0  0  0  0  0
  160.9840  208.9450  151.4590 C   0  0  1  0  0  3  0  0  0  0  0  0
  161.7420  206.1210  148.2800 C   0  0  0  0  0  0  0  0  0  0  0  0
  161.7790  206.6840  151.1320 N   0  0  1  0  0  0  0  0  0  0  0  0
  162.2280  207.2910  148.7060 C   0  0  0  0  0  3  0  0  0  0  0  0
  162.2140  209.0370  150.6030 C   0  0  1  0  0  3  0  0  0  0  0  0
  162.4710  207.5890  150.1740 C   0  0  1  0  0  3  0  0  0  0  0  0
  161.0390  207.5390  152.0650 C   0  0  1  0  0  3  0  0  0  0  0  0
  161.3860  205.0770  149.3070 C   0  0  2  0  0  3  0  0  0  0  0  0
  160.7910  205.7990  144.6040 N   0  0  0  0  0  0  0  0  0  0  0  0
  161.6200  205.8650  146.8250 C   0  0  0  0  0  0  0  0  0  0  0  0
  162.5010  205.2570  146.0660 C   0  0  0  0  0  0  0  0  0  0  0  0
  162.0570  205.2060  144.7320 N   0  0  0  0  0  0  0  0  0  0  0  0
  163.7020  204.7800  146.4760 F   0  0  0  0  0  0  0  0  0  0  0  0
  160.4630  206.2560  145.9640 C   0  0  0  0  0  2  0  0  0  0  0  0
  160.8570  210.0750  152.4380 C   0  0  0  0  0  0  0  0  0  0  0  0
  161.9850  210.6500  153.0110 O   0  0  0  0  0  1  0  0  0  0  0  0
  159.7150  210.4990  152.7500 O   0  0  0  0  0  0  0  0  0  0  0  0
  161.9100  210.7970  148.6030 C   0  0  0  0  0  3  0  0  0  0  0  0
  162.0440  210.0060  149.5040 C   0  0  0  0  0  0  0  0  0  0  0  0
  161.6710  207.4890  153.4720 C   0  0  2  0  0  3  0  0  0  0  0  0
  162.2750  206.2540  153.7210 O   0  0  0  0  0  1  0  0  0  0  0  0
  160.6870  207.8380  154.5970 C   0  0  2  0  0  3  0  0  0  0  0  0
  161.2240  208.7860  155.4730 O   0  0  0  0  0  1  0  0  0  0  0  0
  160.1290  206.8680  156.7420 O   0  0  0  0  0  0  0  0  0  0  0  0
  158.9720  207.0190  156.0770 O   0  0  0  0  0  0  0  0  0  0  0  0
  160.1020  206.6500  155.3800 C   0  0  0  0  0  3  0  0  0  0  0  0
  160.8170  202.9350  149.3110 C   0  0  0  0  0  1  0  0  0  0  0  0
  160.4370  204.1800  148.8070 O   0  0  0  0  0  0  0  0  0  0  0  0
  2  8  1  0  0  0  0
  2 16  1  1  0  0  0
  3  5  2  0  0  0  0
  3  9  1  0  0  0  0
  4  1  1  6  0  0  0
  4  8  1  0  0  0  0
  6 20  1  6  0  0  0
  6  2  1  0  0  0  0
  7  5  1  6  0  0  0
  7  6  1  0  0  0  0
  7  4  1  0  0  0  0
  8 21  1  1  0  0  0
  9 29  1  6  0  0  0
  9  1  1  0  0  0  0
 10 13  2  0  0  0  0
 10 15  1  0  0  0  0
 11  3  1  0  0  0  0
 12 14  1  0  0  0  0
 12 11  2  0  0  0  0
 13 12  1  0  0  0  0
 15 11  1  0  0  0  0
 16 18  2  0  0  0  0
 16 17  1  0  0  0  0
 19 20  3  0  0  0  0
 21 22  1  1  0  0  0
 21 23  1  0  0  0  0
 23 27  1  0  0  0  0
 23 24  1  1  0  0  0
 26 25  1  0  0  0  0
 27 26  1  0  0  0  0
 27 25  1  0  0  0  0
 29 28  1  0  0  0  0
M  END
>  <MODEL>
1

>  <REMARK>
 VINA RESULT:      -7.3      0.000      0.000
  Name = 
  7 active torsions:
  status: ('A' for Active; 'I' for Inactive)
    1  A    between atoms: C_4  and  C_10
    2  A    between atoms: C_5  and  C_9
    3  A    between atoms: C_5  and  C_23
    4  A    between atoms: C_6  and  C_8
    5  A    between atoms: C_9  and  C_20
    6  A    between atoms: C_16  and  C_26
    7  A    between atoms: C_22  and  O_24
                            x       y       z     vdW  Elec       q    Type
                         _______ _______ _______ _____ _____    ______ ____

>  <TORSDO>
F 7

$$$$
=
 OpenBabel11072413473D

 29 32  0  0  1  0  0  0  0  0999 V2000
  159.5060  210.7340  152.3690 C   0  0  0  0  0  2  0  0  0  0  0  0
  160.6660  207.7140  153.0080 C   0  0  1  0  0  3  0  0  0  0  0  0
  158.8730  211.2720  154.6760 C   0  0  0  0  0  0  0  0  0  0  0  0
  160.7690  210.1210  152.7950 N   0  0  1  0  0  0  0  0  0  0  0  0
  159.6690  210.2780  155.0800 C   0  0  0  0  0  3  0  0  0  0  0  0
  161.0830  208.2500  154.3470 C   0  0  1  0  0  3  0  0  0  0  0  0
  160.8170  209.7550  154.2370 C   0  0  1  0  0  3  0  0  0  0  0  0
  160.9020  208.8730  152.0360 C   0  0  1  0  0  3  0  0  0  0  0  0
  159.1060  211.8650  153.3090 C   0  0  2  0  0  3  0  0  0  0  0  0
  156.7120  213.0720  157.2470 N   0  0  0  0  0  0  0  0  0  0  0  0
  157.8310  211.7950  155.5900 C   0  0  0  0  0  0  0  0  0  0  0  0
  156.5920  211.3710  155.6810 C   0  0  0  0  0  0  0  0  0  0  0  0
  155.8830  212.1100  156.6460 N   0  0  0  0  0  2  0  0  0  0  0  0
  156.0350  210.3920  154.9280 F   0  0  0  0  0  0  0  0  0  0  0  0
  158.0110  212.9050  156.5750 C   0  0  0  0  0  3  0  0  0  0  0  0
  161.3340  206.4170  152.6540 C   0  0  0  0  0  0  0  0  0  0  0  0
  160.7170  205.5080  151.8040 O   0  0  0  0  0  0  0  0  0  0  0  0
  162.4610  206.1490  153.1420 O   0  0  0  0  0  1  0  0  0  0  0  0
  159.8240  207.0010  156.3590 C   0  0  0  0  0  3  0  0  0  0  0  0
  160.3900  207.5600  155.4520 C   0  0  0  0  0  0  0  0  0  0  0  0
  162.2640  208.8160  151.3130 C   0  0  2  0  0  3  0  0  0  0  0  0
  163.0840  209.8880  151.6740 O   0  0  0  0  0  1  0  0  0  0  0  0
  162.1410  208.7300  149.7850 C   0  0  2  0  0  3  0  0  0  0  0  0
  161.8910  209.9840  149.2190 O   0  0  0  0  0  1  0  0  0  0  0  0
  161.4470  207.3240  147.9430 O   0  0  0  0  0  0  0  0  0  0  0  0
  161.7870  206.4990  148.9480 O   0  0  0  0  0  0  0  0  0  0  0  0
  161.1510  207.6860  149.2410 C   0  0  0  0  0  3  0  0  0  0  0  0
  158.3260  213.0420  151.6010 C   0  0  0  0  0  1  0  0  0  0  0  0
  157.9450  212.4680  152.8150 O   0  0  0  0  0  0  0  0  0  0  0  0
  1  9  1  0  0  0  0
  2 16  1  6  0  0  0
  2  6  1  0  0  0  0
  3  5  2  0  0  0  0
  3 11  1  0  0  0  0
  4  1  1  1  0  0  0
  4  7  1  0  0  0  0
  6 20  1  1  0  0  0
  7  6  1  0  0  0  0
  7  5  1  6  0  0  0
  8 21  1  1  0  0  0
  8  4  1  0  0  0  0
  8  2  1  0  0  0  0
  9 29  1  6  0  0  0
  9  3  1  0  0  0  0
 11 12  2  0  0  0  0
 11 15  1  0  0  0  0
 12 13  1  0  0  0  0
 13 10  1  0  0  0  0
 14 12  1  0  0  0  0
 15 10  2  0  0  0  0
 16 18  1  0  0  0  0
 17 16  2  0  0  0  0
 20 19  3  0  0  0  0
 21 22  1  6  0  0  0
 23 24  1  1  0  0  0
 23 21  1  0  0  0  0
 25 26  1  0  0  0  0
 25 27  1  0  0  0  0
 26 27  1  0  0  0  0
 27 23  1  0  0  0  0
 28 29  1  0  0  0  0
M  END
>  <MODEL>
2

>  <REMARK>
 VINA RESULT:      -6.6      4.423      8.367
  Name = 
  7 active torsions:
  status: ('A' for Active; 'I' for Inactive)
    1  A    between atoms: C_4  and  C_10
    2  A    between atoms: C_5  and  C_9
    3  A    between atoms: C_5  and  C_23
    4  A    between atoms: C_6  and  C_8
    5  A    between atoms: C_9  and  C_20
    6  A    between atoms: C_16  and  C_26
    7  A    between atoms: C_22  and  O_24
                            x       y       z     vdW  Elec       q    Type
                         _______ _______ _______ _____ _____    ______ ____

>  <TORSDO>
F 7

$$$$
=
 OpenBabel11072413473D

 29 32  0  0  1  0  0  0  0  0999 V2000
  161.2710  206.9270  148.8370 C   0  0  0  0  0  2  0  0  0  0  0  0
  160.6550  203.7550  149.4980 C   0  0  1  0  0  3  0  0  0  0  0  0
  161.8030  207.5820  151.1390 C   0  0  0  0  0  0  0  0  0  0  0  0
  162.0250  205.6740  148.9560 N   0  0  1  0  0  0  0  0  0  0  0  0
  161.9770  206.2880  151.4220 C   0  0  0  0  0  3  0  0  0  0  0  0
  161.6910  203.8680  150.5800 C   0  0  1  0  0  3  0  0  0  0  0  0
  162.3010  205.2560  150.3580 C   0  0  1  0  0  3  0  0  0  0  0  0
  161.1900  204.6280  148.3580 C   0  0  1  0  0  3  0  0  0  0  0  0
  161.8930  208.0200  149.6990 C   0  0  2  0  0  3  0  0  0  0  0  0
  161.5960  210.5310  153.5440 N   0  0  0  0  0  0  0  0  0  0  0  0
  161.5810  208.5500  152.2400 C   0  0  0  0  0  0  0  0  0  0  0  0
  160.9450  208.3170  153.3640 C   0  0  0  0  0  0  0  0  0  0  0  0
  160.9160  209.4720  154.1670 N   0  0  0  0  0  2  0  0  0  0  0  0
  160.3470  207.1500  153.7060 F   0  0  0  0  0  0  0  0  0  0  0  0
  162.0490  209.9700  152.2610 C   0  0  0  0  0  3  0  0  0  0  0  0
  160.3280  202.3360  149.1370 C   0  0  0  0  0  0  0  0  0  0  0  0
  161.2630  201.3240  149.3110 O   0  0  0  0  0  1  0  0  0  0  0  0
  159.1960  202.0630  148.6620 O   0  0  0  0  0  0  0  0  0  0  0  0
  160.6450  203.4420  153.0120 C   0  0  0  0  0  3  0  0  0  0  0  0
  161.1130  203.6330  151.9160 C   0  0  0  0  0  0  0  0  0  0  0  0
  161.9770  203.8450  147.2870 C   0  0  2  0  0  3  0  0  0  0  0  0
  163.2100  204.4430  147.0150 O   0  0  0  0  0  1  0  0  0  0  0  0
  161.1910  203.6280  145.9870 C   0  0  2  0  0  3  0  0  0  0  0  0
  161.1220  202.2740  145.6490 O   0  0  0  0  0  1  0  0  0  0  0  0
  160.5630  204.9570  144.0650 O   0  0  0  0  0  0  0  0  0  0  0  0
  161.2300  205.7750  144.8950 O   0  0  0  0  0  0  0  0  0  0  0  0
  161.6380  204.4640  144.7760 C   0  0  0  0  0  3  0  0  0  0  0  0
  162.0070  209.9640  148.6430 C   0  0  0  0  0  1  0  0  0  0  0  0
  161.1910  209.2100  149.4870 O   0  0  0  0  0  0  0  0  0  0  0  0
  1  9  1  0  0  0  0
  2 16  1  6  0  0  0
  2  6  1  0  0  0  0
  3  5  2  0  0  0  0
  3 11  1  0  0  0  0
  4  1  1  1  0  0  0
  4  7  1  0  0  0  0
  6 20  1  1  0  0  0
  7  6  1  0  0  0  0
  7  5  1  1  0  0  0
  8 21  1  6  0  0  0
  8  4  1  0  0  0  0
  8  2  1  0  0  0  0
  9 29  1  1  0  0  0
  9  3  1  0  0  0  0
 10 13  1  0  0  0  0
 11 15  1  0  0  0  0
 11 12  2  0  0  0  0
 12 14  1  0  0  0  0
 12 13  1  0  0  0  0
 15 10  2  0  0  0  0
 16 17  1  0  0  0  0
 18 16  2  0  0  0  0
 20 19  3  0  0  0  0
 21 22  1  6  0  0  0
 23 24  1  6  0  0  0
 23 21  1  0  0  0  0
 25 27  1  0  0  0  0
 25 26  1  0  0  0  0
 27 26  1  0  0  0  0
 27 23  1  0  0  0  0
 28 29  1  0  0  0  0
M  END
>  <MODEL>
3

>  <REMARK>
 VINA RESULT:      -6.3      3.541      7.812
  Name = 
  7 active torsions:
  status: ('A' for Active; 'I' for Inactive)
    1  A    between atoms: C_4  and  C_10
    2  A    between atoms: C_5  and  C_9
    3  A    between atoms: C_5  and  C_23
    4  A    between atoms: C_6  and  C_8
    5  A    between atoms: C_9  and  C_20
    6  A    between atoms: C_16  and  C_26
    7  A    between atoms: C_22  and  O_24
                            x       y       z     vdW  Elec       q    Type
                         _______ _______ _______ _____ _____    ______ ____

>  <TORSDO>
F 7

$$$$
=
 OpenBabel11072413473D

 29 32  0  0  1  0  0  0  0  0999 V2000
  160.7680  207.9330  150.8100 C   0  0  0  0  0  2  0  0  0  0  0  0
  160.9180  204.7910  149.8200 C   0  0  1  0  0  3  0  0  0  0  0  0
  161.2240  207.4900  153.1780 C   0  0  0  0  0  0  0  0  0  0  0  0
  161.7920  206.9780  150.3730 N   0  0  1  0  0  0  0  0  0  0  0  0
  161.6990  206.2950  152.8190 C   0  0  0  0  0  3  0  0  0  0  0  0
  161.9410  204.5880  150.9010 C   0  0  1  0  0  3  0  0  0  0  0  0
  162.2100  206.0050  151.4200 C   0  0  1  0  0  3  0  0  0  0  0  0
  161.1950  206.1980  149.2840 C   0  0  1  0  0  3  0  0  0  0  0  0
  161.1570  208.5770  152.1360 C   0  0  2  0  0  3  0  0  0  0  0  0
  159.8200  207.5030  156.7210 N   0  0  0  0  0  0  0  0  0  0  0  0
  160.8300  207.7300  154.5870 C   0  0  0  0  0  0  0  0  0  0  0  0
  161.2300  208.7210  155.3480 C   0  0  0  0  0  0  0  0  0  0  0  0
  160.6650  208.6210  156.6330 N   0  0  0  0  0  2  0  0  0  0  0  0
  162.1050  209.6920  154.9870 F   0  0  0  0  0  0  0  0  0  0  0  0
  159.9020  206.8780  155.3910 C   0  0  0  0  0  3  0  0  0  0  0  0
  160.9090  203.6910  148.7990 C   0  0  0  0  0  0  0  0  0  0  0  0
  162.0300  203.4360  148.0190 O   0  0  0  0  0  0  0  0  0  0  0  0
  159.8710  203.0000  148.6420 O   0  0  0  0  0  1  0  0  0  0  0  0
  161.1050  202.8210  152.7360 C   0  0  0  0  0  3  0  0  0  0  0  0
  161.4840  203.6160  151.9120 C   0  0  0  0  0  0  0  0  0  0  0  0
  162.0990  206.2240  148.0340 C   0  0  2  0  0  3  0  0  0  0  0  0
  163.0850  207.2090  148.1320 O   0  0  0  0  0  1  0  0  0  0  0  0
  161.3210  206.3790  146.7200 C   0  0  2  0  0  3  0  0  0  0  0  0
  159.9450  206.4770  146.9470 O   0  0  0  0  0  1  0  0  0  0  0  0
  162.3400  205.8670  144.5860 O   0  0  0  0  0  0  0  0  0  0  0  0
  162.9670  205.1100  145.5020 O   0  0  0  0  0  0  0  0  0  0  0  0
  161.6140  205.3330  145.6300 C   0  0  0  0  0  3  0  0  0  0  0  0
  160.7840  210.7620  152.1530 C   0  0  0  0  0  1  0  0  0  0  0  0
  160.1940  209.5360  152.4660 O   0  0  0  0  0  0  0  0  0  0  0  0
  1  9  1  0  0  0  0
  2 16  1  6  0  0  0
  2  6  1  0  0  0  0
  3 11  1  0  0  0  0
  4  1  1  1  0  0  0
  4  7  1  0  0  0  0
  5  3  2  0  0  0  0
  6  7  1  0  0  0  0
  6 20  1  1  0  0  0
  7  5  1  1  0  0  0
  8 21  1  6  0  0  0
  8  2  1  0  0  0  0
  8  4  1  0  0  0  0
  9 29  1  1  0  0  0
  9  3  1  0  0  0  0
 11 12  2  0  0  0  0
 11 15  1  0  0  0  0
 12 13  1  0  0  0  0
 13 10  1  0  0  0  0
 14 12  1  0  0  0  0
 15 10  2  0  0  0  0
 17 16  2  0  0  0  0
 18 16  1  0  0  0  0
 20 19  3  0  0  0  0
 21 22  1  1  0  0  0
 23 24  1  1  0  0  0
 23 21  1  0  0  0  0
 25 26  1  0  0  0  0
 25 27  1  0  0  0  0
 26 27  1  0  0  0  0
 27 23  1  0  0  0  0
 28 29  1  0  0  0  0
M  END
>  <MODEL>
4

>  <REMARK>
 VINA RESULT:      -6.0      3.163      7.919
  Name = 
  7 active torsions:
  status: ('A' for Active; 'I' for Inactive)
    1  A    between atoms: C_4  and  C_10
    2  A    between atoms: C_5  and  C_9
    3  A    between atoms: C_5  and  C_23
    4  A    between atoms: C_6  and  C_8
    5  A    between atoms: C_9  and  C_20
    6  A    between atoms: C_16  and  C_26
    7  A    between atoms: C_22  and  O_24
                            x       y       z     vdW  Elec       q    Type
                         _______ _______ _______ _____ _____    ______ ____

>  <TORSDO>
F 7

$$$$
=
 OpenBabel11072413473D

 29 32  0  0  1  0  0  0  0  0999 V2000
  162.4900  207.4850  148.4950 C   0  0  0  0  0  2  0  0  0  0  0  0
  162.3310  208.8670  151.4850 C   0  0  1  0  0  3  0  0  0  0  0  0
  161.1800  205.4900  149.0520 C   0  0  0  0  0  0  0  0  0  0  0  0
  161.5810  208.3630  149.2410 N   0  0  1  0  0  0  0  0  0  0  0  0
  160.7250  206.1400  150.1260 C   0  0  0  0  0  3  0  0  0  0  0  0
  160.9760  208.2320  151.6130 C   0  0  1  0  0  3  0  0  0  0  0  0
  160.7100  207.6550  150.2190 C   0  0  1  0  0  3  0  0  0  0  0  0
  162.4290  209.2780  150.0130 C   0  0  1  0  0  3  0  0  0  0  0  0
  161.7380  206.2970  147.9070 C   0  0  2  0  0  3  0  0  0  0  0  0
  161.0360  201.7800  148.1890 N   0  0  0  0  0  0  0  0  0  0  0  0
  161.0760  204.0120  148.9910 C   0  0  0  0  0  0  0  0  0  0  0  0
  160.8550  203.2060  150.0030 C   0  0  0  0  0  0  0  0  0  0  0  0
  160.8360  201.8660  149.5760 N   0  0  0  0  0  2  0  0  0  0  0  0
  160.7110  203.5840  151.2980 F   0  0  0  0  0  0  0  0  0  0  0  0
  161.2070  203.1770  147.7580 C   0  0  0  0  0  3  0  0  0  0  0  0
  162.5700  209.9590  152.4860 C   0  0  0  0  0  0  0  0  0  0  0  0
  161.5580  210.3710  153.3440 O   0  0  0  0  0  1  0  0  0  0  0  0
  163.6970  210.5130  152.5410 O   0  0  0  0  0  0  0  0  0  0  0  0
  160.8960  206.4700  153.6330 C   0  0  0  0  0  3  0  0  0  0  0  0
  160.9300  207.2610  152.7230 C   0  0  0  0  0  0  0  0  0  0  0  0
  162.0340  210.7450  149.7450 C   0  0  2  0  0  3  0  0  0  0  0  0
  160.7880  211.0520  150.2990 O   0  0  0  0  0  1  0  0  0  0  0  0
  162.0660  211.1250  148.2590 C   0  0  2  0  0  3  0  0  0  0  0  0
  163.2290  211.8290  147.9340 O   0  0  0  0  0  1  0  0  0  0  0  0
  160.9650  213.2270  147.7850 O   0  0  0  0  0  0  0  0  0  0  0  0
  161.1320  212.6080  146.6050 O   0  0  0  0  0  0  0  0  0  0  0  0
  160.8240  211.8570  147.7190 C   0  0  0  0  0  3  0  0  0  0  0  0
  162.2960  205.8270  145.8150 C   0  0  0  0  0  1  0  0  0  0  0  0
  162.6280  205.5390  147.1400 O   0  0  0  0  0  0  0  0  0  0  0  0
  2  6  1  0  0  0  0
  2 16  1  1  0  0  0
  3  5  2  0  0  0  0
  4  1  1  1  0  0  0
  4  8  1  0  0  0  0
  4  7  1  0  0  0  0
  6 20  1  1  0  0  0
  7  5  1  1  0  0  0
  7  6  1  0  0  0  0
  8 21  1  1  0  0  0
  8  2  1  0  0  0  0
  9 29  1  1  0  0  0
  9  1  1  0  0  0  0
  9  3  1  0  0  0  0
 10 13  1  0  0  0  0
 11  3  1  0  0  0  0
 11 12  2  0  0  0  0
 12 14  1  0  0  0  0
 13 12  1  0  0  0  0
 15 10  2  0  0  0  0
 15 11  1  0  0  0  0
 16 18  2  0  0  0  0
 16 17  1  0  0  0  0
 20 19  3  0  0  0  0
 21 22  1  6  0  0  0
 23 24  1  1  0  0  0
 23 21  1  0  0  0  0
 26 27  1  0  0  0  0
 26 25  1  0  0  0  0
 27 25  1  0  0  0  0
 27 23  1  0  0  0  0
 28 29  1  0  0  0  0
M  END
>  <MODEL>
5

>  <REMARK>
 VINA RESULT:      -5.6      2.865      5.319
  Name = 
  7 active torsions:
  status: ('A' for Active; 'I' for Inactive)
    1  A    between atoms: C_4  and  C_10
    2  A    between atoms: C_5  and  C_9
    3  A    between atoms: C_5  and  C_23
    4  A    between atoms: C_6  and  C_8
    5  A    between atoms: C_9  and  C_20
    6  A    between atoms: C_16  and  C_26
    7  A    between atoms: C_22  and  O_24
                            x       y       z     vdW  Elec       q    Type
                         _______ _______ _______ _____ _____    ______ ____

>  <TORSDO>
F 7

$$$$
=
 OpenBabel11072413473D

 29 32  0  0  1  0  0  0  0  0999 V2000
  160.8340  208.0930  150.4830 C   0  0  0  0  0  2  0  0  0  0  0  0
  160.9320  204.8870  149.7180 C   0  0  1  0  0  3  0  0  0  0  0  0
  161.2410  207.8080  152.8840 C   0  0  0  0  0  0  0  0  0  0  0  0
  161.8440  207.0890  150.1320 N   0  0  1  0  0  0  0  0  0  0  0  0
  161.6960  206.5810  152.6180 C   0  0  0  0  0  3  0  0  0  0  0  0
  161.9330  204.7400  150.8280 C   0  0  1  0  0  3  0  0  0  0  0  0
  162.2230  206.1830  151.2520 C   0  0  1  0  0  3  0  0  0  0  0  0
  161.2480  206.2480  149.0890 C   0  0  1  0  0  3  0  0  0  0  0  0
  161.2150  208.8210  151.7670 C   0  0  2  0  0  3  0  0  0  0  0  0
  160.4030  209.3640  156.2610 N   0  0  0  0  0  0  0  0  0  0  0  0
  160.8290  208.1540  154.2660 C   0  0  0  0  0  0  0  0  0  0  0  0
  160.3130  207.3340  155.1510 C   0  0  0  0  0  0  0  0  0  0  0  0
  160.0300  208.0130  156.3510 N   0  0  0  0  0  2  0  0  0  0  0  0
  160.0350  206.0230  154.9470 F   0  0  0  0  0  0  0  0  0  0  0  0
  160.9320  209.5060  154.8950 C   0  0  0  0  0  3  0  0  0  0  0  0
  160.9160  203.7190  148.7760 C   0  0  0  0  0  0  0  0  0  0  0  0
  161.9620  203.5090  147.8860 O   0  0  0  0  0  0  0  0  0  0  0  0
  159.9390  202.9280  148.7870 O   0  0  0  0  0  1  0  0  0  0  0  0
  161.0280  203.1230  152.7660 C   0  0  0  0  0  3  0  0  0  0  0  0
  161.4380  203.8510  151.8960 C   0  0  0  0  0  0  0  0  0  0  0  0
  162.1730  206.1670  147.8570 C   0  0  2  0  0  3  0  0  0  0  0  0
  163.2340  207.0710  147.9500 O   0  0  0  0  0  1  0  0  0  0  0  0
  161.4330  206.3490  146.5250 C   0  0  2  0  0  3  0  0  0  0  0  0
  160.0520  206.2040  146.6810 O   0  0  0  0  0  1  0  0  0  0  0  0
  160.9490  204.6680  144.8540 O   0  0  0  0  0  0  0  0  0  0  0  0
  161.2540  205.7940  144.1880 O   0  0  0  0  0  0  0  0  0  0  0  0
  161.9350  205.4960  145.3470 C   0  0  0  0  0  3  0  0  0  0  0  0
  160.9010  211.0120  151.6570 C   0  0  0  0  0  1  0  0  0  0  0  0
  160.2680  209.8200  152.0130 O   0  0  0  0  0  0  0  0  0  0  0  0
  1  9  1  0  0  0  0
  2 16  1  6  0  0  0
  2  6  1  0  0  0  0
  3 11  1  0  0  0  0
  4  1  1  1  0  0  0
  4  7  1  0  0  0  0
  5  3  2  0  0  0  0
  6  7  1  0  0  0  0
  6 20  1  1  0  0  0
  7  5  1  1  0  0  0
  8 21  1  6  0  0  0
  8  2  1  0  0  0  0
  8  4  1  0  0  0  0
  9 29  1  1  0  0  0
  9  3  1  0  0  0  0
 10 13  1  0  0  0  0
 11 15  1  0  0  0  0
 11 12  2  0  0  0  0
 12 13  1  0  0  0  0
 14 12  1  0  0  0  0
 15 10  2  0  0  0  0
 16 18  1  0  0  0  0
 17 16  2  0  0  0  0
 20 19  3  0  0  0  0
 21 22  1  1  0  0  0
 23 24  1  1  0  0  0
 23 21  1  0  0  0  0
 25 27  1  0  0  0  0
 26 25  1  0  0  0  0
 26 27  1  0  0  0  0
 27 23  1  0  0  0  0
 28 29  1  0  0  0  0
M  END
>  <MODEL>
6

>  <REMARK>
 VINA RESULT:      -5.5      3.140      7.889
  Name = 
  7 active torsions:
  status: ('A' for Active; 'I' for Inactive)
    1  A    between atoms: C_4  and  C_10
    2  A    between atoms: C_5  and  C_9
    3  A    between atoms: C_5  and  C_23
    4  A    between atoms: C_6  and  C_8
    5  A    between atoms: C_9  and  C_20
    6  A    between atoms: C_16  and  C_26
    7  A    between atoms: C_22  and  O_24
                            x       y       z     vdW  Elec       q    Type
                         _______ _______ _______ _____ _____    ______ ____

>  <TORSDO>
F 7

$$$$
=
 OpenBabel11072413473D

 29 32  0  0  1  0  0  0  0  0999 V2000
  160.5560  207.1900  151.6580 C   0  0  0  0  0  2  0  0  0  0  0  0
  160.6220  210.4870  151.6710 C   0  0  1  0  0  3  0  0  0  0  0  0
  161.8190  206.9040  149.5770 C   0  0  0  0  0  0  0  0  0  0  0  0
  161.4480  208.2580  152.1230 N   0  0  1  0  0  0  0  0  0  0  0  0
  162.2430  208.1640  149.7110 C   0  0  0  0  0  3  0  0  0  0  0  0
  161.9630  210.3780  151.0030 C   0  0  1  0  0  3  0  0  0  0  0  0
  162.2730  208.8780  151.0490 C   0  0  1  0  0  3  0  0  0  0  0  0
  160.5840  209.3160  152.6580 C   0  0  1  0  0  3  0  0  0  0  0  0
  161.3150  206.1830  150.8010 C   0  0  2  0  0  3  0  0  0  0  0  0
  162.7280  205.0580  146.3690 N   0  0  0  0  0  0  0  0  0  0  0  0
  161.9060  206.2380  148.2550 C   0  0  0  0  0  0  0  0  0  0  0  0
  160.9380  206.1270  147.3760 C   0  0  0  0  0  0  0  0  0  0  0  0
  161.3770  205.4200  146.2410 N   0  0  0  0  0  0  0  0  0  0  0  0
  159.6700  206.5780  147.5350 F   0  0  0  0  0  0  0  0  0  0  0  0
  163.1200  205.5740  147.6900 C   0  0  0  0  0  2  0  0  0  0  0  0
  160.3600  211.8440  152.2550 C   0  0  0  0  0  0  0  0  0  0  0  0
  160.0220  212.9170  151.4390 O   0  0  0  0  0  0  0  0  0  0  0  0
  160.4570  212.0130  153.4970 O   0  0  0  0  0  1  0  0  0  0  0  0
  161.9440  211.4840  148.5610 C   0  0  0  0  0  3  0  0  0  0  0  0
  161.9560  210.9850  149.6590 C   0  0  0  0  0  0  0  0  0  0  0  0
  161.0070  209.6940  154.0920 C   0  0  2  0  0  3  0  0  0  0  0  0
  162.3320  209.3330  154.3500 O   0  0  0  0  0  1  0  0  0  0  0  0
  160.0790  209.1240  155.1730 C   0  0  2  0  0  3  0  0  0  0  0  0
  159.6910  210.1080  156.0870 O   0  0  0  0  0  1  0  0  0  0  0  0
  159.5750  206.9550  156.1210 O   0  0  0  0  0  0  0  0  0  0  0  0
  160.4570  206.7450  155.1290 O   0  0  0  0  0  0  0  0  0  0  0  0
  160.5850  207.8720  155.9110 C   0  0  0  0  0  3  0  0  0  0  0  0
  160.9660  204.0130  151.0830 C   0  0  0  0  0  1  0  0  0  0  0  0
  160.4450  205.1460  150.4540 O   0  0  0  0  0  0  0  0  0  0  0  0
  2 16  1  1  0  0  0
  2  8  1  0  0  0  0
  3  5  2  0  0  0  0
  3  9  1  0  0  0  0
  4  1  1  6  0  0  0
  4  8  1  0  0  0  0
  6 20  1  6  0  0  0
  6  7  1  0  0  0  0
  6  2  1  0  0  0  0
  7  5  1  6  0  0  0
  7  4  1  0  0  0  0
  8 21  1  1  0  0  0
  9 29  1  6  0  0  0
  9  1  1  0  0  0  0
 10 15  1  0  0  0  0
 11  3  1  0  0  0  0
 12 14  1  0  0  0  0
 12 11  2  0  0  0  0
 13 10  2  0  0  0  0
 13 12  1  0  0  0  0
 15 11  1  0  0  0  0
 16 18  1  0  0  0  0
 17 16  2  0  0  0  0
 19 20  3  0  0  0  0
 21 22  1  1  0  0  0
 21 23  1  0  0  0  0
 23 27  1  0  0  0  0
 23 24  1  1  0  0  0
 26 27  1  0  0  0  0
 26 25  1  0  0  0  0
 27 25  1  0  0  0  0
 29 28  1  0  0  0  0
M  END
>  <MODEL>
7

>  <REMARK>
 VINA RESULT:      -5.2      1.666      2.115
  Name = 
  7 active torsions:
  status: ('A' for Active; 'I' for Inactive)
    1  A    between atoms: C_4  and  C_10
    2  A    between atoms: C_5  and  C_9
    3  A    between atoms: C_5  and  C_23
    4  A    between atoms: C_6  and  C_8
    5  A    between atoms: C_9  and  C_20
    6  A    between atoms: C_16  and  C_26
    7  A    between atoms: C_22  and  O_24
                            x       y       z     vdW  Elec       q    Type
                         _______ _______ _______ _____ _____    ______ ____

>  <TORSDO>
F 7

$$$$
=
 OpenBabel11072413473D

 29 32  0  0  1  0  0  0  0  0999 V2000
  161.0330  210.2590  151.3380 C   0  0  0  0  0  2  0  0  0  0  0  0
  158.5640  211.6060  153.0610 C   0  0  1  0  0  3  0  0  0  0  0  0
  161.1810  212.0310  149.6510 C   0  0  0  0  0  0  0  0  0  0  0  0
  160.8680  211.2280  152.4270 N   0  0  1  0  0  0  0  0  0  0  0  0
  160.4990  212.8230  150.4830 C   0  0  0  0  0  3  0  0  0  0  0  0
  159.1300  212.9400  152.6660 C   0  0  1  0  0  3  0  0  0  0  0  0
  160.4550  212.5870  151.9820 C   0  0  1  0  0  3  0  0  0  0  0  0
  159.7910  210.7150  153.2800 C   0  0  1  0  0  3  0  0  0  0  0  0
  161.8980  210.8360  150.2240 C   0  0  2  0  0  3  0  0  0  0  0  0
  160.6590  212.8330  145.9610 N   0  0  0  0  0  0  0  0  0  0  0  0
  161.2570  212.3760  148.2110 C   0  0  0  0  0  0  0  0  0  0  0  0
  162.3470  212.6600  147.5370 C   0  0  0  0  0  0  0  0  0  0  0  0
  162.0390  212.9530  146.1950 N   0  0  0  0  0  0  0  0  0  0  0  0
  163.6010  212.7200  148.0490 F   0  0  0  0  0  0  0  0  0  0  0  0
  160.0990  212.4580  147.2700 C   0  0  0  0  0  2  0  0  0  0  0  0
  157.6010  211.6880  154.2080 C   0  0  0  0  0  0  0  0  0  0  0  0
  157.6440  212.7540  155.0990 O   0  0  0  0  0  1  0  0  0  0  0  0
  156.7520  210.7750  154.3710 O   0  0  0  0  0  0  0  0  0  0  0  0
  157.4060  214.3540  151.1760 C   0  0  0  0  0  3  0  0  0  0  0  0
  158.1800  213.7170  151.8480 C   0  0  0  0  0  0  0  0  0  0  0  0
  160.2490  210.6330  154.7500 C   0  0  2  0  0  3  0  0  0  0  0  0
  161.5640  211.0780  154.9050 O   0  0  0  0  0  1  0  0  0  0  0  0
  160.0830  209.2360  155.3650 C   0  0  2  0  0  3  0  0  0  0  0  0
  159.9640  209.2980  156.7560 O   0  0  0  0  0  1  0  0  0  0  0  0
  160.5780  206.9340  154.8060 O   0  0  0  0  0  0  0  0  0  0  0  0
  160.8640  207.6640  153.7150 O   0  0  0  0  0  0  0  0  0  0  0  0
  161.1340  208.1870  154.9600 C   0  0  0  0  0  3  0  0  0  0  0  0
  161.9590  208.6400  149.9360 C   0  0  0  0  0  1  0  0  0  0  0  0
  162.0930  209.8490  149.2520 O   0  0  0  0  0  0  0  0  0  0  0  0
  2  8  1  0  0  0  0
  2 16  1  1  0  0  0
  3  9  1  0  0  0  0
  3  5  2  0  0  0  0
  4  1  1  6  0  0  0
  4  8  1  0  0  0  0
  6 20  1  6  0  0  0
  6  2  1  0  0  0  0
  7  5  1  6  0  0  0
  7  4  1  0  0  0  0
  7  6  1  0  0  0  0
  8 21  1  1  0  0  0
  9 29  1  6  0  0  0
  9  1  1  0  0  0  0
 10 13  2  0  0  0  0
 10 15  1  0  0  0  0
 11  3  1  0  0  0  0
 12 14  1  0  0  0  0
 12 11  2  0  0  0  0
 13 12  1  0  0  0  0
 15 11  1  0  0  0  0
 16 18  2  0  0  0  0
 16 17  1  0  0  0  0
 19 20  3  0  0  0  0
 21 22  1  6  0  0  0
 21 23  1  0  0  0  0
 23 24  1  1  0  0  0
 25 27  1  0  0  0  0
 26 25  1  0  0  0  0
 26 27  1  0  0  0  0
 27 23  1  0  0  0  0
 29 28  1  0  0  0  0
M  END
>  <MODEL>
8

>  <REMARK>
 VINA RESULT:      -5.2      3.829      5.329
  Name = 
  7 active torsions:
  status: ('A' for Active; 'I' for Inactive)
    1  A    between atoms: C_4  and  C_10
    2  A    between atoms: C_5  and  C_9
    3  A    between atoms: C_5  and  C_23
    4  A    between atoms: C_6  and  C_8
    5  A    between atoms: C_9  and  C_20
    6  A    between atoms: C_16  and  C_26
    7  A    between atoms: C_22  and  O_24
                            x       y       z     vdW  Elec       q    Type
                         _______ _______ _______ _____ _____    ______ ____

>  <TORSDO>
F 7

$$$$
=
 OpenBabel11072413473D

 29 32  0  0  1  0  0  0  0  0999 V2000
  160.7680  209.3450  151.5840 C   0  0  0  0  0  2  0  0  0  0  0  0
  160.9440  206.7840  149.5140 C   0  0  1  0  0  3  0  0  0  0  0  0
  161.2170  208.0700  153.6290 C   0  0  0  0  0  0  0  0  0  0  0  0
  161.8010  208.6210  150.8340 N   0  0  1  0  0  0  0  0  0  0  0  0
  161.7020  207.0910  152.8610 C   0  0  0  0  0  3  0  0  0  0  0  0
  161.9650  206.2050  150.4530 C   0  0  1  0  0  3  0  0  0  0  0  0
  162.2210  207.3350  151.4550 C   0  0  1  0  0  3  0  0  0  0  0  0
  161.2140  208.2910  149.5310 C   0  0  1  0  0  3  0  0  0  0  0  0
  161.1460  209.4630  153.0560 C   0  0  2  0  0  3  0  0  0  0  0  0
  159.7110  206.8590  156.9140 N   0  0  0  0  0  0  0  0  0  0  0  0
  160.8150  207.7750  155.0250 C   0  0  0  0  0  0  0  0  0  0  0  0
  161.3310  208.3040  156.1100 C   0  0  0  0  0  0  0  0  0  0  0  0
  160.7140  207.7780  157.2600 N   0  0  0  0  0  2  0  0  0  0  0  0
  162.3510  209.1960  156.1470 F   0  0  0  0  0  0  0  0  0  0  0  0
  159.7450  206.8190  155.4430 C   0  0  0  0  0  3  0  0  0  0  0  0
  160.9480  206.1340  148.1620 C   0  0  0  0  0  0  0  0  0  0  0  0
  159.9480  206.4090  147.2380 O   0  0  0  0  0  0  0  0  0  0  0  0
  161.8620  205.3230  147.8670 O   0  0  0  0  0  1  0  0  0  0  0  0
  161.1340  203.8870  151.5140 C   0  0  0  0  0  3  0  0  0  0  0  0
  161.5100  204.9290  151.0350 C   0  0  0  0  0  0  0  0  0  0  0  0
  162.1220  208.7770  148.3830 C   0  0  2  0  0  3  0  0  0  0  0  0
  163.3450  208.1010  148.3730 O   0  0  0  0  0  1  0  0  0  0  0  0
  162.3520  210.2950  148.3870 C   0  0  2  0  0  3  0  0  0  0  0  0
  162.7650  210.7490  149.6420 O   0  0  0  0  0  1  0  0  0  0  0  0
  161.1680  212.4040  148.4450 O   0  0  0  0  0  0  0  0  0  0  0  0
  161.6640  212.2770  147.2030 O   0  0  0  0  0  0  0  0  0  0  0  0
  161.1950  211.1580  147.8540 C   0  0  0  0  0  3  0  0  0  0  0  0
  160.8190  211.4240  154.0330 C   0  0  0  0  0  1  0  0  0  0  0  0
  160.1750  210.2290  153.7070 O   0  0  0  0  0  0  0  0  0  0  0  0
  1  9  1  0  0  0  0
  2 16  1  6  0  0  0
  2  8  1  0  0  0  0
  2  6  1  0  0  0  0
  3 11  1  0  0  0  0
  4  7  1  0  0  0  0
  4  1  1  1  0  0  0
  5  3  2  0  0  0  0
  6 20  1  1  0  0  0
  6  7  1  0  0  0  0
  7  5  1  1  0  0  0
  8 21  1  6  0  0  0
  8  4  1  0  0  0  0
  9  3  1  0  0  0  0
  9 29  1  1  0  0  0
 10 13  1  0  0  0  0
 11 15  1  0  0  0  0
 11 12  2  0  0  0  0
 12 14  1  0  0  0  0
 12 13  1  0  0  0  0
 15 10  2  0  0  0  0
 17 16  2  0  0  0  0
 18 16  1  0  0  0  0
 20 19  3  0  0  0  0
 21 22  1  1  0  0  0
 21 23  1  0  0  0  0
 23 24  1  1  0  0  0
 26 27  1  0  0  0  0
 26 25  1  0  0  0  0
 27 23  1  0  0  0  0
 27 25  1  0  0  0  0
 29 28  1  0  0  0  0
M  END
>  <MODEL>
9

>  <REMARK>
 VINA RESULT:      -4.8      3.397      7.566
  Name = 
  7 active torsions:
  status: ('A' for Active; 'I' for Inactive)
    1  A    between atoms: C_4  and  C_10
    2  A    between atoms: C_5  and  C_9
    3  A    between atoms: C_5  and  C_23
    4  A    between atoms: C_6  and  C_8
    5  A    between atoms: C_9  and  C_20
    6  A    between atoms: C_16  and  C_26
    7  A    between atoms: C_22  and  O_24
                            x       y       z     vdW  Elec       q    Type
                         _______ _______ _______ _____ _____    ______ ____

>  <TORSDO>
F 7

$$$$
