=
 OpenBabel11072415223D

 63 67  0  0  1  0  0  0  0  0999 V2000
  161.3560  209.8340  151.4990 C   0  0  1  0  0  0  0  0  0  0  0  0
  160.8850  211.2910  151.7310 C   0  0  1  0  0  3  0  0  0  0  0  0
  162.0480  210.7450  152.5110 C   0  0  0  0  0  2  0  0  0  0  0  0
  160.6550  208.6280  152.2540 C   0  0  2  0  0  0  0  0  0  0  0  0
  159.2700  208.7430  152.0310 O   0  0  0  0  0  1  0  0  0  0  0  0
  160.8500  208.6850  153.8210 C   0  0  2  0  0  0  0  0  0  0  0  0
  161.9690  209.6730  154.1830 C   0  0  0  0  0  1  0  0  0  0  0  0
  160.5580  206.9680  155.5320 O   0  0  0  0  0  0  0  0  0  0  0  0
  161.1550  207.2370  154.3130 C   0  0  0  0  0  3  0  0  0  0  0  0
  161.8820  207.2130  155.4920 O   0  0  0  0  0  0  0  0  0  0  0  0
  159.6090  209.1300  154.4030 O   0  0  0  0  0  0  0  0  0  0  0  0
  159.4210  210.2680  155.2090 C   0  0  0  0  0  0  0  0  0  0  0  0
  159.6530  210.2350  156.4450 O   0  0  0  0  0  0  0  0  0  0  0  0
  158.9800  211.4620  154.6410 O   0  0  0  0  0  0  0  0  0  0  0  0
  158.8960  212.6690  155.3890 C   0  0  0  0  0  2  0  0  0  0  0  0
  160.2390  212.9900  156.0160 C   0  0  0  0  0  1  0  0  0  0  0  0
  161.0420  207.2460  151.6270 C   0  0  2  0  0  3  0  0  0  0  0  0
  162.5450  206.8970  151.5400 C   0  0  2  0  0  3  0  0  0  0  0  0
  163.0120  206.0190  152.6850 C   0  0  0  0  0  1  0  0  0  0  0  0
  163.3100  208.0460  151.5440 F   0  0  0  0  0  0  0  0  0  0  0  0
  160.3930  207.0750  150.3930 O   0  0  0  0  0  0  0  0  0  0  0  0
  160.2490  204.6750  150.3020 C   0  0  0  0  0  2  0  0  0  0  0  0
  160.8740  204.7050  147.6270 N   0  0  0  0  0  0  0  0  0  0  0  0
  161.6090  203.6890  148.3860 C   0  0  0  0  0  2  0  0  0  0  0  0
  160.9750  205.9320  149.8290 C   0  0  1  0  0  3  0  0  0  0  0  0
  160.9440  206.0220  148.2900 C   0  0  0  0  0  2  0  0  0  0  0  0
  160.9140  203.4160  149.7260 C   0  0  0  0  0  2  0  0  0  0  0  0
  161.4170  204.8040  146.2690 C   0  0  0  0  0  2  0  0  0  0  0  0
  160.5240  205.5720  145.2990 C   0  0  0  0  0  2  0  0  0  0  0  0
  161.1490  205.6780  144.0560 O   0  0  0  0  0  1  0  0  0  0  0  0
  160.7140  213.1570  150.3050 O   0  0  0  0  0  0  0  0  0  0  0  0
  161.4360  212.2810  150.7570 C   0  0  0  0  0  3  0  0  0  0  0  0
  162.2690  209.5940  150.4440 O   0  0  0  0  0  0  0  0  0  0  0  0
  162.0430  208.6690  148.3710 O   0  0  0  0  0  1  0  0  0  0  0  0
  161.6600  209.7530  149.1760 C   0  0  2  0  0  3  0  0  0  0  0  0
  162.0460  210.9540  148.5520 O   0  0  0  0  0  0  0  0  0  0  0  0
  160.9420  211.3700  147.7980 C   0  0  0  0  0  2  0  0  0  0  0  0
  161.3470  212.4190  146.7730 C   0  0  0  0  0  2  0  0  0  0  0  0
  160.2650  212.6040  145.7260 C   0  0  0  0  0  2  0  0  0  0  0  0
  161.6530  213.8630  144.2640 O   0  0  0  0  0  0  0  0  0  0  0  0
  160.8940  212.8690  144.4010 C   0  0  0  0  0  0  0  0  0  0  0  0
  160.6360  212.0250  143.3190 O   0  0  0  0  0  0  0  0  0  0  0  0
  161.5400  211.9410  142.2230 C   0  0  0  0  0  2  0  0  0  0  0  0
  160.8520  212.0940  141.0150 O   0  0  0  0  0  0  0  0  0  0  0  0
  161.8240  212.2560  140.0160 C   0  0  1  0  0  3  0  0  0  0  0  0
  163.4860  210.5100  139.3390 O   0  0  0  0  0  0  0  0  0  0  0  0
  162.2220  210.2600  137.4840 O   0  0  0  0  0  0  0  0  0  0  0  0
  162.1870  210.9040  139.3680 C   0  0  1  0  0  0  0  0  0  0  0  0
  161.2950  210.0840  138.5240 C   0  0  0  0  0  2  0  0  0  0  0  0
  163.0020  211.1310  138.2010 N   0  0  1  0  0  0  0  0  0  0  0  0
  161.3930  213.3430  139.0150 C   0  0  1  0  0  3  0  0  0  0  0  0
  159.7830  214.4260  140.3580 O   0  0  0  0  0  0  0  0  0  0  0  0
  160.0130  213.8870  139.2820 C   0  0  0  0  0  0  0  0  0  0  0  0
  158.9110  213.7230  138.2770 C   0  0  0  0  0  2  0  0  0  0  0  0
  157.5810  213.3810  138.9380 C   0  0  0  0  0  2  0  0  0  0  0  0
  157.5240  211.9090  139.3110 C   0  0  0  0  0  2  0  0  0  0  0  0
  157.0990  211.1710  138.2070 O   0  0  0  0  0  0  0  0  0  0  0  0
  154.7850  211.0440  137.6830 C   0  0  0  0  0  1  0  0  0  0  0  0
  156.0330  211.9000  137.6720 C   0  0  0  0  0  2  0  0  0  0  0  0
  162.3520  214.3950  138.9860 O   0  0  0  0  0  0  0  0  0  0  0  0
  163.5460  214.3350  139.7130 C   0  0  0  0  0  0  0  0  0  0  0  0
  163.5080  214.3820  140.9710 O   0  0  0  0  0  0  0  0  0  0  0  0
  164.8680  214.1960  139.0300 C   0  0  0  0  0  1  0  0  0  0  0  0
  1 33  1  6  0  0  0
  1  2  1  0  0  0  0
  1  4  1  0  0  0  0
  1  3  1  0  0  0  0
  2 32  1  6  0  0  0
  2  3  1  0  0  0  0
  4  5  1  6  0  0  0
  4  6  1  0  0  0  0
  6  7  1  1  0  0  0
  6  9  1  0  0  0  0
  6 11  1  0  0  0  0
  9 10  1  0  0  0  0
  9  8  1  0  0  0  0
 10  8  1  0  0  0  0
 11 12  1  0  0  0  0
 12 13  2  0  0  0  0
 14 12  1  0  0  0  0
 14 15  1  0  0  0  0
 15 16  1  0  0  0  0
 17 21  1  6  0  0  0
 17  4  1  0  0  0  0
 18 20  1  0  0  0  0
 18 17  1  0  0  0  0
 18 19  1  1  0  0  0
 23 26  1  0  0  0  0
 23 24  1  0  0  0  0
 24 27  1  0  0  0  0
 25 22  1  0  0  0  0
 25 21  1  1  0  0  0
 26 25  1  0  0  0  0
 27 22  1  0  0  0  0
 28 23  1  0  0  0  0
 29 28  1  0  0  0  0
 30 29  1  0  0  0  0
 31 32  2  0  0  0  0
 35 34  1  6  0  0  0
 35 33  1  0  0  0  0
 36 35  1  0  0  0  0
 37 36  1  0  0  0  0
 38 37  1  0  0  0  0
 39 38  1  0  0  0  0
 40 41  2  0  0  0  0
 41 39  1  0  0  0  0
 42 41  1  0  0  0  0
 43 42  1  0  0  0  0
 44 43  1  0  0  0  0
 45 44  1  1  0  0  0
 46 48  1  0  0  0  0
 47 49  1  0  0  0  0
 48 45  1  1  0  0  0
 49 48  1  0  0  0  0
 50 47  1  6  0  0  0
 50 46  1  0  0  0  0
 50 48  1  0  0  0  0
 51 60  1  1  0  0  0
 51 53  1  0  0  0  0
 51 45  1  0  0  0  0
 53 52  2  0  0  0  0
 54 55  1  0  0  0  0
 54 53  1  0  0  0  0
 55 56  1  0  0  0  0
 57 56  1  0  0  0  0
 59 58  1  0  0  0  0
 59 57  1  0  0  0  0
 60 61  1  0  0  0  0
 61 62  2  0  0  0  0
 63 61  1  0  0  0  0
M  END
>  <MODEL>
1

>  <REMARK>
 VINA RESULT:      -1.1      0.000      0.000
  Name = 
  35 active torsions:
  status: ('A' for Active; 'I' for Inactive)
    1  A    between atoms: C_1  and  O_8
    2  A    between atoms: C_3  and  C_17
    3  A    between atoms: C_3  and  C_29
    4  A    between atoms: C_3  and  C_57
    5  A    between atoms: C_6  and  C_23
    6  A    between atoms: C_6  and  C_60
    7  A    between atoms: C_7  and  O_8
    8  A    between atoms: C_7  and  O_42
    9  A    between atoms: C_10  and  C_57
   10  A    between atoms: O_15  and  C_47
   11  A    between atoms: O_15  and  C_57
   12  A    between atoms: C_16  and  C_48
   13  A    between atoms: C_17  and  C_31
   14  A    between atoms: C_17  and  O_42
   15  A    between atoms: O_18  and  C_24
   16  A    between atoms: O_18  and  C_32
   17  A    between atoms: C_19  and  O_28
   18  A    between atoms: C_19  and  C_48
   19  A    between atoms: C_19  and  C_61
   20  A    between atoms: C_20  and  C_32
   21  A    between atoms: C_20  and  C_43
   22  A    between atoms: O_21  and  C_36
   23  A    between atoms: O_21  and  C_59
   24  A    between atoms: C_23  and  C_61
   25  A    between atoms: C_24  and  O_30
   26  A    between atoms: N_25  and  C_44
   27  A    between atoms: C_27  and  C_44
   28  A    between atoms: O_28  and  C_33
   29  A    between atoms: C_29  and  O_41
   30  A    between atoms: O_30  and  C_48
   31  A    between atoms: C_36  and  C_43
   32  A    between atoms: O_37  and  C_38
   33  A    between atoms: O_37  and  C_60
   34  A    between atoms: C_39  and  C_45
   35  A    between atoms: O_41  and  C_59
                            x       y       z     vdW  Elec       q    Type
                         _______ _______ _______ _____ _____    ______ ____

>  <TORSDO>
F 35

$$$$
=
 OpenBabel11072415223D

 63 67  0  0  1  0  0  0  0  0999 V2000
  161.4490  209.5680  151.3320 C   0  0  1  0  0  0  0  0  0  0  0  0
  160.7720  210.8910  151.7700 C   0  0  1  0  0  3  0  0  0  0  0  0
  161.9830  210.3870  152.5060 C   0  0  0  0  0  2  0  0  0  0  0  0
  160.9060  208.1720  151.8540 C   0  0  2  0  0  0  0  0  0  0  0  0
  159.5130  208.1670  151.6630 O   0  0  0  0  0  1  0  0  0  0  0  0
  161.1340  207.9620  153.4040 C   0  0  2  0  0  0  0  0  0  0  0  0
  162.5390  208.4360  153.8040 C   0  0  0  0  0  1  0  0  0  0  0  0
  161.7040  206.0120  154.7560 O   0  0  0  0  0  0  0  0  0  0  0  0
  160.9070  206.4520  153.7160 C   0  0  0  0  0  3  0  0  0  0  0  0
  162.0370  205.6820  153.4940 O   0  0  0  0  0  0  0  0  0  0  0  0
  160.1460  208.7430  154.1030 O   0  0  0  0  0  0  0  0  0  0  0  0
  159.7970  208.6300  155.4620 C   0  0  0  0  0  0  0  0  0  0  0  0
  159.1920  207.6160  155.8960 O   0  0  0  0  0  0  0  0  0  0  0  0
  160.1270  209.6480  156.3560 O   0  0  0  0  0  0  0  0  0  0  0  0
  160.2790  210.9990  155.9390 C   0  0  0  0  0  2  0  0  0  0  0  0
  158.9280  211.6870  155.8920 C   0  0  0  0  0  1  0  0  0  0  0  0
  161.4300  206.9820  150.9800 C   0  0  2  0  0  3  0  0  0  0  0  0
  162.9550  206.8780  150.7540 C   0  0  2  0  0  3  0  0  0  0  0  0
  163.3540  207.1310  149.3130 C   0  0  0  0  0  1  0  0  0  0  0  0
  163.4130  205.6250  151.1090 F   0  0  0  0  0  0  0  0  0  0  0  0
  160.7160  206.9180  149.7710 O   0  0  0  0  0  0  0  0  0  0  0  0
  160.3600  204.5470  149.5810 C   0  0  0  0  0  2  0  0  0  0  0  0
  160.8920  204.6490  146.8880 N   0  0  0  0  0  0  0  0  0  0  0  0
  161.5610  203.5380  147.5720 C   0  0  0  0  0  2  0  0  0  0  0  0
  161.1760  205.7580  149.1360 C   0  0  1  0  0  3  0  0  0  0  0  0
  161.0990  205.9230  147.6050 C   0  0  0  0  0  2  0  0  0  0  0  0
  160.8920  203.2640  148.9250 C   0  0  0  0  0  2  0  0  0  0  0  0
  161.3940  204.7640  145.5160 C   0  0  0  0  0  2  0  0  0  0  0  0
  162.8620  205.1740  145.4260 C   0  0  0  0  0  2  0  0  0  0  0  0
  163.6660  204.0410  145.2890 O   0  0  0  0  0  1  0  0  0  0  0  0
  160.3760  212.9290  150.6590 O   0  0  0  0  0  0  0  0  0  0  0  0
  161.2020  212.0920  150.9920 C   0  0  0  0  0  3  0  0  0  0  0  0
  162.4110  209.6290  150.2950 O   0  0  0  0  0  0  0  0  0  0  0  0
  162.2010  208.7760  148.1890 O   0  0  0  0  0  1  0  0  0  0  0  0
  161.8070  209.8290  149.0310 C   0  0  2  0  0  3  0  0  0  0  0  0
  162.1890  211.0530  148.4520 O   0  0  0  0  0  0  0  0  0  0  0  0
  161.0560  211.5350  147.7850 C   0  0  0  0  0  2  0  0  0  0  0  0
  161.4450  212.5250  146.6960 C   0  0  0  0  0  2  0  0  0  0  0  0
  160.2190  213.0370  145.9630 C   0  0  0  0  0  2  0  0  0  0  0  0
  161.0330  214.1660  144.0360 O   0  0  0  0  0  0  0  0  0  0  0  0
  160.5110  213.1210  144.5040 C   0  0  0  0  0  0  0  0  0  0  0  0
  160.1990  212.0510  143.6630 O   0  0  0  0  0  0  0  0  0  0  0  0
  160.7150  211.9860  142.3380 C   0  0  0  0  0  2  0  0  0  0  0  0
  159.6680  211.9180  141.4120 O   0  0  0  0  0  0  0  0  0  0  0  0
  160.2380  212.1110  140.1450 C   0  0  1  0  0  3  0  0  0  0  0  0
  160.2850  209.6080  140.1210 O   0  0  0  0  0  0  0  0  0  0  0  0
  162.3640  209.8180  139.2610 O   0  0  0  0  0  0  0  0  0  0  0  0
  160.6280  210.7650  139.4990 C   0  0  1  0  0  0  0  0  0  0  0  0
  161.5810  210.5870  138.3850 C   0  0  0  0  0  2  0  0  0  0  0  0
  161.5670  210.0760  140.3490 N   0  0  1  0  0  0  0  0  0  0  0  0
  159.3270  212.9920  139.2730 C   0  0  1  0  0  3  0  0  0  0  0  0
  158.1640  214.3860  140.7810 O   0  0  0  0  0  0  0  0  0  0  0  0
  158.0830  213.4570  139.9870 C   0  0  0  0  0  0  0  0  0  0  0  0
  156.7700  212.7600  139.7820 C   0  0  0  0  0  2  0  0  0  0  0  0
  156.3770  212.7020  138.3110 C   0  0  0  0  0  2  0  0  0  0  0  0
  155.5250  211.4770  138.0250 C   0  0  0  0  0  2  0  0  0  0  0  0
  154.6800  211.2420  139.1090 O   0  0  0  0  0  0  0  0  0  0  0  0
  155.3480  208.9800  138.8190 C   0  0  0  0  0  1  0  0  0  0  0  0
  154.1880  209.9490  138.9090 C   0  0  0  0  0  2  0  0  0  0  0  0
  160.0580  214.1020  138.7610 O   0  0  0  0  0  0  0  0  0  0  0  0
  161.4450  214.2140  138.9090 C   0  0  0  0  0  0  0  0  0  0  0  0
  162.1770  214.2280  137.8840 O   0  0  0  0  0  0  0  0  0  0  0  0
  162.0780  214.3370  140.2570 C   0  0  0  0  0  1  0  0  0  0  0  0
  1 33  1  6  0  0  0
  1  2  1  0  0  0  0
  1  4  1  0  0  0  0
  1  3  1  0  0  0  0
  2 32  1  6  0  0  0
  2  3  1  0  0  0  0
  4  5  1  6  0  0  0
  4  6  1  0  0  0  0
  6  9  1  0  0  0  0
  6  7  1  1  0  0  0
  6 11  1  0  0  0  0
  9  8  1  0  0  0  0
 10  9  1  0  0  0  0
 10  8  1  0  0  0  0
 11 12  1  0  0  0  0
 12 13  2  0  0  0  0
 12 14  1  0  0  0  0
 15 14  1  0  0  0  0
 16 15  1  0  0  0  0
 17 21  1  6  0  0  0
 17  4  1  0  0  0  0
 18 19  1  6  0  0  0
 18 17  1  0  0  0  0
 18 20  1  0  0  0  0
 23 24  1  0  0  0  0
 23 26  1  0  0  0  0
 24 27  1  0  0  0  0
 25 22  1  0  0  0  0
 25 21  1  1  0  0  0
 26 25  1  0  0  0  0
 27 22  1  0  0  0  0
 28 23  1  0  0  0  0
 29 28  1  0  0  0  0
 30 29  1  0  0  0  0
 31 32  2  0  0  0  0
 35 34  1  6  0  0  0
 35 33  1  0  0  0  0
 36 35  1  0  0  0  0
 37 36  1  0  0  0  0
 38 37  1  0  0  0  0
 39 38  1  0  0  0  0
 40 41  2  0  0  0  0
 41 39  1  0  0  0  0
 42 41  1  0  0  0  0
 43 42  1  0  0  0  0
 44 43  1  0  0  0  0
 45 44  1  1  0  0  0
 46 50  1  0  0  0  0
 48 46  1  0  0  0  0
 48 45  1  1  0  0  0
 48 50  1  0  0  0  0
 49 47  1  0  0  0  0
 49 48  1  0  0  0  0
 50 47  1  6  0  0  0
 51 60  1  1  0  0  0
 51 53  1  0  0  0  0
 51 45  1  0  0  0  0
 53 52  2  0  0  0  0
 54 53  1  0  0  0  0
 55 54  1  0  0  0  0
 56 55  1  0  0  0  0
 56 57  1  0  0  0  0
 58 59  1  0  0  0  0
 59 57  1  0  0  0  0
 60 61  1  0  0  0  0
 61 63  1  0  0  0  0
 62 61  2  0  0  0  0
M  END
>  <MODEL>
2

>  <REMARK>
 VINA RESULT:      -0.0      1.360      1.757
  Name = 
  35 active torsions:
  status: ('A' for Active; 'I' for Inactive)
    1  A    between atoms: C_1  and  O_8
    2  A    between atoms: C_3  and  C_17
    3  A    between atoms: C_3  and  C_29
    4  A    between atoms: C_3  and  C_57
    5  A    between atoms: C_6  and  C_23
    6  A    between atoms: C_6  and  C_60
    7  A    between atoms: C_7  and  O_8
    8  A    between atoms: C_7  and  O_42
    9  A    between atoms: C_10  and  C_57
   10  A    between atoms: O_15  and  C_47
   11  A    between atoms: O_15  and  C_57
   12  A    between atoms: C_16  and  C_48
   13  A    between atoms: C_17  and  C_31
   14  A    between atoms: C_17  and  O_42
   15  A    between atoms: O_18  and  C_24
   16  A    between atoms: O_18  and  C_32
   17  A    between atoms: C_19  and  O_28
   18  A    between atoms: C_19  and  C_48
   19  A    between atoms: C_19  and  C_61
   20  A    between atoms: C_20  and  C_32
   21  A    between atoms: C_20  and  C_43
   22  A    between atoms: O_21  and  C_36
   23  A    between atoms: O_21  and  C_59
   24  A    between atoms: C_23  and  C_61
   25  A    between atoms: C_24  and  O_30
   26  A    between atoms: N_25  and  C_44
   27  A    between atoms: C_27  and  C_44
   28  A    between atoms: O_28  and  C_33
   29  A    between atoms: C_29  and  O_41
   30  A    between atoms: O_30  and  C_48
   31  A    between atoms: C_36  and  C_43
   32  A    between atoms: O_37  and  C_38
   33  A    between atoms: O_37  and  C_60
   34  A    between atoms: C_39  and  C_45
   35  A    between atoms: O_41  and  C_59
                            x       y       z     vdW  Elec       q    Type
                         _______ _______ _______ _____ _____    ______ ____

>  <TORSDO>
F 35

$$$$
