=
 OpenBabel11072411463D

 53 55  0  0  1  0  0  0  0  0999 V2000
  161.4850  204.9880  147.2500 C   0  0  2  0  0  3  0  0  0  0  0  0
  163.1620  205.3260  143.6850 C   0  0  0  0  0  3  0  0  0  0  0  0
  163.4780  204.8520  145.2690 S   0  0  0  0  0  0  0  0  0  0  0  0
  161.8170  205.7070  143.6530 C   0  0  0  0  0  0  0  0  0  0  0  0
  161.9250  205.1540  145.8210 C   0  0  0  0  0  0  0  0  0  0  0  0
  161.1350  205.6140  144.8300 N   0  0  0  0  0  0  0  0  0  0  0  0
  161.1650  206.2100  142.4060 C   0  0  0  0  0  2  0  0  0  0  0  0
  162.0860  206.8760  141.5660 O   0  0  0  0  0  0  0  0  0  0  0  0
  161.4390  207.7800  140.6770 C   0  0  1  0  0  3  0  0  0  0  0  0
  161.9520  209.2250  140.6530 C   0  0  0  0  0  2  0  0  0  0  0  0
  161.8430  211.4940  138.5300 N   0  0  0  0  0  2  0  0  0  0  0  0
  160.8250  210.2170  140.3740 C   0  0  1  0  0  3  0  0  0  0  0  0
  162.8440  213.7780  138.9330 C   0  0  2  0  0  3  0  0  0  0  0  0
  160.5310  213.4250  138.4870 O   0  0  0  0  0  0  0  0  0  0  0  0
  162.4760  213.3180  141.3960 C   0  0  0  0  0  2  0  0  0  0  0  0
  160.8040  211.4280  141.3240 C   0  0  0  0  0  2  0  0  0  0  0  0
  163.4840  213.3500  140.2510 C   0  0  0  0  0  2  0  0  0  0  0  0
  161.6770  212.9070  138.6090 C   0  0  0  0  0  0  0  0  0  0  0  0
  162.1930  211.8790  141.7900 C   0  0  0  0  0  2  0  0  0  0  0  0
  160.7550  210.5970  138.8900 C   0  0  0  0  0  2  0  0  0  0  0  0
  163.7850  213.7210  137.9010 O   0  0  0  0  0  0  0  0  0  0  0  0
  165.0240  213.7870  138.5460 C   0  0  0  0  0  1  0  0  0  0  0  0
  161.3480  207.2060  139.2710 C   0  0  0  0  0  2  0  0  0  0  0  0
  162.4150  206.3230  139.0650 O   0  0  0  0  0  0  0  0  0  0  0  0
  162.9560  205.2420  137.0120 C   0  0  0  0  0  1  0  0  0  0  0  0
  162.8630  206.5660  137.7610 C   0  0  0  0  0  3  0  0  0  0  0  0
  161.8870  207.4860  137.0380 C   0  0  0  0  0  1  0  0  0  0  0  0
  161.0560  202.9140  148.6610 C   0  0  0  0  0  1  0  0  0  0  0  0
  160.6980  203.6670  147.3850 C   0  0  2  0  0  3  0  0  0  0  0  0
  160.9820  202.8060  146.2410 N   0  0  0  0  0  2  0  0  0  0  0  0
  160.1140  200.8880  145.2790 O   0  0  0  0  0  1  0  0  0  0  0  0
  160.6900  201.4350  146.2440 N   0  0  0  0  0  2  0  0  0  0  0  0
  161.3990  207.5410  147.3980 C   0  0  0  0  0  1  0  0  0  0  0  0
  160.7140  206.2280  147.7760 C   0  0  2  0  0  3  0  0  0  0  0  0
  160.6060  206.1710  149.3050 C   0  0  0  0  0  2  0  0  0  0  0  0
  161.9730  206.3160  149.9740 C   0  0  0  0  0  2  0  0  0  0  0  0
  161.2290  205.2140  152.4310 O   0  0  0  0  0  0  0  0  0  0  0  0
  161.8580  207.0890  151.2050 N   0  0  0  0  0  0  0  0  0  0  0  0
  161.3350  206.4730  152.3960 C   0  0  0  0  0  0  0  0  0  0  0  0
  161.0070  208.1230  156.5310 C   0  0  0  0  0  3  0  0  0  0  0  0
  160.9220  207.2600  153.5910 C   0  0  0  0  0  0  0  0  0  0  0  0
  161.1380  209.5800  154.5330 C   0  0  0  0  0  3  0  0  0  0  0  0
  162.4280  210.0760  156.6560 C   0  0  0  0  0  1  0  0  0  0  0  0
  160.8820  208.7370  153.5240 C   0  0  0  0  0  3  0  0  0  0  0  0
  161.4950  209.1980  155.9120 C   0  0  0  0  0  0  0  0  0  0  0  0
  159.9930  207.2150  155.9150 C   0  0  0  0  0  2  0  0  0  0  0  0
  160.5240  206.5840  154.6770 C   0  0  0  0  0  3  0  0  0  0  0  0
  162.4130  208.4370  151.1860 C   0  0  0  0  0  2  0  0  0  0  0  0
  161.9370  209.1900  149.9470 C   0  0  0  0  0  2  0  0  0  0  0  0
  162.4870  210.6030  149.9400 C   0  0  0  0  0  2  0  0  0  0  0  0
  161.7530  211.4260  148.8940 C   0  0  0  0  0  2  0  0  0  0  0  0
  162.7300  212.1410  148.0180 C   0  0  0  0  0  3  0  0  0  0  0  0
  162.5930  213.3970  147.7780 N   0  0  0  0  0  2  0  0  0  0  0  0
  1 29  1  6  0  0  0
  1 34  1  0  0  0  0
  2  3  1  0  0  0  0
  3  5  1  0  0  0  0
  4  2  2  0  0  0  0
  4  6  1  0  0  0  0
  5  1  1  0  0  0  0
  6  5  2  0  0  0  0
  7  4  1  0  0  0  0
  8  7  1  0  0  0  0
  9 23  1  6  0  0  0
  9  8  1  0  0  0  0
 10  9  1  0  0  0  0
 11 18  1  0  0  0  0
 11 20  1  0  0  0  0
 12 10  1  6  0  0  0
 12 16  1  0  0  0  0
 13 21  1  6  0  0  0
 13 17  1  0  0  0  0
 14 18  2  0  0  0  0
 15 19  1  0  0  0  0
 16 19  1  0  0  0  0
 17 15  1  0  0  0  0
 18 13  1  0  0  0  0
 20 12  1  0  0  0  0
 21 22  1  0  0  0  0
 24 23  1  0  0  0  0
 25 26  1  0  0  0  0
 26 24  1  0  0  0  0
 27 26  1  0  0  0  0
 29 28  1  1  0  0  0
 30 32  1  0  0  0  0
 30 29  1  0  0  0  0
 31 32  1  0  0  0  0
 34 33  1  1  0  0  0
 34 35  1  0  0  0  0
 35 36  1  0  0  0  0
 36 38  1  0  0  0  0
 38 39  1  0  0  0  0
 39 37  2  0  0  0  0
 39 41  1  0  0  0  0
 41 47  2  0  0  0  0
 42 45  1  0  0  0  0
 44 41  1  0  0  0  0
 44 42  2  0  0  0  0
 45 40  2  0  0  0  0
 45 43  1  0  0  0  0
 46 40  1  0  0  0  0
 47 46  1  0  0  0  0
 48 38  1  0  0  0  0
 49 48  1  0  0  0  0
 50 49  1  0  0  0  0
 51 50  1  0  0  0  0
 52 51  1  0  0  0  0
 53 52  2  0  0  0  0
M  END
>  <MODEL>
1

>  <REMARK>
 VINA RESULT:      -2.6      0.000      0.000
  Name = 
  23 active torsions:
  status: ('A' for Active; 'I' for Inactive)
    1  A    between atoms: N_6  and  N_40
    2  A    between atoms: N_6  and  C_50
    3  A    between atoms: C_7  and  C_10
    4  A    between atoms: C_7  and  O_51
    5  A    between atoms: C_11  and  C_32
    6  A    between atoms: C_11  and  O_45
    7  A    between atoms: C_12  and  C_17
    8  A    between atoms: C_13  and  C_26
    9  A    between atoms: C_13  and  N_33
   10  A    between atoms: C_15  and  C_34
   11  A    between atoms: C_15  and  C_39
   12  A    between atoms: C_16  and  O_18
   13  A    between atoms: C_17  and  C_32
   14  A    between atoms: C_19  and  C_28
   15  A    between atoms: C_19  and  C_36
   16  A    between atoms: C_20  and  C_49
   17  A    between atoms: C_22  and  O_45
   18  A    between atoms: C_26  and  C_34
   19  A    between atoms: C_28  and  C_37
   20  A    between atoms: C_30  and  C_36
   21  A    between atoms: C_32  and  O_51
   22  A    between atoms: N_33  and  C_37
   23  A    between atoms: C_36  and  C_50
                            x       y       z     vdW  Elec       q    Type
                         _______ _______ _______ _____ _____    ______ ____

>  <TORSDO>
F 23

$$$$
=
 OpenBabel11072411463D

 53 55  0  0  1  0  0  0  0  0999 V2000
  161.4840  210.3540  149.3630 C   0  0  2  0  0  3  0  0  0  0  0  0
  161.8690  213.2620  146.7120 C   0  0  0  0  0  3  0  0  0  0  0  0
  162.5400  212.6510  148.1300 S   0  0  0  0  0  0  0  0  0  0  0  0
  160.8250  212.3970  146.3700 C   0  0  0  0  0  0  0  0  0  0  0  0
  161.4880  211.3510  148.2370 C   0  0  0  0  0  0  0  0  0  0  0  0
  160.6130  211.3450  147.2110 N   0  0  0  0  0  0  0  0  0  0  0  0
  159.9720  212.6220  145.1640 C   0  0  0  0  0  2  0  0  0  0  0  0
  160.4490  213.6950  144.3790 O   0  0  0  0  0  0  0  0  0  0  0  0
  159.4250  214.2560  143.5630 C   0  0  1  0  0  3  0  0  0  0  0  0
  159.6460  214.2290  142.0460 C   0  0  0  0  0  2  0  0  0  0  0  0
  161.4500  212.2080  140.5180 N   0  0  0  0  0  2  0  0  0  0  0  0
  159.2670  212.8750  141.4480 C   0  0  1  0  0  3  0  0  0  0  0  0
  161.9220  212.4120  138.0460 C   0  0  2  0  0  3  0  0  0  0  0  0
  160.8490  210.5220  139.0190 O   0  0  0  0  0  0  0  0  0  0  0  0
  159.7100  213.6360  137.8960 C   0  0  0  0  0  2  0  0  0  0  0  0
  158.6020  212.9650  140.0630 C   0  0  0  0  0  2  0  0  0  0  0  0
  161.2290  213.7690  137.9470 C   0  0  0  0  0  2  0  0  0  0  0  0
  161.4020  211.6420  139.2120 C   0  0  0  0  0  0  0  0  0  0  0  0
  159.1080  214.1270  139.2010 C   0  0  0  0  0  2  0  0  0  0  0  0
  160.4320  211.8800  141.5080 C   0  0  0  0  0  2  0  0  0  0  0  0
  163.3040  212.5870  138.1650 O   0  0  0  0  0  0  0  0  0  0  0  0
  163.6000  213.6620  137.3200 C   0  0  0  0  0  1  0  0  0  0  0  0
  158.0570  213.6990  143.9300 C   0  0  0  0  0  2  0  0  0  0  0  0
  157.5720  214.3730  145.0570 O   0  0  0  0  0  0  0  0  0  0  0  0
  156.5510  213.9750  147.1710 C   0  0  0  0  0  1  0  0  0  0  0  0
  157.3770  213.3890  146.0330 C   0  0  0  0  0  3  0  0  0  0  0  0
  156.6350  212.2010  145.4330 C   0  0  0  0  0  1  0  0  0  0  0  0
  162.8080  210.1220  151.5240 C   0  0  0  0  0  1  0  0  0  0  0  0
  161.9690  211.0500  150.6530 C   0  0  2  0  0  3  0  0  0  0  0  0
  160.8190  211.5030  151.4300 N   0  0  0  0  0  2  0  0  0  0  0  0
  159.0260  212.9470  151.1880 O   0  0  0  0  0  1  0  0  0  0  0  0
  160.2630  212.7800  151.2690 N   0  0  0  0  0  2  0  0  0  0  0  0
  163.2170  209.2710  147.8230 C   0  0  0  0  0  1  0  0  0  0  0  0
  162.2800  209.0680  149.0140 C   0  0  2  0  0  3  0  0  0  0  0  0
  161.3130  207.9280  148.6680 C   0  0  0  0  0  2  0  0  0  0  0  0
  161.1140  206.9780  149.8490 C   0  0  0  0  0  2  0  0  0  0  0  0
  161.5600  206.1940  147.2050 O   0  0  0  0  0  0  0  0  0  0  0  0
  161.3970  205.6040  149.4490 N   0  0  0  0  0  0  0  0  0  0  0  0
  161.4770  205.2620  148.0540 C   0  0  0  0  0  0  0  0  0  0  0  0
  160.2680  201.0780  147.0720 C   0  0  0  0  0  3  0  0  0  0  0  0
  161.4720  203.8530  147.5730 C   0  0  0  0  0  0  0  0  0  0  0  0
  161.3760  202.5560  145.4220 C   0  0  0  0  0  3  0  0  0  0  0  0
  159.4160  201.0740  144.8080 C   0  0  0  0  0  1  0  0  0  0  0  0
  161.8640  203.5470  146.1800 C   0  0  0  0  0  3  0  0  0  0  0  0
  160.3630  201.5680  145.8350 C   0  0  0  0  0  0  0  0  0  0  0  0
  161.2220  201.4330  148.1660 C   0  0  0  0  0  2  0  0  0  0  0  0
  161.1780  202.8910  148.4590 C   0  0  0  0  0  3  0  0  0  0  0  0
  161.7160  204.6650  150.5180 C   0  0  0  0  0  2  0  0  0  0  0  0
  162.2410  205.4110  151.7410 C   0  0  0  0  0  2  0  0  0  0  0  0
  161.1370  205.6000  152.7630 C   0  0  0  0  0  2  0  0  0  0  0  0
  161.5750  206.6240  153.7970 C   0  0  0  0  0  2  0  0  0  0  0  0
  160.9120  207.9380  153.5380 C   0  0  0  0  0  3  0  0  0  0  0  0
  160.2020  208.5010  154.4500 N   0  0  0  0  0  2  0  0  0  0  0  0
  1 34  1  6  0  0  0
  1 29  1  0  0  0  0
  2  3  1  0  0  0  0
  3  5  1  0  0  0  0
  4  2  2  0  0  0  0
  4  6  1  0  0  0  0
  5  1  1  0  0  0  0
  6  5  2  0  0  0  0
  7  4  1  0  0  0  0
  8  7  1  0  0  0  0
  9 10  1  6  0  0  0
  9 23  1  0  0  0  0
  9  8  1  0  0  0  0
 11 20  1  0  0  0  0
 12 20  1  0  0  0  0
 12 10  1  6  0  0  0
 13 21  1  1  0  0  0
 13 18  1  0  0  0  0
 14 18  2  0  0  0  0
 15 17  1  0  0  0  0
 15 19  1  0  0  0  0
 16 12  1  0  0  0  0
 17 13  1  0  0  0  0
 18 11  1  0  0  0  0
 19 16  1  0  0  0  0
 22 21  1  0  0  0  0
 23 24  1  0  0  0  0
 24 26  1  0  0  0  0
 26 25  1  0  0  0  0
 27 26  1  0  0  0  0
 29 30  1  0  0  0  0
 29 28  1  1  0  0  0
 31 32  1  0  0  0  0
 32 30  1  0  0  0  0
 34 33  1  6  0  0  0
 35 34  1  0  0  0  0
 35 36  1  0  0  0  0
 37 39  2  0  0  0  0
 38 36  1  0  0  0  0
 38 48  1  0  0  0  0
 39 38  1  0  0  0  0
 40 46  1  0  0  0  0
 41 39  1  0  0  0  0
 41 47  2  0  0  0  0
 42 45  1  0  0  0  0
 42 44  2  0  0  0  0
 43 45  1  0  0  0  0
 44 41  1  0  0  0  0
 45 40  2  0  0  0  0
 46 47  1  0  0  0  0
 48 49  1  0  0  0  0
 49 50  1  0  0  0  0
 50 51  1  0  0  0  0
 52 51  1  0  0  0  0
 52 53  2  0  0  0  0
M  END
>  <MODEL>
2

>  <REMARK>
 VINA RESULT:      -2.5      3.378      7.677
  Name = 
  23 active torsions:
  status: ('A' for Active; 'I' for Inactive)
    1  A    between atoms: N_6  and  N_40
    2  A    between atoms: N_6  and  C_50
    3  A    between atoms: C_7  and  C_10
    4  A    between atoms: C_7  and  O_51
    5  A    between atoms: C_11  and  C_32
    6  A    between atoms: C_11  and  O_45
    7  A    between atoms: C_12  and  C_17
    8  A    between atoms: C_13  and  C_26
    9  A    between atoms: C_13  and  N_33
   10  A    between atoms: C_15  and  C_34
   11  A    between atoms: C_15  and  C_39
   12  A    between atoms: C_16  and  O_18
   13  A    between atoms: C_17  and  C_32
   14  A    between atoms: C_19  and  C_28
   15  A    between atoms: C_19  and  C_36
   16  A    between atoms: C_20  and  C_49
   17  A    between atoms: C_22  and  O_45
   18  A    between atoms: C_26  and  C_34
   19  A    between atoms: C_28  and  C_37
   20  A    between atoms: C_30  and  C_36
   21  A    between atoms: C_32  and  O_51
   22  A    between atoms: N_33  and  C_37
   23  A    between atoms: C_36  and  C_50
                            x       y       z     vdW  Elec       q    Type
                         _______ _______ _______ _____ _____    ______ ____

>  <TORSDO>
F 23

$$$$
=
 OpenBabel11072411463D

 53 55  0  0  1  0  0  0  0  0999 V2000
  161.7140  205.1810  147.6910 C   0  0  2  0  0  3  0  0  0  0  0  0
  163.0980  204.9620  143.9930 C   0  0  0  0  0  3  0  0  0  0  0  0
  163.4690  204.5530  145.5840 S   0  0  0  0  0  0  0  0  0  0  0  0
  161.8410  205.5720  144.0310 C   0  0  0  0  0  0  0  0  0  0  0  0
  162.0460  205.1640  146.2240 C   0  0  0  0  0  0  0  0  0  0  0  0
  161.2610  205.6850  145.2600 N   0  0  0  0  0  0  0  0  0  0  0  0
  161.1750  206.0930  142.7980 C   0  0  0  0  0  2  0  0  0  0  0  0
  162.1170  206.5460  141.8470 O   0  0  0  0  0  0  0  0  0  0  0  0
  161.6040  207.6130  141.0550 C   0  0  1  0  0  3  0  0  0  0  0  0
  162.3840  208.9330  141.0700 C   0  0  0  0  0  2  0  0  0  0  0  0
  163.3000  211.8460  140.4800 N   0  0  0  0  0  2  0  0  0  0  0  0
  161.9190  209.8730  139.9600 C   0  0  1  0  0  3  0  0  0  0  0  0
  162.3100  213.8450  141.6650 C   0  0  2  0  0  3  0  0  0  0  0  0
  162.2000  213.5380  139.3060 O   0  0  0  0  0  0  0  0  0  0  0  0
  160.2410  212.4190  141.9830 C   0  0  0  0  0  2  0  0  0  0  0  0
  160.5980  210.6020  140.2670 C   0  0  0  0  0  2  0  0  0  0  0  0
  161.5080  212.9740  142.6290 C   0  0  0  0  0  2  0  0  0  0  0  0
  162.6180  213.0950  140.4130 C   0  0  0  0  0  0  0  0  0  0  0  0
  160.3950  210.9260  141.7520 C   0  0  0  0  0  2  0  0  0  0  0  0
  163.0430  210.8050  139.4940 C   0  0  0  0  0  2  0  0  0  0  0  0
  163.4950  214.2680  142.2740 O   0  0  0  0  0  0  0  0  0  0  0  0
  163.4810  213.6650  143.5360 C   0  0  0  0  0  1  0  0  0  0  0  0
  161.3190  207.1590  139.6310 C   0  0  0  0  0  2  0  0  0  0  0  0
  162.4790  206.5920  139.0880 O   0  0  0  0  0  0  0  0  0  0  0  0
  161.9560  207.9050  137.1720 C   0  0  0  0  0  1  0  0  0  0  0  0
  162.2530  206.5110  137.7090 C   0  0  0  0  0  3  0  0  0  0  0  0
  163.4880  205.9540  137.0110 C   0  0  0  0  0  1  0  0  0  0  0  0
  160.7770  203.7200  149.5520 C   0  0  0  0  0  1  0  0  0  0  0  0
  160.9400  203.8930  148.0470 C   0  0  2  0  0  3  0  0  0  0  0  0
  161.6470  202.7310  147.5180 N   0  0  0  0  0  2  0  0  0  0  0  0
  160.4020  201.8520  145.7760 O   0  0  0  0  0  1  0  0  0  0  0  0
  160.9820  201.6810  146.8690 N   0  0  0  0  0  2  0  0  0  0  0  0
  160.0990  207.0400  146.9990 C   0  0  0  0  0  1  0  0  0  0  0  0
  160.9840  206.4830  148.1140 C   0  0  2  0  0  3  0  0  0  0  0  0
  162.0070  207.5610  148.4930 C   0  0  0  0  0  2  0  0  0  0  0  0
  162.5420  207.3590  149.9100 C   0  0  0  0  0  2  0  0  0  0  0  0
  162.3860  210.1460  149.8070 O   0  0  0  0  0  0  0  0  0  0  0  0
  161.7820  208.1620  150.8610 N   0  0  0  0  0  0  0  0  0  0  0  0
  161.8660  209.5980  150.8200 C   0  0  0  0  0  0  0  0  0  0  0  0
  159.2220  211.7190  153.7250 C   0  0  0  0  0  3  0  0  0  0  0  0
  161.3590  210.4620  151.9210 C   0  0  0  0  0  0  0  0  0  0  0  0
  161.2730  210.5250  154.4320 C   0  0  0  0  0  3  0  0  0  0  0  0
  159.1020  210.3680  155.7280 C   0  0  0  0  0  1  0  0  0  0  0  0
  161.9300  210.3380  153.2800 C   0  0  0  0  0  3  0  0  0  0  0  0
  159.8550  210.9040  154.5690 C   0  0  0  0  0  0  0  0  0  0  0  0
  159.8990  212.3890  152.5750 C   0  0  0  0  0  2  0  0  0  0  0  0
  160.4380  211.3880  151.6150 C   0  0  0  0  0  3  0  0  0  0  0  0
  160.8600  207.4440  151.7340 C   0  0  0  0  0  2  0  0  0  0  0  0
  161.5160  206.1760  152.2710 C   0  0  0  0  0  2  0  0  0  0  0  0
  161.5700  206.2060  153.7860 C   0  0  0  0  0  2  0  0  0  0  0  0
  160.4220  207.0500  154.3170 C   0  0  0  0  0  2  0  0  0  0  0  0
  160.3680  206.9710  155.8080 C   0  0  0  0  0  3  0  0  0  0  0  0
  161.3100  207.4780  156.5220 N   0  0  0  0  0  2  0  0  0  0  0  0
  1 29  1  6  0  0  0
  1 34  1  0  0  0  0
  2  4  2  0  0  0  0
  2  3  1  0  0  0  0
  3  5  1  0  0  0  0
  4  6  1  0  0  0  0
  5  1  1  0  0  0  0
  6  5  2  0  0  0  0
  7  4  1  0  0  0  0
  8  7  1  0  0  0  0
  9 23  1  6  0  0  0
  9 10  1  0  0  0  0
  9  8  1  0  0  0  0
 12 16  1  0  0  0  0
 12 10  1  1  0  0  0
 13 21  1  1  0  0  0
 13 17  1  0  0  0  0
 14 18  2  0  0  0  0
 15 17  1  0  0  0  0
 16 19  1  0  0  0  0
 18 11  1  0  0  0  0
 18 13  1  0  0  0  0
 19 15  1  0  0  0  0
 20 12  1  0  0  0  0
 20 11  1  0  0  0  0
 21 22  1  0  0  0  0
 24 23  1  0  0  0  0
 25 26  1  0  0  0  0
 26 24  1  0  0  0  0
 27 26  1  0  0  0  0
 29 28  1  1  0  0  0
 30 29  1  0  0  0  0
 31 32  1  0  0  0  0
 32 30  1  0  0  0  0
 34 33  1  6  0  0  0
 34 35  1  0  0  0  0
 35 36  1  0  0  0  0
 36 38  1  0  0  0  0
 37 39  2  0  0  0  0
 38 48  1  0  0  0  0
 39 38  1  0  0  0  0
 39 41  1  0  0  0  0
 40 45  2  0  0  0  0
 41 44  1  0  0  0  0
 42 45  1  0  0  0  0
 44 42  2  0  0  0  0
 45 43  1  0  0  0  0
 46 40  1  0  0  0  0
 47 41  2  0  0  0  0
 47 46  1  0  0  0  0
 48 49  1  0  0  0  0
 49 50  1  0  0  0  0
 50 51  1  0  0  0  0
 51 52  1  0  0  0  0
 52 53  2  0  0  0  0
M  END
>  <MODEL>
3

>  <REMARK>
 VINA RESULT:      -2.3      1.828      3.407
  Name = 
  23 active torsions:
  status: ('A' for Active; 'I' for Inactive)
    1  A    between atoms: N_6  and  N_40
    2  A    between atoms: N_6  and  C_50
    3  A    between atoms: C_7  and  C_10
    4  A    between atoms: C_7  and  O_51
    5  A    between atoms: C_11  and  C_32
    6  A    between atoms: C_11  and  O_45
    7  A    between atoms: C_12  and  C_17
    8  A    between atoms: C_13  and  C_26
    9  A    between atoms: C_13  and  N_33
   10  A    between atoms: C_15  and  C_34
   11  A    between atoms: C_15  and  C_39
   12  A    between atoms: C_16  and  O_18
   13  A    between atoms: C_17  and  C_32
   14  A    between atoms: C_19  and  C_28
   15  A    between atoms: C_19  and  C_36
   16  A    between atoms: C_20  and  C_49
   17  A    between atoms: C_22  and  O_45
   18  A    between atoms: C_26  and  C_34
   19  A    between atoms: C_28  and  C_37
   20  A    between atoms: C_30  and  C_36
   21  A    between atoms: C_32  and  O_51
   22  A    between atoms: N_33  and  C_37
   23  A    between atoms: C_36  and  C_50
                            x       y       z     vdW  Elec       q    Type
                         _______ _______ _______ _____ _____    ______ ____

>  <TORSDO>
F 23

$$$$
=
 OpenBabel11072411463D

 53 55  0  0  1  0  0  0  0  0999 V2000
  162.1310  208.9920  149.3240 C   0  0  2  0  0  3  0  0  0  0  0  0
  160.9940  212.2980  147.4780 C   0  0  0  0  0  3  0  0  0  0  0  0
  161.0560  210.6250  147.3030 S   0  0  0  0  0  0  0  0  0  0  0  0
  161.5180  212.5770  148.7440 C   0  0  0  0  0  0  0  0  0  0  0  0
  161.7350  210.3480  148.8090 C   0  0  0  0  0  0  0  0  0  0  0  0
  161.9280  211.5030  149.4780 N   0  0  0  0  0  0  0  0  0  0  0  0
  161.6440  213.9740  149.2600 C   0  0  0  0  0  2  0  0  0  0  0  0
  160.4780  214.3860  149.9440 O   0  0  0  0  0  0  0  0  0  0  0  0
  159.4060  213.4650  149.7720 C   0  0  1  0  0  3  0  0  0  0  0  0
  158.8430  212.8030  151.0360 C   0  0  0  0  0  2  0  0  0  0  0  0
  158.8560  211.6090  153.9070 N   0  0  0  0  0  2  0  0  0  0  0  0
  159.4910  213.3650  152.2990 C   0  0  1  0  0  3  0  0  0  0  0  0
  156.9570  211.9650  155.5330 C   0  0  2  0  0  3  0  0  0  0  0  0
  159.1900  212.6770  155.9570 O   0  0  0  0  0  0  0  0  0  0  0  0
  156.4830  214.0970  154.2500 C   0  0  0  0  0  2  0  0  0  0  0  0
  158.6530  214.4450  153.0080 C   0  0  0  0  0  2  0  0  0  0  0  0
  156.0820  212.6430  154.4810 C   0  0  0  0  0  2  0  0  0  0  0  0
  158.3980  212.0830  155.1700 C   0  0  0  0  0  0  0  0  0  0  0  0
  157.1390  214.2380  152.8880 C   0  0  0  0  0  2  0  0  0  0  0  0
  159.9770  212.2520  153.2340 C   0  0  0  0  0  2  0  0  0  0  0  0
  156.6020  210.6190  155.6560 O   0  0  0  0  0  0  0  0  0  0  0  0
  155.4720  210.4730  154.8460 C   0  0  0  0  0  1  0  0  0  0  0  0
  158.2940  214.0600  148.9210 C   0  0  0  0  0  2  0  0  0  0  0  0
  157.0660  213.5290  149.3320 O   0  0  0  0  0  0  0  0  0  0  0  0
  155.7410  214.1740  147.4610 C   0  0  0  0  0  1  0  0  0  0  0  0
  156.0960  214.4490  148.9170 C   0  0  0  0  0  3  0  0  0  0  0  0
  154.8440  214.3080  149.7750 C   0  0  0  0  0  1  0  0  0  0  0  0
  160.4050  207.1940  148.8080 C   0  0  0  0  0  1  0  0  0  0  0  0
  161.6580  207.9150  148.3240 C   0  0  2  0  0  3  0  0  0  0  0  0
  162.7160  206.9290  148.1250 N   0  0  0  0  0  2  0  0  0  0  0  0
  162.2160  205.0530  146.8650 O   0  0  0  0  0  1  0  0  0  0  0  0
  162.8060  206.1510  146.9630 N   0  0  0  0  0  2  0  0  0  0  0  0
  160.9970  209.9930  151.3880 C   0  0  0  0  0  1  0  0  0  0  0  0
  161.6420  208.7490  150.7770 C   0  0  2  0  0  3  0  0  0  0  0  0
  162.8220  208.3400  151.6680 C   0  0  0  0  0  2  0  0  0  0  0  0
  162.3490  207.7540  152.9980 C   0  0  0  0  0  2  0  0  0  0  0  0
  163.2200  205.8680  151.1300 O   0  0  0  0  0  0  0  0  0  0  0  0
  161.6970  206.4670  152.7840 N   0  0  0  0  0  0  0  0  0  0  0  0
  162.1250  205.6130  151.7070 C   0  0  0  0  0  0  0  0  0  0  0  0
  160.5320  202.1820  149.3370 C   0  0  0  0  0  3  0  0  0  0  0  0
  161.3320  204.4380  151.2530 C   0  0  0  0  0  0  0  0  0  0  0  0
  161.0720  201.9870  151.7450 C   0  0  0  0  0  3  0  0  0  0  0  0
  161.6830  200.1860  150.0720 C   0  0  0  0  0  1  0  0  0  0  0  0
  161.1790  203.2630  152.1390 C   0  0  0  0  0  3  0  0  0  0  0  0
  161.0720  201.5060  150.3510 C   0  0  0  0  0  0  0  0  0  0  0  0
  159.8110  203.4790  149.5100 C   0  0  0  0  0  2  0  0  0  0  0  0
  160.7150  204.5220  150.0660 C   0  0  0  0  0  3  0  0  0  0  0  0
  160.7120  206.0580  153.7790 C   0  0  0  0  0  2  0  0  0  0  0  0
  160.1200  207.2810  154.4730 C   0  0  0  0  0  2  0  0  0  0  0  0
  160.2910  207.1740  155.9750 C   0  0  0  0  0  2  0  0  0  0  0  0
  160.5530  208.5550  156.5550 C   0  0  0  0  0  2  0  0  0  0  0  0
  161.9860  208.9330  156.3640 C   0  0  0  0  0  3  0  0  0  0  0  0
  162.3610  210.1560  156.4970 N   0  0  0  0  0  2  0  0  0  0  0  0
  1 29  1  6  0  0  0
  1 34  1  0  0  0  0
  2  4  2  0  0  0  0
  3  2  1  0  0  0  0
  3  5  1  0  0  0  0
  4  7  1  0  0  0  0
  4  6  1  0  0  0  0
  5  1  1  0  0  0  0
  5  6  2  0  0  0  0
  7  8  1  0  0  0  0
  9 23  1  1  0  0  0
  9  8  1  0  0  0  0
  9 10  1  0  0  0  0
 11 18  1  0  0  0  0
 12 10  1  6  0  0  0
 12 16  1  0  0  0  0
 12 20  1  0  0  0  0
 13 21  1  6  0  0  0
 15 17  1  0  0  0  0
 17 13  1  0  0  0  0
 18 13  1  0  0  0  0
 18 14  2  0  0  0  0
 19 16  1  0  0  0  0
 19 15  1  0  0  0  0
 20 11  1  0  0  0  0
 22 21  1  0  0  0  0
 23 24  1  0  0  0  0
 25 26  1  0  0  0  0
 26 24  1  0  0  0  0
 26 27  1  0  0  0  0
 29 28  1  1  0  0  0
 30 29  1  0  0  0  0
 31 32  1  0  0  0  0
 32 30  1  0  0  0  0
 34 33  1  1  0  0  0
 34 35  1  0  0  0  0
 35 36  1  0  0  0  0
 37 39  2  0  0  0  0
 38 36  1  0  0  0  0
 38 48  1  0  0  0  0
 39 38  1  0  0  0  0
 40 46  1  0  0  0  0
 40 45  2  0  0  0  0
 41 39  1  0  0  0  0
 41 44  1  0  0  0  0
 42 44  2  0  0  0  0
 43 45  1  0  0  0  0
 45 42  1  0  0  0  0
 46 47  1  0  0  0  0
 47 41  2  0  0  0  0
 48 49  1  0  0  0  0
 49 50  1  0  0  0  0
 50 51  1  0  0  0  0
 52 53  2  0  0  0  0
 52 51  1  0  0  0  0
M  END
>  <MODEL>
4

>  <REMARK>
 VINA RESULT:      -2.2      5.995     10.556
  Name = 
  23 active torsions:
  status: ('A' for Active; 'I' for Inactive)
    1  A    between atoms: N_6  and  N_40
    2  A    between atoms: N_6  and  C_50
    3  A    between atoms: C_7  and  C_10
    4  A    between atoms: C_7  and  O_51
    5  A    between atoms: C_11  and  C_32
    6  A    between atoms: C_11  and  O_45
    7  A    between atoms: C_12  and  C_17
    8  A    between atoms: C_13  and  C_26
    9  A    between atoms: C_13  and  N_33
   10  A    between atoms: C_15  and  C_34
   11  A    between atoms: C_15  and  C_39
   12  A    between atoms: C_16  and  O_18
   13  A    between atoms: C_17  and  C_32
   14  A    between atoms: C_19  and  C_28
   15  A    between atoms: C_19  and  C_36
   16  A    between atoms: C_20  and  C_49
   17  A    between atoms: C_22  and  O_45
   18  A    between atoms: C_26  and  C_34
   19  A    between atoms: C_28  and  C_37
   20  A    between atoms: C_30  and  C_36
   21  A    between atoms: C_32  and  O_51
   22  A    between atoms: N_33  and  C_37
   23  A    between atoms: C_36  and  C_50
                            x       y       z     vdW  Elec       q    Type
                         _______ _______ _______ _____ _____    ______ ____

>  <TORSDO>
F 23

$$$$
=
 OpenBabel11072411463D

 53 55  0  0  1  0  0  0  0  0999 V2000
  161.4460  204.4150  147.5750 C   0  0  2  0  0  3  0  0  0  0  0  0
  163.3260  205.2910  144.2090 C   0  0  0  0  0  3  0  0  0  0  0  0
  163.5830  204.7220  145.7730 S   0  0  0  0  0  0  0  0  0  0  0  0
  161.9490  205.4920  144.0890 C   0  0  0  0  0  0  0  0  0  0  0  0
  161.9660  204.7650  146.2080 C   0  0  0  0  0  0  0  0  0  0  0  0
  161.1980  205.2040  145.1910 N   0  0  0  0  0  0  0  0  0  0  0  0
  161.3290  206.0150  142.8330 C   0  0  0  0  0  2  0  0  0  0  0  0
  162.3020  206.2840  141.8440 O   0  0  0  0  0  0  0  0  0  0  0  0
  161.7470  206.9630  140.7220 C   0  0  1  0  0  3  0  0  0  0  0  0
  161.3360  208.4270  140.9230 C   0  0  0  0  0  2  0  0  0  0  0  0
  162.0790  211.4440  141.0370 N   0  0  0  0  0  2  0  0  0  0  0  0
  161.8740  209.3190  139.8060 C   0  0  1  0  0  3  0  0  0  0  0  0
  160.3620  213.2750  140.7570 C   0  0  2  0  0  3  0  0  0  0  0  0
  162.2300  213.0020  139.3030 O   0  0  0  0  0  0  0  0  0  0  0  0
  159.0290  211.5880  139.4200 C   0  0  0  0  0  2  0  0  0  0  0  0
  160.7880  209.8650  138.8620 C   0  0  0  0  0  2  0  0  0  0  0  0
  159.1970  212.2900  140.7640 C   0  0  0  0  0  2  0  0  0  0  0  0
  161.6210  212.5960  140.3340 C   0  0  0  0  0  0  0  0  0  0  0  0
  159.4420  210.1320  139.5450 C   0  0  0  0  0  2  0  0  0  0  0  0
  162.8210  210.3980  140.3450 C   0  0  0  0  0  2  0  0  0  0  0  0
  160.5240  213.8370  142.0270 O   0  0  0  0  0  0  0  0  0  0  0  0
  159.6850  213.0860  142.8560 C   0  0  0  0  0  1  0  0  0  0  0  0
  162.6240  206.8030  139.4880 C   0  0  0  0  0  2  0  0  0  0  0  0
  162.0370  205.8700  138.6250 O   0  0  0  0  0  0  0  0  0  0  0  0
  161.1320  207.3700  137.0110 C   0  0  0  0  0  1  0  0  0  0  0  0
  162.2360  206.3710  137.3330 C   0  0  0  0  0  3  0  0  0  0  0  0
  163.5880  207.0690  137.2480 C   0  0  0  0  0  1  0  0  0  0  0  0
  160.6010  202.3450  148.7930 C   0  0  0  0  0  1  0  0  0  0  0  0
  160.6100  203.1200  147.4800 C   0  0  2  0  0  3  0  0  0  0  0  0
  161.1540  202.2590  146.4340 N   0  0  0  0  0  2  0  0  0  0  0  0
  159.7350  201.9280  144.6360 O   0  0  0  0  0  1  0  0  0  0  0  0
  160.3380  201.4570  145.6250 N   0  0  0  0  0  2  0  0  0  0  0  0
  160.3060  206.6780  147.2280 C   0  0  0  0  0  1  0  0  0  0  0  0
  160.6890  205.5960  148.2380 C   0  0  2  0  0  3  0  0  0  0  0  0
  161.5650  206.2440  149.3170 C   0  0  0  0  0  2  0  0  0  0  0  0
  161.0470  205.9400  150.7230 C   0  0  0  0  0  2  0  0  0  0  0  0
  161.9260  206.0390  153.3730 O   0  0  0  0  0  0  0  0  0  0  0  0
  161.0360  207.1520  151.5340 N   0  0  0  0  0  0  0  0  0  0  0  0
  161.3760  207.0870  152.9300 C   0  0  0  0  0  0  0  0  0  0  0  0
  161.0470  209.6090  156.6000 C   0  0  0  0  0  3  0  0  0  0  0  0
  161.1100  208.2090  153.8730 C   0  0  0  0  0  0  0  0  0  0  0  0
  162.0440  210.4570  154.4980 C   0  0  0  0  0  3  0  0  0  0  0  0
  163.0680  210.9270  156.7660 C   0  0  0  0  0  1  0  0  0  0  0  0
  161.6500  209.5570  153.5880 C   0  0  0  0  0  3  0  0  0  0  0  0
  162.0020  210.2860  155.9610 C   0  0  0  0  0  0  0  0  0  0  0  0
  159.8750  208.9970  155.9040 C   0  0  0  0  0  2  0  0  0  0  0  0
  160.3150  207.9670  154.9240 C   0  0  0  0  0  3  0  0  0  0  0  0
  160.7990  208.4080  150.8300 C   0  0  0  0  0  2  0  0  0  0  0  0
  162.1240  209.0470  150.4250 C   0  0  0  0  0  2  0  0  0  0  0  0
  162.1130  209.4060  148.9520 C   0  0  0  0  0  2  0  0  0  0  0  0
  162.4990  210.8660  148.7830 C   0  0  0  0  0  2  0  0  0  0  0  0
  161.2750  211.7210  148.7160 C   0  0  0  0  0  3  0  0  0  0  0  0
  161.2530  212.8730  149.2860 N   0  0  0  0  0  2  0  0  0  0  0  0
  1 29  1  6  0  0  0
  1 34  1  0  0  0  0
  2  3  1  0  0  0  0
  3  5  1  0  0  0  0
  4  2  2  0  0  0  0
  4  6  1  0  0  0  0
  5  1  1  0  0  0  0
  6  5  2  0  0  0  0
  7  4  1  0  0  0  0
  8  7  1  0  0  0  0
  9 23  1  6  0  0  0
  9 10  1  0  0  0  0
  9  8  1  0  0  0  0
 12 20  1  0  0  0  0
 12 10  1  1  0  0  0
 13 17  1  0  0  0  0
 13 21  1  1  0  0  0
 14 18  2  0  0  0  0
 15 19  1  0  0  0  0
 15 17  1  0  0  0  0
 16 19  1  0  0  0  0
 16 12  1  0  0  0  0
 18 13  1  0  0  0  0
 18 11  1  0  0  0  0
 20 11  1  0  0  0  0
 21 22  1  0  0  0  0
 24 23  1  0  0  0  0
 25 26  1  0  0  0  0
 26 24  1  0  0  0  0
 27 26  1  0  0  0  0
 29 28  1  1  0  0  0
 30 29  1  0  0  0  0
 31 32  1  0  0  0  0
 32 30  1  0  0  0  0
 34 33  1  6  0  0  0
 34 35  1  0  0  0  0
 35 36  1  0  0  0  0
 36 38  1  0  0  0  0
 38 39  1  0  0  0  0
 39 37  2  0  0  0  0
 39 41  1  0  0  0  0
 41 47  2  0  0  0  0
 42 45  1  0  0  0  0
 44 41  1  0  0  0  0
 44 42  2  0  0  0  0
 45 40  2  0  0  0  0
 45 43  1  0  0  0  0
 46 40  1  0  0  0  0
 47 46  1  0  0  0  0
 48 38  1  0  0  0  0
 49 48  1  0  0  0  0
 50 49  1  0  0  0  0
 51 50  1  0  0  0  0
 52 51  1  0  0  0  0
 52 53  2  0  0  0  0
M  END
>  <MODEL>
5

>  <REMARK>
 VINA RESULT:      -1.9      1.331      2.071
  Name = 
  23 active torsions:
  status: ('A' for Active; 'I' for Inactive)
    1  A    between atoms: N_6  and  N_40
    2  A    between atoms: N_6  and  C_50
    3  A    between atoms: C_7  and  C_10
    4  A    between atoms: C_7  and  O_51
    5  A    between atoms: C_11  and  C_32
    6  A    between atoms: C_11  and  O_45
    7  A    between atoms: C_12  and  C_17
    8  A    between atoms: C_13  and  C_26
    9  A    between atoms: C_13  and  N_33
   10  A    between atoms: C_15  and  C_34
   11  A    between atoms: C_15  and  C_39
   12  A    between atoms: C_16  and  O_18
   13  A    between atoms: C_17  and  C_32
   14  A    between atoms: C_19  and  C_28
   15  A    between atoms: C_19  and  C_36
   16  A    between atoms: C_20  and  C_49
   17  A    between atoms: C_22  and  O_45
   18  A    between atoms: C_26  and  C_34
   19  A    between atoms: C_28  and  C_37
   20  A    between atoms: C_30  and  C_36
   21  A    between atoms: C_32  and  O_51
   22  A    between atoms: N_33  and  C_37
   23  A    between atoms: C_36  and  C_50
                            x       y       z     vdW  Elec       q    Type
                         _______ _______ _______ _____ _____    ______ ____

>  <TORSDO>
F 23

$$$$
=
 OpenBabel11072411463D

 53 55  0  0  1  0  0  0  0  0999 V2000
  160.8210  205.3330  144.0040 C   0  0  2  0  0  3  0  0  0  0  0  0
  162.5810  205.8990  147.4990 C   0  0  0  0  0  3  0  0  0  0  0  0
  162.8620  205.3320  145.9390 S   0  0  0  0  0  0  0  0  0  0  0  0
  161.2530  206.3350  147.5210 C   0  0  0  0  0  0  0  0  0  0  0  0
  161.3140  205.6580  145.3870 C   0  0  0  0  0  0  0  0  0  0  0  0
  160.5530  206.2010  146.3590 N   0  0  0  0  0  0  0  0  0  0  0  0
  160.6230  206.8960  148.7550 C   0  0  0  0  0  2  0  0  0  0  0  0
  161.5300  207.6980  149.4860 O   0  0  0  0  0  0  0  0  0  0  0  0
  162.0520  207.0120  150.6190 C   0  0  1  0  0  3  0  0  0  0  0  0
  162.2710  207.8350  151.8950 C   0  0  0  0  0  2  0  0  0  0  0  0
  162.1460  210.3060  153.7790 N   0  0  0  0  0  2  0  0  0  0  0  0
  161.0910  208.7650  152.1720 C   0  0  1  0  0  3  0  0  0  0  0  0
  161.6980  210.1010  156.2560 C   0  0  2  0  0  3  0  0  0  0  0  0
  160.2930  211.3240  154.7720 O   0  0  0  0  0  0  0  0  0  0  0  0
  160.4890  207.9500  155.6880 C   0  0  0  0  0  2  0  0  0  0  0  0
  160.0930  208.2200  153.2090 C   0  0  0  0  0  2  0  0  0  0  0  0
  161.7730  208.5770  156.2220 C   0  0  0  0  0  2  0  0  0  0  0  0
  161.3460  210.6390  154.9100 C   0  0  0  0  0  0  0  0  0  0  0  0
  160.7370  207.3670  154.3080 C   0  0  0  0  0  2  0  0  0  0  0  0
  161.5510  210.2000  152.4540 C   0  0  0  0  0  2  0  0  0  0  0  0
  162.9200  210.6320  156.6800 O   0  0  0  0  0  0  0  0  0  0  0  0
  162.5920  211.8660  157.2510 C   0  0  0  0  0  1  0  0  0  0  0  0
  161.2650  205.7430  150.9130 C   0  0  0  0  0  2  0  0  0  0  0  0
  162.0950  204.6320  150.7200 O   0  0  0  0  0  0  0  0  0  0  0  0
  160.6460  204.1610  152.5500 C   0  0  0  0  0  1  0  0  0  0  0  0
  161.4940  203.5830  151.4250 C   0  0  0  0  0  3  0  0  0  0  0  0
  160.6060  202.7700  150.4910 C   0  0  0  0  0  1  0  0  0  0  0  0
  158.8300  203.7570  144.1740 C   0  0  0  0  0  1  0  0  0  0  0  0
  160.3370  203.8670  143.9730 C   0  0  2  0  0  3  0  0  0  0  0  0
  161.0040  203.1070  145.0260 N   0  0  0  0  0  2  0  0  0  0  0  0
  160.9010  200.9400  145.8330 O   0  0  0  0  0  1  0  0  0  0  0  0
  160.3680  202.0650  145.7150 N   0  0  0  0  0  2  0  0  0  0  0  0
  163.1450  206.2750  143.4970 C   0  0  0  0  0  1  0  0  0  0  0  0
  161.8720  205.6630  142.9110 C   0  0  2  0  0  3  0  0  0  0  0  0
  161.2880  206.6590  141.9020 C   0  0  0  0  0  2  0  0  0  0  0  0
  162.0590  206.6450  140.5820 C   0  0  0  0  0  2  0  0  0  0  0  0
  163.8000  208.7770  141.0620 O   0  0  0  0  0  0  0  0  0  0  0  0
  161.9550  207.9390  139.9180 N   0  0  0  0  0  0  0  0  0  0  0  0
  162.8050  209.0270  140.3230 C   0  0  0  0  0  0  0  0  0  0  0  0
  161.7380  212.6660  137.9660 C   0  0  0  0  0  3  0  0  0  0  0  0
  162.5620  210.4340  139.9010 C   0  0  0  0  0  0  0  0  0  0  0  0
  160.9150  212.2960  140.2720 C   0  0  0  0  0  3  0  0  0  0  0  0
  159.4220  213.1860  138.4300 C   0  0  0  0  0  1  0  0  0  0  0  0
  161.7070  211.3160  140.7260 C   0  0  0  0  0  3  0  0  0  0  0  0
  160.7520  212.6960  138.8630 C   0  0  0  0  0  0  0  0  0  0  0  0
  163.1400  212.2770  138.3070 C   0  0  0  0  0  2  0  0  0  0  0  0
  163.1990  210.8770  138.8070 C   0  0  0  0  0  3  0  0  0  0  0  0
  161.0610  208.0140  138.7680 C   0  0  0  0  0  2  0  0  0  0  0  0
  159.7820  208.7590  139.1370 C   0  0  0  0  0  2  0  0  0  0  0  0
  159.3480  209.6650  138.0010 C   0  0  0  0  0  2  0  0  0  0  0  0
  158.5110  208.8710  137.0120 C   0  0  0  0  0  2  0  0  0  0  0  0
  157.1330  208.6610  137.5510 C   0  0  0  0  0  3  0  0  0  0  0  0
  156.2190  209.5470  137.3660 N   0  0  0  0  0  2  0  0  0  0  0  0
  1 34  1  6  0  0  0
  1  5  1  0  0  0  0
  2  4  2  0  0  0  0
  3  2  1  0  0  0  0
  4  7  1  0  0  0  0
  5  3  1  0  0  0  0
  5  6  2  0  0  0  0
  6  4  1  0  0  0  0
  7  8  1  0  0  0  0
  8  9  1  0  0  0  0
  9 23  1  1  0  0  0
  9 10  1  0  0  0  0
 11 18  1  0  0  0  0
 12 10  1  1  0  0  0
 12 20  1  0  0  0  0
 12 16  1  0  0  0  0
 13 21  1  6  0  0  0
 14 18  2  0  0  0  0
 15 17  1  0  0  0  0
 16 19  1  0  0  0  0
 17 13  1  0  0  0  0
 18 13  1  0  0  0  0
 19 15  1  0  0  0  0
 20 11  1  0  0  0  0
 21 22  1  0  0  0  0
 24 23  1  0  0  0  0
 24 26  1  0  0  0  0
 26 25  1  0  0  0  0
 27 26  1  0  0  0  0
 29  1  1  0  0  0  0
 29 28  1  1  0  0  0
 29 30  1  0  0  0  0
 30 32  1  0  0  0  0
 32 31  1  0  0  0  0
 34 33  1  1  0  0  0
 35 34  1  0  0  0  0
 36 35  1  0  0  0  0
 38 39  1  0  0  0  0
 38 36  1  0  0  0  0
 39 37  2  0  0  0  0
 40 46  1  0  0  0  0
 40 45  2  0  0  0  0
 41 39  1  0  0  0  0
 41 44  1  0  0  0  0
 42 44  2  0  0  0  0
 43 45  1  0  0  0  0
 45 42  1  0  0  0  0
 46 47  1  0  0  0  0
 47 41  2  0  0  0  0
 48 49  1  0  0  0  0
 48 38  1  0  0  0  0
 50 49  1  0  0  0  0
 51 52  1  0  0  0  0
 51 50  1  0  0  0  0
 53 52  2  0  0  0  0
M  END
>  <MODEL>
6

>  <REMARK>
 VINA RESULT:      -1.3      2.455     12.352
  Name = 
  23 active torsions:
  status: ('A' for Active; 'I' for Inactive)
    1  A    between atoms: N_6  and  N_40
    2  A    between atoms: N_6  and  C_50
    3  A    between atoms: C_7  and  C_10
    4  A    between atoms: C_7  and  O_51
    5  A    between atoms: C_11  and  C_32
    6  A    between atoms: C_11  and  O_45
    7  A    between atoms: C_12  and  C_17
    8  A    between atoms: C_13  and  C_26
    9  A    between atoms: C_13  and  N_33
   10  A    between atoms: C_15  and  C_34
   11  A    between atoms: C_15  and  C_39
   12  A    between atoms: C_16  and  O_18
   13  A    between atoms: C_17  and  C_32
   14  A    between atoms: C_19  and  C_28
   15  A    between atoms: C_19  and  C_36
   16  A    between atoms: C_20  and  C_49
   17  A    between atoms: C_22  and  O_45
   18  A    between atoms: C_26  and  C_34
   19  A    between atoms: C_28  and  C_37
   20  A    between atoms: C_30  and  C_36
   21  A    between atoms: C_32  and  O_51
   22  A    between atoms: N_33  and  C_37
   23  A    between atoms: C_36  and  C_50
                            x       y       z     vdW  Elec       q    Type
                         _______ _______ _______ _____ _____    ______ ____

>  <TORSDO>
F 23

$$$$
=
 OpenBabel11072411463D

 53 55  0  0  1  0  0  0  0  0999 V2000
  160.7060  205.2850  144.1920 C   0  0  2  0  0  3  0  0  0  0  0  0
  161.9200  205.4570  147.9510 C   0  0  0  0  0  3  0  0  0  0  0  0
  161.5780  204.3750  146.7070 S   0  0  0  0  0  0  0  0  0  0  0  0
  161.7100  206.7340  147.4260 C   0  0  0  0  0  0  0  0  0  0  0  0
  161.1850  205.5610  145.5910 C   0  0  0  0  0  0  0  0  0  0  0  0
  161.3040  206.7940  146.1260 N   0  0  0  0  0  0  0  0  0  0  0  0
  161.8980  207.9700  148.2460 C   0  0  0  0  0  2  0  0  0  0  0  0
  161.9020  207.6840  149.6290 O   0  0  0  0  0  0  0  0  0  0  0  0
  161.6080  208.8350  150.4130 C   0  0  1  0  0  3  0  0  0  0  0  0
  161.7770  208.7100  151.9320 C   0  0  0  0  0  2  0  0  0  0  0  0
  160.4760  210.6280  154.0050 N   0  0  0  0  0  2  0  0  0  0  0  0
  160.4290  208.5790  152.6380 C   0  0  1  0  0  3  0  0  0  0  0  0
  161.0160  210.5290  156.4700 C   0  0  2  0  0  3  0  0  0  0  0  0
  158.8250  210.1920  155.5990 O   0  0  0  0  0  0  0  0  0  0  0  0
  161.5870  208.0930  156.0750 C   0  0  0  0  0  2  0  0  0  0  0  0
  160.4500  207.6490  153.8650 C   0  0  0  0  0  2  0  0  0  0  0  0
  162.1310  209.5060  156.2640 C   0  0  0  0  0  2  0  0  0  0  0  0
  160.0340  210.4670  155.3500 C   0  0  0  0  0  0  0  0  0  0  0  0
  161.7770  207.6590  154.6320 C   0  0  0  0  0  2  0  0  0  0  0  0
  159.7940  209.9470  152.9130 C   0  0  0  0  0  2  0  0  0  0  0  0
  161.5560  211.8150  156.5640 O   0  0  0  0  0  0  0  0  0  0  0  0
  160.4480  212.6550  156.7100 C   0  0  0  0  0  1  0  0  0  0  0  0
  162.3260  210.0670  149.8810 C   0  0  0  0  0  2  0  0  0  0  0  0
  161.5480  211.2020  150.1400 O   0  0  0  0  0  0  0  0  0  0  0  0
  161.3830  211.5460  147.7890 C   0  0  0  0  0  1  0  0  0  0  0  0
  161.8540  212.1130  149.1220 C   0  0  0  0  0  3  0  0  0  0  0  0
  161.1500  213.4390  149.3830 C   0  0  0  0  0  1  0  0  0  0  0  0
  158.6060  203.8830  144.5160 C   0  0  0  0  0  1  0  0  0  0  0  0
  160.0840  203.8720  144.1440 C   0  0  2  0  0  3  0  0  0  0  0  0
  160.7910  202.9910  145.0680 N   0  0  0  0  0  2  0  0  0  0  0  0
  160.5960  201.0550  146.3210 O   0  0  0  0  0  1  0  0  0  0  0  0
  160.4480  201.6410  145.2270 N   0  0  0  0  0  2  0  0  0  0  0  0
  163.1330  205.9680  143.7630 C   0  0  0  0  0  1  0  0  0  0  0  0
  161.8170  205.5120  143.1340 C   0  0  2  0  0  3  0  0  0  0  0  0
  161.3760  206.5820  142.1280 C   0  0  0  0  0  2  0  0  0  0  0  0
  162.0920  206.4270  140.7870 C   0  0  0  0  0  2  0  0  0  0  0  0
  163.7880  208.6200  141.1370 O   0  0  0  0  0  0  0  0  0  0  0  0
  161.9930  207.6580  140.0120 N   0  0  0  0  0  0  0  0  0  0  0  0
  162.8140  208.7900  140.3490 C   0  0  0  0  0  0  0  0  0  0  0  0
  161.2820  212.2210  137.9370 C   0  0  0  0  0  3  0  0  0  0  0  0
  162.5670  210.1520  139.8000 C   0  0  0  0  0  0  0  0  0  0  0  0
  161.3850  212.2850  140.4100 C   0  0  0  0  0  3  0  0  0  0  0  0
  159.3900  213.1580  139.1160 C   0  0  0  0  0  1  0  0  0  0  0  0
  162.1900  211.2570  140.7090 C   0  0  0  0  0  3  0  0  0  0  0  0
  160.7290  212.5230  139.1120 C   0  0  0  0  0  0  0  0  0  0  0  0
  162.6610  211.6610  137.8040 C   0  0  0  0  0  2  0  0  0  0  0  0
  162.7710  210.3450  138.4900 C   0  0  0  0  0  3  0  0  0  0  0  0
  161.1360  207.6210  138.8320 C   0  0  0  0  0  2  0  0  0  0  0  0
  160.0010  208.6320  138.9670 C   0  0  0  0  0  2  0  0  0  0  0  0
  159.3050  208.8320  137.6360 C   0  0  0  0  0  2  0  0  0  0  0  0
  158.4020  210.0520  137.7140 C   0  0  0  0  0  2  0  0  0  0  0  0
  157.5030  209.9550  138.9030 C   0  0  0  0  0  3  0  0  0  0  0  0
  156.3200  209.4650  138.7870 N   0  0  0  0  0  2  0  0  0  0  0  0
  1 34  1  6  0  0  0
  1  5  1  0  0  0  0
  3  2  1  0  0  0  0
  4  2  2  0  0  0  0
  4  7  1  0  0  0  0
  5  6  2  0  0  0  0
  5  3  1  0  0  0  0
  6  4  1  0  0  0  0
  7  8  1  0  0  0  0
  8  9  1  0  0  0  0
  9 23  1  6  0  0  0
  9 10  1  0  0  0  0
 11 18  1  0  0  0  0
 12 10  1  1  0  0  0
 12 20  1  0  0  0  0
 12 16  1  0  0  0  0
 13 21  1  6  0  0  0
 15 17  1  0  0  0  0
 16 19  1  0  0  0  0
 17 13  1  0  0  0  0
 18 14  2  0  0  0  0
 18 13  1  0  0  0  0
 19 15  1  0  0  0  0
 20 11  1  0  0  0  0
 21 22  1  0  0  0  0
 23 24  1  0  0  0  0
 25 26  1  0  0  0  0
 26 27  1  0  0  0  0
 26 24  1  0  0  0  0
 29  1  1  0  0  0  0
 29 28  1  1  0  0  0
 29 30  1  0  0  0  0
 30 32  1  0  0  0  0
 32 31  1  0  0  0  0
 34 33  1  1  0  0  0
 35 34  1  0  0  0  0
 36 35  1  0  0  0  0
 38 39  1  0  0  0  0
 38 36  1  0  0  0  0
 39 37  2  0  0  0  0
 40 45  2  0  0  0  0
 41 39  1  0  0  0  0
 41 44  1  0  0  0  0
 42 44  2  0  0  0  0
 45 43  1  0  0  0  0
 45 42  1  0  0  0  0
 46 40  1  0  0  0  0
 46 47  1  0  0  0  0
 47 41  2  0  0  0  0
 48 49  1  0  0  0  0
 48 38  1  0  0  0  0
 50 51  1  0  0  0  0
 50 49  1  0  0  0  0
 51 52  1  0  0  0  0
 53 52  2  0  0  0  0
M  END
>  <MODEL>
7

>  <REMARK>
 VINA RESULT:      -0.5      2.607     12.226
  Name = 
  23 active torsions:
  status: ('A' for Active; 'I' for Inactive)
    1  A    between atoms: N_6  and  N_40
    2  A    between atoms: N_6  and  C_50
    3  A    between atoms: C_7  and  C_10
    4  A    between atoms: C_7  and  O_51
    5  A    between atoms: C_11  and  C_32
    6  A    between atoms: C_11  and  O_45
    7  A    between atoms: C_12  and  C_17
    8  A    between atoms: C_13  and  C_26
    9  A    between atoms: C_13  and  N_33
   10  A    between atoms: C_15  and  C_34
   11  A    between atoms: C_15  and  C_39
   12  A    between atoms: C_16  and  O_18
   13  A    between atoms: C_17  and  C_32
   14  A    between atoms: C_19  and  C_28
   15  A    between atoms: C_19  and  C_36
   16  A    between atoms: C_20  and  C_49
   17  A    between atoms: C_22  and  O_45
   18  A    between atoms: C_26  and  C_34
   19  A    between atoms: C_28  and  C_37
   20  A    between atoms: C_30  and  C_36
   21  A    between atoms: C_32  and  O_51
   22  A    between atoms: N_33  and  C_37
   23  A    between atoms: C_36  and  C_50
                            x       y       z     vdW  Elec       q    Type
                         _______ _______ _______ _____ _____    ______ ____

>  <TORSDO>
F 23

$$$$
=
 OpenBabel11072411463D

 53 55  0  0  1  0  0  0  0  0999 V2000
  162.3570  209.7410  149.6690 C   0  0  2  0  0  3  0  0  0  0  0  0
  161.4040  207.2150  146.7800 C   0  0  0  0  0  3  0  0  0  0  0  0
  160.8930  208.6270  147.5400 S   0  0  0  0  0  0  0  0  0  0  0  0
  162.6010  206.8480  147.4020 C   0  0  0  0  0  0  0  0  0  0  0  0
  162.1890  208.6960  148.6000 C   0  0  0  0  0  0  0  0  0  0  0  0
  163.0340  207.6630  148.4060 N   0  0  0  0  0  0  0  0  0  0  0  0
  163.3570  205.6210  147.0070 C   0  0  0  0  0  2  0  0  0  0  0  0
  162.7790  204.9910  145.8810 O   0  0  0  0  0  0  0  0  0  0  0  0
  162.4680  203.6250  146.1360 C   0  0  1  0  0  3  0  0  0  0  0  0
  162.3310  203.2010  147.6040 C   0  0  0  0  0  2  0  0  0  0  0  0
  161.1660  204.8560  149.9650 N   0  0  0  0  0  2  0  0  0  0  0  0
  160.8830  203.2930  148.0810 C   0  0  1  0  0  3  0  0  0  0  0  0
  161.1920  204.0210  152.3490 C   0  0  2  0  0  3  0  0  0  0  0  0
  159.1890  204.5380  151.1670 O   0  0  0  0  0  0  0  0  0  0  0  0
  161.2200  201.6920  151.3540 C   0  0  0  0  0  2  0  0  0  0  0  0
  160.4470  202.1310  148.9910 C   0  0  0  0  0  2  0  0  0  0  0  0
  162.0440  202.8050  151.9950 C   0  0  0  0  0  2  0  0  0  0  0  0
  160.4530  204.5100  151.1490 C   0  0  0  0  0  0  0  0  0  0  0  0
  161.5670  201.5800  149.8800 C   0  0  0  0  0  2  0  0  0  0  0  0
  160.5590  204.6780  148.6530 C   0  0  0  0  0  2  0  0  0  0  0  0
  162.0000  205.0400  152.8620 O   0  0  0  0  0  0  0  0  0  0  0  0
  161.2110  205.6620  153.8350 C   0  0  0  0  0  1  0  0  0  0  0  0
  161.2700  203.1670  145.3180 C   0  0  0  0  0  2  0  0  0  0  0  0
  160.9750  201.8360  145.6380 O   0  0  0  0  0  0  0  0  0  0  0  0
  159.3100  202.7080  144.1750 C   0  0  0  0  0  1  0  0  0  0  0  0
  159.6770  201.6100  145.1650 C   0  0  0  0  0  3  0  0  0  0  0  0
  159.6070  200.2580  144.4660 C   0  0  0  0  0  1  0  0  0  0  0  0
  161.1820  207.8480  150.9000 C   0  0  0  0  0  1  0  0  0  0  0  0
  162.0100  209.1200  151.0400 C   0  0  2  0  0  3  0  0  0  0  0  0
  161.2570  210.0820  151.8390 N   0  0  0  0  0  2  0  0  0  0  0  0
  160.9530  210.4960  154.0960 O   0  0  0  0  0  1  0  0  0  0  0  0
  160.7430  209.7640  153.1040 N   0  0  0  0  0  2  0  0  0  0  0  0
  162.3960  212.0540  148.5760 C   0  0  0  0  0  1  0  0  0  0  0  0
  161.5620  211.0360  149.3540 C   0  0  2  0  0  3  0  0  0  0  0  0
  161.0980  211.6990  150.6570 C   0  0  0  0  0  2  0  0  0  0  0  0
  160.3950  213.0310  150.3950 C   0  0  0  0  0  2  0  0  0  0  0  0
  160.0310  213.4030  153.1400 O   0  0  0  0  0  0  0  0  0  0  0  0
  159.0880  213.0520  151.0420 N   0  0  0  0  0  0  0  0  0  0  0  0
  158.9950  213.1100  152.4760 C   0  0  0  0  0  0  0  0  0  0  0  0
  156.0070  212.0730  155.6270 C   0  0  0  0  0  3  0  0  0  0  0  0
  157.7260  212.8460  153.2090 C   0  0  0  0  0  0  0  0  0  0  0  0
  155.7910  214.0950  154.2140 C   0  0  0  0  0  3  0  0  0  0  0  0
  155.3360  214.1310  156.7060 C   0  0  0  0  0  1  0  0  0  0  0  0
  156.6510  213.8630  153.2150 C   0  0  0  0  0  3  0  0  0  0  0  0
  155.7380  213.3720  155.4980 C   0  0  0  0  0  0  0  0  0  0  0  0
  156.3350  211.1880  154.4690 C   0  0  0  0  0  2  0  0  0  0  0  0
  157.5750  211.6440  153.7830 C   0  0  0  0  0  3  0  0  0  0  0  0
  157.9260  213.1450  150.1650 C   0  0  0  0  0  2  0  0  0  0  0  0
  158.3670  213.2660  148.7100 C   0  0  0  0  0  2  0  0  0  0  0  0
  157.3120  213.9850  147.8920 C   0  0  0  0  0  2  0  0  0  0  0  0
  157.1460  213.2860  146.5530 C   0  0  0  0  0  2  0  0  0  0  0  0
  158.4330  212.6540  146.1350 C   0  0  0  0  0  3  0  0  0  0  0  0
  158.6440  212.3590  144.9010 N   0  0  0  0  0  2  0  0  0  0  0  0
  1 34  1  6  0  0  0
  1 29  1  0  0  0  0
  2  4  2  0  0  0  0
  2  3  1  0  0  0  0
  3  5  1  0  0  0  0
  4  6  1  0  0  0  0
  5  1  1  0  0  0  0
  6  5  2  0  0  0  0
  7  4  1  0  0  0  0
  8  9  1  0  0  0  0
  8  7  1  0  0  0  0
  9 23  1  6  0  0  0
  9 10  1  0  0  0  0
 11 18  1  0  0  0  0
 12 10  1  1  0  0  0
 12 20  1  0  0  0  0
 12 16  1  0  0  0  0
 13 21  1  6  0  0  0
 15 17  1  0  0  0  0
 16 19  1  0  0  0  0
 17 13  1  0  0  0  0
 18 14  2  0  0  0  0
 18 13  1  0  0  0  0
 19 15  1  0  0  0  0
 20 11  1  0  0  0  0
 21 22  1  0  0  0  0
 23 24  1  0  0  0  0
 25 26  1  0  0  0  0
 26 24  1  0  0  0  0
 27 26  1  0  0  0  0
 29 28  1  6  0  0  0
 29 30  1  0  0  0  0
 30 32  1  0  0  0  0
 32 31  1  0  0  0  0
 34 33  1  1  0  0  0
 34 35  1  0  0  0  0
 36 35  1  0  0  0  0
 36 38  1  0  0  0  0
 38 39  1  0  0  0  0
 39 37  2  0  0  0  0
 39 41  1  0  0  0  0
 41 44  1  0  0  0  0
 41 47  2  0  0  0  0
 42 45  1  0  0  0  0
 44 42  2  0  0  0  0
 45 40  2  0  0  0  0
 45 43  1  0  0  0  0
 46 40  1  0  0  0  0
 47 46  1  0  0  0  0
 48 38  1  0  0  0  0
 49 48  1  0  0  0  0
 50 49  1  0  0  0  0
 51 50  1  0  0  0  0
 52 51  1  0  0  0  0
 53 52  2  0  0  0  0
M  END
>  <MODEL>
8

>  <REMARK>
 VINA RESULT:      -0.4      5.372      9.292
  Name = 
  23 active torsions:
  status: ('A' for Active; 'I' for Inactive)
    1  A    between atoms: N_6  and  N_40
    2  A    between atoms: N_6  and  C_50
    3  A    between atoms: C_7  and  C_10
    4  A    between atoms: C_7  and  O_51
    5  A    between atoms: C_11  and  C_32
    6  A    between atoms: C_11  and  O_45
    7  A    between atoms: C_12  and  C_17
    8  A    between atoms: C_13  and  C_26
    9  A    between atoms: C_13  and  N_33
   10  A    between atoms: C_15  and  C_34
   11  A    between atoms: C_15  and  C_39
   12  A    between atoms: C_16  and  O_18
   13  A    between atoms: C_17  and  C_32
   14  A    between atoms: C_19  and  C_28
   15  A    between atoms: C_19  and  C_36
   16  A    between atoms: C_20  and  C_49
   17  A    between atoms: C_22  and  O_45
   18  A    between atoms: C_26  and  C_34
   19  A    between atoms: C_28  and  C_37
   20  A    between atoms: C_30  and  C_36
   21  A    between atoms: C_32  and  O_51
   22  A    between atoms: N_33  and  C_37
   23  A    between atoms: C_36  and  C_50
                            x       y       z     vdW  Elec       q    Type
                         _______ _______ _______ _____ _____    ______ ____

>  <TORSDO>
F 23

$$$$
=
 OpenBabel11072411463D

 53 55  0  0  1  0  0  0  0  0999 V2000
  161.4670  209.2370  149.4620 C   0  0  2  0  0  3  0  0  0  0  0  0
  162.9550  206.4130  147.1290 C   0  0  0  0  0  3  0  0  0  0  0  0
  163.3910  207.5600  148.2810 S   0  0  0  0  0  0  0  0  0  0  0  0
  161.5670  206.5070  146.9920 C   0  0  0  0  0  0  0  0  0  0  0  0
  161.8290  208.1080  148.5360 C   0  0  0  0  0  0  0  0  0  0  0  0
  160.9460  207.4420  147.7650 N   0  0  0  0  0  0  0  0  0  0  0  0
  160.8050  205.6490  146.0350 C   0  0  0  0  0  2  0  0  0  0  0  0
  161.6520  204.7470  145.3520 O   0  0  0  0  0  0  0  0  0  0  0  0
  161.8070  203.5210  146.0600 C   0  0  1  0  0  3  0  0  0  0  0  0
  161.8590  203.5990  147.5910 C   0  0  0  0  0  2  0  0  0  0  0  0
  160.8430  204.6720  150.3270 N   0  0  0  0  0  2  0  0  0  0  0  0
  160.4670  203.4740  148.2070 C   0  0  1  0  0  3  0  0  0  0  0  0
  161.1770  203.4080  152.4880 C   0  0  2  0  0  3  0  0  0  0  0  0
  159.0300  203.9640  151.6180 O   0  0  0  0  0  0  0  0  0  0  0  0
  161.2560  201.3200  151.0570 C   0  0  0  0  0  2  0  0  0  0  0  0
  160.2090  202.1280  148.9070 C   0  0  0  0  0  2  0  0  0  0  0  0
  162.0670  202.3590  151.8270 C   0  0  0  0  0  2  0  0  0  0  0  0
  160.2840  204.0490  151.4800 C   0  0  0  0  0  0  0  0  0  0  0  0
  161.4520  201.5180  149.5650 C   0  0  0  0  0  2  0  0  0  0  0  0
  160.1130  204.6930  149.0660 C   0  0  0  0  0  2  0  0  0  0  0  0
  161.9640  204.3780  153.1160 O   0  0  0  0  0  0  0  0  0  0  0  0
  161.4720  205.5970  152.6400 C   0  0  0  0  0  1  0  0  0  0  0  0
  160.7970  202.4820  145.5970 C   0  0  0  0  0  2  0  0  0  0  0  0
  161.2240  201.2120  146.0040 O   0  0  0  0  0  0  0  0  0  0  0  0
  160.9890  198.8930  145.5150 C   0  0  0  0  0  1  0  0  0  0  0  0
  160.7200  200.3180  145.0510 C   0  0  0  0  0  3  0  0  0  0  0  0
  159.2180  200.5210  144.8910 C   0  0  0  0  0  1  0  0  0  0  0  0
  161.9000  211.7130  149.8640 C   0  0  0  0  0  1  0  0  0  0  0  0
  161.9840  210.5640  148.8650 C   0  0  2  0  0  3  0  0  0  0  0  0
  161.1970  210.9130  147.6860 N   0  0  0  0  0  0  0  0  0  0  0  0
  160.2240  212.5330  146.3510 O   0  0  0  0  0  1  0  0  0  0  0  0
  161.0160  212.2400  147.2720 N   0  0  0  0  0  0  0  0  0  0  0  0
  162.4600  207.5570  151.1160 C   0  0  0  0  0  1  0  0  0  0  0  0
  161.9440  208.9820  150.9160 C   0  0  2  0  0  3  0  0  0  0  0  0
  160.7880  209.2090  151.8980 C   0  0  0  0  0  2  0  0  0  0  0  0
  161.2800  209.7740  153.2300 C   0  0  0  0  0  2  0  0  0  0  0  0
  161.5890  211.0800  155.6810 O   0  0  0  0  0  0  0  0  0  0  0  0
  160.3150  210.7270  153.7660 N   0  0  0  0  0  0  0  0  0  0  0  0
  160.4810  211.2500  155.0960 C   0  0  0  0  0  0  0  0  0  0  0  0
  157.3560  214.2350  156.2150 C   0  0  0  0  0  3  0  0  0  0  0  0
  159.4020  211.9880  155.8080 C   0  0  0  0  0  0  0  0  0  0  0  0
  156.9450  211.7940  156.3050 C   0  0  0  0  0  3  0  0  0  0  0  0
  155.2350  213.4210  155.3850 C   0  0  0  0  0  1  0  0  0  0  0  0
  158.1780  211.2750  156.2360 C   0  0  0  0  0  3  0  0  0  0  0  0
  156.5710  213.1830  155.9810 C   0  0  0  0  0  0  0  0  0  0  0  0
  158.6840  214.1280  156.8910 C   0  0  0  0  0  2  0  0  0  0  0  0
  159.6160  213.2770  156.1040 C   0  0  0  0  0  3  0  0  0  0  0  0
  159.2860  211.2020  152.8480 C   0  0  0  0  0  2  0  0  0  0  0  0
  159.5530  212.6510  152.4540 C   0  0  0  0  0  2  0  0  0  0  0  0
  158.2720  213.3250  152.0040 C   0  0  0  0  0  2  0  0  0  0  0  0
  158.6010  214.4260  151.0090 C   0  0  0  0  0  2  0  0  0  0  0  0
  159.1030  213.8370  149.7310 C   0  0  0  0  0  3  0  0  0  0  0  0
  158.2870  213.5560  148.7780 N   0  0  0  0  0  2  0  0  0  0  0  0
  1 29  1  6  0  0  0
  1 34  1  0  0  0  0
  2  3  1  0  0  0  0
  3  5  1  0  0  0  0
  4  2  2  0  0  0  0
  4  6  1  0  0  0  0
  5  1  1  0  0  0  0
  6  5  2  0  0  0  0
  7  4  1  0  0  0  0
  8  7  1  0  0  0  0
  8  9  1  0  0  0  0
  9 23  1  1  0  0  0
  9 10  1  0  0  0  0
 11 18  1  0  0  0  0
 12 10  1  1  0  0  0
 12 16  1  0  0  0  0
 12 20  1  0  0  0  0
 13 21  1  6  0  0  0
 15 17  1  0  0  0  0
 16 19  1  0  0  0  0
 17 13  1  0  0  0  0
 18 14  2  0  0  0  0
 18 13  1  0  0  0  0
 19 15  1  0  0  0  0
 20 11  1  0  0  0  0
 22 21  1  0  0  0  0
 23 24  1  0  0  0  0
 26 25  1  0  0  0  0
 26 24  1  0  0  0  0
 27 26  1  0  0  0  0
 29 28  1  1  0  0  0
 30 29  1  0  0  0  0
 31 32  1  0  0  0  0
 32 30  2  0  0  0  0
 34 33  1  6  0  0  0
 34 35  1  0  0  0  0
 35 36  1  0  0  0  0
 36 38  1  0  0  0  0
 38 39  1  0  0  0  0
 39 37  2  0  0  0  0
 39 41  1  0  0  0  0
 40 46  1  0  0  0  0
 41 47  2  0  0  0  0
 41 44  1  0  0  0  0
 43 45  1  0  0  0  0
 44 42  2  0  0  0  0
 45 40  2  0  0  0  0
 45 42  1  0  0  0  0
 47 46  1  0  0  0  0
 48 38  1  0  0  0  0
 49 48  1  0  0  0  0
 50 49  1  0  0  0  0
 51 50  1  0  0  0  0
 52 51  1  0  0  0  0
 53 52  2  0  0  0  0
M  END
>  <MODEL>
9

>  <REMARK>
 VINA RESULT:      -0.4      5.466      9.170
  Name = 
  23 active torsions:
  status: ('A' for Active; 'I' for Inactive)
    1  A    between atoms: N_6  and  N_40
    2  A    between atoms: N_6  and  C_50
    3  A    between atoms: C_7  and  C_10
    4  A    between atoms: C_7  and  O_51
    5  A    between atoms: C_11  and  C_32
    6  A    between atoms: C_11  and  O_45
    7  A    between atoms: C_12  and  C_17
    8  A    between atoms: C_13  and  C_26
    9  A    between atoms: C_13  and  N_33
   10  A    between atoms: C_15  and  C_34
   11  A    between atoms: C_15  and  C_39
   12  A    between atoms: C_16  and  O_18
   13  A    between atoms: C_17  and  C_32
   14  A    between atoms: C_19  and  C_28
   15  A    between atoms: C_19  and  C_36
   16  A    between atoms: C_20  and  C_49
   17  A    between atoms: C_22  and  O_45
   18  A    between atoms: C_26  and  C_34
   19  A    between atoms: C_28  and  C_37
   20  A    between atoms: C_30  and  C_36
   21  A    between atoms: C_32  and  O_51
   22  A    between atoms: N_33  and  C_37
   23  A    between atoms: C_36  and  C_50
                            x       y       z     vdW  Elec       q    Type
                         _______ _______ _______ _____ _____    ______ ____

>  <TORSDO>
F 23

$$$$
