=
 OpenBabel11072409493D

 49 53  0  0  1  0  0  0  0  0999 V2000
  161.2970  211.4270  148.1020 C   0  0  1  0  0  3  0  0  0  0  0  0
  162.7010  211.5060  148.1300 O   0  0  0  0  0  0  0  0  0  0  0  0
  162.0560  211.2570  149.3580 C   0  0  2  0  0  3  0  0  0  0  0  0
  160.7320  212.7650  148.0610 N   0  0  0  0  0  2  0  0  0  0  0  0
  160.0190  213.2260  146.9140 C   0  0  0  0  0  0  0  0  0  0  0  0
  159.5100  214.4530  146.9430 C   0  0  0  0  0  2  0  0  0  0  0  0
  159.9010  212.3850  145.7900 O   0  0  0  0  0  0  0  0  0  0  0  0
  161.9620  213.0960  144.4270 C   0  0  0  0  0  2  0  0  0  0  0  0
  162.3600  213.1110  142.6430 S   0  0  0  0  0  0  0  0  0  0  0  0
  160.8540  212.2400  142.3020 N   0  0  0  0  0  0  0  0  0  0  0  0
  160.5980  212.4900  144.5780 C   0  0  0  0  0  0  0  0  0  0  0  0
  160.0490  212.0560  143.4570 C   0  0  0  0  0  3  0  0  0  0  0  0
  158.8200  211.4010  139.2710 C   0  0  0  0  0  0  0  0  0  0  0  0
  161.4770  211.2170  140.1460 C   0  0  0  0  0  3  0  0  0  0  0  0
  160.4990  211.7540  141.0000 C   0  0  0  0  0  0  0  0  0  0  0  0
  159.8080  210.8750  138.4280 C   0  0  0  0  0  3  0  0  0  0  0  0
  161.1350  210.7740  138.8580 C   0  0  0  0  0  0  0  0  0  0  0  0
  159.1710  211.8400  140.5530 C   0  0  0  0  0  3  0  0  0  0  0  0
  155.1340  212.4270  139.1890 C   0  0  0  0  0  2  0  0  0  0  0  0
  155.2660  210.3310  138.3620 C   0  0  0  0  0  2  0  0  0  0  0  0
  154.6370  211.1190  139.3460 O   0  0  0  0  0  0  0  0  0  0  0  0
  157.4140  211.5110  138.7720 C   0  0  0  0  0  3  0  0  0  0  0  0
  156.5980  212.4850  139.6220 C   0  0  0  0  0  2  0  0  0  0  0  0
  156.7410  210.1430  138.7110 C   0  0  0  0  0  2  0  0  0  0  0  0
  162.0930  210.2380  137.9870 O   0  0  0  0  0  0  0  0  0  0  0  0
  161.9570  208.9600  137.3800 C   0  0  0  0  0  1  0  0  0  0  0  0
  162.1430  209.7820  149.6880 C   0  0  0  0  0  2  0  0  0  0  0  0
  162.6580  210.2460  151.9320 O   0  0  0  0  0  0  0  0  0  0  0  0
  161.9870  209.5770  151.1630 C   0  0  0  0  0  0  0  0  0  0  0  0
  161.0040  208.5720  151.6990 C   0  0  0  0  0  2  0  0  0  0  0  0
  162.8490  206.9650  151.0340 C   0  0  0  0  0  1  0  0  0  0  0  0
  161.3960  207.1080  151.4590 C   0  0  1  0  0  3  0  0  0  0  0  0
  161.0300  206.1330  152.5880 C   0  0  2  0  0  3  0  0  0  0  0  0
  160.4230  206.9780  154.7110 O   0  0  0  0  0  0  0  0  0  0  0  0
  161.3320  206.7090  153.9370 C   0  0  0  0  0  3  0  0  0  0  0  0
  161.6730  204.9010  152.4300 O   0  0  0  0  0  0  0  0  0  0  0  0
  160.6380  203.9570  152.3750 C   0  0  0  0  0  2  0  0  0  0  0  0
  162.1200  202.2470  151.4340 C   0  0  0  0  0  2  0  0  0  0  0  0
  160.9650  202.9010  151.3630 C   0  0  0  0  0  0  0  0  0  0  0  0
  160.0910  202.7270  150.1640 C   0  0  0  0  0  2  0  0  0  0  0  0
  160.9060  202.6520  148.9100 C   0  0  0  0  0  0  0  0  0  0  0  0
  161.4690  200.3500  147.9780 O   0  0  0  0  0  0  0  0  0  0  0  0
  161.1980  201.4690  148.4300 C   0  0  0  0  0  0  0  0  0  0  0  0
  162.5930  204.9850  146.4400 C   0  0  0  0  0  3  0  0  0  0  0  0
  161.1760  206.3000  147.9000 C   0  0  0  0  0  3  0  0  0  0  0  0
  162.2020  203.8230  147.1130 C   0  0  0  0  0  3  0  0  0  0  0  0
  160.7830  205.1410  148.5700 C   0  0  0  0  0  3  0  0  0  0  0  0
  161.2950  203.8870  148.1870 C   0  0  0  0  0  0  0  0  0  0  0  0
  162.0830  206.2230  146.8370 C   0  0  0  0  0  3  0  0  0  0  0  0
  1  4  1  1  0  0  0
  1  2  1  0  0  0  0
  1  3  1  0  0  0  0
  2  3  1  0  0  0  0
  3 27  1  6  0  0  0
  5  6  2  0  0  0  0
  5  4  1  0  0  0  0
  7  5  1  0  0  0  0
  8 11  1  0  0  0  0
  9  8  1  0  0  0  0
 10  9  1  0  0  0  0
 10 12  1  0  0  0  0
 11  7  1  0  0  0  0
 12 11  2  0  0  0  0
 13 18  1  0  0  0  0
 14 15  1  0  0  0  0
 15 10  1  0  0  0  0
 16 17  1  0  0  0  0
 16 13  2  0  0  0  0
 17 14  2  0  0  0  0
 18 15  2  0  0  0  0
 19 21  1  0  0  0  0
 19 23  1  0  0  0  0
 20 24  1  0  0  0  0
 20 21  1  0  0  0  0
 22 13  1  0  0  0  0
 22 23  1  0  0  0  0
 24 22  1  0  0  0  0
 25 17  1  0  0  0  0
 26 25  1  0  0  0  0
 27 29  1  0  0  0  0
 29 30  1  0  0  0  0
 29 28  2  0  0  0  0
 32 31  1  1  0  0  0
 32 30  1  0  0  0  0
 32 33  1  0  0  0  0
 33 35  1  1  0  0  0
 35 34  2  0  0  0  0
 36 33  1  0  0  0  0
 37 36  1  0  0  0  0
 39 38  2  0  0  0  0
 39 37  1  0  0  0  0
 40 39  1  0  0  0  0
 41 40  1  0  0  0  0
 42 43  2  0  0  0  0
 43 41  2  0  0  0  0
 44 49  2  0  0  0  0
 44 46  1  0  0  0  0
 45 47  2  0  0  0  0
 46 48  2  0  0  0  0
 48 47  1  0  0  0  0
 48 41  1  0  0  0  0
 49 45  1  0  0  0  0
M  END
>  <MODEL>
1

>  <REMARK>
 VINA RESULT:      -7.7      0.000      0.000
  Name = 
  19 active torsions:
  status: ('A' for Active; 'I' for Inactive)
    1  A    between atoms: O_1  and  C_6
    2  A    between atoms: O_1  and  C_10
    3  A    between atoms: C_2  and  N_25
    4  A    between atoms: C_2  and  O_36
    5  A    between atoms: C_4  and  C_44
    6  A    between atoms: C_6  and  C_20
    7  A    between atoms: C_6  and  C_47
    8  A    between atoms: C_7  and  C_28
    9  A    between atoms: C_7  and  C_48
   10  A    between atoms: C_10  and  C_39
   11  A    between atoms: C_14  and  N_25
   12  A    between atoms: O_15  and  C_30
   13  A    between atoms: N_16  and  C_18
   14  A    between atoms: C_19  and  O_36
   15  A    between atoms: C_20  and  C_26
   16  A    between atoms: C_26  and  C_29
   17  A    between atoms: C_29  and  C_40
   18  A    between atoms: C_32  and  C_40
   19  A    between atoms: C_39  and  C_48
                            x       y       z     vdW  Elec       q    Type
                         _______ _______ _______ _____ _____    ______ ____

>  <TORSDO>
F 19

$$$$
=
 OpenBabel11072409493D

 49 53  0  0  1  0  0  0  0  0999 V2000
  161.5360  211.5920  147.9930 C   0  0  1  0  0  3  0  0  0  0  0  0
  162.7220  212.0210  148.6140 O   0  0  0  0  0  0  0  0  0  0  0  0
  161.7660  211.3970  149.4380 C   0  0  2  0  0  3  0  0  0  0  0  0
  160.6490  212.7250  147.7970 N   0  0  0  0  0  2  0  0  0  0  0  0
  159.4620  212.6030  147.0140 C   0  0  0  0  0  0  0  0  0  0  0  0
  158.3210  213.0470  147.5300 C   0  0  0  0  0  2  0  0  0  0  0  0
  159.5410  212.0460  145.7230 O   0  0  0  0  0  0  0  0  0  0  0  0
  159.8740  214.1560  144.2920 C   0  0  0  0  0  2  0  0  0  0  0  0
  160.4560  214.4530  142.5850 S   0  0  0  0  0  0  0  0  0  0  0  0
  160.8880  212.7410  142.4370 N   0  0  0  0  0  0  0  0  0  0  0  0
  159.9770  212.6820  144.5520 C   0  0  0  0  0  0  0  0  0  0  0  0
  160.5070  211.9740  143.5700 C   0  0  0  0  0  3  0  0  0  0  0  0
  161.9000  210.3690  139.7190 C   0  0  0  0  0  0  0  0  0  0  0  0
  162.5310  212.9510  140.6090 C   0  0  0  0  0  3  0  0  0  0  0  0
  161.5710  212.1920  141.3010 C   0  0  0  0  0  0  0  0  0  0  0  0
  162.8490  211.1400  139.0360 C   0  0  0  0  0  3  0  0  0  0  0  0
  163.1750  212.4280  139.4760 C   0  0  0  0  0  0  0  0  0  0  0  0
  161.2640  210.9000  140.8490 C   0  0  0  0  0  3  0  0  0  0  0  0
  162.1910  206.5920  139.1750 C   0  0  0  0  0  2  0  0  0  0  0  0
  161.4680  207.4960  137.2380 C   0  0  0  0  0  2  0  0  0  0  0  0
  162.4740  206.6850  137.7990 O   0  0  0  0  0  0  0  0  0  0  0  0
  161.5620  209.0030  139.2110 C   0  0  0  0  0  3  0  0  0  0  0  0
  162.4470  207.9360  139.8550 C   0  0  0  0  0  2  0  0  0  0  0  0
  161.6540  208.9430  137.6880 C   0  0  0  0  0  2  0  0  0  0  0  0
  164.1320  213.1660  138.7670 O   0  0  0  0  0  0  0  0  0  0  0  0
  163.8810  213.7300  137.4870 C   0  0  0  0  0  1  0  0  0  0  0  0
  162.1680  209.9590  149.6860 C   0  0  0  0  0  2  0  0  0  0  0  0
  162.7880  210.0870  151.9480 O   0  0  0  0  0  0  0  0  0  0  0  0
  162.0040  209.6230  151.1360 C   0  0  0  0  0  0  0  0  0  0  0  0
  160.8770  208.7390  151.5980 C   0  0  0  0  0  2  0  0  0  0  0  0
  162.6490  206.9660  151.2140 C   0  0  0  0  0  1  0  0  0  0  0  0
  161.2430  207.2530  151.7160 C   0  0  1  0  0  3  0  0  0  0  0  0
  160.9830  206.6170  153.0910 C   0  0  2  0  0  3  0  0  0  0  0  0
  160.6710  207.4960  155.2630 O   0  0  0  0  0  0  0  0  0  0  0  0
  161.2840  207.5690  154.2070 C   0  0  0  0  0  3  0  0  0  0  0  0
  161.7090  205.4330  153.2520 O   0  0  0  0  0  0  0  0  0  0  0  0
  160.7900  204.4070  152.9900 C   0  0  0  0  0  2  0  0  0  0  0  0
  162.0020  202.8910  151.4930 C   0  0  0  0  0  2  0  0  0  0  0  0
  161.0590  203.8150  151.6390 C   0  0  0  0  0  0  0  0  0  0  0  0
  160.4120  204.4090  150.4290 C   0  0  0  0  0  2  0  0  0  0  0  0
  160.7640  203.6340  149.1970 C   0  0  0  0  0  0  0  0  0  0  0  0
  160.2250  201.1460  149.1460 O   0  0  0  0  0  0  0  0  0  0  0  0
  160.4890  202.3540  149.1690 C   0  0  0  0  0  0  0  0  0  0  0  0
  162.3900  204.2080  145.8180 C   0  0  0  0  0  3  0  0  0  0  0  0
  161.9400  206.3600  146.8330 C   0  0  0  0  0  3  0  0  0  0  0  0
  161.8350  203.5700  146.9330 C   0  0  0  0  0  3  0  0  0  0  0  0
  161.3840  205.7250  147.9440 C   0  0  0  0  0  3  0  0  0  0  0  0
  161.3280  204.3200  148.0100 C   0  0  0  0  0  0  0  0  0  0  0  0
  162.4460  205.6020  145.7720 C   0  0  0  0  0  3  0  0  0  0  0  0
  1  4  1  1  0  0  0
  1  2  1  0  0  0  0
  1  3  1  0  0  0  0
  2  3  1  0  0  0  0
  3 27  1  6  0  0  0
  5  6  2  0  0  0  0
  5  4  1  0  0  0  0
  7  5  1  0  0  0  0
  8 11  1  0  0  0  0
  9  8  1  0  0  0  0
 10  9  1  0  0  0  0
 10 12  1  0  0  0  0
 11  7  1  0  0  0  0
 12 11  2  0  0  0  0
 13 18  1  0  0  0  0
 14 15  1  0  0  0  0
 15 10  1  0  0  0  0
 16 17  1  0  0  0  0
 16 13  2  0  0  0  0
 17 14  2  0  0  0  0
 18 15  2  0  0  0  0
 19 23  1  0  0  0  0
 20 24  1  0  0  0  0
 20 21  1  0  0  0  0
 21 19  1  0  0  0  0
 22 13  1  0  0  0  0
 22 23  1  0  0  0  0
 24 22  1  0  0  0  0
 25 17  1  0  0  0  0
 26 25  1  0  0  0  0
 27 29  1  0  0  0  0
 29 30  1  0  0  0  0
 29 28  2  0  0  0  0
 30 32  1  0  0  0  0
 32 31  1  1  0  0  0
 32 33  1  0  0  0  0
 33 36  1  0  0  0  0
 33 35  1  1  0  0  0
 35 34  2  0  0  0  0
 37 36  1  0  0  0  0
 38 39  2  0  0  0  0
 39 37  1  0  0  0  0
 40 39  1  0  0  0  0
 41 40  1  0  0  0  0
 42 43  2  0  0  0  0
 43 41  2  0  0  0  0
 44 46  1  0  0  0  0
 45 47  2  0  0  0  0
 46 48  2  0  0  0  0
 47 48  1  0  0  0  0
 48 41  1  0  0  0  0
 49 44  2  0  0  0  0
 49 45  1  0  0  0  0
M  END
>  <MODEL>
2

>  <REMARK>
 VINA RESULT:      -7.7      2.424      2.986
  Name = 
  19 active torsions:
  status: ('A' for Active; 'I' for Inactive)
    1  A    between atoms: O_1  and  C_6
    2  A    between atoms: O_1  and  C_10
    3  A    between atoms: C_2  and  N_25
    4  A    between atoms: C_2  and  O_36
    5  A    between atoms: C_4  and  C_44
    6  A    between atoms: C_6  and  C_20
    7  A    between atoms: C_6  and  C_47
    8  A    between atoms: C_7  and  C_28
    9  A    between atoms: C_7  and  C_48
   10  A    between atoms: C_10  and  C_39
   11  A    between atoms: C_14  and  N_25
   12  A    between atoms: O_15  and  C_30
   13  A    between atoms: N_16  and  C_18
   14  A    between atoms: C_19  and  O_36
   15  A    between atoms: C_20  and  C_26
   16  A    between atoms: C_26  and  C_29
   17  A    between atoms: C_29  and  C_40
   18  A    between atoms: C_32  and  C_40
   19  A    between atoms: C_39  and  C_48
                            x       y       z     vdW  Elec       q    Type
                         _______ _______ _______ _____ _____    ______ ____

>  <TORSDO>
F 19

$$$$
=
 OpenBabel11072409493D

 49 53  0  0  1  0  0  0  0  0999 V2000
  162.0110  211.6310  148.0160 C   0  0  1  0  0  3  0  0  0  0  0  0
  163.0460  211.5760  148.9670 O   0  0  0  0  0  0  0  0  0  0  0  0
  161.8460  210.9160  149.2970 C   0  0  2  0  0  3  0  0  0  0  0  0
  161.3420  212.9190  148.0950 N   0  0  0  0  0  2  0  0  0  0  0  0
  160.0480  213.1100  147.5270 C   0  0  0  0  0  0  0  0  0  0  0  0
  159.1880  213.8900  148.1720 C   0  0  0  0  0  2  0  0  0  0  0  0
  159.7350  212.4950  146.2990 O   0  0  0  0  0  0  0  0  0  0  0  0
  161.5610  213.5850  144.8520 C   0  0  0  0  0  2  0  0  0  0  0  0
  161.9060  213.6190  143.0580 S   0  0  0  0  0  0  0  0  0  0  0  0
  160.6180  212.4310  142.7900 N   0  0  0  0  0  0  0  0  0  0  0  0
  160.3650  212.7040  145.0630 C   0  0  0  0  0  0  0  0  0  0  0  0
  159.8990  212.1200  143.9740 C   0  0  0  0  0  3  0  0  0  0  0  0
  160.9280  210.2260  139.7770 C   0  0  0  0  0  0  0  0  0  0  0  0
  159.2090  212.2010  140.7780 C   0  0  0  0  0  3  0  0  0  0  0  0
  160.3480  211.8320  141.5150 C   0  0  0  0  0  0  0  0  0  0  0  0
  159.7860  210.6000  139.0580 C   0  0  0  0  0  3  0  0  0  0  0  0
  158.9260  211.5900  139.5470 C   0  0  0  0  0  0  0  0  0  0  0  0
  161.2030  210.8430  141.0050 C   0  0  0  0  0  3  0  0  0  0  0  0
  162.2650  207.5940  137.3420 C   0  0  0  0  0  2  0  0  0  0  0  0
  162.5620  206.7900  139.4290 C   0  0  0  0  0  2  0  0  0  0  0  0
  161.9860  206.4970  138.1780 O   0  0  0  0  0  0  0  0  0  0  0  0
  161.8170  209.1520  139.2350 C   0  0  0  0  0  3  0  0  0  0  0  0
  161.4570  208.8120  137.7880 C   0  0  0  0  0  2  0  0  0  0  0  0
  161.7780  207.9060  140.1150 C   0  0  0  0  0  2  0  0  0  0  0  0
  157.7960  211.9380  138.7950 O   0  0  0  0  0  0  0  0  0  0  0  0
  157.6800  213.1720  138.0990 C   0  0  0  0  0  1  0  0  0  0  0  0
  162.0010  209.4290  149.0570 C   0  0  0  0  0  2  0  0  0  0  0  0
  161.9740  209.1600  151.3910 O   0  0  0  0  0  0  0  0  0  0  0  0
  161.6850  208.6730  150.3100 C   0  0  0  0  0  0  0  0  0  0  0  0
  161.0020  207.3330  150.2470 C   0  0  0  0  0  2  0  0  0  0  0  0
  163.2240  206.5540  151.1860 C   0  0  0  0  0  1  0  0  0  0  0  0
  161.7680  206.1960  150.9360 C   0  0  1  0  0  3  0  0  0  0  0  0
  161.0970  205.6140  152.1900 C   0  0  2  0  0  3  0  0  0  0  0  0
  160.6890  207.4010  153.6820 O   0  0  0  0  0  0  0  0  0  0  0  0
  161.3890  206.4360  153.4080 C   0  0  0  0  0  3  0  0  0  0  0  0
  161.4720  204.2830  152.4000 O   0  0  0  0  0  0  0  0  0  0  0  0
  160.3940  203.5230  151.9250 C   0  0  0  0  0  2  0  0  0  0  0  0
  161.9970  202.0180  150.8450 C   0  0  0  0  0  2  0  0  0  0  0  0
  160.8400  202.6670  150.7780 C   0  0  0  0  0  0  0  0  0  0  0  0
  160.0880  202.7080  149.4870 C   0  0  0  0  0  2  0  0  0  0  0  0
  160.9850  202.3830  148.3330 C   0  0  0  0  0  0  0  0  0  0  0  0
  161.5470  199.9390  147.8950 O   0  0  0  0  0  0  0  0  0  0  0  0
  161.2760  201.1270  148.1070 C   0  0  0  0  0  0  0  0  0  0  0  0
  161.7330  204.3220  145.1590 C   0  0  0  0  0  3  0  0  0  0  0  0
  162.5750  205.5810  147.0480 C   0  0  0  0  0  3  0  0  0  0  0  0
  161.2710  203.3300  146.0300 C   0  0  0  0  0  3  0  0  0  0  0  0
  162.1120  204.5930  147.9190 C   0  0  0  0  0  3  0  0  0  0  0  0
  161.4570  203.4520  147.4190 C   0  0  0  0  0  0  0  0  0  0  0  0
  162.3880  205.4440  145.6680 C   0  0  0  0  0  3  0  0  0  0  0  0
  1  4  1  1  0  0  0
  1  2  1  0  0  0  0
  1  3  1  0  0  0  0
  2  3  1  0  0  0  0
  3 27  1  6  0  0  0
  5  4  1  0  0  0  0
  5  6  2  0  0  0  0
  7  5  1  0  0  0  0
  8 11  1  0  0  0  0
  9  8  1  0  0  0  0
 10  9  1  0  0  0  0
 10 12  1  0  0  0  0
 11  7  1  0  0  0  0
 12 11  2  0  0  0  0
 13 18  1  0  0  0  0
 14 15  1  0  0  0  0
 15 10  1  0  0  0  0
 16 17  1  0  0  0  0
 16 13  2  0  0  0  0
 17 14  2  0  0  0  0
 18 15  2  0  0  0  0
 19 23  1  0  0  0  0
 19 21  1  0  0  0  0
 20 24  1  0  0  0  0
 21 20  1  0  0  0  0
 22 13  1  0  0  0  0
 22 24  1  0  0  0  0
 23 22  1  0  0  0  0
 25 17  1  0  0  0  0
 26 25  1  0  0  0  0
 27 29  1  0  0  0  0
 29 28  2  0  0  0  0
 30 29  1  0  0  0  0
 30 32  1  0  0  0  0
 32 31  1  1  0  0  0
 32 33  1  0  0  0  0
 33 36  1  0  0  0  0
 33 35  1  1  0  0  0
 35 34  2  0  0  0  0
 37 36  1  0  0  0  0
 39 38  2  0  0  0  0
 39 37  1  0  0  0  0
 40 39  1  0  0  0  0
 41 40  1  0  0  0  0
 42 43  2  0  0  0  0
 43 41  2  0  0  0  0
 44 49  2  0  0  0  0
 44 46  1  0  0  0  0
 45 47  2  0  0  0  0
 46 48  2  0  0  0  0
 48 47  1  0  0  0  0
 48 41  1  0  0  0  0
 49 45  1  0  0  0  0
M  END
>  <MODEL>
3

>  <REMARK>
 VINA RESULT:      -6.8      1.384      2.988
  Name = 
  19 active torsions:
  status: ('A' for Active; 'I' for Inactive)
    1  A    between atoms: O_1  and  C_6
    2  A    between atoms: O_1  and  C_10
    3  A    between atoms: C_2  and  N_25
    4  A    between atoms: C_2  and  O_36
    5  A    between atoms: C_4  and  C_44
    6  A    between atoms: C_6  and  C_20
    7  A    between atoms: C_6  and  C_47
    8  A    between atoms: C_7  and  C_28
    9  A    between atoms: C_7  and  C_48
   10  A    between atoms: C_10  and  C_39
   11  A    between atoms: C_14  and  N_25
   12  A    between atoms: O_15  and  C_30
   13  A    between atoms: N_16  and  C_18
   14  A    between atoms: C_19  and  O_36
   15  A    between atoms: C_20  and  C_26
   16  A    between atoms: C_26  and  C_29
   17  A    between atoms: C_29  and  C_40
   18  A    between atoms: C_32  and  C_40
   19  A    between atoms: C_39  and  C_48
                            x       y       z     vdW  Elec       q    Type
                         _______ _______ _______ _____ _____    ______ ____

>  <TORSDO>
F 19

$$$$
=
 OpenBabel11072409493D

 49 53  0  0  1  0  0  0  0  0999 V2000
  161.6510  207.5130  152.2770 C   0  0  1  0  0  3  0  0  0  0  0  0
  160.8670  206.7390  151.4030 O   0  0  0  0  0  0  0  0  0  0  0  0
  161.4220  207.9210  150.8760 C   0  0  2  0  0  3  0  0  0  0  0  0
  160.7870  208.2900  153.1500 N   0  0  0  0  0  2  0  0  0  0  0  0
  160.8440  208.1350  154.5670 C   0  0  0  0  0  0  0  0  0  0  0  0
  160.4640  206.9730  155.0870 C   0  0  0  0  0  2  0  0  0  0  0  0
  161.3220  209.1970  155.3590 O   0  0  0  0  0  0  0  0  0  0  0  0
  161.0170  211.4260  156.6060 C   0  0  0  0  0  2  0  0  0  0  0  0
  159.9910  212.9100  156.3180 S   0  0  0  0  0  0  0  0  0  0  0  0
  159.4940  212.2590  154.7460 N   0  0  0  0  0  0  0  0  0  0  0  0
  160.7810  210.4870  155.4600 C   0  0  0  0  0  0  0  0  0  0  0  0
  159.9850  210.9480  154.5110 C   0  0  0  0  0  3  0  0  0  0  0  0
  158.4320  213.9840  151.5950 C   0  0  0  0  0  0  0  0  0  0  0  0
  157.3840  213.3760  154.1230 C   0  0  0  0  0  3  0  0  0  0  0  0
  158.6980  212.9900  153.8030 C   0  0  0  0  0  0  0  0  0  0  0  0
  157.1220  214.3540  151.9250 C   0  0  0  0  0  3  0  0  0  0  0  0
  156.5930  214.0610  153.1870 C   0  0  0  0  0  0  0  0  0  0  0  0
  159.2140  213.3010  152.5360 C   0  0  0  0  0  3  0  0  0  0  0  0
  159.0250  213.6300  147.8300 C   0  0  0  0  0  2  0  0  0  0  0  0
  160.9530  214.3590  148.7480 C   0  0  0  0  0  2  0  0  0  0  0  0
  160.3980  213.3430  147.9460 O   0  0  0  0  0  0  0  0  0  0  0  0
  158.9600  214.2980  150.2310 C   0  0  0  0  0  3  0  0  0  0  0  0
  158.3260  213.3990  149.1690 C   0  0  0  0  0  2  0  0  0  0  0  0
  160.4830  214.1990  150.1930 C   0  0  0  0  0  2  0  0  0  0  0  0
  155.2800  214.4520  153.4800 O   0  0  0  0  0  0  0  0  0  0  0  0
  154.1410  213.8550  152.8730 C   0  0  0  0  0  1  0  0  0  0  0  0
  162.6500  207.5860  150.0570 C   0  0  0  0  0  2  0  0  0  0  0  0
  161.8270  208.8530  148.2580 O   0  0  0  0  0  0  0  0  0  0  0  0
  162.3760  207.8190  148.6030 C   0  0  0  0  0  0  0  0  0  0  0  0
  162.7850  206.8040  147.5710 C   0  0  0  0  0  2  0  0  0  0  0  0
  160.5550  205.7000  148.0580 C   0  0  0  0  0  1  0  0  0  0  0  0
  161.9970  205.4880  147.6270 C   0  0  1  0  0  3  0  0  0  0  0  0
  162.0980  204.6050  146.3730 C   0  0  2  0  0  3  0  0  0  0  0  0
  162.4540  205.8740  144.4100 O   0  0  0  0  0  0  0  0  0  0  0  0
  162.9600  205.2330  145.3210 C   0  0  0  0  0  3  0  0  0  0  0  0
  160.8340  204.3090  145.8520 O   0  0  0  0  0  0  0  0  0  0  0  0
  161.0330  203.1880  145.0350 C   0  0  0  0  0  2  0  0  0  0  0  0
  159.8970  201.0330  144.7610 C   0  0  0  0  0  2  0  0  0  0  0  0
  160.2570  202.0220  145.5720 C   0  0  0  0  0  0  0  0  0  0  0  0
  159.7150  202.0710  146.9640 C   0  0  0  0  0  2  0  0  0  0  0  0
  160.6580  201.4260  147.9310 C   0  0  0  0  0  0  0  0  0  0  0  0
  162.1000  199.4980  147.1010 O   0  0  0  0  0  0  0  0  0  0  0  0
  161.4000  200.4340  147.5060 C   0  0  0  0  0  0  0  0  0  0  0  0
  161.5150  201.6480  151.6200 C   0  0  0  0  0  3  0  0  0  0  0  0
  160.4850  203.7320  150.9400 C   0  0  0  0  0  3  0  0  0  0  0  0
  161.3890  201.1640  150.3140 C   0  0  0  0  0  3  0  0  0  0  0  0
  160.3620  203.2510  149.6360 C   0  0  0  0  0  3  0  0  0  0  0  0
  160.8100  201.9580  149.3070 C   0  0  0  0  0  0  0  0  0  0  0  0
  161.0580  202.9300  151.9330 C   0  0  0  0  0  3  0  0  0  0  0  0
  1  4  1  1  0  0  0
  2  1  1  0  0  0  0
  3 27  1  6  0  0  0
  3  2  1  0  0  0  0
  3  1  1  0  0  0  0
  4  5  1  0  0  0  0
  5  6  2  0  0  0  0
  5  7  1  0  0  0  0
  7 11  1  0  0  0  0
  9  8  1  0  0  0  0
 10  9  1  0  0  0  0
 11  8  1  0  0  0  0
 12 10  1  0  0  0  0
 12 11  2  0  0  0  0
 13 16  2  0  0  0  0
 13 18  1  0  0  0  0
 15 14  1  0  0  0  0
 15 10  1  0  0  0  0
 16 17  1  0  0  0  0
 17 25  1  0  0  0  0
 17 14  2  0  0  0  0
 18 15  2  0  0  0  0
 19 21  1  0  0  0  0
 19 23  1  0  0  0  0
 20 24  1  0  0  0  0
 21 20  1  0  0  0  0
 22 13  1  0  0  0  0
 23 22  1  0  0  0  0
 24 22  1  0  0  0  0
 26 25  1  0  0  0  0
 28 29  2  0  0  0  0
 29 27  1  0  0  0  0
 30 32  1  0  0  0  0
 30 29  1  0  0  0  0
 32 31  1  6  0  0  0
 33 35  1  6  0  0  0
 33 32  1  0  0  0  0
 34 35  2  0  0  0  0
 36 33  1  0  0  0  0
 37 39  1  0  0  0  0
 37 36  1  0  0  0  0
 38 39  2  0  0  0  0
 39 40  1  0  0  0  0
 40 41  1  0  0  0  0
 41 48  1  0  0  0  0
 42 43  2  0  0  0  0
 43 41  2  0  0  0  0
 44 49  1  0  0  0  0
 45 49  2  0  0  0  0
 46 44  2  0  0  0  0
 47 45  1  0  0  0  0
 48 47  2  0  0  0  0
 48 46  1  0  0  0  0
M  END
>  <MODEL>
4

>  <REMARK>
 VINA RESULT:      -5.6      5.821      9.420
  Name = 
  19 active torsions:
  status: ('A' for Active; 'I' for Inactive)
    1  A    between atoms: O_1  and  C_6
    2  A    between atoms: O_1  and  C_10
    3  A    between atoms: C_2  and  N_25
    4  A    between atoms: C_2  and  O_36
    5  A    between atoms: C_4  and  C_44
    6  A    between atoms: C_6  and  C_20
    7  A    between atoms: C_6  and  C_47
    8  A    between atoms: C_7  and  C_28
    9  A    between atoms: C_7  and  C_48
   10  A    between atoms: C_10  and  C_39
   11  A    between atoms: C_14  and  N_25
   12  A    between atoms: O_15  and  C_30
   13  A    between atoms: N_16  and  C_18
   14  A    between atoms: C_19  and  O_36
   15  A    between atoms: C_20  and  C_26
   16  A    between atoms: C_26  and  C_29
   17  A    between atoms: C_29  and  C_40
   18  A    between atoms: C_32  and  C_40
   19  A    between atoms: C_39  and  C_48
                            x       y       z     vdW  Elec       q    Type
                         _______ _______ _______ _____ _____    ______ ____

>  <TORSDO>
F 19

$$$$
=
 OpenBabel11072409493D

 49 53  0  0  1  0  0  0  0  0999 V2000
  159.1090  211.4480  153.7830 C   0  0  1  0  0  3  0  0  0  0  0  0
  160.1870  212.3460  153.8810 O   0  0  0  0  0  0  0  0  0  0  0  0
  160.4090  211.0360  154.3500 C   0  0  2  0  0  3  0  0  0  0  0  0
  158.1700  211.6920  154.8640 N   0  0  0  0  0  2  0  0  0  0  0  0
  157.9260  213.0140  155.3420 C   0  0  0  0  0  0  0  0  0  0  0  0
  157.7890  213.1930  156.6510 C   0  0  0  0  0  2  0  0  0  0  0  0
  157.8660  214.0800  154.4230 O   0  0  0  0  0  0  0  0  0  0  0  0
  155.5930  214.2510  153.2310 C   0  0  0  0  0  2  0  0  0  0  0  0
  155.0690  214.1750  151.4820 S   0  0  0  0  0  0  0  0  0  0  0  0
  156.7670  214.1640  150.9760 N   0  0  0  0  0  0  0  0  0  0  0  0
  157.0900  214.1490  153.2570 C   0  0  0  0  0  0  0  0  0  0  0  0
  157.6700  214.1040  152.0700 C   0  0  0  0  0  3  0  0  0  0  0  0
  158.9650  214.2030  147.9420 C   0  0  0  0  0  0  0  0  0  0  0  0
  156.2360  214.3220  148.5720 C   0  0  0  0  0  3  0  0  0  0  0  0
  157.1850  214.2310  149.6050 C   0  0  0  0  0  0  0  0  0  0  0  0
  158.0070  214.2860  146.9240 C   0  0  0  0  0  3  0  0  0  0  0  0
  156.6430  214.3520  147.2290 C   0  0  0  0  0  0  0  0  0  0  0  0
  158.5490  214.1740  149.2790 C   0  0  0  0  0  3  0  0  0  0  0  0
  162.0950  213.2500  145.9560 C   0  0  0  0  0  2  0  0  0  0  0  0
  162.6330  213.1520  148.1460 C   0  0  0  0  0  2  0  0  0  0  0  0
  162.6220  212.4050  146.9510 O   0  0  0  0  0  0  0  0  0  0  0  0
  160.4140  214.1160  147.5800 C   0  0  0  0  0  3  0  0  0  0  0  0
  160.6050  213.4830  146.2020 C   0  0  0  0  0  2  0  0  0  0  0  0
  161.2040  213.3590  148.6440 C   0  0  0  0  0  2  0  0  0  0  0  0
  155.7160  214.4390  146.1810 O   0  0  0  0  0  0  0  0  0  0  0  0
  156.0940  214.4220  144.8110 C   0  0  0  0  0  1  0  0  0  0  0  0
  161.1740  210.2460  153.3090 C   0  0  0  0  0  2  0  0  0  0  0  0
  160.8250  208.3180  154.6050 O   0  0  0  0  0  0  0  0  0  0  0  0
  160.9080  208.7820  153.4800 C   0  0  0  0  0  0  0  0  0  0  0  0
  160.7260  207.8900  152.2810 C   0  0  0  0  0  2  0  0  0  0  0  0
  162.6280  206.2900  152.7810 C   0  0  0  0  0  1  0  0  0  0  0  0
  162.0200  207.2450  151.7670 C   0  0  1  0  0  3  0  0  0  0  0  0
  161.9320  206.6170  150.3670 C   0  0  2  0  0  3  0  0  0  0  0  0
  162.0340  208.6960  149.2470 O   0  0  0  0  0  0  0  0  0  0  0  0
  162.4460  207.5450  149.3100 C   0  0  0  0  0  3  0  0  0  0  0  0
  160.6270  206.2130  150.0680 O   0  0  0  0  0  0  0  0  0  0  0  0
  160.3710  205.1420  150.9350 C   0  0  0  0  0  2  0  0  0  0  0  0
  161.0780  202.8090  151.1900 C   0  0  0  0  0  2  0  0  0  0  0  0
  161.0860  203.9150  150.4540 C   0  0  0  0  0  0  0  0  0  0  0  0
  161.9730  203.9970  149.2530 C   0  0  0  0  0  2  0  0  0  0  0  0
  161.3030  203.4100  148.0490 C   0  0  0  0  0  0  0  0  0  0  0  0
  160.2430  201.1050  148.2670 O   0  0  0  0  0  0  0  0  0  0  0  0
  160.7590  202.2240  148.1590 C   0  0  0  0  0  0  0  0  0  0  0  0
  161.4280  204.3410  144.3740 C   0  0  0  0  0  3  0  0  0  0  0  0
  160.6780  206.2690  145.6320 C   0  0  0  0  0  3  0  0  0  0  0  0
  161.5150  203.6040  145.5600 C   0  0  0  0  0  3  0  0  0  0  0  0
  160.7610  205.5340  146.8160 C   0  0  0  0  0  3  0  0  0  0  0  0
  161.1840  204.1920  146.7950 C   0  0  0  0  0  0  0  0  0  0  0  0
  161.0150  205.6740  144.4120 C   0  0  0  0  0  3  0  0  0  0  0  0
  1  2  1  0  0  0  0
  1  3  1  0  0  0  0
  1  4  1  1  0  0  0
  2  3  1  0  0  0  0
  3 27  1  6  0  0  0
  4  5  1  0  0  0  0
  5  6  2  0  0  0  0
  7  5  1  0  0  0  0
  8 11  1  0  0  0  0
  9  8  1  0  0  0  0
 10  9  1  0  0  0  0
 10 12  1  0  0  0  0
 11  7  1  0  0  0  0
 12 11  2  0  0  0  0
 13 18  1  0  0  0  0
 14 15  1  0  0  0  0
 15 10  1  0  0  0  0
 16 17  1  0  0  0  0
 16 13  2  0  0  0  0
 17 14  2  0  0  0  0
 18 15  2  0  0  0  0
 19 23  1  0  0  0  0
 19 21  1  0  0  0  0
 20 24  1  0  0  0  0
 21 20  1  0  0  0  0
 22 13  1  0  0  0  0
 22 24  1  0  0  0  0
 23 22  1  0  0  0  0
 25 17  1  0  0  0  0
 26 25  1  0  0  0  0
 27 29  1  0  0  0  0
 29 28  2  0  0  0  0
 30 29  1  0  0  0  0
 32 30  1  0  0  0  0
 32 31  1  1  0  0  0
 33 35  1  6  0  0  0
 33 32  1  0  0  0  0
 34 35  2  0  0  0  0
 36 33  1  0  0  0  0
 36 37  1  0  0  0  0
 39 37  1  0  0  0  0
 39 38  2  0  0  0  0
 40 39  1  0  0  0  0
 41 43  2  0  0  0  0
 41 40  1  0  0  0  0
 43 42  2  0  0  0  0
 44 49  2  0  0  0  0
 44 46  1  0  0  0  0
 45 47  2  0  0  0  0
 46 48  2  0  0  0  0
 48 47  1  0  0  0  0
 48 41  1  0  0  0  0
 49 45  1  0  0  0  0
M  END
>  <MODEL>
5

>  <REMARK>
 VINA RESULT:      -5.2      4.649      7.218
  Name = 
  19 active torsions:
  status: ('A' for Active; 'I' for Inactive)
    1  A    between atoms: O_1  and  C_6
    2  A    between atoms: O_1  and  C_10
    3  A    between atoms: C_2  and  N_25
    4  A    between atoms: C_2  and  O_36
    5  A    between atoms: C_4  and  C_44
    6  A    between atoms: C_6  and  C_20
    7  A    between atoms: C_6  and  C_47
    8  A    between atoms: C_7  and  C_28
    9  A    between atoms: C_7  and  C_48
   10  A    between atoms: C_10  and  C_39
   11  A    between atoms: C_14  and  N_25
   12  A    between atoms: O_15  and  C_30
   13  A    between atoms: N_16  and  C_18
   14  A    between atoms: C_19  and  O_36
   15  A    between atoms: C_20  and  C_26
   16  A    between atoms: C_26  and  C_29
   17  A    between atoms: C_29  and  C_40
   18  A    between atoms: C_32  and  C_40
   19  A    between atoms: C_39  and  C_48
                            x       y       z     vdW  Elec       q    Type
                         _______ _______ _______ _____ _____    ______ ____

>  <TORSDO>
F 19

$$$$
=
 OpenBabel11072409493D

 49 53  0  0  1  0  0  0  0  0999 V2000
  158.4100  211.1460  154.4540 C   0  0  1  0  0  3  0  0  0  0  0  0
  159.1310  212.2820  154.8630 O   0  0  0  0  0  0  0  0  0  0  0  0
  159.2110  211.1480  155.6940 C   0  0  2  0  0  3  0  0  0  0  0  0
  157.0060  211.3100  154.7900 N   0  0  0  0  0  2  0  0  0  0  0  0
  156.4950  212.5730  155.2140 C   0  0  0  0  0  0  0  0  0  0  0  0
  155.8040  212.6210  156.3480 C   0  0  0  0  0  2  0  0  0  0  0  0
  156.7590  213.7200  154.4410 O   0  0  0  0  0  0  0  0  0  0  0  0
  154.9790  214.3840  152.7070 C   0  0  0  0  0  2  0  0  0  0  0  0
  154.9420  214.4290  150.8800 S   0  0  0  0  0  0  0  0  0  0  0  0
  156.6730  214.0500  150.8380 N   0  0  0  0  0  0  0  0  0  0  0  0
  156.3580  213.9590  153.1180 C   0  0  0  0  0  0  0  0  0  0  0  0
  157.2140  213.7930  152.1250 C   0  0  0  0  0  3  0  0  0  0  0  0
  159.5820  213.6880  148.5060 C   0  0  0  0  0  0  0  0  0  0  0  0
  156.8410  214.2590  148.3860 C   0  0  0  0  0  3  0  0  0  0  0  0
  157.4490  214.0290  149.6320 C   0  0  0  0  0  0  0  0  0  0  0  0
  158.9600  213.9120  147.2720 C   0  0  0  0  0  3  0  0  0  0  0  0
  157.5930  214.2030  147.2020 C   0  0  0  0  0  0  0  0  0  0  0  0
  158.8230  213.7460  149.6820 C   0  0  0  0  0  3  0  0  0  0  0  0
  163.1420  213.1060  147.2240 C   0  0  0  0  0  2  0  0  0  0  0  0
  162.7570  211.5900  148.8510 C   0  0  0  0  0  2  0  0  0  0  0  0
  163.1520  211.7270  147.5050 O   0  0  0  0  0  0  0  0  0  0  0  0
  161.0420  213.3610  148.5430 C   0  0  0  0  0  3  0  0  0  0  0  0
  161.7040  213.6230  147.1900 C   0  0  0  0  0  2  0  0  0  0  0  0
  161.2730  211.9220  148.9950 C   0  0  0  0  0  2  0  0  0  0  0  0
  157.0090  214.4250  145.9480 O   0  0  0  0  0  0  0  0  0  0  0  0
  155.9900  213.5920  145.4110 C   0  0  0  0  0  1  0  0  0  0  0  0
  160.5170  210.4240  155.4420 C   0  0  0  0  0  2  0  0  0  0  0  0
  159.5630  208.5550  156.4970 O   0  0  0  0  0  0  0  0  0  0  0  0
  160.3310  208.9510  155.6350 C   0  0  0  0  0  0  0  0  0  0  0  0
  161.0660  207.9640  154.7690 C   0  0  0  0  0  2  0  0  0  0  0  0
  161.9430  209.4040  152.8760 C   0  0  0  0  0  1  0  0  0  0  0  0
  161.0080  208.2700  153.2670 C   0  0  1  0  0  3  0  0  0  0  0  0
  161.1600  207.0540  152.3390 C   0  0  2  0  0  3  0  0  0  0  0  0
  160.4660  204.8230  152.6950 O   0  0  0  0  0  0  0  0  0  0  0  0
  161.1290  205.7670  153.1040 C   0  0  0  0  0  3  0  0  0  0  0  0
  162.3280  207.1370  151.5740 O   0  0  0  0  0  0  0  0  0  0  0  0
  162.0550  208.1080  150.6000 C   0  0  0  0  0  2  0  0  0  0  0  0
  161.3170  208.1450  148.2630 C   0  0  0  0  0  2  0  0  0  0  0  0
  161.4340  207.4630  149.3980 C   0  0  0  0  0  0  0  0  0  0  0  0
  160.7640  206.1330  149.5330 C   0  0  0  0  0  2  0  0  0  0  0  0
  161.3510  205.1370  148.5810 C   0  0  0  0  0  0  0  0  0  0  0  0
  162.7920  206.0040  146.6690 O   0  0  0  0  0  0  0  0  0  0  0  0
  162.0910  205.5810  147.5970 C   0  0  0  0  0  0  0  0  0  0  0  0
  161.1610  201.4030  147.9400 C   0  0  0  0  0  3  0  0  0  0  0  0
  160.5970  201.8170  150.2580 C   0  0  0  0  0  3  0  0  0  0  0  0
  161.3530  202.7750  147.7450 C   0  0  0  0  0  3  0  0  0  0  0  0
  160.7910  203.1860  150.0660 C   0  0  0  0  0  3  0  0  0  0  0  0
  161.1690  203.6820  148.8040 C   0  0  0  0  0  0  0  0  0  0  0  0
  160.7790  200.9260  149.1950 C   0  0  0  0  0  3  0  0  0  0  0  0
  1  4  1  1  0  0  0
  1  2  1  0  0  0  0
  1  3  1  0  0  0  0
  2  3  1  0  0  0  0
  3 27  1  6  0  0  0
  4  5  1  0  0  0  0
  5  6  2  0  0  0  0
  7  5  1  0  0  0  0
  8 11  1  0  0  0  0
  9  8  1  0  0  0  0
 10  9  1  0  0  0  0
 10 12  1  0  0  0  0
 11  7  1  0  0  0  0
 12 11  2  0  0  0  0
 13 22  1  0  0  0  0
 13 18  1  0  0  0  0
 14 15  1  0  0  0  0
 15 18  2  0  0  0  0
 15 10  1  0  0  0  0
 16 13  2  0  0  0  0
 17 16  1  0  0  0  0
 17 14  2  0  0  0  0
 19 21  1  0  0  0  0
 20 24  1  0  0  0  0
 21 20  1  0  0  0  0
 22 24  1  0  0  0  0
 23 19  1  0  0  0  0
 23 22  1  0  0  0  0
 25 17  1  0  0  0  0
 26 25  1  0  0  0  0
 27 29  1  0  0  0  0
 29 28  2  0  0  0  0
 30 29  1  0  0  0  0
 32 31  1  6  0  0  0
 32 30  1  0  0  0  0
 33 35  1  1  0  0  0
 33 32  1  0  0  0  0
 34 35  2  0  0  0  0
 36 33  1  0  0  0  0
 37 36  1  0  0  0  0
 38 39  2  0  0  0  0
 39 40  1  0  0  0  0
 39 37  1  0  0  0  0
 41 48  1  0  0  0  0
 41 40  1  0  0  0  0
 42 43  2  0  0  0  0
 43 41  2  0  0  0  0
 44 49  1  0  0  0  0
 46 44  2  0  0  0  0
 46 48  1  0  0  0  0
 47 45  1  0  0  0  0
 48 47  2  0  0  0  0
 49 45  2  0  0  0  0
M  END
>  <MODEL>
6

>  <REMARK>
 VINA RESULT:      -4.9      5.015      7.737
  Name = 
  19 active torsions:
  status: ('A' for Active; 'I' for Inactive)
    1  A    between atoms: O_1  and  C_6
    2  A    between atoms: O_1  and  C_10
    3  A    between atoms: C_2  and  N_25
    4  A    between atoms: C_2  and  O_36
    5  A    between atoms: C_4  and  C_44
    6  A    between atoms: C_6  and  C_20
    7  A    between atoms: C_6  and  C_47
    8  A    between atoms: C_7  and  C_28
    9  A    between atoms: C_7  and  C_48
   10  A    between atoms: C_10  and  C_39
   11  A    between atoms: C_14  and  N_25
   12  A    between atoms: O_15  and  C_30
   13  A    between atoms: N_16  and  C_18
   14  A    between atoms: C_19  and  O_36
   15  A    between atoms: C_20  and  C_26
   16  A    between atoms: C_26  and  C_29
   17  A    between atoms: C_29  and  C_40
   18  A    between atoms: C_32  and  C_40
   19  A    between atoms: C_39  and  C_48
                            x       y       z     vdW  Elec       q    Type
                         _______ _______ _______ _____ _____    ______ ____

>  <TORSDO>
F 19

$$$$
