=
 OpenBabel11072414393D

 26 29  0  0  1  0  0  0  0  0999 V2000
  162.3100  211.0800  148.3490 F   0  0  0  0  0  0  0  0  0  0  0  0
  161.0170  203.8980  151.2730 C   0  0  0  0  0  3  0  0  0  0  0  0
  161.2690  205.0620  150.3490 C   0  0  0  0  0  2  0  0  0  0  0  0
  161.9570  209.9240  150.3630 N   0  0  0  0  0  0  0  0  0  0  0  0
  162.0830  209.9200  149.0110 C   0  0  0  0  0  0  0  0  0  0  0  0
  161.2620  206.4480  152.5350 C   0  0  0  0  0  0  0  0  0  0  0  0
  160.9130  204.0320  152.5970 C   0  0  0  0  0  3  0  0  0  0  0  0
  161.7470  207.5410  149.0000 C   0  0  0  0  0  3  0  0  0  0  0  0
  161.6110  208.8500  152.4330 C   0  0  0  0  0  0  0  0  0  0  0  0
  161.3910  206.3920  151.0650 C   0  0  0  0  0  0  0  0  0  0  0  0
  161.6170  207.5440  150.3970 C   0  0  0  0  0  0  0  0  0  0  0  0
  161.3770  207.6830  153.1700 O   0  0  0  0  0  0  0  0  0  0  0  0
  161.9810  208.7250  148.3040 C   0  0  0  0  0  3  0  0  0  0  0  0
  161.0370  205.3450  153.2480 C   0  0  0  0  0  3  0  0  0  0  0  0
  161.7290  208.7870  151.0820 C   0  0  0  0  0  0  0  0  0  0  0  0
  160.0620  211.7200  154.4730 C   0  0  2  0  0  3  0  0  0  0  0  0
  161.7270  210.1340  153.2090 C   0  0  2  0  0  3  0  0  0  0  0  0
  161.6980  209.9150  154.7080 C   0  0  0  0  0  2  0  0  0  0  0  0
  160.4520  211.3520  152.7340 S   0  0  0  0  0  0  0  0  0  0  0  0
  160.8760  211.0340  156.6500 O   0  0  0  0  0  1  0  0  0  0  0  0
  161.2310  211.2160  155.3120 C   0  0  2  0  0  3  0  0  0  0  0  0
  155.4410  211.5690  156.5080 C   0  0  0  0  0  1  0  0  0  0  0  0
  156.5740  210.9570  155.8360 N   0  0  0  0  0  2  0  0  0  0  0  0
  158.8190  211.0410  154.8270 N   0  0  0  0  0  2  0  0  0  0  0  0
  157.7390  211.7020  155.4870 C   0  0  0  0  0  0  0  0  0  0  0  0
  157.8140  212.9330  155.7550 O   0  0  0  0  0  0  0  0  0  0  0  0
  1  5  1  0  0  0  0
  2  7  2  0  0  0  0
  3 10  1  0  0  0  0
  3  2  1  0  0  0  0
  4 15  1  0  0  0  0
  5  4  2  0  0  0  0
  6 12  1  0  0  0  0
  6 14  2  0  0  0  0
  7 14  1  0  0  0  0
  8 11  1  0  0  0  0
  9 12  1  0  0  0  0
 10  6  1  0  0  0  0
 11 10  2  0  0  0  0
 11 15  1  0  0  0  0
 13  8  2  0  0  0  0
 13  5  1  0  0  0  0
 15  9  2  0  0  0  0
 16 24  1  1  0  0  0
 16 21  1  0  0  0  0
 17  9  1  6  0  0  0
 17 18  1  0  0  0  0
 18 21  1  0  0  0  0
 19 17  1  0  0  0  0
 19 16  1  0  0  0  0
 21 20  1  1  0  0  0
 23 22  1  0  0  0  0
 24 25  1  0  0  0  0
 25 26  2  0  0  0  0
 25 23  1  0  0  0  0
M  END
>  <MODEL>
1

>  <REMARK>
 VINA RESULT:      -8.3      0.000      0.000
  Name = 
  2 active torsions:
  status: ('A' for Active; 'I' for Inactive)
    1  A    between atoms: C_8  and  N_10
    2  A    between atoms: C_12  and  C_14
                            x       y       z     vdW  Elec       q    Type
                         _______ _______ _______ _____ _____    ______ ____

>  <TORSDO>
F 2

$$$$
=
 OpenBabel11072414393D

 26 29  0  0  1  0  0  0  0  0999 V2000
  161.1500  202.2880  149.4750 F   0  0  0  0  0  0  0  0  0  0  0  0
  160.9580  207.9800  154.8930 C   0  0  0  0  0  3  0  0  0  0  0  0
  160.9480  206.6440  154.1940 C   0  0  0  0  0  3  0  0  0  0  0  0
  161.2610  204.6190  149.7320 N   0  0  0  0  0  0  0  0  0  0  0  0
  161.1360  203.3800  150.2750 C   0  0  0  0  0  0  0  0  0  0  0  0
  161.2390  208.0690  152.0520 C   0  0  1  0  0  3  0  0  0  0  0  0
  161.0890  209.1390  154.2420 C   0  0  0  0  0  3  0  0  0  0  0  0
  160.9830  204.3680  152.4590 C   0  0  0  0  0  3  0  0  0  0  0  0
  161.3830  206.9680  149.8910 C   0  0  0  0  0  0  0  0  0  0  0  0
  161.1000  206.7440  152.6900 C   0  0  0  0  0  0  0  0  0  0  0  0
  161.1120  205.6490  151.9000 C   0  0  0  0  0  0  0  0  0  0  0  0
  161.3770  208.1330  150.6670 O   0  0  0  0  0  0  0  0  0  0  0  0
  160.9950  203.2330  151.6510 C   0  0  0  0  0  3  0  0  0  0  0  0
  161.2330  209.1860  152.7790 C   0  0  0  0  0  3  0  0  0  0  0  0
  161.2550  205.7550  150.4870 C   0  0  0  0  0  0  0  0  0  0  0  0
  161.9320  205.5420  146.3600 C   0  0  2  0  0  3  0  0  0  0  0  0
  161.5430  207.1400  148.4050 C   0  0  2  0  0  3  0  0  0  0  0  0
  160.2770  206.8130  147.6390 C   0  0  0  0  0  2  0  0  0  0  0  0
  162.9400  206.1730  147.7380 S   0  0  0  0  0  0  0  0  0  0  0  0
  159.6700  205.8430  145.5440 O   0  0  0  0  0  1  0  0  0  0  0  0
  160.7150  206.4530  146.2410 C   0  0  2  0  0  3  0  0  0  0  0  0
  160.2160  200.9730  145.0580 C   0  0  0  0  0  1  0  0  0  0  0  0
  160.6870  201.9440  146.0310 N   0  0  0  0  0  2  0  0  0  0  0  0
  161.5420  204.1670  146.6570 N   0  0  0  0  0  2  0  0  0  0  0  0
  161.0890  203.2600  145.6520 C   0  0  0  0  0  0  0  0  0  0  0  0
  161.0480  203.6160  144.4430 O   0  0  0  0  0  0  0  0  0  0  0  0
  1  5  1  0  0  0  0
  3  2  2  0  0  0  0
  4  5  2  0  0  0  0
  4 15  1  0  0  0  0
  5 13  1  0  0  0  0
  6 10  1  0  0  0  0
  6 14  1  6  0  0  0
  7  2  1  0  0  0  0
  9 15  2  0  0  0  0
  9 12  1  0  0  0  0
 10  3  1  0  0  0  0
 11  8  1  0  0  0  0
 11 10  2  0  0  0  0
 12  6  1  0  0  0  0
 13  8  2  0  0  0  0
 14  7  2  0  0  0  0
 15 11  1  0  0  0  0
 16 24  1  1  0  0  0
 16 19  1  0  0  0  0
 17  9  1  1  0  0  0
 18 17  1  0  0  0  0
 19 17  1  0  0  0  0
 21 20  1  1  0  0  0
 21 16  1  0  0  0  0
 21 18  1  0  0  0  0
 22 23  1  0  0  0  0
 25 23  1  0  0  0  0
 25 24  1  0  0  0  0
 26 25  2  0  0  0  0
M  END
>  <MODEL>
2

>  <REMARK>
 VINA RESULT:      -8.1      4.693      8.437
  Name = 
  2 active torsions:
  status: ('A' for Active; 'I' for Inactive)
    1  A    between atoms: C_8  and  N_10
    2  A    between atoms: C_12  and  C_14
                            x       y       z     vdW  Elec       q    Type
                         _______ _______ _______ _____ _____    ______ ____

>  <TORSDO>
F 2

$$$$
=
 OpenBabel11072414393D

 26 29  0  0  1  0  0  0  0  0999 V2000
  162.3300  211.2100  148.2530 F   0  0  0  0  0  0  0  0  0  0  0  0
  160.9560  205.4760  153.4510 C   0  0  0  0  0  3  0  0  0  0  0  0
  161.2130  206.8120  152.8020 C   0  0  0  0  0  3  0  0  0  0  0  0
  161.9890  208.8930  148.4230 N   0  0  0  0  0  0  0  0  0  0  0  0
  162.0930  210.1130  149.0100 C   0  0  0  0  0  0  0  0  0  0  0  0
  161.2650  205.4330  150.6120 C   0  0  1  0  0  3  0  0  0  0  0  0
  160.8740  204.3360  152.7580 C   0  0  0  0  0  3  0  0  0  0  0  0
  161.7140  209.0980  151.1550 C   0  0  0  0  0  3  0  0  0  0  0  0
  161.6570  206.5600  148.4950 C   0  0  0  0  0  0  0  0  0  0  0  0
  161.3700  206.7370  151.2970 C   0  0  0  0  0  0  0  0  0  0  0  0
  161.6060  207.8370  150.5490 C   0  0  0  0  0  0  0  0  0  0  0  0
  161.4130  205.3910  149.2270 O   0  0  0  0  0  0  0  0  0  0  0  0
  161.9560  210.2370  150.3900 C   0  0  0  0  0  3  0  0  0  0  0  0
  161.0340  204.3130  151.2960 C   0  0  0  0  0  3  0  0  0  0  0  0
  161.7520  207.7540  149.1350 C   0  0  0  0  0  0  0  0  0  0  0  0
  161.7900  204.4130  145.3060 C   0  0  2  0  0  3  0  0  0  0  0  0
  161.7970  206.4130  147.0040 C   0  0  2  0  0  3  0  0  0  0  0  0
  160.4650  206.2080  146.3110 C   0  0  0  0  0  2  0  0  0  0  0  0
  162.9510  205.0770  146.5410 S   0  0  0  0  0  0  0  0  0  0  0  0
  159.6060  205.0020  144.4380 O   0  0  0  0  0  1  0  0  0  0  0  0
  160.7740  205.5110  145.0090 C   0  0  2  0  0  3  0  0  0  0  0  0
  161.1230  200.9160  148.8900 C   0  0  0  0  0  1  0  0  0  0  0  0
  160.8320  201.5060  147.5950 N   0  0  0  0  0  2  0  0  0  0  0  0
  161.1470  203.2250  145.8590 N   0  0  0  0  0  2  0  0  0  0  0  0
  161.4780  202.6960  147.1430 C   0  0  0  0  0  0  0  0  0  0  0  0
  162.3280  203.2770  147.8720 O   0  0  0  0  0  0  0  0  0  0  0  0
  1  5  1  0  0  0  0
  3  2  2  0  0  0  0
  4  5  2  0  0  0  0
  4 15  1  0  0  0  0
  5 13  1  0  0  0  0
  6 14  1  1  0  0  0
  6 10  1  0  0  0  0
  7  2  1  0  0  0  0
  9 15  2  0  0  0  0
  9 12  1  0  0  0  0
 10  3  1  0  0  0  0
 11  8  1  0  0  0  0
 11 10  2  0  0  0  0
 12  6  1  0  0  0  0
 13  8  2  0  0  0  0
 14  7  2  0  0  0  0
 15 11  1  0  0  0  0
 16 24  1  1  0  0  0
 16 19  1  0  0  0  0
 17  9  1  1  0  0  0
 18 17  1  0  0  0  0
 19 17  1  0  0  0  0
 21 20  1  1  0  0  0
 21 16  1  0  0  0  0
 21 18  1  0  0  0  0
 23 22  1  0  0  0  0
 24 25  1  0  0  0  0
 25 23  1  0  0  0  0
 25 26  2  0  0  0  0
M  END
>  <MODEL>
3

>  <REMARK>
 VINA RESULT:      -7.9      4.924      7.958
  Name = 
  2 active torsions:
  status: ('A' for Active; 'I' for Inactive)
    1  A    between atoms: C_8  and  N_10
    2  A    between atoms: C_12  and  C_14
                            x       y       z     vdW  Elec       q    Type
                         _______ _______ _______ _____ _____    ______ ____

>  <TORSDO>
F 2

$$$$
=
 OpenBabel11072414393D

 26 29  0  0  1  0  0  0  0  0999 V2000
  161.3970  210.5070  154.5480 F   0  0  0  0  0  0  0  0  0  0  0  0
  161.0660  204.9400  149.0080 C   0  0  0  0  0  3  0  0  0  0  0  0
  161.0480  205.6790  150.3210 C   0  0  0  0  0  3  0  0  0  0  0  0
  161.5890  210.1700  152.2320 N   0  0  0  0  0  0  0  0  0  0  0  0
  161.3730  209.6770  153.4790 C   0  0  0  0  0  0  0  0  0  0  0  0
  161.5490  207.7500  148.8510 C   0  0  1  0  0  3  0  0  0  0  0  0
  161.2920  205.5440  147.8380 C   0  0  0  0  0  3  0  0  0  0  0  0
  161.1080  207.4780  152.5480 C   0  0  0  0  0  3  0  0  0  0  0  0
  161.8000  209.9300  149.8970 C   0  0  0  0  0  0  0  0  0  0  0  0
  161.3090  207.1660  150.1860 C   0  0  0  0  0  0  0  0  0  0  0  0
  161.3310  207.9870  151.2590 C   0  0  0  0  0  0  0  0  0  0  0  0
  161.7870  209.1200  148.7540 O   0  0  0  0  0  0  0  0  0  0  0  0
  161.1280  208.3190  153.6580 C   0  0  0  0  0  3  0  0  0  0  0  0
  161.5420  206.9910  147.7570 C   0  0  0  0  0  3  0  0  0  0  0  0
  161.5780  209.3820  151.1190 C   0  0  0  0  0  0  0  0  0  0  0  0
  161.7310  213.1010  147.7210 C   0  0  2  0  0  3  0  0  0  0  0  0
  162.0600  211.3970  149.6880 C   0  0  2  0  0  3  0  0  0  0  0  0
  160.8050  212.2360  149.8140 C   0  0  0  0  0  2  0  0  0  0  0  0
  162.8790  211.7390  148.0930 S   0  0  0  0  0  0  0  0  0  0  0  0
  159.8780  214.2030  148.8270 O   0  0  0  0  0  1  0  0  0  0  0  0
  161.0670  213.5010  149.0340 C   0  0  2  0  0  3  0  0  0  0  0  0
  160.0540  212.3930  143.0090 C   0  0  0  0  0  1  0  0  0  0  0  0
  159.9180  212.3030  144.4520 N   0  0  0  0  0  2  0  0  0  0  0  0
  160.7500  212.6330  146.7470 N   0  0  0  0  0  2  0  0  0  0  0  0
  160.9450  212.7480  145.3370 C   0  0  0  0  0  0  0  0  0  0  0  0
  162.0150  213.2350  144.8800 O   0  0  0  0  0  0  0  0  0  0  0  0
  2  3  2  0  0  0  0
  4  5  2  0  0  0  0
  5 13  1  0  0  0  0
  5  1  1  0  0  0  0
  6 14  1  1  0  0  0
  6 10  1  0  0  0  0
  7  2  1  0  0  0  0
  8 13  2  0  0  0  0
  9 15  2  0  0  0  0
 10  3  1  0  0  0  0
 10 11  2  0  0  0  0
 11  8  1  0  0  0  0
 12  6  1  0  0  0  0
 12  9  1  0  0  0  0
 14  7  2  0  0  0  0
 15 11  1  0  0  0  0
 15  4  1  0  0  0  0
 16 24  1  6  0  0  0
 16 19  1  0  0  0  0
 16 21  1  0  0  0  0
 17 18  1  0  0  0  0
 17  9  1  6  0  0  0
 19 17  1  0  0  0  0
 21 20  1  6  0  0  0
 21 18  1  0  0  0  0
 22 23  1  0  0  0  0
 23 25  1  0  0  0  0
 25 24  1  0  0  0  0
 26 25  2  0  0  0  0
M  END
>  <MODEL>
4

>  <REMARK>
 VINA RESULT:      -7.9      4.080      6.582
  Name = 
  2 active torsions:
  status: ('A' for Active; 'I' for Inactive)
    1  A    between atoms: C_8  and  N_10
    2  A    between atoms: C_12  and  C_14
                            x       y       z     vdW  Elec       q    Type
                         _______ _______ _______ _____ _____    ______ ____

>  <TORSDO>
F 2

$$$$
=
 OpenBabel11072414393D

 26 29  0  0  1  0  0  0  0  0999 V2000
  161.9450  209.7160  148.7880 F   0  0  0  0  0  0  0  0  0  0  0  0
  160.6360  201.9660  148.8810 C   0  0  0  0  0  3  0  0  0  0  0  0
  160.8310  203.3970  148.4490 C   0  0  0  0  0  2  0  0  0  0  0  0
  161.7920  207.8700  150.2320 N   0  0  0  0  0  0  0  0  0  0  0  0
  161.7410  208.3910  148.9780 C   0  0  0  0  0  0  0  0  0  0  0  0
  161.1860  203.8250  150.9780 C   0  0  0  0  0  0  0  0  0  0  0  0
  160.7110  201.5750  150.1560 C   0  0  0  0  0  3  0  0  0  0  0  0
  161.2710  206.2040  148.1030 C   0  0  0  0  0  3  0  0  0  0  0  0
  161.6560  206.0780  151.7570 C   0  0  0  0  0  0  0  0  0  0  0  0
  161.1210  204.3440  149.5960 C   0  0  0  0  0  0  0  0  0  0  0  0
  161.3230  205.6640  149.3970 C   0  0  0  0  0  0  0  0  0  0  0  0
  161.4530  204.7170  152.0140 O   0  0  0  0  0  0  0  0  0  0  0  0
  161.4800  207.5650  147.8900 C   0  0  0  0  0  3  0  0  0  0  0  0
  160.9940  202.5330  151.2370 C   0  0  0  0  0  3  0  0  0  0  0  0
  161.5940  206.5440  150.4840 C   0  0  0  0  0  0  0  0  0  0  0  0
  161.2140  209.3570  153.7200 C   0  0  2  0  0  3  0  0  0  0  0  0
  161.9440  206.9600  152.9420 C   0  0  2  0  0  3  0  0  0  0  0  0
  160.8230  206.9530  153.9610 C   0  0  0  0  0  2  0  0  0  0  0  0
  162.3310  208.6760  152.4550 S   0  0  0  0  0  0  0  0  0  0  0  0
  159.7930  208.4830  155.4780 O   0  0  0  0  0  1  0  0  0  0  0  0
  160.9480  208.2460  154.7290 C   0  0  2  0  0  3  0  0  0  0  0  0
  157.8890  212.8790  152.2860 C   0  0  0  0  0  1  0  0  0  0  0  0
  158.3480  211.5050  152.3860 N   0  0  0  0  0  2  0  0  0  0  0  0
  159.9820  209.7940  153.0700 N   0  0  0  0  0  2  0  0  0  0  0  0
  159.5880  211.1650  153.0030 C   0  0  0  0  0  0  0  0  0  0  0  0
  160.3310  212.0650  153.4820 O   0  0  0  0  0  0  0  0  0  0  0  0
  1  5  1  0  0  0  0
  2  7  2  0  0  0  0
  3  2  1  0  0  0  0
  3 10  1  0  0  0  0
  4 15  1  0  0  0  0
  5  4  2  0  0  0  0
  6 14  2  0  0  0  0
  6 12  1  0  0  0  0
  7 14  1  0  0  0  0
  8 11  1  0  0  0  0
  9 12  1  0  0  0  0
 10  6  1  0  0  0  0
 11 10  2  0  0  0  0
 11 15  1  0  0  0  0
 13  8  2  0  0  0  0
 13  5  1  0  0  0  0
 15  9  2  0  0  0  0
 16 24  1  6  0  0  0
 16 21  1  0  0  0  0
 17  9  1  6  0  0  0
 17 18  1  0  0  0  0
 18 21  1  0  0  0  0
 19 17  1  0  0  0  0
 19 16  1  0  0  0  0
 21 20  1  6  0  0  0
 22 23  1  0  0  0  0
 23 25  1  0  0  0  0
 25 24  1  0  0  0  0
 25 26  2  0  0  0  0
M  END
>  <MODEL>
5

>  <REMARK>
 VINA RESULT:      -7.7      2.278      2.932
  Name = 
  2 active torsions:
  status: ('A' for Active; 'I' for Inactive)
    1  A    between atoms: C_8  and  N_10
    2  A    between atoms: C_12  and  C_14
                            x       y       z     vdW  Elec       q    Type
                         _______ _______ _______ _____ _____    ______ ____

>  <TORSDO>
F 2

$$$$
=
 OpenBabel11072414393D

 26 29  0  0  1  0  0  0  0  0999 V2000
  160.7550  206.6860  155.8000 F   0  0  0  0  0  0  0  0  0  0  0  0
  161.4790  205.5820  148.0510 C   0  0  0  0  0  3  0  0  0  0  0  0
  161.2900  205.3760  149.5320 C   0  0  0  0  0  2  0  0  0  0  0  0
  161.1160  207.8300  153.7810 N   0  0  0  0  0  0  0  0  0  0  0  0
  160.9020  206.6700  154.4540 C   0  0  0  0  0  0  0  0  0  0  0  0
  161.5860  207.9450  149.6520 C   0  0  0  0  0  0  0  0  0  0  0  0
  161.6830  206.7840  147.5060 C   0  0  0  0  0  3  0  0  0  0  0  0
  160.9860  205.4660  152.3770 C   0  0  0  0  0  3  0  0  0  0  0  0
  161.4830  209.0640  151.8060 C   0  0  0  0  0  0  0  0  0  0  0  0
  161.3550  206.6570  150.3380 C   0  0  0  0  0  0  0  0  0  0  0  0
  161.2080  206.6640  151.6800 C   0  0  0  0  0  0  0  0  0  0  0  0
  161.6420  209.1090  150.4160 O   0  0  0  0  0  0  0  0  0  0  0  0
  160.8330  205.4650  153.7620 C   0  0  0  0  0  3  0  0  0  0  0  0
  161.7400  208.0010  148.3300 C   0  0  0  0  0  3  0  0  0  0  0  0
  161.2710  207.8750  152.4270 C   0  0  0  0  0  0  0  0  0  0  0  0
  159.8680  211.8590  153.8980 C   0  0  2  0  0  3  0  0  0  0  0  0
  161.5540  210.3740  152.5430 C   0  0  2  0  0  3  0  0  0  0  0  0
  161.6570  210.1960  154.0440 C   0  0  0  0  0  2  0  0  0  0  0  0
  160.1530  211.4740  152.1420 S   0  0  0  0  0  0  0  0  0  0  0  0
  160.8980  211.3010  156.0190 O   0  0  0  0  0  1  0  0  0  0  0  0
  161.1340  211.4730  154.6540 C   0  0  2  0  0  3  0  0  0  0  0  0
  155.4750  211.3900  156.3460 C   0  0  0  0  0  1  0  0  0  0  0  0
  156.5820  210.8560  155.5720 N   0  0  0  0  0  2  0  0  0  0  0  0
  158.7150  211.0950  154.3630 N   0  0  0  0  0  2  0  0  0  0  0  0
  157.6550  211.6810  155.1200 C   0  0  0  0  0  0  0  0  0  0  0  0
  157.6660  212.9150  155.3810 O   0  0  0  0  0  0  0  0  0  0  0  0
  2  3  1  0  0  0  0
  3 10  1  0  0  0  0
  4  5  2  0  0  0  0
  5  1  1  0  0  0  0
  6 10  1  0  0  0  0
  6 12  1  0  0  0  0
  7  2  2  0  0  0  0
  7 14  1  0  0  0  0
  8 13  2  0  0  0  0
  9 15  2  0  0  0  0
 10 11  2  0  0  0  0
 11  8  1  0  0  0  0
 11 15  1  0  0  0  0
 12  9  1  0  0  0  0
 13  5  1  0  0  0  0
 14  6  2  0  0  0  0
 15  4  1  0  0  0  0
 16 24  1  1  0  0  0
 16 21  1  0  0  0  0
 17  9  1  6  0  0  0
 17 18  1  0  0  0  0
 18 21  1  0  0  0  0
 19 17  1  0  0  0  0
 19 16  1  0  0  0  0
 21 20  1  1  0  0  0
 23 22  1  0  0  0  0
 24 25  1  0  0  0  0
 25 26  2  0  0  0  0
 25 23  1  0  0  0  0
M  END
>  <MODEL>
6

>  <REMARK>
 VINA RESULT:      -7.1      2.181      3.420
  Name = 
  2 active torsions:
  status: ('A' for Active; 'I' for Inactive)
    1  A    between atoms: C_8  and  N_10
    2  A    between atoms: C_12  and  C_14
                            x       y       z     vdW  Elec       q    Type
                         _______ _______ _______ _____ _____    ______ ____

>  <TORSDO>
F 2

$$$$
=
 OpenBabel11072414393D

 26 29  0  0  1  0  0  0  0  0999 V2000
  161.1540  202.0940  152.7710 F   0  0  0  0  0  0  0  0  0  0  0  0
  160.8670  205.2880  145.5940 C   0  0  0  0  0  3  0  0  0  0  0  0
  160.8110  204.3300  146.7560 C   0  0  0  0  0  2  0  0  0  0  0  0
  161.4570  204.1180  151.6190 N   0  0  0  0  0  0  0  0  0  0  0  0
  161.1500  202.7950  151.6120 C   0  0  0  0  0  0  0  0  0  0  0  0
  161.4900  206.4050  148.1470 C   0  0  0  0  0  0  0  0  0  0  0  0
  161.1850  206.5780  145.7310 C   0  0  0  0  0  3  0  0  0  0  0  0
  160.8330  202.8950  149.2330 C   0  0  0  0  0  3  0  0  0  0  0  0
  161.7850  206.1930  150.5500 C   0  0  0  0  0  0  0  0  0  0  0  0
  161.1490  204.9690  148.0880 C   0  0  0  0  0  0  0  0  0  0  0  0
  161.1500  204.2620  149.2390 C   0  0  0  0  0  0  0  0  0  0  0  0
  161.7970  206.9690  149.3840 O   0  0  0  0  0  0  0  0  0  0  0  0
  160.8310  202.1590  150.4160 C   0  0  0  0  0  3  0  0  0  0  0  0
  161.5060  207.1540  147.0460 C   0  0  0  0  0  3  0  0  0  0  0  0
  161.4700  204.8740  150.4840 C   0  0  0  0  0  0  0  0  0  0  0  0
  161.4920  209.1830  152.9530 C   0  0  2  0  0  3  0  0  0  0  0  0
  162.1250  206.8940  151.8380 C   0  0  2  0  0  3  0  0  0  0  0  0
  161.0230  206.7830  152.8720 C   0  0  0  0  0  2  0  0  0  0  0  0
  162.5620  208.6470  151.5820 S   0  0  0  0  0  0  0  0  0  0  0  0
  160.0750  208.1210  154.6070 O   0  0  0  0  0  1  0  0  0  0  0  0
  161.2070  207.9520  153.8070 C   0  0  2  0  0  3  0  0  0  0  0  0
  158.0220  212.8230  152.4790 C   0  0  0  0  0  1  0  0  0  0  0  0
  158.5590  211.5070  152.1770 N   0  0  0  0  0  2  0  0  0  0  0  0
  160.2650  209.7440  152.3970 N   0  0  0  0  0  2  0  0  0  0  0  0
  159.7910  211.0490  152.7330 C   0  0  0  0  0  0  0  0  0  0  0  0
  160.4570  211.7880  153.5080 O   0  0  0  0  0  0  0  0  0  0  0  0
  2  7  2  0  0  0  0
  2  3  1  0  0  0  0
  3 10  1  0  0  0  0
  5  4  2  0  0  0  0
  5  1  1  0  0  0  0
  6 12  1  0  0  0  0
  7 14  1  0  0  0  0
  8 11  1  0  0  0  0
  8 13  2  0  0  0  0
 10  6  1  0  0  0  0
 10 11  2  0  0  0  0
 11 15  1  0  0  0  0
 12  9  1  0  0  0  0
 13  5  1  0  0  0  0
 14  6  2  0  0  0  0
 15  9  2  0  0  0  0
 15  4  1  0  0  0  0
 16 24  1  6  0  0  0
 16 21  1  0  0  0  0
 17  9  1  6  0  0  0
 17 18  1  0  0  0  0
 18 21  1  0  0  0  0
 19 17  1  0  0  0  0
 19 16  1  0  0  0  0
 21 20  1  6  0  0  0
 23 22  1  0  0  0  0
 23 25  1  0  0  0  0
 24 25  1  0  0  0  0
 25 26  2  0  0  0  0
M  END
>  <MODEL>
7

>  <REMARK>
 VINA RESULT:      -6.7      3.276      4.993
  Name = 
  2 active torsions:
  status: ('A' for Active; 'I' for Inactive)
    1  A    between atoms: C_8  and  N_10
    2  A    between atoms: C_12  and  C_14
                            x       y       z     vdW  Elec       q    Type
                         _______ _______ _______ _____ _____    ______ ____

>  <TORSDO>
F 2

$$$$
=
 OpenBabel11072414393D

 26 29  0  0  1  0  0  0  0  0999 V2000
  160.8120  206.4600  155.4430 F   0  0  0  0  0  0  0  0  0  0  0  0
  161.3930  205.0690  147.7280 C   0  0  0  0  0  3  0  0  0  0  0  0
  161.2350  204.9170  149.2190 C   0  0  0  0  0  2  0  0  0  0  0  0
  161.1220  207.5300  153.3750 N   0  0  0  0  0  0  0  0  0  0  0  0
  160.9320  206.3940  154.0960 C   0  0  0  0  0  0  0  0  0  0  0  0
  161.5100  207.4910  149.2360 C   0  0  0  0  0  0  0  0  0  0  0  0
  161.5760  206.2510  147.1340 C   0  0  0  0  0  3  0  0  0  0  0  0
  160.9870  205.1120  152.0650 C   0  0  0  0  0  3  0  0  0  0  0  0
  161.4390  208.6900  151.3480 C   0  0  0  0  0  0  0  0  0  0  0  0
  161.3040  206.2290  149.9750 C   0  0  0  0  0  0  0  0  0  0  0  0
  161.1840  206.2850  151.3190 C   0  0  0  0  0  0  0  0  0  0  0  0
  161.5700  208.6830  149.9540 O   0  0  0  0  0  0  0  0  0  0  0  0
  160.8600  205.1630  153.4510 C   0  0  0  0  0  3  0  0  0  0  0  0
  161.6370  207.4990  147.9100 C   0  0  0  0  0  3  0  0  0  0  0  0
  161.2500  207.5240  152.0170 C   0  0  0  0  0  0  0  0  0  0  0  0
  160.2880  212.3350  151.7800 C   0  0  2  0  0  3  0  0  0  0  0  0
  161.5120  210.0280  152.0330 C   0  0  2  0  0  3  0  0  0  0  0  0
  160.3920  210.2350  153.0320 C   0  0  0  0  0  2  0  0  0  0  0  0
  161.5510  211.4160  150.8470 S   0  0  0  0  0  0  0  0  0  0  0  0
  159.0350  212.0290  153.8320 O   0  0  0  0  0  1  0  0  0  0  0  0
  160.2310  211.7280  153.1780 C   0  0  2  0  0  3  0  0  0  0  0  0
  156.3550  214.1900  149.2100 C   0  0  0  0  0  1  0  0  0  0  0  0
  157.0790  213.1080  149.8540 N   0  0  0  0  0  2  0  0  0  0  0  0
  159.0090  212.2050  151.0900 N   0  0  0  0  0  2  0  0  0  0  0  0
  158.3480  213.3110  150.4730 C   0  0  0  0  0  0  0  0  0  0  0  0
  158.8830  214.4530  150.4740 O   0  0  0  0  0  0  0  0  0  0  0  0
  2  3  1  0  0  0  0
  3 10  1  0  0  0  0
  4  5  2  0  0  0  0
  5  1  1  0  0  0  0
  6 12  1  0  0  0  0
  6 10  1  0  0  0  0
  7  2  2  0  0  0  0
  7 14  1  0  0  0  0
  8 13  2  0  0  0  0
  9 15  2  0  0  0  0
 10 11  2  0  0  0  0
 11 15  1  0  0  0  0
 11  8  1  0  0  0  0
 12  9  1  0  0  0  0
 13  5  1  0  0  0  0
 14  6  2  0  0  0  0
 15  4  1  0  0  0  0
 16 24  1  6  0  0  0
 16 21  1  0  0  0  0
 17  9  1  6  0  0  0
 17 18  1  0  0  0  0
 18 21  1  0  0  0  0
 19 16  1  0  0  0  0
 19 17  1  0  0  0  0
 21 20  1  6  0  0  0
 22 23  1  0  0  0  0
 23 25  1  0  0  0  0
 25 26  2  0  0  0  0
 25 24  1  0  0  0  0
M  END
>  <MODEL>
8

>  <REMARK>
 VINA RESULT:      -6.7      3.351      4.445
  Name = 
  2 active torsions:
  status: ('A' for Active; 'I' for Inactive)
    1  A    between atoms: C_8  and  N_10
    2  A    between atoms: C_12  and  C_14
                            x       y       z     vdW  Elec       q    Type
                         _______ _______ _______ _____ _____    ______ ____

>  <TORSDO>
F 2

$$$$
=
 OpenBabel11072414393D

 26 29  0  0  1  0  0  0  0  0999 V2000
  160.8290  202.8490  152.6470 F   0  0  0  0  0  0  0  0  0  0  0  0
  161.8010  209.1030  147.9870 C   0  0  0  0  0  3  0  0  0  0  0  0
  161.5790  207.7070  148.5090 C   0  0  0  0  0  2  0  0  0  0  0  0
  161.2060  205.1660  152.6940 N   0  0  0  0  0  0  0  0  0  0  0  0
  161.0130  204.0190  151.9920 C   0  0  0  0  0  0  0  0  0  0  0  0
  161.7840  208.8370  150.8300 C   0  0  0  0  0  0  0  0  0  0  0  0
  161.9790  210.1580  148.7860 C   0  0  0  0  0  3  0  0  0  0  0  0
  161.1950  205.2590  149.9430 C   0  0  0  0  0  3  0  0  0  0  0  0
  161.5850  207.4880  152.8410 C   0  0  0  0  0  0  0  0  0  0  0  0
  161.5780  207.6180  150.0220 C   0  0  0  0  0  0  0  0  0  0  0  0
  161.3950  206.4450  150.6670 C   0  0  0  0  0  0  0  0  0  0  0  0
  161.7790  208.7270  152.2190 O   0  0  0  0  0  0  0  0  0  0  0  0
  161.0040  204.0470  150.6010 C   0  0  0  0  0  3  0  0  0  0  0  0
  161.9720  210.0220  150.2510 C   0  0  0  0  0  3  0  0  0  0  0  0
  161.3960  206.3740  152.0890 C   0  0  0  0  0  0  0  0  0  0  0  0
  160.3800  208.8240  156.2410 C   0  0  2  0  0  3  0  0  0  0  0  0
  161.5910  207.4730  154.3460 C   0  0  2  0  0  3  0  0  0  0  0  0
  160.3870  206.7600  154.9270 C   0  0  0  0  0  2  0  0  0  0  0  0
  161.7240  209.1480  155.0580 S   0  0  0  0  0  0  0  0  0  0  0  0
  158.9560  206.9530  156.8290 O   0  0  0  0  0  1  0  0  0  0  0  0
  160.2060  207.3110  156.3200 C   0  0  2  0  0  3  0  0  0  0  0  0
  157.1730  212.7180  155.9670 C   0  0  0  0  0  1  0  0  0  0  0  0
  157.5890  211.3650  155.6400 N   0  0  0  0  0  2  0  0  0  0  0  0
  159.1660  209.4770  155.7610 N   0  0  0  0  0  2  0  0  0  0  0  0
  158.8150  210.8140  156.1190 C   0  0  0  0  0  0  0  0  0  0  0  0
  159.5820  211.5000  156.8480 O   0  0  0  0  0  0  0  0  0  0  0  0
  2  3  1  0  0  0  0
  2  7  2  0  0  0  0
  3 10  1  0  0  0  0
  5  1  1  0  0  0  0
  5  4  2  0  0  0  0
  6 12  1  0  0  0  0
  7 14  1  0  0  0  0
  8 13  2  0  0  0  0
  8 11  1  0  0  0  0
 10 11  2  0  0  0  0
 10  6  1  0  0  0  0
 11 15  1  0  0  0  0
 12  9  1  0  0  0  0
 13  5  1  0  0  0  0
 14  6  2  0  0  0  0
 15  4  1  0  0  0  0
 15  9  2  0  0  0  0
 16 24  1  6  0  0  0
 16 21  1  0  0  0  0
 17  9  1  6  0  0  0
 17 18  1  0  0  0  0
 17 19  1  0  0  0  0
 18 21  1  0  0  0  0
 19 16  1  0  0  0  0
 21 20  1  6  0  0  0
 23 22  1  0  0  0  0
 23 25  1  0  0  0  0
 24 25  1  0  0  0  0
 25 26  2  0  0  0  0
M  END
>  <MODEL>
9

>  <REMARK>
 VINA RESULT:      -6.7      2.726      4.177
  Name = 
  2 active torsions:
  status: ('A' for Active; 'I' for Inactive)
    1  A    between atoms: C_8  and  N_10
    2  A    between atoms: C_12  and  C_14
                            x       y       z     vdW  Elec       q    Type
                         _______ _______ _______ _____ _____    ______ ____

>  <TORSDO>
F 2

$$$$
