=
 OpenBabel11072411173D

 28 30  0  0  0  0  0  0  0  0999 V2000
  160.8180  205.9170  151.5370 N   0  0  0  0  0  2  0  0  0  0  0  0
  161.1850  207.2570  151.2100 C   0  0  0  0  0  0  0  0  0  0  0  0
  161.4520  209.5900  151.8200 C   0  0  0  0  0  3  0  0  0  0  0  0
  161.9120  209.8800  150.5270 C   0  0  0  0  0  0  0  0  0  0  0  0
  162.0050  208.8550  149.5810 C   0  0  0  0  0  3  0  0  0  0  0  0
  161.0890  208.2840  152.1590 C   0  0  0  0  0  3  0  0  0  0  0  0
  161.6440  207.5490  149.9210 C   0  0  0  0  0  3  0  0  0  0  0  0
  162.2790  211.1760  150.1640 O   0  0  0  0  0  0  0  0  0  0  0  0
  162.3680  211.5570  148.8420 N   0  0  0  0  0  0  0  0  0  0  0  0
  159.9700  214.1690  148.1550 C   0  0  0  0  0  2  0  0  0  0  0  0
  161.6410  212.5160  148.3670 C   0  0  0  0  0  0  0  0  0  0  0  0
  161.7170  212.9390  146.9550 C   0  0  0  0  0  2  0  0  0  0  0  0
  160.8300  214.1690  146.8930 C   0  0  0  0  0  2  0  0  0  0  0  0
  160.6680  213.2860  149.1740 C   0  0  0  0  0  2  0  0  0  0  0  0
  160.6380  204.9450  150.5420 N   0  0  0  0  0  2  0  0  0  0  0  0
  161.0110  203.5820  150.7530 C   0  0  0  0  0  0  0  0  0  0  0  0
  161.5210  203.2280  151.8870 N   0  0  0  0  0  2  0  0  0  0  0  0
  161.5200  203.9860  147.7550 C   0  0  0  0  0  3  0  0  0  0  0  0
  160.3480  201.2990  150.0970 O   0  0  0  0  0  1  0  0  0  0  0  0
  160.8260  201.7850  147.3960 N   0  0  0  0  0  0  0  0  0  0  0  0
  161.5480  203.6440  146.4710 C   0  0  0  0  0  0  0  0  0  0  0  0
  160.8020  202.5560  149.7040 C   0  0  0  0  0  0  0  0  0  0  0  0
  161.0270  202.7710  148.3990 C   0  0  0  0  0  0  0  0  0  0  0  0
  161.1340  202.2930  146.2750 N   0  0  0  0  0  0  0  0  0  0  0  0
  163.3080  204.0980  144.9700 F   0  0  0  0  0  0  0  0  0  0  0  0
  161.1940  204.4730  144.2890 F   0  0  0  0  0  0  0  0  0  0  0  0
  162.1400  205.8250  145.8270 F   0  0  0  0  0  0  0  0  0  0  0  0
  162.0540  204.5220  145.3720 C   0  0  0  0  0  0  0  0  0  0  0  0
  2  1  1  0  0  0  0
  2  6  1  0  0  0  0
  3  6  2  0  0  0  0
  4  3  1  0  0  0  0
  5  7  1  0  0  0  0
  5  4  2  0  0  0  0
  7  2  2  0  0  0  0
  8  4  1  0  0  0  0
  9  8  1  0  0  0  0
 10 14  1  0  0  0  0
 11  9  2  0  0  0  0
 11 14  1  0  0  0  0
 12 11  1  0  0  0  0
 13 12  1  0  0  0  0
 13 10  1  0  0  0  0
 15 16  1  0  0  0  0
 15  1  1  0  0  0  0
 16 17  2  0  0  0  0
 18 23  1  0  0  0  0
 20 23  1  0  0  0  0
 21 18  2  0  0  0  0
 22 19  1  0  0  0  0
 22 16  1  0  0  0  0
 23 22  2  0  0  0  0
 24 21  1  0  0  0  0
 24 20  2  0  0  0  0
 25 28  1  0  0  0  0
 26 28  1  0  0  0  0
 28 27  1  0  0  0  0
 28 21  1  0  0  0  0
M  END
>  <MODEL>
1

>  <REMARK>
 VINA RESULT:      -8.5      0.000      0.000
  Name = 
  6 active torsions:
  status: ('A' for Active; 'I' for Inactive)
    1  A    between atoms: C_1  and  N_5
    2  A    between atoms: N_2  and  O_21
    3  A    between atoms: N_5  and  N_10
    4  A    between atoms: C_12  and  C_19
    5  A    between atoms: C_15  and  O_21
    6  A    between atoms: C_18  and  C_28
                            x       y       z     vdW  Elec       q    Type
                         _______ _______ _______ _____ _____    ______ ____

>  <TORSDO>
F 6

$$$$
=
 OpenBabel11072411173D

 28 30  0  0  0  0  0  0  0  0999 V2000
  161.0680  204.9710  152.1280 N   0  0  0  0  0  0  0  0  0  0  0  0
  161.1130  206.3950  152.2280 C   0  0  0  0  0  0  0  0  0  0  0  0
  161.0260  208.4290  153.5470 C   0  0  0  0  0  3  0  0  0  0  0  0
  161.2020  209.1950  152.3850 C   0  0  0  0  0  0  0  0  0  0  0  0
  161.3320  208.5550  151.1490 C   0  0  0  0  0  3  0  0  0  0  0  0
  160.9810  207.0350  153.4680 C   0  0  0  0  0  3  0  0  0  0  0  0
  161.2890  207.1600  151.0710 C   0  0  0  0  0  3  0  0  0  0  0  0
  161.2490  210.5890  152.4370 O   0  0  0  0  0  0  0  0  0  0  0  0
  160.9620  211.2760  153.5970 N   0  0  0  0  0  0  0  0  0  0  0  0
  157.7320  212.8660  153.3120 C   0  0  0  0  0  2  0  0  0  0  0  0
  159.8340  211.8890  153.7550 C   0  0  0  0  0  0  0  0  0  0  0  0
  159.5060  212.6330  154.9870 C   0  0  0  0  0  2  0  0  0  0  0  0
  158.0550  213.0370  154.7950 C   0  0  0  0  0  2  0  0  0  0  0  0
  158.7620  211.9100  152.7360 C   0  0  0  0  0  2  0  0  0  0  0  0
  160.7790  204.3340  150.9130 N   0  0  0  0  0  0  0  0  0  0  0  0
  161.0100  202.9350  150.7290 C   0  0  0  0  0  0  0  0  0  0  0  0
  161.4920  202.2350  151.7040 N   0  0  0  0  0  2  0  0  0  0  0  0
  161.7470  203.9860  147.9430 C   0  0  0  0  0  3  0  0  0  0  0  0
  160.0010  201.0520  149.4980 O   0  0  0  0  0  1  0  0  0  0  0  0
  160.7040  202.1110  147.0200 N   0  0  0  0  0  0  0  0  0  0  0  0
  161.7860  203.9810  146.6140 C   0  0  0  0  0  0  0  0  0  0  0  0
  160.6860  202.2640  149.4490 C   0  0  0  0  0  0  0  0  0  0  0  0
  161.0170  202.7570  148.2460 C   0  0  0  0  0  0  0  0  0  0  0  0
  161.1570  202.8220  146.0710 N   0  0  0  0  0  0  0  0  0  0  0  0
  162.3080  206.2620  146.3250 F   0  0  0  0  0  0  0  0  0  0  0  0
  163.8520  204.7270  145.7460 F   0  0  0  0  0  0  0  0  0  0  0  0
  161.9910  204.9810  144.4980 F   0  0  0  0  0  0  0  0  0  0  0  0
  162.4960  205.0020  145.7840 C   0  0  0  0  0  0  0  0  0  0  0  0
  1  2  1  0  0  0  0
  2  6  1  0  0  0  0
  4  8  1  0  0  0  0
  4  3  1  0  0  0  0
  5  4  2  0  0  0  0
  6  3  2  0  0  0  0
  7  5  1  0  0  0  0
  7  2  2  0  0  0  0
  8  9  1  0  0  0  0
  9 11  2  0  0  0  0
 10 13  1  0  0  0  0
 11 12  1  0  0  0  0
 13 12  1  0  0  0  0
 14 10  1  0  0  0  0
 14 11  1  0  0  0  0
 15  1  2  0  0  0  0
 16 15  1  0  0  0  0
 16 17  2  0  0  0  0
 18 23  1  0  0  0  0
 20 23  1  0  0  0  0
 21 18  2  0  0  0  0
 22 19  1  0  0  0  0
 22 16  1  0  0  0  0
 23 22  2  0  0  0  0
 24 21  1  0  0  0  0
 24 20  2  0  0  0  0
 26 28  1  0  0  0  0
 27 28  1  0  0  0  0
 28 25  1  0  0  0  0
 28 21  1  0  0  0  0
M  END
>  <MODEL>
2

>  <REMARK>
 VINA RESULT:      -8.5      2.657      3.272
  Name = 
  6 active torsions:
  status: ('A' for Active; 'I' for Inactive)
    1  A    between atoms: C_1  and  N_5
    2  A    between atoms: N_2  and  O_21
    3  A    between atoms: N_5  and  N_10
    4  A    between atoms: C_12  and  C_19
    5  A    between atoms: C_15  and  O_21
    6  A    between atoms: C_18  and  C_28
                            x       y       z     vdW  Elec       q    Type
                         _______ _______ _______ _____ _____    ______ ____

>  <TORSDO>
F 6

$$$$
=
 OpenBabel11072411173D

 28 30  0  0  1  0  0  0  0  0999 V2000
  162.4890  207.6390  148.0170 N   0  0  0  0  0  2  0  0  0  0  0  0
  162.0190  207.9490  149.3290 C   0  0  0  0  0  0  0  0  0  0  0  0
  160.9320  207.2990  151.3980 C   0  0  0  0  0  3  0  0  0  0  0  0
  161.1040  208.5980  151.9010 C   0  0  0  0  0  0  0  0  0  0  0  0
  161.7340  209.5650  151.1130 C   0  0  0  0  0  3  0  0  0  0  0  0
  161.3870  206.9770  150.1170 C   0  0  0  0  0  3  0  0  0  0  0  0
  162.1900  209.2420  149.8320 C   0  0  0  0  0  3  0  0  0  0  0  0
  160.6580  208.9440  153.1770 O   0  0  0  0  0  0  0  0  0  0  0  0
  161.2850  209.9220  153.9190 N   0  0  0  0  0  0  0  0  0  0  0  0
  161.9190  208.7070  157.2610 C   0  0  0  0  0  2  0  0  0  0  0  0
  161.6610  209.7050  155.1380 C   0  0  0  0  0  0  0  0  0  0  0  0
  162.3330  210.7370  155.9520 C   0  0  0  0  0  2  0  0  0  0  0  0
  162.7250  210.0040  157.2220 C   0  0  0  0  0  2  0  0  0  0  0  0
  161.4650  208.4180  155.8410 C   0  0  0  0  0  2  0  0  0  0  0  0
  162.4690  206.3260  147.5250 N   0  0  0  0  0  2  0  0  0  0  0  0
  161.4690  205.8880  146.6020 C   0  0  0  0  0  0  0  0  0  0  0  0
  160.5630  206.7200  146.2020 N   0  0  0  0  0  2  0  0  0  0  0  0
  160.9650  203.3590  148.2630 C   0  0  0  0  0  3  0  0  0  0  0  0
  161.6940  204.3220  144.7110 O   0  0  0  0  0  1  0  0  0  0  0  0
  161.2430  202.0940  146.3200 N   0  0  0  0  0  0  0  0  0  0  0  0
  160.8430  202.0540  148.4810 C   0  0  2  0  0  3  0  0  0  0  0  0
  161.4640  204.5050  146.0720 C   0  0  2  0  0  3  0  0  0  0  0  0
  161.2480  203.4190  146.8310 C   0  0  0  0  0  0  0  0  0  0  0  0
  161.0030  201.3010  147.2810 N   0  0  0  0  0  0  0  0  0  0  0  0
  161.3160  200.3820  150.0750 F   0  0  0  0  0  0  0  0  0  0  0  0
  160.5910  202.3860  150.8060 F   0  0  0  0  0  0  0  0  0  0  0  0
  159.1700  200.9920  149.7440 F   0  0  0  0  0  0  0  0  0  0  0  0
  160.4750  201.4460  149.7970 C   0  0  0  0  0  0  0  0  0  0  0  0
  1  2  1  0  0  0  0
  2  7  2  0  0  0  0
  2  6  1  0  0  0  0
  3  4  1  0  0  0  0
  4  8  1  0  0  0  0
  5  4  2  0  0  0  0
  6  3  2  0  0  0  0
  7  5  1  0  0  0  0
  8  9  1  0  0  0  0
  9 11  2  0  0  0  0
 11 14  1  0  0  0  0
 11 12  1  0  0  0  0
 12 13  1  0  0  0  0
 13 10  1  0  0  0  0
 14 10  1  0  0  0  0
 15  1  1  0  0  0  0
 16 15  1  0  0  0  0
 17 16  2  0  0  0  0
 18 21  1  0  0  0  0
 20 23  1  0  0  0  0
 20 24  2  0  0  0  0
 21 28  1  6  0  0  0
 22 19  1  6  0  0  0
 22 16  1  0  0  0  0
 22 23  1  0  0  0  0
 23 18  2  0  0  0  0
 24 21  1  0  0  0  0
 27 28  1  0  0  0  0
 28 25  1  0  0  0  0
 28 26  1  0  0  0  0
M  END
>  <MODEL>
3

>  <REMARK>
 VINA RESULT:      -8.4      3.741      5.569
  Name = 
  6 active torsions:
  status: ('A' for Active; 'I' for Inactive)
    1  A    between atoms: C_1  and  N_5
    2  A    between atoms: N_2  and  O_21
    3  A    between atoms: N_5  and  N_10
    4  A    between atoms: C_12  and  C_19
    5  A    between atoms: C_15  and  O_21
    6  A    between atoms: C_18  and  C_28
                            x       y       z     vdW  Elec       q    Type
                         _______ _______ _______ _____ _____    ______ ____

>  <TORSDO>
F 6

$$$$
=
 OpenBabel11072411173D

 28 30  0  0  0  0  0  0  0  0999 V2000
  160.5330  210.2420  154.0400 N   0  0  0  0  0  2  0  0  0  0  0  0
  160.7870  208.9320  153.5310 C   0  0  0  0  0  0  0  0  0  0  0  0
  161.1790  206.5630  153.8780 C   0  0  0  0  0  3  0  0  0  0  0  0
  161.2900  206.3750  152.4920 C   0  0  0  0  0  0  0  0  0  0  0  0
  161.1480  207.4680  151.6330 C   0  0  0  0  0  3  0  0  0  0  0  0
  160.9290  207.8380  154.3940 C   0  0  0  0  0  3  0  0  0  0  0  0
  160.8970  208.7420  152.1500 C   0  0  0  0  0  3  0  0  0  0  0  0
  161.5400  205.1130  151.9510 O   0  0  0  0  0  0  0  0  0  0  0  0
  161.3980  204.8650  150.6030 N   0  0  0  0  0  0  0  0  0  0  0  0
  160.8950  201.3320  150.0510 C   0  0  0  0  0  2  0  0  0  0  0  0
  161.1570  203.6740  150.1580 C   0  0  0  0  0  0  0  0  0  0  0  0
  161.0030  203.3860  148.7190 C   0  0  0  0  0  2  0  0  0  0  0  0
  160.5800  201.9290  148.6810 C   0  0  0  0  0  2  0  0  0  0  0  0
  161.0080  202.4880  151.0290 C   0  0  0  0  0  2  0  0  0  0  0  0
  160.5870  211.3710  153.2110 N   0  0  0  0  0  2  0  0  0  0  0  0
  159.4000  212.0350  152.7730 C   0  0  0  0  0  0  0  0  0  0  0  0
  158.2450  211.5930  153.1520 N   0  0  0  0  0  2  0  0  0  0  0  0
  160.9000  212.2230  150.1040 C   0  0  0  0  0  3  0  0  0  0  0  0
  158.7870  214.3820  152.3290 O   0  0  0  0  0  1  0  0  0  0  0  0
  160.1990  214.4440  149.9290 N   0  0  0  0  0  0  0  0  0  0  0  0
  161.3520  212.8160  149.0040 C   0  0  0  0  0  0  0  0  0  0  0  0
  159.4650  213.2390  151.9120 C   0  0  0  0  0  0  0  0  0  0  0  0
  160.1390  213.2880  150.7530 C   0  0  0  0  0  0  0  0  0  0  0  0
  160.9010  214.1670  148.9090 N   0  0  0  0  0  0  0  0  0  0  0  0
  162.2730  210.7870  148.2360 F   0  0  0  0  0  0  0  0  0  0  0  0
  161.5060  212.2600  146.7150 F   0  0  0  0  0  0  0  0  0  0  0  0
  163.3990  212.7020  147.8570 F   0  0  0  0  0  0  0  0  0  0  0  0
  162.1420  212.1310  147.9360 C   0  0  0  0  0  0  0  0  0  0  0  0
  2  1  1  0  0  0  0
  2  6  1  0  0  0  0
  3  6  2  0  0  0  0
  4  3  1  0  0  0  0
  5  7  1  0  0  0  0
  5  4  2  0  0  0  0
  7  2  2  0  0  0  0
  8  4  1  0  0  0  0
  9  8  1  0  0  0  0
 10 14  1  0  0  0  0
 11  9  2  0  0  0  0
 11 14  1  0  0  0  0
 12 11  1  0  0  0  0
 13 12  1  0  0  0  0
 13 10  1  0  0  0  0
 15  1  1  0  0  0  0
 16 17  2  0  0  0  0
 16 15  1  0  0  0  0
 18 23  1  0  0  0  0
 20 23  1  0  0  0  0
 21 18  2  0  0  0  0
 22 19  1  0  0  0  0
 22 16  1  0  0  0  0
 23 22  2  0  0  0  0
 24 21  1  0  0  0  0
 24 20  2  0  0  0  0
 26 28  1  0  0  0  0
 27 28  1  0  0  0  0
 28 25  1  0  0  0  0
 28 21  1  0  0  0  0
M  END
>  <MODEL>
4

>  <REMARK>
 VINA RESULT:      -8.0      3.415      8.734
  Name = 
  6 active torsions:
  status: ('A' for Active; 'I' for Inactive)
    1  A    between atoms: C_1  and  N_5
    2  A    between atoms: N_2  and  O_21
    3  A    between atoms: N_5  and  N_10
    4  A    between atoms: C_12  and  C_19
    5  A    between atoms: C_15  and  O_21
    6  A    between atoms: C_18  and  C_28
                            x       y       z     vdW  Elec       q    Type
                         _______ _______ _______ _____ _____    ______ ____

>  <TORSDO>
F 6

$$$$
=
 OpenBabel11072411173D

 28 30  0  0  0  0  0  0  0  0999 V2000
  161.3750  205.4170  152.6890 N   0  0  0  0  0  2  0  0  0  0  0  0
  161.2320  206.8370  152.7500 C   0  0  0  0  0  0  0  0  0  0  0  0
  160.8330  208.8740  154.0050 C   0  0  0  0  0  3  0  0  0  0  0  0
  160.9530  209.6280  152.8280 C   0  0  0  0  0  0  0  0  0  0  0  0
  161.2110  208.9800  151.6170 C   0  0  0  0  0  3  0  0  0  0  0  0
  160.9710  207.4840  153.9650 C   0  0  0  0  0  3  0  0  0  0  0  0
  161.3510  207.5900  151.5780 C   0  0  0  0  0  3  0  0  0  0  0  0
  160.8180  211.0170  152.8410 O   0  0  0  0  0  0  0  0  0  0  0  0
  159.5810  211.6200  152.9210 N   0  0  0  0  0  0  0  0  0  0  0  0
  159.2790  214.1410  150.3530 C   0  0  0  0  0  2  0  0  0  0  0  0
  159.2170  212.5250  152.0720 C   0  0  0  0  0  0  0  0  0  0  0  0
  157.8990  213.1860  152.1390 C   0  0  0  0  0  2  0  0  0  0  0  0
  157.8500  214.0320  150.8800 C   0  0  0  0  0  2  0  0  0  0  0  0
  160.0670  212.9910  150.9540 C   0  0  0  0  0  2  0  0  0  0  0  0
  161.4390  204.7420  151.4630 N   0  0  0  0  0  2  0  0  0  0  0  0
  160.9140  203.4210  151.3080 C   0  0  0  0  0  0  0  0  0  0  0  0
  160.3600  202.8330  152.3170 N   0  0  0  0  0  2  0  0  0  0  0  0
  161.3520  204.7710  148.5880 C   0  0  0  0  0  3  0  0  0  0  0  0
  160.8220  201.3340  149.9980 O   0  0  0  0  0  1  0  0  0  0  0  0
  161.2060  202.6680  147.5820 N   0  0  0  0  0  0  0  0  0  0  0  0
  161.4770  204.8260  147.2670 C   0  0  0  0  0  0  0  0  0  0  0  0
  160.9690  202.7190  150.0040 C   0  0  0  0  0  0  0  0  0  0  0  0
  161.1540  203.3440  148.8310 C   0  0  0  0  0  0  0  0  0  0  0  0
  161.3990  203.5310  146.6730 N   0  0  0  0  0  0  0  0  0  0  0  0
  162.6660  205.7940  145.4750 F   0  0  0  0  0  0  0  0  0  0  0  0
  160.6110  206.5830  145.9480 F   0  0  0  0  0  0  0  0  0  0  0  0
  162.3310  207.0140  147.3410 F   0  0  0  0  0  0  0  0  0  0  0  0
  161.7740  206.0730  146.4960 C   0  0  0  0  0  0  0  0  0  0  0  0
  1  2  1  0  0  0  0
  2  6  1  0  0  0  0
  4  8  1  0  0  0  0
  4  3  1  0  0  0  0
  5  4  2  0  0  0  0
  6  3  2  0  0  0  0
  7  5  1  0  0  0  0
  7  2  2  0  0  0  0
  8  9  1  0  0  0  0
 10 13  1  0  0  0  0
 10 14  1  0  0  0  0
 11 12  1  0  0  0  0
 11  9  2  0  0  0  0
 13 12  1  0  0  0  0
 14 11  1  0  0  0  0
 15  1  1  0  0  0  0
 16 15  1  0  0  0  0
 16 17  2  0  0  0  0
 18 23  1  0  0  0  0
 19 22  1  0  0  0  0
 20 23  1  0  0  0  0
 21 18  2  0  0  0  0
 22 16  1  0  0  0  0
 23 22  2  0  0  0  0
 24 21  1  0  0  0  0
 24 20  2  0  0  0  0
 25 28  1  0  0  0  0
 26 28  1  0  0  0  0
 28 21  1  0  0  0  0
 28 27  1  0  0  0  0
M  END
>  <MODEL>
5

>  <REMARK>
 VINA RESULT:      -8.0      2.085      2.575
  Name = 
  6 active torsions:
  status: ('A' for Active; 'I' for Inactive)
    1  A    between atoms: C_1  and  N_5
    2  A    between atoms: N_2  and  O_21
    3  A    between atoms: N_5  and  N_10
    4  A    between atoms: C_12  and  C_19
    5  A    between atoms: C_15  and  O_21
    6  A    between atoms: C_18  and  C_28
                            x       y       z     vdW  Elec       q    Type
                         _______ _______ _______ _____ _____    ______ ____

>  <TORSDO>
F 6

$$$$
=
 OpenBabel11072411173D

 28 30  0  0  0  0  0  0  0  0999 V2000
  161.2200  207.2010  154.5660 N   0  0  0  0  0  0  0  0  0  0  0  0
  161.2110  206.6180  153.2630 C   0  0  0  0  0  0  0  0  0  0  0  0
  161.2480  204.6750  151.8110 C   0  0  0  0  0  3  0  0  0  0  0  0
  161.1950  205.5100  150.6850 C   0  0  0  0  0  0  0  0  0  0  0  0
  161.1500  206.8960  150.8550 C   0  0  0  0  0  3  0  0  0  0  0  0
  161.2560  205.2280  153.0950 C   0  0  0  0  0  3  0  0  0  0  0  0
  161.1570  207.4490  152.1390 C   0  0  0  0  0  3  0  0  0  0  0  0
  161.1860  204.9820  149.3930 O   0  0  0  0  0  0  0  0  0  0  0  0
  160.7540  205.7250  148.3150 N   0  0  0  0  0  0  0  0  0  0  0  0
  162.1610  204.3900  145.2680 C   0  0  0  0  0  2  0  0  0  0  0  0
  161.0860  205.4090  147.1040 C   0  0  0  0  0  0  0  0  0  0  0  0
  160.6370  206.1900  145.9350 C   0  0  0  0  0  2  0  0  0  0  0  0
  161.1190  205.3780  144.7470 C   0  0  0  0  0  2  0  0  0  0  0  0
  161.9350  204.2470  146.7620 C   0  0  0  0  0  2  0  0  0  0  0  0
  161.0910  208.5850  154.7480 N   0  0  0  0  0  0  0  0  0  0  0  0
  160.8010  209.1480  156.0300 C   0  0  0  0  0  0  0  0  0  0  0  0
  160.6610  208.3670  157.0520 N   0  0  0  0  0  2  0  0  0  0  0  0
  158.2700  210.8010  155.5110 C   0  0  0  0  0  3  0  0  0  0  0  0
  161.7990  211.3070  156.6790 O   0  0  0  0  0  1  0  0  0  0  0  0
  159.4510  212.7100  156.1560 N   0  0  0  0  0  0  0  0  0  0  0  0
  157.5350  211.9050  155.4370 C   0  0  0  0  0  0  0  0  0  0  0  0
  160.6830  210.6120  156.2190 C   0  0  0  0  0  0  0  0  0  0  0  0
  159.5610  211.3050  155.9740 C   0  0  0  0  0  0  0  0  0  0  0  0
  158.2700  213.0570  155.8480 N   0  0  0  0  0  0  0  0  0  0  0  0
  155.7020  210.7080  154.5650 F   0  0  0  0  0  0  0  0  0  0  0  0
  155.3200  212.2150  156.1940 F   0  0  0  0  0  0  0  0  0  0  0  0
  155.8690  212.9110  154.1210 F   0  0  0  0  0  0  0  0  0  0  0  0
  156.0850  211.9350  155.0760 C   0  0  0  0  0  0  0  0  0  0  0  0
  1 15  2  0  0  0  0
  2  1  1  0  0  0  0
  3  6  2  0  0  0  0
  4  5  2  0  0  0  0
  4  3  1  0  0  0  0
  5  7  1  0  0  0  0
  6  2  1  0  0  0  0
  7  2  2  0  0  0  0
  8  4  1  0  0  0  0
  9  8  1  0  0  0  0
 10 14  1  0  0  0  0
 11  9  2  0  0  0  0
 12 11  1  0  0  0  0
 13 10  1  0  0  0  0
 13 12  1  0  0  0  0
 14 11  1  0  0  0  0
 15 16  1  0  0  0  0
 16 22  1  0  0  0  0
 16 17  2  0  0  0  0
 18 23  1  0  0  0  0
 21 18  2  0  0  0  0
 21 24  1  0  0  0  0
 22 19  1  0  0  0  0
 23 20  1  0  0  0  0
 23 22  2  0  0  0  0
 24 20  2  0  0  0  0
 25 28  1  0  0  0  0
 27 28  1  0  0  0  0
 28 21  1  0  0  0  0
 28 26  1  0  0  0  0
M  END
>  <MODEL>
6

>  <REMARK>
 VINA RESULT:      -7.9      5.875      9.516
  Name = 
  6 active torsions:
  status: ('A' for Active; 'I' for Inactive)
    1  A    between atoms: C_1  and  N_5
    2  A    between atoms: N_2  and  O_21
    3  A    between atoms: N_5  and  N_10
    4  A    between atoms: C_12  and  C_19
    5  A    between atoms: C_15  and  O_21
    6  A    between atoms: C_18  and  C_28
                            x       y       z     vdW  Elec       q    Type
                         _______ _______ _______ _____ _____    ______ ____

>  <TORSDO>
F 6

$$$$
=
 OpenBabel11072411173D

 28 30  0  0  1  0  0  0  0  0999 V2000
  161.9170  210.1990  150.9080 N   0  0  0  0  0  2  0  0  0  0  0  0
  161.7530  208.9280  150.2780 C   0  0  0  0  0  0  0  0  0  0  0  0
  161.1890  206.5710  150.3780 C   0  0  0  0  0  3  0  0  0  0  0  0
  161.4450  206.4470  149.0040 C   0  0  0  0  0  0  0  0  0  0  0  0
  161.8550  207.5670  148.2750 C   0  0  0  0  0  3  0  0  0  0  0  0
  161.3430  207.8070  151.0120 C   0  0  0  0  0  3  0  0  0  0  0  0
  162.0070  208.8030  148.9090 C   0  0  0  0  0  3  0  0  0  0  0  0
  161.2990  205.2240  148.3490 O   0  0  0  0  0  0  0  0  0  0  0  0
  161.2120  204.0380  149.0470 N   0  0  0  0  0  0  0  0  0  0  0  0
  160.9720  201.2720  146.7370 C   0  0  0  0  0  2  0  0  0  0  0  0
  161.1670  202.8980  148.4360 C   0  0  0  0  0  0  0  0  0  0  0  0
  161.0720  201.6170  149.1620 C   0  0  0  0  0  2  0  0  0  0  0  0
  161.2080  200.5690  148.0720 C   0  0  0  0  0  2  0  0  0  0  0  0
  161.2070  202.7550  146.9630 C   0  0  0  0  0  2  0  0  0  0  0  0
  161.5090  210.4150  152.2320 N   0  0  0  0  0  2  0  0  0  0  0  0
  160.5340  211.4070  152.5620 C   0  0  0  0  0  0  0  0  0  0  0  0
  160.0070  212.1210  151.6210 N   0  0  0  0  0  2  0  0  0  0  0  0
  160.4200  209.2390  154.7280 C   0  0  0  0  0  3  0  0  0  0  0  0
  159.7080  212.9020  154.3400 O   0  0  0  0  0  1  0  0  0  0  0  0
  159.6260  210.8500  156.2220 N   0  0  0  0  0  0  0  0  0  0  0  0
  160.1760  208.7400  155.9360 C   0  0  2  0  0  3  0  0  0  0  0  0
  160.0940  211.6190  153.9600 C   0  0  2  0  0  3  0  0  0  0  0  0
  160.0490  210.6440  154.8810 C   0  0  0  0  0  0  0  0  0  0  0  0
  159.7050  209.7420  156.8360 N   0  0  0  0  0  0  0  0  0  0  0  0
  160.8010  206.5790  155.2320 F   0  0  0  0  0  0  0  0  0  0  0  0
  161.5060  207.2960  157.2470 F   0  0  0  0  0  0  0  0  0  0  0  0
  159.3330  206.7850  156.9300 F   0  0  0  0  0  0  0  0  0  0  0  0
  160.4600  207.3300  156.3430 C   0  0  0  0  0  0  0  0  0  0  0  0
  1 15  1  0  0  0  0
  2  1  1  0  0  0  0
  2  6  1  0  0  0  0
  3  6  2  0  0  0  0
  4  3  1  0  0  0  0
  5  7  1  0  0  0  0
  5  4  2  0  0  0  0
  7  2  2  0  0  0  0
  8  4  1  0  0  0  0
  8  9  1  0  0  0  0
 10 14  1  0  0  0  0
 10 13  1  0  0  0  0
 11  9  2  0  0  0  0
 11 12  1  0  0  0  0
 13 12  1  0  0  0  0
 14 11  1  0  0  0  0
 15 16  1  0  0  0  0
 16 22  1  0  0  0  0
 17 16  2  0  0  0  0
 18 23  2  0  0  0  0
 18 21  1  0  0  0  0
 20 24  2  0  0  0  0
 21 28  1  1  0  0  0
 21 24  1  0  0  0  0
 22 19  1  1  0  0  0
 22 23  1  0  0  0  0
 23 20  1  0  0  0  0
 25 28  1  0  0  0  0
 28 27  1  0  0  0  0
 28 26  1  0  0  0  0
M  END
>  <MODEL>
7

>  <REMARK>
 VINA RESULT:      -7.8      4.707      9.399
  Name = 
  6 active torsions:
  status: ('A' for Active; 'I' for Inactive)
    1  A    between atoms: C_1  and  N_5
    2  A    between atoms: N_2  and  O_21
    3  A    between atoms: N_5  and  N_10
    4  A    between atoms: C_12  and  C_19
    5  A    between atoms: C_15  and  O_21
    6  A    between atoms: C_18  and  C_28
                            x       y       z     vdW  Elec       q    Type
                         _______ _______ _______ _____ _____    ______ ____

>  <TORSDO>
F 6

$$$$
=
 OpenBabel11072411173D

 28 30  0  0  1  0  0  0  0  0999 V2000
  162.3310  209.9260  151.6390 N   0  0  0  0  0  2  0  0  0  0  0  0
  161.9640  208.7440  150.9280 C   0  0  0  0  0  0  0  0  0  0  0  0
  161.5920  207.5540  148.8460 C   0  0  0  0  0  3  0  0  0  0  0  0
  161.2320  206.4030  149.5640 C   0  0  0  0  0  0  0  0  0  0  0  0
  161.2410  206.4310  150.9620 C   0  0  0  0  0  3  0  0  0  0  0  0
  161.9550  208.7200  149.5260 C   0  0  0  0  0  3  0  0  0  0  0  0
  161.6060  207.5960  151.6410 C   0  0  0  0  0  3  0  0  0  0  0  0
  160.8650  205.2270  148.9090 O   0  0  0  0  0  0  0  0  0  0  0  0
  160.7630  204.0290  149.5830 N   0  0  0  0  0  0  0  0  0  0  0  0
  161.1360  201.2850  147.2640 C   0  0  0  0  0  2  0  0  0  0  0  0
  160.9130  202.8980  148.9720 C   0  0  0  0  0  0  0  0  0  0  0  0
  160.8070  201.6030  149.6720 C   0  0  0  0  0  2  0  0  0  0  0  0
  161.2070  200.5850  148.6200 C   0  0  0  0  0  2  0  0  0  0  0  0
  161.2070  202.7790  147.5270 C   0  0  0  0  0  2  0  0  0  0  0  0
  162.0650  210.0670  153.0080 N   0  0  0  0  0  2  0  0  0  0  0  0
  161.0840  210.9890  153.4890 C   0  0  0  0  0  0  0  0  0  0  0  0
  160.4190  211.7100  152.6460 N   0  0  0  0  0  2  0  0  0  0  0  0
  158.2860  211.2520  154.7170 C   0  0  0  0  0  3  0  0  0  0  0  0
  161.8680  211.1140  155.8230 O   0  0  0  0  0  1  0  0  0  0  0  0
  159.2820  211.3670  156.8260 N   0  0  0  0  0  0  0  0  0  0  0  0
  157.3980  211.4010  155.6940 C   0  0  2  0  0  3  0  0  0  0  0  0
  160.7950  211.1200  154.9360 C   0  0  2  0  0  3  0  0  0  0  0  0
  159.5560  211.2420  155.4380 C   0  0  0  0  0  0  0  0  0  0  0  0
  158.0250  211.4550  156.9740 N   0  0  0  0  0  0  0  0  0  0  0  0
  155.2940  211.9470  156.6070 F   0  0  0  0  0  0  0  0  0  0  0  0
  155.5810  212.1470  154.3830 F   0  0  0  0  0  0  0  0  0  0  0  0
  155.4740  210.1020  155.3260 F   0  0  0  0  0  0  0  0  0  0  0  0
  155.9150  211.4010  155.4980 C   0  0  0  0  0  0  0  0  0  0  0  0
  1 15  1  0  0  0  0
  2  1  1  0  0  0  0
  2  7  1  0  0  0  0
  3  6  1  0  0  0  0
  3  4  2  0  0  0  0
  4  5  1  0  0  0  0
  5  7  2  0  0  0  0
  6  2  2  0  0  0  0
  8  4  1  0  0  0  0
  8  9  1  0  0  0  0
 10 14  1  0  0  0  0
 10 13  1  0  0  0  0
 11  9  2  0  0  0  0
 11 12  1  0  0  0  0
 13 12  1  0  0  0  0
 14 11  1  0  0  0  0
 15 16  1  0  0  0  0
 16 22  1  0  0  0  0
 17 16  2  0  0  0  0
 18 23  2  0  0  0  0
 18 21  1  0  0  0  0
 20 24  2  0  0  0  0
 21 28  1  1  0  0  0
 21 24  1  0  0  0  0
 22 23  1  0  0  0  0
 22 19  1  1  0  0  0
 23 20  1  0  0  0  0
 26 28  1  0  0  0  0
 27 28  1  0  0  0  0
 28 25  1  0  0  0  0
M  END
>  <MODEL>
8

>  <REMARK>
 VINA RESULT:      -7.7      5.648     10.090
  Name = 
  6 active torsions:
  status: ('A' for Active; 'I' for Inactive)
    1  A    between atoms: C_1  and  N_5
    2  A    between atoms: N_2  and  O_21
    3  A    between atoms: N_5  and  N_10
    4  A    between atoms: C_12  and  C_19
    5  A    between atoms: C_15  and  O_21
    6  A    between atoms: C_18  and  C_28
                            x       y       z     vdW  Elec       q    Type
                         _______ _______ _______ _____ _____    ______ ____

>  <TORSDO>
F 6

$$$$
=
 OpenBabel11072411173D

 28 30  0  0  0  0  0  0  0  0999 V2000
  162.3120  207.3740  151.1040 N   0  0  0  0  0  2  0  0  0  0  0  0
  161.7680  208.3650  151.9770 C   0  0  0  0  0  0  0  0  0  0  0  0
  160.6770  208.9910  154.0510 C   0  0  0  0  0  3  0  0  0  0  0  0
  160.7040  210.3400  153.6630 C   0  0  0  0  0  0  0  0  0  0  0  0
  161.2640  210.6920  152.4320 C   0  0  0  0  0  3  0  0  0  0  0  0
  161.2060  208.0080  153.2100 C   0  0  0  0  0  3  0  0  0  0  0  0
  161.7950  209.7090  151.5920 C   0  0  0  0  0  3  0  0  0  0  0  0
  160.1820  211.3390  154.4840 O   0  0  0  0  0  0  0  0  0  0  0  0
  159.3100  212.2900  153.9960 N   0  0  0  0  0  0  0  0  0  0  0  0
  155.9390  211.5060  155.0280 C   0  0  0  0  0  2  0  0  0  0  0  0
  158.0470  212.2520  154.2760 C   0  0  0  0  0  0  0  0  0  0  0  0
  157.0960  213.2580  153.7640 C   0  0  0  0  0  2  0  0  0  0  0  0
  155.7930  212.9170  154.4630 C   0  0  0  0  0  2  0  0  0  0  0  0
  157.4260  211.2150  155.1280 C   0  0  0  0  0  2  0  0  0  0  0  0
  162.1090  206.0070  151.3350 N   0  0  0  0  0  2  0  0  0  0  0  0
  161.1080  205.2700  150.6290 C   0  0  0  0  0  0  0  0  0  0  0  0
  160.3730  205.8720  149.7510 N   0  0  0  0  0  2  0  0  0  0  0  0
  160.9210  203.1310  148.4390 C   0  0  0  0  0  3  0  0  0  0  0  0
  160.8090  203.3770  152.1810 O   0  0  0  0  0  1  0  0  0  0  0  0
  160.6340  201.5230  150.1090 N   0  0  0  0  0  0  0  0  0  0  0  0
  160.7640  201.9060  147.9480 C   0  0  0  0  0  0  0  0  0  0  0  0
  160.9100  203.8210  150.8640 C   0  0  0  0  0  0  0  0  0  0  0  0
  160.8240  202.9130  149.8800 C   0  0  0  0  0  0  0  0  0  0  0  0
  160.6040  200.9380  148.9840 N   0  0  0  0  0  0  0  0  0  0  0  0
  161.6120  202.5030  145.8310 F   0  0  0  0  0  0  0  0  0  0  0  0
  161.4420  200.3160  146.3390 F   0  0  0  0  0  0  0  0  0  0  0  0
  159.5810  201.5310  145.9520 F   0  0  0  0  0  0  0  0  0  0  0  0
  160.8520  201.5570  146.4970 C   0  0  0  0  0  0  0  0  0  0  0  0
  1 15  1  0  0  0  0
  1  2  1  0  0  0  0
  2  6  1  0  0  0  0
  4  3  1  0  0  0  0
  4  8  1  0  0  0  0
  5  4  2  0  0  0  0
  6  3  2  0  0  0  0
  7  2  2  0  0  0  0
  7  5  1  0  0  0  0
  9 11  2  0  0  0  0
  9  8  1  0  0  0  0
 10 14  1  0  0  0  0
 11 14  1  0  0  0  0
 12 11  1  0  0  0  0
 12 13  1  0  0  0  0
 13 10  1  0  0  0  0
 16 22  1  0  0  0  0
 16 15  1  0  0  0  0
 17 16  2  0  0  0  0
 18 23  1  0  0  0  0
 21 18  2  0  0  0  0
 21 24  1  0  0  0  0
 22 19  1  0  0  0  0
 23 20  1  0  0  0  0
 23 22  2  0  0  0  0
 24 20  2  0  0  0  0
 25 28  1  0  0  0  0
 26 28  1  0  0  0  0
 27 28  1  0  0  0  0
 28 21  1  0  0  0  0
M  END
>  <MODEL>
9

>  <REMARK>
 VINA RESULT:      -7.7      3.435      4.422
  Name = 
  6 active torsions:
  status: ('A' for Active; 'I' for Inactive)
    1  A    between atoms: C_1  and  N_5
    2  A    between atoms: N_2  and  O_21
    3  A    between atoms: N_5  and  N_10
    4  A    between atoms: C_12  and  C_19
    5  A    between atoms: C_15  and  O_21
    6  A    between atoms: C_18  and  C_28
                            x       y       z     vdW  Elec       q    Type
                         _______ _______ _______ _____ _____    ______ ____

>  <TORSDO>
F 6

$$$$
