=
 OpenBabel11072415133D

 40 43  0  0  1  0  0  0  0  0999 V2000
  160.0980  206.3760  151.0950 C   0  0  0  0  0  3  0  0  0  0  0  0
  161.0900  208.4520  152.1290 C   0  0  0  0  0  0  0  0  0  0  0  0
  161.0960  205.3180  151.5230 C   0  0  2  0  0  3  0  0  0  0  0  0
  160.1230  207.7010  151.2950 C   0  0  0  0  0  3  0  0  0  0  0  0
  160.3660  207.1230  154.0850 C   0  0  2  0  0  3  0  0  0  0  0  0
  161.1000  205.7810  154.0480 C   0  0  0  0  0  2  0  0  0  0  0  0
  161.9250  205.5990  152.7750 C   0  0  0  0  0  2  0  0  0  0  0  0
  161.1620  208.2440  153.4560 C   0  0  0  0  0  0  0  0  0  0  0  0
  162.1310  208.9590  154.2300 N   0  0  0  0  0  2  0  0  0  0  0  0
  162.6740  210.7320  155.7250 N   0  0  0  0  0  0  0  0  0  0  0  0
  161.7980  210.1050  155.0160 C   0  0  0  0  0  0  0  0  0  0  0  0
  160.7930  211.8020  156.1100 C   0  0  0  0  0  0  0  0  0  0  0  0
  160.4320  210.7070  155.1530 C   0  0  1  0  0  3  0  0  0  0  0  0
  162.0510  211.7830  156.4030 N   0  0  0  0  0  0  0  0  0  0  0  0
  158.5800  211.1390  153.4660 C   0  0  0  0  0  3  0  0  0  0  0  0
  159.9290  211.2500  153.8450 C   0  0  0  0  0  0  0  0  0  0  0  0
  160.3930  212.4400  151.7830 C   0  0  0  0  0  3  0  0  0  0  0  0
  158.1440  211.6750  152.2510 C   0  0  0  0  0  3  0  0  0  0  0  0
  160.8300  211.9020  152.9960 C   0  0  0  0  0  3  0  0  0  0  0  0
  159.0510  212.3270  151.4110 C   0  0  0  0  0  3  0  0  0  0  0  0
  160.2900  213.8420  157.1940 O   0  0  0  0  0  0  0  0  0  0  0  0
  158.4500  212.5040  156.6680 N   0  0  0  0  0  2  0  0  0  0  0  0
  159.8540  212.7730  156.6870 C   0  0  0  0  0  0  0  0  0  0  0  0
  157.4670  213.4060  157.2520 C   0  0  0  0  0  2  0  0  0  0  0  0
  156.1810  213.3650  156.4500 C   0  0  0  0  0  1  0  0  0  0  0  0
  160.4780  206.8760  156.6090 N   0  0  0  0  0  1  0  0  0  0  0  0
  159.8650  207.4470  155.4560 C   0  0  0  0  0  0  0  0  0  0  0  0
  158.9130  208.2580  155.5920 O   0  0  0  0  0  0  0  0  0  0  0  0
  162.0490  205.0160  150.3760 C   0  0  0  0  0  2  0  0  0  0  0  0
  161.2970  204.6770  149.0940 C   0  0  0  0  0  2  0  0  0  0  0  0
  161.6200  203.2680  148.6160 C   0  0  0  0  0  2  0  0  0  0  0  0
  159.5400  202.3950  149.3650 O   0  0  0  0  0  0  0  0  0  0  0  0
  160.8060  201.0350  148.7860 O   0  0  0  0  0  0  0  0  0  0  0  0
  160.9040  202.2280  149.4690 C   0  0  0  0  0  3  0  0  0  0  0  0
  159.4930  201.2340  148.7190 O   0  0  0  0  0  0  0  0  0  0  0  0
  161.8900  209.4470  151.5540 O   0  0  0  0  0  0  0  0  0  0  0  0
  162.6700  209.2360  150.3830 C   0  0  0  0  0  2  0  0  0  0  0  0
  161.9540  209.8060  149.1720 C   0  0  0  0  0  2  0  0  0  0  0  0
  161.4860  208.7640  148.3740 O   0  0  0  0  0  0  0  0  0  0  0  0
  162.5440  207.8570  148.3290 C   0  0  0  0  0  1  0  0  0  0  0  0
  1  4  2  0  0  0  0
  1  3  1  0  0  0  0
  2  8  2  0  0  0  0
  3 29  1  6  0  0  0
  3  7  1  0  0  0  0
  4  2  1  0  0  0  0
  5 27  1  1  0  0  0
  6  5  1  0  0  0  0
  7  6  1  0  0  0  0
  8  5  1  0  0  0  0
  8  9  1  0  0  0  0
  9 11  1  0  0  0  0
 10 14  1  0  0  0  0
 11 13  1  0  0  0  0
 11 10  2  0  0  0  0
 12 14  2  0  0  0  0
 12 23  1  0  0  0  0
 13 16  1  6  0  0  0
 13 12  1  0  0  0  0
 15 16  1  0  0  0  0
 17 19  1  0  0  0  0
 18 15  2  0  0  0  0
 19 16  2  0  0  0  0
 20 17  2  0  0  0  0
 20 18  1  0  0  0  0
 22 23  1  0  0  0  0
 22 24  1  0  0  0  0
 23 21  2  0  0  0  0
 25 24  1  0  0  0  0
 27 28  2  0  0  0  0
 27 26  1  0  0  0  0
 30 29  1  0  0  0  0
 31 30  1  0  0  0  0
 31 34  1  0  0  0  0
 32 34  1  0  0  0  0
 33 34  1  0  0  0  0
 35 33  1  0  0  0  0
 35 32  1  0  0  0  0
 36  2  1  0  0  0  0
 37 36  1  0  0  0  0
 38 37  1  0  0  0  0
 39 38  1  0  0  0  0
 40 39  1  0  0  0  0
M  END
>  <MODEL>
1

>  <REMARK>
 VINA RESULT:      -2.2      0.000      0.000
  Name = 
  13 active torsions:
  status: ('A' for Active; 'I' for Inactive)
    1  A    between atoms: N_1  and  C_39
    2  A    between atoms: N_5  and  C_20
    3  A    between atoms: C_6  and  C_14
    4  A    between atoms: C_6  and  C_23
    5  A    between atoms: C_8  and  C_19
    6  A    between atoms: C_9  and  O_29
    7  A    between atoms: O_10  and  C_18
    8  A    between atoms: C_12  and  C_24
    9  A    between atoms: C_14  and  C_15
   10  A    between atoms: C_16  and  C_28
   11  A    between atoms: C_18  and  C_34
   12  A    between atoms: C_23  and  C_36
   13  A    between atoms: O_29  and  C_34
                            x       y       z     vdW  Elec       q    Type
                         _______ _______ _______ _____ _____    ______ ____

>  <TORSDO>
F 13

$$$$
=
 OpenBabel11072415133D

 40 43  0  0  1  0  0  0  0  0999 V2000
  162.5850  207.6910  151.1770 C   0  0  0  0  0  3  0  0  0  0  0  0
  161.2180  206.1220  149.7510 C   0  0  0  0  0  0  0  0  0  0  0  0
  161.6710  207.8900  152.3700 C   0  0  2  0  0  3  0  0  0  0  0  0
  162.3750  207.0000  150.0480 C   0  0  0  0  0  3  0  0  0  0  0  0
  161.8170  204.7440  151.7150 C   0  0  2  0  0  3  0  0  0  0  0  0
  161.2610  205.4270  152.9660 C   0  0  0  0  0  2  0  0  0  0  0  0
  160.6480  206.7940  152.6630 C   0  0  0  0  0  2  0  0  0  0  0  0
  160.9890  205.0160  150.4800 C   0  0  0  0  0  0  0  0  0  0  0  0
  159.8440  204.2070  150.1910 N   0  0  0  0  0  2  0  0  0  0  0  0
  158.8740  202.3130  149.1200 N   0  0  0  0  0  0  0  0  0  0  0  0
  159.9080  203.0460  149.3590 C   0  0  0  0  0  0  0  0  0  0  0  0
  160.5130  201.3150  148.0460 C   0  0  0  0  0  0  0  0  0  0  0  0
  161.1400  202.5120  148.6940 C   0  0  1  0  0  3  0  0  0  0  0  0
  159.2500  201.2410  148.3070 N   0  0  0  0  0  0  0  0  0  0  0  0
  162.9260  204.1130  147.8530 C   0  0  0  0  0  3  0  0  0  0  0  0
  161.6860  203.4760  147.6780 C   0  0  0  0  0  0  0  0  0  0  0  0
  161.4310  204.5950  145.5410 C   0  0  0  0  0  3  0  0  0  0  0  0
  163.4120  204.9870  146.8760 C   0  0  0  0  0  3  0  0  0  0  0  0
  160.9440  203.7230  146.5180 C   0  0  0  0  0  3  0  0  0  0  0  0
  162.6650  205.2260  145.7200 C   0  0  0  0  0  3  0  0  0  0  0  0
  162.2100  199.7020  147.7230 O   0  0  0  0  0  0  0  0  0  0  0  0
  160.7860  200.0380  145.9040 N   0  0  0  0  0  2  0  0  0  0  0  0
  161.2220  200.3150  147.2370 C   0  0  0  0  0  0  0  0  0  0  0  0
  161.4620  199.0850  145.0370 C   0  0  0  0  0  2  0  0  0  0  0  0
  160.9000  197.6920  145.2530 C   0  0  0  0  0  1  0  0  0  0  0  0
  161.0430  202.4240  152.3940 N   0  0  0  0  0  1  0  0  0  0  0  0
  162.0810  203.2900  151.9450 C   0  0  0  0  0  0  0  0  0  0  0  0
  163.2250  202.8220  151.7070 O   0  0  0  0  0  0  0  0  0  0  0  0
  160.9290  209.2120  152.2340 C   0  0  0  0  0  2  0  0  0  0  0  0
  160.3580  209.6770  153.5690 C   0  0  0  0  0  2  0  0  0  0  0  0
  161.4490  209.8150  154.6220 C   0  0  0  0  0  2  0  0  0  0  0  0
  159.9020  208.4180  155.7640 O   0  0  0  0  0  0  0  0  0  0  0  0
  161.7550  208.1390  156.2870 O   0  0  0  0  0  0  0  0  0  0  0  0
  160.9930  209.2380  155.9560 C   0  0  0  0  0  3  0  0  0  0  0  0
  160.6740  207.3890  156.1000 O   0  0  0  0  0  0  0  0  0  0  0  0
  160.3940  206.3950  148.6530 O   0  0  0  0  0  0  0  0  0  0  0  0
  160.7490  207.3100  147.6230 C   0  0  0  0  0  2  0  0  0  0  0  0
  161.7720  208.3040  148.1420 C   0  0  0  0  0  2  0  0  0  0  0  0
  161.2050  209.5770  148.1820 O   0  0  0  0  0  0  0  0  0  0  0  0
  162.2310  210.4000  148.6450 C   0  0  0  0  0  1  0  0  0  0  0  0
  1  3  1  0  0  0  0
  2  4  1  0  0  0  0
  2  8  2  0  0  0  0
  3 29  1  6  0  0  0
  3  7  1  0  0  0  0
  4  1  2  0  0  0  0
  5 27  1  1  0  0  0
  5  6  1  0  0  0  0
  7  6  1  0  0  0  0
  8  5  1  0  0  0  0
  9  8  1  0  0  0  0
 10 11  2  0  0  0  0
 11  9  1  0  0  0  0
 12 14  2  0  0  0  0
 12 13  1  0  0  0  0
 13 16  1  6  0  0  0
 13 11  1  0  0  0  0
 14 10  1  0  0  0  0
 16 15  1  0  0  0  0
 17 20  2  0  0  0  0
 17 19  1  0  0  0  0
 18 15  2  0  0  0  0
 19 16  2  0  0  0  0
 20 18  1  0  0  0  0
 22 23  1  0  0  0  0
 23 21  2  0  0  0  0
 23 12  1  0  0  0  0
 24 25  1  0  0  0  0
 24 22  1  0  0  0  0
 27 26  1  0  0  0  0
 28 27  2  0  0  0  0
 29 30  1  0  0  0  0
 30 31  1  0  0  0  0
 31 34  1  0  0  0  0
 32 34  1  0  0  0  0
 32 35  1  0  0  0  0
 34 33  1  0  0  0  0
 35 33  1  0  0  0  0
 36  2  1  0  0  0  0
 37 38  1  0  0  0  0
 37 36  1  0  0  0  0
 38 39  1  0  0  0  0
 39 40  1  0  0  0  0
M  END
>  <MODEL>
2

>  <REMARK>
 VINA RESULT:       0.2      3.951      9.599
  Name = 
  13 active torsions:
  status: ('A' for Active; 'I' for Inactive)
    1  A    between atoms: N_1  and  C_39
    2  A    between atoms: N_5  and  C_20
    3  A    between atoms: C_6  and  C_14
    4  A    between atoms: C_6  and  C_23
    5  A    between atoms: C_8  and  C_19
    6  A    between atoms: C_9  and  O_29
    7  A    between atoms: O_10  and  C_18
    8  A    between atoms: C_12  and  C_24
    9  A    between atoms: C_14  and  C_15
   10  A    between atoms: C_16  and  C_28
   11  A    between atoms: C_18  and  C_34
   12  A    between atoms: C_23  and  C_36
   13  A    between atoms: O_29  and  C_34
                            x       y       z     vdW  Elec       q    Type
                         _______ _______ _______ _____ _____    ______ ____

>  <TORSDO>
F 13

$$$$
=
 OpenBabel11072415133D

 40 43  0  0  1  0  0  0  0  0999 V2000
  162.4430  207.4370  151.3940 C   0  0  0  0  0  3  0  0  0  0  0  0
  161.0670  205.9420  149.8990 C   0  0  0  0  0  0  0  0  0  0  0  0
  161.5750  207.5030  152.6360 C   0  0  2  0  0  3  0  0  0  0  0  0
  162.2050  206.8340  150.2210 C   0  0  0  0  0  3  0  0  0  0  0  0
  161.7970  204.4290  151.7130 C   0  0  2  0  0  3  0  0  0  0  0  0
  161.2740  204.9850  153.0390 C   0  0  0  0  0  2  0  0  0  0  0  0
  160.6040  206.3490  152.8780 C   0  0  0  0  0  2  0  0  0  0  0  0
  160.9060  204.7710  150.5410 C   0  0  0  0  0  0  0  0  0  0  0  0
  159.7770  203.9470  150.2320 N   0  0  0  0  0  2  0  0  0  0  0  0
  158.8380  202.0790  149.0920 N   0  0  0  0  0  0  0  0  0  0  0  0
  159.8570  202.8260  149.3490 C   0  0  0  0  0  0  0  0  0  0  0  0
  160.4840  201.1700  147.9530 C   0  0  0  0  0  0  0  0  0  0  0  0
  161.0910  202.3530  148.6440 C   0  0  1  0  0  3  0  0  0  0  0  0
  159.2270  201.0530  148.2270 N   0  0  0  0  0  0  0  0  0  0  0  0
  162.8040  204.0660  147.8730 C   0  0  0  0  0  3  0  0  0  0  0  0
  161.5990  203.3730  147.6640 C   0  0  0  0  0  0  0  0  0  0  0  0
  161.3100  204.5440  145.5590 C   0  0  0  0  0  3  0  0  0  0  0  0
  163.2550  204.9930  146.9290 C   0  0  0  0  0  3  0  0  0  0  0  0
  160.8570  203.6180  146.5030 C   0  0  0  0  0  3  0  0  0  0  0  0
  162.5090  205.2300  145.7710 C   0  0  0  0  0  3  0  0  0  0  0  0
  162.2650  199.6820  147.5040 O   0  0  0  0  0  0  0  0  0  0  0  0
  160.6990  199.9190  145.7890 N   0  0  0  0  0  2  0  0  0  0  0  0
  161.2050  200.2240  147.0910 C   0  0  0  0  0  0  0  0  0  0  0  0
  161.3800  199.0180  144.8710 C   0  0  0  0  0  2  0  0  0  0  0  0
  161.1100  197.5760  145.2590 C   0  0  0  0  0  1  0  0  0  0  0  0
  161.0920  202.0140  152.0570 N   0  0  0  0  0  1  0  0  0  0  0  0
  162.1190  202.9710  151.8090 C   0  0  0  0  0  0  0  0  0  0  0  0
  163.3030  202.5850  151.6360 O   0  0  0  0  0  0  0  0  0  0  0  0
  160.7850  208.8030  152.6430 C   0  0  0  0  0  2  0  0  0  0  0  0
  160.6720  209.3860  154.0470 C   0  0  0  0  0  2  0  0  0  0  0  0
  160.2070  210.8350  154.0120 C   0  0  0  0  0  2  0  0  0  0  0  0
  158.5740  211.4200  152.3880 O   0  0  0  0  0  0  0  0  0  0  0  0
  160.0800  212.6480  152.4730 O   0  0  0  0  0  0  0  0  0  0  0  0
  159.9320  211.2830  152.5830 C   0  0  0  0  0  3  0  0  0  0  0  0
  158.7680  212.7300  152.2780 O   0  0  0  0  0  0  0  0  0  0  0  0
  160.1860  206.2740  148.8620 O   0  0  0  0  0  0  0  0  0  0  0  0
  160.5680  207.0630  147.7410 C   0  0  0  0  0  2  0  0  0  0  0  0
  161.6750  208.0230  148.1350 C   0  0  0  0  0  2  0  0  0  0  0  0
  161.2520  209.3340  147.9230 O   0  0  0  0  0  0  0  0  0  0  0  0
  161.9560  210.0830  148.8660 C   0  0  0  0  0  1  0  0  0  0  0  0
  1  3  1  0  0  0  0
  2  4  1  0  0  0  0
  2  8  2  0  0  0  0
  3 29  1  6  0  0  0
  3  7  1  0  0  0  0
  4  1  2  0  0  0  0
  5 27  1  1  0  0  0
  5  6  1  0  0  0  0
  7  6  1  0  0  0  0
  8  5  1  0  0  0  0
  9  8  1  0  0  0  0
 10 11  2  0  0  0  0
 11  9  1  0  0  0  0
 12 14  2  0  0  0  0
 12 13  1  0  0  0  0
 13 16  1  6  0  0  0
 13 11  1  0  0  0  0
 14 10  1  0  0  0  0
 16 15  1  0  0  0  0
 17 20  2  0  0  0  0
 17 19  1  0  0  0  0
 18 15  2  0  0  0  0
 19 16  2  0  0  0  0
 20 18  1  0  0  0  0
 22 23  1  0  0  0  0
 23 21  2  0  0  0  0
 23 12  1  0  0  0  0
 24 25  1  0  0  0  0
 24 22  1  0  0  0  0
 27 26  1  0  0  0  0
 28 27  2  0  0  0  0
 29 30  1  0  0  0  0
 31 30  1  0  0  0  0
 32 34  1  0  0  0  0
 33 34  1  0  0  0  0
 34 31  1  0  0  0  0
 35 32  1  0  0  0  0
 35 33  1  0  0  0  0
 36  2  1  0  0  0  0
 37 38  1  0  0  0  0
 37 36  1  0  0  0  0
 39 38  1  0  0  0  0
 39 40  1  0  0  0  0
M  END
>  <MODEL>
3

>  <REMARK>
 VINA RESULT:       0.6      4.110      9.833
  Name = 
  13 active torsions:
  status: ('A' for Active; 'I' for Inactive)
    1  A    between atoms: N_1  and  C_39
    2  A    between atoms: N_5  and  C_20
    3  A    between atoms: C_6  and  C_14
    4  A    between atoms: C_6  and  C_23
    5  A    between atoms: C_8  and  C_19
    6  A    between atoms: C_9  and  O_29
    7  A    between atoms: O_10  and  C_18
    8  A    between atoms: C_12  and  C_24
    9  A    between atoms: C_14  and  C_15
   10  A    between atoms: C_16  and  C_28
   11  A    between atoms: C_18  and  C_34
   12  A    between atoms: C_23  and  C_36
   13  A    between atoms: O_29  and  C_34
                            x       y       z     vdW  Elec       q    Type
                         _______ _______ _______ _____ _____    ______ ____

>  <TORSDO>
F 13

$$$$
=
 OpenBabel11072415133D

 40 43  0  0  1  0  0  0  0  0999 V2000
  160.6960  209.1770  152.6070 C   0  0  0  0  0  3  0  0  0  0  0  0
  161.7830  207.4340  151.1430 C   0  0  0  0  0  0  0  0  0  0  0  0
  161.8080  210.2000  152.7360 C   0  0  2  0  0  3  0  0  0  0  0  0
  160.7020  207.9870  151.9910 C   0  0  0  0  0  3  0  0  0  0  0  0
  161.5360  209.3790  149.6370 C   0  0  2  0  0  3  0  0  0  0  0  0
  162.3070  210.5530  150.2430 C   0  0  0  0  0  2  0  0  0  0  0  0
  162.8620  210.2370  151.6310 C   0  0  0  0  0  2  0  0  0  0  0  0
  162.1340  208.0380  149.9940 C   0  0  0  0  0  0  0  0  0  0  0  0
  163.2070  207.4990  149.2140 N   0  0  0  0  0  2  0  0  0  0  0  0
  163.9800  206.0240  147.5110 N   0  0  0  0  0  0  0  0  0  0  0  0
  163.0100  206.4890  148.2220 C   0  0  0  0  0  0  0  0  0  0  0  0
  162.2020  204.9630  146.7710 C   0  0  0  0  0  0  0  0  0  0  0  0
  161.6970  205.8680  147.8540 C   0  0  1  0  0  3  0  0  0  0  0  0
  163.4790  205.0790  146.6130 N   0  0  0  0  0  0  0  0  0  0  0  0
  159.9260  205.5090  149.6420 C   0  0  0  0  0  3  0  0  0  0  0  0
  161.1050  205.0950  148.9990 C   0  0  0  0  0  0  0  0  0  0  0  0
  161.2060  203.1630  150.4620 C   0  0  0  0  0  3  0  0  0  0  0  0
  159.3940  204.7520  150.6890 C   0  0  0  0  0  3  0  0  0  0  0  0
  161.7400  203.9200  149.4160 C   0  0  0  0  0  3  0  0  0  0  0  0
  160.0330  203.5780  151.0980 C   0  0  0  0  0  3  0  0  0  0  0  0
  160.7920  204.5150  144.9280 O   0  0  0  0  0  0  0  0  0  0  0  0
  161.2340  202.6940  146.3200 N   0  0  0  0  0  2  0  0  0  0  0  0
  161.3740  204.0680  145.9530 C   0  0  0  0  0  0  0  0  0  0  0  0
  160.4020  201.7600  145.5740 C   0  0  0  0  0  2  0  0  0  0  0  0
  160.8320  200.3340  145.8620 C   0  0  0  0  0  1  0  0  0  0  0  0
  161.4760  210.8340  147.5580 N   0  0  0  0  0  1  0  0  0  0  0  0
  161.3110  209.5580  148.1690 C   0  0  0  0  0  0  0  0  0  0  0  0
  161.0040  208.5620  147.4640 O   0  0  0  0  0  0  0  0  0  0  0  0
  162.5190  210.0210  154.0700 C   0  0  0  0  0  2  0  0  0  0  0  0
  161.5460  210.0900  155.2410 C   0  0  0  0  0  2  0  0  0  0  0  0
  160.9910  211.4950  155.4210 C   0  0  0  0  0  2  0  0  0  0  0  0
  158.7560  212.2080  155.0430 O   0  0  0  0  0  0  0  0  0  0  0  0
  158.9250  210.3080  155.4280 O   0  0  0  0  0  0  0  0  0  0  0  0
  159.5410  211.4520  155.8860 C   0  0  0  0  0  3  0  0  0  0  0  0
  158.1830  211.0780  154.6390 O   0  0  0  0  0  0  0  0  0  0  0  0
  162.4020  206.2270  151.4920 O   0  0  0  0  0  0  0  0  0  0  0  0
  162.6210  205.8280  152.8400 C   0  0  0  0  0  2  0  0  0  0  0  0
  161.3130  205.8600  153.6100 C   0  0  0  0  0  2  0  0  0  0  0  0
  161.4860  206.5760  154.7930 O   0  0  0  0  0  0  0  0  0  0  0  0
  160.1970  206.7180  155.3060 C   0  0  0  0  0  1  0  0  0  0  0  0
  1  3  1  0  0  0  0
  2 36  1  0  0  0  0
  2  4  1  0  0  0  0
  3 29  1  1  0  0  0
  4  1  2  0  0  0  0
  5 27  1  6  0  0  0
  5  8  1  0  0  0  0
  5  6  1  0  0  0  0
  6  7  1  0  0  0  0
  7  3  1  0  0  0  0
  8  2  2  0  0  0  0
  9  8  1  0  0  0  0
 10 11  2  0  0  0  0
 11  9  1  0  0  0  0
 12 13  1  0  0  0  0
 13 11  1  0  0  0  0
 13 16  1  1  0  0  0
 14 12  2  0  0  0  0
 14 10  1  0  0  0  0
 15 18  1  0  0  0  0
 16 19  1  0  0  0  0
 16 15  2  0  0  0  0
 17 20  1  0  0  0  0
 18 20  2  0  0  0  0
 19 17  2  0  0  0  0
 21 23  2  0  0  0  0
 23 22  1  0  0  0  0
 23 12  1  0  0  0  0
 24 25  1  0  0  0  0
 24 22  1  0  0  0  0
 26 27  1  0  0  0  0
 28 27  2  0  0  0  0
 29 30  1  0  0  0  0
 30 31  1  0  0  0  0
 31 34  1  0  0  0  0
 32 34  1  0  0  0  0
 33 34  1  0  0  0  0
 35 32  1  0  0  0  0
 35 33  1  0  0  0  0
 36 37  1  0  0  0  0
 37 38  1  0  0  0  0
 38 39  1  0  0  0  0
 39 40  1  0  0  0  0
M  END
>  <MODEL>
4

>  <REMARK>
 VINA RESULT:       0.8      3.596      9.288
  Name = 
  13 active torsions:
  status: ('A' for Active; 'I' for Inactive)
    1  A    between atoms: N_1  and  C_39
    2  A    between atoms: N_5  and  C_20
    3  A    between atoms: C_6  and  C_14
    4  A    between atoms: C_6  and  C_23
    5  A    between atoms: C_8  and  C_19
    6  A    between atoms: C_9  and  O_29
    7  A    between atoms: O_10  and  C_18
    8  A    between atoms: C_12  and  C_24
    9  A    between atoms: C_14  and  C_15
   10  A    between atoms: C_16  and  C_28
   11  A    between atoms: C_18  and  C_34
   12  A    between atoms: C_23  and  C_36
   13  A    between atoms: O_29  and  C_34
                            x       y       z     vdW  Elec       q    Type
                         _______ _______ _______ _____ _____    ______ ____

>  <TORSDO>
F 13

$$$$
