=
 OpenBabel11072410423D

 50 55  0  0  1  0  0  0  0  0999 V2000
  158.4310  212.4270  151.0630 O   0  0  0  0  0  0  0  0  0  0  0  0
  159.9210  211.8730  144.7060 C   0  0  0  0  0  2  0  0  0  0  0  0
  156.7030  213.8260  149.1320 N   0  0  0  0  0  0  0  0  0  0  0  0
  159.1190  212.3040  145.8420 N   0  0  0  0  0  0  0  0  0  0  0  0
  162.0800  209.5200  152.7170 C   0  0  0  0  0  3  0  0  0  0  0  0
  160.8120  213.0200  144.2420 C   0  0  0  0  0  2  0  0  0  0  0  0
  163.7440  214.4530  145.8290 N   0  0  0  0  0  0  0  0  0  0  0  0
  160.7290  210.8720  149.4250 C   0  0  0  0  0  2  0  0  0  0  0  0
  158.8010  213.0020  148.0820 N   0  0  0  0  0  2  0  0  0  0  0  0
  160.7650  211.4520  153.1620 N   0  0  0  0  0  0  0  0  0  0  0  0
  161.0720  210.7490  150.8850 C   0  0  0  0  0  0  0  0  0  0  0  0
  162.9720  214.2640  144.8390 N   0  0  0  0  0  0  0  0  0  0  0  0
  163.2170  213.7570  146.9450 C   0  0  0  0  0  0  0  0  0  0  0  0
  161.0760  212.1590  147.2900 C   0  0  2  0  0  3  0  0  0  0  0  0
  161.8830  209.6880  151.3380 C   0  0  0  0  0  0  0  0  0  0  0  0
  157.3840  213.2040  148.0290 C   0  0  0  0  0  0  0  0  0  0  0  0
  161.8900  213.4110  145.2210 C   0  0  0  0  0  0  0  0  0  0  0  0
  156.7240  212.7990  147.0310 O   0  0  0  0  0  0  0  0  0  0  0  0
  161.9810  213.0970  146.5210 C   0  0  0  0  0  0  0  0  0  0  0  0
  161.5090  210.4160  153.6180 C   0  0  0  0  0  3  0  0  0  0  0  0
  159.7170  212.8290  151.4330 C   0  0  0  0  0  2  0  0  0  0  0  0
  157.6050  213.5060  151.3890 C   0  0  0  0  0  2  0  0  0  0  0  0
  163.8690  213.6130  148.0900 C   0  0  0  0  0  2  0  0  0  0  0  0
  157.4580  214.4530  150.2060 C   0  0  0  0  0  2  0  0  0  0  0  0
  159.6180  212.4670  147.0310 C   0  0  0  0  0  0  0  0  0  0  0  0
  160.5340  211.6470  151.8370 C   0  0  0  0  0  0  0  0  0  0  0  0
  161.4170  212.0660  148.7800 C   0  0  0  0  0  2  0  0  0  0  0  0
  159.6150  206.5800  147.8630 C   0  0  0  0  0  1  0  0  0  0  0  0
  161.3030  206.5700  146.0880 C   0  0  0  0  0  1  0  0  0  0  0  0
  162.0770  206.5010  148.5050 C   0  0  1  0  0  3  0  0  0  0  0  0
  162.5550  207.9480  148.2280 C   0  0  0  0  0  2  0  0  0  0  0  0
  160.8990  204.5200  147.3140 C   0  0  0  0  0  2  0  0  0  0  0  0
  162.5160  208.7320  150.3540 C   0  0  1  0  0  3  0  0  0  0  0  0
  162.5420  207.2700  150.8630 C   0  0  0  0  0  2  0  0  0  0  0  0
  161.6400  206.3860  149.9960 C   0  0  2  0  0  3  0  0  0  0  0  0
  161.9030  208.8530  149.0870 O   0  0  0  0  0  0  0  0  0  0  0  0
  161.5950  204.9570  150.5700 C   0  0  2  0  0  3  0  0  0  0  0  0
  160.7030  204.0400  149.7530 C   0  0  0  0  0  2  0  0  0  0  0  0
  160.9900  206.0440  147.4830 C   0  0  0  0  0  0  0  0  0  0  0  0
  161.4030  203.6660  148.4670 C   0  0  0  0  0  2  0  0  0  0  0  0
  161.0910  204.9570  151.9910 C   0  0  0  0  0  0  0  0  0  0  0  0
  160.0110  204.3620  152.2660 O   0  0  0  0  0  0  0  0  0  0  0  0
  163.2490  205.9250  152.8610 C   0  0  0  0  0  1  0  0  0  0  0  0
  161.8500  205.5810  153.0420 N   0  0  0  0  0  0  0  0  0  0  0  0
  161.2430  205.8230  154.3440 C   0  0  0  0  0  2  0  0  0  0  0  0
  160.5840  207.1960  154.3550 C   0  0  0  0  0  2  0  0  0  0  0  0
  161.3180  207.8780  156.6370 C   0  0  0  0  0  1  0  0  0  0  0  0
  160.1250  207.5500  155.7560 C   0  0  0  0  0  2  0  0  0  0  0  0
  154.7710  214.3840  150.5310 C   0  0  0  0  0  1  0  0  0  0  0  0
  155.2490  213.9220  149.1650 C   0  0  0  0  0  2  0  0  0  0  0  0
  1 22  1  0  0  0  0
  1 21  1  0  0  0  0
  2  4  1  0  0  0  0
  3 50  1  0  0  0  0
  3 24  1  0  0  0  0
  4 25  2  0  0  0  0
  5 20  1  0  0  0  0
  6  2  1  0  0  0  0
  6 17  1  0  0  0  0
  7 13  1  0  0  0  0
  8 11  1  0  0  0  0
 10 20  2  0  0  0  0
 11 15  1  0  0  0  0
 11 26  2  0  0  0  0
 12 17  1  0  0  0  0
 12  7  2  0  0  0  0
 13 23  2  0  0  0  0
 14 27  1  1  0  0  0
 15  5  2  0  0  0  0
 16  9  1  0  0  0  0
 16  3  1  0  0  0  0
 17 19  2  0  0  0  0
 18 16  2  0  0  0  0
 19 13  1  0  0  0  0
 19 14  1  0  0  0  0
 21 26  1  0  0  0  0
 24 22  1  0  0  0  0
 25 14  1  0  0  0  0
 25  9  1  0  0  0  0
 26 10  1  0  0  0  0
 27  8  1  0  0  0  0
 29 39  1  0  0  0  0
 30 31  1  6  0  0  0
 30 35  1  0  0  0  0
 31 36  1  0  0  0  0
 32 39  1  0  0  0  0
 32 40  1  0  0  0  0
 33 34  1  0  0  0  0
 33 15  1  1  0  0  0
 35 37  1  0  0  0  0
 35 34  1  1  0  0  0
 36 33  1  0  0  0  0
 37 41  1  1  0  0  0
 38 37  1  0  0  0  0
 39 28  1  0  0  0  0
 39 30  1  0  0  0  0
 40 38  1  0  0  0  0
 41 42  2  0  0  0  0
 41 44  1  0  0  0  0
 43 44  1  0  0  0  0
 44 45  1  0  0  0  0
 45 46  1  0  0  0  0
 46 48  1  0  0  0  0
 48 47  1  0  0  0  0
 50 49  1  0  0  0  0
M  END
>  <MODEL>
1

>  <REMARK>
 VINA RESULT:      -3.0      0.000      0.000
  Name = 
  6 active torsions:
  status: ('A' for Active; 'I' for Inactive)
    1  A    between atoms: C_3  and  C_39
    2  A    between atoms: N_4  and  C_22
    3  A    between atoms: C_11  and  C_20
    4  A    between atoms: C_16  and  C_20
    5  A    between atoms: C_16  and  N_48
    6  A    between atoms: C_26  and  C_29
                            x       y       z     vdW  Elec       q    Type
                         _______ _______ _______ _____ _____    ______ ____

>  <TORSDO>
F 6

$$$$
