=
 OpenBabel11072412373D

 31 34  0  0  1  0  0  0  0  0999 V2000
  159.9900  210.4170  153.0420 C   0  0  0  0  0  0  0  0  0  0  0  0
  158.5230  211.2110  155.2710 C   0  0  0  0  0  3  0  0  0  0  0  0
  160.0410  209.6170  154.2220 C   0  0  0  0  0  0  0  0  0  0  0  0
  160.2750  207.5060  156.5870 C   0  0  0  0  0  3  0  0  0  0  0  0
  160.2450  208.7580  157.2600 N   0  0  0  0  0  0  0  0  0  0  0  0
  159.4210  210.1510  155.3850 C   0  0  0  0  0  0  0  0  0  0  0  0
  160.8690  207.6080  153.0240 N   0  0  0  0  0  0  0  0  0  0  0  0
  161.7010  209.3260  151.5490 C   0  0  0  0  0  0  0  0  0  0  0  0
  160.5160  207.3470  155.2930 C   0  0  0  0  0  3  0  0  0  0  0  0
  162.6490  209.5250  150.6000 F   0  0  0  0  0  0  0  0  0  0  0  0
  161.2600  207.9590  151.8390 C   0  0  0  0  0  0  0  0  0  0  0  0
  158.2760  211.8240  154.0470 C   0  0  0  0  0  0  0  0  0  0  0  0
  161.0680  210.3900  152.0270 C   0  0  0  0  0  3  0  0  0  0  0  0
  159.0490  211.4660  152.9420 C   0  0  0  0  0  0  0  0  0  0  0  0
  158.8980  212.2440  151.6700 C   0  0  0  0  0  1  0  0  0  0  0  0
  159.8640  209.8920  156.7670 C   0  0  0  0  0  3  0  0  0  0  0  0
  160.9190  208.3670  154.2730 C   0  0  2  0  0  3  0  0  0  0  0  0
  160.6340  207.3260  149.6530 O   0  0  0  0  0  0  0  0  0  0  0  0
  161.7010  205.6280  150.8640 N   0  0  0  0  0  0  0  0  0  0  0  0
  161.1880  206.9750  150.7310 C   0  0  0  0  0  0  0  0  0  0  0  0
  162.6900  205.3110  151.8880 C   0  0  0  0  0  1  0  0  0  0  0  0
  160.4540  203.2180  151.6670 F   0  0  0  0  0  0  0  0  0  0  0  0
  161.6460  204.7580  148.5570 C   0  0  0  0  0  3  0  0  0  0  0  0
  160.7580  203.3990  150.3570 C   0  0  0  0  0  0  0  0  0  0  0  0
  161.3590  204.5960  149.9210 C   0  0  0  0  0  0  0  0  0  0  0  0
  159.8650  201.2410  149.8500 F   0  0  0  0  0  0  0  0  0  0  0  0
  160.4490  202.3910  149.4350 C   0  0  0  0  0  0  0  0  0  0  0  0
  160.7380  202.5690  148.0790 C   0  0  0  0  0  3  0  0  0  0  0  0
  161.3360  203.7510  147.6410 C   0  0  0  0  0  3  0  0  0  0  0  0
  156.0520  212.6920  154.4610 N   0  0  0  0  0  1  0  0  0  0  0  0
  157.3180  212.8360  153.9350 O   0  0  0  0  0  0  0  0  0  0  0  0
  1  3  1  0  0  0  0
  2  6  1  0  0  0  0
  3 17  1  0  0  0  0
  3  6  2  0  0  0  0
  4  5  1  0  0  0  0
  6 16  1  0  0  0  0
  7 17  1  0  0  0  0
  8 11  1  0  0  0  0
  8 13  2  0  0  0  0
  9  4  2  0  0  0  0
 10  8  1  0  0  0  0
 11  7  2  0  0  0  0
 12  2  2  0  0  0  0
 13  1  1  0  0  0  0
 14  1  2  0  0  0  0
 14 12  1  0  0  0  0
 15 14  1  0  0  0  0
 16  5  2  0  0  0  0
 17  9  1  1  0  0  0
 18 20  2  0  0  0  0
 19 21  1  0  0  0  0
 20 19  1  0  0  0  0
 20 11  1  0  0  0  0
 23 25  1  0  0  0  0
 24 22  1  0  0  0  0
 25 24  2  0  0  0  0
 25 19  1  0  0  0  0
 27 26  1  0  0  0  0
 27 24  1  0  0  0  0
 28 27  2  0  0  0  0
 29 28  1  0  0  0  0
 29 23  2  0  0  0  0
 31 12  1  0  0  0  0
 31 30  1  0  0  0  0
M  END
>  <MODEL>
1

>  <REMARK>
 VINA RESULT:      -9.0      0.000      0.000
  Name = 
  3 active torsions:
  status: ('A' for Active; 'I' for Inactive)
    1  A    between atoms: C_9  and  N_11
    2  A    between atoms: O_14  and  C_25
    3  A    between atoms: C_21  and  C_24
                            x       y       z     vdW  Elec       q    Type
                         _______ _______ _______ _____ _____    ______ ____

>  <TORSDO>
F 3

$$$$
=
 OpenBabel11072412373D

 31 34  0  0  1  0  0  0  0  0999 V2000
  161.3770  204.4130  150.5990 C   0  0  0  0  0  0  0  0  0  0  0  0
  160.7190  203.0160  148.2820 C   0  0  0  0  0  3  0  0  0  0  0  0
  161.4400  205.0890  149.3440 C   0  0  0  0  0  0  0  0  0  0  0  0
  161.5390  206.9650  146.7800 C   0  0  0  0  0  3  0  0  0  0  0  0
  162.0230  205.7180  146.2990 N   0  0  0  0  0  0  0  0  0  0  0  0
  161.2670  204.2930  148.1790 C   0  0  0  0  0  0  0  0  0  0  0  0
  161.3640  207.3480  150.3690 N   0  0  0  0  0  0  0  0  0  0  0  0
  162.3320  206.1080  152.1990 C   0  0  0  0  0  0  0  0  0  0  0  0
  161.4410  207.2970  148.0590 C   0  0  0  0  0  3  0  0  0  0  0  0
  163.0720  206.2990  153.3200 F   0  0  0  0  0  0  0  0  0  0  0  0
  161.5800  207.2370  151.6430 C   0  0  0  0  0  0  0  0  0  0  0  0
  160.4090  202.4580  149.5190 C   0  0  0  0  0  0  0  0  0  0  0  0
  162.1570  204.8630  151.7740 C   0  0  0  0  0  3  0  0  0  0  0  0
  160.7880  203.1320  150.6800 C   0  0  0  0  0  0  0  0  0  0  0  0
  160.6060  202.4520  152.0040 C   0  0  0  0  0  1  0  0  0  0  0  0
  161.8970  204.5660  146.8740 C   0  0  0  0  0  3  0  0  0  0  0  0
  161.9000  206.5450  149.2710 C   0  0  2  0  0  3  0  0  0  0  0  0
  160.2500  207.8180  153.5040 O   0  0  0  0  0  0  0  0  0  0  0  0
  161.2030  209.6560  152.4060 N   0  0  0  0  0  0  0  0  0  0  0  0
  160.9860  208.2340  152.5680 C   0  0  0  0  0  0  0  0  0  0  0  0
  162.3390  210.1490  151.6370 C   0  0  0  0  0  1  0  0  0  0  0  0
  162.0550  210.8810  154.8110 F   0  0  0  0  0  0  0  0  0  0  0  0
  159.1330  210.9830  152.5940 C   0  0  0  0  0  3  0  0  0  0  0  0
  160.8360  211.1970  154.3050 C   0  0  0  0  0  0  0  0  0  0  0  0
  160.3910  210.6230  153.0980 C   0  0  0  0  0  0  0  0  0  0  0  0
  160.4570  212.6800  156.1410 F   0  0  0  0  0  0  0  0  0  0  0  0
  160.0300  212.1210  154.9820 C   0  0  0  0  0  0  0  0  0  0  0  0
  158.7800  212.4720  154.4660 C   0  0  0  0  0  3  0  0  0  0  0  0
  158.3320  211.9040  153.2720 C   0  0  0  0  0  3  0  0  0  0  0  0
  158.4550  201.0400  149.3050 N   0  0  0  0  0  1  0  0  0  0  0  0
  159.7910  201.2060  149.6030 O   0  0  0  0  0  0  0  0  0  0  0  0
  1 14  1  0  0  0  0
  1 13  1  0  0  0  0
  2 12  1  0  0  0  0
  3  1  2  0  0  0  0
  4  9  2  0  0  0  0
  5  4  1  0  0  0  0
  5 16  2  0  0  0  0
  6  2  2  0  0  0  0
  6  3  1  0  0  0  0
  7 11  2  0  0  0  0
  8 10  1  0  0  0  0
 11  8  1  0  0  0  0
 11 20  1  0  0  0  0
 12 31  1  0  0  0  0
 12 14  2  0  0  0  0
 13  8  2  0  0  0  0
 14 15  1  0  0  0  0
 16  6  1  0  0  0  0
 17  9  1  6  0  0  0
 17  3  1  0  0  0  0
 17  7  1  0  0  0  0
 19 20  1  0  0  0  0
 19 25  1  0  0  0  0
 20 18  2  0  0  0  0
 21 19  1  0  0  0  0
 23 25  2  0  0  0  0
 23 29  1  0  0  0  0
 24 22  1  0  0  0  0
 24 27  2  0  0  0  0
 25 24  1  0  0  0  0
 27 26  1  0  0  0  0
 28 27  1  0  0  0  0
 29 28  2  0  0  0  0
 30 31  1  0  0  0  0
M  END
>  <MODEL>
2

>  <REMARK>
 VINA RESULT:      -8.9      2.917      8.606
  Name = 
  3 active torsions:
  status: ('A' for Active; 'I' for Inactive)
    1  A    between atoms: C_9  and  N_11
    2  A    between atoms: O_14  and  C_25
    3  A    between atoms: C_21  and  C_24
                            x       y       z     vdW  Elec       q    Type
                         _______ _______ _______ _____ _____    ______ ____

>  <TORSDO>
F 3

$$$$
=
 OpenBabel11072412373D

 31 34  0  0  1  0  0  0  0  0999 V2000
  161.3080  209.1130  152.4380 C   0  0  0  0  0  0  0  0  0  0  0  0
  160.0370  211.0220  154.0170 C   0  0  0  0  0  3  0  0  0  0  0  0
  160.8650  208.7460  153.7440 C   0  0  0  0  0  0  0  0  0  0  0  0
  159.8860  207.5140  156.5060 C   0  0  0  0  0  3  0  0  0  0  0  0
  160.2990  208.8290  156.8550 N   0  0  0  0  0  0  0  0  0  0  0  0
  160.3840  209.7930  154.5750 C   0  0  0  0  0  0  0  0  0  0  0  0
  160.9190  206.3130  153.2580 N   0  0  0  0  0  0  0  0  0  0  0  0
  162.5770  207.0740  151.6790 C   0  0  0  0  0  0  0  0  0  0  0  0
  160.2020  206.8960  155.3760 C   0  0  0  0  0  3  0  0  0  0  0  0
  163.6340  206.6140  150.9650 F   0  0  0  0  0  0  0  0  0  0  0  0
  161.5700  206.1210  152.1530 C   0  0  0  0  0  0  0  0  0  0  0  0
  160.2290  211.2850  152.6640 C   0  0  0  0  0  0  0  0  0  0  0  0
  162.3940  208.3870  151.7430 C   0  0  0  0  0  3  0  0  0  0  0  0
  160.9150  210.3520  151.8840 C   0  0  0  0  0  0  0  0  0  0  0  0
  161.2700  210.7090  150.4720 C   0  0  0  0  0  1  0  0  0  0  0  0
  160.4950  209.8190  156.0440 C   0  0  0  0  0  3  0  0  0  0  0  0
  161.1230  207.3380  154.2800 C   0  0  2  0  0  3  0  0  0  0  0  0
  161.2260  203.8060  151.8440 O   0  0  0  0  0  0  0  0  0  0  0  0
  160.9490  205.0770  149.8950 N   0  0  0  0  0  0  0  0  0  0  0  0
  161.2340  204.9490  151.3080 C   0  0  0  0  0  0  0  0  0  0  0  0
  160.5400  206.3600  149.3350 C   0  0  0  0  0  1  0  0  0  0  0  0
  161.8830  205.2050  147.2260 F   0  0  0  0  0  0  0  0  0  0  0  0
  160.4340  202.7000  149.4830 C   0  0  0  0  0  3  0  0  0  0  0  0
  161.3820  204.0330  147.6940 C   0  0  0  0  0  0  0  0  0  0  0  0
  160.9310  203.9300  149.0250 C   0  0  0  0  0  0  0  0  0  0  0  0
  161.7800  203.0120  145.5710 F   0  0  0  0  0  0  0  0  0  0  0  0
  161.3400  202.9170  146.8490 C   0  0  0  0  0  0  0  0  0  0  0  0
  160.8460  201.6990  147.3210 C   0  0  0  0  0  3  0  0  0  0  0  0
  160.3930  201.5900  148.6370 C   0  0  0  0  0  3  0  0  0  0  0  0
  158.4830  212.7270  151.8010 N   0  0  0  0  0  1  0  0  0  0  0  0
  159.8080  212.4940  152.1030 O   0  0  0  0  0  0  0  0  0  0  0  0
  1  3  1  0  0  0  0
  2  6  1  0  0  0  0
  3 17  1  0  0  0  0
  3  6  2  0  0  0  0
  4  5  1  0  0  0  0
  6 16  1  0  0  0  0
  7 17  1  0  0  0  0
  8 13  2  0  0  0  0
  8 11  1  0  0  0  0
  9  4  2  0  0  0  0
 10  8  1  0  0  0  0
 11  7  2  0  0  0  0
 12  2  2  0  0  0  0
 13  1  1  0  0  0  0
 14  1  2  0  0  0  0
 14 12  1  0  0  0  0
 15 14  1  0  0  0  0
 16  5  2  0  0  0  0
 17  9  1  1  0  0  0
 19 20  1  0  0  0  0
 20 18  2  0  0  0  0
 20 11  1  0  0  0  0
 21 19  1  0  0  0  0
 22 24  1  0  0  0  0
 24 25  2  0  0  0  0
 25 23  1  0  0  0  0
 25 19  1  0  0  0  0
 26 27  1  0  0  0  0
 27 28  2  0  0  0  0
 27 24  1  0  0  0  0
 28 29  1  0  0  0  0
 29 23  2  0  0  0  0
 30 31  1  0  0  0  0
 31 12  1  0  0  0  0
M  END
>  <MODEL>
3

>  <REMARK>
 VINA RESULT:      -8.8      2.058      2.557
  Name = 
  3 active torsions:
  status: ('A' for Active; 'I' for Inactive)
    1  A    between atoms: C_9  and  N_11
    2  A    between atoms: O_14  and  C_25
    3  A    between atoms: C_21  and  C_24
                            x       y       z     vdW  Elec       q    Type
                         _______ _______ _______ _____ _____    ______ ____

>  <TORSDO>
F 3

$$$$
=
 OpenBabel11072412373D

 31 34  0  0  1  0  0  0  0  0999 V2000
  161.3640  204.8420  151.0910 C   0  0  0  0  0  0  0  0  0  0  0  0
  160.9690  203.8810  148.5080 C   0  0  0  0  0  3  0  0  0  0  0  0
  161.4690  205.7480  149.9940 C   0  0  0  0  0  0  0  0  0  0  0  0
  161.6230  208.0820  147.8420 C   0  0  0  0  0  3  0  0  0  0  0  0
  162.2240  206.9780  147.1790 N   0  0  0  0  0  0  0  0  0  0  0  0
  161.4350  205.1820  148.6900 C   0  0  0  0  0  0  0  0  0  0  0  0
  161.1660  207.7610  151.4120 N   0  0  0  0  0  0  0  0  0  0  0  0
  162.0830  206.2490  153.0530 C   0  0  0  0  0  0  0  0  0  0  0  0
  161.4120  208.1580  149.1480 C   0  0  0  0  0  3  0  0  0  0  0  0
  162.7260  206.2610  154.2470 F   0  0  0  0  0  0  0  0  0  0  0  0
  161.2980  207.4210  152.6570 C   0  0  0  0  0  0  0  0  0  0  0  0
  160.6100  203.0800  149.5890 C   0  0  0  0  0  0  0  0  0  0  0  0
  162.0250  205.1000  152.3900 C   0  0  0  0  0  3  0  0  0  0  0  0
  160.8590  203.5390  150.8830 C   0  0  0  0  0  0  0  0  0  0  0  0
  160.6300  202.6100  152.0370 C   0  0  0  0  0  1  0  0  0  0  0  0
  162.1360  205.7320  147.5170 C   0  0  0  0  0  3  0  0  0  0  0  0
  161.8330  207.2130  150.2320 C   0  0  2  0  0  3  0  0  0  0  0  0
  159.8620  207.5540  154.5250 O   0  0  0  0  0  0  0  0  0  0  0  0
  160.6350  209.6330  153.7700 N   0  0  0  0  0  0  0  0  0  0  0  0
  160.5730  208.1890  153.6980 C   0  0  0  0  0  0  0  0  0  0  0  0
  161.7290  210.3600  153.1380 C   0  0  0  0  0  1  0  0  0  0  0  0
  158.4820  211.0620  152.6140 F   0  0  0  0  0  0  0  0  0  0  0  0
  159.8450  210.4390  155.9640 C   0  0  0  0  0  3  0  0  0  0  0  0
  158.6560  211.1050  153.9590 C   0  0  0  0  0  0  0  0  0  0  0  0
  159.7030  210.3870  154.5680 C   0  0  0  0  0  0  0  0  0  0  0  0
  156.7550  212.5400  154.1600 F   0  0  0  0  0  0  0  0  0  0  0  0
  157.7680  211.8530  154.7430 C   0  0  0  0  0  0  0  0  0  0  0  0
  157.9200  211.8930  156.1310 C   0  0  0  0  0  3  0  0  0  0  0  0
  158.9580  211.1860  156.7410 C   0  0  0  0  0  3  0  0  0  0  0  0
  160.8240  200.7880  148.8330 N   0  0  0  0  0  1  0  0  0  0  0  0
  160.0750  201.8050  149.3860 O   0  0  0  0  0  0  0  0  0  0  0  0
  1 13  1  0  0  0  0
  2  6  2  0  0  0  0
  2 12  1  0  0  0  0
  3 17  1  0  0  0  0
  3  1  2  0  0  0  0
  4  9  2  0  0  0  0
  5 16  2  0  0  0  0
  5  4  1  0  0  0  0
  6  3  1  0  0  0  0
  7 11  2  0  0  0  0
  8 10  1  0  0  0  0
 11  8  1  0  0  0  0
 11 20  1  0  0  0  0
 12 14  2  0  0  0  0
 13  8  2  0  0  0  0
 14  1  1  0  0  0  0
 14 15  1  0  0  0  0
 16  6  1  0  0  0  0
 17  9  1  6  0  0  0
 17  7  1  0  0  0  0
 19 25  1  0  0  0  0
 20 19  1  0  0  0  0
 20 18  2  0  0  0  0
 21 19  1  0  0  0  0
 22 24  1  0  0  0  0
 23 29  1  0  0  0  0
 24 25  1  0  0  0  0
 24 27  2  0  0  0  0
 25 23  2  0  0  0  0
 26 27  1  0  0  0  0
 27 28  1  0  0  0  0
 28 29  2  0  0  0  0
 30 31  1  0  0  0  0
 31 12  1  0  0  0  0
M  END
>  <MODEL>
4

>  <REMARK>
 VINA RESULT:      -8.5      2.833      8.521
  Name = 
  3 active torsions:
  status: ('A' for Active; 'I' for Inactive)
    1  A    between atoms: C_9  and  N_11
    2  A    between atoms: O_14  and  C_25
    3  A    between atoms: C_21  and  C_24
                            x       y       z     vdW  Elec       q    Type
                         _______ _______ _______ _____ _____    ______ ____

>  <TORSDO>
F 3

$$$$
=
 OpenBabel11072412373D

 31 34  0  0  1  0  0  0  0  0999 V2000
  160.2580  210.1510  152.6230 C   0  0  0  0  0  0  0  0  0  0  0  0
  159.2170  210.6420  155.1580 C   0  0  0  0  0  3  0  0  0  0  0  0
  160.4780  209.1930  153.6580 C   0  0  0  0  0  0  0  0  0  0  0  0
  161.0320  206.7690  155.6390 C   0  0  0  0  0  3  0  0  0  0  0  0
  161.1600  207.9150  156.4700 N   0  0  0  0  0  0  0  0  0  0  0  0
  160.0830  209.5660  154.9710 C   0  0  0  0  0  0  0  0  0  0  0  0
  161.0190  207.3610  152.0740 N   0  0  0  0  0  0  0  0  0  0  0  0
  161.6520  209.2580  150.7240 C   0  0  0  0  0  0  0  0  0  0  0  0
  161.0450  206.7890  154.3130 C   0  0  0  0  0  3  0  0  0  0  0  0
  162.4330  209.5760  149.6620 F   0  0  0  0  0  0  0  0  0  0  0  0
  161.2180  207.8690  150.8970 C   0  0  0  0  0  0  0  0  0  0  0  0
  158.7890  211.4240  154.0890 C   0  0  0  0  0  0  0  0  0  0  0  0
  161.1470  210.2530  151.4440 C   0  0  0  0  0  3  0  0  0  0  0  0
  159.3520  211.2140  152.8290 C   0  0  0  0  0  0  0  0  0  0  0  0
  159.0160  212.1640  151.7200 C   0  0  0  0  0  1  0  0  0  0  0  0
  160.7420  209.1110  156.2080 C   0  0  0  0  0  3  0  0  0  0  0  0
  161.3060  207.9370  153.3860 C   0  0  2  0  0  3  0  0  0  0  0  0
  159.7480  206.6220  149.5350 O   0  0  0  0  0  0  0  0  0  0  0  0
  161.9470  206.7080  148.7310 N   0  0  0  0  0  0  0  0  0  0  0  0
  160.9240  207.0510  149.6950 C   0  0  0  0  0  0  0  0  0  0  0  0
  163.1720  207.4940  148.6400 C   0  0  0  0  0  1  0  0  0  0  0  0
  161.5820  203.9980  149.4620 F   0  0  0  0  0  0  0  0  0  0  0  0
  161.7200  205.9890  146.3820 C   0  0  0  0  0  3  0  0  0  0  0  0
  161.5830  204.3320  148.1460 C   0  0  0  0  0  0  0  0  0  0  0  0
  161.7400  205.6750  147.7500 C   0  0  0  0  0  0  0  0  0  0  0  0
  161.2470  202.0390  147.5620 F   0  0  0  0  0  0  0  0  0  0  0  0
  161.4040  203.3310  147.1830 C   0  0  0  0  0  0  0  0  0  0  0  0
  161.3840  203.6600  145.8260 C   0  0  0  0  0  3  0  0  0  0  0  0
  161.5420  204.9880  145.4250 C   0  0  0  0  0  3  0  0  0  0  0  0
  156.5190  212.1930  154.4450 N   0  0  0  0  0  1  0  0  0  0  0  0
  157.8630  212.4530  154.2830 O   0  0  0  0  0  0  0  0  0  0  0  0
  1 14  2  0  0  0  0
  1  3  1  0  0  0  0
  3  6  2  0  0  0  0
  4  5  1  0  0  0  0
  6  2  1  0  0  0  0
  6 16  1  0  0  0  0
  7 17  1  0  0  0  0
  8 11  1  0  0  0  0
  8 13  2  0  0  0  0
  9  4  2  0  0  0  0
 10  8  1  0  0  0  0
 11  7  2  0  0  0  0
 12 31  1  0  0  0  0
 12  2  2  0  0  0  0
 13  1  1  0  0  0  0
 14 12  1  0  0  0  0
 15 14  1  0  0  0  0
 16  5  2  0  0  0  0
 17  3  1  0  0  0  0
 17  9  1  1  0  0  0
 18 20  2  0  0  0  0
 19 20  1  0  0  0  0
 20 11  1  0  0  0  0
 21 19  1  0  0  0  0
 23 25  1  0  0  0  0
 24 22  1  0  0  0  0
 25 24  2  0  0  0  0
 25 19  1  0  0  0  0
 27 26  1  0  0  0  0
 27 24  1  0  0  0  0
 28 27  2  0  0  0  0
 29 28  1  0  0  0  0
 29 23  2  0  0  0  0
 31 30  1  0  0  0  0
M  END
>  <MODEL>
5

>  <REMARK>
 VINA RESULT:      -7.1      1.454      1.740
  Name = 
  3 active torsions:
  status: ('A' for Active; 'I' for Inactive)
    1  A    between atoms: C_9  and  N_11
    2  A    between atoms: O_14  and  C_25
    3  A    between atoms: C_21  and  C_24
                            x       y       z     vdW  Elec       q    Type
                         _______ _______ _______ _____ _____    ______ ____

>  <TORSDO>
F 3

$$$$
