=
 OpenBabel11072414203D

 56 63  0  0  1  0  0  0  0  0999 V2000
  160.7510  204.0380  152.7110 C   0  0  0  0  0  2  0  0  0  0  0  0
  161.5960  203.3510  151.6390 C   0  0  0  0  0  2  0  0  0  0  0  0
  161.3470  203.9720  150.2960 C   0  0  0  0  0  0  0  0  0  0  0  0
  161.4600  203.2640  149.2630 O   0  0  0  0  0  0  0  0  0  0  0  0
  160.8690  206.2800  153.8290 C   0  0  0  0  0  3  0  0  0  0  0  0
  161.1690  208.3120  152.5550 C   0  0  0  0  0  3  0  0  0  0  0  0
  160.9950  207.6790  153.7960 C   0  0  0  0  0  0  0  0  0  0  0  0
  161.1920  207.5680  151.3730 C   0  0  0  0  0  3  0  0  0  0  0  0
  161.0520  206.1690  151.4110 C   0  0  0  0  0  0  0  0  0  0  0  0
  161.0550  205.3840  150.1960 N   0  0  0  0  0  0  0  0  0  0  0  0
  160.9190  205.5260  152.6530 C   0  0  0  0  0  0  0  0  0  0  0  0
  160.7970  205.9980  148.8870 C   0  0  2  0  0  3  0  0  0  0  0  0
  161.9390  205.6950  147.9360 C   0  0  0  0  0  2  0  0  0  0  0  0
  161.8550  207.0480  148.5870 C   0  0  1  0  0  3  0  0  0  0  0  0
  161.2300  208.2350  147.3650 S   0  0  0  0  0  0  0  0  0  0  0  0
  162.3430  209.4160  149.4590 O   0  0  0  0  0  0  0  0  0  0  0  0
  161.5720  210.9550  147.8710 N   0  0  0  0  0  2  0  0  0  0  0  0
  161.7740  209.6230  148.3540 C   0  0  0  0  0  0  0  0  0  0  0  0
  162.1350  212.1440  148.5000 C   0  0  1  0  0  3  0  0  0  0  0  0
  163.5250  212.4170  147.9560 C   0  0  0  0  0  1  0  0  0  0  0  0
  161.2580  213.3380  148.1710 C   0  0  0  0  0  2  0  0  0  0  0  0
  159.8440  213.1260  148.6760 C   0  0  1  0  0  3  0  0  0  0  0  0
  159.7590  213.5630  150.0070 O   0  0  0  0  0  1  0  0  0  0  0  0
  157.8920  213.0060  147.2530 N   0  0  0  0  0  0  0  0  0  0  0  0
  159.6970  213.3320  145.2160 N   0  0  0  0  0  2  0  0  0  0  0  0
  158.9900  213.3900  146.4520 C   0  0  0  0  0  0  0  0  0  0  0  0
  158.8610  213.8410  147.7310 C   0  0  2  0  0  3  0  0  0  0  0  0
  159.1720  212.6600  144.1050 N   0  0  0  0  0  2  0  0  0  0  0  0
  160.2340  211.8720  143.5000 C   0  0  0  0  0  2  0  0  0  0  0  0
  161.1860  212.7910  142.7460 C   0  0  1  0  0  3  0  0  0  0  0  0
  162.4940  212.6150  143.2050 O   0  0  0  0  0  1  0  0  0  0  0  0
  161.6800  210.3030  139.3770 N   0  0  0  0  0  2  0  0  0  0  0  0
  160.0600  211.4890  140.8750 C   0  0  0  0  0  2  0  0  0  0  0  0
  160.3500  210.9250  139.4820 C   0  0  0  0  0  2  0  0  0  0  0  0
  162.6520  210.7880  140.3680 C   0  0  0  0  0  2  0  0  0  0  0  0
  161.0920  212.5680  141.2380 C   0  0  0  0  0  3  0  0  0  0  0  0
  162.4800  212.2810  140.6550 C   0  0  0  0  0  2  0  0  0  0  0  0
  161.9570  208.2420  156.0530 C   0  0  0  0  0  1  0  0  0  0  0  0
  160.9540  208.4510  155.0140 N   0  0  0  0  0  0  0  0  0  0  0  0
  159.1600  209.2890  156.3090 O   0  0  0  0  0  1  0  0  0  0  0  0
  159.9490  209.5090  155.1750 C   0  0  1  0  0  3  0  0  0  0  0  0
  157.3740  213.4430  155.8820 C   0  0  1  0  0  3  0  0  0  0  0  0
  155.4740  211.4970  156.7270 S   0  0  0  0  0  1  0  0  0  0  0  0
  158.1970  211.5710  157.2290 C   0  0  0  0  0  2  0  0  0  0  0  0
  160.4010  210.9020  152.7410 O   0  0  0  0  0  1  0  0  0  0  0  0
  158.8870  213.5990  156.0220 C   0  0  2  0  0  3  0  0  0  0  0  0
  159.5540  213.7660  154.7870 O   0  0  0  0  0  0  0  0  0  0  0  0
  157.0480  212.9050  154.4880 C   0  0  1  0  0  3  0  0  0  0  0  0
  159.2930  212.7040  153.8750 C   0  0  1  0  0  3  0  0  0  0  0  0
  156.7420  214.0200  153.4980 C   0  0  0  0  0  1  0  0  0  0  0  0
  156.9990  212.4660  157.0090 C   0  0  1  0  0  3  0  0  0  0  0  0
  160.4600  211.7260  153.8660 C   0  0  1  0  0  3  0  0  0  0  0  0
  160.6000  210.9050  155.1540 C   0  0  1  0  0  3  0  0  0  0  0  0
  159.3900  212.4480  156.9030 C   0  0  2  0  0  3  0  0  0  0  0  0
  158.0510  212.0290  154.0320 O   0  0  0  0  0  0  0  0  0  0  0  0
  160.6620  211.7020  156.4710 C   0  0  0  0  0  2  0  0  0  0  0  0
  2  1  1  0  0  0  0
  3  2  1  0  0  0  0
  4  3  2  0  0  0  0
  6  7  2  0  0  0  0
  7  5  1  0  0  0  0
  7 39  1  0  0  0  0
  8  9  2  0  0  0  0
  8  6  1  0  0  0  0
  9 11  1  0  0  0  0
 10  3  1  0  0  0  0
 10  9  1  0  0  0  0
 11  1  1  0  0  0  0
 11  5  2  0  0  0  0
 12 13  1  6  0  0  0
 12 10  1  0  0  0  0
 13 14  1  0  0  0  0
 14 15  1  6  0  0  0
 14 12  1  0  0  0  0
 15 18  1  0  0  0  0
 17 18  1  0  0  0  0
 17 19  1  0  0  0  0
 18 16  2  0  0  0  0
 19 20  1  6  0  0  0
 21 19  1  0  0  0  0
 21 22  1  0  0  0  0
 22 23  1  1  0  0  0
 24 27  1  0  0  0  0
 25 26  1  0  0  0  0
 26 24  2  0  0  0  0
 26 27  1  0  0  0  0
 27 22  1  1  0  0  0
 28 25  1  0  0  0  0
 29 28  1  0  0  0  0
 30 31  1  1  0  0  0
 30 29  1  0  0  0  0
 32 34  1  0  0  0  0
 32 35  1  0  0  0  0
 33 36  1  0  0  0  0
 34 33  1  0  0  0  0
 35 37  1  0  0  0  0
 36 30  1  0  0  0  0
 37 36  1  0  0  0  0
 39 41  1  0  0  0  0
 39 38  1  0  0  0  0
 41 40  1  1  0  0  0
 42 46  1  0  0  0  0
 42 51  1  0  0  0  0
 43 51  1  0  0  0  0
 45 52  1  0  0  0  0
 46 54  1  0  0  0  0
 47 46  1  0  0  0  0
 48 42  1  0  0  0  0
 49 55  1  0  0  0  0
 49 47  1  0  0  0  0
 50 48  1  0  0  0  0
 51 44  1  0  0  0  0
 52 49  1  0  0  0  0
 52 53  1  0  0  0  0
 53 41  1  0  0  0  0
 53 56  1  0  0  0  0
 54 44  1  0  0  0  0
 55 48  1  0  0  0  0
 56 54  1  0  0  0  0
M  END
>  <MODEL>
1

>  <REMARK>
 VINA RESULT:      -7.1      0.000      0.000
  Name = 
  14 active torsions:
  status: ('A' for Active; 'I' for Inactive)
    1  A    between atoms: C_2  and  N_32
    2  A    between atoms: C_2  and  C_41
    3  A    between atoms: N_6  and  N_20
    4  A    between atoms: C_10  and  C_48
    5  A    between atoms: C_10  and  C_49
    6  A    between atoms: C_18  and  N_36
    7  A    between atoms: C_18  and  C_53
    8  A    between atoms: N_20  and  C_48
    9  A    between atoms: C_25  and  N_50
   10  A    between atoms: N_32  and  C_39
   11  A    between atoms: C_33  and  C_35
   12  A    between atoms: C_35  and  C_53
   13  A    between atoms: C_40  and  S_47
   14  A    between atoms: C_45  and  S_47
                            x       y       z     vdW  Elec       q    Type
                         _______ _______ _______ _____ _____    ______ ____

>  <TORSDO>
F 14

$$$$
=
 OpenBabel11072414203D

 56 63  0  0  1  0  0  0  0  0999 V2000
  162.1960  212.6690  146.7620 C   0  0  0  0  0  2  0  0  0  0  0  0
  162.0880  211.8220  148.0300 C   0  0  0  0  0  2  0  0  0  0  0  0
  161.1910  212.4880  149.0310 C   0  0  0  0  0  0  0  0  0  0  0  0
  161.3980  212.3030  150.2580 O   0  0  0  0  0  0  0  0  0  0  0  0
  160.6160  213.1680  144.8780 C   0  0  0  0  0  3  0  0  0  0  0  0
  158.3240  213.8140  145.2910 C   0  0  0  0  0  3  0  0  0  0  0  0
  159.3590  213.5500  144.3810 C   0  0  0  0  0  0  0  0  0  0  0  0
  158.5450  213.7230  146.6670 C   0  0  0  0  0  3  0  0  0  0  0  0
  159.8100  213.3530  147.1610 C   0  0  0  0  0  0  0  0  0  0  0  0
  160.0630  213.2710  148.5820 N   0  0  0  0  0  0  0  0  0  0  0  0
  160.8370  213.0470  146.2540 C   0  0  0  0  0  0  0  0  0  0  0  0
  159.1880  213.9380  149.5560 C   0  0  2  0  0  3  0  0  0  0  0  0
  160.0060  214.4530  150.7240 C   0  0  0  0  0  2  0  0  0  0  0  0
  159.2110  213.1860  150.8770 C   0  0  1  0  0  3  0  0  0  0  0  0
  157.7160  213.5580  151.8370 S   0  0  0  0  0  0  0  0  0  0  0  0
  159.1100  214.2580  153.9780 O   0  0  0  0  0  0  0  0  0  0  0  0
  158.6260  211.9670  153.9360 N   0  0  0  0  0  2  0  0  0  0  0  0
  158.5730  213.2860  153.3820 C   0  0  0  0  0  0  0  0  0  0  0  0
  159.1320  211.6630  155.2700 C   0  0  1  0  0  3  0  0  0  0  0  0
  157.9800  211.5020  156.2440 C   0  0  0  0  0  1  0  0  0  0  0  0
  159.8940  210.3510  155.2210 C   0  0  0  0  0  2  0  0  0  0  0  0
  160.9470  210.3780  154.1300 C   0  0  1  0  0  3  0  0  0  0  0  0
  162.1170  209.7640  154.6040 O   0  0  0  0  0  1  0  0  0  0  0  0
  159.8970  208.4580  153.1000 N   0  0  0  0  0  0  0  0  0  0  0  0
  162.3250  208.1400  151.8650 N   0  0  0  0  0  2  0  0  0  0  0  0
  161.1430  208.6640  152.4660 C   0  0  0  0  0  0  0  0  0  0  0  0
  160.3750  209.7160  152.8640 C   0  0  2  0  0  3  0  0  0  0  0  0
  162.4870  206.7650  151.6530 N   0  0  0  0  0  2  0  0  0  0  0  0
  161.2470  206.2350  151.1070 C   0  0  0  0  0  2  0  0  0  0  0  0
  161.5310  204.9430  150.3520 C   0  0  1  0  0  3  0  0  0  0  0  0
  161.0830  203.8440  151.0890 O   0  0  0  0  0  1  0  0  0  0  0  0
  161.7250  206.0190  146.2800 N   0  0  0  0  0  2  0  0  0  0  0  0
  161.7220  204.1470  147.9450 C   0  0  0  0  0  2  0  0  0  0  0  0
  161.4050  204.6010  146.5180 C   0  0  0  0  0  2  0  0  0  0  0  0
  161.7540  206.8430  147.4970 C   0  0  0  0  0  2  0  0  0  0  0  0
  160.9090  204.9690  148.9580 C   0  0  0  0  0  3  0  0  0  0  0  0
  160.6850  206.4160  148.5030 C   0  0  0  0  0  2  0  0  0  0  0  0
  158.0170  214.4530  142.4520 C   0  0  0  0  0  1  0  0  0  0  0  0
  159.1330  213.6620  142.9600 N   0  0  0  0  0  0  0  0  0  0  0  0
  159.5330  211.8990  141.4340 O   0  0  0  0  0  1  0  0  0  0  0  0
  160.0760  213.0480  142.0180 C   0  0  1  0  0  3  0  0  0  0  0  0
  162.3030  211.6590  138.0530 C   0  0  1  0  0  3  0  0  0  0  0  0
  161.2680  209.1440  138.8990 S   0  0  0  0  0  1  0  0  0  0  0  0
  160.0210  211.6160  138.9380 C   0  0  0  0  0  2  0  0  0  0  0  0
  162.5820  214.3530  142.3140 O   0  0  0  0  0  1  0  0  0  0  0  0
  161.7780  213.0930  138.0590 C   0  0  2  0  0  3  0  0  0  0  0  0
  162.6390  214.0060  138.7100 O   0  0  0  0  0  0  0  0  0  0  0  0
  163.2620  211.4660  139.2300 C   0  0  1  0  0  3  0  0  0  0  0  0
  162.9280  213.6260  140.0520 C   0  0  1  0  0  3  0  0  0  0  0  0
  164.7130  211.7000  138.8340 C   0  0  0  0  0  1  0  0  0  0  0  0
  161.0310  210.8010  138.1650 C   0  0  1  0  0  3  0  0  0  0  0  0
  162.0700  214.4320  141.0180 C   0  0  1  0  0  3  0  0  0  0  0  0
  160.5790  214.0720  140.9830 C   0  0  1  0  0  3  0  0  0  0  0  0
  160.3340  213.0540  138.5730 C   0  0  2  0  0  3  0  0  0  0  0  0
  162.8670  212.2350  140.3410 O   0  0  0  0  0  0  0  0  0  0  0  0
  159.8960  214.1090  139.6020 C   0  0  0  0  0  2  0  0  0  0  0  0
  1  2  1  0  0  0  0
  2  3  1  0  0  0  0
  3  4  2  0  0  0  0
  5 11  1  0  0  0  0
  6  8  2  0  0  0  0
  7  5  2  0  0  0  0
  7  6  1  0  0  0  0
  8  9  1  0  0  0  0
  9 10  1  0  0  0  0
 10  3  1  0  0  0  0
 11  1  1  0  0  0  0
 11  9  2  0  0  0  0
 12 10  1  6  0  0  0
 12 13  1  0  0  0  0
 12 14  1  0  0  0  0
 13 14  1  0  0  0  0
 14 15  1  1  0  0  0
 15 18  1  0  0  0  0
 17 19  1  0  0  0  0
 18 17  1  0  0  0  0
 18 16  2  0  0  0  0
 19 20  1  1  0  0  0
 21 19  1  0  0  0  0
 22 23  1  1  0  0  0
 22 21  1  0  0  0  0
 25 26  1  0  0  0  0
 26 27  1  0  0  0  0
 26 24  2  0  0  0  0
 27 24  1  0  0  0  0
 27 22  1  1  0  0  0
 28 25  1  0  0  0  0
 29 28  1  0  0  0  0
 30 31  1  1  0  0  0
 30 29  1  0  0  0  0
 32 34  1  0  0  0  0
 32 35  1  0  0  0  0
 33 36  1  0  0  0  0
 34 33  1  0  0  0  0
 35 37  1  0  0  0  0
 36 30  1  0  0  0  0
 37 36  1  0  0  0  0
 38 39  1  0  0  0  0
 39  7  1  0  0  0  0
 41 40  1  6  0  0  0
 41 39  1  0  0  0  0
 42 46  1  0  0  0  0
 42 51  1  0  0  0  0
 42 48  1  0  0  0  0
 46 54  1  0  0  0  0
 46 47  1  0  0  0  0
 47 49  1  0  0  0  0
 48 55  1  0  0  0  0
 49 55  1  0  0  0  0
 49 52  1  0  0  0  0
 50 48  1  0  0  0  0
 51 43  1  0  0  0  0
 51 44  1  0  0  0  0
 52 45  1  0  0  0  0
 53 52  1  0  0  0  0
 53 41  1  0  0  0  0
 54 44  1  0  0  0  0
 54 56  1  0  0  0  0
 56 53  1  0  0  0  0
M  END
>  <MODEL>
2

>  <REMARK>
 VINA RESULT:      -5.9      2.505     11.886
  Name = 
  14 active torsions:
  status: ('A' for Active; 'I' for Inactive)
    1  A    between atoms: C_2  and  N_32
    2  A    between atoms: C_2  and  C_41
    3  A    between atoms: N_6  and  N_20
    4  A    between atoms: C_10  and  C_48
    5  A    between atoms: C_10  and  C_49
    6  A    between atoms: C_18  and  N_36
    7  A    between atoms: C_18  and  C_53
    8  A    between atoms: N_20  and  C_48
    9  A    between atoms: C_25  and  N_50
   10  A    between atoms: N_32  and  C_39
   11  A    between atoms: C_33  and  C_35
   12  A    between atoms: C_35  and  C_53
   13  A    between atoms: C_40  and  S_47
   14  A    between atoms: C_45  and  S_47
                            x       y       z     vdW  Elec       q    Type
                         _______ _______ _______ _____ _____    ______ ____

>  <TORSDO>
F 14

$$$$
=
 OpenBabel11072414203D

 56 63  0  0  1  0  0  0  0  0999 V2000
  160.5980  203.6410  152.6650 C   0  0  0  0  0  2  0  0  0  0  0  0
  161.4310  202.9050  151.6160 C   0  0  0  0  0  2  0  0  0  0  0  0
  161.2270  203.5170  150.2610 C   0  0  0  0  0  0  0  0  0  0  0  0
  161.3270  202.7900  149.2390 O   0  0  0  0  0  0  0  0  0  0  0  0
  160.7900  205.8930  153.7540 C   0  0  0  0  0  3  0  0  0  0  0  0
  161.1900  207.8930  152.4570 C   0  0  0  0  0  3  0  0  0  0  0  0
  160.9720  207.2840  153.7030 C   0  0  0  0  0  0  0  0  0  0  0  0
  161.2010  207.1310  151.2860 C   0  0  0  0  0  3  0  0  0  0  0  0
  161.0040  205.7390  151.3410 C   0  0  0  0  0  0  0  0  0  0  0  0
  160.9940  204.9370  150.1370 N   0  0  0  0  0  0  0  0  0  0  0  0
  160.8270  205.1200  152.5890 C   0  0  0  0  0  0  0  0  0  0  0  0
  160.7800  205.5420  148.8160 C   0  0  2  0  0  3  0  0  0  0  0  0
  161.8560  205.0800  147.8520 C   0  0  0  0  0  2  0  0  0  0  0  0
  161.9470  206.4500  148.4640 C   0  0  1  0  0  3  0  0  0  0  0  0
  161.4400  207.6710  147.2210 S   0  0  0  0  0  0  0  0  0  0  0  0
  162.3100  208.8060  149.4500 O   0  0  0  0  0  0  0  0  0  0  0  0
  161.3440  210.3510  147.9770 N   0  0  0  0  0  2  0  0  0  0  0  0
  161.7400  209.0260  148.3480 C   0  0  0  0  0  0  0  0  0  0  0  0
  161.7020  211.5480  148.7290 C   0  0  1  0  0  3  0  0  0  0  0  0
  162.6600  211.1960  149.8530 C   0  0  0  0  0  1  0  0  0  0  0  0
  162.4030  212.5230  147.8010 C   0  0  0  0  0  2  0  0  0  0  0  0
  161.6060  212.7250  146.5270 C   0  0  1  0  0  3  0  0  0  0  0  0
  160.4230  213.4170  146.8280 O   0  0  0  0  0  1  0  0  0  0  0  0
  161.8280  214.4420  144.8380 N   0  0  0  0  0  0  0  0  0  0  0  0
  161.9350  212.3270  143.0960 N   0  0  0  0  0  2  0  0  0  0  0  0
  162.0640  213.1930  144.2210 C   0  0  0  0  0  0  0  0  0  0  0  0
  162.4900  213.4410  145.4900 C   0  0  2  0  0  3  0  0  0  0  0  0
  161.3850  212.7760  141.8890 N   0  0  0  0  0  2  0  0  0  0  0  0
  162.4190  212.7290  140.8670 C   0  0  0  0  0  2  0  0  0  0  0  0
  161.7900  212.4220  139.5150 C   0  0  1  0  0  3  0  0  0  0  0  0
  162.5260  213.0230  138.4910 O   0  0  0  0  0  1  0  0  0  0  0  0
  160.2040  209.1650  137.3570 N   0  0  0  0  0  2  0  0  0  0  0  0
  162.2570  210.4720  137.9520 C   0  0  0  0  0  2  0  0  0  0  0  0
  161.6660  209.1250  137.5280 C   0  0  0  0  0  2  0  0  0  0  0  0
  159.5380  210.2390  138.1090 C   0  0  0  0  0  2  0  0  0  0  0  0
  161.6580  210.9170  139.2960 C   0  0  0  0  0  3  0  0  0  0  0  0
  160.1990  210.4810  139.4670 C   0  0  0  0  0  2  0  0  0  0  0  0
  161.9220  207.8420  155.9670 C   0  0  0  0  0  1  0  0  0  0  0  0
  160.9440  208.0750  154.9090 N   0  0  0  0  0  0  0  0  0  0  0  0
  159.2940  209.1030  156.2570 O   0  0  0  0  0  1  0  0  0  0  0  0
  159.9810  209.1750  155.0410 C   0  0  1  0  0  3  0  0  0  0  0  0
  157.5980  213.2430  155.6620 C   0  0  1  0  0  3  0  0  0  0  0  0
  155.7720  211.4510  156.9110 S   0  0  0  0  0  1  0  0  0  0  0  0
  158.5360  211.4790  157.0770 C   0  0  0  0  0  2  0  0  0  0  0  0
  160.1650  210.3170  152.4460 O   0  0  0  0  0  1  0  0  0  0  0  0
  159.1210  213.3600  155.6070 C   0  0  2  0  0  3  0  0  0  0  0  0
  159.6370  213.3880  154.2910 O   0  0  0  0  0  0  0  0  0  0  0  0
  157.0940  212.5880  154.3750 C   0  0  1  0  0  3  0  0  0  0  0  0
  159.2430  212.2540  153.5230 C   0  0  1  0  0  3  0  0  0  0  0  0
  156.6960  213.6150  153.3240 C   0  0  0  0  0  1  0  0  0  0  0  0
  157.3410  212.3890  156.9150 C   0  0  1  0  0  3  0  0  0  0  0  0
  160.3780  211.2410  153.4710 C   0  0  1  0  0  3  0  0  0  0  0  0
  160.6550  210.5400  154.8070 C   0  0  1  0  0  3  0  0  0  0  0  0
  159.7010  212.2800  156.5290 C   0  0  2  0  0  3  0  0  0  0  0  0
  158.0140  211.6390  153.8910 O   0  0  0  0  0  0  0  0  0  0  0  0
  160.8940  211.4540  156.0250 C   0  0  0  0  0  2  0  0  0  0  0  0
  2  1  1  0  0  0  0
  3  2  1  0  0  0  0
  4  3  2  0  0  0  0
  6  7  2  0  0  0  0
  7  5  1  0  0  0  0
  7 39  1  0  0  0  0
  8  9  2  0  0  0  0
  8  6  1  0  0  0  0
  9 11  1  0  0  0  0
 10  3  1  0  0  0  0
 10  9  1  0  0  0  0
 11  1  1  0  0  0  0
 11  5  2  0  0  0  0
 12 13  1  6  0  0  0
 12 10  1  0  0  0  0
 13 14  1  0  0  0  0
 14 15  1  6  0  0  0
 14 12  1  0  0  0  0
 15 18  1  0  0  0  0
 17 18  1  0  0  0  0
 17 19  1  0  0  0  0
 18 16  2  0  0  0  0
 19 20  1  1  0  0  0
 21 19  1  0  0  0  0
 22 23  1  1  0  0  0
 22 21  1  0  0  0  0
 24 27  1  0  0  0  0
 25 26  1  0  0  0  0
 26 24  2  0  0  0  0
 26 27  1  0  0  0  0
 27 22  1  1  0  0  0
 28 25  1  0  0  0  0
 29 28  1  0  0  0  0
 30 31  1  6  0  0  0
 30 29  1  0  0  0  0
 32 34  1  0  0  0  0
 32 35  1  0  0  0  0
 33 36  1  0  0  0  0
 34 33  1  0  0  0  0
 35 37  1  0  0  0  0
 36 37  1  0  0  0  0
 36 30  1  0  0  0  0
 39 41  1  0  0  0  0
 39 38  1  0  0  0  0
 41 40  1  1  0  0  0
 42 51  1  0  0  0  0
 43 51  1  0  0  0  0
 45 52  1  0  0  0  0
 46 42  1  0  0  0  0
 46 54  1  0  0  0  0
 47 46  1  0  0  0  0
 48 42  1  0  0  0  0
 49 55  1  0  0  0  0
 49 47  1  0  0  0  0
 50 48  1  0  0  0  0
 51 44  1  0  0  0  0
 52 49  1  0  0  0  0
 52 53  1  0  0  0  0
 53 41  1  0  0  0  0
 53 56  1  0  0  0  0
 54 44  1  0  0  0  0
 55 48  1  0  0  0  0
 56 54  1  0  0  0  0
M  END
>  <MODEL>
3

>  <REMARK>
 VINA RESULT:      -5.7      1.482      1.986
  Name = 
  14 active torsions:
  status: ('A' for Active; 'I' for Inactive)
    1  A    between atoms: C_2  and  N_32
    2  A    between atoms: C_2  and  C_41
    3  A    between atoms: N_6  and  N_20
    4  A    between atoms: C_10  and  C_48
    5  A    between atoms: C_10  and  C_49
    6  A    between atoms: C_18  and  N_36
    7  A    between atoms: C_18  and  C_53
    8  A    between atoms: N_20  and  C_48
    9  A    between atoms: C_25  and  N_50
   10  A    between atoms: N_32  and  C_39
   11  A    between atoms: C_33  and  C_35
   12  A    between atoms: C_35  and  C_53
   13  A    between atoms: C_40  and  S_47
   14  A    between atoms: C_45  and  S_47
                            x       y       z     vdW  Elec       q    Type
                         _______ _______ _______ _____ _____    ______ ____

>  <TORSDO>
F 14

$$$$
=
 OpenBabel11072414203D

 56 63  0  0  1  0  0  0  0  0999 V2000
  159.3230  210.0520  155.7110 C   0  0  0  0  0  2  0  0  0  0  0  0
  158.0740  210.9300  155.6570 C   0  0  0  0  0  2  0  0  0  0  0  0
  158.3530  212.1930  154.8980 C   0  0  0  0  0  0  0  0  0  0  0  0
  157.7250  213.2410  155.1980 O   0  0  0  0  0  0  0  0  0  0  0  0
  160.5270  208.6540  154.0100 C   0  0  0  0  0  3  0  0  0  0  0  0
  161.0470  209.5120  151.8110 C   0  0  0  0  0  3  0  0  0  0  0  0
  161.1040  208.4650  152.7440 C   0  0  0  0  0  0  0  0  0  0  0  0
  160.4510  210.7310  152.1450 C   0  0  0  0  0  3  0  0  0  0  0  0
  159.8870  210.9210  153.4200 C   0  0  0  0  0  0  0  0  0  0  0  0
  159.2800  212.1810  153.7900 N   0  0  0  0  0  0  0  0  0  0  0  0
  159.9030  209.8610  154.3420 C   0  0  0  0  0  0  0  0  0  0  0  0
  159.5700  213.4160  153.0500 C   0  0  2  0  0  3  0  0  0  0  0  0
  158.3500  213.8480  152.2590 C   0  0  0  0  0  2  0  0  0  0  0  0
  159.4850  213.1580  151.5540 C   0  0  1  0  0  3  0  0  0  0  0  0
  160.4410  214.4070  150.6470 S   0  0  0  0  0  0  0  0  0  0  0  0
  161.1110  212.5890  148.8410 O   0  0  0  0  0  0  0  0  0  0  0  0
  159.2020  213.7990  148.2260 N   0  0  0  0  0  2  0  0  0  0  0  0
  160.2820  213.4970  149.1160 C   0  0  0  0  0  0  0  0  0  0  0  0
  158.8690  213.0040  147.0500 C   0  0  1  0  0  3  0  0  0  0  0  0
  157.4130  212.5800  147.0970 C   0  0  0  0  0  1  0  0  0  0  0  0
  159.0730  213.8520  145.8070 C   0  0  0  0  0  2  0  0  0  0  0  0
  160.2960  213.3950  145.0360 C   0  0  1  0  0  3  0  0  0  0  0  0
  160.9340  212.3690  145.7480 O   0  0  0  0  0  1  0  0  0  0  0  0
  160.4250  211.8000  143.2220 N   0  0  0  0  0  0  0  0  0  0  0  0
  161.8400  213.7750  141.9520 N   0  0  0  0  0  2  0  0  0  0  0  0
  160.9170  213.0370  142.7480 C   0  0  0  0  0  0  0  0  0  0  0  0
  159.8680  212.9830  143.6150 C   0  0  2  0  0  3  0  0  0  0  0  0
  162.7470  213.1320  141.1000 N   0  0  0  0  0  2  0  0  0  0  0  0
  162.2880  213.3000  139.7290 C   0  0  0  0  0  2  0  0  0  0  0  0
  162.4110  211.9790  138.9830 C   0  0  1  0  0  3  0  0  0  0  0  0
  162.8980  210.9850  139.8350 O   0  0  0  0  0  1  0  0  0  0  0  0
  159.2780  209.1920  138.5420 N   0  0  0  0  0  2  0  0  0  0  0  0
  159.9620  211.4420  139.4030 C   0  0  0  0  0  2  0  0  0  0  0  0
  158.8340  210.5570  138.8680 C   0  0  0  0  0  2  0  0  0  0  0  0
  160.7170  209.0770  138.2620 C   0  0  0  0  0  2  0  0  0  0  0  0
  161.0800  211.5710  138.3560 C   0  0  0  0  0  3  0  0  0  0  0  0
  161.2550  210.3000  137.5180 C   0  0  0  0  0  2  0  0  0  0  0  0
  161.6560  206.0750  153.3130 C   0  0  0  0  0  1  0  0  0  0  0  0
  161.7360  207.2140  152.4030 N   0  0  0  0  0  0  0  0  0  0  0  0
  162.8490  205.7480  150.9160 O   0  0  0  0  0  1  0  0  0  0  0  0
  162.3940  207.0570  151.1000 C   0  0  1  0  0  3  0  0  0  0  0  0
  161.1030  204.1610  147.5570 C   0  0  1  0  0  3  0  0  0  0  0  0
  162.1480  202.2270  149.3680 S   0  0  0  0  0  1  0  0  0  0  0  0
  160.5760  204.4370  149.9320 C   0  0  0  0  0  2  0  0  0  0  0  0
  163.4550  208.4360  148.8540 O   0  0  0  0  0  1  0  0  0  0  0  0
  160.2840  205.4420  147.7080 C   0  0  2  0  0  3  0  0  0  0  0  0
  160.8880  206.5710  147.1090 O   0  0  0  0  0  0  0  0  0  0  0  0
  162.5770  204.5230  147.3630 C   0  0  1  0  0  3  0  0  0  0  0  0
  162.2020  206.8160  147.6020 C   0  0  1  0  0  3  0  0  0  0  0  0
  162.9600  204.6070  145.8920 C   0  0  0  0  0  1  0  0  0  0  0  0
  160.8360  203.3980  148.8660 C   0  0  1  0  0  3  0  0  0  0  0  0
  162.1710  207.9340  148.6360 C   0  0  1  0  0  3  0  0  0  0  0  0
  161.4890  207.5500  149.9550 C   0  0  1  0  0  3  0  0  0  0  0  0
  159.9200  205.5850  149.1900 C   0  0  2  0  0  3  0  0  0  0  0  0
  162.9160  205.6840  148.0830 O   0  0  0  0  0  0  0  0  0  0  0  0
  160.0670  206.9670  149.8470 C   0  0  0  0  0  2  0  0  0  0  0  0
  2  1  1  0  0  0  0
  3  4  2  0  0  0  0
  3  2  1  0  0  0  0
  5 11  1  0  0  0  0
  6  8  2  0  0  0  0
  6  7  1  0  0  0  0
  7  5  2  0  0  0  0
  8  9  1  0  0  0  0
  9 10  1  0  0  0  0
  9 11  2  0  0  0  0
 10  3  1  0  0  0  0
 11  1  1  0  0  0  0
 12 13  1  1  0  0  0
 12 10  1  0  0  0  0
 14 15  1  6  0  0  0
 14 13  1  0  0  0  0
 14 12  1  0  0  0  0
 16 18  2  0  0  0  0
 17 18  1  0  0  0  0
 18 15  1  0  0  0  0
 19 20  1  1  0  0  0
 19 17  1  0  0  0  0
 21 19  1  0  0  0  0
 22 23  1  1  0  0  0
 22 21  1  0  0  0  0
 24 27  1  0  0  0  0
 25 26  1  0  0  0  0
 26 24  2  0  0  0  0
 26 27  1  0  0  0  0
 27 22  1  1  0  0  0
 28 25  1  0  0  0  0
 29 28  1  0  0  0  0
 30 29  1  0  0  0  0
 30 31  1  1  0  0  0
 32 34  1  0  0  0  0
 34 33  1  0  0  0  0
 35 32  1  0  0  0  0
 36 30  1  0  0  0  0
 36 33  1  0  0  0  0
 37 35  1  0  0  0  0
 37 36  1  0  0  0  0
 39  7  1  0  0  0  0
 39 38  1  0  0  0  0
 41 40  1  6  0  0  0
 41 39  1  0  0  0  0
 42 46  1  0  0  0  0
 42 51  1  0  0  0  0
 46 54  1  0  0  0  0
 47 49  1  0  0  0  0
 47 46  1  0  0  0  0
 48 42  1  0  0  0  0
 48 55  1  0  0  0  0
 49 55  1  0  0  0  0
 49 52  1  0  0  0  0
 50 48  1  0  0  0  0
 51 43  1  0  0  0  0
 51 44  1  0  0  0  0
 52 45  1  0  0  0  0
 52 53  1  0  0  0  0
 53 41  1  0  0  0  0
 54 56  1  0  0  0  0
 54 44  1  0  0  0  0
 56 53  1  0  0  0  0
M  END
>  <MODEL>
4

>  <REMARK>
 VINA RESULT:      -4.4      2.454      7.212
  Name = 
  14 active torsions:
  status: ('A' for Active; 'I' for Inactive)
    1  A    between atoms: C_2  and  N_32
    2  A    between atoms: C_2  and  C_41
    3  A    between atoms: N_6  and  N_20
    4  A    between atoms: C_10  and  C_48
    5  A    between atoms: C_10  and  C_49
    6  A    between atoms: C_18  and  N_36
    7  A    between atoms: C_18  and  C_53
    8  A    between atoms: N_20  and  C_48
    9  A    between atoms: C_25  and  N_50
   10  A    between atoms: N_32  and  C_39
   11  A    between atoms: C_33  and  C_35
   12  A    between atoms: C_35  and  C_53
   13  A    between atoms: C_40  and  S_47
   14  A    between atoms: C_45  and  S_47
                            x       y       z     vdW  Elec       q    Type
                         _______ _______ _______ _____ _____    ______ ____

>  <TORSDO>
F 14

$$$$
