=
 OpenBabel11072412263D

 33 37  0  0  1  0  0  0  0  0999 V2000
  161.0530  205.7400  151.4770 C   0  0  0  0  0  0  0  0  0  0  0  0
  160.8840  206.0740  149.2940 N   0  0  0  0  0  0  0  0  0  0  0  0
  161.2010  205.1550  153.8240 O   0  0  0  0  0  1  0  0  0  0  0  0
  161.2310  206.1020  152.8090 C   0  0  0  0  0  0  0  0  0  0  0  0
  161.4400  207.4610  153.1000 C   0  0  0  0  0  3  0  0  0  0  0  0
  160.7580  204.7470  149.5360 C   0  0  0  0  0  3  0  0  0  0  0  0
  161.0720  206.6700  150.4790 C   0  0  0  0  0  0  0  0  0  0  0  0
  161.2830  208.0250  150.7350 C   0  0  0  0  0  3  0  0  0  0  0  0
  161.4760  208.4380  152.0720 C   0  0  0  0  0  0  0  0  0  0  0  0
  160.8570  204.4940  150.9080 C   0  0  0  0  0  3  0  0  0  0  0  0
  161.7330  209.8840  152.3580 C   0  0  0  0  0  0  0  0  0  0  0  0
  161.9310  210.8320  151.4300 C   0  0  0  0  0  3  0  0  0  0  0  0
  161.7320  210.4520  154.0640 S   0  0  0  0  0  0  0  0  0  0  0  0
  157.0200  211.8740  154.2700 C   0  0  2  0  0  3  0  0  0  0  0  0
  156.0250  211.9960  156.2580 C   0  0  0  0  0  3  0  0  0  0  0  0
  159.3560  210.7920  152.9550 O   0  0  0  0  0  0  0  0  0  0  0  0
  157.9540  211.5690  155.3910 C   0  0  0  0  0  0  0  0  0  0  0  0
  159.3290  211.1850  155.2670 N   0  0  0  0  0  2  0  0  0  0  0  0
  157.3730  211.6480  156.5380 N   0  0  0  0  0  0  0  0  0  0  0  0
  157.4500  213.1450  153.5570 C   0  0  0  0  0  1  0  0  0  0  0  0
  159.9880  210.8480  154.0420 C   0  0  0  0  0  0  0  0  0  0  0  0
  155.7850  212.1280  154.9950 N   0  0  0  0  0  0  0  0  0  0  0  0
  161.9580  210.6280  149.9520 C   0  0  0  0  0  2  0  0  0  0  0  0
  161.4800  211.5600  147.8600 C   0  0  0  0  0  2  0  0  0  0  0  0
  162.7510  212.1050  148.3200 C   0  0  0  0  0  2  0  0  0  0  0  0
  161.6630  211.8810  149.2830 N   0  0  0  0  0  0  0  0  0  0  0  0
  160.8430  206.7190  147.9870 C   0  0  0  0  0  2  0  0  0  0  0  0
  162.5380  205.4780  146.6470 C   0  0  0  0  0  2  0  0  0  0  0  0
  162.7810  204.3810  145.5990 C   0  0  0  0  0  2  0  0  0  0  0  0
  160.3470  206.1640  145.5890 C   0  0  0  0  0  2  0  0  0  0  0  0
  161.0460  205.6990  146.8770 C   0  0  0  0  0  3  0  0  0  0  0  0
  161.0160  205.6460  144.3070 C   0  0  0  0  0  2  0  0  0  0  0  0
  161.6740  204.2890  144.5380 C   0  0  0  0  0  2  0  0  0  0  0  0
  1  4  1  0  0  0  0
  2  6  1  0  0  0  0
  2  7  1  0  0  0  0
  4  5  2  0  0  0  0
  4  3  1  0  0  0  0
  6 10  2  0  0  0  0
  7  8  1  0  0  0  0
  7  1  2  0  0  0  0
  8  9  2  0  0  0  0
  9 11  1  0  0  0  0
  9  5  1  0  0  0  0
 10  1  1  0  0  0  0
 11 13  1  0  0  0  0
 12 11  2  0  0  0  0
 14 20  1  1  0  0  0
 14 22  1  0  0  0  0
 14 17  1  0  0  0  0
 15 19  1  0  0  0  0
 16 21  2  0  0  0  0
 17 19  2  0  0  0  0
 18 17  1  0  0  0  0
 21 13  1  0  0  0  0
 21 18  1  0  0  0  0
 22 15  2  0  0  0  0
 23 12  1  0  0  0  0
 24 25  1  0  0  0  0
 24 26  1  0  0  0  0
 25 26  1  0  0  0  0
 26 23  1  0  0  0  0
 27  2  1  0  0  0  0
 28 31  1  0  0  0  0
 29 28  1  0  0  0  0
 30 31  1  0  0  0  0
 31 27  1  0  0  0  0
 32 33  1  0  0  0  0
 32 30  1  0  0  0  0
 33 29  1  0  0  0  0
M  END
>  <MODEL>
1

>  <REMARK>
 VINA RESULT:      -8.2      0.000      0.000
  Name = 
  7 active torsions:
  status: ('A' for Active; 'I' for Inactive)
    1  A    between atoms: N_7  and  C_18
    2  A    between atoms: S_13  and  C_24
    3  A    between atoms: S_13  and  C_25
    4  A    between atoms: C_18  and  C_22
    5  A    between atoms: C_20  and  C_26
    6  A    between atoms: C_20  and  N_29
    7  A    between atoms: C_25  and  C_31
                            x       y       z     vdW  Elec       q    Type
                         _______ _______ _______ _____ _____    ______ ____

>  <TORSDO>
F 7

$$$$
=
 OpenBabel11072412263D

 33 37  0  0  1  0  0  0  0  0999 V2000
  161.1450  205.9450  151.8640 C   0  0  0  0  0  0  0  0  0  0  0  0
  161.1660  206.2620  149.6720 N   0  0  0  0  0  0  0  0  0  0  0  0
  161.1240  205.3750  154.2190 O   0  0  0  0  0  1  0  0  0  0  0  0
  161.1230  206.3220  153.2040 C   0  0  0  0  0  0  0  0  0  0  0  0
  161.0970  207.6960  153.5010 C   0  0  0  0  0  3  0  0  0  0  0  0
  161.2120  204.9300  149.9130 C   0  0  0  0  0  3  0  0  0  0  0  0
  161.1340  206.8730  150.8640 C   0  0  0  0  0  0  0  0  0  0  0  0
  161.1140  208.2430  151.1270 C   0  0  0  0  0  3  0  0  0  0  0  0
  161.0990  208.6730  152.4730 C   0  0  0  0  0  0  0  0  0  0  0  0
  161.1980  204.6870  151.2910 C   0  0  0  0  0  3  0  0  0  0  0  0
  161.1070  210.1390  152.7700 C   0  0  0  0  0  0  0  0  0  0  0  0
  161.4690  210.6890  153.9390 C   0  0  0  0  0  3  0  0  0  0  0  0
  160.6560  211.2980  151.4710 S   0  0  0  0  0  0  0  0  0  0  0  0
  157.5290  213.4090  154.6390 C   0  0  2  0  0  3  0  0  0  0  0  0
  155.8380  212.2000  155.4380 C   0  0  0  0  0  3  0  0  0  0  0  0
  159.5210  213.4310  152.5440 O   0  0  0  0  0  0  0  0  0  0  0  0
  157.5670  211.9950  154.1640 C   0  0  0  0  0  0  0  0  0  0  0  0
  158.5240  211.4320  153.2580 N   0  0  0  0  0  2  0  0  0  0  0  0
  156.5900  211.3020  154.6350 N   0  0  0  0  0  0  0  0  0  0  0  0
  158.7330  213.7010  155.5170 C   0  0  0  0  0  1  0  0  0  0  0  0
  159.4930  212.1730  152.5100 C   0  0  0  0  0  0  0  0  0  0  0  0
  156.3300  213.3960  155.4620 N   0  0  0  0  0  0  0  0  0  0  0  0
  161.9040  209.9550  155.1630 C   0  0  0  0  0  2  0  0  0  0  0  0
  160.8910  209.3090  157.1690 C   0  0  0  0  0  2  0  0  0  0  0  0
  159.8590  209.8470  156.2930 C   0  0  0  0  0  2  0  0  0  0  0  0
  161.1910  210.4680  156.3160 N   0  0  0  0  0  0  0  0  0  0  0  0
  161.1710  206.9020  148.3610 C   0  0  0  0  0  2  0  0  0  0  0  0
  162.5960  205.5780  146.8020 C   0  0  0  0  0  2  0  0  0  0  0  0
  162.6360  204.4580  145.7520 C   0  0  0  0  0  2  0  0  0  0  0  0
  160.2920  206.3310  146.0800 C   0  0  0  0  0  2  0  0  0  0  0  0
  161.1650  205.8590  147.2540 C   0  0  0  0  0  3  0  0  0  0  0  0
  160.7370  205.7690  144.7220 C   0  0  0  0  0  2  0  0  0  0  0  0
  161.3760  204.3920  144.8760 C   0  0  0  0  0  2  0  0  0  0  0  0
  1  4  1  0  0  0  0
  2  6  1  0  0  0  0
  2  7  1  0  0  0  0
  4  5  2  0  0  0  0
  4  3  1  0  0  0  0
  6 10  2  0  0  0  0
  7  8  1  0  0  0  0
  7  1  2  0  0  0  0
  8  9  2  0  0  0  0
  9 11  1  0  0  0  0
  9  5  1  0  0  0  0
 10  1  1  0  0  0  0
 11 12  2  0  0  0  0
 12 23  1  0  0  0  0
 13 21  1  0  0  0  0
 13 11  1  0  0  0  0
 14 22  1  0  0  0  0
 14 20  1  1  0  0  0
 15 22  2  0  0  0  0
 17 19  2  0  0  0  0
 17 14  1  0  0  0  0
 18 17  1  0  0  0  0
 19 15  1  0  0  0  0
 21 16  2  0  0  0  0
 21 18  1  0  0  0  0
 23 26  1  0  0  0  0
 25 26  1  0  0  0  0
 25 24  1  0  0  0  0
 26 24  1  0  0  0  0
 27  2  1  0  0  0  0
 28 31  1  0  0  0  0
 29 28  1  0  0  0  0
 30 31  1  0  0  0  0
 31 27  1  0  0  0  0
 32 33  1  0  0  0  0
 32 30  1  0  0  0  0
 33 29  1  0  0  0  0
M  END
>  <MODEL>
2

>  <REMARK>
 VINA RESULT:      -8.2      1.916      3.025
  Name = 
  7 active torsions:
  status: ('A' for Active; 'I' for Inactive)
    1  A    between atoms: N_7  and  C_18
    2  A    between atoms: S_13  and  C_24
    3  A    between atoms: S_13  and  C_25
    4  A    between atoms: C_18  and  C_22
    5  A    between atoms: C_20  and  C_26
    6  A    between atoms: C_20  and  N_29
    7  A    between atoms: C_25  and  C_31
                            x       y       z     vdW  Elec       q    Type
                         _______ _______ _______ _____ _____    ______ ____

>  <TORSDO>
F 7

$$$$
=
 OpenBabel11072412263D

 33 37  0  0  1  0  0  0  0  0999 V2000
  161.0470  205.7390  151.4820 C   0  0  0  0  0  0  0  0  0  0  0  0
  160.8900  206.0800  149.3000 N   0  0  0  0  0  0  0  0  0  0  0  0
  161.1790  205.1460  153.8290 O   0  0  0  0  0  1  0  0  0  0  0  0
  161.2290  206.0950  152.8160 C   0  0  0  0  0  0  0  0  0  0  0  0
  161.4630  207.4490  153.1100 C   0  0  0  0  0  3  0  0  0  0  0  0
  160.7390  204.7560  149.5380 C   0  0  0  0  0  3  0  0  0  0  0  0
  161.0860  206.6710  150.4860 C   0  0  0  0  0  0  0  0  0  0  0  0
  161.3220  208.0210  150.7460 C   0  0  0  0  0  3  0  0  0  0  0  0
  161.5200  208.4280  152.0850 C   0  0  0  0  0  0  0  0  0  0  0  0
  160.8300  204.4980  150.9110 C   0  0  0  0  0  3  0  0  0  0  0  0
  161.8030  209.8670  152.3740 C   0  0  0  0  0  0  0  0  0  0  0  0
  161.9800  210.8220  151.4480 C   0  0  0  0  0  3  0  0  0  0  0  0
  161.8660  210.4200  154.0840 S   0  0  0  0  0  0  0  0  0  0  0  0
  157.9160  213.2470  153.2630 C   0  0  2  0  0  3  0  0  0  0  0  0
  157.3830  213.7570  151.1620 C   0  0  0  0  0  3  0  0  0  0  0  0
  160.0750  212.1970  154.8750 O   0  0  0  0  0  0  0  0  0  0  0  0
  158.8130  212.5840  152.2740 C   0  0  0  0  0  0  0  0  0  0  0  0
  159.9360  211.7470  152.5770 N   0  0  0  0  0  2  0  0  0  0  0  0
  158.4950  212.8790  151.0610 N   0  0  0  0  0  0  0  0  0  0  0  0
  157.1070  212.2080  154.0210 C   0  0  0  0  0  1  0  0  0  0  0  0
  160.5000  211.5560  153.8780 C   0  0  0  0  0  0  0  0  0  0  0  0
  157.0300  213.9930  152.3830 N   0  0  0  0  0  0  0  0  0  0  0  0
  161.9550  210.6310  149.9680 C   0  0  0  0  0  2  0  0  0  0  0  0
  161.4500  211.5970  147.8990 C   0  0  0  0  0  2  0  0  0  0  0  0
  162.7450  212.1050  148.3320 C   0  0  0  0  0  2  0  0  0  0  0  0
  161.6760  211.8980  149.3200 N   0  0  0  0  0  0  0  0  0  0  0  0
  160.8640  206.7290  147.9940 C   0  0  0  0  0  2  0  0  0  0  0  0
  162.5250  205.4530  146.6430 C   0  0  0  0  0  2  0  0  0  0  0  0
  162.7380  204.3520  145.5920 C   0  0  0  0  0  2  0  0  0  0  0  0
  160.3430  206.1880  145.5980 C   0  0  0  0  0  2  0  0  0  0  0  0
  161.0390  205.7070  146.8820 C   0  0  0  0  0  3  0  0  0  0  0  0
  160.9930  205.6570  144.3120 C   0  0  0  0  0  2  0  0  0  0  0  0
  161.6220  204.2860  144.5380 C   0  0  0  0  0  2  0  0  0  0  0  0
  1  4  1  0  0  0  0
  2  6  1  0  0  0  0
  2  7  1  0  0  0  0
  4  5  2  0  0  0  0
  4  3  1  0  0  0  0
  6 10  2  0  0  0  0
  7  8  1  0  0  0  0
  7  1  2  0  0  0  0
  8  9  2  0  0  0  0
  9 11  1  0  0  0  0
  9  5  1  0  0  0  0
 10  1  1  0  0  0  0
 11 13  1  0  0  0  0
 12 11  2  0  0  0  0
 14 20  1  6  0  0  0
 15 22  2  0  0  0  0
 17 18  1  0  0  0  0
 17 14  1  0  0  0  0
 18 21  1  0  0  0  0
 19 15  1  0  0  0  0
 19 17  2  0  0  0  0
 21 13  1  0  0  0  0
 21 16  2  0  0  0  0
 22 14  1  0  0  0  0
 23 12  1  0  0  0  0
 24 25  1  0  0  0  0
 24 26  1  0  0  0  0
 25 26  1  0  0  0  0
 26 23  1  0  0  0  0
 27  2  1  0  0  0  0
 28 31  1  0  0  0  0
 29 28  1  0  0  0  0
 30 31  1  0  0  0  0
 31 27  1  0  0  0  0
 32 33  1  0  0  0  0
 32 30  1  0  0  0  0
 33 29  1  0  0  0  0
M  END
>  <MODEL>
3

>  <REMARK>
 VINA RESULT:      -7.7      1.334      1.799
  Name = 
  7 active torsions:
  status: ('A' for Active; 'I' for Inactive)
    1  A    between atoms: N_7  and  C_18
    2  A    between atoms: S_13  and  C_24
    3  A    between atoms: S_13  and  C_25
    4  A    between atoms: C_18  and  C_22
    5  A    between atoms: C_20  and  C_26
    6  A    between atoms: C_20  and  N_29
    7  A    between atoms: C_25  and  C_31
                            x       y       z     vdW  Elec       q    Type
                         _______ _______ _______ _____ _____    ______ ____

>  <TORSDO>
F 7

$$$$
=
 OpenBabel11072412263D

 33 37  0  0  1  0  0  0  0  0999 V2000
  160.3560  208.8380  155.2010 C   0  0  0  0  0  0  0  0  0  0  0  0
  160.0820  210.8950  154.4260 N   0  0  0  0  0  0  0  0  0  0  0  0
  160.5920  206.6670  156.2510 O   0  0  0  0  0  1  0  0  0  0  0  0
  160.6750  207.4850  155.1330 C   0  0  0  0  0  0  0  0  0  0  0  0
  161.0890  206.9680  153.8930 C   0  0  0  0  0  3  0  0  0  0  0  0
  159.7430  210.8820  155.7370 C   0  0  0  0  0  3  0  0  0  0  0  0
  160.4460  209.6460  154.1050 C   0  0  0  0  0  0  0  0  0  0  0  0
  160.8480  209.1610  152.8600 C   0  0  0  0  0  3  0  0  0  0  0  0
  161.1740  207.7910  152.7410 C   0  0  0  0  0  0  0  0  0  0  0  0
  159.9040  209.5960  156.2660 C   0  0  0  0  0  3  0  0  0  0  0  0
  161.5780  207.2520  151.4060 C   0  0  0  0  0  0  0  0  0  0  0  0
  161.9100  205.9760  151.1550 C   0  0  0  0  0  3  0  0  0  0  0  0
  161.5800  208.3500  149.9820 S   0  0  0  0  0  0  0  0  0  0  0  0
  161.0420  204.6220  146.8070 C   0  0  2  0  0  3  0  0  0  0  0  0
  162.1820  204.6720  144.8950 C   0  0  0  0  0  3  0  0  0  0  0  0
  160.2200  206.3000  149.0130 O   0  0  0  0  0  0  0  0  0  0  0  0
  161.9500  205.8010  146.7190 C   0  0  0  0  0  0  0  0  0  0  0  0
  162.0810  206.8430  147.6940 N   0  0  0  0  0  2  0  0  0  0  0  0
  162.6100  205.8200  145.6140 N   0  0  0  0  0  0  0  0  0  0  0  0
  161.4840  203.6990  147.9310 C   0  0  0  0  0  1  0  0  0  0  0  0
  161.2300  207.0280  148.8290 C   0  0  0  0  0  0  0  0  0  0  0  0
  161.2970  203.9750  145.5300 N   0  0  0  0  0  0  0  0  0  0  0  0
  161.9660  204.8670  152.1520 C   0  0  0  0  0  2  0  0  0  0  0  0
  161.1410  202.6880  151.9500 C   0  0  0  0  0  2  0  0  0  0  0  0
  160.7260  203.4400  150.7740 C   0  0  0  0  0  2  0  0  0  0  0  0
  160.7400  204.0950  152.0890 N   0  0  0  0  0  0  0  0  0  0  0  0
  160.0380  212.0490  153.5350 C   0  0  0  0  0  2  0  0  0  0  0  0
  157.5710  212.0290  153.8930 C   0  0  0  0  0  2  0  0  0  0  0  0
  156.3330  212.8500  154.2850 C   0  0  0  0  0  2  0  0  0  0  0  0
  158.6690  214.0080  152.7660 C   0  0  0  0  0  2  0  0  0  0  0  0
  158.8180  212.9080  153.8290 C   0  0  0  0  0  3  0  0  0  0  0  0
  157.2160  214.4500  152.5400 C   0  0  0  0  0  2  0  0  0  0  0  0
  156.3930  214.3120  153.8160 C   0  0  0  0  0  2  0  0  0  0  0  0
  1 10  1  0  0  0  0
  2  6  1  0  0  0  0
  4  1  1  0  0  0  0
  4  3  1  0  0  0  0
  5  4  2  0  0  0  0
  6 10  2  0  0  0  0
  7  2  1  0  0  0  0
  7  1  2  0  0  0  0
  8  7  1  0  0  0  0
  9  8  2  0  0  0  0
  9  5  1  0  0  0  0
 11  9  1  0  0  0  0
 12 11  2  0  0  0  0
 12 23  1  0  0  0  0
 13 11  1  0  0  0  0
 14 20  1  1  0  0  0
 15 22  2  0  0  0  0
 15 19  1  0  0  0  0
 17 14  1  0  0  0  0
 17 18  1  0  0  0  0
 18 21  1  0  0  0  0
 19 17  2  0  0  0  0
 21 16  2  0  0  0  0
 21 13  1  0  0  0  0
 22 14  1  0  0  0  0
 24 26  1  0  0  0  0
 25 24  1  0  0  0  0
 25 26  1  0  0  0  0
 26 23  1  0  0  0  0
 27 31  1  0  0  0  0
 27  2  1  0  0  0  0
 28 29  1  0  0  0  0
 30 31  1  0  0  0  0
 31 28  1  0  0  0  0
 32 30  1  0  0  0  0
 32 33  1  0  0  0  0
 33 29  1  0  0  0  0
M  END
>  <MODEL>
4

>  <REMARK>
 VINA RESULT:      -7.6      2.625      9.038
  Name = 
  7 active torsions:
  status: ('A' for Active; 'I' for Inactive)
    1  A    between atoms: N_7  and  C_18
    2  A    between atoms: S_13  and  C_24
    3  A    between atoms: S_13  and  C_25
    4  A    between atoms: C_18  and  C_22
    5  A    between atoms: C_20  and  C_26
    6  A    between atoms: C_20  and  N_29
    7  A    between atoms: C_25  and  C_31
                            x       y       z     vdW  Elec       q    Type
                         _______ _______ _______ _____ _____    ______ ____

>  <TORSDO>
F 7

$$$$
=
 OpenBabel11072412263D

 33 37  0  0  1  0  0  0  0  0999 V2000
  160.2340  208.8750  154.9570 C   0  0  0  0  0  0  0  0  0  0  0  0
  160.1870  210.9570  154.2030 N   0  0  0  0  0  0  0  0  0  0  0  0
  160.2080  206.6780  155.9800 O   0  0  0  0  0  1  0  0  0  0  0  0
  160.4580  207.5030  154.8920 C   0  0  0  0  0  0  0  0  0  0  0  0
  160.9490  206.9730  153.6860 C   0  0  0  0  0  3  0  0  0  0  0  0
  159.7240  210.9520  155.4750 C   0  0  0  0  0  3  0  0  0  0  0  0
  160.4880  209.6890  153.8920 C   0  0  0  0  0  0  0  0  0  0  0  0
  160.9700  209.1920  152.6810 C   0  0  0  0  0  3  0  0  0  0  0  0
  161.2050  207.8040  152.5650 C   0  0  0  0  0  0  0  0  0  0  0  0
  159.7390  209.6510  155.9910 C   0  0  0  0  0  3  0  0  0  0  0  0
  161.6940  207.2540  151.2630 C   0  0  0  0  0  0  0  0  0  0  0  0
  161.9350  205.9580  151.0130 C   0  0  0  0  0  3  0  0  0  0  0  0
  161.9410  208.3730  149.8770 S   0  0  0  0  0  0  0  0  0  0  0  0
  160.9170  204.8810  146.5560 C   0  0  2  0  0  3  0  0  0  0  0  0
  162.0990  204.8210  144.6690 C   0  0  0  0  0  3  0  0  0  0  0  0
  160.3080  206.5900  148.8070 O   0  0  0  0  0  0  0  0  0  0  0  0
  161.9970  205.9100  146.5290 C   0  0  0  0  0  0  0  0  0  0  0  0
  162.2620  206.8860  147.5440 N   0  0  0  0  0  2  0  0  0  0  0  0
  162.6790  205.8640  145.4380 N   0  0  0  0  0  0  0  0  0  0  0  0
  161.1860  203.8640  147.6520 C   0  0  0  0  0  1  0  0  0  0  0  0
  161.4210  207.1600  148.6690 C   0  0  0  0  0  0  0  0  0  0  0  0
  161.1020  204.2460  145.2610 N   0  0  0  0  0  0  0  0  0  0  0  0
  161.7890  204.8300  151.9790 C   0  0  0  0  0  2  0  0  0  0  0  0
  160.7560  202.7720  152.3850 C   0  0  0  0  0  2  0  0  0  0  0  0
  161.2030  202.7890  150.9990 C   0  0  0  0  0  2  0  0  0  0  0  0
  160.6540  204.0110  151.6020 N   0  0  0  0  0  0  0  0  0  0  0  0
  160.3130  212.1230  153.3360 C   0  0  0  0  0  2  0  0  0  0  0  0
  159.1400  213.1420  151.3870 C   0  0  0  0  0  2  0  0  0  0  0  0
  157.7840  213.4660  150.7420 C   0  0  0  0  0  2  0  0  0  0  0  0
  158.2420  213.4890  153.7250 C   0  0  0  0  0  2  0  0  0  0  0  0
  158.9590  212.5210  152.7690 C   0  0  0  0  0  3  0  0  0  0  0  0
  157.2820  214.4530  153.0130 C   0  0  0  0  0  2  0  0  0  0  0  0
  156.6890  213.8170  151.7600 C   0  0  0  0  0  2  0  0  0  0  0  0
  1 10  1  0  0  0  0
  2  6  1  0  0  0  0
  4  1  1  0  0  0  0
  4  3  1  0  0  0  0
  5  4  2  0  0  0  0
  6 10  2  0  0  0  0
  7  2  1  0  0  0  0
  7  1  2  0  0  0  0
  8  7  1  0  0  0  0
  9  8  2  0  0  0  0
  9  5  1  0  0  0  0
 11  9  1  0  0  0  0
 12 11  2  0  0  0  0
 12 23  1  0  0  0  0
 13 11  1  0  0  0  0
 14 20  1  1  0  0  0
 15 22  2  0  0  0  0
 15 19  1  0  0  0  0
 17 14  1  0  0  0  0
 17 18  1  0  0  0  0
 18 21  1  0  0  0  0
 19 17  2  0  0  0  0
 21 16  2  0  0  0  0
 21 13  1  0  0  0  0
 22 14  1  0  0  0  0
 25 26  1  0  0  0  0
 25 24  1  0  0  0  0
 26 23  1  0  0  0  0
 26 24  1  0  0  0  0
 27  2  1  0  0  0  0
 28 31  1  0  0  0  0
 29 28  1  0  0  0  0
 29 33  1  0  0  0  0
 31 27  1  0  0  0  0
 31 30  1  0  0  0  0
 32 30  1  0  0  0  0
 33 32  1  0  0  0  0
M  END
>  <MODEL>
5

>  <REMARK>
 VINA RESULT:      -7.6      2.657      8.828
  Name = 
  7 active torsions:
  status: ('A' for Active; 'I' for Inactive)
    1  A    between atoms: N_7  and  C_18
    2  A    between atoms: S_13  and  C_24
    3  A    between atoms: S_13  and  C_25
    4  A    between atoms: C_18  and  C_22
    5  A    between atoms: C_20  and  C_26
    6  A    between atoms: C_20  and  N_29
    7  A    between atoms: C_25  and  C_31
                            x       y       z     vdW  Elec       q    Type
                         _______ _______ _______ _____ _____    ______ ____

>  <TORSDO>
F 7

$$$$
=
 OpenBabel11072412263D

 33 37  0  0  1  0  0  0  0  0999 V2000
  161.2250  206.2040  152.3040 C   0  0  0  0  0  0  0  0  0  0  0  0
  161.2800  206.5580  150.1190 N   0  0  0  0  0  0  0  0  0  0  0  0
  161.2060  205.5980  154.6510 O   0  0  0  0  0  1  0  0  0  0  0  0
  161.0850  206.5480  153.6450 C   0  0  0  0  0  0  0  0  0  0  0  0
  160.8110  207.8920  153.9550 C   0  0  0  0  0  3  0  0  0  0  0  0
  161.5430  205.2490  150.3480 C   0  0  0  0  0  3  0  0  0  0  0  0
  161.0960  207.1340  151.3140 C   0  0  0  0  0  0  0  0  0  0  0  0
  160.8310  208.4750  151.5900 C   0  0  0  0  0  3  0  0  0  0  0  0
  160.6880  208.8730  152.9390 C   0  0  0  0  0  0  0  0  0  0  0  0
  161.5150  204.9830  151.7210 C   0  0  0  0  0  3  0  0  0  0  0  0
  160.4340  210.3140  153.2500 C   0  0  0  0  0  0  0  0  0  0  0  0
  161.2200  211.0910  154.0100 C   0  0  0  0  0  3  0  0  0  0  0  0
  159.0010  211.1260  152.5270 S   0  0  0  0  0  0  0  0  0  0  0  0
  161.5870  213.5800  149.1260 C   0  0  2  0  0  3  0  0  0  0  0  0
  163.0560  212.4580  147.8850 C   0  0  0  0  0  3  0  0  0  0  0  0
  160.0080  213.3620  151.5390 O   0  0  0  0  0  0  0  0  0  0  0  0
  161.5780  212.1170  149.4200 C   0  0  0  0  0  0  0  0  0  0  0  0
  160.7790  211.4570  150.4090 N   0  0  0  0  0  2  0  0  0  0  0  0
  162.4260  211.4750  148.6940 N   0  0  0  0  0  0  0  0  0  0  0  0
  160.2560  214.0040  148.5290 C   0  0  0  0  0  1  0  0  0  0  0  0
  159.9910  212.1100  151.4090 C   0  0  0  0  0  0  0  0  0  0  0  0
  162.6160  213.6540  148.1010 N   0  0  0  0  0  0  0  0  0  0  0  0
  162.4720  210.6690  154.7040 C   0  0  0  0  0  2  0  0  0  0  0  0
  162.7430  209.8880  156.8910 C   0  0  0  0  0  2  0  0  0  0  0  0
  161.3520  210.2860  156.7220 C   0  0  0  0  0  2  0  0  0  0  0  0
  162.4190  211.0790  156.0940 N   0  0  0  0  0  0  0  0  0  0  0  0
  161.2280  207.2120  148.8160 C   0  0  0  0  0  2  0  0  0  0  0  0
  162.6140  206.0410  147.1060 C   0  0  0  0  0  2  0  0  0  0  0  0
  162.6570  204.9370  146.0390 C   0  0  0  0  0  2  0  0  0  0  0  0
  160.1910  206.5760  146.6190 C   0  0  0  0  0  2  0  0  0  0  0  0
  161.2130  206.1810  147.6970 C   0  0  0  0  0  3  0  0  0  0  0  0
  160.5530  206.0690  145.2160 C   0  0  0  0  0  2  0  0  0  0  0  0
  161.3300  204.7580  145.2860 C   0  0  0  0  0  2  0  0  0  0  0  0
  1  4  1  0  0  0  0
  2  6  1  0  0  0  0
  2  7  1  0  0  0  0
  4  5  2  0  0  0  0
  4  3  1  0  0  0  0
  6 10  2  0  0  0  0
  7  8  1  0  0  0  0
  7  1  2  0  0  0  0
  8  9  2  0  0  0  0
  9 11  1  0  0  0  0
  9  5  1  0  0  0  0
 10  1  1  0  0  0  0
 11 12  2  0  0  0  0
 12 23  1  0  0  0  0
 13 11  1  0  0  0  0
 14 20  1  6  0  0  0
 14 17  1  0  0  0  0
 15 22  2  0  0  0  0
 15 19  1  0  0  0  0
 17 18  1  0  0  0  0
 18 21  1  0  0  0  0
 19 17  2  0  0  0  0
 21 16  2  0  0  0  0
 21 13  1  0  0  0  0
 22 14  1  0  0  0  0
 23 26  1  0  0  0  0
 25 24  1  0  0  0  0
 26 25  1  0  0  0  0
 26 24  1  0  0  0  0
 27  2  1  0  0  0  0
 28 31  1  0  0  0  0
 29 28  1  0  0  0  0
 30 31  1  0  0  0  0
 31 27  1  0  0  0  0
 32 33  1  0  0  0  0
 32 30  1  0  0  0  0
 33 29  1  0  0  0  0
M  END
>  <MODEL>
6

>  <REMARK>
 VINA RESULT:      -7.3      2.482      4.768
  Name = 
  7 active torsions:
  status: ('A' for Active; 'I' for Inactive)
    1  A    between atoms: N_7  and  C_18
    2  A    between atoms: S_13  and  C_24
    3  A    between atoms: S_13  and  C_25
    4  A    between atoms: C_18  and  C_22
    5  A    between atoms: C_20  and  C_26
    6  A    between atoms: C_20  and  N_29
    7  A    between atoms: C_25  and  C_31
                            x       y       z     vdW  Elec       q    Type
                         _______ _______ _______ _____ _____    ______ ____

>  <TORSDO>
F 7

$$$$
=
 OpenBabel11072412263D

 33 37  0  0  1  0  0  0  0  0999 V2000
  161.7000  207.9940  149.3690 C   0  0  0  0  0  0  0  0  0  0  0  0
  161.1310  205.9140  149.8710 N   0  0  0  0  0  0  0  0  0  0  0  0
  162.3540  210.2000  148.6060 O   0  0  0  0  0  1  0  0  0  0  0  0
  161.9470  209.3410  149.6190 C   0  0  0  0  0  0  0  0  0  0  0  0
  161.7750  209.8090  150.9330 C   0  0  0  0  0  3  0  0  0  0  0  0
  161.3970  205.9770  148.5450 C   0  0  0  0  0  3  0  0  0  0  0  0
  161.3090  207.1470  150.3640 C   0  0  0  0  0  0  0  0  0  0  0  0
  161.1240  207.5830  151.6760 C   0  0  0  0  0  3  0  0  0  0  0  0
  161.3560  208.9440  151.9760 C   0  0  0  0  0  0  0  0  0  0  0  0
  161.7630  207.2790  148.1860 C   0  0  0  0  0  3  0  0  0  0  0  0
  161.1330  209.4310  153.3720 C   0  0  0  0  0  0  0  0  0  0  0  0
  160.9160  208.6470  154.4390 C   0  0  0  0  0  3  0  0  0  0  0  0
  161.2060  211.1970  153.7060 S   0  0  0  0  0  0  0  0  0  0  0  0
  156.5190  211.8300  155.0860 C   0  0  2  0  0  3  0  0  0  0  0  0
  156.0480  211.9180  157.2610 C   0  0  0  0  0  3  0  0  0  0  0  0
  158.6070  211.0640  153.2380 O   0  0  0  0  0  0  0  0  0  0  0  0
  157.7430  211.7590  155.9360 C   0  0  0  0  0  0  0  0  0  0  0  0
  159.0890  211.6000  155.4700 N   0  0  0  0  0  2  0  0  0  0  0  0
  157.4620  211.8160  157.1910 N   0  0  0  0  0  0  0  0  0  0  0  0
  156.5260  213.1050  154.2590 C   0  0  0  0  0  1  0  0  0  0  0  0
  159.4700  211.2960  154.1250 C   0  0  0  0  0  0  0  0  0  0  0  0
  155.4800  211.9240  156.0990 N   0  0  0  0  0  0  0  0  0  0  0  0
  160.8310  207.1570  154.4370 C   0  0  0  0  0  2  0  0  0  0  0  0
  159.3310  206.9540  156.2190 C   0  0  0  0  0  2  0  0  0  0  0  0
  160.4050  207.8480  156.6310 C   0  0  0  0  0  2  0  0  0  0  0  0
  160.7110  206.6750  155.7990 N   0  0  0  0  0  0  0  0  0  0  0  0
  160.7120  204.7280  150.6110 C   0  0  0  0  0  2  0  0  0  0  0  0
  160.6390  203.3820  148.5140 C   0  0  0  0  0  2  0  0  0  0  0  0
  161.2000  202.1670  147.7590 C   0  0  0  0  0  2  0  0  0  0  0  0
  160.8310  202.2250  150.7540 C   0  0  0  0  0  2  0  0  0  0  0  0
  161.2100  203.4640  149.9280 C   0  0  0  0  0  3  0  0  0  0  0  0
  160.6430  200.9580  149.9070 C   0  0  0  0  0  2  0  0  0  0  0  0
  161.5400  200.9810  148.6730 C   0  0  0  0  0  2  0  0  0  0  0  0
  1  4  2  0  0  0  0
  1  7  1  0  0  0  0
  2  7  1  0  0  0  0
  2 27  1  0  0  0  0
  3  4  1  0  0  0  0
  4  5  1  0  0  0  0
  5  9  2  0  0  0  0
  6  2  1  0  0  0  0
  7  8  2  0  0  0  0
  8  9  1  0  0  0  0
  9 11  1  0  0  0  0
 10  6  2  0  0  0  0
 10  1  1  0  0  0  0
 11 13  1  0  0  0  0
 11 12  2  0  0  0  0
 13 21  1  0  0  0  0
 14 20  1  6  0  0  0
 14 17  1  0  0  0  0
 14 22  1  0  0  0  0
 16 21  2  0  0  0  0
 17 19  2  0  0  0  0
 18 17  1  0  0  0  0
 19 15  1  0  0  0  0
 21 18  1  0  0  0  0
 22 15  2  0  0  0  0
 23 12  1  0  0  0  0
 23 26  1  0  0  0  0
 24 25  1  0  0  0  0
 26 24  1  0  0  0  0
 26 25  1  0  0  0  0
 28 31  1  0  0  0  0
 29 28  1  0  0  0  0
 29 33  1  0  0  0  0
 31 27  1  0  0  0  0
 31 30  1  0  0  0  0
 32 30  1  0  0  0  0
 33 32  1  0  0  0  0
M  END
>  <MODEL>
7

>  <REMARK>
 VINA RESULT:      -7.3      2.360      4.285
  Name = 
  7 active torsions:
  status: ('A' for Active; 'I' for Inactive)
    1  A    between atoms: N_7  and  C_18
    2  A    between atoms: S_13  and  C_24
    3  A    between atoms: S_13  and  C_25
    4  A    between atoms: C_18  and  C_22
    5  A    between atoms: C_20  and  C_26
    6  A    between atoms: C_20  and  N_29
    7  A    between atoms: C_25  and  C_31
                            x       y       z     vdW  Elec       q    Type
                         _______ _______ _______ _____ _____    ______ ____

>  <TORSDO>
F 7

$$$$
=
 OpenBabel11072412263D

 33 37  0  0  1  0  0  0  0  0999 V2000
  160.7710  208.4840  154.8700 C   0  0  0  0  0  0  0  0  0  0  0  0
  160.8480  210.1990  153.4710 N   0  0  0  0  0  0  0  0  0  0  0  0
  160.6740  206.7590  156.5700 O   0  0  0  0  0  1  0  0  0  0  0  0
  160.7650  207.1420  155.2390 C   0  0  0  0  0  0  0  0  0  0  0  0
  160.8580  206.1790  154.2190 C   0  0  0  0  0  3  0  0  0  0  0  0
  160.7200  210.6790  154.7310 C   0  0  0  0  0  3  0  0  0  0  0  0
  160.8710  208.8630  153.5630 C   0  0  0  0  0  0  0  0  0  0  0  0
  160.9580  207.9310  152.5290 C   0  0  0  0  0  3  0  0  0  0  0  0
  160.9480  206.5560  152.8540 C   0  0  0  0  0  0  0  0  0  0  0  0
  160.6690  209.6240  155.6490 C   0  0  0  0  0  3  0  0  0  0  0  0
  161.0110  205.5460  151.7530 C   0  0  0  0  0  0  0  0  0  0  0  0
  160.9730  205.8290  150.4420 C   0  0  0  0  0  3  0  0  0  0  0  0
  161.2070  203.8080  152.1690 S   0  0  0  0  0  0  0  0  0  0  0  0
  160.6240  202.2670  147.5260 C   0  0  2  0  0  3  0  0  0  0  0  0
  161.5810  203.4290  145.8860 C   0  0  0  0  0  3  0  0  0  0  0  0
  159.9000  202.4430  150.3190 O   0  0  0  0  0  0  0  0  0  0  0  0
  161.4430  203.4030  148.0380 C   0  0  0  0  0  0  0  0  0  0  0  0
  161.5950  203.7860  149.4110 N   0  0  0  0  0  2  0  0  0  0  0  0
  161.9970  204.0670  147.0840 N   0  0  0  0  0  0  0  0  0  0  0  0
  161.2260  200.9430  147.9690 C   0  0  0  0  0  1  0  0  0  0  0  0
  160.8390  203.2590  150.5060 C   0  0  0  0  0  0  0  0  0  0  0  0
  160.8040  202.4160  146.0910 N   0  0  0  0  0  0  0  0  0  0  0  0
  160.8380  207.1850  149.8350 C   0  0  0  0  0  2  0  0  0  0  0  0
  161.9560  208.8480  148.6290 C   0  0  0  0  0  2  0  0  0  0  0  0
  162.3840  207.5520  148.1190 C   0  0  0  0  0  2  0  0  0  0  0  0
  162.1540  207.7280  149.5600 N   0  0  0  0  0  0  0  0  0  0  0  0
  160.9270  210.9920  152.2500 C   0  0  0  0  0  2  0  0  0  0  0  0
  158.6210  211.8110  152.7230 C   0  0  0  0  0  2  0  0  0  0  0  0
  157.7220  213.0390  152.9310 C   0  0  0  0  0  2  0  0  0  0  0  0
  160.0660  213.0120  151.0310 C   0  0  0  0  0  2  0  0  0  0  0  0
  160.0420  212.2250  152.3520 C   0  0  0  0  0  3  0  0  0  0  0  0
  158.7750  213.8000  150.7640 C   0  0  0  0  0  2  0  0  0  0  0  0
  158.1220  214.2460  152.0690 C   0  0  0  0  0  2  0  0  0  0  0  0
  1  4  1  0  0  0  0
  1 10  1  0  0  0  0
  2  7  1  0  0  0  0
  2  6  1  0  0  0  0
  4  3  1  0  0  0  0
  5  4  2  0  0  0  0
  6 10  2  0  0  0  0
  7  1  2  0  0  0  0
  8  9  2  0  0  0  0
  8  7  1  0  0  0  0
  9  5  1  0  0  0  0
 11 13  1  0  0  0  0
 11  9  1  0  0  0  0
 12 11  2  0  0  0  0
 14 20  1  1  0  0  0
 14 17  1  0  0  0  0
 15 22  2  0  0  0  0
 15 19  1  0  0  0  0
 16 21  2  0  0  0  0
 17 18  1  0  0  0  0
 18 21  1  0  0  0  0
 19 17  2  0  0  0  0
 21 13  1  0  0  0  0
 22 14  1  0  0  0  0
 23 12  1  0  0  0  0
 24 26  1  0  0  0  0
 25 24  1  0  0  0  0
 25 26  1  0  0  0  0
 26 23  1  0  0  0  0
 27 31  1  0  0  0  0
 27  2  1  0  0  0  0
 28 29  1  0  0  0  0
 30 31  1  0  0  0  0
 31 28  1  0  0  0  0
 32 30  1  0  0  0  0
 32 33  1  0  0  0  0
 33 29  1  0  0  0  0
M  END
>  <MODEL>
8

>  <REMARK>
 VINA RESULT:      -7.2      2.882      8.485
  Name = 
  7 active torsions:
  status: ('A' for Active; 'I' for Inactive)
    1  A    between atoms: N_7  and  C_18
    2  A    between atoms: S_13  and  C_24
    3  A    between atoms: S_13  and  C_25
    4  A    between atoms: C_18  and  C_22
    5  A    between atoms: C_20  and  C_26
    6  A    between atoms: C_20  and  N_29
    7  A    between atoms: C_25  and  C_31
                            x       y       z     vdW  Elec       q    Type
                         _______ _______ _______ _____ _____    ______ ____

>  <TORSDO>
F 7

$$$$
=
 OpenBabel11072412263D

 33 37  0  0  1  0  0  0  0  0999 V2000
  162.0460  209.2120  149.5470 C   0  0  0  0  0  0  0  0  0  0  0  0
  161.6280  207.2910  150.5660 N   0  0  0  0  0  0  0  0  0  0  0  0
  162.5890  211.1930  148.2610 O   0  0  0  0  0  1  0  0  0  0  0  0
  162.0730  210.5970  149.4040 C   0  0  0  0  0  0  0  0  0  0  0  0
  161.5630  211.3780  150.4550 C   0  0  0  0  0  3  0  0  0  0  0  0
  162.1690  207.0240  149.3540 C   0  0  0  0  0  3  0  0  0  0  0  0
  161.5480  208.6240  150.6730 C   0  0  0  0  0  0  0  0  0  0  0  0
  161.0300  209.3720  151.7300 C   0  0  0  0  0  3  0  0  0  0  0  0
  161.0300  210.7810  151.6260 C   0  0  0  0  0  0  0  0  0  0  0  0
  162.4510  208.2160  148.6760 C   0  0  0  0  0  3  0  0  0  0  0  0
  160.4510  211.5940  152.7390 C   0  0  0  0  0  0  0  0  0  0  0  0
  160.6920  211.4010  154.0450 C   0  0  0  0  0  3  0  0  0  0  0  0
  159.3820  212.9860  152.3430 S   0  0  0  0  0  0  0  0  0  0  0  0
  156.8880  212.1650  156.5120 C   0  0  2  0  0  3  0  0  0  0  0  0
  155.1160  210.8180  156.4510 C   0  0  0  0  0  3  0  0  0  0  0  0
  158.6700  213.6630  154.7980 O   0  0  0  0  0  0  0  0  0  0  0  0
  156.6780  211.5650  155.1630 C   0  0  0  0  0  0  0  0  0  0  0  0
  157.4580  211.8250  153.9900 N   0  0  0  0  0  2  0  0  0  0  0  0
  155.6550  210.7830  155.1370 N   0  0  0  0  0  0  0  0  0  0  0  0
  158.1960  211.6710  157.1090 C   0  0  0  0  0  1  0  0  0  0  0  0
  158.4560  212.8440  153.8670 C   0  0  0  0  0  0  0  0  0  0  0  0
  155.7780  211.5870  157.2530 N   0  0  0  0  0  0  0  0  0  0  0  0
  161.5550  210.3360  154.6340 C   0  0  0  0  0  2  0  0  0  0  0  0
  161.8050  208.8390  156.4140 C   0  0  0  0  0  2  0  0  0  0  0  0
  160.9980  208.1930  155.3880 C   0  0  0  0  0  2  0  0  0  0  0  0
  160.8180  209.6260  155.6610 N   0  0  0  0  0  0  0  0  0  0  0  0
  161.1980  206.3080  151.5540 C   0  0  0  0  0  2  0  0  0  0  0  0
  160.4830  204.6020  149.8830 C   0  0  0  0  0  2  0  0  0  0  0  0
  160.7590  203.2170  149.2760 C   0  0  0  0  0  2  0  0  0  0  0  0
  161.2510  203.8770  152.1800 C   0  0  0  0  0  2  0  0  0  0  0  0
  161.4320  204.8940  151.0420 C   0  0  0  0  0  3  0  0  0  0  0  0
  160.7810  202.4960  151.6980 C   0  0  0  0  0  2  0  0  0  0  0  0
  161.2950  202.1980  150.2930 C   0  0  0  0  0  2  0  0  0  0  0  0
  1  7  1  0  0  0  0
  2  7  1  0  0  0  0
  2 27  1  0  0  0  0
  3  4  1  0  0  0  0
  4  1  2  0  0  0  0
  4  5  1  0  0  0  0
  5  9  2  0  0  0  0
  6  2  1  0  0  0  0
  7  8  2  0  0  0  0
  9  8  1  0  0  0  0
  9 11  1  0  0  0  0
 10  6  2  0  0  0  0
 10  1  1  0  0  0  0
 11 12  2  0  0  0  0
 12 23  1  0  0  0  0
 13 11  1  0  0  0  0
 13 21  1  0  0  0  0
 14 20  1  1  0  0  0
 14 22  1  0  0  0  0
 15 22  2  0  0  0  0
 17 14  1  0  0  0  0
 18 17  1  0  0  0  0
 19 17  2  0  0  0  0
 19 15  1  0  0  0  0
 21 18  1  0  0  0  0
 21 16  2  0  0  0  0
 23 26  1  0  0  0  0
 25 26  1  0  0  0  0
 25 24  1  0  0  0  0
 26 24  1  0  0  0  0
 28 31  1  0  0  0  0
 29 28  1  0  0  0  0
 29 33  1  0  0  0  0
 31 27  1  0  0  0  0
 31 30  1  0  0  0  0
 32 30  1  0  0  0  0
 33 32  1  0  0  0  0
M  END
>  <MODEL>
9

>  <REMARK>
 VINA RESULT:      -7.2      2.857      4.635
  Name = 
  7 active torsions:
  status: ('A' for Active; 'I' for Inactive)
    1  A    between atoms: N_7  and  C_18
    2  A    between atoms: S_13  and  C_24
    3  A    between atoms: S_13  and  C_25
    4  A    between atoms: C_18  and  C_22
    5  A    between atoms: C_20  and  C_26
    6  A    between atoms: C_20  and  N_29
    7  A    between atoms: C_25  and  C_31
                            x       y       z     vdW  Elec       q    Type
                         _______ _______ _______ _____ _____    ______ ____

>  <TORSDO>
F 7

$$$$
