=
 OpenBabel11072410303D

 32 34  0  0  1  0  0  0  0  0999 V2000
  161.2220  206.6230  151.6460 C   0  0  2  0  0  3  0  0  0  0  0  0
  162.2460  208.8050  151.4660 O   0  0  0  0  0  1  0  0  0  0  0  0
  161.0210  208.1380  151.5280 C   0  0  0  0  0  2  0  0  0  0  0  0
  161.6150  206.1410  153.0480 C   0  0  0  0  0  2  0  0  0  0  0  0
  160.7150  206.7510  154.1090 C   0  0  0  0  0  2  0  0  0  0  0  0
  161.4740  207.6860  154.9250 N   0  0  0  0  0  2  0  0  0  0  0  0
  160.2780  207.3740  157.2570 S   0  0  0  0  0  0  0  0  0  0  0  0
  160.9230  208.3160  156.0830 C   0  0  0  0  0  0  0  0  0  0  0  0
  160.1870  211.4300  154.3600 C   0  0  1  0  0  3  0  0  0  0  0  0
  159.4690  210.2830  156.2140 N   0  0  0  0  0  2  0  0  0  0  0  0
  160.8510  209.8150  156.1710 C   0  0  2  0  0  3  0  0  0  0  0  0
  159.0950  210.6470  154.9110 N   0  0  0  0  0  2  0  0  0  0  0  0
  161.7280  210.6040  154.7940 S   0  0  0  0  0  0  0  0  0  0  0  0
  160.0650  211.5110  152.8470 C   0  0  0  0  0  2  0  0  0  0  0  0
  158.8640  213.6700  153.3670 N   0  0  0  0  0  1  0  0  0  0  0  0
  159.7800  213.2960  151.2060 C   0  0  0  0  0  2  0  0  0  0  0  0
  159.5300  212.8380  152.4240 C   0  0  0  0  0  0  0  0  0  0  0  0
  161.9910  206.0660  150.5950 O   0  0  0  0  0  0  0  0  0  0  0  0
  160.9800  202.4130  146.5500 C   0  0  0  0  0  3  0  0  0  0  0  0
  161.1450  205.3900  149.6940 C   0  0  1  0  0  3  0  0  0  0  0  0
  161.4570  205.7810  148.2550 C   0  0  0  0  0  0  0  0  0  0  0  0
  161.2560  203.9830  149.9180 O   0  0  0  0  0  0  0  0  0  0  0  0
  161.3480  200.6470  148.2260 C   0  0  0  0  0  2  0  0  0  0  0  0
  161.4210  204.8390  147.2750 C   0  0  0  0  0  0  0  0  0  0  0  0
  160.7820  201.6130  149.2700 C   0  0  0  0  0  2  0  0  0  0  0  0
  161.1420  203.4260  147.6190 C   0  0  0  0  0  0  0  0  0  0  0  0
  161.0290  201.1090  146.8320 C   0  0  0  0  0  3  0  0  0  0  0  0
  161.0770  203.0440  148.9050 C   0  0  0  0  0  0  0  0  0  0  0  0
  160.6930  205.7090  145.0230 N   0  0  0  0  0  1  0  0  0  0  0  0
  161.6410  205.1360  145.8810 N   0  0  0  0  0  2  0  0  0  0  0  0
  162.7010  207.8290  148.1730 O   0  0  0  0  0  0  0  0  0  0  0  0
  161.6330  207.2100  147.9290 C   0  0  0  0  0  3  0  0  0  0  0  0
  1  3  1  1  0  0  0
  1  4  1  0  0  0  0
  2  3  1  0  0  0  0
  4  5  1  0  0  0  0
  5  6  1  0  0  0  0
  6  8  1  0  0  0  0
  8  7  2  0  0  0  0
  9 14  1  6  0  0  0
  9 13  1  0  0  0  0
  9 12  1  0  0  0  0
 11  8  1  6  0  0  0
 11 10  1  0  0  0  0
 12 10  1  0  0  0  0
 13 11  1  0  0  0  0
 16 17  2  0  0  0  0
 17 14  1  0  0  0  0
 17 15  1  0  0  0  0
 18  1  1  0  0  0  0
 19 27  2  0  0  0  0
 19 26  1  0  0  0  0
 20 22  1  0  0  0  0
 20 18  1  1  0  0  0
 21 20  1  0  0  0  0
 23 25  1  0  0  0  0
 24 26  1  0  0  0  0
 24 21  2  0  0  0  0
 26 28  2  0  0  0  0
 27 23  1  0  0  0  0
 28 25  1  0  0  0  0
 28 22  1  0  0  0  0
 29 30  1  0  0  0  0
 30 24  1  0  0  0  0
 32 31  2  0  0  0  0
 32 21  1  0  0  0  0
M  END
>  <MODEL>
1

>  <REMARK>
 VINA RESULT:      -7.7      0.000      0.000
  Name = 
  12 active torsions:
  status: ('A' for Active; 'I' for Inactive)
    1  A    between atoms: C_3  and  O_18
    2  A    between atoms: C_4  and  C_31
    3  A    between atoms: N_6  and  C_21
    4  A    between atoms: N_6  and  C_23
    5  A    between atoms: N_7  and  C_20
    6  A    between atoms: C_8  and  C_10
    7  A    between atoms: C_10  and  C_25
    8  A    between atoms: C_14  and  C_21
    9  A    between atoms: C_14  and  C_28
   10  A    between atoms: C_17  and  C_23
   11  A    between atoms: O_18  and  C_28
   12  A    between atoms: C_19  and  C_28
                            x       y       z     vdW  Elec       q    Type
                         _______ _______ _______ _____ _____    ______ ____

>  <TORSDO>
F 12

$$$$
=
 OpenBabel11072410303D

 32 34  0  0  1  0  0  0  0  0999 V2000
  161.8350  208.2930  149.1460 C   0  0  2  0  0  3  0  0  0  0  0  0
  162.1330  210.6690  149.4720 O   0  0  0  0  0  1  0  0  0  0  0  0
  162.0000  209.6740  148.5010 C   0  0  0  0  0  2  0  0  0  0  0  0
  162.2370  208.2290  150.6250 C   0  0  0  0  0  2  0  0  0  0  0  0
  161.0140  208.2020  151.5240 C   0  0  0  0  0  2  0  0  0  0  0  0
  161.3040  208.8800  152.7770 N   0  0  0  0  0  2  0  0  0  0  0  0
  160.9560  206.6090  154.0760 S   0  0  0  0  0  0  0  0  0  0  0  0
  161.2030  208.2280  154.0440 C   0  0  0  0  0  0  0  0  0  0  0  0
  160.0290  211.1930  155.7870 C   0  0  1  0  0  3  0  0  0  0  0  0
  159.9620  208.9130  156.0420 N   0  0  0  0  0  2  0  0  0  0  0  0
  161.2220  209.0290  155.3160 C   0  0  2  0  0  3  0  0  0  0  0  0
  159.1690  210.0240  155.7140 N   0  0  0  0  0  2  0  0  0  0  0  0
  161.5920  210.7750  154.9940 S   0  0  0  0  0  0  0  0  0  0  0  0
  159.3880  212.3630  155.0570 C   0  0  0  0  0  2  0  0  0  0  0  0
  156.9710  211.9680  154.4420 N   0  0  0  0  0  1  0  0  0  0  0  0
  158.6990  211.5120  152.8750 C   0  0  0  0  0  2  0  0  0  0  0  0
  158.3490  211.8900  154.0960 C   0  0  0  0  0  0  0  0  0  0  0  0
  162.3330  207.2300  148.3530 O   0  0  0  0  0  0  0  0  0  0  0  0
  160.8260  201.9100  148.7450 C   0  0  0  0  0  3  0  0  0  0  0  0
  161.3910  206.1840  148.3140 C   0  0  1  0  0  3  0  0  0  0  0  0
  161.6540  205.2560  147.1350 C   0  0  0  0  0  0  0  0  0  0  0  0
  161.4030  205.4980  149.5670 O   0  0  0  0  0  0  0  0  0  0  0  0
  161.1450  202.1300  151.1770 C   0  0  0  0  0  2  0  0  0  0  0  0
  161.4920  203.9140  147.2810 C   0  0  0  0  0  0  0  0  0  0  0  0
  160.7120  203.5920  151.0330 C   0  0  0  0  0  2  0  0  0  0  0  0
  161.1240  203.3540  148.6010 C   0  0  0  0  0  0  0  0  0  0  0  0
  160.7880  201.3380  149.9510 C   0  0  0  0  0  3  0  0  0  0  0  0
  161.0980  204.1440  149.6870 C   0  0  0  0  0  0  0  0  0  0  0  0
  160.6680  202.6320  145.2710 N   0  0  0  0  0  1  0  0  0  0  0  0
  161.6600  202.9730  146.2010 N   0  0  0  0  0  2  0  0  0  0  0  0
  161.0140  206.0430  144.9620 O   0  0  0  0  0  0  0  0  0  0  0  0
  161.9230  205.8490  145.8100 C   0  0  0  0  0  3  0  0  0  0  0  0
  1  3  1  6  0  0  0
  1  4  1  0  0  0  0
  3  2  1  0  0  0  0
  4  5  1  0  0  0  0
  5  6  1  0  0  0  0
  6  8  1  0  0  0  0
  8  7  2  0  0  0  0
  9 14  1  6  0  0  0
 11  8  1  6  0  0  0
 11 10  1  0  0  0  0
 12  9  1  0  0  0  0
 12 10  1  0  0  0  0
 13 11  1  0  0  0  0
 13  9  1  0  0  0  0
 16 17  2  0  0  0  0
 17 15  1  0  0  0  0
 17 14  1  0  0  0  0
 18  1  1  0  0  0  0
 19 27  2  0  0  0  0
 20 18  1  1  0  0  0
 20 22  1  0  0  0  0
 21 24  2  0  0  0  0
 21 20  1  0  0  0  0
 22 28  1  0  0  0  0
 24 26  1  0  0  0  0
 25 23  1  0  0  0  0
 26 19  1  0  0  0  0
 26 28  2  0  0  0  0
 27 23  1  0  0  0  0
 28 25  1  0  0  0  0
 29 30  1  0  0  0  0
 30 24  1  0  0  0  0
 31 32  2  0  0  0  0
 32 21  1  0  0  0  0
M  END
>  <MODEL>
2

>  <REMARK>
 VINA RESULT:      -7.6      1.816      2.436
  Name = 
  12 active torsions:
  status: ('A' for Active; 'I' for Inactive)
    1  A    between atoms: C_3  and  O_18
    2  A    between atoms: C_4  and  C_31
    3  A    between atoms: N_6  and  C_21
    4  A    between atoms: N_6  and  C_23
    5  A    between atoms: N_7  and  C_20
    6  A    between atoms: C_8  and  C_10
    7  A    between atoms: C_10  and  C_25
    8  A    between atoms: C_14  and  C_21
    9  A    between atoms: C_14  and  C_28
   10  A    between atoms: C_17  and  C_23
   11  A    between atoms: O_18  and  C_28
   12  A    between atoms: C_19  and  C_28
                            x       y       z     vdW  Elec       q    Type
                         _______ _______ _______ _____ _____    ______ ____

>  <TORSDO>
F 12

$$$$
=
 OpenBabel11072410303D

 32 34  0  0  1  0  0  0  0  0999 V2000
  161.4720  206.9900  151.6060 C   0  0  2  0  0  3  0  0  0  0  0  0
  161.9810  208.9160  150.2380 O   0  0  0  0  0  1  0  0  0  0  0  0
  162.5400  207.7980  150.8600 C   0  0  0  0  0  2  0  0  0  0  0  0
  161.9920  206.2260  152.8310 C   0  0  0  0  0  2  0  0  0  0  0  0
  161.0490  206.3770  154.0110 C   0  0  0  0  0  2  0  0  0  0  0  0
  160.5580  207.7440  154.0830 N   0  0  0  0  0  2  0  0  0  0  0  0
  161.5680  208.4580  156.4140 S   0  0  0  0  0  0  0  0  0  0  0  0
  161.2180  208.7580  154.8420 C   0  0  0  0  0  0  0  0  0  0  0  0
  159.8680  211.9960  153.8930 C   0  0  1  0  0  3  0  0  0  0  0  0
  161.5180  211.1550  155.2490 N   0  0  0  0  0  2  0  0  0  0  0  0
  161.4920  210.1060  154.2350 C   0  0  2  0  0  3  0  0  0  0  0  0
  160.2520  211.7630  155.2740 N   0  0  0  0  0  2  0  0  0  0  0  0
  160.2780  210.5150  152.9520 S   0  0  0  0  0  0  0  0  0  0  0  0
  158.3730  212.2560  153.8000 C   0  0  0  0  0  2  0  0  0  0  0  0
  159.1130  213.9820  152.1130 N   0  0  0  0  0  1  0  0  0  0  0  0
  156.8530  213.9120  152.8470 C   0  0  0  0  0  2  0  0  0  0  0  0
  158.0880  213.4400  152.9390 C   0  0  0  0  0  0  0  0  0  0  0  0
  160.6290  206.2340  150.7550 O   0  0  0  0  0  0  0  0  0  0  0  0
  161.4080  203.1810  146.1950 C   0  0  0  0  0  3  0  0  0  0  0  0
  161.4110  205.4460  149.8880 C   0  0  1  0  0  3  0  0  0  0  0  0
  160.9280  204.0020  149.8790 C   0  0  0  0  0  0  0  0  0  0  0  0
  161.4030  206.0370  148.5870 O   0  0  0  0  0  0  0  0  0  0  0  0
  161.3170  205.2870  144.9220 C   0  0  0  0  0  2  0  0  0  0  0  0
  160.9130  203.3000  148.7140 C   0  0  0  0  0  0  0  0  0  0  0  0
  161.9360  205.9730  146.1430 C   0  0  0  0  0  2  0  0  0  0  0  0
  161.3040  203.9640  147.4480 C   0  0  0  0  0  0  0  0  0  0  0  0
  161.4620  203.7940  145.0100 C   0  0  0  0  0  3  0  0  0  0  0  0
  161.5250  205.2880  147.4200 C   0  0  0  0  0  0  0  0  0  0  0  0
  161.4000  200.8280  148.8060 N   0  0  0  0  0  1  0  0  0  0  0  0
  160.5310  201.9130  148.6280 N   0  0  0  0  0  2  0  0  0  0  0  0
  161.5460  202.8510  151.8900 O   0  0  0  0  0  0  0  0  0  0  0  0
  160.6400  203.3410  151.1670 C   0  0  0  0  0  3  0  0  0  0  0  0
  1  3  1  6  0  0  0
  1  4  1  0  0  0  0
  2  3  1  0  0  0  0
  4  5  1  0  0  0  0
  5  6  1  0  0  0  0
  6  8  1  0  0  0  0
  8  7  2  0  0  0  0
  9 14  1  1  0  0  0
  9 12  1  0  0  0  0
 10 12  1  0  0  0  0
 11  8  1  1  0  0  0
 11 10  1  0  0  0  0
 13  9  1  0  0  0  0
 13 11  1  0  0  0  0
 15 17  1  0  0  0  0
 16 17  2  0  0  0  0
 17 14  1  0  0  0  0
 18  1  1  0  0  0  0
 19 26  1  0  0  0  0
 20 18  1  1  0  0  0
 21 20  1  0  0  0  0
 21 32  1  0  0  0  0
 22 20  1  0  0  0  0
 23 27  1  0  0  0  0
 23 25  1  0  0  0  0
 24 21  2  0  0  0  0
 25 28  1  0  0  0  0
 26 24  1  0  0  0  0
 27 19  2  0  0  0  0
 28 26  2  0  0  0  0
 28 22  1  0  0  0  0
 30 24  1  0  0  0  0
 30 29  1  0  0  0  0
 32 31  2  0  0  0  0
M  END
>  <MODEL>
3

>  <REMARK>
 VINA RESULT:      -7.4      1.990      2.939
  Name = 
  12 active torsions:
  status: ('A' for Active; 'I' for Inactive)
    1  A    between atoms: C_3  and  O_18
    2  A    between atoms: C_4  and  C_31
    3  A    between atoms: N_6  and  C_21
    4  A    between atoms: N_6  and  C_23
    5  A    between atoms: N_7  and  C_20
    6  A    between atoms: C_8  and  C_10
    7  A    between atoms: C_10  and  C_25
    8  A    between atoms: C_14  and  C_21
    9  A    between atoms: C_14  and  C_28
   10  A    between atoms: C_17  and  C_23
   11  A    between atoms: O_18  and  C_28
   12  A    between atoms: C_19  and  C_28
                            x       y       z     vdW  Elec       q    Type
                         _______ _______ _______ _____ _____    ______ ____

>  <TORSDO>
F 12

$$$$
=
 OpenBabel11072410303D

 32 34  0  0  1  0  0  0  0  0999 V2000
  161.7650  207.3520  152.4650 C   0  0  2  0  0  3  0  0  0  0  0  0
  160.4840  207.0370  154.4900 O   0  0  0  0  0  1  0  0  0  0  0  0
  161.3400  206.4000  153.5890 C   0  0  0  0  0  2  0  0  0  0  0  0
  160.7190  208.4130  152.1010 C   0  0  0  0  0  2  0  0  0  0  0  0
  161.3750  209.7530  151.8180 C   0  0  0  0  0  2  0  0  0  0  0  0
  161.6590  210.4400  153.0680 N   0  0  0  0  0  2  0  0  0  0  0  0
  159.8030  212.2900  152.7540 S   0  0  0  0  0  0  0  0  0  0  0  0
  160.7170  211.3120  153.6970 C   0  0  0  0  0  0  0  0  0  0  0  0
  158.6040  211.8020  156.6120 C   0  0  1  0  0  3  0  0  0  0  0  0
  160.0240  210.2070  155.7700 N   0  0  0  0  0  2  0  0  0  0  0  0
  160.6430  211.3970  155.1960 C   0  0  2  0  0  3  0  0  0  0  0  0
  158.6670  210.4900  155.9920 N   0  0  0  0  0  2  0  0  0  0  0  0
  159.7480  212.8810  155.7320 S   0  0  0  0  0  0  0  0  0  0  0  0
  157.1960  212.3660  156.5080 C   0  0  0  0  0  2  0  0  0  0  0  0
  155.7920  210.6250  155.3370 N   0  0  0  0  0  1  0  0  0  0  0  0
  156.4480  212.6050  154.1970 C   0  0  0  0  0  2  0  0  0  0  0  0
  156.5040  211.8560  155.2890 C   0  0  0  0  0  0  0  0  0  0  0  0
  162.3510  206.6970  151.3540 O   0  0  0  0  0  0  0  0  0  0  0  0
  160.6980  202.6330  147.9670 C   0  0  0  0  0  3  0  0  0  0  0  0
  161.3720  205.9520  150.6700 C   0  0  1  0  0  3  0  0  0  0  0  0
  161.4820  206.1580  149.1650 C   0  0  0  0  0  0  0  0  0  0  0  0
  161.4850  204.5780  151.0460 O   0  0  0  0  0  0  0  0  0  0  0  0
  161.2680  201.0640  149.7770 C   0  0  0  0  0  2  0  0  0  0  0  0
  161.2870  205.1090  148.3210 C   0  0  0  0  0  0  0  0  0  0  0  0
  160.8760  202.1670  150.7640 C   0  0  0  0  0  2  0  0  0  0  0  0
  161.0330  203.7580  148.8710 C   0  0  0  0  0  0  0  0  0  0  0  0
  160.7610  201.3710  148.3960 C   0  0  0  0  0  3  0  0  0  0  0  0
  161.1450  203.5330  150.1900 C   0  0  0  0  0  0  0  0  0  0  0  0
  162.4710  205.2370  146.0980 N   0  0  0  0  0  1  0  0  0  0  0  0
  161.3110  205.2320  146.8850 N   0  0  0  0  0  2  0  0  0  0  0  0
  162.7530  207.9930  148.2880 O   0  0  0  0  0  0  0  0  0  0  0  0
  161.6390  207.5310  148.6450 C   0  0  0  0  0  3  0  0  0  0  0  0
  1  4  1  6  0  0  0
  1  3  1  0  0  0  0
  3  2  1  0  0  0  0
  5  4  1  0  0  0  0
  5  6  1  0  0  0  0
  6  8  1  0  0  0  0
  7  8  2  0  0  0  0
  9 14  1  6  0  0  0
 10 12  1  0  0  0  0
 11  8  1  6  0  0  0
 11 13  1  0  0  0  0
 11 10  1  0  0  0  0
 12  9  1  0  0  0  0
 13  9  1  0  0  0  0
 16 17  2  0  0  0  0
 17 15  1  0  0  0  0
 17 14  1  0  0  0  0
 18  1  1  0  0  0  0
 19 27  2  0  0  0  0
 19 26  1  0  0  0  0
 20 22  1  0  0  0  0
 20 18  1  1  0  0  0
 21 20  1  0  0  0  0
 23 25  1  0  0  0  0
 24 26  1  0  0  0  0
 24 21  2  0  0  0  0
 26 28  2  0  0  0  0
 27 23  1  0  0  0  0
 28 25  1  0  0  0  0
 28 22  1  0  0  0  0
 29 30  1  0  0  0  0
 30 24  1  0  0  0  0
 31 32  2  0  0  0  0
 32 21  1  0  0  0  0
M  END
>  <MODEL>
4

>  <REMARK>
 VINA RESULT:      -7.2      2.018      2.790
  Name = 
  12 active torsions:
  status: ('A' for Active; 'I' for Inactive)
    1  A    between atoms: C_3  and  O_18
    2  A    between atoms: C_4  and  C_31
    3  A    between atoms: N_6  and  C_21
    4  A    between atoms: N_6  and  C_23
    5  A    between atoms: N_7  and  C_20
    6  A    between atoms: C_8  and  C_10
    7  A    between atoms: C_10  and  C_25
    8  A    between atoms: C_14  and  C_21
    9  A    between atoms: C_14  and  C_28
   10  A    between atoms: C_17  and  C_23
   11  A    between atoms: O_18  and  C_28
   12  A    between atoms: C_19  and  C_28
                            x       y       z     vdW  Elec       q    Type
                         _______ _______ _______ _____ _____    ______ ____

>  <TORSDO>
F 12

$$$$
=
 OpenBabel11072410303D

 32 34  0  0  1  0  0  0  0  0999 V2000
  161.4800  206.9610  151.5930 C   0  0  2  0  0  3  0  0  0  0  0  0
  161.1730  205.6270  153.5840 O   0  0  0  0  0  1  0  0  0  0  0  0
  162.0950  206.4080  152.8840 C   0  0  0  0  0  2  0  0  0  0  0  0
  160.8710  208.3620  151.7280 C   0  0  0  0  0  2  0  0  0  0  0  0
  161.5450  209.1470  152.8400 C   0  0  0  0  0  2  0  0  0  0  0  0
  160.5420  209.8180  153.6520 N   0  0  0  0  0  2  0  0  0  0  0  0
  161.3720  208.7140  155.9010 S   0  0  0  0  0  0  0  0  0  0  0  0
  160.6530  209.9300  155.0720 C   0  0  0  0  0  0  0  0  0  0  0  0
  157.9680  212.3780  155.1470 C   0  0  1  0  0  3  0  0  0  0  0  0
  158.8030  210.7050  156.4780 N   0  0  0  0  0  2  0  0  0  0  0  0
  160.0320  211.0930  155.7940 C   0  0  2  0  0  3  0  0  0  0  0  0
  157.7210  211.0370  155.6470 N   0  0  0  0  0  2  0  0  0  0  0  0
  159.7020  212.4750  154.6660 S   0  0  0  0  0  0  0  0  0  0  0  0
  157.0910  212.6580  153.9380 C   0  0  0  0  0  2  0  0  0  0  0  0
  154.8400  213.6890  153.4440 N   0  0  0  0  0  1  0  0  0  0  0  0
  156.0040  214.2480  155.4390 C   0  0  0  0  0  2  0  0  0  0  0  0
  155.9830  213.5950  154.2860 C   0  0  0  0  0  0  0  0  0  0  0  0
  160.6670  206.0290  150.9020 O   0  0  0  0  0  0  0  0  0  0  0  0
  161.5020  203.2680  146.1690 C   0  0  0  0  0  3  0  0  0  0  0  0
  161.4550  205.2840  150.0040 C   0  0  1  0  0  3  0  0  0  0  0  0
  160.9450  203.8540  149.8870 C   0  0  0  0  0  0  0  0  0  0  0  0
  161.4910  205.9600  148.7450 O   0  0  0  0  0  0  0  0  0  0  0  0
  161.4820  205.4550  145.0370 C   0  0  0  0  0  2  0  0  0  0  0  0
  160.9460  203.2310  148.6780 C   0  0  0  0  0  0  0  0  0  0  0  0
  162.0830  206.0450  146.3150 C   0  0  0  0  0  2  0  0  0  0  0  0
  161.3800  203.9680  147.4690 C   0  0  0  0  0  0  0  0  0  0  0  0
  161.5960  203.9560  145.0290 C   0  0  0  0  0  3  0  0  0  0  0  0
  161.6280  205.2860  147.5340 C   0  0  0  0  0  0  0  0  0  0  0  0
  161.3780  200.7470  148.6400 N   0  0  0  0  0  1  0  0  0  0  0  0
  160.5400  201.8610  148.4920 N   0  0  0  0  0  2  0  0  0  0  0  0
  161.4950  202.7050  151.9190 O   0  0  0  0  0  0  0  0  0  0  0  0
  160.6120  203.1150  151.1210 C   0  0  0  0  0  3  0  0  0  0  0  0
  1  4  1  1  0  0  0
  1  3  1  0  0  0  0
  3  2  1  0  0  0  0
  4  5  1  0  0  0  0
  5  6  1  0  0  0  0
  6  8  1  0  0  0  0
  8  7  2  0  0  0  0
  9 14  1  6  0  0  0
  9 12  1  0  0  0  0
 11  8  1  6  0  0  0
 11 10  1  0  0  0  0
 12 10  1  0  0  0  0
 13  9  1  0  0  0  0
 13 11  1  0  0  0  0
 14 17  1  0  0  0  0
 15 17  1  0  0  0  0
 17 16  2  0  0  0  0
 18  1  1  0  0  0  0
 19 26  1  0  0  0  0
 20 18  1  1  0  0  0
 21 20  1  0  0  0  0
 21 32  1  0  0  0  0
 22 20  1  0  0  0  0
 23 25  1  0  0  0  0
 24 21  2  0  0  0  0
 25 28  1  0  0  0  0
 26 28  2  0  0  0  0
 26 24  1  0  0  0  0
 27 23  1  0  0  0  0
 27 19  2  0  0  0  0
 28 22  1  0  0  0  0
 30 29  1  0  0  0  0
 30 24  1  0  0  0  0
 32 31  2  0  0  0  0
M  END
>  <MODEL>
5

>  <REMARK>
 VINA RESULT:      -7.1      2.418      3.442
  Name = 
  12 active torsions:
  status: ('A' for Active; 'I' for Inactive)
    1  A    between atoms: C_3  and  O_18
    2  A    between atoms: C_4  and  C_31
    3  A    between atoms: N_6  and  C_21
    4  A    between atoms: N_6  and  C_23
    5  A    between atoms: N_7  and  C_20
    6  A    between atoms: C_8  and  C_10
    7  A    between atoms: C_10  and  C_25
    8  A    between atoms: C_14  and  C_21
    9  A    between atoms: C_14  and  C_28
   10  A    between atoms: C_17  and  C_23
   11  A    between atoms: O_18  and  C_28
   12  A    between atoms: C_19  and  C_28
                            x       y       z     vdW  Elec       q    Type
                         _______ _______ _______ _____ _____    ______ ____

>  <TORSDO>
F 12

$$$$
=
 OpenBabel11072410303D

 32 34  0  0  1  0  0  0  0  0999 V2000
  161.4550  207.9240  152.5950 C   0  0  2  0  0  3  0  0  0  0  0  0
  161.1650  207.5830  154.9690 O   0  0  0  0  0  1  0  0  0  0  0  0
  160.7770  207.1210  153.7100 C   0  0  0  0  0  2  0  0  0  0  0  0
  160.5770  209.0160  151.9720 C   0  0  0  0  0  2  0  0  0  0  0  0
  160.7780  210.3470  152.6760 C   0  0  0  0  0  2  0  0  0  0  0  0
  160.3620  211.4360  151.8070 N   0  0  0  0  0  2  0  0  0  0  0  0
  158.2090  211.8440  153.2780 S   0  0  0  0  0  0  0  0  0  0  0  0
  159.2870  212.3170  152.1390 C   0  0  0  0  0  0  0  0  0  0  0  0
  159.0300  213.9270  148.8920 C   0  0  1  0  0  3  0  0  0  0  0  0
  157.7660  213.6850  150.7920 N   0  0  0  0  0  2  0  0  0  0  0  0
  159.0970  213.6030  151.3850 C   0  0  2  0  0  3  0  0  0  0  0  0
  157.8630  213.2710  149.4540 N   0  0  0  0  0  2  0  0  0  0  0  0
  160.3610  213.8130  150.1020 S   0  0  0  0  0  0  0  0  0  0  0  0
  159.4540  213.2350  147.6060 C   0  0  0  0  0  2  0  0  0  0  0  0
  158.6190  214.4050  145.5310 N   0  0  0  0  0  1  0  0  0  0  0  0
  157.4050  212.5810  146.4520 C   0  0  0  0  0  2  0  0  0  0  0  0
  158.4290  213.4170  146.5370 C   0  0  0  0  0  0  0  0  0  0  0  0
  162.1510  207.1220  151.6570 O   0  0  0  0  0  0  0  0  0  0  0  0
  160.8080  202.9810  148.2260 C   0  0  0  0  0  3  0  0  0  0  0  0
  161.2350  206.3470  150.9200 C   0  0  1  0  0  3  0  0  0  0  0  0
  161.4390  206.5370  149.4230 C   0  0  0  0  0  0  0  0  0  0  0  0
  161.3510  204.9810  151.3220 O   0  0  0  0  0  0  0  0  0  0  0  0
  161.2890  201.4480  150.0920 C   0  0  0  0  0  2  0  0  0  0  0  0
  161.3220  205.4740  148.5830 C   0  0  0  0  0  0  0  0  0  0  0  0
  160.8110  202.5550  151.0350 C   0  0  0  0  0  2  0  0  0  0  0  0
  161.0590  204.1240  149.1340 C   0  0  0  0  0  0  0  0  0  0  0  0
  160.8690  201.7260  148.6760 C   0  0  0  0  0  3  0  0  0  0  0  0
  161.0890  203.9190  150.4610 C   0  0  0  0  0  0  0  0  0  0  0  0
  160.4950  206.1870  146.3100 N   0  0  0  0  0  1  0  0  0  0  0  0
  161.4380  205.5780  147.1500 N   0  0  0  0  0  2  0  0  0  0  0  0
  162.6920  208.3210  148.4230 O   0  0  0  0  0  0  0  0  0  0  0  0
  161.6010  207.9060  148.8950 C   0  0  0  0  0  3  0  0  0  0  0  0
  1  4  1  6  0  0  0
  1  3  1  0  0  0  0
  3  2  1  0  0  0  0
  4  5  1  0  0  0  0
  6  8  1  0  0  0  0
  6  5  1  0  0  0  0
  8  7  2  0  0  0  0
  9 14  1  6  0  0  0
  9 12  1  0  0  0  0
  9 13  1  0  0  0  0
 10 11  1  0  0  0  0
 11  8  1  6  0  0  0
 12 10  1  0  0  0  0
 13 11  1  0  0  0  0
 15 17  1  0  0  0  0
 16 17  2  0  0  0  0
 17 14  1  0  0  0  0
 18  1  1  0  0  0  0
 19 27  2  0  0  0  0
 19 26  1  0  0  0  0
 20 22  1  0  0  0  0
 20 18  1  1  0  0  0
 21 20  1  0  0  0  0
 23 25  1  0  0  0  0
 24 26  1  0  0  0  0
 24 21  2  0  0  0  0
 26 28  2  0  0  0  0
 27 23  1  0  0  0  0
 28 25  1  0  0  0  0
 28 22  1  0  0  0  0
 29 30  1  0  0  0  0
 30 24  1  0  0  0  0
 31 32  2  0  0  0  0
 32 21  1  0  0  0  0
M  END
>  <MODEL>
6

>  <REMARK>
 VINA RESULT:      -6.6      2.855      4.102
  Name = 
  12 active torsions:
  status: ('A' for Active; 'I' for Inactive)
    1  A    between atoms: C_3  and  O_18
    2  A    between atoms: C_4  and  C_31
    3  A    between atoms: N_6  and  C_21
    4  A    between atoms: N_6  and  C_23
    5  A    between atoms: N_7  and  C_20
    6  A    between atoms: C_8  and  C_10
    7  A    between atoms: C_10  and  C_25
    8  A    between atoms: C_14  and  C_21
    9  A    between atoms: C_14  and  C_28
   10  A    between atoms: C_17  and  C_23
   11  A    between atoms: O_18  and  C_28
   12  A    between atoms: C_19  and  C_28
                            x       y       z     vdW  Elec       q    Type
                         _______ _______ _______ _____ _____    ______ ____

>  <TORSDO>
F 12

$$$$
=
 OpenBabel11072410303D

 32 34  0  0  1  0  0  0  0  0999 V2000
  161.7310  207.1140  152.3720 C   0  0  2  0  0  3  0  0  0  0  0  0
  160.8300  206.8540  154.5990 O   0  0  0  0  0  1  0  0  0  0  0  0
  161.1280  206.1710  153.4190 C   0  0  0  0  0  2  0  0  0  0  0  0
  160.7880  208.2280  151.9000 C   0  0  0  0  0  2  0  0  0  0  0  0
  161.2360  209.5820  152.4200 C   0  0  0  0  0  2  0  0  0  0  0  0
  160.1280  210.2520  153.0820 N   0  0  0  0  0  2  0  0  0  0  0  0
  161.5290  210.3470  155.3170 S   0  0  0  0  0  0  0  0  0  0  0  0
  160.2160  210.7430  154.4210 C   0  0  0  0  0  0  0  0  0  0  0  0
  157.7900  213.4120  153.9770 C   0  0  1  0  0  3  0  0  0  0  0  0
  157.8020  211.1590  154.4170 N   0  0  0  0  0  2  0  0  0  0  0  0
  159.0800  211.5220  155.0220 C   0  0  2  0  0  3  0  0  0  0  0  0
  157.5150  212.1010  153.4160 N   0  0  0  0  0  2  0  0  0  0  0  0
  159.3490  213.3090  154.8750 S   0  0  0  0  0  0  0  0  0  0  0  0
  157.9120  214.4430  152.8670 C   0  0  0  0  0  2  0  0  0  0  0  0
  157.4800  213.3460  150.6350 N   0  0  0  0  0  1  0  0  0  0  0  0
  159.7040  213.8100  151.3350 C   0  0  0  0  0  2  0  0  0  0  0  0
  158.4070  213.8170  151.6070 C   0  0  0  0  0  0  0  0  0  0  0  0
  162.4210  206.4470  151.3310 O   0  0  0  0  0  0  0  0  0  0  0  0
  160.9530  202.7040  147.5150 C   0  0  0  0  0  3  0  0  0  0  0  0
  161.4960  205.8280  150.4680 C   0  0  1  0  0  3  0  0  0  0  0  0
  161.8540  206.0840  149.0100 C   0  0  0  0  0  0  0  0  0  0  0  0
  161.4280  204.4350  150.7800 O   0  0  0  0  0  0  0  0  0  0  0  0
  161.0960  201.0140  149.3000 C   0  0  0  0  0  2  0  0  0  0  0  0
  161.6980  205.0950  148.0900 C   0  0  0  0  0  0  0  0  0  0  0  0
  160.6570  202.1080  150.2770 C   0  0  0  0  0  2  0  0  0  0  0  0
  161.2430  203.7530  148.5200 C   0  0  0  0  0  0  0  0  0  0  0  0
  160.8370  201.4250  147.8780 C   0  0  0  0  0  3  0  0  0  0  0  0
  161.1310  203.4640  149.8260 C   0  0  0  0  0  0  0  0  0  0  0  0
  163.1600  204.9700  146.0390 N   0  0  0  0  0  1  0  0  0  0  0  0
  161.9530  205.2740  146.6820 N   0  0  0  0  0  2  0  0  0  0  0  0
  161.3520  208.3720  148.4920 O   0  0  0  0  0  0  0  0  0  0  0  0
  162.2090  207.4570  148.5960 C   0  0  0  0  0  3  0  0  0  0  0  0
  1  4  1  6  0  0  0
  1  3  1  0  0  0  0
  3  2  1  0  0  0  0
  4  5  1  0  0  0  0
  5  6  1  0  0  0  0
  6  8  1  0  0  0  0
  8  7  2  0  0  0  0
  9 14  1  6  0  0  0
  9 13  1  0  0  0  0
 10 11  1  0  0  0  0
 11  8  1  6  0  0  0
 12  9  1  0  0  0  0
 12 10  1  0  0  0  0
 13 11  1  0  0  0  0
 15 17  1  0  0  0  0
 16 17  2  0  0  0  0
 17 14  1  0  0  0  0
 18  1  1  0  0  0  0
 19 27  2  0  0  0  0
 19 26  1  0  0  0  0
 20 22  1  0  0  0  0
 20 18  1  1  0  0  0
 21 20  1  0  0  0  0
 23 25  1  0  0  0  0
 24 26  1  0  0  0  0
 24 21  2  0  0  0  0
 26 28  2  0  0  0  0
 27 23  1  0  0  0  0
 28 25  1  0  0  0  0
 28 22  1  0  0  0  0
 29 30  1  0  0  0  0
 30 24  1  0  0  0  0
 31 32  2  0  0  0  0
 32 21  1  0  0  0  0
M  END
>  <MODEL>
7

>  <REMARK>
 VINA RESULT:      -6.5      1.632      2.299
  Name = 
  12 active torsions:
  status: ('A' for Active; 'I' for Inactive)
    1  A    between atoms: C_3  and  O_18
    2  A    between atoms: C_4  and  C_31
    3  A    between atoms: N_6  and  C_21
    4  A    between atoms: N_6  and  C_23
    5  A    between atoms: N_7  and  C_20
    6  A    between atoms: C_8  and  C_10
    7  A    between atoms: C_10  and  C_25
    8  A    between atoms: C_14  and  C_21
    9  A    between atoms: C_14  and  C_28
   10  A    between atoms: C_17  and  C_23
   11  A    between atoms: O_18  and  C_28
   12  A    between atoms: C_19  and  C_28
                            x       y       z     vdW  Elec       q    Type
                         _______ _______ _______ _____ _____    ______ ____

>  <TORSDO>
F 12

$$$$
=
 OpenBabel11072410303D

 32 34  0  0  1  0  0  0  0  0999 V2000
  161.9370  208.7100  149.3140 C   0  0  2  0  0  3  0  0  0  0  0  0
  161.2500  210.7700  148.2540 O   0  0  0  0  0  1  0  0  0  0  0  0
  162.3460  210.0900  148.7880 C   0  0  0  0  0  2  0  0  0  0  0  0
  162.1500  208.5130  150.8200 C   0  0  0  0  0  2  0  0  0  0  0  0
  162.0340  209.8310  151.5660 C   0  0  0  0  0  2  0  0  0  0  0  0
  160.8170  209.8450  152.3620 N   0  0  0  0  0  2  0  0  0  0  0  0
  159.7370  212.2300  152.0290 S   0  0  0  0  0  0  0  0  0  0  0  0
  160.3180  211.0310  152.9830 C   0  0  0  0  0  0  0  0  0  0  0  0
  161.3020  209.5700  156.1610 C   0  0  1  0  0  3  0  0  0  0  0  0
  161.8020  211.4160  154.8930 N   0  0  0  0  0  2  0  0  0  0  0  0
  160.4200  211.2120  154.4710 C   0  0  2  0  0  3  0  0  0  0  0  0
  162.3130  210.1790  155.3150 N   0  0  0  0  0  2  0  0  0  0  0  0
  159.7040  209.8030  155.3610 S   0  0  0  0  0  0  0  0  0  0  0  0
  161.5750  208.0830  156.3200 C   0  0  0  0  0  2  0  0  0  0  0  0
  159.3540  206.9420  155.9520 N   0  0  0  0  0  1  0  0  0  0  0  0
  160.9900  206.9710  154.2270 C   0  0  0  0  0  2  0  0  0  0  0  0
  160.6520  207.2750  155.4720 C   0  0  0  0  0  0  0  0  0  0  0  0
  162.3890  207.6350  148.5100 O   0  0  0  0  0  0  0  0  0  0  0  0
  160.8850  202.3520  149.2490 C   0  0  0  0  0  3  0  0  0  0  0  0
  161.4470  206.5890  148.5400 C   0  0  1  0  0  3  0  0  0  0  0  0
  161.7090  205.5860  147.4240 C   0  0  0  0  0  0  0  0  0  0  0  0
  161.4620  205.9850  149.8350 O   0  0  0  0  0  0  0  0  0  0  0  0
  161.2070  202.7290  151.6610 C   0  0  0  0  0  2  0  0  0  0  0  0
  161.5480  204.2560  147.6560 C   0  0  0  0  0  0  0  0  0  0  0  0
  160.7740  204.1780  151.4230 C   0  0  0  0  0  2  0  0  0  0  0  0
  161.1820  203.7830  149.0110 C   0  0  0  0  0  0  0  0  0  0  0  0
  160.8490  201.8590  150.4890 C   0  0  0  0  0  3  0  0  0  0  0  0
  161.1580  204.6420  150.0430 C   0  0  0  0  0  0  0  0  0  0  0  0
  160.8030  202.9890  145.6070 N   0  0  0  0  0  1  0  0  0  0  0  0
  161.7150  203.2480  146.6400 N   0  0  0  0  0  2  0  0  0  0  0  0
  161.0700  206.2050  145.1970 O   0  0  0  0  0  0  0  0  0  0  0  0
  161.9760  206.0920  146.0620 C   0  0  0  0  0  3  0  0  0  0  0  0
  1  3  1  6  0  0  0
  1  4  1  0  0  0  0
  2  3  1  0  0  0  0
  4  5  1  0  0  0  0
  5  6  1  0  0  0  0
  6  8  1  0  0  0  0
  7  8  2  0  0  0  0
  9 14  1  6  0  0  0
 10 12  1  0  0  0  0
 11  8  1  6  0  0  0
 11 10  1  0  0  0  0
 11 13  1  0  0  0  0
 12  9  1  0  0  0  0
 13  9  1  0  0  0  0
 16 17  2  0  0  0  0
 17 15  1  0  0  0  0
 17 14  1  0  0  0  0
 18  1  1  0  0  0  0
 19 27  2  0  0  0  0
 20 18  1  1  0  0  0
 20 22  1  0  0  0  0
 21 24  2  0  0  0  0
 21 20  1  0  0  0  0
 22 28  1  0  0  0  0
 24 26  1  0  0  0  0
 25 23  1  0  0  0  0
 26 19  1  0  0  0  0
 26 28  2  0  0  0  0
 27 23  1  0  0  0  0
 28 25  1  0  0  0  0
 29 30  1  0  0  0  0
 30 24  1  0  0  0  0
 31 32  2  0  0  0  0
 32 21  1  0  0  0  0
M  END
>  <MODEL>
8

>  <REMARK>
 VINA RESULT:      -6.5      2.007      3.773
  Name = 
  12 active torsions:
  status: ('A' for Active; 'I' for Inactive)
    1  A    between atoms: C_3  and  O_18
    2  A    between atoms: C_4  and  C_31
    3  A    between atoms: N_6  and  C_21
    4  A    between atoms: N_6  and  C_23
    5  A    between atoms: N_7  and  C_20
    6  A    between atoms: C_8  and  C_10
    7  A    between atoms: C_10  and  C_25
    8  A    between atoms: C_14  and  C_21
    9  A    between atoms: C_14  and  C_28
   10  A    between atoms: C_17  and  C_23
   11  A    between atoms: O_18  and  C_28
   12  A    between atoms: C_19  and  C_28
                            x       y       z     vdW  Elec       q    Type
                         _______ _______ _______ _____ _____    ______ ____

>  <TORSDO>
F 12

$$$$
=
 OpenBabel11072410303D

 32 34  0  0  1  0  0  0  0  0999 V2000
  161.3920  207.0730  152.0970 C   0  0  2  0  0  3  0  0  0  0  0  0
  161.1860  207.6040  154.4450 O   0  0  0  0  0  1  0  0  0  0  0  0
  161.5040  206.5850  153.5460 C   0  0  0  0  0  2  0  0  0  0  0  0
  161.1530  208.5810  151.9500 C   0  0  0  0  0  2  0  0  0  0  0  0
  162.3830  209.2780  151.3960 C   0  0  0  0  0  2  0  0  0  0  0  0
  162.0240  210.5960  150.8960 N   0  0  0  0  0  2  0  0  0  0  0  0
  162.0010  209.6390  148.4370 S   0  0  0  0  0  0  0  0  0  0  0  0
  161.8940  210.8790  149.5020 C   0  0  0  0  0  0  0  0  0  0  0  0
  159.7930  213.3520  147.8660 C   0  0  1  0  0  3  0  0  0  0  0  0
  160.8660  213.0700  149.8760 N   0  0  0  0  0  2  0  0  0  0  0  0
  161.7620  212.2970  149.0230 C   0  0  2  0  0  3  0  0  0  0  0  0
  159.5950  213.0730  149.2780 N   0  0  0  0  0  2  0  0  0  0  0  0
  161.1920  212.3660  147.3030 S   0  0  0  0  0  0  0  0  0  0  0  0
  158.5520  212.9680  147.0770 C   0  0  0  0  0  2  0  0  0  0  0  0
  159.2270  212.2480  144.7530 N   0  0  0  0  0  1  0  0  0  0  0  0
  158.3150  214.4120  145.1220 C   0  0  0  0  0  2  0  0  0  0  0  0
  158.7310  213.2580  145.6240 C   0  0  0  0  0  0  0  0  0  0  0  0
  160.5600  206.2630  151.2850 O   0  0  0  0  0  0  0  0  0  0  0  0
  161.4390  203.3880  146.6290 C   0  0  0  0  0  3  0  0  0  0  0  0
  161.3530  205.4870  150.4170 C   0  0  1  0  0  3  0  0  0  0  0  0
  160.8220  204.0630  150.3210 C   0  0  0  0  0  0  0  0  0  0  0  0
  161.4230  206.1340  149.1450 O   0  0  0  0  0  0  0  0  0  0  0  0
  161.4760  205.5500  145.4500 C   0  0  0  0  0  2  0  0  0  0  0  0
  160.8360  203.4140  149.1260 C   0  0  0  0  0  0  0  0  0  0  0  0
  162.0620  206.1580  146.7260 C   0  0  0  0  0  2  0  0  0  0  0  0
  161.3050  204.1180  147.9100 C   0  0  0  0  0  0  0  0  0  0  0  0
  161.5660  204.0500  145.4760 C   0  0  0  0  0  3  0  0  0  0  0  0
  161.5720  205.4330  147.9510 C   0  0  0  0  0  0  0  0  0  0  0  0
  161.1870  200.9210  149.2730 N   0  0  0  0  0  1  0  0  0  0  0  0
  160.4110  202.0460  148.9610 N   0  0  0  0  0  2  0  0  0  0  0  0
  161.1800  203.3810  152.5920 O   0  0  0  0  0  0  0  0  0  0  0  0
  160.4550  203.3560  151.5640 C   0  0  0  0  0  3  0  0  0  0  0  0
  1  4  1  1  0  0  0
  1  3  1  0  0  0  0
  3  2  1  0  0  0  0
  5  4  1  0  0  0  0
  6  5  1  0  0  0  0
  7  8  2  0  0  0  0
  8  6  1  0  0  0  0
  9 14  1  6  0  0  0
  9 12  1  0  0  0  0
 11  8  1  1  0  0  0
 11 10  1  0  0  0  0
 12 10  1  0  0  0  0
 13  9  1  0  0  0  0
 13 11  1  0  0  0  0
 15 17  1  0  0  0  0
 16 17  2  0  0  0  0
 17 14  1  0  0  0  0
 18  1  1  0  0  0  0
 19 26  1  0  0  0  0
 20 18  1  1  0  0  0
 21 20  1  0  0  0  0
 21 32  1  0  0  0  0
 22 20  1  0  0  0  0
 23 27  1  0  0  0  0
 23 25  1  0  0  0  0
 24 21  2  0  0  0  0
 25 28  1  0  0  0  0
 26 28  2  0  0  0  0
 26 24  1  0  0  0  0
 27 19  2  0  0  0  0
 28 22  1  0  0  0  0
 30 24  1  0  0  0  0
 30 29  1  0  0  0  0
 32 31  2  0  0  0  0
M  END
>  <MODEL>
9

>  <REMARK>
 VINA RESULT:      -6.5      3.668      5.279
  Name = 
  12 active torsions:
  status: ('A' for Active; 'I' for Inactive)
    1  A    between atoms: C_3  and  O_18
    2  A    between atoms: C_4  and  C_31
    3  A    between atoms: N_6  and  C_21
    4  A    between atoms: N_6  and  C_23
    5  A    between atoms: N_7  and  C_20
    6  A    between atoms: C_8  and  C_10
    7  A    between atoms: C_10  and  C_25
    8  A    between atoms: C_14  and  C_21
    9  A    between atoms: C_14  and  C_28
   10  A    between atoms: C_17  and  C_23
   11  A    between atoms: O_18  and  C_28
   12  A    between atoms: C_19  and  C_28
                            x       y       z     vdW  Elec       q    Type
                         _______ _______ _______ _____ _____    ______ ____

>  <TORSDO>
F 12

$$$$
