=
 OpenBabel11072412183D

 38 42  0  0  1  0  0  0  0  0999 V2000
  160.2690  203.9310  150.2900 C   0  0  0  0  0  2  0  0  0  0  0  0
  160.5560  206.5690  148.4210 C   0  0  0  0  0  2  0  0  0  0  0  0
  161.3540  206.7860  152.0940 C   0  0  2  0  0  3  0  0  0  0  0  0
  160.9230  204.3080  152.7080 C   0  0  0  0  0  3  0  0  0  0  0  0
  163.3830  207.5370  148.0830 F   0  0  0  0  0  0  0  0  0  0  0  0
  162.4000  208.3100  148.6680 C   0  0  0  0  0  0  0  0  0  0  0  0
  161.1380  207.5460  150.7970 C   0  0  2  0  0  3  0  0  0  0  0  0
  160.8920  205.5550  151.9220 C   0  0  0  0  0  0  0  0  0  0  0  0
  161.0510  207.9630  148.0200 C   0  0  0  0  0  2  0  0  0  0  0  0
  160.6060  206.4550  149.9050 C   0  0  0  0  0  0  0  0  0  0  0  0
  160.4650  205.3530  150.6090 C   0  0  0  0  0  0  0  0  0  0  0  0
  162.4420  208.0800  150.1940 C   0  0  0  0  0  2  0  0  0  0  0  0
  160.5880  203.2320  151.6390 C   0  0  2  0  0  3  0  0  0  0  0  0
  162.6810  209.6380  148.4170 F   0  0  0  0  0  0  0  0  0  0  0  0
  160.5030  207.0740  154.7150 S   0  0  0  0  0  0  0  0  0  0  0  0
  161.7800  207.3610  153.4160 C   0  0  2  0  0  3  0  0  0  0  0  0
  160.9840  208.5520  153.7350 C   0  0  2  0  0  3  0  0  0  0  0  0
  161.8080  209.4960  154.6090 C   0  0  0  0  0  2  0  0  0  0  0  0
  161.2650  210.9060  154.4510 C   0  0  1  0  0  3  0  0  0  0  0  0
  159.8660  210.9570  154.9070 N   0  0  0  0  0  0  0  0  0  0  0  0
  160.9590  211.4490  155.7690 C   0  0  0  0  0  2  0  0  0  0  0  0
  158.9700  211.6190  152.7540 C   0  0  0  0  0  1  0  0  0  0  0  0
  159.2430  212.0690  154.1800 C   0  0  1  0  0  3  0  0  0  0  0  0
  158.0290  212.4710  154.7690 O   0  0  0  0  0  0  0  0  0  0  0  0
  157.0980  211.5100  154.3440 C   0  0  0  0  0  2  0  0  0  0  0  0
  156.2240  211.0570  155.5160 C   0  0  0  0  0  2  0  0  0  0  0  0
  155.2330  210.1770  155.0840 O   0  0  0  0  0  1  0  0  0  0  0  0
  161.8020  202.3270  151.4690 C   0  0  0  0  0  2  0  0  0  0  0  0
  161.4720  201.1280  150.5910 C   0  0  0  0  0  2  0  0  0  0  0  0
  159.3400  200.8300  149.5150 O   0  0  0  0  0  1  0  0  0  0  0  0
  160.5590  201.5020  149.4220 C   0  0  2  0  0  3  0  0  0  0  0  0
  161.2040  201.2210  148.0720 C   0  0  0  0  0  2  0  0  0  0  0  0
  161.5120  202.4700  147.3900 N   0  0  0  0  0  2  0  0  0  0  0  0
  160.5000  201.8590  145.3800 O   0  0  0  0  0  0  0  0  0  0  0  0
  161.1290  202.7290  146.0380 C   0  0  0  0  0  0  0  0  0  0  0  0
  162.6270  204.8060  145.8990 C   0  0  0  0  0  1  0  0  0  0  0  0
  160.8150  204.4220  144.4180 O   0  0  0  0  0  0  0  0  0  0  0  0
  161.4760  204.0070  145.4080 C   0  0  0  0  0  0  0  0  0  0  0  0
  1 11  1  0  0  0  0
  1 13  1  0  0  0  0
  2 10  1  0  0  0  0
  3  8  1  1  0  0  0
  3 16  1  0  0  0  0
  5  6  1  0  0  0  0
  6 12  1  0  0  0  0
  7 12  1  6  0  0  0
  7  3  1  0  0  0  0
  8  4  2  0  0  0  0
  9  2  1  0  0  0  0
  9  6  1  0  0  0  0
 10 11  2  0  0  0  0
 10  7  1  0  0  0  0
 11  8  1  0  0  0  0
 13 28  1  6  0  0  0
 13  4  1  0  0  0  0
 14  6  1  0  0  0  0
 16 17  1  0  0  0  0
 16 15  1  1  0  0  0
 17 18  1  1  0  0  0
 17 15  1  0  0  0  0
 19 18  1  1  0  0  0
 19 20  1  0  0  0  0
 19 21  1  0  0  0  0
 20 21  1  0  0  0  0
 23 22  1  6  0  0  0
 23 24  1  0  0  0  0
 23 20  1  0  0  0  0
 25 24  1  0  0  0  0
 25 26  1  0  0  0  0
 27 26  1  0  0  0  0
 29 28  1  0  0  0  0
 31 30  1  1  0  0  0
 31 29  1  0  0  0  0
 32 31  1  0  0  0  0
 33 32  1  0  0  0  0
 34 35  2  0  0  0  0
 35 33  1  0  0  0  0
 37 38  2  0  0  0  0
 38 36  1  0  0  0  0
 38 35  1  0  0  0  0
M  END
>  <MODEL>
1

>  <REMARK>
 VINA RESULT:      -7.7      0.000      0.000
  Name = 
  13 active torsions:
  status: ('A' for Active; 'I' for Inactive)
    1  A    between atoms: C_1  and  C_37
    2  A    between atoms: N_3  and  C_32
    3  A    between atoms: C_5  and  C_27
    4  A    between atoms: C_12  and  C_15
    5  A    between atoms: N_14  and  C_24
    6  A    between atoms: C_15  and  O_20
    7  A    between atoms: C_18  and  C_35
    8  A    between atoms: C_18  and  C_36
    9  A    between atoms: O_20  and  C_32
   10  A    between atoms: C_24  and  C_31
   11  A    between atoms: C_26  and  C_33
   12  A    between atoms: C_31  and  C_36
   13  A    between atoms: C_34  and  C_37
                            x       y       z     vdW  Elec       q    Type
                         _______ _______ _______ _____ _____    ______ ____

>  <TORSDO>
F 13

$$$$
=
 OpenBabel11072412183D

 38 42  0  0  1  0  0  0  0  0999 V2000
  161.6250  207.1990  150.4790 C   0  0  0  0  0  2  0  0  0  0  0  0
  160.9920  208.8900  153.1770 C   0  0  0  0  0  2  0  0  0  0  0  0
  161.8970  210.7040  150.0030 C   0  0  2  0  0  3  0  0  0  0  0  0
  162.1440  208.6390  148.4610 C   0  0  0  0  0  3  0  0  0  0  0  0
  158.4910  210.5540  153.0270 F   0  0  0  0  0  0  0  0  0  0  0  0
  159.7400  211.1100  153.2180 C   0  0  0  0  0  0  0  0  0  0  0  0
  161.6540  210.8100  151.4990 C   0  0  2  0  0  3  0  0  0  0  0  0
  162.0350  209.4180  149.7080 C   0  0  0  0  0  0  0  0  0  0  0  0
  160.6040  210.1160  154.0100 C   0  0  0  0  0  2  0  0  0  0  0  0
  161.5670  209.3570  151.8850 C   0  0  0  0  0  0  0  0  0  0  0  0
  161.8170  208.6140  150.8280 C   0  0  0  0  0  0  0  0  0  0  0  0
  160.3220  211.4880  151.8400 C   0  0  0  0  0  2  0  0  0  0  0  0
  161.8090  207.1990  148.9380 C   0  0  2  0  0  3  0  0  0  0  0  0
  159.5970  212.2620  153.9650 F   0  0  0  0  0  0  0  0  0  0  0  0
  160.9650  213.2050  149.2600 S   0  0  0  0  0  0  0  0  0  0  0  0
  162.1800  211.8330  149.0530 C   0  0  2  0  0  3  0  0  0  0  0  0
  161.1600  211.8820  147.9990 C   0  0  2  0  0  3  0  0  0  0  0  0
  161.7680  212.4760  146.7290 C   0  0  0  0  0  2  0  0  0  0  0  0
  160.6690  213.1590  145.9340 C   0  0  1  0  0  3  0  0  0  0  0  0
  160.3630  212.3740  144.7270 N   0  0  0  0  0  0  0  0  0  0  0  0
  159.4910  212.3010  145.9170 C   0  0  0  0  0  2  0  0  0  0  0  0
  160.9200  214.3120  143.3810 C   0  0  0  0  0  1  0  0  0  0  0  0
  159.8220  213.3270  143.7510 C   0  0  1  0  0  3  0  0  0  0  0  0
  159.3750  212.6870  142.5790 O   0  0  0  0  0  0  0  0  0  0  0  0
  160.3930  211.7720  142.2690 C   0  0  0  0  0  2  0  0  0  0  0  0
  160.3600  211.4190  140.7800 C   0  0  0  0  0  2  0  0  0  0  0  0
  159.6610  212.3850  140.0570 O   0  0  0  0  0  1  0  0  0  0  0  0
  160.5120  206.7600  148.2700 C   0  0  0  0  0  2  0  0  0  0  0  0
  160.7460  206.3810  146.8150 C   0  0  0  0  0  2  0  0  0  0  0  0
  162.6160  205.8430  145.3990 O   0  0  0  0  0  1  0  0  0  0  0  0
  162.0250  205.5620  146.6300 C   0  0  2  0  0  3  0  0  0  0  0  0
  161.7750  204.0640  146.7550 C   0  0  0  0  0  2  0  0  0  0  0  0
  161.5800  203.7000  148.1510 N   0  0  0  0  0  2  0  0  0  0  0  0
  160.5320  201.6690  147.6860 O   0  0  0  0  0  0  0  0  0  0  0  0
  160.9510  202.4820  148.5530 C   0  0  0  0  0  0  0  0  0  0  0  0
  160.8950  203.2490  150.9990 C   0  0  0  0  0  1  0  0  0  0  0  0
  160.5000  201.0050  150.3430 O   0  0  0  0  0  0  0  0  0  0  0  0
  160.7800  202.1780  149.9770 C   0  0  0  0  0  0  0  0  0  0  0  0
  1 11  1  0  0  0  0
  2  9  1  0  0  0  0
  3  8  1  1  0  0  0
  3  7  1  0  0  0  0
  4 13  1  0  0  0  0
  4  8  2  0  0  0  0
  5  6  1  0  0  0  0
  6 14  1  0  0  0  0
  6  9  1  0  0  0  0
  7 12  1  6  0  0  0
  7 10  1  0  0  0  0
  8 11  1  0  0  0  0
 10  2  1  0  0  0  0
 11 10  2  0  0  0  0
 12  6  1  0  0  0  0
 13 28  1  6  0  0  0
 13  1  1  0  0  0  0
 16 15  1  1  0  0  0
 16  3  1  0  0  0  0
 17 18  1  6  0  0  0
 17 16  1  0  0  0  0
 17 15  1  0  0  0  0
 19 18  1  1  0  0  0
 20 21  1  0  0  0  0
 20 19  1  0  0  0  0
 21 19  1  0  0  0  0
 23 22  1  6  0  0  0
 23 20  1  0  0  0  0
 24 23  1  0  0  0  0
 25 24  1  0  0  0  0
 26 25  1  0  0  0  0
 27 26  1  0  0  0  0
 29 28  1  0  0  0  0
 31 30  1  6  0  0  0
 31 32  1  0  0  0  0
 31 29  1  0  0  0  0
 32 33  1  0  0  0  0
 33 35  1  0  0  0  0
 34 35  2  0  0  0  0
 35 38  1  0  0  0  0
 38 37  2  0  0  0  0
 38 36  1  0  0  0  0
M  END
>  <MODEL>
2

>  <REMARK>
 VINA RESULT:      -7.3      4.599      7.555
  Name = 
  13 active torsions:
  status: ('A' for Active; 'I' for Inactive)
    1  A    between atoms: C_1  and  C_37
    2  A    between atoms: N_3  and  C_32
    3  A    between atoms: C_5  and  C_27
    4  A    between atoms: C_12  and  C_15
    5  A    between atoms: N_14  and  C_24
    6  A    between atoms: C_15  and  O_20
    7  A    between atoms: C_18  and  C_35
    8  A    between atoms: C_18  and  C_36
    9  A    between atoms: O_20  and  C_32
   10  A    between atoms: C_24  and  C_31
   11  A    between atoms: C_26  and  C_33
   12  A    between atoms: C_31  and  C_36
   13  A    between atoms: C_34  and  C_37
                            x       y       z     vdW  Elec       q    Type
                         _______ _______ _______ _____ _____    ______ ____

>  <TORSDO>
F 13

$$$$
=
 OpenBabel11072412183D

 38 42  0  0  1  0  0  0  0  0999 V2000
  161.8140  206.2370  151.6150 C   0  0  0  0  0  2  0  0  0  0  0  0
  161.5020  206.3780  154.8430 C   0  0  0  0  0  2  0  0  0  0  0  0
  160.9580  209.4780  152.7760 C   0  0  2  0  0  3  0  0  0  0  0  0
  161.3360  208.4290  150.4390 C   0  0  0  0  0  3  0  0  0  0  0  0
  158.6960  206.9100  155.7860 F   0  0  0  0  0  0  0  0  0  0  0  0
  159.7440  207.7680  156.0560 C   0  0  0  0  0  0  0  0  0  0  0  0
  161.1160  208.8950  154.1700 C   0  0  2  0  0  3  0  0  0  0  0  0
  161.3620  208.5610  151.9080 C   0  0  0  0  0  0  0  0  0  0  0  0
  161.0330  206.9430  156.1880 C   0  0  0  0  0  2  0  0  0  0  0  0
  161.5460  207.4870  153.8510 C   0  0  0  0  0  0  0  0  0  0  0  0
  161.6930  207.3660  152.5490 C   0  0  0  0  0  0  0  0  0  0  0  0
  159.7950  208.8400  154.9470 C   0  0  0  0  0  2  0  0  0  0  0  0
  161.5590  206.9050  150.2380 C   0  0  2  0  0  3  0  0  0  0  0  0
  159.4970  208.3960  157.2600 F   0  0  0  0  0  0  0  0  0  0  0  0
  160.2610  211.8970  153.9330 S   0  0  0  0  0  0  0  0  0  0  0  0
  160.6430  210.9050  152.4260 C   0  0  2  0  0  3  0  0  0  0  0  0
  159.2120  211.1720  152.6080 C   0  0  2  0  0  3  0  0  0  0  0  0
  158.7730  212.2750  151.6460 C   0  0  0  0  0  2  0  0  0  0  0  0
  160.0100  212.9250  151.0500 C   0  0  1  0  0  3  0  0  0  0  0  0
  159.7160  213.4050  149.6900 N   0  0  0  0  0  0  0  0  0  0  0  0
  159.7450  214.3410  150.8320 C   0  0  0  0  0  2  0  0  0  0  0  0
  161.5620  212.0060  148.9720 C   0  0  0  0  0  1  0  0  0  0  0  0
  161.0010  213.4190  148.9800 C   0  0  1  0  0  3  0  0  0  0  0  0
  160.8640  213.8590  147.6490 O   0  0  0  0  0  0  0  0  0  0  0  0
  160.4350  212.7220  146.9460 C   0  0  0  0  0  2  0  0  0  0  0  0
  160.6810  212.8970  145.4460 C   0  0  0  0  0  2  0  0  0  0  0  0
  159.8250  212.0830  144.7060 O   0  0  0  0  0  1  0  0  0  0  0  0
  160.3050  206.3130  149.6080 C   0  0  0  0  0  2  0  0  0  0  0  0
  160.3790  206.3600  148.0890 C   0  0  0  0  0  2  0  0  0  0  0  0
  162.3470  206.8100  146.7790 O   0  0  0  0  0  1  0  0  0  0  0  0
  161.7180  205.8420  147.5610 C   0  0  2  0  0  3  0  0  0  0  0  0
  161.5640  204.5530  146.7640 C   0  0  0  0  0  2  0  0  0  0  0  0
  161.5680  203.4030  147.6570 N   0  0  0  0  0  2  0  0  0  0  0  0
  160.6890  201.9210  146.0880 O   0  0  0  0  0  0  0  0  0  0  0  0
  161.1180  202.1090  147.2560 C   0  0  0  0  0  0  0  0  0  0  0  0
  160.6940  201.1860  149.6120 C   0  0  0  0  0  1  0  0  0  0  0  0
  161.5170  199.8510  147.8320 O   0  0  0  0  0  0  0  0  0  0  0  0
  161.1430  200.9940  148.2090 C   0  0  0  0  0  0  0  0  0  0  0  0
  1 11  1  0  0  0  0
  2  9  1  0  0  0  0
  3  8  1  6  0  0  0
  3  7  1  0  0  0  0
  4  8  2  0  0  0  0
  5  6  1  0  0  0  0
  6  9  1  0  0  0  0
  6 14  1  0  0  0  0
  7 12  1  6  0  0  0
  8 11  1  0  0  0  0
 10  7  1  0  0  0  0
 10  2  1  0  0  0  0
 11 10  2  0  0  0  0
 12  6  1  0  0  0  0
 13 28  1  1  0  0  0
 13  4  1  0  0  0  0
 13  1  1  0  0  0  0
 16 17  1  0  0  0  0
 16  3  1  0  0  0  0
 16 15  1  1  0  0  0
 17 18  1  6  0  0  0
 17 15  1  0  0  0  0
 19 18  1  1  0  0  0
 20 21  1  0  0  0  0
 20 19  1  0  0  0  0
 21 19  1  0  0  0  0
 23 22  1  6  0  0  0
 23 20  1  0  0  0  0
 24 23  1  0  0  0  0
 25 24  1  0  0  0  0
 26 25  1  0  0  0  0
 27 26  1  0  0  0  0
 29 28  1  0  0  0  0
 31 30  1  6  0  0  0
 31 29  1  0  0  0  0
 32 31  1  0  0  0  0
 32 33  1  0  0  0  0
 34 35  2  0  0  0  0
 35 33  1  0  0  0  0
 35 38  1  0  0  0  0
 37 38  2  0  0  0  0
 38 36  1  0  0  0  0
M  END
>  <MODEL>
3

>  <REMARK>
 VINA RESULT:      -7.3      3.697      5.864
  Name = 
  13 active torsions:
  status: ('A' for Active; 'I' for Inactive)
    1  A    between atoms: C_1  and  C_37
    2  A    between atoms: N_3  and  C_32
    3  A    between atoms: C_5  and  C_27
    4  A    between atoms: C_12  and  C_15
    5  A    between atoms: N_14  and  C_24
    6  A    between atoms: C_15  and  O_20
    7  A    between atoms: C_18  and  C_35
    8  A    between atoms: C_18  and  C_36
    9  A    between atoms: O_20  and  C_32
   10  A    between atoms: C_24  and  C_31
   11  A    between atoms: C_26  and  C_33
   12  A    between atoms: C_31  and  C_36
   13  A    between atoms: C_34  and  C_37
                            x       y       z     vdW  Elec       q    Type
                         _______ _______ _______ _____ _____    ______ ____

>  <TORSDO>
F 13

$$$$
=
 OpenBabel11072412183D

 38 42  0  0  1  0  0  0  0  0999 V2000
  160.7520  209.3550  154.0000 C   0  0  0  0  0  2  0  0  0  0  0  0
  158.4790  210.7200  155.8730 C   0  0  0  0  0  2  0  0  0  0  0  0
  159.6110  212.4670  152.7350 C   0  0  2  0  0  3  0  0  0  0  0  0
  161.3000  210.6840  151.9140 C   0  0  0  0  0  3  0  0  0  0  0  0
  155.7630  210.8830  154.5920 F   0  0  0  0  0  0  0  0  0  0  0  0
  156.4670  212.0040  154.9820 C   0  0  0  0  0  0  0  0  0  0  0  0
  158.8050  212.5630  154.0190 C   0  0  2  0  0  3  0  0  0  0  0  0
  160.4000  211.4060  152.8330 C   0  0  0  0  0  0  0  0  0  0  0  0
  157.3110  211.6500  156.2160 C   0  0  0  0  0  2  0  0  0  0  0  0
  159.2280  211.3010  154.7250 C   0  0  0  0  0  0  0  0  0  0  0  0
  160.1550  210.6990  154.0120 C   0  0  0  0  0  0  0  0  0  0  0  0
  157.2920  212.5060  153.7790 C   0  0  0  0  0  2  0  0  0  0  0  0
  161.4800  209.3170  152.6290 C   0  0  2  0  0  3  0  0  0  0  0  0
  155.5630  212.9870  155.3340 F   0  0  0  0  0  0  0  0  0  0  0  0
  158.2040  213.4780  150.5730 S   0  0  0  0  0  0  0  0  0  0  0  0
  159.7020  213.5010  151.6480 C   0  0  2  0  0  3  0  0  0  0  0  0
  159.9200  212.8580  150.3480 C   0  0  2  0  0  3  0  0  0  0  0  0
  160.6890  213.8090  149.4310 C   0  0  0  0  0  2  0  0  0  0  0  0
  160.8910  213.1330  148.0860 C   0  0  1  0  0  3  0  0  0  0  0  0
  162.0220  213.7570  147.3790 N   0  0  0  0  0  0  0  0  0  0  0  0
  162.1870  212.4660  148.0790 C   0  0  0  0  0  2  0  0  0  0  0  0
  160.3760  214.0350  145.6210 C   0  0  0  0  0  1  0  0  0  0  0  0
  161.7750  213.5380  145.9490 C   0  0  1  0  0  3  0  0  0  0  0  0
  162.7010  214.2280  145.1420 O   0  0  0  0  0  0  0  0  0  0  0  0
  163.2720  213.2320  144.3350 C   0  0  0  0  0  2  0  0  0  0  0  0
  162.6700  213.2710  142.9280 C   0  0  0  0  0  2  0  0  0  0  0  0
  161.9140  212.1270  142.6810 O   0  0  0  0  0  1  0  0  0  0  0  0
  160.8650  208.2310  151.7550 C   0  0  0  0  0  2  0  0  0  0  0  0
  161.8710  207.1270  151.4650 C   0  0  0  0  0  2  0  0  0  0  0  0
  161.9250  204.7370  151.7360 O   0  0  0  0  0  1  0  0  0  0  0  0
  161.1920  205.7860  151.1830 C   0  0  2  0  0  3  0  0  0  0  0  0
  160.9860  205.5450  149.6930 C   0  0  0  0  0  2  0  0  0  0  0  0
  160.8000  204.1250  149.4320 N   0  0  0  0  0  2  0  0  0  0  0  0
  161.8760  204.1550  147.3650 O   0  0  0  0  0  0  0  0  0  0  0  0
  161.2720  203.4870  148.2450 C   0  0  0  0  0  0  0  0  0  0  0  0
  160.9570  201.1280  149.2000 C   0  0  0  0  0  1  0  0  0  0  0  0
  160.8910  201.5970  146.8770 O   0  0  0  0  0  0  0  0  0  0  0  0
  161.0450  202.0530  148.0420 C   0  0  0  0  0  0  0  0  0  0  0  0
  1 11  1  0  0  0  0
  2  9  1  0  0  0  0
  3  8  1  1  0  0  0
  3  7  1  0  0  0  0
  4 13  1  0  0  0  0
  4  8  2  0  0  0  0
  5  6  1  0  0  0  0
  6 14  1  0  0  0  0
  6  9  1  0  0  0  0
  7 12  1  6  0  0  0
  7 10  1  0  0  0  0
  8 11  1  0  0  0  0
 10  2  1  0  0  0  0
 11 10  2  0  0  0  0
 12  6  1  0  0  0  0
 13 28  1  6  0  0  0
 13  1  1  0  0  0  0
 16 15  1  6  0  0  0
 16  3  1  0  0  0  0
 17 18  1  6  0  0  0
 17 15  1  0  0  0  0
 17 16  1  0  0  0  0
 19 18  1  1  0  0  0
 20 21  1  0  0  0  0
 20 19  1  0  0  0  0
 21 19  1  0  0  0  0
 23 22  1  6  0  0  0
 23 20  1  0  0  0  0
 24 23  1  0  0  0  0
 25 24  1  0  0  0  0
 26 25  1  0  0  0  0
 27 26  1  0  0  0  0
 29 28  1  0  0  0  0
 31 29  1  0  0  0  0
 31 30  1  6  0  0  0
 32 31  1  0  0  0  0
 33 32  1  0  0  0  0
 34 35  2  0  0  0  0
 35 33  1  0  0  0  0
 37 38  2  0  0  0  0
 38 35  1  0  0  0  0
 38 36  1  0  0  0  0
M  END
>  <MODEL>
4

>  <REMARK>
 VINA RESULT:      -7.3      4.673      7.692
  Name = 
  13 active torsions:
  status: ('A' for Active; 'I' for Inactive)
    1  A    between atoms: C_1  and  C_37
    2  A    between atoms: N_3  and  C_32
    3  A    between atoms: C_5  and  C_27
    4  A    between atoms: C_12  and  C_15
    5  A    between atoms: N_14  and  C_24
    6  A    between atoms: C_15  and  O_20
    7  A    between atoms: C_18  and  C_35
    8  A    between atoms: C_18  and  C_36
    9  A    between atoms: O_20  and  C_32
   10  A    between atoms: C_24  and  C_31
   11  A    between atoms: C_26  and  C_33
   12  A    between atoms: C_31  and  C_36
   13  A    between atoms: C_34  and  C_37
                            x       y       z     vdW  Elec       q    Type
                         _______ _______ _______ _____ _____    ______ ____

>  <TORSDO>
F 13

$$$$
=
 OpenBabel11072412183D

 38 42  0  0  1  0  0  0  0  0999 V2000
  160.9300  209.8860  154.2860 C   0  0  0  0  0  2  0  0  0  0  0  0
  158.6410  211.0160  156.2900 C   0  0  0  0  0  2  0  0  0  0  0  0
  159.3320  212.7990  153.0450 C   0  0  2  0  0  3  0  0  0  0  0  0
  161.1660  211.2130  152.1410 C   0  0  0  0  0  3  0  0  0  0  0  0
  155.8440  210.8120  155.2030 F   0  0  0  0  0  0  0  0  0  0  0  0
  156.4290  212.0220  155.5200 C   0  0  0  0  0  0  0  0  0  0  0  0
  158.6090  212.8330  154.3820 C   0  0  2  0  0  3  0  0  0  0  0  0
  160.2500  211.8450  153.1080 C   0  0  0  0  0  0  0  0  0  0  0  0
  157.3930  211.8080  156.6970 C   0  0  0  0  0  2  0  0  0  0  0  0
  159.2320  211.6520  155.0800 C   0  0  0  0  0  0  0  0  0  0  0  0
  160.1750  211.1470  154.3140 C   0  0  0  0  0  0  0  0  0  0  0  0
  157.1020  212.5860  154.2510 C   0  0  0  0  0  2  0  0  0  0  0  0
  161.5620  209.8980  152.8680 C   0  0  2  0  0  3  0  0  0  0  0  0
  155.4370  212.8970  155.9160 F   0  0  0  0  0  0  0  0  0  0  0  0
  157.9370  213.3100  150.7070 S   0  0  0  0  0  0  0  0  0  0  0  0
  159.2200  213.8060  151.9350 C   0  0  2  0  0  3  0  0  0  0  0  0
  159.7740  213.2590  150.6920 C   0  0  2  0  0  3  0  0  0  0  0  0
  160.3080  214.3990  149.8260 C   0  0  0  0  0  2  0  0  0  0  0  0
  161.0580  213.8060  148.6460 C   0  0  1  0  0  3  0  0  0  0  0  0
  160.9930  212.3370  148.6990 N   0  0  0  0  0  0  0  0  0  0  0  0
  160.1140  213.0990  147.7890 C   0  0  0  0  0  2  0  0  0  0  0  0
  163.2390  212.9410  148.0190 C   0  0  0  0  0  1  0  0  0  0  0  0
  162.1790  211.8530  147.9830 C   0  0  1  0  0  3  0  0  0  0  0  0
  162.7080  210.6850  148.5660 O   0  0  0  0  0  0  0  0  0  0  0  0
  161.6350  209.7810  148.5770 C   0  0  0  0  0  2  0  0  0  0  0  0
  162.1490  208.3390  148.5410 C   0  0  0  0  0  2  0  0  0  0  0  0
  161.1160  207.4390  148.7960 O   0  0  0  0  0  1  0  0  0  0  0  0
  161.0270  208.7210  152.0610 C   0  0  0  0  0  2  0  0  0  0  0  0
  160.7870  207.5110  152.9520 C   0  0  0  0  0  2  0  0  0  0  0  0
  162.6110  206.6910  151.6130 O   0  0  0  0  0  1  0  0  0  0  0  0
  161.8430  206.4240  152.7470 C   0  0  2  0  0  3  0  0  0  0  0  0
  161.2290  205.0340  152.6420 C   0  0  0  0  0  2  0  0  0  0  0  0
  160.9870  204.6940  151.2470 N   0  0  0  0  0  2  0  0  0  0  0  0
  161.3100  202.4030  151.5380 O   0  0  0  0  0  0  0  0  0  0  0  0
  161.0400  203.3530  150.7560 C   0  0  0  0  0  0  0  0  0  0  0  0
  161.3810  203.9460  148.2850 C   0  0  0  0  0  1  0  0  0  0  0  0
  160.1000  202.0820  148.9990 O   0  0  0  0  0  0  0  0  0  0  0  0
  160.7920  203.0800  149.3370 C   0  0  0  0  0  0  0  0  0  0  0  0
  1 11  1  0  0  0  0
  2  9  1  0  0  0  0
  3  8  1  1  0  0  0
  3  7  1  0  0  0  0
  4 13  1  0  0  0  0
  4  8  2  0  0  0  0
  5  6  1  0  0  0  0
  6 14  1  0  0  0  0
  6  9  1  0  0  0  0
  7 12  1  6  0  0  0
  7 10  1  0  0  0  0
  8 11  1  0  0  0  0
 10  2  1  0  0  0  0
 11 10  2  0  0  0  0
 12  6  1  0  0  0  0
 13 28  1  6  0  0  0
 13  1  1  0  0  0  0
 16 15  1  6  0  0  0
 16  3  1  0  0  0  0
 17 18  1  6  0  0  0
 17 15  1  0  0  0  0
 17 16  1  0  0  0  0
 19 20  1  0  0  0  0
 19 18  1  1  0  0  0
 21 19  1  0  0  0  0
 21 20  1  0  0  0  0
 23 22  1  1  0  0  0
 23 24  1  0  0  0  0
 23 20  1  0  0  0  0
 24 25  1  0  0  0  0
 26 25  1  0  0  0  0
 26 27  1  0  0  0  0
 28 29  1  0  0  0  0
 31 30  1  6  0  0  0
 31 29  1  0  0  0  0
 32 31  1  0  0  0  0
 33 32  1  0  0  0  0
 35 33  1  0  0  0  0
 35 34  2  0  0  0  0
 36 38  1  0  0  0  0
 37 38  2  0  0  0  0
 38 35  1  0  0  0  0
M  END
>  <MODEL>
5

>  <REMARK>
 VINA RESULT:      -7.2      4.140      7.325
  Name = 
  13 active torsions:
  status: ('A' for Active; 'I' for Inactive)
    1  A    between atoms: C_1  and  C_37
    2  A    between atoms: N_3  and  C_32
    3  A    between atoms: C_5  and  C_27
    4  A    between atoms: C_12  and  C_15
    5  A    between atoms: N_14  and  C_24
    6  A    between atoms: C_15  and  O_20
    7  A    between atoms: C_18  and  C_35
    8  A    between atoms: C_18  and  C_36
    9  A    between atoms: O_20  and  C_32
   10  A    between atoms: C_24  and  C_31
   11  A    between atoms: C_26  and  C_33
   12  A    between atoms: C_31  and  C_36
   13  A    between atoms: C_34  and  C_37
                            x       y       z     vdW  Elec       q    Type
                         _______ _______ _______ _____ _____    ______ ____

>  <TORSDO>
F 13

$$$$
=
 OpenBabel11072412183D

 38 42  0  0  1  0  0  0  0  0999 V2000
  162.1690  210.0770  150.6480 C   0  0  0  0  0  2  0  0  0  0  0  0
  162.6510  208.1010  148.1170 C   0  0  0  0  0  2  0  0  0  0  0  0
  161.1130  206.7490  151.2770 C   0  0  2  0  0  3  0  0  0  0  0  0
  161.0640  208.9540  152.6320 C   0  0  0  0  0  3  0  0  0  0  0  0
  160.1210  207.0930  146.8430 F   0  0  0  0  0  0  0  0  0  0  0  0
  161.0480  206.2480  147.4170 C   0  0  0  0  0  0  0  0  0  0  0  0
  161.7060  206.4250  149.9160 C   0  0  2  0  0  3  0  0  0  0  0  0
  161.4320  208.0030  151.5680 C   0  0  0  0  0  0  0  0  0  0  0  0
  162.4460  206.8600  147.2420 C   0  0  0  0  0  2  0  0  0  0  0  0
  162.2660  207.7650  149.5160 C   0  0  0  0  0  0  0  0  0  0  0  0
  162.1020  208.6150  150.5070 C   0  0  0  0  0  0  0  0  0  0  0  0
  160.6470  206.0100  148.8880 C   0  0  0  0  0  2  0  0  0  0  0  0
  161.4740  210.3190  152.0140 C   0  0  2  0  0  3  0  0  0  0  0  0
  161.0100  205.0390  146.7520 F   0  0  0  0  0  0  0  0  0  0  0  0
  161.4400  205.7100  153.8250 S   0  0  0  0  0  0  0  0  0  0  0  0
  160.4930  205.7790  152.2440 C   0  0  2  0  0  3  0  0  0  0  0  0
  161.3330  204.5830  152.3770 C   0  0  2  0  0  3  0  0  0  0  0  0
  160.4560  203.3830  152.7310 C   0  0  0  0  0  2  0  0  0  0  0  0
  160.7370  202.2650  151.7420 C   0  0  1  0  0  3  0  0  0  0  0  0
  161.2370  202.8300  150.4780 N   0  0  0  0  0  0  0  0  0  0  0  0
  162.1660  202.2290  151.4560 C   0  0  0  0  0  2  0  0  0  0  0  0
  159.3770  201.7050  149.4040 C   0  0  0  0  0  1  0  0  0  0  0  0
  160.8900  201.8590  149.4340 C   0  0  1  0  0  3  0  0  0  0  0  0
  161.3280  202.2710  148.1610 O   0  0  0  0  0  0  0  0  0  0  0  0
  160.8370  201.2900  147.2860 C   0  0  0  0  0  2  0  0  0  0  0  0
  160.8290  201.8110  145.8470 C   0  0  0  0  0  2  0  0  0  0  0  0
  159.6710  201.4140  145.1820 O   0  0  0  0  0  1  0  0  0  0  0  0
  160.2160  211.1520  151.8050 C   0  0  0  0  0  2  0  0  0  0  0  0
  159.2200  210.9320  152.9340 C   0  0  0  0  0  2  0  0  0  0  0  0
  159.3130  213.3360  152.8900 O   0  0  0  0  0  1  0  0  0  0  0  0
  158.7620  212.2480  153.5660 C   0  0  2  0  0  3  0  0  0  0  0  0
  159.1080  212.3290  155.0470 C   0  0  0  0  0  2  0  0  0  0  0  0
  160.3940  211.6950  155.3010 N   0  0  0  0  0  2  0  0  0  0  0  0
  159.5030  209.8910  156.4780 O   0  0  0  0  0  0  0  0  0  0  0  0
  160.5250  210.4710  156.0240 C   0  0  0  0  0  0  0  0  0  0  0  0
  163.0790  210.7050  156.0630 C   0  0  0  0  0  1  0  0  0  0  0  0
  161.9590  208.6940  156.6380 O   0  0  0  0  0  0  0  0  0  0  0  0
  161.8520  209.8890  156.2500 C   0  0  0  0  0  0  0  0  0  0  0  0
  1 13  1  0  0  0  0
  2 10  1  0  0  0  0
  3  8  1  1  0  0  0
  3 16  1  0  0  0  0
  5  6  1  0  0  0  0
  6 12  1  0  0  0  0
  7 12  1  6  0  0  0
  7  3  1  0  0  0  0
  8  4  2  0  0  0  0
  9  6  1  0  0  0  0
  9  2  1  0  0  0  0
 10  7  1  0  0  0  0
 10 11  2  0  0  0  0
 11  1  1  0  0  0  0
 11  8  1  0  0  0  0
 13 28  1  6  0  0  0
 13  4  1  0  0  0  0
 14  6  1  0  0  0  0
 16 17  1  0  0  0  0
 16 15  1  1  0  0  0
 17 18  1  1  0  0  0
 17 15  1  0  0  0  0
 19 18  1  1  0  0  0
 20 21  1  0  0  0  0
 20 19  1  0  0  0  0
 21 19  1  0  0  0  0
 23 22  1  6  0  0  0
 23 20  1  0  0  0  0
 24 23  1  0  0  0  0
 25 24  1  0  0  0  0
 26 25  1  0  0  0  0
 27 26  1  0  0  0  0
 28 29  1  0  0  0  0
 29 31  1  0  0  0  0
 31 30  1  6  0  0  0
 31 32  1  0  0  0  0
 32 33  1  0  0  0  0
 33 35  1  0  0  0  0
 35 38  1  0  0  0  0
 35 34  2  0  0  0  0
 36 38  1  0  0  0  0
 38 37  2  0  0  0  0
M  END
>  <MODEL>
6

>  <REMARK>
 VINA RESULT:      -7.1      1.973      9.087
  Name = 
  13 active torsions:
  status: ('A' for Active; 'I' for Inactive)
    1  A    between atoms: C_1  and  C_37
    2  A    between atoms: N_3  and  C_32
    3  A    between atoms: C_5  and  C_27
    4  A    between atoms: C_12  and  C_15
    5  A    between atoms: N_14  and  C_24
    6  A    between atoms: C_15  and  O_20
    7  A    between atoms: C_18  and  C_35
    8  A    between atoms: C_18  and  C_36
    9  A    between atoms: O_20  and  C_32
   10  A    between atoms: C_24  and  C_31
   11  A    between atoms: C_26  and  C_33
   12  A    between atoms: C_31  and  C_36
   13  A    between atoms: C_34  and  C_37
                            x       y       z     vdW  Elec       q    Type
                         _______ _______ _______ _____ _____    ______ ____

>  <TORSDO>
F 13

$$$$
=
 OpenBabel11072412183D

 38 42  0  0  1  0  0  0  0  0999 V2000
  160.8040  209.3260  154.0030 C   0  0  0  0  0  2  0  0  0  0  0  0
  158.6450  210.7200  155.9860 C   0  0  0  0  0  2  0  0  0  0  0  0
  159.6460  212.4550  152.7980 C   0  0  2  0  0  3  0  0  0  0  0  0
  161.2680  210.6510  151.8940 C   0  0  0  0  0  3  0  0  0  0  0  0
  155.8720  210.9220  154.8400 F   0  0  0  0  0  0  0  0  0  0  0  0
  156.6090  212.0330  155.1960 C   0  0  0  0  0  0  0  0  0  0  0  0
  158.9050  212.5610  154.1200 C   0  0  2  0  0  3  0  0  0  0  0  0
  160.4250  211.3830  152.8560 C   0  0  0  0  0  0  0  0  0  0  0  0
  157.5080  211.6660  156.3870 C   0  0  0  0  0  2  0  0  0  0  0  0
  159.3450  211.2920  154.8030 C   0  0  0  0  0  0  0  0  0  0  0  0
  160.2280  210.6780  154.0450 C   0  0  0  0  0  0  0  0  0  0  0  0
  157.3820  212.5250  153.9540 C   0  0  0  0  0  2  0  0  0  0  0  0
  161.4640  209.2810  152.5990 C   0  0  2  0  0  3  0  0  0  0  0  0
  155.7380  213.0280  155.5920 F   0  0  0  0  0  0  0  0  0  0  0  0
  158.1160  213.5490  150.7630 S   0  0  0  0  0  0  0  0  0  0  0  0
  159.6980  213.4900  151.7090 C   0  0  2  0  0  3  0  0  0  0  0  0
  159.7730  212.8440  150.3940 C   0  0  2  0  0  3  0  0  0  0  0  0
  160.5100  213.7590  149.4170 C   0  0  0  0  0  2  0  0  0  0  0  0
  161.0730  212.9160  148.2860 C   0  0  1  0  0  3  0  0  0  0  0  0
  161.5430  213.7880  147.1980 N   0  0  0  0  0  0  0  0  0  0  0  0
  162.4980  213.1900  148.1530 C   0  0  0  0  0  2  0  0  0  0  0  0
  160.0510  212.4520  145.8330 C   0  0  0  0  0  1  0  0  0  0  0  0
  161.4680  212.9840  145.9730 C   0  0  1  0  0  3  0  0  0  0  0  0
  161.7840  213.7370  144.8260 O   0  0  0  0  0  0  0  0  0  0  0  0
  161.2790  212.9790  143.7580 C   0  0  0  0  0  2  0  0  0  0  0  0
  162.4030  212.5970  142.7930 C   0  0  0  0  0  2  0  0  0  0  0  0
  161.9360  211.7300  141.8060 O   0  0  0  0  0  1  0  0  0  0  0  0
  160.7930  208.2040  151.7550 C   0  0  0  0  0  2  0  0  0  0  0  0
  161.8080  207.1850  151.2590 C   0  0  0  0  0  2  0  0  0  0  0  0
  161.5100  208.3150  149.1550 O   0  0  0  0  0  1  0  0  0  0  0  0
  161.8280  207.0860  149.7320 C   0  0  2  0  0  3  0  0  0  0  0  0
  160.8870  206.0090  149.2100 C   0  0  0  0  0  2  0  0  0  0  0  0
  161.4980  205.3010  148.0950 N   0  0  0  0  0  2  0  0  0  0  0  0
  160.3400  206.4770  146.4480 O   0  0  0  0  0  0  0  0  0  0  0  0
  161.1820  205.5850  146.7310 C   0  0  0  0  0  0  0  0  0  0  0  0
  163.2750  204.4920  145.7290 C   0  0  0  0  0  1  0  0  0  0  0  0
  161.1550  204.4320  144.6670 O   0  0  0  0  0  0  0  0  0  0  0  0
  161.8300  204.8300  145.6540 C   0  0  0  0  0  0  0  0  0  0  0  0
  1 11  1  0  0  0  0
  2  9  1  0  0  0  0
  3  8  1  1  0  0  0
  3  7  1  0  0  0  0
  4 13  1  0  0  0  0
  4  8  2  0  0  0  0
  5  6  1  0  0  0  0
  6 14  1  0  0  0  0
  6  9  1  0  0  0  0
  7 12  1  6  0  0  0
  7 10  1  0  0  0  0
  8 11  1  0  0  0  0
 10  2  1  0  0  0  0
 11 10  2  0  0  0  0
 12  6  1  0  0  0  0
 13 28  1  6  0  0  0
 13  1  1  0  0  0  0
 16 15  1  6  0  0  0
 16  3  1  0  0  0  0
 17 18  1  6  0  0  0
 17 15  1  0  0  0  0
 17 16  1  0  0  0  0
 19 18  1  1  0  0  0
 20 21  1  0  0  0  0
 20 19  1  0  0  0  0
 21 19  1  0  0  0  0
 23 22  1  6  0  0  0
 23 20  1  0  0  0  0
 24 23  1  0  0  0  0
 25 24  1  0  0  0  0
 26 25  1  0  0  0  0
 27 26  1  0  0  0  0
 29 28  1  0  0  0  0
 31 30  1  6  0  0  0
 31 29  1  0  0  0  0
 32 31  1  0  0  0  0
 33 32  1  0  0  0  0
 34 35  2  0  0  0  0
 35 33  1  0  0  0  0
 37 38  2  0  0  0  0
 38 36  1  0  0  0  0
 38 35  1  0  0  0  0
M  END
>  <MODEL>
7

>  <REMARK>
 VINA RESULT:      -7.0      4.593      7.714
  Name = 
  13 active torsions:
  status: ('A' for Active; 'I' for Inactive)
    1  A    between atoms: C_1  and  C_37
    2  A    between atoms: N_3  and  C_32
    3  A    between atoms: C_5  and  C_27
    4  A    between atoms: C_12  and  C_15
    5  A    between atoms: N_14  and  C_24
    6  A    between atoms: C_15  and  O_20
    7  A    between atoms: C_18  and  C_35
    8  A    between atoms: C_18  and  C_36
    9  A    between atoms: O_20  and  C_32
   10  A    between atoms: C_24  and  C_31
   11  A    between atoms: C_26  and  C_33
   12  A    between atoms: C_31  and  C_36
   13  A    between atoms: C_34  and  C_37
                            x       y       z     vdW  Elec       q    Type
                         _______ _______ _______ _____ _____    ______ ____

>  <TORSDO>
F 13

$$$$
=
 OpenBabel11072412183D

 38 42  0  0  1  0  0  0  0  0999 V2000
  161.8240  205.1650  152.3620 C   0  0  0  0  0  2  0  0  0  0  0  0
  161.5150  206.3350  155.3740 C   0  0  0  0  0  2  0  0  0  0  0  0
  160.8470  208.5750  152.4210 C   0  0  2  0  0  3  0  0  0  0  0  0
  161.2590  206.8380  150.5460 C   0  0  0  0  0  3  0  0  0  0  0  0
  158.6940  207.0460  156.1350 F   0  0  0  0  0  0  0  0  0  0  0  0
  159.7080  207.9810  156.0960 C   0  0  0  0  0  0  0  0  0  0  0  0
  161.0310  208.4830  153.9270 C   0  0  2  0  0  3  0  0  0  0  0  0
  161.2840  207.4400  151.8920 C   0  0  0  0  0  0  0  0  0  0  0  0
  161.0280  207.2900  156.4700 C   0  0  0  0  0  2  0  0  0  0  0  0
  161.5140  207.0640  154.0750 C   0  0  0  0  0  0  0  0  0  0  0  0
  161.6620  206.5310  152.8810 C   0  0  0  0  0  0  0  0  0  0  0  0
  159.7150  208.6350  154.6990 C   0  0  0  0  0  2  0  0  0  0  0  0
  161.5400  205.3400  150.8460 C   0  0  2  0  0  3  0  0  0  0  0  0
  159.4400  208.9570  157.0350 F   0  0  0  0  0  0  0  0  0  0  0  0
  161.9740  210.6540  150.9770 S   0  0  0  0  0  0  0  0  0  0  0  0
  160.4760  209.7990  151.6320 C   0  0  2  0  0  3  0  0  0  0  0  0
  160.8340  211.0130  152.3740 C   0  0  2  0  0  3  0  0  0  0  0  0
  159.8890  212.1470  151.9800 C   0  0  0  0  0  2  0  0  0  0  0  0
  159.5560  212.9580  153.2210 C   0  0  1  0  0  3  0  0  0  0  0  0
  158.5070  212.2760  153.9970 N   0  0  0  0  0  0  0  0  0  0  0  0
  159.9240  212.1900  154.4040 C   0  0  0  0  0  2  0  0  0  0  0  0
  156.8480  214.0360  153.8210 C   0  0  0  0  0  1  0  0  0  0  0  0
  157.8170  213.3270  154.7540 C   0  0  1  0  0  3  0  0  0  0  0  0
  157.0940  212.8040  155.8440 O   0  0  0  0  0  0  0  0  0  0  0  0
  155.9460  212.2400  155.2660 C   0  0  0  0  0  2  0  0  0  0  0  0
  155.7470  210.8050  155.7600 C   0  0  0  0  0  2  0  0  0  0  0  0
  155.2050  210.0070  154.7540 O   0  0  0  0  0  1  0  0  0  0  0  0
  160.3070  204.5320  150.4620 C   0  0  0  0  0  2  0  0  0  0  0  0
  160.6030  203.0390  150.4830 C   0  0  0  0  0  2  0  0  0  0  0  0
  159.6850  201.1040  149.3870 O   0  0  0  0  0  1  0  0  0  0  0  0
  160.2450  202.3600  149.1600 C   0  0  2  0  0  3  0  0  0  0  0  0
  161.4470  202.2320  148.2330 C   0  0  0  0  0  2  0  0  0  0  0  0
  161.5820  203.4270  147.4130 N   0  0  0  0  0  2  0  0  0  0  0  0
  160.8600  202.4070  145.4450 O   0  0  0  0  0  0  0  0  0  0  0  0
  161.2690  203.4500  146.0200 C   0  0  0  0  0  0  0  0  0  0  0  0
  162.3260  205.7700  145.7370 C   0  0  0  0  0  1  0  0  0  0  0  0
  160.8410  204.8270  144.1460 O   0  0  0  0  0  0  0  0  0  0  0  0
  161.4330  204.6870  145.2500 C   0  0  0  0  0  0  0  0  0  0  0  0
  1 11  1  0  0  0  0
  2  9  1  0  0  0  0
  3  8  1  6  0  0  0
  3  7  1  0  0  0  0
  4 13  1  0  0  0  0
  4  8  2  0  0  0  0
  6  5  1  0  0  0  0
  6  9  1  0  0  0  0
  6 14  1  0  0  0  0
  7 10  1  0  0  0  0
  7 12  1  1  0  0  0
  8 11  1  0  0  0  0
 10  2  1  0  0  0  0
 11 10  2  0  0  0  0
 12  6  1  0  0  0  0
 13 28  1  1  0  0  0
 13  1  1  0  0  0  0
 15 17  1  0  0  0  0
 16 15  1  6  0  0  0
 16 17  1  0  0  0  0
 16  3  1  0  0  0  0
 17 18  1  6  0  0  0
 19 18  1  6  0  0  0
 19 20  1  0  0  0  0
 19 21  1  0  0  0  0
 20 21  1  0  0  0  0
 20 23  1  0  0  0  0
 23 22  1  6  0  0  0
 23 24  1  0  0  0  0
 25 26  1  0  0  0  0
 25 24  1  0  0  0  0
 27 26  1  0  0  0  0
 28 29  1  0  0  0  0
 31 30  1  1  0  0  0
 31 29  1  0  0  0  0
 32 31  1  0  0  0  0
 33 32  1  0  0  0  0
 34 35  2  0  0  0  0
 35 33  1  0  0  0  0
 37 38  2  0  0  0  0
 38 36  1  0  0  0  0
 38 35  1  0  0  0  0
M  END
>  <MODEL>
8

>  <REMARK>
 VINA RESULT:      -7.0      2.654      3.890
  Name = 
  13 active torsions:
  status: ('A' for Active; 'I' for Inactive)
    1  A    between atoms: C_1  and  C_37
    2  A    between atoms: N_3  and  C_32
    3  A    between atoms: C_5  and  C_27
    4  A    between atoms: C_12  and  C_15
    5  A    between atoms: N_14  and  C_24
    6  A    between atoms: C_15  and  O_20
    7  A    between atoms: C_18  and  C_35
    8  A    between atoms: C_18  and  C_36
    9  A    between atoms: O_20  and  C_32
   10  A    between atoms: C_24  and  C_31
   11  A    between atoms: C_26  and  C_33
   12  A    between atoms: C_31  and  C_36
   13  A    between atoms: C_34  and  C_37
                            x       y       z     vdW  Elec       q    Type
                         _______ _______ _______ _____ _____    ______ ____

>  <TORSDO>
F 13

$$$$
=
 OpenBabel11072412183D

 38 42  0  0  1  0  0  0  0  0999 V2000
  161.9590  210.3430  150.8900 C   0  0  0  0  0  2  0  0  0  0  0  0
  162.6700  208.4570  148.3460 C   0  0  0  0  0  2  0  0  0  0  0  0
  161.0930  206.9420  151.4120 C   0  0  2  0  0  3  0  0  0  0  0  0
  160.8470  209.1110  152.8050 C   0  0  0  0  0  3  0  0  0  0  0  0
  160.2630  207.3190  146.9470 F   0  0  0  0  0  0  0  0  0  0  0  0
  161.2190  206.5220  147.5440 C   0  0  0  0  0  0  0  0  0  0  0  0
  161.7600  206.6860  150.0710 C   0  0  2  0  0  3  0  0  0  0  0  0
  161.3190  208.2070  151.7390 C   0  0  0  0  0  0  0  0  0  0  0  0
  162.5810  207.2250  147.4390 C   0  0  0  0  0  2  0  0  0  0  0  0
  162.2500  208.0660  149.7200 C   0  0  0  0  0  0  0  0  0  0  0  0
  161.9910  208.8830  150.7190 C   0  0  0  0  0  0  0  0  0  0  0  0
  160.7730  206.2270  148.9910 C   0  0  0  0  0  2  0  0  0  0  0  0
  161.1950  210.5120  152.2310 C   0  0  2  0  0  3  0  0  0  0  0  0
  161.2850  205.3270  146.8540 F   0  0  0  0  0  0  0  0  0  0  0  0
  161.4890  205.7440  153.8790 S   0  0  0  0  0  0  0  0  0  0  0  0
  160.4970  205.9150  152.3330 C   0  0  2  0  0  3  0  0  0  0  0  0
  161.3350  204.7110  152.3660 C   0  0  2  0  0  3  0  0  0  0  0  0
  160.4640  203.4920  152.6690 C   0  0  0  0  0  2  0  0  0  0  0  0
  160.7910  202.3980  151.6670 C   0  0  1  0  0  3  0  0  0  0  0  0
  161.2490  202.9980  150.4030 N   0  0  0  0  0  0  0  0  0  0  0  0
  162.2170  202.4370  151.3680 C   0  0  0  0  0  2  0  0  0  0  0  0
  159.4600  201.6830  149.4310 C   0  0  0  0  0  1  0  0  0  0  0  0
  160.9410  202.0190  149.3550 C   0  0  1  0  0  3  0  0  0  0  0  0
  161.2270  202.5140  148.0680 O   0  0  0  0  0  0  0  0  0  0  0  0
  160.5370  201.6540  147.2000 C   0  0  0  0  0  2  0  0  0  0  0  0
  160.8060  202.0360  145.7420 C   0  0  0  0  0  2  0  0  0  0  0  0
  159.9410  201.3590  144.8850 O   0  0  0  0  0  1  0  0  0  0  0  0
  159.8950  211.2680  151.9850 C   0  0  0  0  0  2  0  0  0  0  0  0
  160.1690  212.7060  151.5690 C   0  0  0  0  0  2  0  0  0  0  0  0
  157.7730  212.8240  151.7660 O   0  0  0  0  0  1  0  0  0  0  0  0
  158.8860  213.4580  151.2120 C   0  0  2  0  0  3  0  0  0  0  0  0
  158.7020  213.6080  149.7080 C   0  0  0  0  0  2  0  0  0  0  0  0
  159.9870  213.5140  149.0310 N   0  0  0  0  0  2  0  0  0  0  0  0
  159.1160  212.6120  147.0650 O   0  0  0  0  0  0  0  0  0  0  0  0
  160.1280  213.0070  147.7030 C   0  0  0  0  0  0  0  0  0  0  0  0
  162.6840  213.0530  147.9030 C   0  0  0  0  0  1  0  0  0  0  0  0
  161.5580  212.7350  145.8410 O   0  0  0  0  0  0  0  0  0  0  0  0
  161.4540  212.9340  147.0810 C   0  0  0  0  0  0  0  0  0  0  0  0
  1 13  1  0  0  0  0
  2 10  1  0  0  0  0
  3  8  1  1  0  0  0
  3 16  1  0  0  0  0
  5  6  1  0  0  0  0
  6 12  1  0  0  0  0
  7 12  1  6  0  0  0
  7  3  1  0  0  0  0
  8  4  2  0  0  0  0
  9  6  1  0  0  0  0
  9  2  1  0  0  0  0
 10  7  1  0  0  0  0
 10 11  2  0  0  0  0
 11  1  1  0  0  0  0
 11  8  1  0  0  0  0
 13 28  1  6  0  0  0
 13  4  1  0  0  0  0
 14  6  1  0  0  0  0
 16 17  1  0  0  0  0
 16 15  1  1  0  0  0
 17 18  1  1  0  0  0
 17 15  1  0  0  0  0
 19 18  1  1  0  0  0
 20 21  1  0  0  0  0
 20 19  1  0  0  0  0
 21 19  1  0  0  0  0
 23 22  1  6  0  0  0
 23 20  1  0  0  0  0
 24 23  1  0  0  0  0
 25 24  1  0  0  0  0
 26 25  1  0  0  0  0
 27 26  1  0  0  0  0
 29 28  1  0  0  0  0
 31 29  1  0  0  0  0
 31 30  1  6  0  0  0
 32 31  1  0  0  0  0
 33 32  1  0  0  0  0
 34 35  2  0  0  0  0
 35 33  1  0  0  0  0
 37 38  2  0  0  0  0
 38 35  1  0  0  0  0
 38 36  1  0  0  0  0
M  END
>  <MODEL>
9

>  <REMARK>
 VINA RESULT:      -6.9      3.049      8.528
  Name = 
  13 active torsions:
  status: ('A' for Active; 'I' for Inactive)
    1  A    between atoms: C_1  and  C_37
    2  A    between atoms: N_3  and  C_32
    3  A    between atoms: C_5  and  C_27
    4  A    between atoms: C_12  and  C_15
    5  A    between atoms: N_14  and  C_24
    6  A    between atoms: C_15  and  O_20
    7  A    between atoms: C_18  and  C_35
    8  A    between atoms: C_18  and  C_36
    9  A    between atoms: O_20  and  C_32
   10  A    between atoms: C_24  and  C_31
   11  A    between atoms: C_26  and  C_33
   12  A    between atoms: C_31  and  C_36
   13  A    between atoms: C_34  and  C_37
                            x       y       z     vdW  Elec       q    Type
                         _______ _______ _______ _____ _____    ______ ____

>  <TORSDO>
F 13

$$$$
