=
 OpenBabel11072412463D

 55 57  0  0  1  0  0  0  0  0999 V2000
  160.8240  206.7930  152.1960 C   0  0  0  0  0  0  0  0  0  0  0  0
  161.2360  207.7380  154.7990 C   0  0  0  0  0  0  0  0  0  0  0  0
  160.4380  208.0910  152.5400 C   0  0  0  0  0  3  0  0  0  0  0  0
  160.6330  208.5760  153.8440 C   0  0  0  0  0  0  0  0  0  0  0  0
  161.6140  206.4360  154.4550 C   0  0  0  0  0  3  0  0  0  0  0  0
  161.4050  205.9630  153.1590 C   0  0  0  0  0  3  0  0  0  0  0  0
  161.6200  208.5580  157.2330 N   0  0  0  0  0  0  0  0  0  0  0  0
  161.4490  208.1900  156.1480 C   0  0  0  0  0  0  0  0  0  0  0  0
  160.6100  206.2860  150.8070 C   0  0  0  0  0  2  0  0  0  0  0  0
  161.8800  206.2810  149.9460 C   0  0  1  0  0  3  0  0  0  0  0  0
  161.8150  205.3590  148.7210 C   0  0  2  0  0  3  0  0  0  0  0  0
  160.9090  205.8630  147.7860 O   0  0  0  0  0  1  0  0  0  0  0  0
  161.1870  203.7120  150.3330 O   0  0  0  0  0  0  0  0  0  0  0  0
  161.4110  203.9760  149.1190 C   0  0  0  0  0  0  0  0  0  0  0  0
  161.1940  201.6800  148.2640 C   0  0  0  0  0  0  0  0  0  0  0  0
  161.1440  201.0450  149.6180 C   0  0  0  0  0  1  0  0  0  0  0  0
  161.3190  202.9670  148.1020 N   0  0  0  0  0  0  0  0  0  0  0  0
  161.7220  199.7120  147.0450 O   0  0  0  0  0  1  0  0  0  0  0  0
  160.3970  201.2290  145.9590 O   0  0  0  0  0  0  0  0  0  0  0  0
  161.1210  200.8200  147.0720 C   0  0  0  0  0  0  0  0  0  0  0  0
  162.3550  207.6010  149.6540 O   0  0  0  0  0  0  0  0  0  0  0  0
  161.1310  208.0430  147.7290 O   0  0  0  0  0  0  0  0  0  0  0  0
  161.7910  208.4730  148.7130 C   0  0  0  0  0  0  0  0  0  0  0  0
  162.1520  211.0720  148.9900 C   0  0  0  0  0  0  0  0  0  0  0  0
  161.9880  209.8850  148.8630 C   0  0  0  0  0  0  0  0  0  0  0  0
  162.3460  212.4940  149.1410 C   0  0  0  0  0  3  0  0  0  0  0  0
  162.2850  213.3190  148.1400 N   0  0  0  0  0  0  0  0  0  0  0  0
  163.3400  212.7530  146.0110 C   0  0  0  0  0  1  0  0  0  0  0  0
  162.0260  212.9220  146.7600 C   0  0  2  0  0  3  0  0  0  0  0  0
  161.1850  213.9900  146.0840 C   0  0  0  0  0  2  0  0  0  0  0  0
  160.4870  213.4390  145.0090 O   0  0  0  0  0  1  0  0  0  0  0  0
  160.2530  209.8790  154.2140 O   0  0  0  0  0  0  0  0  0  0  0  0
  161.7050  211.5590  154.8870 O   0  0  0  0  0  0  0  0  0  0  0  0
  160.9880  211.0510  153.9810 C   0  0  0  0  0  0  0  0  0  0  0  0
  159.8240  212.0370  152.0430 N   0  0  0  0  0  0  0  0  0  0  0  0
  160.9160  211.6580  152.6390 C   0  0  0  0  0  3  0  0  0  0  0  0
  158.4850  211.9290  152.6050 C   0  0  0  0  0  2  0  0  0  0  0  0
  157.8780  213.3150  152.7970 C   0  0  2  0  0  3  0  0  0  0  0  0
  156.9970  213.8070  150.5590 N   0  0  0  0  0  2  0  0  0  0  0  0
  157.4920  214.2540  149.2710 C   0  0  1  0  0  3  0  0  0  0  0  0
  157.9910  214.1980  151.5500 C   0  0  2  0  0  3  0  0  0  0  0  0
  159.6650  214.1730  150.8130 S   0  0  0  0  0  0  0  0  0  0  0  0
  158.9550  213.8860  149.1780 C   0  0  0  0  0  2  0  0  0  0  0  0
  156.7020  213.5750  148.1630 C   0  0  0  0  0  2  0  0  0  0  0  0
  157.4010  214.4290  145.9530 C   0  0  0  0  0  1  0  0  0  0  0  0
  157.5720  213.3020  146.9480 C   0  0  2  0  0  3  0  0  0  0  0  0
  157.1930  212.1010  146.3460 O   0  0  0  0  0  1  0  0  0  0  0  0
  158.6550  214.1410  154.2200 S   0  0  0  0  0  0  0  0  0  0  0  0
  157.2380  213.3320  156.4950 C   0  0  0  0  0  0  0  0  0  0  0  0
  154.8580  213.7050  156.7710 C   0  0  0  0  0  3  0  0  0  0  0  0
  156.0700  213.2090  157.2560 C   0  0  0  0  0  3  0  0  0  0  0  0
  157.1880  213.9610  155.2370 C   0  0  0  0  0  0  0  0  0  0  0  0
  154.8070  214.3250  155.5210 C   0  0  0  0  0  3  0  0  0  0  0  0
  155.9690  214.4530  154.7560 C   0  0  0  0  0  3  0  0  0  0  0  0
  158.7370  212.6940  157.1500 Cl  0  0  0  0  0  0  0  0  0  0  0  0
  1  3  2  0  0  0  0
  1  6  1  0  0  0  0
  2  8  1  0  0  0  0
  3  4  1  0  0  0  0
  4 32  1  0  0  0  0
  4  2  2  0  0  0  0
  5  2  1  0  0  0  0
  6  5  2  0  0  0  0
  8  7  3  0  0  0  0
  9  1  1  0  0  0  0
 10  9  1  6  0  0  0
 11 12  1  6  0  0  0
 11 14  1  0  0  0  0
 11 10  1  0  0  0  0
 14 13  2  0  0  0  0
 15 16  1  0  0  0  0
 17 15  2  0  0  0  0
 17 14  1  0  0  0  0
 18 20  1  0  0  0  0
 19 20  2  0  0  0  0
 20 15  1  0  0  0  0
 21 10  1  0  0  0  0
 22 23  2  0  0  0  0
 23 25  1  0  0  0  0
 23 21  1  0  0  0  0
 24 26  1  0  0  0  0
 25 24  3  0  0  0  0
 27 26  2  0  0  0  0
 29 28  1  6  0  0  0
 29 27  1  0  0  0  0
 30 29  1  0  0  0  0
 31 30  1  0  0  0  0
 34 32  1  0  0  0  0
 34 33  2  0  0  0  0
 35 37  1  0  0  0  0
 35 36  2  0  0  0  0
 36 34  1  0  0  0  0
 38 37  1  6  0  0  0
 38 48  1  0  0  0  0
 39 41  1  0  0  0  0
 40 44  1  6  0  0  0
 40 39  1  0  0  0  0
 41 38  1  1  0  0  0
 42 41  1  0  0  0  0
 43 40  1  0  0  0  0
 43 42  1  0  0  0  0
 46 45  1  6  0  0  0
 46 44  1  0  0  0  0
 47 46  1  0  0  0  0
 48 52  1  0  0  0  0
 49 55  1  0  0  0  0
 49 51  1  0  0  0  0
 50 51  2  0  0  0  0
 52 49  2  0  0  0  0
 53 50  1  0  0  0  0
 54 52  1  0  0  0  0
 54 53  2  0  0  0  0
M  END
>  <MODEL>
1

>  <REMARK>
 VINA RESULT:      -5.3      0.000      0.000
  Name = 
  23 active torsions:
  status: ('A' for Active; 'I' for Inactive)
    1  A    between atoms: N_1  and  C_44
    2  A    between atoms: C_3  and  C_40
    3  A    between atoms: CA_4  and  C_51
    4  A    between atoms: C_5  and  C_37
    5  A    between atoms: O_8  and  C_37
    6  A    between atoms: O_8  and  C_47
    7  A    between atoms: S_10  and  C_22
    8  A    between atoms: S_10  and  C_25
    9  A    between atoms: C_11  and  C_12
   10  A    between atoms: C_11  and  C_34
   11  A    between atoms: C_12  and  N_42
   12  A    between atoms: C_13  and  C_27
   13  A    between atoms: C_13  and  C_34
   14  A    between atoms: C_14  and  C_49
   15  A    between atoms: C_18  and  O_38
   16  A    between atoms: C_18  and  C_48
   17  A    between atoms: C_20  and  C_49
   18  A    between atoms: C_22  and  C_26
   19  A    between atoms: C_22  and  C_44
   20  A    between atoms: C_23  and  CA_29
   21  A    between atoms: CA_29  and  N_55
   22  A    between atoms: C_34  and  O_38
   23  A    between atoms: C_36  and  C_54
                            x       y       z     vdW  Elec       q    Type
                         _______ _______ _______ _____ _____    ______ ____

>  <TORSDO>
F 23

$$$$
=
 OpenBabel11072412463D

 55 57  0  0  1  0  0  0  0  0999 V2000
  160.7260  205.3700  147.3120 C   0  0  0  0  0  0  0  0  0  0  0  0
  161.7180  205.7650  149.9000 C   0  0  0  0  0  0  0  0  0  0  0  0
  160.5660  206.6060  147.9430 C   0  0  0  0  0  3  0  0  0  0  0  0
  161.0530  206.8170  149.2440 C   0  0  0  0  0  0  0  0  0  0  0  0
  161.8700  204.5260  149.2700 C   0  0  0  0  0  3  0  0  0  0  0  0
  161.3730  204.3270  147.9810 C   0  0  0  0  0  3  0  0  0  0  0  0
  162.6340  206.0660  152.3110 N   0  0  0  0  0  0  0  0  0  0  0  0
  162.2270  205.9330  151.2360 C   0  0  0  0  0  0  0  0  0  0  0  0
  160.2030  205.1560  145.9290 C   0  0  0  0  0  2  0  0  0  0  0  0
  161.0120  204.1430  145.1090 C   0  0  1  0  0  3  0  0  0  0  0  0
  160.2160  202.9140  144.6500 C   0  0  2  0  0  3  0  0  0  0  0  0
  158.8490  203.1990  144.6440 O   0  0  0  0  0  1  0  0  0  0  0  0
  161.0250  200.7080  145.0750 O   0  0  0  0  0  0  0  0  0  0  0  0
  160.4840  201.7460  145.5440 C   0  0  0  0  0  0  0  0  0  0  0  0
  160.5520  201.1490  147.9290 C   0  0  0  0  0  0  0  0  0  0  0  0
  161.6230  200.1150  147.7690 C   0  0  0  0  0  1  0  0  0  0  0  0
  160.0840  201.8280  146.9210 N   0  0  0  0  0  0  0  0  0  0  0  0
  160.7460  201.6620  150.2390 O   0  0  0  0  0  1  0  0  0  0  0  0
  158.6180  201.3070  149.4740 O   0  0  0  0  0  0  0  0  0  0  0  0
  159.9900  201.3900  149.2680 C   0  0  0  0  0  0  0  0  0  0  0  0
  161.7760  204.7620  144.0660 O   0  0  0  0  0  0  0  0  0  0  0  0
  160.8820  206.9070  144.0850 O   0  0  0  0  0  0  0  0  0  0  0  0
  161.4690  205.9860  143.4560 C   0  0  0  0  0  0  0  0  0  0  0  0
  162.1000  206.3510  140.9200 C   0  0  0  0  0  0  0  0  0  0  0  0
  161.8120  206.1850  142.0780 C   0  0  0  0  0  0  0  0  0  0  0  0
  162.4430  206.5480  139.5330 C   0  0  0  0  0  3  0  0  0  0  0  0
  162.0680  207.5940  138.8600 N   0  0  0  0  0  0  0  0  0  0  0  0
  160.2260  209.1260  138.3880 C   0  0  0  0  0  1  0  0  0  0  0  0
  161.2610  208.6800  139.4090 C   0  0  2  0  0  3  0  0  0  0  0  0
  162.1680  209.8450  139.7610 C   0  0  0  0  0  2  0  0  0  0  0  0
  161.4550  210.8060  140.4790 O   0  0  0  0  0  1  0  0  0  0  0  0
  160.9040  208.0520  149.9000 O   0  0  0  0  0  0  0  0  0  0  0  0
  161.8960  209.7400  148.6540 O   0  0  0  0  0  0  0  0  0  0  0  0
  161.7480  209.1640  149.7680 C   0  0  0  0  0  0  0  0  0  0  0  0
  161.8720  210.2740  151.9660 N   0  0  0  0  0  0  0  0  0  0  0  0
  162.4400  209.6550  150.9730 C   0  0  0  0  0  3  0  0  0  0  0  0
  160.4520  210.5820  152.0560 C   0  0  0  0  0  2  0  0  0  0  0  0
  160.0970  211.0410  153.4660 C   0  0  2  0  0  3  0  0  0  0  0  0
  158.3980  212.5440  154.4040 N   0  0  0  0  0  2  0  0  0  0  0  0
  157.6210  213.6980  153.9910 C   0  0  1  0  0  3  0  0  0  0  0  0
  159.5470  212.4710  153.5120 C   0  0  2  0  0  3  0  0  0  0  0  0
  159.1070  213.1140  151.8570 S   0  0  0  0  0  0  0  0  0  0  0  0
  157.5090  213.6730  152.4850 C   0  0  0  0  0  2  0  0  0  0  0  0
  156.2410  213.6320  154.6280 C   0  0  0  0  0  2  0  0  0  0  0  0
  156.0790  211.3260  155.5010 C   0  0  0  0  0  1  0  0  0  0  0  0
  156.2510  212.7790  155.8850 C   0  0  2  0  0  3  0  0  0  0  0  0
  155.2050  213.1560  156.7280 O   0  0  0  0  0  1  0  0  0  0  0  0
  161.5510  210.8960  154.5500 S   0  0  0  0  0  0  0  0  0  0  0  0
  160.1520  209.4480  156.4960 C   0  0  0  0  0  0  0  0  0  0  0  0
  160.0110  207.0280  156.4920 C   0  0  0  0  0  3  0  0  0  0  0  0
  159.6940  208.2590  157.0710 C   0  0  0  0  0  3  0  0  0  0  0  0
  160.9340  209.4010  155.3260 C   0  0  0  0  0  0  0  0  0  0  0  0
  160.7900  206.9800  155.3350 C   0  0  0  0  0  3  0  0  0  0  0  0
  161.2510  208.1640  154.7530 C   0  0  0  0  0  3  0  0  0  0  0  0
  159.7250  210.9700  157.2600 Cl  0  0  0  0  0  0  0  0  0  0  0  0
  1  3  2  0  0  0  0
  1  6  1  0  0  0  0
  2  8  1  0  0  0  0
  3  4  1  0  0  0  0
  4 32  1  0  0  0  0
  4  2  2  0  0  0  0
  5  2  1  0  0  0  0
  6  5  2  0  0  0  0
  8  7  3  0  0  0  0
  9  1  1  0  0  0  0
 10  9  1  6  0  0  0
 11 12  1  1  0  0  0
 11 10  1  0  0  0  0
 11 14  1  0  0  0  0
 13 14  2  0  0  0  0
 14 17  1  0  0  0  0
 15 20  1  0  0  0  0
 16 15  1  0  0  0  0
 17 15  2  0  0  0  0
 20 19  2  0  0  0  0
 20 18  1  0  0  0  0
 21 10  1  0  0  0  0
 23 21  1  0  0  0  0
 23 22  2  0  0  0  0
 24 25  3  0  0  0  0
 25 23  1  0  0  0  0
 26 24  1  0  0  0  0
 27 29  1  0  0  0  0
 27 26  2  0  0  0  0
 29 28  1  6  0  0  0
 29 30  1  0  0  0  0
 30 31  1  0  0  0  0
 33 34  2  0  0  0  0
 34 32  1  0  0  0  0
 34 36  1  0  0  0  0
 35 37  1  0  0  0  0
 36 35  2  0  0  0  0
 38 37  1  6  0  0  0
 38 48  1  0  0  0  0
 40 39  1  0  0  0  0
 40 44  1  1  0  0  0
 41 38  1  6  0  0  0
 41 39  1  0  0  0  0
 42 43  1  0  0  0  0
 42 41  1  0  0  0  0
 43 40  1  0  0  0  0
 44 46  1  0  0  0  0
 46 45  1  6  0  0  0
 46 47  1  0  0  0  0
 48 52  1  0  0  0  0
 49 51  1  0  0  0  0
 49 55  1  0  0  0  0
 50 51  2  0  0  0  0
 52 49  2  0  0  0  0
 53 50  1  0  0  0  0
 54 52  1  0  0  0  0
 54 53  2  0  0  0  0
M  END
>  <MODEL>
2

>  <REMARK>
 VINA RESULT:      -5.1      3.860      6.059
  Name = 
  23 active torsions:
  status: ('A' for Active; 'I' for Inactive)
    1  A    between atoms: N_1  and  C_44
    2  A    between atoms: C_3  and  C_40
    3  A    between atoms: CA_4  and  C_51
    4  A    between atoms: C_5  and  C_37
    5  A    between atoms: O_8  and  C_37
    6  A    between atoms: O_8  and  C_47
    7  A    between atoms: S_10  and  C_22
    8  A    between atoms: S_10  and  C_25
    9  A    between atoms: C_11  and  C_12
   10  A    between atoms: C_11  and  C_34
   11  A    between atoms: C_12  and  N_42
   12  A    between atoms: C_13  and  C_27
   13  A    between atoms: C_13  and  C_34
   14  A    between atoms: C_14  and  C_49
   15  A    between atoms: C_18  and  O_38
   16  A    between atoms: C_18  and  C_48
   17  A    between atoms: C_20  and  C_49
   18  A    between atoms: C_22  and  C_26
   19  A    between atoms: C_22  and  C_44
   20  A    between atoms: C_23  and  CA_29
   21  A    between atoms: CA_29  and  N_55
   22  A    between atoms: C_34  and  O_38
   23  A    between atoms: C_36  and  C_54
                            x       y       z     vdW  Elec       q    Type
                         _______ _______ _______ _____ _____    ______ ____

>  <TORSDO>
F 23

$$$$
=
 OpenBabel11072412463D

 55 57  0  0  1  0  0  0  0  0999 V2000
  161.6030  205.5270  150.8580 C   0  0  0  0  0  0  0  0  0  0  0  0
  160.8630  206.3790  153.4210 C   0  0  0  0  0  0  0  0  0  0  0  0
  161.2300  206.8550  151.0740 C   0  0  0  0  0  3  0  0  0  0  0  0
  160.8500  207.2960  152.3530 C   0  0  0  0  0  0  0  0  0  0  0  0
  161.2290  205.0470  153.2000 C   0  0  0  0  0  3  0  0  0  0  0  0
  161.5940  204.6210  151.9220 C   0  0  0  0  0  3  0  0  0  0  0  0
  160.1670  207.1120  155.8120 N   0  0  0  0  0  0  0  0  0  0  0  0
  160.4760  206.7840  154.7460 C   0  0  0  0  0  0  0  0  0  0  0  0
  162.0020  205.0680  149.4940 C   0  0  0  0  0  2  0  0  0  0  0  0
  161.4500  205.9410  148.3590 C   0  0  1  0  0  3  0  0  0  0  0  0
  160.9190  207.3080  148.8080 C   0  0  2  0  0  3  0  0  0  0  0  0
  159.8630  207.7090  147.9870 O   0  0  0  0  0  1  0  0  0  0  0  0
  163.0830  208.1320  149.3920 O   0  0  0  0  0  0  0  0  0  0  0  0
  162.0030  208.3360  148.7720 C   0  0  0  0  0  0  0  0  0  0  0  0
  161.9770  210.7760  148.4580 C   0  0  0  0  0  0  0  0  0  0  0  0
  162.5000  211.0840  149.8270 C   0  0  0  0  0  1  0  0  0  0  0  0
  161.7710  209.5560  148.0500 N   0  0  0  0  0  0  0  0  0  0  0  0
  162.3990  212.9130  147.5120 O   0  0  0  0  0  1  0  0  0  0  0  0
  160.5420  211.8270  146.7300 O   0  0  0  0  0  0  0  0  0  0  0  0
  161.6630  211.8900  147.5490 C   0  0  0  0  0  0  0  0  0  0  0  0
  162.3320  206.0030  147.2310 O   0  0  0  0  0  0  0  0  0  0  0  0
  162.5170  205.6860  144.9360 O   0  0  0  0  0  0  0  0  0  0  0  0
  162.2150  205.2260  146.0690 C   0  0  0  0  0  0  0  0  0  0  0  0
  161.3020  202.7580  146.2630 C   0  0  0  0  0  0  0  0  0  0  0  0
  161.7200  203.8850  146.1740 C   0  0  0  0  0  0  0  0  0  0  0  0
  160.8000  201.4100  146.3680 C   0  0  0  0  0  3  0  0  0  0  0  0
  160.3660  200.9100  147.4850 N   0  0  0  0  0  0  0  0  0  0  0  0
  161.6140  201.3540  149.5370 C   0  0  0  0  0  1  0  0  0  0  0  0
  160.3390  201.6300  148.7540 C   0  0  2  0  0  3  0  0  0  0  0  0
  159.1360  201.1750  149.5600 C   0  0  0  0  0  2  0  0  0  0  0  0
  157.9680  201.3470  148.8150 O   0  0  0  0  0  1  0  0  0  0  0  0
  160.4710  208.6290  152.5960 O   0  0  0  0  0  0  0  0  0  0  0  0
  162.4680  209.8040  152.7060 O   0  0  0  0  0  0  0  0  0  0  0  0
  161.2900  209.6360  153.1260 C   0  0  0  0  0  0  0  0  0  0  0  0
  160.1320  211.6470  153.9600 N   0  0  0  0  0  0  0  0  0  0  0  0
  160.7250  210.5090  154.1710 C   0  0  0  0  0  3  0  0  0  0  0  0
  159.9210  212.2490  152.6520 C   0  0  0  0  0  2  0  0  0  0  0  0
  158.6890  213.1480  152.6740 C   0  0  2  0  0  3  0  0  0  0  0  0
  157.7190  213.6350  150.4720 N   0  0  0  0  0  2  0  0  0  0  0  0
  158.1180  214.2520  149.2210 C   0  0  1  0  0  3  0  0  0  0  0  0
  158.6360  214.1240  151.4930 C   0  0  2  0  0  3  0  0  0  0  0  0
  160.2830  214.4440  150.7650 S   0  0  0  0  0  0  0  0  0  0  0  0
  159.6220  214.1540  149.1090 C   0  0  0  0  0  2  0  0  0  0  0  0
  157.4510  213.5250  148.0640 C   0  0  0  0  0  2  0  0  0  0  0  0
  155.8720  214.3420  146.3480 C   0  0  0  0  0  1  0  0  0  0  0  0
  157.2940  214.4320  146.8550 C   0  0  2  0  0  3  0  0  0  0  0  0
  158.1670  214.0340  145.8410 O   0  0  0  0  0  1  0  0  0  0  0  0
  158.6180  214.0640  154.2440 S   0  0  0  0  0  0  0  0  0  0  0  0
  157.7410  212.3640  156.2890 C   0  0  0  0  0  0  0  0  0  0  0  0
  155.7530  210.9900  156.1020 C   0  0  0  0  0  3  0  0  0  0  0  0
  156.8570  211.4290  156.8360 C   0  0  0  0  0  3  0  0  0  0  0  0
  157.5130  212.8670  154.9940 C   0  0  0  0  0  0  0  0  0  0  0  0
  155.5280  211.4830  154.8150 C   0  0  0  0  0  3  0  0  0  0  0  0
  156.4060  212.4190  154.2630 C   0  0  0  0  0  3  0  0  0  0  0  0
  159.1130  212.8860  157.2530 Cl  0  0  0  0  0  0  0  0  0  0  0  0
  1  3  2  0  0  0  0
  1  6  1  0  0  0  0
  2  8  1  0  0  0  0
  3  4  1  0  0  0  0
  4 32  1  0  0  0  0
  4  2  2  0  0  0  0
  5  2  1  0  0  0  0
  6  5  2  0  0  0  0
  8  7  3  0  0  0  0
  9  1  1  0  0  0  0
 10 11  1  0  0  0  0
 10  9  1  1  0  0  0
 11 12  1  6  0  0  0
 14 11  1  0  0  0  0
 14 13  2  0  0  0  0
 15 16  1  0  0  0  0
 17 15  2  0  0  0  0
 17 14  1  0  0  0  0
 18 20  1  0  0  0  0
 19 20  2  0  0  0  0
 20 15  1  0  0  0  0
 21 10  1  0  0  0  0
 22 23  2  0  0  0  0
 23 25  1  0  0  0  0
 23 21  1  0  0  0  0
 24 26  1  0  0  0  0
 25 24  3  0  0  0  0
 26 27  2  0  0  0  0
 27 29  1  0  0  0  0
 29 28  1  1  0  0  0
 29 30  1  0  0  0  0
 31 30  1  0  0  0  0
 32 34  1  0  0  0  0
 33 34  2  0  0  0  0
 34 36  1  0  0  0  0
 35 36  2  0  0  0  0
 37 35  1  0  0  0  0
 38 37  1  1  0  0  0
 38 48  1  0  0  0  0
 39 41  1  0  0  0  0
 40 44  1  6  0  0  0
 40 39  1  0  0  0  0
 41 38  1  1  0  0  0
 42 41  1  0  0  0  0
 43 40  1  0  0  0  0
 43 42  1  0  0  0  0
 46 45  1  6  0  0  0
 46 44  1  0  0  0  0
 47 46  1  0  0  0  0
 48 52  1  0  0  0  0
 49 51  1  0  0  0  0
 49 55  1  0  0  0  0
 50 51  2  0  0  0  0
 52 49  2  0  0  0  0
 53 50  1  0  0  0  0
 54 53  2  0  0  0  0
 54 52  1  0  0  0  0
M  END
>  <MODEL>
3

>  <REMARK>
 VINA RESULT:      -4.5      1.819      5.850
  Name = 
  23 active torsions:
  status: ('A' for Active; 'I' for Inactive)
    1  A    between atoms: N_1  and  C_44
    2  A    between atoms: C_3  and  C_40
    3  A    between atoms: CA_4  and  C_51
    4  A    between atoms: C_5  and  C_37
    5  A    between atoms: O_8  and  C_37
    6  A    between atoms: O_8  and  C_47
    7  A    between atoms: S_10  and  C_22
    8  A    between atoms: S_10  and  C_25
    9  A    between atoms: C_11  and  C_12
   10  A    between atoms: C_11  and  C_34
   11  A    between atoms: C_12  and  N_42
   12  A    between atoms: C_13  and  C_27
   13  A    between atoms: C_13  and  C_34
   14  A    between atoms: C_14  and  C_49
   15  A    between atoms: C_18  and  O_38
   16  A    between atoms: C_18  and  C_48
   17  A    between atoms: C_20  and  C_49
   18  A    between atoms: C_22  and  C_26
   19  A    between atoms: C_22  and  C_44
   20  A    between atoms: C_23  and  CA_29
   21  A    between atoms: CA_29  and  N_55
   22  A    between atoms: C_34  and  O_38
   23  A    between atoms: C_36  and  C_54
                            x       y       z     vdW  Elec       q    Type
                         _______ _______ _______ _____ _____    ______ ____

>  <TORSDO>
F 23

$$$$
=
 OpenBabel11072412463D

 55 57  0  0  1  0  0  0  0  0999 V2000
  160.6170  205.0740  147.8500 C   0  0  0  0  0  0  0  0  0  0  0  0
  161.5190  205.5590  150.4560 C   0  0  0  0  0  0  0  0  0  0  0  0
  160.3830  206.3120  148.4530 C   0  0  0  0  0  3  0  0  0  0  0  0
  160.8250  206.5680  149.7620 C   0  0  0  0  0  0  0  0  0  0  0  0
  161.7440  204.3180  149.8520 C   0  0  0  0  0  3  0  0  0  0  0  0
  161.2930  204.0740  148.5550 C   0  0  0  0  0  3  0  0  0  0  0  0
  162.3530  205.9450  152.8840 N   0  0  0  0  0  0  0  0  0  0  0  0
  161.9830  205.7740  151.8010 C   0  0  0  0  0  0  0  0  0  0  0  0
  160.1420  204.8130  146.4580 C   0  0  0  0  0  2  0  0  0  0  0  0
  161.1620  204.0720  145.5830 C   0  0  1  0  0  3  0  0  0  0  0  0
  160.5960  202.8570  144.8350 C   0  0  2  0  0  3  0  0  0  0  0  0
  159.7570  203.2750  143.8000 O   0  0  0  0  0  1  0  0  0  0  0  0
  158.7560  201.4400  145.3930 O   0  0  0  0  0  0  0  0  0  0  0  0
  159.8400  201.9660  145.7680 C   0  0  0  0  0  0  0  0  0  0  0  0
  161.0740  200.7570  147.5190 C   0  0  0  0  0  0  0  0  0  0  0  0
  161.4570  199.6120  146.6340 C   0  0  0  0  0  1  0  0  0  0  0  0
  160.3580  201.7580  147.0910 N   0  0  0  0  0  0  0  0  0  0  0  0
  160.6480  200.6550  149.8530 O   0  0  0  0  0  1  0  0  0  0  0  0
  162.8480  200.8340  149.2500 O   0  0  0  0  0  0  0  0  0  0  0  0
  161.4990  200.7410  148.9280 C   0  0  0  0  0  0  0  0  0  0  0  0
  161.9270  204.9570  144.7560 O   0  0  0  0  0  0  0  0  0  0  0  0
  160.5750  206.8180  144.4250 O   0  0  0  0  0  0  0  0  0  0  0  0
  161.3950  205.9820  143.9600 C   0  0  0  0  0  0  0  0  0  0  0  0
  162.1030  206.1350  141.4230 C   0  0  0  0  0  0  0  0  0  0  0  0
  161.7790  206.0660  142.5810 C   0  0  0  0  0  0  0  0  0  0  0  0
  162.4910  206.2150  140.0360 C   0  0  0  0  0  3  0  0  0  0  0  0
  162.2010  207.2350  139.2850 N   0  0  0  0  0  0  0  0  0  0  0  0
  160.2250  208.6080  138.8630 C   0  0  0  0  0  1  0  0  0  0  0  0
  161.4530  208.4040  139.7380 C   0  0  2  0  0  3  0  0  0  0  0  0
  162.3470  209.6280  139.6580 C   0  0  0  0  0  2  0  0  0  0  0  0
  162.0210  210.5260  140.6760 O   0  0  0  0  0  1  0  0  0  0  0  0
  160.6020  207.8060  150.3910 O   0  0  0  0  0  0  0  0  0  0  0  0
  162.2640  209.2150  149.5950 O   0  0  0  0  0  0  0  0  0  0  0  0
  161.5460  208.8290  150.5590 C   0  0  0  0  0  0  0  0  0  0  0  0
  161.1710  210.6160  152.2160 N   0  0  0  0  0  0  0  0  0  0  0  0
  161.6590  209.4560  151.8880 C   0  0  0  0  0  3  0  0  0  0  0  0
  160.4230  211.4900  151.3240 C   0  0  0  0  0  2  0  0  0  0  0  0
  159.2940  212.1810  152.0810 C   0  0  2  0  0  3  0  0  0  0  0  0
  157.6260  213.2220  150.6110 N   0  0  0  0  0  2  0  0  0  0  0  0
  157.5630  214.2670  149.6070 C   0  0  1  0  0  3  0  0  0  0  0  0
  158.8210  213.4730  151.4060 C   0  0  2  0  0  3  0  0  0  0  0  0
  160.1170  214.2490  150.3740 S   0  0  0  0  0  0  0  0  0  0  0  0
  158.9430  214.4290  149.0130 C   0  0  0  0  0  2  0  0  0  0  0  0
  156.5630  213.8750  148.5310 C   0  0  0  0  0  2  0  0  0  0  0  0
  156.5440  214.4320  146.1240 C   0  0  0  0  0  1  0  0  0  0  0  0
  157.2500  213.6330  147.1980 C   0  0  2  0  0  3  0  0  0  0  0  0
  157.1960  212.2780  146.8690 O   0  0  0  0  0  1  0  0  0  0  0  0
  159.8120  212.5230  153.7910 S   0  0  0  0  0  0  0  0  0  0  0  0
  157.9420  211.0030  155.2170 C   0  0  0  0  0  0  0  0  0  0  0  0
  155.6150  211.6450  155.4410 C   0  0  0  0  0  3  0  0  0  0  0  0
  156.6570  210.7550  155.7100 C   0  0  0  0  0  3  0  0  0  0  0  0
  158.1840  212.1590  154.4500 C   0  0  0  0  0  0  0  0  0  0  0  0
  155.8530  212.7880  154.6760 C   0  0  0  0  0  3  0  0  0  0  0  0
  157.1340  213.0440  154.1810 C   0  0  0  0  0  3  0  0  0  0  0  0
  159.2200  209.8560  155.5850 Cl  0  0  0  0  0  0  0  0  0  0  0  0
  1  3  2  0  0  0  0
  1  6  1  0  0  0  0
  2  8  1  0  0  0  0
  3  4  1  0  0  0  0
  4 32  1  0  0  0  0
  4  2  2  0  0  0  0
  5  2  1  0  0  0  0
  6  5  2  0  0  0  0
  8  7  3  0  0  0  0
  9  1  1  0  0  0  0
 10  9  1  6  0  0  0
 11 12  1  6  0  0  0
 11 10  1  0  0  0  0
 11 14  1  0  0  0  0
 13 14  2  0  0  0  0
 14 17  1  0  0  0  0
 15 20  1  0  0  0  0
 16 15  1  0  0  0  0
 17 15  2  0  0  0  0
 20 19  2  0  0  0  0
 20 18  1  0  0  0  0
 21 10  1  0  0  0  0
 23 22  2  0  0  0  0
 23 21  1  0  0  0  0
 24 25  3  0  0  0  0
 25 23  1  0  0  0  0
 26 24  1  0  0  0  0
 27 29  1  0  0  0  0
 27 26  2  0  0  0  0
 29 28  1  6  0  0  0
 30 29  1  0  0  0  0
 30 31  1  0  0  0  0
 32 34  1  0  0  0  0
 33 34  2  0  0  0  0
 34 36  1  0  0  0  0
 36 35  2  0  0  0  0
 37 35  1  0  0  0  0
 38 37  1  6  0  0  0
 38 48  1  0  0  0  0
 39 41  1  0  0  0  0
 40 44  1  6  0  0  0
 40 39  1  0  0  0  0
 41 38  1  6  0  0  0
 42 41  1  0  0  0  0
 43 40  1  0  0  0  0
 43 42  1  0  0  0  0
 46 45  1  6  0  0  0
 46 44  1  0  0  0  0
 47 46  1  0  0  0  0
 48 52  1  0  0  0  0
 49 55  1  0  0  0  0
 49 51  1  0  0  0  0
 50 51  2  0  0  0  0
 52 49  2  0  0  0  0
 53 50  1  0  0  0  0
 54 52  1  0  0  0  0
 54 53  2  0  0  0  0
M  END
>  <MODEL>
4

>  <REMARK>
 VINA RESULT:      -3.8      3.590      4.690
  Name = 
  23 active torsions:
  status: ('A' for Active; 'I' for Inactive)
    1  A    between atoms: N_1  and  C_44
    2  A    between atoms: C_3  and  C_40
    3  A    between atoms: CA_4  and  C_51
    4  A    between atoms: C_5  and  C_37
    5  A    between atoms: O_8  and  C_37
    6  A    between atoms: O_8  and  C_47
    7  A    between atoms: S_10  and  C_22
    8  A    between atoms: S_10  and  C_25
    9  A    between atoms: C_11  and  C_12
   10  A    between atoms: C_11  and  C_34
   11  A    between atoms: C_12  and  N_42
   12  A    between atoms: C_13  and  C_27
   13  A    between atoms: C_13  and  C_34
   14  A    between atoms: C_14  and  C_49
   15  A    between atoms: C_18  and  O_38
   16  A    between atoms: C_18  and  C_48
   17  A    between atoms: C_20  and  C_49
   18  A    between atoms: C_22  and  C_26
   19  A    between atoms: C_22  and  C_44
   20  A    between atoms: C_23  and  CA_29
   21  A    between atoms: CA_29  and  N_55
   22  A    between atoms: C_34  and  O_38
   23  A    between atoms: C_36  and  C_54
                            x       y       z     vdW  Elec       q    Type
                         _______ _______ _______ _____ _____    ______ ____

>  <TORSDO>
F 23

$$$$
=
 OpenBabel11072412463D

 55 57  0  0  1  0  0  0  0  0999 V2000
  160.7380  204.8820  147.4790 C   0  0  0  0  0  0  0  0  0  0  0  0
  161.2990  204.3320  150.1670 C   0  0  0  0  0  0  0  0  0  0  0  0
  160.4250  205.8200  148.4660 C   0  0  0  0  0  3  0  0  0  0  0  0
  160.6950  205.5550  149.8200 C   0  0  0  0  0  0  0  0  0  0  0  0
  161.6040  203.3930  149.1770 C   0  0  0  0  0  3  0  0  0  0  0  0
  161.3220  203.6640  147.8380 C   0  0  0  0  0  3  0  0  0  0  0  0
  161.8160  203.7600  152.6460 N   0  0  0  0  0  0  0  0  0  0  0  0
  161.5880  204.0160  151.5400 C   0  0  0  0  0  0  0  0  0  0  0  0
  160.4450  205.1730  146.0440 C   0  0  0  0  0  2  0  0  0  0  0  0
  161.0140  204.1320  145.0710 C   0  0  1  0  0  3  0  0  0  0  0  0
  160.0090  203.0650  144.6190 C   0  0  2  0  0  3  0  0  0  0  0  0
  158.7470  203.6370  144.4380 O   0  0  0  0  0  1  0  0  0  0  0  0
  159.4900  202.1980  146.7830 O   0  0  0  0  0  0  0  0  0  0  0  0
  159.9220  201.9610  145.6220 C   0  0  0  0  0  0  0  0  0  0  0  0
  161.0330  199.7930  145.9650 C   0  0  0  0  0  0  0  0  0  0  0  0
  161.4560  200.0890  147.3700 C   0  0  0  0  0  1  0  0  0  0  0  0
  160.3700  200.6500  145.2420 N   0  0  0  0  0  0  0  0  0  0  0  0
  162.6090  198.1700  145.2420 O   0  0  0  0  0  1  0  0  0  0  0  0
  160.4070  197.6260  144.9330 O   0  0  0  0  0  0  0  0  0  0  0  0
  161.3980  198.4970  145.3700 C   0  0  0  0  0  0  0  0  0  0  0  0
  161.7510  204.7270  143.9950 O   0  0  0  0  0  0  0  0  0  0  0  0
  160.8510  206.8690  144.0260 O   0  0  0  0  0  0  0  0  0  0  0  0
  161.4550  205.9600  143.3960 C   0  0  0  0  0  0  0  0  0  0  0  0
  162.1460  206.3650  140.8820 C   0  0  0  0  0  0  0  0  0  0  0  0
  161.8300  206.1810  142.0310 C   0  0  0  0  0  0  0  0  0  0  0  0
  162.5260  206.5840  139.5080 C   0  0  0  0  0  3  0  0  0  0  0  0
  162.0820  207.5850  138.8090 N   0  0  0  0  0  0  0  0  0  0  0  0
  159.9240  208.6610  138.4220 C   0  0  0  0  0  1  0  0  0  0  0  0
  161.1550  208.5930  139.3140 C   0  0  2  0  0  3  0  0  0  0  0  0
  161.8490  209.9430  139.3300 C   0  0  0  0  0  2  0  0  0  0  0  0
  161.9570  210.4090  140.6410 O   0  0  0  0  0  1  0  0  0  0  0  0
  160.3890  206.4830  150.8320 O   0  0  0  0  0  0  0  0  0  0  0  0
  162.3970  207.6350  150.9900 O   0  0  0  0  0  0  0  0  0  0  0  0
  161.3090  207.2810  151.5250 C   0  0  0  0  0  0  0  0  0  0  0  0
  160.6110  208.9220  153.2280 N   0  0  0  0  0  0  0  0  0  0  0  0
  160.9600  207.7160  152.8900 C   0  0  0  0  0  3  0  0  0  0  0  0
  160.5020  210.0480  152.3120 C   0  0  0  0  0  2  0  0  0  0  0  0
  159.4930  211.0640  152.8370 C   0  0  2  0  0  3  0  0  0  0  0  0
  160.0230  212.0760  150.6650 N   0  0  0  0  0  2  0  0  0  0  0  0
  159.9690  213.3800  150.0300 C   0  0  1  0  0  3  0  0  0  0  0  0
  159.1060  212.1200  151.7960 C   0  0  2  0  0  3  0  0  0  0  0  0
  159.0390  213.8100  152.4920 S   0  0  0  0  0  0  0  0  0  0  0  0
  160.0290  214.4300  151.1150 C   0  0  0  0  0  2  0  0  0  0  0  0
  161.1450  213.5280  149.0790 C   0  0  0  0  0  2  0  0  0  0  0  0
  159.4260  213.8320  147.3310 C   0  0  0  0  0  1  0  0  0  0  0  0
  160.7530  213.1820  147.6530 C   0  0  2  0  0  3  0  0  0  0  0  0
  160.6300  211.7980  147.5120 O   0  0  0  0  0  1  0  0  0  0  0  0
  160.1460  211.8700  154.3320 S   0  0  0  0  0  0  0  0  0  0  0  0
  158.2430  212.7790  156.1750 C   0  0  0  0  0  0  0  0  0  0  0  0
  156.0200  211.8300  156.3530 C   0  0  0  0  0  3  0  0  0  0  0  0
  156.9820  212.7500  156.7770 C   0  0  0  0  0  3  0  0  0  0  0  0
  158.5420  211.8780  155.1350 C   0  0  0  0  0  0  0  0  0  0  0  0
  156.3160  210.9330  155.3250 C   0  0  0  0  0  3  0  0  0  0  0  0
  157.5740  210.9570  154.7180 C   0  0  0  0  0  3  0  0  0  0  0  0
  159.4170  213.9550  156.7420 Cl  0  0  0  0  0  0  0  0  0  0  0  0
  1  6  2  0  0  0  0
  1  3  1  0  0  0  0
  2  8  1  0  0  0  0
  3  4  2  0  0  0  0
  4  2  1  0  0  0  0
  4 32  1  0  0  0  0
  5  2  2  0  0  0  0
  6  5  1  0  0  0  0
  8  7  3  0  0  0  0
  9  1  1  0  0  0  0
 10  9  1  6  0  0  0
 11 12  1  1  0  0  0
 11 10  1  0  0  0  0
 11 14  1  0  0  0  0
 14 13  2  0  0  0  0
 15 16  1  0  0  0  0
 17 14  1  0  0  0  0
 17 15  2  0  0  0  0
 18 20  1  0  0  0  0
 19 20  2  0  0  0  0
 20 15  1  0  0  0  0
 21 10  1  0  0  0  0
 23 21  1  0  0  0  0
 23 22  2  0  0  0  0
 24 25  3  0  0  0  0
 25 23  1  0  0  0  0
 26 24  1  0  0  0  0
 27 29  1  0  0  0  0
 27 26  2  0  0  0  0
 29 28  1  6  0  0  0
 29 30  1  0  0  0  0
 30 31  1  0  0  0  0
 32 34  1  0  0  0  0
 33 34  2  0  0  0  0
 34 36  1  0  0  0  0
 36 35  2  0  0  0  0
 37 35  1  0  0  0  0
 38 37  1  6  0  0  0
 38 48  1  0  0  0  0
 39 41  1  0  0  0  0
 40 44  1  6  0  0  0
 40 39  1  0  0  0  0
 40 43  1  0  0  0  0
 41 42  1  0  0  0  0
 41 38  1  1  0  0  0
 43 42  1  0  0  0  0
 46 45  1  1  0  0  0
 46 44  1  0  0  0  0
 47 46  1  0  0  0  0
 48 52  1  0  0  0  0
 49 55  1  0  0  0  0
 49 51  1  0  0  0  0
 50 51  2  0  0  0  0
 52 49  2  0  0  0  0
 53 50  1  0  0  0  0
 54 52  1  0  0  0  0
 54 53  2  0  0  0  0
M  END
>  <MODEL>
5

>  <REMARK>
 VINA RESULT:      -3.3      3.864      5.130
  Name = 
  23 active torsions:
  status: ('A' for Active; 'I' for Inactive)
    1  A    between atoms: N_1  and  C_44
    2  A    between atoms: C_3  and  C_40
    3  A    between atoms: CA_4  and  C_51
    4  A    between atoms: C_5  and  C_37
    5  A    between atoms: O_8  and  C_37
    6  A    between atoms: O_8  and  C_47
    7  A    between atoms: S_10  and  C_22
    8  A    between atoms: S_10  and  C_25
    9  A    between atoms: C_11  and  C_12
   10  A    between atoms: C_11  and  C_34
   11  A    between atoms: C_12  and  N_42
   12  A    between atoms: C_13  and  C_27
   13  A    between atoms: C_13  and  C_34
   14  A    between atoms: C_14  and  C_49
   15  A    between atoms: C_18  and  O_38
   16  A    between atoms: C_18  and  C_48
   17  A    between atoms: C_20  and  C_49
   18  A    between atoms: C_22  and  C_26
   19  A    between atoms: C_22  and  C_44
   20  A    between atoms: C_23  and  CA_29
   21  A    between atoms: CA_29  and  N_55
   22  A    between atoms: C_34  and  O_38
   23  A    between atoms: C_36  and  C_54
                            x       y       z     vdW  Elec       q    Type
                         _______ _______ _______ _____ _____    ______ ____

>  <TORSDO>
F 23

$$$$
=
 OpenBabel11072412463D

 55 57  0  0  1  0  0  0  0  0999 V2000
  160.6480  205.3480  149.5780 C   0  0  0  0  0  0  0  0  0  0  0  0
  161.6580  205.9730  147.0420 C   0  0  0  0  0  0  0  0  0  0  0  0
  160.8270  206.6820  149.2040 C   0  0  0  0  0  3  0  0  0  0  0  0
  161.3380  207.0100  147.9370 C   0  0  0  0  0  0  0  0  0  0  0  0
  161.4850  204.6380  147.4220 C   0  0  0  0  0  3  0  0  0  0  0  0
  160.9860  204.3250  148.6870 C   0  0  0  0  0  3  0  0  0  0  0  0
  162.6180  206.4910  144.6860 N   0  0  0  0  0  0  0  0  0  0  0  0
  162.1900  206.2610  145.7370 C   0  0  0  0  0  0  0  0  0  0  0  0
  160.1060  205.0100  150.9280 C   0  0  0  0  0  2  0  0  0  0  0  0
  161.0520  204.1550  151.7810 C   0  0  1  0  0  3  0  0  0  0  0  0
  161.2110  204.6340  153.2300 C   0  0  2  0  0  3  0  0  0  0  0  0
  159.9790  204.6070  153.8860 O   0  0  0  0  0  1  0  0  0  0  0  0
  162.6490  206.3660  152.4320 O   0  0  0  0  0  0  0  0  0  0  0  0
  161.7730  206.0190  153.2710 C   0  0  0  0  0  0  0  0  0  0  0  0
  160.9080  208.1440  154.1570 C   0  0  0  0  0  0  0  0  0  0  0  0
  160.8720  208.8300  152.8270 C   0  0  0  0  0  1  0  0  0  0  0  0
  161.3180  206.9150  154.2970 N   0  0  0  0  0  0  0  0  0  0  0  0
  160.4180  210.1480  155.3320 O   0  0  0  0  0  0  0  0  0  0  0  0
  160.1700  208.2110  156.5240 O   0  0  0  0  0  1  0  0  0  0  0  0
  160.4860  208.8900  155.3540 C   0  0  0  0  0  0  0  0  0  0  0  0
  160.7880  202.7510  151.6610 O   0  0  0  0  0  0  0  0  0  0  0  0
  162.6820  201.4980  152.1550 O   0  0  0  0  0  0  0  0  0  0  0  0
  161.7460  201.7720  151.3580 C   0  0  0  0  0  0  0  0  0  0  0  0
  161.6030  200.5070  149.0470 C   0  0  0  0  0  0  0  0  0  0  0  0
  161.6670  201.0840  150.1020 C   0  0  0  0  0  0  0  0  0  0  0  0
  161.5290  199.8160  147.7830 C   0  0  0  0  0  3  0  0  0  0  0  0
  161.0840  200.3800  146.7010 N   0  0  0  0  0  0  0  0  0  0  0  0
  159.1370  201.8190  147.0250 C   0  0  0  0  0  1  0  0  0  0  0  0
  160.6050  201.7570  146.6290 C   0  0  2  0  0  3  0  0  0  0  0  0
  160.7730  202.2690  145.2100 C   0  0  0  0  0  2  0  0  0  0  0  0
  160.0040  203.4190  145.0220 O   0  0  0  0  0  1  0  0  0  0  0  0
  161.5270  208.3460  147.5380 O   0  0  0  0  0  0  0  0  0  0  0  0
  162.2180  209.2180  149.5730 O   0  0  0  0  0  0  0  0  0  0  0  0
  162.0230  209.3850  148.3380 C   0  0  0  0  0  0  0  0  0  0  0  0
  161.8740  211.8310  148.0600 N   0  0  0  0  0  0  0  0  0  0  0  0
  162.3320  210.6720  147.6880 C   0  0  0  0  0  3  0  0  0  0  0  0
  160.9800  212.0520  149.1880 C   0  0  0  0  0  2  0  0  0  0  0  0
  160.1140  213.2830  148.9440 C   0  0  2  0  0  3  0  0  0  0  0  0
  160.3690  213.7500  146.5470 N   0  0  0  0  0  2  0  0  0  0  0  0
  161.3590  214.3120  145.6480 C   0  0  1  0  0  3  0  0  0  0  0  0
  160.6950  214.2260  147.8850 C   0  0  2  0  0  3  0  0  0  0  0  0
  162.5030  214.4530  148.0530 S   0  0  0  0  0  0  0  0  0  0  0  0
  162.7190  214.1450  146.2870 C   0  0  0  0  0  2  0  0  0  0  0  0
  161.3040  213.5830  144.3160 C   0  0  0  0  0  2  0  0  0  0  0  0
  160.0930  211.8040  143.1010 C   0  0  0  0  0  1  0  0  0  0  0  0
  159.9470  212.9380  144.0920 C   0  0  2  0  0  3  0  0  0  0  0  0
  159.0480  213.8770  143.5830 O   0  0  0  0  0  1  0  0  0  0  0  0
  159.8570  214.1810  150.5050 S   0  0  0  0  0  0  0  0  0  0  0  0
  157.2170  214.1900  151.4380 C   0  0  0  0  0  0  0  0  0  0  0  0
  155.2950  214.1400  149.9620 C   0  0  0  0  0  3  0  0  0  0  0  0
  155.8320  214.1770  151.2510 C   0  0  0  0  0  3  0  0  0  0  0  0
  158.0730  214.1700  150.3210 C   0  0  0  0  0  0  0  0  0  0  0  0
  156.1430  214.1150  148.8530 C   0  0  0  0  0  3  0  0  0  0  0  0
  157.5290  214.1290  149.0320 C   0  0  0  0  0  3  0  0  0  0  0  0
  157.8430  214.2390  153.0790 Cl  0  0  0  0  0  0  0  0  0  0  0  0
  1  9  1  0  0  0  0
  2  5  2  0  0  0  0
  2  4  1  0  0  0  0
  3  1  1  0  0  0  0
  4  3  2  0  0  0  0
  5  6  1  0  0  0  0
  6  1  2  0  0  0  0
  7  8  3  0  0  0  0
  8  2  1  0  0  0  0
 10  9  1  1  0  0  0
 10 11  1  0  0  0  0
 11 14  1  0  0  0  0
 11 12  1  6  0  0  0
 13 14  2  0  0  0  0
 14 17  1  0  0  0  0
 15 17  2  0  0  0  0
 15 20  1  0  0  0  0
 16 15  1  0  0  0  0
 18 20  2  0  0  0  0
 20 19  1  0  0  0  0
 21 10  1  0  0  0  0
 23 21  1  0  0  0  0
 23 22  2  0  0  0  0
 24 25  3  0  0  0  0
 25 23  1  0  0  0  0
 26 24  1  0  0  0  0
 27 26  2  0  0  0  0
 29 27  1  0  0  0  0
 29 28  1  6  0  0  0
 30 29  1  0  0  0  0
 31 30  1  0  0  0  0
 32  4  1  0  0  0  0
 32 34  1  0  0  0  0
 34 33  2  0  0  0  0
 35 37  1  0  0  0  0
 36 35  2  0  0  0  0
 36 34  1  0  0  0  0
 38 37  1  1  0  0  0
 38 48  1  0  0  0  0
 39 41  1  0  0  0  0
 40 44  1  6  0  0  0
 40 43  1  0  0  0  0
 40 39  1  0  0  0  0
 41 42  1  0  0  0  0
 41 38  1  1  0  0  0
 43 42  1  0  0  0  0
 46 45  1  6  0  0  0
 46 44  1  0  0  0  0
 47 46  1  0  0  0  0
 49 55  1  0  0  0  0
 50 51  2  0  0  0  0
 51 49  1  0  0  0  0
 52 48  1  0  0  0  0
 52 49  2  0  0  0  0
 53 54  2  0  0  0  0
 53 50  1  0  0  0  0
 54 52  1  0  0  0  0
M  END
>  <MODEL>
6

>  <REMARK>
 VINA RESULT:      -2.7      2.630      7.494
  Name = 
  23 active torsions:
  status: ('A' for Active; 'I' for Inactive)
    1  A    between atoms: N_1  and  C_44
    2  A    between atoms: C_3  and  C_40
    3  A    between atoms: CA_4  and  C_51
    4  A    between atoms: C_5  and  C_37
    5  A    between atoms: O_8  and  C_37
    6  A    between atoms: O_8  and  C_47
    7  A    between atoms: S_10  and  C_22
    8  A    between atoms: S_10  and  C_25
    9  A    between atoms: C_11  and  C_12
   10  A    between atoms: C_11  and  C_34
   11  A    between atoms: C_12  and  N_42
   12  A    between atoms: C_13  and  C_27
   13  A    between atoms: C_13  and  C_34
   14  A    between atoms: C_14  and  C_49
   15  A    between atoms: C_18  and  O_38
   16  A    between atoms: C_18  and  C_48
   17  A    between atoms: C_20  and  C_49
   18  A    between atoms: C_22  and  C_26
   19  A    between atoms: C_22  and  C_44
   20  A    between atoms: C_23  and  CA_29
   21  A    between atoms: CA_29  and  N_55
   22  A    between atoms: C_34  and  O_38
   23  A    between atoms: C_36  and  C_54
                            x       y       z     vdW  Elec       q    Type
                         _______ _______ _______ _____ _____    ______ ____

>  <TORSDO>
F 23

$$$$
=
 OpenBabel11072412463D

 55 57  0  0  1  0  0  0  0  0999 V2000
  161.0190  206.9350  148.2360 C   0  0  0  0  0  0  0  0  0  0  0  0
  161.3140  206.5590  150.9950 C   0  0  0  0  0  0  0  0  0  0  0  0
  161.7690  207.8400  148.9910 C   0  0  0  0  0  3  0  0  0  0  0  0
  161.9200  207.6680  150.3770 C   0  0  0  0  0  0  0  0  0  0  0  0
  160.5570  205.6580  150.2390 C   0  0  0  0  0  3  0  0  0  0  0  0
  160.4070  205.8460  148.8640 C   0  0  0  0  0  3  0  0  0  0  0  0
  161.5370  206.1770  153.5540 N   0  0  0  0  0  0  0  0  0  0  0  0
  161.4360  206.3460  152.4130 C   0  0  0  0  0  0  0  0  0  0  0  0
  160.8630  207.1280  146.7640 C   0  0  0  0  0  2  0  0  0  0  0  0
  161.2440  205.8970  145.9310 C   0  0  1  0  0  3  0  0  0  0  0  0
  160.5670  204.5940  146.3750 C   0  0  2  0  0  3  0  0  0  0  0  0
  161.3290  203.9650  147.3620 O   0  0  0  0  0  1  0  0  0  0  0  0
  159.7620  204.0640  144.1890 O   0  0  0  0  0  0  0  0  0  0  0  0
  160.3840  203.6700  145.2140 C   0  0  0  0  0  0  0  0  0  0  0  0
  160.3060  201.2840  145.8100 C   0  0  0  0  0  0  0  0  0  0  0  0
  158.9300  201.3460  146.3970 C   0  0  0  0  0  1  0  0  0  0  0  0
  160.8990  202.3330  145.3120 N   0  0  0  0  0  0  0  0  0  0  0  0
  160.7970  199.1370  144.9240 O   0  0  0  0  0  0  0  0  0  0  0  0
  161.9530  199.7240  146.8100 O   0  0  0  0  0  1  0  0  0  0  0  0
  161.0240  200.0000  145.8140 C   0  0  0  0  0  0  0  0  0  0  0  0
  161.1690  206.1390  144.5200 O   0  0  0  0  0  0  0  0  0  0  0  0
  162.9080  204.7430  143.8620 O   0  0  0  0  0  0  0  0  0  0  0  0
  162.0560  205.6240  143.5640 C   0  0  0  0  0  0  0  0  0  0  0  0
  161.9630  206.5510  141.0960 C   0  0  0  0  0  0  0  0  0  0  0  0
  162.0050  206.1270  142.2230 C   0  0  0  0  0  0  0  0  0  0  0  0
  161.9140  207.0620  139.7470 C   0  0  0  0  0  3  0  0  0  0  0  0
  161.8730  208.3320  139.4810 N   0  0  0  0  0  0  0  0  0  0  0  0
  160.5560  210.1590  140.4260 C   0  0  0  0  0  1  0  0  0  0  0  0
  161.8650  209.3850  140.4910 C   0  0  2  0  0  3  0  0  0  0  0  0
  163.0280  210.3270  140.2390 C   0  0  0  0  0  2  0  0  0  0  0  0
  162.6240  211.3750  139.4100 O   0  0  0  0  0  1  0  0  0  0  0  0
  162.6700  208.5660  151.1580 O   0  0  0  0  0  0  0  0  0  0  0  0
  162.6970  210.0830  152.9130 O   0  0  0  0  0  0  0  0  0  0  0  0
  162.1700  209.6860  151.8370 C   0  0  0  0  0  0  0  0  0  0  0  0
  160.3300  211.3280  151.8360 N   0  0  0  0  0  0  0  0  0  0  0  0
  161.0250  210.4010  151.2450 C   0  0  0  0  0  3  0  0  0  0  0  0
  160.5710  211.8200  153.1850 C   0  0  0  0  0  2  0  0  0  0  0  0
  159.4520  211.3730  154.1190 C   0  0  2  0  0  3  0  0  0  0  0  0
  158.1220  212.5680  152.4370 N   0  0  0  0  0  2  0  0  0  0  0  0
  157.0920  213.5880  152.3900 C   0  0  1  0  0  3  0  0  0  0  0  0
  158.0990  212.0080  153.7820 C   0  0  2  0  0  3  0  0  0  0  0  0
  157.5940  213.2850  154.9910 S   0  0  0  0  0  0  0  0  0  0  0  0
  157.2030  214.4240  153.6440 C   0  0  0  0  0  2  0  0  0  0  0  0
  157.2940  214.4530  151.1560 C   0  0  0  0  0  2  0  0  0  0  0  0
  157.8050  214.0980  148.7650 C   0  0  0  0  0  1  0  0  0  0  0  0
  156.8680  213.7250  149.8920 C   0  0  2  0  0  3  0  0  0  0  0  0
  155.5670  214.0900  149.5440 O   0  0  0  0  0  1  0  0  0  0  0  0
  159.9010  211.7400  155.8440 S   0  0  0  0  0  0  0  0  0  0  0  0
  161.6940  209.7280  156.6020 C   0  0  0  0  0  0  0  0  0  0  0  0
  161.1000  207.3780  156.6470 C   0  0  0  0  0  3  0  0  0  0  0  0
  162.0390  208.3940  156.8410 C   0  0  0  0  0  3  0  0  0  0  0  0
  160.3930  210.0460  156.1680 C   0  0  0  0  0  0  0  0  0  0  0  0
  159.8110  207.6920  156.2110 C   0  0  0  0  0  3  0  0  0  0  0  0
  159.4590  209.0230  155.9720 C   0  0  0  0  0  3  0  0  0  0  0  0
  162.9090  210.9690  156.8630 Cl  0  0  0  0  0  0  0  0  0  0  0  0
  1  6  2  0  0  0  0
  1  3  1  0  0  0  0
  2  8  1  0  0  0  0
  3  4  2  0  0  0  0
  4  2  1  0  0  0  0
  4 32  1  0  0  0  0
  5  2  2  0  0  0  0
  6  5  1  0  0  0  0
  8  7  3  0  0  0  0
  9  1  1  0  0  0  0
 10 11  1  0  0  0  0
 10  9  1  1  0  0  0
 11 12  1  1  0  0  0
 13 14  2  0  0  0  0
 14 17  1  0  0  0  0
 14 11  1  0  0  0  0
 15 20  1  0  0  0  0
 15 16  1  0  0  0  0
 17 15  2  0  0  0  0
 18 20  2  0  0  0  0
 20 19  1  0  0  0  0
 21 10  1  0  0  0  0
 23 22  2  0  0  0  0
 23 21  1  0  0  0  0
 24 25  3  0  0  0  0
 25 23  1  0  0  0  0
 26 24  1  0  0  0  0
 27 26  2  0  0  0  0
 27 29  1  0  0  0  0
 29 28  1  6  0  0  0
 30 29  1  0  0  0  0
 31 30  1  0  0  0  0
 32 34  1  0  0  0  0
 34 33  2  0  0  0  0
 35 37  1  0  0  0  0
 36 35  2  0  0  0  0
 36 34  1  0  0  0  0
 38 37  1  6  0  0  0
 38 48  1  0  0  0  0
 39 41  1  0  0  0  0
 40 44  1  6  0  0  0
 40 39  1  0  0  0  0
 40 43  1  0  0  0  0
 41 38  1  1  0  0  0
 41 42  1  0  0  0  0
 43 42  1  0  0  0  0
 46 45  1  6  0  0  0
 46 44  1  0  0  0  0
 47 46  1  0  0  0  0
 48 52  1  0  0  0  0
 49 51  1  0  0  0  0
 49 55  1  0  0  0  0
 50 51  2  0  0  0  0
 52 49  2  0  0  0  0
 53 50  1  0  0  0  0
 54 52  1  0  0  0  0
 54 53  2  0  0  0  0
M  END
>  <MODEL>
7

>  <REMARK>
 VINA RESULT:      -2.6      3.586      5.097
  Name = 
  23 active torsions:
  status: ('A' for Active; 'I' for Inactive)
    1  A    between atoms: N_1  and  C_44
    2  A    between atoms: C_3  and  C_40
    3  A    between atoms: CA_4  and  C_51
    4  A    between atoms: C_5  and  C_37
    5  A    between atoms: O_8  and  C_37
    6  A    between atoms: O_8  and  C_47
    7  A    between atoms: S_10  and  C_22
    8  A    between atoms: S_10  and  C_25
    9  A    between atoms: C_11  and  C_12
   10  A    between atoms: C_11  and  C_34
   11  A    between atoms: C_12  and  N_42
   12  A    between atoms: C_13  and  C_27
   13  A    between atoms: C_13  and  C_34
   14  A    between atoms: C_14  and  C_49
   15  A    between atoms: C_18  and  O_38
   16  A    between atoms: C_18  and  C_48
   17  A    between atoms: C_20  and  C_49
   18  A    between atoms: C_22  and  C_26
   19  A    between atoms: C_22  and  C_44
   20  A    between atoms: C_23  and  CA_29
   21  A    between atoms: CA_29  and  N_55
   22  A    between atoms: C_34  and  O_38
   23  A    between atoms: C_36  and  C_54
                            x       y       z     vdW  Elec       q    Type
                         _______ _______ _______ _____ _____    ______ ____

>  <TORSDO>
F 23

$$$$
