=
 OpenBabel11072413433D

 44 49  0  0  1  0  0  0  0  0999 V2000
  162.3830  209.6200  150.6400 N   0  0  0  0  0  0  0  0  0  0  0  0
  159.9580  210.0570  153.2640 C   0  0  0  0  0  2  0  0  0  0  0  0
  160.8090  208.2000  151.6080 C   0  0  2  0  0  3  0  0  0  0  0  0
  162.6240  207.3680  149.9410 N   0  0  0  0  0  2  0  0  0  0  0  0
  161.5680  210.4400  151.4180 N   0  0  0  0  0  2  0  0  0  0  0  0
  160.7840  209.3620  154.3320 C   0  0  2  0  0  3  0  0  0  0  0  0
  160.6940  207.8570  154.1440 C   0  0  0  0  0  2  0  0  0  0  0  0
  160.4160  209.6760  151.8570 C   0  0  2  0  0  3  0  0  0  0  0  0
  161.3960  207.4960  152.8460 C   0  0  0  0  0  2  0  0  0  0  0  0
  161.9540  208.4060  150.6630 C   0  0  0  0  0  0  0  0  0  0  0  0
  160.4040  209.8150  155.7440 C   0  0  0  0  0  2  0  0  0  0  0  0
  159.5560  211.0510  155.8140 C   0  0  0  0  0  0  0  0  0  0  0  0
  157.2400  211.9710  156.2700 C   0  0  0  0  0  0  0  0  0  0  0  0
  158.2390  210.9480  156.3630 N   0  0  0  0  0  2  0  0  0  0  0  0
  160.0250  212.1770  155.4910 O   0  0  0  0  0  0  0  0  0  0  0  0
  157.0190  212.6950  155.0590 N   0  0  0  0  0  2  0  0  0  0  0  0
  156.4310  212.1520  157.2590 N   0  0  0  0  0  2  0  0  0  0  0  0
  157.6810  212.3800  153.8620 N   0  0  0  0  0  2  0  0  0  0  0  0
  157.1390  213.2070  152.7760 C   0  0  1  0  0  3  0  0  0  0  0  0
  155.1110  214.4530  152.3280 O   0  0  0  0  0  0  0  0  0  0  0  0
  154.8570  213.7070  153.4150 O   0  0  0  0  0  0  0  0  0  0  0  0
  156.1110  214.2550  153.2550 C   0  0  0  0  0  3  0  0  0  0  0  0
  159.2760  214.2020  152.3460 O   0  0  0  0  0  0  0  0  0  0  0  0
  158.2140  213.7430  151.8440 C   0  0  0  0  0  0  0  0  0  0  0  0
  156.7730  213.4070  148.3990 C   0  0  0  0  0  3  0  0  0  0  0  0
  156.9320  213.5440  149.8190 N   0  0  0  0  0  0  0  0  0  0  0  0
  159.2660  213.7410  149.5350 N   0  0  0  0  0  2  0  0  0  0  0  0
  157.8090  213.5560  147.5720 C   0  0  0  0  0  3  0  0  0  0  0  0
  159.1610  213.9540  148.0920 C   0  0  0  0  0  2  0  0  0  0  0  0
  158.1020  213.6860  150.3690 C   0  0  0  0  0  0  0  0  0  0  0  0
  161.9920  206.1670  149.3970 C   0  0  1  0  0  3  0  0  0  0  0  0
  161.4470  202.4350  151.6480 C   0  0  0  0  0  3  0  0  0  0  0  0
  160.8470  205.6640  150.2640 C   0  0  1  0  0  3  0  0  0  0  0  0
  160.5650  204.3310  149.9270 C   0  0  0  0  0  0  0  0  0  0  0  0
  161.7650  203.7750  152.0650 C   0  0  0  0  0  3  0  0  0  0  0  0
  161.2970  204.6610  151.1460 C   0  0  0  0  0  0  0  0  0  0  0  0
  160.2320  203.0860  149.4850 C   0  0  0  0  0  3  0  0  0  0  0  0
  160.7140  202.1080  150.4240 C   0  0  0  0  0  3  0  0  0  0  0  0
  161.5230  206.4160  147.9680 C   0  0  0  0  0  2  0  0  0  0  0  0
  162.3880  205.6410  146.9830 C   0  0  0  0  0  2  0  0  0  0  0  0
  161.5410  204.7010  146.1380 C   0  0  0  0  0  2  0  0  0  0  0  0
  160.0250  206.3100  145.2520 O   0  0  0  0  0  1  0  0  0  0  0  0
  161.2490  205.1490  143.6950 O   0  0  0  0  0  0  0  0  0  0  0  0
  160.9000  205.4380  145.0120 C   0  0  0  0  0  0  0  0  0  0  0  0
  1 10  2  0  0  0  0
  1  5  1  0  0  0  0
  2  6  1  0  0  0  0
  3  8  1  0  0  0  0
  3  9  1  1  0  0  0
  4 10  1  0  0  0  0
  5  8  1  0  0  0  0
  6 11  1  1  0  0  0
  7  6  1  0  0  0  0
  8  2  1  1  0  0  0
  9  7  1  0  0  0  0
 10  3  1  0  0  0  0
 11 12  1  0  0  0  0
 12 14  1  0  0  0  0
 13 14  1  0  0  0  0
 13 17  2  0  0  0  0
 15 12  2  0  0  0  0
 16 13  1  0  0  0  0
 18 16  1  0  0  0  0
 19 24  1  1  0  0  0
 19 22  1  0  0  0  0
 19 18  1  0  0  0  0
 20 22  1  0  0  0  0
 20 21  1  0  0  0  0
 22 21  1  0  0  0  0
 24 23  2  0  0  0  0
 25 26  1  0  0  0  0
 26 30  2  0  0  0  0
 27 30  1  0  0  0  0
 28 29  1  0  0  0  0
 28 25  2  0  0  0  0
 29 27  1  0  0  0  0
 30 24  1  0  0  0  0
 31 39  1  6  0  0  0
 31  4  1  0  0  0  0
 32 35  1  0  0  0  0
 33 31  1  6  0  0  0
 33 36  1  0  0  0  0
 34 33  1  0  0  0  0
 34 36  1  0  0  0  0
 36 35  2  0  0  0  0
 37 34  2  0  0  0  0
 37 38  1  0  0  0  0
 38 32  2  0  0  0  0
 40 39  1  0  0  0  0
 41 40  1  0  0  0  0
 43 44  2  0  0  0  0
 44 42  1  0  0  0  0
 44 41  1  0  0  0  0
M  END
>  <MODEL>
1

>  <REMARK>
 VINA RESULT:      -7.9      0.000      0.000
  Name = 
  13 active torsions:
  status: ('A' for Active; 'I' for Inactive)
    1  A    between atoms: C_4  and  C_8
    2  A    between atoms: C_5  and  C_33
    3  A    between atoms: C_8  and  C_26
    4  A    between atoms: N_10  and  C_33
    5  A    between atoms: C_17  and  C_22
    6  A    between atoms: C_17  and  C_32
    7  A    between atoms: C_19  and  N_31
    8  A    between atoms: C_19  and  C_43
    9  A    between atoms: C_19  and  C_44
   10  A    between atoms: C_22  and  C_30
   11  A    between atoms: N_24  and  N_31
   12  A    between atoms: C_32  and  C_33
   13  A    between atoms: C_39  and  C_44
                            x       y       z     vdW  Elec       q    Type
                         _______ _______ _______ _____ _____    ______ ____

>  <TORSDO>
F 13

$$$$
=
 OpenBabel11072413433D

 44 49  0  0  1  0  0  0  0  0999 V2000
  160.5860  203.7780  150.6920 N   0  0  0  0  0  0  0  0  0  0  0  0
  161.7390  205.4960  153.6370 C   0  0  0  0  0  2  0  0  0  0  0  0
  161.8730  205.6930  151.0180 C   0  0  2  0  0  3  0  0  0  0  0  0
  160.9750  204.9780  148.6840 N   0  0  0  0  0  2  0  0  0  0  0  0
  160.9090  203.7850  152.0470 N   0  0  0  0  0  2  0  0  0  0  0  0
  160.6880  206.5900  153.5790 C   0  0  2  0  0  3  0  0  0  0  0  0
  161.0710  207.6080  152.5180 C   0  0  0  0  0  2  0  0  0  0  0  0
  161.9120  204.8050  152.2850 C   0  0  2  0  0  3  0  0  0  0  0  0
  160.9770  206.9370  151.1580 C   0  0  0  0  0  2  0  0  0  0  0  0
  161.1540  204.7630  150.0880 C   0  0  0  0  0  0  0  0  0  0  0  0
  160.4310  207.2190  154.9500 C   0  0  0  0  0  2  0  0  0  0  0  0
  160.7840  208.6740  155.0650 C   0  0  0  0  0  0  0  0  0  0  0  0
  162.0970  210.4080  156.3630 C   0  0  0  0  0  0  0  0  0  0  0  0
  161.8220  209.0580  155.9690 N   0  0  0  0  0  2  0  0  0  0  0  0
  160.2470  209.5310  154.3100 O   0  0  0  0  0  0  0  0  0  0  0  0
  161.0480  211.3220  156.6850 N   0  0  0  0  0  2  0  0  0  0  0  0
  163.3190  210.7700  156.5610 N   0  0  0  0  0  2  0  0  0  0  0  0
  159.7010  210.9320  156.7450 N   0  0  0  0  0  2  0  0  0  0  0  0
  158.8480  212.0830  156.4220 C   0  0  1  0  0  3  0  0  0  0  0  0
  158.8070  214.4520  155.9210 O   0  0  0  0  0  0  0  0  0  0  0  0
  159.2170  214.3490  157.1950 O   0  0  0  0  0  0  0  0  0  0  0  0
  159.6300  213.4070  156.2780 C   0  0  0  0  0  3  0  0  0  0  0  0
  156.8980  211.0150  155.5280 O   0  0  0  0  0  0  0  0  0  0  0  0
  157.8620  211.7970  155.3010 C   0  0  0  0  0  0  0  0  0  0  0  0
  157.0370  213.9660  152.3560 C   0  0  0  0  0  3  0  0  0  0  0  0
  157.0570  213.3540  153.6540 N   0  0  0  0  0  0  0  0  0  0  0  0
  158.9370  212.0770  153.0200 N   0  0  0  0  0  2  0  0  0  0  0  0
  158.0060  213.7310  151.4690 C   0  0  0  0  0  3  0  0  0  0  0  0
  159.1940  212.8850  151.8280 C   0  0  0  0  0  2  0  0  0  0  0  0
  157.9370  212.4510  153.9750 C   0  0  0  0  0  0  0  0  0  0  0  0
  161.9420  205.6150  147.7920 C   0  0  1  0  0  3  0  0  0  0  0  0
  160.0490  202.9830  144.8270 C   0  0  0  0  0  3  0  0  0  0  0  0
  162.5280  204.6460  146.7750 C   0  0  1  0  0  3  0  0  0  0  0  0
  161.8180  203.4370  146.8280 C   0  0  0  0  0  0  0  0  0  0  0  0
  160.7440  204.2380  144.7000 C   0  0  0  0  0  3  0  0  0  0  0  0
  161.6020  204.3910  145.7440 C   0  0  0  0  0  0  0  0  0  0  0  0
  161.1960  202.2370  146.9970 C   0  0  0  0  0  3  0  0  0  0  0  0
  160.2680  202.0310  145.9180 C   0  0  0  0  0  3  0  0  0  0  0  0
  161.3110  206.8170  147.0970 C   0  0  0  0  0  2  0  0  0  0  0  0
  161.1160  207.9590  148.0840 C   0  0  0  0  0  2  0  0  0  0  0  0
  162.4410  208.6390  148.3970 C   0  0  0  0  0  2  0  0  0  0  0  0
  161.6800  210.1100  150.1080 O   0  0  0  0  0  1  0  0  0  0  0  0
  162.5690  211.1320  148.2540 O   0  0  0  0  0  0  0  0  0  0  0  0
  162.2150  209.9940  148.9740 C   0  0  0  0  0  0  0  0  0  0  0  0
  1  5  1  0  0  0  0
  3  9  1  1  0  0  0
  3  8  1  0  0  0  0
  4 10  1  0  0  0  0
  5  8  1  0  0  0  0
  6  2  1  0  0  0  0
  6 11  1  1  0  0  0
  7  6  1  0  0  0  0
  8  2  1  1  0  0  0
  9  7  1  0  0  0  0
 10  1  2  0  0  0  0
 10  3  1  0  0  0  0
 11 12  1  0  0  0  0
 12 14  1  0  0  0  0
 13 17  2  0  0  0  0
 13 16  1  0  0  0  0
 14 13  1  0  0  0  0
 15 12  2  0  0  0  0
 16 18  1  0  0  0  0
 19 24  1  6  0  0  0
 19 18  1  0  0  0  0
 20 22  1  0  0  0  0
 20 21  1  0  0  0  0
 22 19  1  0  0  0  0
 22 21  1  0  0  0  0
 24 23  2  0  0  0  0
 25 26  1  0  0  0  0
 26 30  2  0  0  0  0
 27 30  1  0  0  0  0
 28 29  1  0  0  0  0
 28 25  2  0  0  0  0
 29 27  1  0  0  0  0
 30 24  1  0  0  0  0
 31 39  1  6  0  0  0
 31  4  1  0  0  0  0
 32 38  1  0  0  0  0
 33 34  1  0  0  0  0
 33 31  1  1  0  0  0
 34 37  1  0  0  0  0
 35 32  2  0  0  0  0
 35 36  1  0  0  0  0
 36 33  1  0  0  0  0
 36 34  2  0  0  0  0
 38 37  2  0  0  0  0
 39 40  1  0  0  0  0
 40 41  1  0  0  0  0
 41 44  1  0  0  0  0
 43 44  2  0  0  0  0
 44 42  1  0  0  0  0
M  END
>  <MODEL>
2

>  <REMARK>
 VINA RESULT:      -7.9      2.805      4.582
  Name = 
  13 active torsions:
  status: ('A' for Active; 'I' for Inactive)
    1  A    between atoms: C_4  and  C_8
    2  A    between atoms: C_5  and  C_33
    3  A    between atoms: C_8  and  C_26
    4  A    between atoms: N_10  and  C_33
    5  A    between atoms: C_17  and  C_22
    6  A    between atoms: C_17  and  C_32
    7  A    between atoms: C_19  and  N_31
    8  A    between atoms: C_19  and  C_43
    9  A    between atoms: C_19  and  C_44
   10  A    between atoms: C_22  and  C_30
   11  A    between atoms: N_24  and  N_31
   12  A    between atoms: C_32  and  C_33
   13  A    between atoms: C_39  and  C_44
                            x       y       z     vdW  Elec       q    Type
                         _______ _______ _______ _____ _____    ______ ____

>  <TORSDO>
F 13

$$$$
=
 OpenBabel11072413433D

 44 49  0  0  1  0  0  0  0  0999 V2000
  160.5540  203.5150  150.7720 N   0  0  0  0  0  0  0  0  0  0  0  0
  161.5930  205.4570  153.6190 C   0  0  0  0  0  2  0  0  0  0  0  0
  161.7870  205.4790  150.9970 C   0  0  2  0  0  3  0  0  0  0  0  0
  160.9640  204.5860  148.6970 N   0  0  0  0  0  2  0  0  0  0  0  0
  160.8440  203.6210  152.1300 N   0  0  0  0  0  2  0  0  0  0  0  0
  160.5180  206.5170  153.4630 C   0  0  2  0  0  3  0  0  0  0  0  0
  160.9030  207.4710  152.3440 C   0  0  0  0  0  2  0  0  0  0  0  0
  161.8160  204.6800  152.3220 C   0  0  2  0  0  3  0  0  0  0  0  0
  160.8580  206.7070  151.0310 C   0  0  0  0  0  2  0  0  0  0  0  0
  161.1140  204.4710  150.1150 C   0  0  0  0  0  0  0  0  0  0  0  0
  160.2130  207.2310  154.7810 C   0  0  0  0  0  2  0  0  0  0  0  0
  160.6230  208.6730  154.8410 C   0  0  0  0  0  0  0  0  0  0  0  0
  160.4850  210.8310  156.1590 C   0  0  0  0  0  0  0  0  0  0  0  0
  160.3760  209.4070  156.0420 N   0  0  0  0  0  2  0  0  0  0  0  0
  161.2640  209.2030  153.8910 O   0  0  0  0  0  0  0  0  0  0  0  0
  159.9830  211.7070  155.1490 N   0  0  0  0  0  2  0  0  0  0  0  0
  160.9240  211.3400  157.2610 N   0  0  0  0  0  2  0  0  0  0  0  0
  159.2590  211.2400  154.0400 N   0  0  0  0  0  2  0  0  0  0  0  0
  158.0920  212.1040  153.8250 C   0  0  1  0  0  3  0  0  0  0  0  0
  155.9400  212.7220  154.7510 O   0  0  0  0  0  0  0  0  0  0  0  0
  156.0970  211.4140  155.0140 O   0  0  0  0  0  0  0  0  0  0  0  0
  157.1930  212.2480  155.0720 C   0  0  0  0  0  3  0  0  0  0  0  0
  158.6080  214.4440  153.8400 O   0  0  0  0  0  0  0  0  0  0  0  0
  158.4400  213.4130  153.1330 C   0  0  0  0  0  0  0  0  0  0  0  0
  160.1560  213.6660  149.8100 C   0  0  0  0  0  3  0  0  0  0  0  0
  159.8770  213.4930  151.2070 N   0  0  0  0  0  0  0  0  0  0  0  0
  157.5680  213.6900  150.7660 N   0  0  0  0  0  2  0  0  0  0  0  0
  159.1710  213.7250  148.9120 C   0  0  0  0  0  3  0  0  0  0  0  0
  157.7390  213.5280  149.3230 C   0  0  0  0  0  2  0  0  0  0  0  0
  158.6630  213.5180  151.6730 C   0  0  0  0  0  0  0  0  0  0  0  0
  161.9380  205.1850  147.7860 C   0  0  1  0  0  3  0  0  0  0  0  0
  159.8330  202.8940  144.6850 C   0  0  0  0  0  3  0  0  0  0  0  0
  162.4380  204.2060  146.7340 C   0  0  1  0  0  3  0  0  0  0  0  0
  161.6060  203.0750  146.7240 C   0  0  0  0  0  0  0  0  0  0  0  0
  160.6560  204.0740  144.6210 C   0  0  0  0  0  3  0  0  0  0  0  0
  161.5080  204.0920  145.6810 C   0  0  0  0  0  0  0  0  0  0  0  0
  160.8610  201.9400  146.8320 C   0  0  0  0  0  3  0  0  0  0  0  0
  159.9340  201.8780  145.7340 C   0  0  0  0  0  3  0  0  0  0  0  0
  161.3540  206.4330  147.1320 C   0  0  0  0  0  2  0  0  0  0  0  0
  161.2300  207.5580  148.1500 C   0  0  0  0  0  2  0  0  0  0  0  0
  162.3160  208.6040  147.9400 C   0  0  0  0  0  2  0  0  0  0  0  0
  161.9180  210.8960  148.4470 O   0  0  0  0  0  0  0  0  0  0  0  0
  162.2560  209.5310  150.2620 O   0  0  0  0  0  1  0  0  0  0  0  0
  162.1440  209.7400  148.8890 C   0  0  0  0  0  0  0  0  0  0  0  0
  1  5  1  0  0  0  0
  3  9  1  1  0  0  0
  3  8  1  0  0  0  0
  4 10  1  0  0  0  0
  5  8  1  0  0  0  0
  6  2  1  0  0  0  0
  6 11  1  1  0  0  0
  7  6  1  0  0  0  0
  8  2  1  1  0  0  0
  9  7  1  0  0  0  0
 10  1  2  0  0  0  0
 10  3  1  0  0  0  0
 11 12  1  0  0  0  0
 12 14  1  0  0  0  0
 13 17  2  0  0  0  0
 14 13  1  0  0  0  0
 15 12  2  0  0  0  0
 16 13  1  0  0  0  0
 18 16  1  0  0  0  0
 19 24  1  1  0  0  0
 19 18  1  0  0  0  0
 19 22  1  0  0  0  0
 20 21  1  0  0  0  0
 20 22  1  0  0  0  0
 21 22  1  0  0  0  0
 24 23  2  0  0  0  0
 25 26  1  0  0  0  0
 26 30  2  0  0  0  0
 27 30  1  0  0  0  0
 28 29  1  0  0  0  0
 28 25  2  0  0  0  0
 29 27  1  0  0  0  0
 30 24  1  0  0  0  0
 31 39  1  6  0  0  0
 31  4  1  0  0  0  0
 32 38  1  0  0  0  0
 33 31  1  1  0  0  0
 34 33  1  0  0  0  0
 34 37  1  0  0  0  0
 35 32  2  0  0  0  0
 35 36  1  0  0  0  0
 36 34  2  0  0  0  0
 36 33  1  0  0  0  0
 38 37  2  0  0  0  0
 39 40  1  0  0  0  0
 41 40  1  0  0  0  0
 41 44  1  0  0  0  0
 42 44  2  0  0  0  0
 44 43  1  0  0  0  0
M  END
>  <MODEL>
3

>  <REMARK>
 VINA RESULT:      -7.6      2.450      4.019
  Name = 
  13 active torsions:
  status: ('A' for Active; 'I' for Inactive)
    1  A    between atoms: C_4  and  C_8
    2  A    between atoms: C_5  and  C_33
    3  A    between atoms: C_8  and  C_26
    4  A    between atoms: N_10  and  C_33
    5  A    between atoms: C_17  and  C_22
    6  A    between atoms: C_17  and  C_32
    7  A    between atoms: C_19  and  N_31
    8  A    between atoms: C_19  and  C_43
    9  A    between atoms: C_19  and  C_44
   10  A    between atoms: C_22  and  C_30
   11  A    between atoms: N_24  and  N_31
   12  A    between atoms: C_32  and  C_33
   13  A    between atoms: C_39  and  C_44
                            x       y       z     vdW  Elec       q    Type
                         _______ _______ _______ _____ _____    ______ ____

>  <TORSDO>
F 13

$$$$
=
 OpenBabel11072413433D

 44 49  0  0  1  0  0  0  0  0999 V2000
  161.4870  210.8810  155.1520 N   0  0  0  0  0  0  0  0  0  0  0  0
  160.8110  207.3970  154.5520 C   0  0  0  0  0  2  0  0  0  0  0  0
  159.9620  209.7650  153.7870 C   0  0  2  0  0  3  0  0  0  0  0  0
  160.3500  212.3340  153.6630 N   0  0  0  0  0  2  0  0  0  0  0  0
  161.5330  209.5470  155.5520 N   0  0  0  0  0  2  0  0  0  0  0  0
  161.5620  207.3350  153.2330 C   0  0  2  0  0  3  0  0  0  0  0  0
  160.7140  207.9570  152.1360 C   0  0  0  0  0  2  0  0  0  0  0  0
  160.4380  208.8310  154.9250 C   0  0  2  0  0  3  0  0  0  0  0  0
  160.5870  209.4450  152.4170 C   0  0  0  0  0  2  0  0  0  0  0  0
  160.5900  211.0480  154.2420 C   0  0  0  0  0  0  0  0  0  0  0  0
  162.0310  205.9180  152.9000 C   0  0  0  0  0  2  0  0  0  0  0  0
  161.3010  205.2490  151.7720 C   0  0  0  0  0  0  0  0  0  0  0  0
  161.0850  203.1420  150.3830 C   0  0  0  0  0  0  0  0  0  0  0  0
  161.5120  203.8520  151.5510 N   0  0  0  0  0  2  0  0  0  0  0  0
  160.4420  205.8780  151.0940 O   0  0  0  0  0  0  0  0  0  0  0  0
  161.2380  203.6920  149.0730 N   0  0  0  0  0  2  0  0  0  0  0  0
  160.6750  201.9240  150.5010 N   0  0  0  0  0  2  0  0  0  0  0  0
  161.9110  204.9020  148.8390 N   0  0  0  0  0  2  0  0  0  0  0  0
  161.5740  205.3920  147.4970 C   0  0  1  0  0  3  0  0  0  0  0  0
  161.3620  207.6720  148.2860 O   0  0  0  0  0  0  0  0  0  0  0  0
  162.6750  207.3920  148.3060 O   0  0  0  0  0  0  0  0  0  0  0  0
  161.8950  206.8880  147.2880 C   0  0  0  0  0  3  0  0  0  0  0  0
  163.2270  204.6330  145.9370 O   0  0  0  0  0  0  0  0  0  0  0  0
  162.0600  204.4720  146.3890 C   0  0  0  0  0  0  0  0  0  0  0  0
  159.6330  202.5000  144.3200 C   0  0  0  0  0  3  0  0  0  0  0  0
  160.4930  203.5330  144.8250 N   0  0  0  0  0  0  0  0  0  0  0  0
  161.2610  202.0660  146.5050 N   0  0  0  0  0  2  0  0  0  0  0  0
  159.6800  201.2620  144.8140 C   0  0  0  0  0  3  0  0  0  0  0  0
  160.6920  200.8840  145.8580 C   0  0  0  0  0  2  0  0  0  0  0  0
  161.2530  203.3470  145.8640 C   0  0  0  0  0  0  0  0  0  0  0  0
  159.0740  212.7960  153.1180 C   0  0  1  0  0  3  0  0  0  0  0  0
  157.1640  211.9590  156.9840 C   0  0  0  0  0  3  0  0  0  0  0  0
  158.3110  213.6880  154.0860 C   0  0  1  0  0  3  0  0  0  0  0  0
  157.1410  213.0300  154.4970 C   0  0  0  0  0  0  0  0  0  0  0  0
  158.3930  212.6240  156.6390 C   0  0  0  0  0  3  0  0  0  0  0  0
  158.3020  213.1240  155.3770 C   0  0  0  0  0  0  0  0  0  0  0  0
  155.9540  212.4200  154.7700 C   0  0  0  0  0  3  0  0  0  0  0  0
  156.0030  211.8660  156.0970 C   0  0  0  0  0  3  0  0  0  0  0  0
  159.2900  213.5020  151.7840 C   0  0  0  0  0  2  0  0  0  0  0  0
  158.0560  213.3630  150.9040 C   0  0  0  0  0  2  0  0  0  0  0  0
  158.4260  213.4500  149.4300 C   0  0  0  0  0  2  0  0  0  0  0  0
  156.1350  213.8530  148.9210 O   0  0  0  0  0  1  0  0  0  0  0  0
  157.2670  212.5540  147.4030 O   0  0  0  0  0  0  0  0  0  0  0  0
  157.2150  213.3080  148.5730 C   0  0  0  0  0  0  0  0  0  0  0  0
  1  5  1  0  0  0  0
  3  9  1  6  0  0  0
  3 10  1  0  0  0  0
  3  8  1  0  0  0  0
  4 10  1  0  0  0  0
  6 11  1  6  0  0  0
  6  2  1  0  0  0  0
  7  9  1  0  0  0  0
  7  6  1  0  0  0  0
  8  2  1  6  0  0  0
  8  5  1  0  0  0  0
 10  1  2  0  0  0  0
 12 11  1  0  0  0  0
 13 17  2  0  0  0  0
 13 14  1  0  0  0  0
 14 12  1  0  0  0  0
 15 12  2  0  0  0  0
 16 13  1  0  0  0  0
 18 16  1  0  0  0  0
 19 24  1  6  0  0  0
 19 18  1  0  0  0  0
 20 21  1  0  0  0  0
 22 19  1  0  0  0  0
 22 20  1  0  0  0  0
 22 21  1  0  0  0  0
 23 24  2  0  0  0  0
 25 28  2  0  0  0  0
 25 26  1  0  0  0  0
 26 30  2  0  0  0  0
 28 29  1  0  0  0  0
 29 27  1  0  0  0  0
 30 24  1  0  0  0  0
 30 27  1  0  0  0  0
 31 39  1  6  0  0  0
 31  4  1  0  0  0  0
 33 31  1  6  0  0  0
 33 34  1  0  0  0  0
 33 36  1  0  0  0  0
 34 37  2  0  0  0  0
 34 36  1  0  0  0  0
 35 32  1  0  0  0  0
 36 35  2  0  0  0  0
 37 38  1  0  0  0  0
 38 32  2  0  0  0  0
 40 39  1  0  0  0  0
 41 40  1  0  0  0  0
 43 44  2  0  0  0  0
 44 42  1  0  0  0  0
 44 41  1  0  0  0  0
M  END
>  <MODEL>
4

>  <REMARK>
 VINA RESULT:      -7.1      2.988      9.482
  Name = 
  13 active torsions:
  status: ('A' for Active; 'I' for Inactive)
    1  A    between atoms: C_4  and  C_8
    2  A    between atoms: C_5  and  C_33
    3  A    between atoms: C_8  and  C_26
    4  A    between atoms: N_10  and  C_33
    5  A    between atoms: C_17  and  C_22
    6  A    between atoms: C_17  and  C_32
    7  A    between atoms: C_19  and  N_31
    8  A    between atoms: C_19  and  C_43
    9  A    between atoms: C_19  and  C_44
   10  A    between atoms: C_22  and  C_30
   11  A    between atoms: N_24  and  N_31
   12  A    between atoms: C_32  and  C_33
   13  A    between atoms: C_39  and  C_44
                            x       y       z     vdW  Elec       q    Type
                         _______ _______ _______ _____ _____    ______ ____

>  <TORSDO>
F 13

$$$$
=
 OpenBabel11072413433D

 44 49  0  0  1  0  0  0  0  0999 V2000
  160.3130  207.8900  151.5300 N   0  0  0  0  0  0  0  0  0  0  0  0
  162.7750  210.3650  150.6480 C   0  0  0  0  0  2  0  0  0  0  0  0
  162.0240  207.9440  149.9480 C   0  0  2  0  0  3  0  0  0  0  0  0
  160.2310  206.0610  150.0240 N   0  0  0  0  0  2  0  0  0  0  0  0
  161.0840  209.0070  151.8490 N   0  0  0  0  0  2  0  0  0  0  0  0
  162.0410  210.8560  149.4140 C   0  0  2  0  0  3  0  0  0  0  0  0
  162.2440  209.8710  148.2750 C   0  0  0  0  0  2  0  0  0  0  0  0
  162.3060  208.9720  151.0690 C   0  0  2  0  0  3  0  0  0  0  0  0
  161.5330  208.5760  148.6330 C   0  0  0  0  0  2  0  0  0  0  0  0
  160.8380  207.2480  150.5440 C   0  0  0  0  0  0  0  0  0  0  0  0
  162.4270  212.2900  149.0440 C   0  0  0  0  0  2  0  0  0  0  0  0
  161.4490  213.0100  148.1610 C   0  0  0  0  0  0  0  0  0  0  0  0
  159.1980  212.8910  147.0070 C   0  0  0  0  0  0  0  0  0  0  0  0
  160.1410  212.4590  147.9950 N   0  0  0  0  0  2  0  0  0  0  0  0
  161.7370  214.1300  147.6550 O   0  0  0  0  0  0  0  0  0  0  0  0
  159.5940  213.1660  145.6630 N   0  0  0  0  0  2  0  0  0  0  0  0
  157.9410  212.9050  147.2990 N   0  0  0  0  0  2  0  0  0  0  0  0
  160.8970  212.9270  145.1980 N   0  0  0  0  0  2  0  0  0  0  0  0
  161.0490  213.5110  143.8590 C   0  0  1  0  0  3  0  0  0  0  0  0
  163.0660  214.4160  144.8490 O   0  0  0  0  0  0  0  0  0  0  0  0
  163.4680  213.4750  143.9800 O   0  0  0  0  0  0  0  0  0  0  0  0
  162.3840  214.2630  143.6630 C   0  0  0  0  0  3  0  0  0  0  0  0
  160.1520  211.4420  143.0480 O   0  0  0  0  0  0  0  0  0  0  0  0
  160.6900  212.5420  142.7440 C   0  0  0  0  0  0  0  0  0  0  0  0
  162.1330  212.6500  139.2850 C   0  0  0  0  0  3  0  0  0  0  0  0
  161.8610  212.3200  140.6550 N   0  0  0  0  0  0  0  0  0  0  0  0
  160.0140  213.7880  140.6390 N   0  0  0  0  0  2  0  0  0  0  0  0
  161.3030  213.4260  138.5850 C   0  0  0  0  0  3  0  0  0  0  0  0
  160.0120  213.9110  139.1810 C   0  0  0  0  0  2  0  0  0  0  0  0
  160.8750  212.8610  141.3100 C   0  0  0  0  0  0  0  0  0  0  0  0
  160.9400  204.9570  149.3800 C   0  0  1  0  0  3  0  0  0  0  0  0
  160.5050  205.1970  145.0150 C   0  0  0  0  0  3  0  0  0  0  0  0
  161.8920  205.4280  148.2900 C   0  0  1  0  0  3  0  0  0  0  0  0
  161.8860  204.4990  147.2380 C   0  0  0  0  0  0  0  0  0  0  0  0
  160.4730  206.2020  146.0440 C   0  0  0  0  0  3  0  0  0  0  0  0
  161.1790  205.7710  147.1240 C   0  0  0  0  0  0  0  0  0  0  0  0
  161.9550  203.5150  146.2990 C   0  0  0  0  0  3  0  0  0  0  0  0
  161.2130  203.9210  145.1350 C   0  0  0  0  0  3  0  0  0  0  0  0
  161.6760  204.1190  150.4200 C   0  0  0  0  0  2  0  0  0  0  0  0
  160.8230  202.9310  150.8440 C   0  0  0  0  0  2  0  0  0  0  0  0
  161.4210  201.6260  150.3380 C   0  0  0  0  0  2  0  0  0  0  0  0
  161.5210  200.5520  148.2150 O   0  0  0  0  0  0  0  0  0  0  0  0
  159.6050  201.7490  148.6230 O   0  0  0  0  0  1  0  0  0  0  0  0
  160.8550  201.2700  149.0060 C   0  0  0  0  0  0  0  0  0  0  0  0
  1  5  1  0  0  0  0
  3  9  1  6  0  0  0
  3 10  1  0  0  0  0
  3  8  1  0  0  0  0
  4 10  1  0  0  0  0
  6 11  1  6  0  0  0
  6  2  1  0  0  0  0
  7  9  1  0  0  0  0
  7  6  1  0  0  0  0
  8  2  1  6  0  0  0
  8  5  1  0  0  0  0
 10  1  2  0  0  0  0
 12 11  1  0  0  0  0
 13 17  2  0  0  0  0
 13 14  1  0  0  0  0
 14 12  1  0  0  0  0
 15 12  2  0  0  0  0
 16 13  1  0  0  0  0
 18 16  1  0  0  0  0
 19 24  1  6  0  0  0
 19 18  1  0  0  0  0
 21 20  1  0  0  0  0
 22 19  1  0  0  0  0
 22 21  1  0  0  0  0
 22 20  1  0  0  0  0
 24 23  2  0  0  0  0
 25 26  1  0  0  0  0
 26 30  2  0  0  0  0
 27 30  1  0  0  0  0
 28 29  1  0  0  0  0
 28 25  2  0  0  0  0
 29 27  1  0  0  0  0
 30 24  1  0  0  0  0
 31  4  1  0  0  0  0
 31 39  1  1  0  0  0
 32 38  2  0  0  0  0
 32 35  1  0  0  0  0
 33 31  1  1  0  0  0
 34 33  1  0  0  0  0
 35 36  2  0  0  0  0
 36 34  1  0  0  0  0
 36 33  1  0  0  0  0
 37 34  2  0  0  0  0
 38 37  1  0  0  0  0
 39 40  1  0  0  0  0
 41 40  1  0  0  0  0
 42 44  2  0  0  0  0
 43 44  1  0  0  0  0
 44 41  1  0  0  0  0
M  END
>  <MODEL>
5

>  <REMARK>
 VINA RESULT:      -7.0      4.666      7.361
  Name = 
  13 active torsions:
  status: ('A' for Active; 'I' for Inactive)
    1  A    between atoms: C_4  and  C_8
    2  A    between atoms: C_5  and  C_33
    3  A    between atoms: C_8  and  C_26
    4  A    between atoms: N_10  and  C_33
    5  A    between atoms: C_17  and  C_22
    6  A    between atoms: C_17  and  C_32
    7  A    between atoms: C_19  and  N_31
    8  A    between atoms: C_19  and  C_43
    9  A    between atoms: C_19  and  C_44
   10  A    between atoms: C_22  and  C_30
   11  A    between atoms: N_24  and  N_31
   12  A    between atoms: C_32  and  C_33
   13  A    between atoms: C_39  and  C_44
                            x       y       z     vdW  Elec       q    Type
                         _______ _______ _______ _____ _____    ______ ____

>  <TORSDO>
F 13

$$$$
=
 OpenBabel11072413433D

 44 49  0  0  1  0  0  0  0  0999 V2000
  161.4870  209.9550  156.8780 N   0  0  0  0  0  0  0  0  0  0  0  0
  160.4580  207.1340  154.8920 C   0  0  0  0  0  2  0  0  0  0  0  0
  159.8180  209.6550  155.2790 C   0  0  2  0  0  3  0  0  0  0  0  0
  160.4470  211.9880  156.2410 N   0  0  0  0  0  2  0  0  0  0  0  0
  161.4170  208.5790  156.6630 N   0  0  0  0  0  2  0  0  0  0  0  0
  161.1560  207.5950  153.6250 C   0  0  2  0  0  3  0  0  0  0  0  0
  160.3360  208.6900  152.9640 C   0  0  0  0  0  2  0  0  0  0  0  0
  160.2390  208.2870  155.8700 C   0  0  2  0  0  3  0  0  0  0  0  0
  160.3640  209.9150  153.8630 C   0  0  0  0  0  2  0  0  0  0  0  0
  160.5810  210.5640  156.1940 C   0  0  0  0  0  0  0  0  0  0  0  0
  161.4750  206.4310  152.6840 C   0  0  0  0  0  2  0  0  0  0  0  0
  161.8830  206.8240  151.2940 C   0  0  0  0  0  0  0  0  0  0  0  0
  161.6420  208.5510  149.4560 C   0  0  0  0  0  0  0  0  0  0  0  0
  161.5400  208.1290  150.8220 N   0  0  0  0  0  2  0  0  0  0  0  0
  162.6010  206.0610  150.5900 O   0  0  0  0  0  0  0  0  0  0  0  0
  161.2270  207.7100  148.3790 N   0  0  0  0  0  2  0  0  0  0  0  0
  161.9910  209.7660  149.1970 N   0  0  0  0  0  2  0  0  0  0  0  0
  160.5960  206.4730  148.5890 N   0  0  0  0  0  2  0  0  0  0  0  0
  160.7740  205.6300  147.4010 C   0  0  1  0  0  3  0  0  0  0  0  0
  161.3830  205.6050  145.0570 O   0  0  0  0  0  0  0  0  0  0  0  0
  160.1720  206.1810  145.1200 O   0  0  0  0  0  0  0  0  0  0  0  0
  161.0880  206.4310  146.1180 C   0  0  0  0  0  3  0  0  0  0  0  0
  162.8610  204.4700  147.1990 O   0  0  0  0  0  0  0  0  0  0  0  0
  161.6820  204.4370  147.6490 C   0  0  0  0  0  0  0  0  0  0  0  0
  160.5310  200.9950  148.5880 C   0  0  0  0  0  3  0  0  0  0  0  0
  161.0050  202.1390  147.8630 N   0  0  0  0  0  0  0  0  0  0  0  0
  161.1220  203.3620  149.8780 N   0  0  0  0  0  2  0  0  0  0  0  0
  160.4730  200.9980  149.9210 C   0  0  0  0  0  3  0  0  0  0  0  0
  160.9820  202.1690  150.7130 C   0  0  0  0  0  2  0  0  0  0  0  0
  161.2720  203.2660  148.4560 C   0  0  0  0  0  0  0  0  0  0  0  0
  159.2050  212.7310  156.0390 C   0  0  1  0  0  3  0  0  0  0  0  0
  154.9070  211.9350  156.4750 C   0  0  0  0  0  3  0  0  0  0  0  0
  158.2980  212.7010  157.2610 C   0  0  1  0  0  3  0  0  0  0  0  0
  157.1210  213.4120  156.9800 C   0  0  0  0  0  0  0  0  0  0  0  0
  156.0700  211.1380  156.7640 C   0  0  0  0  0  3  0  0  0  0  0  0
  157.1350  211.9520  156.9950 C   0  0  0  0  0  0  0  0  0  0  0  0
  156.0540  214.2170  156.7200 C   0  0  0  0  0  3  0  0  0  0  0  0
  154.8990  213.4000  156.4590 C   0  0  0  0  0  3  0  0  0  0  0  0
  159.5070  214.1670  155.6220 C   0  0  0  0  0  2  0  0  0  0  0  0
  159.1810  214.3710  154.1490 C   0  0  0  0  0  2  0  0  0  0  0  0
  158.0680  213.4330  153.7030 C   0  0  0  0  0  2  0  0  0  0  0  0
  156.3190  213.9530  152.1740 O   0  0  0  0  0  1  0  0  0  0  0  0
  158.4410  214.0250  151.3020 O   0  0  0  0  0  0  0  0  0  0  0  0
  157.5570  213.8250  152.3590 C   0  0  0  0  0  0  0  0  0  0  0  0
  3  9  1  6  0  0  0
  3  8  1  0  0  0  0
  3 10  1  0  0  0  0
  5  1  1  0  0  0  0
  6 11  1  6  0  0  0
  6  2  1  0  0  0  0
  7  6  1  0  0  0  0
  7  9  1  0  0  0  0
  8  2  1  6  0  0  0
  8  5  1  0  0  0  0
 10  4  1  0  0  0  0
 10  1  2  0  0  0  0
 12 11  1  0  0  0  0
 13 14  1  0  0  0  0
 14 12  1  0  0  0  0
 15 12  2  0  0  0  0
 16 18  1  0  0  0  0
 16 13  1  0  0  0  0
 17 13  2  0  0  0  0
 19 24  1  1  0  0  0
 19 18  1  0  0  0  0
 20 21  1  0  0  0  0
 20 22  1  0  0  0  0
 21 22  1  0  0  0  0
 22 19  1  0  0  0  0
 23 24  2  0  0  0  0
 24 30  1  0  0  0  0
 25 28  2  0  0  0  0
 26 30  2  0  0  0  0
 26 25  1  0  0  0  0
 27 29  1  0  0  0  0
 28 29  1  0  0  0  0
 30 27  1  0  0  0  0
 31 39  1  1  0  0  0
 31  4  1  0  0  0  0
 32 35  1  0  0  0  0
 33 31  1  6  0  0  0
 34 36  1  0  0  0  0
 34 33  1  0  0  0  0
 35 36  2  0  0  0  0
 36 33  1  0  0  0  0
 37 34  2  0  0  0  0
 38 32  2  0  0  0  0
 38 37  1  0  0  0  0
 40 39  1  0  0  0  0
 41 40  1  0  0  0  0
 42 44  1  0  0  0  0
 43 44  2  0  0  0  0
 44 41  1  0  0  0  0
M  END
>  <MODEL>
6

>  <REMARK>
 VINA RESULT:      -6.9      2.481      9.941
  Name = 
  13 active torsions:
  status: ('A' for Active; 'I' for Inactive)
    1  A    between atoms: C_4  and  C_8
    2  A    between atoms: C_5  and  C_33
    3  A    between atoms: C_8  and  C_26
    4  A    between atoms: N_10  and  C_33
    5  A    between atoms: C_17  and  C_22
    6  A    between atoms: C_17  and  C_32
    7  A    between atoms: C_19  and  N_31
    8  A    between atoms: C_19  and  C_43
    9  A    between atoms: C_19  and  C_44
   10  A    between atoms: C_22  and  C_30
   11  A    between atoms: N_24  and  N_31
   12  A    between atoms: C_32  and  C_33
   13  A    between atoms: C_39  and  C_44
                            x       y       z     vdW  Elec       q    Type
                         _______ _______ _______ _____ _____    ______ ____

>  <TORSDO>
F 13

$$$$
=
 OpenBabel11072413433D

 44 49  0  0  1  0  0  0  0  0999 V2000
  162.4060  208.4390  148.6410 N   0  0  0  0  0  0  0  0  0  0  0  0
  161.1850  210.2140  151.5240 C   0  0  0  0  0  2  0  0  0  0  0  0
  161.1720  207.7890  150.5080 C   0  0  2  0  0  3  0  0  0  0  0  0
  162.1470  206.0880  148.7980 N   0  0  0  0  0  2  0  0  0  0  0  0
  162.0240  209.6230  149.2680 N   0  0  0  0  0  2  0  0  0  0  0  0
  162.2740  209.7230  152.4610 C   0  0  2  0  0  3  0  0  0  0  0  0
  161.9730  208.2960  152.8880 C   0  0  0  0  0  2  0  0  0  0  0  0
  161.0470  209.3170  150.2950 C   0  0  2  0  0  3  0  0  0  0  0  0
  162.1040  207.3970  151.6700 C   0  0  0  0  0  2  0  0  0  0  0  0
  161.8980  207.4230  149.2490 C   0  0  0  0  0  0  0  0  0  0  0  0
  162.4920  210.6700  153.6430 C   0  0  0  0  0  2  0  0  0  0  0  0
  161.9530  210.1890  154.9580 C   0  0  0  0  0  0  0  0  0  0  0  0
  160.1020  208.9010  156.1100 C   0  0  0  0  0  0  0  0  0  0  0  0
  160.8710  209.2540  154.9550 N   0  0  0  0  0  2  0  0  0  0  0  0
  162.5040  210.5220  156.0440 O   0  0  0  0  0  0  0  0  0  0  0  0
  159.6620  209.8840  157.0480 N   0  0  0  0  0  2  0  0  0  0  0  0
  159.6810  207.6870  156.2390 N   0  0  0  0  0  2  0  0  0  0  0  0
  159.8570  211.2600  156.8430 N   0  0  0  0  0  2  0  0  0  0  0  0
  158.6570  211.8320  156.2200 C   0  0  1  0  0  3  0  0  0  0  0  0
  156.4900  212.7760  156.7510 O   0  0  0  0  0  0  0  0  0  0  0  0
  156.2760  211.4760  156.4920 O   0  0  0  0  0  0  0  0  0  0  0  0
  157.4260  211.8490  157.1530 C   0  0  0  0  0  3  0  0  0  0  0  0
  159.5430  214.0550  156.1100 O   0  0  0  0  0  0  0  0  0  0  0  0
  158.9290  213.1400  155.4960 C   0  0  0  0  0  0  0  0  0  0  0  0
  157.0160  214.1250  152.4260 C   0  0  0  0  0  3  0  0  0  0  0  0
  157.4470  213.9490  153.7830 N   0  0  0  0  0  0  0  0  0  0  0  0
  159.4230  212.9120  153.0170 N   0  0  0  0  0  2  0  0  0  0  0  0
  157.8150  213.8170  151.4030 C   0  0  0  0  0  3  0  0  0  0  0  0
  159.2250  213.3550  151.6370 C   0  0  0  0  0  2  0  0  0  0  0  0
  158.5720  213.3650  154.0760 C   0  0  0  0  0  0  0  0  0  0  0  0
  161.2420  204.9520  148.9690 C   0  0  1  0  0  3  0  0  0  0  0  0
  162.7970  205.4550  144.8920 C   0  0  0  0  0  3  0  0  0  0  0  0
  161.2130  204.0380  147.7530 C   0  0  1  0  0  3  0  0  0  0  0  0
  160.8290  204.7810  146.6260 C   0  0  0  0  0  0  0  0  0  0  0  0
  163.2660  204.6870  146.0150 C   0  0  0  0  0  3  0  0  0  0  0  0
  162.2220  204.3990  146.8380 C   0  0  0  0  0  0  0  0  0  0  0  0
  160.3270  205.5000  145.5830 C   0  0  0  0  0  3  0  0  0  0  0  0
  161.3990  205.8370  144.6850 C   0  0  0  0  0  3  0  0  0  0  0  0
  161.6030  204.1710  150.2280 C   0  0  0  0  0  2  0  0  0  0  0  0
  160.4070  203.3630  150.7120 C   0  0  0  0  0  2  0  0  0  0  0  0
  160.7150  201.8720  150.6950 C   0  0  0  0  0  2  0  0  0  0  0  0
  159.1410  201.3270  148.9940 O   0  0  0  0  0  1  0  0  0  0  0  0
  161.2920  200.6250  148.6060 O   0  0  0  0  0  0  0  0  0  0  0  0
  160.3360  201.2710  149.3850 C   0  0  0  0  0  0  0  0  0  0  0  0
  1 10  2  0  0  0  0
  1  5  1  0  0  0  0
  2  6  1  0  0  0  0
  3  9  1  1  0  0  0
  4 31  1  0  0  0  0
  4 10  1  0  0  0  0
  5  8  1  0  0  0  0
  6  7  1  0  0  0  0
  6 11  1  1  0  0  0
  8  3  1  0  0  0  0
  8  2  1  1  0  0  0
  9  7  1  0  0  0  0
 10  3  1  0  0  0  0
 11 12  1  0  0  0  0
 12 15  2  0  0  0  0
 13 17  2  0  0  0  0
 13 16  1  0  0  0  0
 14 12  1  0  0  0  0
 14 13  1  0  0  0  0
 18 16  1  0  0  0  0
 19 24  1  1  0  0  0
 19 18  1  0  0  0  0
 19 22  1  0  0  0  0
 20 22  1  0  0  0  0
 21 20  1  0  0  0  0
 21 22  1  0  0  0  0
 24 23  2  0  0  0  0
 25 26  1  0  0  0  0
 26 30  2  0  0  0  0
 27 30  1  0  0  0  0
 28 29  1  0  0  0  0
 28 25  2  0  0  0  0
 29 27  1  0  0  0  0
 30 24  1  0  0  0  0
 31 39  1  1  0  0  0
 32 35  1  0  0  0  0
 33 31  1  1  0  0  0
 34 36  1  0  0  0  0
 34 33  1  0  0  0  0
 35 36  2  0  0  0  0
 36 33  1  0  0  0  0
 37 34  2  0  0  0  0
 38 32  2  0  0  0  0
 38 37  1  0  0  0  0
 39 40  1  0  0  0  0
 41 40  1  0  0  0  0
 42 44  1  0  0  0  0
 43 44  2  0  0  0  0
 44 41  1  0  0  0  0
M  END
>  <MODEL>
7

>  <REMARK>
 VINA RESULT:      -6.5      2.530      4.111
  Name = 
  13 active torsions:
  status: ('A' for Active; 'I' for Inactive)
    1  A    between atoms: C_4  and  C_8
    2  A    between atoms: C_5  and  C_33
    3  A    between atoms: C_8  and  C_26
    4  A    between atoms: N_10  and  C_33
    5  A    between atoms: C_17  and  C_22
    6  A    between atoms: C_17  and  C_32
    7  A    between atoms: C_19  and  N_31
    8  A    between atoms: C_19  and  C_43
    9  A    between atoms: C_19  and  C_44
   10  A    between atoms: C_22  and  C_30
   11  A    between atoms: N_24  and  N_31
   12  A    between atoms: C_32  and  C_33
   13  A    between atoms: C_39  and  C_44
                            x       y       z     vdW  Elec       q    Type
                         _______ _______ _______ _____ _____    ______ ____

>  <TORSDO>
F 13

$$$$
=
 OpenBabel11072413433D

 44 49  0  0  1  0  0  0  0  0999 V2000
  161.5300  210.0700  154.5220 N   0  0  0  0  0  0  0  0  0  0  0  0
  160.9750  206.6280  153.6230 C   0  0  0  0  0  2  0  0  0  0  0  0
  160.1220  209.0320  152.9820 C   0  0  2  0  0  3  0  0  0  0  0  0
  160.4570  211.6100  153.0740 N   0  0  0  0  0  2  0  0  0  0  0  0
  161.5810  208.7100  154.8240 N   0  0  0  0  0  2  0  0  0  0  0  0
  161.8090  206.6800  152.3560 C   0  0  2  0  0  3  0  0  0  0  0  0
  161.0190  207.3670  151.2540 C   0  0  0  0  0  2  0  0  0  0  0  0
  160.5460  208.0230  154.0760 C   0  0  2  0  0  3  0  0  0  0  0  0
  160.8410  208.8270  151.6350 C   0  0  0  0  0  2  0  0  0  0  0  0
  160.6890  210.2880  153.5710 C   0  0  0  0  0  0  0  0  0  0  0  0
  162.3310  205.3000  151.9490 C   0  0  0  0  0  2  0  0  0  0  0  0
  161.3960  204.4830  151.1070 C   0  0  0  0  0  0  0  0  0  0  0  0
  160.6720  202.1430  150.4610 C   0  0  0  0  0  0  0  0  0  0  0  0
  161.3230  203.0730  151.3350 N   0  0  0  0  0  2  0  0  0  0  0  0
  160.6150  205.0360  150.2840 O   0  0  0  0  0  0  0  0  0  0  0  0
  160.8130  202.2230  149.0420 N   0  0  0  0  0  2  0  0  0  0  0  0
  160.0540  201.1300  150.9680 N   0  0  0  0  0  2  0  0  0  0  0  0
  161.6780  203.1400  148.4220 N   0  0  0  0  0  2  0  0  0  0  0  0
  161.5800  202.9890  146.9650 C   0  0  1  0  0  3  0  0  0  0  0  0
  160.3720  201.9390  145.1470 O   0  0  0  0  0  0  0  0  0  0  0  0
  160.8730  200.9370  145.8880 O   0  0  0  0  0  0  0  0  0  0  0  0
  160.4180  202.0750  146.5170 C   0  0  0  0  0  3  0  0  0  0  0  0
  161.5990  204.3050  144.9630 O   0  0  0  0  0  0  0  0  0  0  0  0
  161.6780  204.3120  146.2220 C   0  0  0  0  0  0  0  0  0  0  0  0
  160.8310  207.7190  147.5360 C   0  0  0  0  0  3  0  0  0  0  0  0
  160.7590  206.4120  146.9470 N   0  0  0  0  0  0  0  0  0  0  0  0
  163.0210  206.0400  147.5050 N   0  0  0  0  0  2  0  0  0  0  0  0
  161.9210  208.1200  148.1930 C   0  0  0  0  0  3  0  0  0  0  0  0
  163.0780  207.1870  148.4110 C   0  0  0  0  0  2  0  0  0  0  0  0
  161.7880  205.6170  146.9120 C   0  0  0  0  0  0  0  0  0  0  0  0
  159.2080  212.0870  152.4820 C   0  0  1  0  0  3  0  0  0  0  0  0
  159.4160  212.3840  156.8600 C   0  0  0  0  0  3  0  0  0  0  0  0
  158.3050  212.7740  153.4960 C   0  0  1  0  0  3  0  0  0  0  0  0
  158.0620  211.8980  154.5650 C   0  0  0  0  0  0  0  0  0  0  0  0
  159.7100  213.3280  155.8140 C   0  0  0  0  0  3  0  0  0  0  0  0
  159.0000  213.0090  154.6990 C   0  0  0  0  0  0  0  0  0  0  0  0
  157.7410  210.9790  155.5180 C   0  0  0  0  0  3  0  0  0  0  0  0
  158.4770  211.2700  156.7200 C   0  0  0  0  0  3  0  0  0  0  0  0
  159.4980  213.0080  151.3020 C   0  0  0  0  0  2  0  0  0  0  0  0
  160.7420  212.5410  150.5570 C   0  0  0  0  0  2  0  0  0  0  0  0
  160.8540  213.2270  149.2030 C   0  0  0  0  0  2  0  0  0  0  0  0
  162.6490  211.9650  148.2780 O   0  0  0  0  0  1  0  0  0  0  0  0
  160.6610  211.8280  147.1390 O   0  0  0  0  0  0  0  0  0  0  0  0
  161.4400  212.3010  148.1920 C   0  0  0  0  0  0  0  0  0  0  0  0
  1  5  1  0  0  0  0
  3  9  1  6  0  0  0
  3 10  1  0  0  0  0
  3  8  1  0  0  0  0
  4 10  1  0  0  0  0
  6 11  1  6  0  0  0
  6  2  1  0  0  0  0
  7  9  1  0  0  0  0
  7  6  1  0  0  0  0
  8  2  1  6  0  0  0
  8  5  1  0  0  0  0
 10  1  2  0  0  0  0
 12 14  1  0  0  0  0
 12 11  1  0  0  0  0
 13 17  2  0  0  0  0
 13 14  1  0  0  0  0
 15 12  2  0  0  0  0
 16 13  1  0  0  0  0
 18 16  1  0  0  0  0
 19 24  1  6  0  0  0
 19 18  1  0  0  0  0
 20 21  1  0  0  0  0
 20 22  1  0  0  0  0
 21 22  1  0  0  0  0
 22 19  1  0  0  0  0
 23 24  2  0  0  0  0
 24 30  1  0  0  0  0
 25 28  2  0  0  0  0
 26 25  1  0  0  0  0
 27 29  1  0  0  0  0
 28 29  1  0  0  0  0
 30 26  2  0  0  0  0
 30 27  1  0  0  0  0
 31 39  1  6  0  0  0
 31  4  1  0  0  0  0
 33 31  1  6  0  0  0
 33 34  1  0  0  0  0
 33 36  1  0  0  0  0
 34 36  2  0  0  0  0
 34 37  1  0  0  0  0
 35 32  2  0  0  0  0
 36 35  1  0  0  0  0
 37 38  2  0  0  0  0
 38 32  1  0  0  0  0
 40 39  1  0  0  0  0
 41 40  1  0  0  0  0
 43 44  2  0  0  0  0
 44 42  1  0  0  0  0
 44 41  1  0  0  0  0
M  END
>  <MODEL>
8

>  <REMARK>
 VINA RESULT:      -6.4      3.274      9.169
  Name = 
  13 active torsions:
  status: ('A' for Active; 'I' for Inactive)
    1  A    between atoms: C_4  and  C_8
    2  A    between atoms: C_5  and  C_33
    3  A    between atoms: C_8  and  C_26
    4  A    between atoms: N_10  and  C_33
    5  A    between atoms: C_17  and  C_22
    6  A    between atoms: C_17  and  C_32
    7  A    between atoms: C_19  and  N_31
    8  A    between atoms: C_19  and  C_43
    9  A    between atoms: C_19  and  C_44
   10  A    between atoms: C_22  and  C_30
   11  A    between atoms: N_24  and  N_31
   12  A    between atoms: C_32  and  C_33
   13  A    between atoms: C_39  and  C_44
                            x       y       z     vdW  Elec       q    Type
                         _______ _______ _______ _____ _____    ______ ____

>  <TORSDO>
F 13

$$$$
=
 OpenBabel11072413433D

 44 49  0  0  1  0  0  0  0  0999 V2000
  161.1260  204.1480  152.4990 N   0  0  0  0  0  0  0  0  0  0  0  0
  162.5160  207.4330  152.0150 C   0  0  0  0  0  2  0  0  0  0  0  0
  161.7780  205.3390  150.6050 C   0  0  2  0  0  3  0  0  0  0  0  0
  160.4860  203.0850  150.4780 N   0  0  0  0  0  2  0  0  0  0  0  0
  161.8270  205.2540  152.9750 N   0  0  0  0  0  2  0  0  0  0  0  0
  161.2090  208.0740  151.5870 C   0  0  2  0  0  3  0  0  0  0  0  0
  160.9090  207.7050  150.1440 C   0  0  0  0  0  2  0  0  0  0  0  0
  162.4790  205.9130  151.8600 C   0  0  2  0  0  3  0  0  0  0  0  0
  160.6220  206.2130  150.0840 C   0  0  0  0  0  2  0  0  0  0  0  0
  161.1420  204.1250  151.2110 C   0  0  0  0  0  0  0  0  0  0  0  0
  161.1970  209.5840  151.8350 C   0  0  0  0  0  2  0  0  0  0  0  0
  160.9400  209.9990  153.2540 C   0  0  0  0  0  0  0  0  0  0  0  0
  159.8570  209.3600  155.4530 C   0  0  0  0  0  0  0  0  0  0  0  0
  160.3790  209.0430  154.1570 N   0  0  0  0  0  2  0  0  0  0  0  0
  161.3010  211.1340  153.6720 O   0  0  0  0  0  0  0  0  0  0  0  0
  159.0410  210.5120  155.6720 N   0  0  0  0  0  2  0  0  0  0  0  0
  160.0140  208.5180  156.4180 N   0  0  0  0  0  2  0  0  0  0  0  0
  158.6090  211.3380  154.6210 N   0  0  0  0  0  2  0  0  0  0  0  0
  157.9080  212.5020  155.1780 C   0  0  1  0  0  3  0  0  0  0  0  0
  160.0610  213.3070  155.9450 O   0  0  0  0  0  0  0  0  0  0  0  0
  159.3010  214.3980  155.7570 O   0  0  0  0  0  0  0  0  0  0  0  0
  158.7200  213.2530  156.2570 C   0  0  0  0  0  3  0  0  0  0  0  0
  156.3120  214.1240  154.4270 O   0  0  0  0  0  0  0  0  0  0  0  0
  157.2880  213.3900  154.1110 C   0  0  0  0  0  0  0  0  0  0  0  0
  159.6820  213.5050  151.2280 C   0  0  0  0  0  3  0  0  0  0  0  0
  159.1000  213.3460  152.5300 N   0  0  0  0  0  0  0  0  0  0  0  0
  156.9650  213.7770  151.6240 N   0  0  0  0  0  2  0  0  0  0  0  0
  158.9190  213.6720  150.1470 C   0  0  0  0  0  3  0  0  0  0  0  0
  157.4210  213.6140  150.2440 C   0  0  0  0  0  2  0  0  0  0  0  0
  157.8230  213.4870  152.7340 C   0  0  0  0  0  0  0  0  0  0  0  0
  160.8830  202.5960  149.1590 C   0  0  1  0  0  3  0  0  0  0  0  0
  161.2240  199.9760  145.6490 C   0  0  0  0  0  3  0  0  0  0  0  0
  160.0760  201.3840  148.7160 C   0  0  1  0  0  3  0  0  0  0  0  0
  159.7730  201.5050  147.3510 C   0  0  0  0  0  0  0  0  0  0  0  0
  161.5850  199.7910  147.0300 C   0  0  0  0  0  3  0  0  0  0  0  0
  160.8190  200.5970  147.8130 C   0  0  0  0  0  0  0  0  0  0  0  0
  159.3860  201.7170  146.0630 C   0  0  0  0  0  3  0  0  0  0  0  0
  160.1750  200.8890  145.1900 C   0  0  0  0  0  3  0  0  0  0  0  0
  160.7910  203.7160  148.1280 C   0  0  0  0  0  2  0  0  0  0  0  0
  162.1360  203.9200  147.4450 C   0  0  0  0  0  2  0  0  0  0  0  0
  161.9520  204.3070  145.9850 C   0  0  0  0  0  2  0  0  0  0  0  0
  160.5300  205.9090  144.9440 O   0  0  0  0  0  0  0  0  0  0  0  0
  161.6890  206.6640  146.7760 O   0  0  0  0  0  1  0  0  0  0  0  0
  161.3430  205.6630  145.8720 C   0  0  0  0  0  0  0  0  0  0  0  0
  1  5  1  0  0  0  0
  3  9  1  1  0  0  0
  3 10  1  0  0  0  0
  3  8  1  0  0  0  0
  4 10  1  0  0  0  0
  6 11  1  6  0  0  0
  6  2  1  0  0  0  0
  7  6  1  0  0  0  0
  8  2  1  1  0  0  0
  8  5  1  0  0  0  0
  9  7  1  0  0  0  0
 10  1  2  0  0  0  0
 11 12  1  0  0  0  0
 12 15  2  0  0  0  0
 12 14  1  0  0  0  0
 13 16  1  0  0  0  0
 13 17  2  0  0  0  0
 14 13  1  0  0  0  0
 18 19  1  0  0  0  0
 18 16  1  0  0  0  0
 19 24  1  6  0  0  0
 19 22  1  0  0  0  0
 20 22  1  0  0  0  0
 21 20  1  0  0  0  0
 21 22  1  0  0  0  0
 24 23  2  0  0  0  0
 25 26  1  0  0  0  0
 26 30  2  0  0  0  0
 27 30  1  0  0  0  0
 28 29  1  0  0  0  0
 28 25  2  0  0  0  0
 29 27  1  0  0  0  0
 30 24  1  0  0  0  0
 31 39  1  6  0  0  0
 31  4  1  0  0  0  0
 32 35  1  0  0  0  0
 33 31  1  6  0  0  0
 34 36  1  0  0  0  0
 34 33  1  0  0  0  0
 35 36  2  0  0  0  0
 36 33  1  0  0  0  0
 37 34  2  0  0  0  0
 38 32  2  0  0  0  0
 38 37  1  0  0  0  0
 40 39  1  0  0  0  0
 41 40  1  0  0  0  0
 42 44  2  0  0  0  0
 44 41  1  0  0  0  0
 44 43  1  0  0  0  0
M  END
>  <MODEL>
9

>  <REMARK>
 VINA RESULT:      -6.3      2.297      3.933
  Name = 
  13 active torsions:
  status: ('A' for Active; 'I' for Inactive)
    1  A    between atoms: C_4  and  C_8
    2  A    between atoms: C_5  and  C_33
    3  A    between atoms: C_8  and  C_26
    4  A    between atoms: N_10  and  C_33
    5  A    between atoms: C_17  and  C_22
    6  A    between atoms: C_17  and  C_32
    7  A    between atoms: C_19  and  N_31
    8  A    between atoms: C_19  and  C_43
    9  A    between atoms: C_19  and  C_44
   10  A    between atoms: C_22  and  C_30
   11  A    between atoms: N_24  and  N_31
   12  A    between atoms: C_32  and  C_33
   13  A    between atoms: C_39  and  C_44
                            x       y       z     vdW  Elec       q    Type
                         _______ _______ _______ _____ _____    ______ ____

>  <TORSDO>
F 13

$$$$
