=
 OpenBabel11072411273D

 35 37  0  0  1  0  0  0  0  0999 V2000
  161.4330  209.1700  151.7400 C   0  0  0  0  0  0  0  0  0  0  0  0
  161.1610  207.8420  153.7430 C   0  0  0  0  0  3  0  0  0  0  0  0
  161.8100  209.2930  150.4080 O   0  0  0  0  0  1  0  0  0  0  0  0
  160.9480  210.2870  152.4240 C   0  0  0  0  0  3  0  0  0  0  0  0
  160.6760  208.9610  154.4330 C   0  0  0  0  0  0  0  0  0  0  0  0
  160.5640  210.1980  153.7700 C   0  0  0  0  0  0  0  0  0  0  0  0
  161.5360  207.9380  152.4010 C   0  0  0  0  0  0  0  0  0  0  0  0
  160.2710  208.8290  155.8720 C   0  0  2  0  0  3  0  0  0  0  0  0
  161.3730  209.0260  156.7070 O   0  0  0  0  0  1  0  0  0  0  0  0
  159.6650  207.4860  156.1290 C   0  0  0  0  0  3  0  0  0  0  0  0
  160.0540  206.8040  157.0630 O   0  0  0  0  0  0  0  0  0  0  0  0
  162.0670  206.7290  151.7060 C   0  0  0  0  0  2  0  0  0  0  0  0
  160.9300  205.9700  151.0460 C   0  0  0  0  0  2  0  0  0  0  0  0
  161.4480  204.6930  150.4050 C   0  0  0  0  0  2  0  0  0  0  0  0
  161.0790  202.7970  144.9700 O   0  0  0  0  0  0  0  0  0  0  0  0
  162.2710  205.8610  146.2070 C   0  0  0  0  0  2  0  0  0  0  0  0
  161.1190  203.6230  145.9230 C   0  0  0  0  0  0  0  0  0  0  0  0
  161.0390  205.3210  144.2400 O   0  0  0  0  0  1  0  0  0  0  0  0
  161.0850  205.1010  145.6180 C   0  0  2  0  0  3  0  0  0  0  0  0
  161.8510  203.7760  148.2300 O   0  0  0  0  0  0  0  0  0  0  0  0
  160.9510  204.5610  148.9720 C   0  0  2  0  0  3  0  0  0  0  0  0
  161.1220  203.1360  147.2790 N   0  0  0  0  0  0  0  0  0  0  0  0
  162.7820  207.1640  148.1020 O   0  0  0  0  0  0  0  0  0  0  0  0
  160.7780  205.9550  148.3630 C   0  0  0  0  0  2  0  0  0  0  0  0
  161.9890  206.3950  147.5860 C   0  0  0  0  0  0  0  0  0  0  0  0
  160.6490  201.7840  147.5690 C   0  0  0  0  0  2  0  0  0  0  0  0
  160.8750  201.0420  149.9470 C   0  0  0  0  0  1  0  0  0  0  0  0
  161.5460  201.0970  148.5880 C   0  0  0  0  0  2  0  0  0  0  0  0
  160.0570  211.3380  154.4860 N   0  0  0  0  0  2  0  0  0  0  0  0
  157.6000  211.2900  154.8730 C   0  0  0  0  0  3  0  0  0  0  0  0
  156.3520  211.9130  154.7780 C   0  0  0  0  0  3  0  0  0  0  0  0
  158.6410  213.2190  153.8550 C   0  0  0  0  0  3  0  0  0  0  0  0
  157.3950  213.8430  153.7590 C   0  0  0  0  0  3  0  0  0  0  0  0
  158.7560  211.9400  154.4120 C   0  0  0  0  0  0  0  0  0  0  0  0
  156.2490  213.1890  154.2210 C   0  0  0  0  0  3  0  0  0  0  0  0
  1  7  2  0  0  0  0
  1  4  1  0  0  0  0
  2  5  2  0  0  0  0
  3  1  1  0  0  0  0
  4  6  2  0  0  0  0
  5  8  1  0  0  0  0
  6  5  1  0  0  0  0
  6 29  1  0  0  0  0
  7  2  1  0  0  0  0
  8 10  1  0  0  0  0
  8  9  1  1  0  0  0
 10 11  2  0  0  0  0
 12  7  1  0  0  0  0
 13 12  1  0  0  0  0
 14 13  1  0  0  0  0
 15 17  2  0  0  0  0
 16 25  1  0  0  0  0
 17 22  1  0  0  0  0
 19 18  1  6  0  0  0
 19 17  1  0  0  0  0
 19 16  1  0  0  0  0
 20 21  1  0  0  0  0
 21 14  1  1  0  0  0
 22 26  1  0  0  0  0
 22 20  1  0  0  0  0
 24 21  1  0  0  0  0
 25 23  2  0  0  0  0
 25 24  1  0  0  0  0
 26 28  1  0  0  0  0
 28 27  1  0  0  0  0
 31 30  1  0  0  0  0
 32 34  1  0  0  0  0
 33 32  2  0  0  0  0
 33 35  1  0  0  0  0
 34 29  1  0  0  0  0
 34 30  2  0  0  0  0
 35 31  2  0  0  0  0
M  END
>  <MODEL>
1

>  <REMARK>
 VINA RESULT:      -8.7      0.000      0.000
  Name = 
  10 active torsions:
  status: ('A' for Active; 'I' for Inactive)
    1  A    between atoms: C_1  and  C_5
    2  A    between atoms: C_5  and  C_25
    3  A    between atoms: C_6  and  C_18
    4  A    between atoms: C_6  and  C_35
    5  A    between atoms: C_7  and  C_18
    6  A    between atoms: C_7  and  C_21
    7  A    between atoms: C_9  and  N_22
    8  A    between atoms: C_9  and  C_29
    9  A    between atoms: N_26  and  C_31
   10  A    between atoms: N_26  and  C_32
                            x       y       z     vdW  Elec       q    Type
                         _______ _______ _______ _____ _____    ______ ____

>  <TORSDO>
F 10

$$$$
=
 OpenBabel11072411273D

 35 37  0  0  1  0  0  0  0  0999 V2000
  160.8080  207.4280  154.5780 C   0  0  0  0  0  0  0  0  0  0  0  0
  161.4320  208.1810  152.3660 C   0  0  0  0  0  3  0  0  0  0  0  0
  160.5370  206.4060  155.4800 O   0  0  0  0  0  1  0  0  0  0  0  0
  160.7130  208.7570  154.9960 C   0  0  0  0  0  3  0  0  0  0  0  0
  161.3360  209.5170  152.7810 C   0  0  0  0  0  0  0  0  0  0  0  0
  160.9750  209.8130  154.1090 C   0  0  0  0  0  0  0  0  0  0  0  0
  161.1750  207.1360  153.2570 C   0  0  0  0  0  0  0  0  0  0  0  0
  161.6260  210.6210  151.8070 C   0  0  2  0  0  3  0  0  0  0  0  0
  160.4860  211.4000  151.6010 O   0  0  0  0  0  1  0  0  0  0  0  0
  162.1100  210.0630  150.5060 C   0  0  0  0  0  3  0  0  0  0  0  0
  162.1290  210.7620  149.5070 O   0  0  0  0  0  0  0  0  0  0  0  0
  161.2690  205.7290  152.7720 C   0  0  0  0  0  2  0  0  0  0  0  0
  160.6870  205.6220  151.3740 C   0  0  0  0  0  2  0  0  0  0  0  0
  161.4130  204.5490  150.5800 C   0  0  0  0  0  2  0  0  0  0  0  0
  161.1500  203.0970  145.0040 O   0  0  0  0  0  0  0  0  0  0  0  0
  162.2070  206.0940  146.5000 C   0  0  0  0  0  2  0  0  0  0  0  0
  161.1500  203.8430  146.0220 C   0  0  0  0  0  0  0  0  0  0  0  0
  161.0080  205.6700  144.4850 O   0  0  0  0  0  1  0  0  0  0  0  0
  161.0570  205.3380  145.8400 C   0  0  2  0  0  3  0  0  0  0  0  0
  161.8640  203.8330  148.3400 O   0  0  0  0  0  0  0  0  0  0  0  0
  160.9280  204.5160  149.1370 C   0  0  2  0  0  3  0  0  0  0  0  0
  161.1660  203.2450  147.3330 N   0  0  0  0  0  0  0  0  0  0  0  0
  162.6540  207.2550  148.5000 O   0  0  0  0  0  0  0  0  0  0  0  0
  160.7010  205.9470  148.6440 C   0  0  0  0  0  2  0  0  0  0  0  0
  161.8960  206.4990  147.9160 C   0  0  0  0  0  0  0  0  0  0  0  0
  160.7490  201.8550  147.5060 C   0  0  0  0  0  2  0  0  0  0  0  0
  160.5220  201.0130  149.8500 C   0  0  0  0  0  1  0  0  0  0  0  0
  161.4670  201.2090  148.6820 C   0  0  0  0  0  2  0  0  0  0  0  0
  160.8860  211.1870  154.5270 N   0  0  0  0  0  2  0  0  0  0  0  0
  159.8320  212.9290  155.9560 C   0  0  0  0  0  3  0  0  0  0  0  0
  158.6870  213.6080  156.3830 C   0  0  0  0  0  3  0  0  0  0  0  0
  158.4830  211.5890  154.4630 C   0  0  0  0  0  3  0  0  0  0  0  0
  157.3380  212.2670  154.8880 C   0  0  0  0  0  3  0  0  0  0  0  0
  159.7380  211.9130  154.9910 C   0  0  0  0  0  0  0  0  0  0  0  0
  157.4390  213.2770  155.8490 C   0  0  0  0  0  3  0  0  0  0  0  0
  1  4  1  0  0  0  0
  1  3  1  0  0  0  0
  2  5  2  0  0  0  0
  2  7  1  0  0  0  0
  5  6  1  0  0  0  0
  6 29  1  0  0  0  0
  6  4  2  0  0  0  0
  7  1  2  0  0  0  0
  8  9  1  6  0  0  0
  8  5  1  0  0  0  0
 10  8  1  0  0  0  0
 11 10  2  0  0  0  0
 12  7  1  0  0  0  0
 13 12  1  0  0  0  0
 14 13  1  0  0  0  0
 15 17  2  0  0  0  0
 16 25  1  0  0  0  0
 17 22  1  0  0  0  0
 19 18  1  6  0  0  0
 19 17  1  0  0  0  0
 19 16  1  0  0  0  0
 20 21  1  0  0  0  0
 21 14  1  1  0  0  0
 22 26  1  0  0  0  0
 22 20  1  0  0  0  0
 24 21  1  0  0  0  0
 25 23  2  0  0  0  0
 25 24  1  0  0  0  0
 26 28  1  0  0  0  0
 28 27  1  0  0  0  0
 29 34  1  0  0  0  0
 30 31  1  0  0  0  0
 32 33  2  0  0  0  0
 32 34  1  0  0  0  0
 33 35  1  0  0  0  0
 34 30  2  0  0  0  0
 35 31  2  0  0  0  0
M  END
>  <MODEL>
2

>  <REMARK>
 VINA RESULT:      -8.1      1.115      2.808
  Name = 
  10 active torsions:
  status: ('A' for Active; 'I' for Inactive)
    1  A    between atoms: C_1  and  C_5
    2  A    between atoms: C_5  and  C_25
    3  A    between atoms: C_6  and  C_18
    4  A    between atoms: C_6  and  C_35
    5  A    between atoms: C_7  and  C_18
    6  A    between atoms: C_7  and  C_21
    7  A    between atoms: C_9  and  N_22
    8  A    between atoms: C_9  and  C_29
    9  A    between atoms: N_26  and  C_31
   10  A    between atoms: N_26  and  C_32
                            x       y       z     vdW  Elec       q    Type
                         _______ _______ _______ _____ _____    ______ ____

>  <TORSDO>
F 10

$$$$
=
 OpenBabel11072411273D

 35 37  0  0  1  0  0  0  0  0999 V2000
  161.3290  210.3290  151.8130 C   0  0  0  0  0  0  0  0  0  0  0  0
  161.4600  208.4370  153.3150 C   0  0  0  0  0  3  0  0  0  0  0  0
  161.4920  210.8900  150.5530 O   0  0  0  0  0  1  0  0  0  0  0  0
  160.8660  211.1220  152.8650 C   0  0  0  0  0  3  0  0  0  0  0  0
  160.9990  209.2300  154.3750 C   0  0  0  0  0  0  0  0  0  0  0  0
  160.6950  210.5870  154.1520 C   0  0  0  0  0  0  0  0  0  0  0  0
  161.6230  208.9760  152.0370 C   0  0  0  0  0  0  0  0  0  0  0  0
  160.8240  208.6250  155.7360 C   0  0  2  0  0  3  0  0  0  0  0  0
  162.0360  208.6310  156.4290 O   0  0  0  0  0  1  0  0  0  0  0  0
  160.3000  207.2280  155.6290 C   0  0  0  0  0  3  0  0  0  0  0  0
  159.1900  206.9540  156.0550 O   0  0  0  0  0  0  0  0  0  0  0  0
  162.1350  208.1040  150.9410 C   0  0  0  0  0  2  0  0  0  0  0  0
  160.9820  207.3710  150.2790 C   0  0  0  0  0  2  0  0  0  0  0  0
  161.2860  207.1210  148.8110 C   0  0  0  0  0  2  0  0  0  0  0  0
  161.0340  201.3720  148.4270 O   0  0  0  0  0  0  0  0  0  0  0  0
  162.1180  203.7390  146.0680 C   0  0  0  0  0  2  0  0  0  0  0  0
  161.0380  202.5730  148.0410 C   0  0  0  0  0  0  0  0  0  0  0  0
  160.9240  201.6910  145.8210 O   0  0  0  0  0  1  0  0  0  0  0  0
  160.9620  202.8720  146.5640 C   0  0  2  0  0  3  0  0  0  0  0  0
  161.7400  204.7710  148.7900 O   0  0  0  0  0  0  0  0  0  0  0  0
  160.8080  205.7420  148.3820 C   0  0  2  0  0  3  0  0  0  0  0  0
  161.0410  203.6290  149.0210 N   0  0  0  0  0  0  0  0  0  0  0  0
  162.5680  206.0030  145.6030 O   0  0  0  0  0  0  0  0  0  0  0  0
  160.6000  205.7250  146.8650 C   0  0  0  0  0  2  0  0  0  0  0  0
  161.8050  205.2100  146.1260 C   0  0  0  0  0  0  0  0  0  0  0  0
  160.6070  203.3540  150.3900 C   0  0  0  0  0  2  0  0  0  0  0  0
  161.1670  204.6700  152.4420 C   0  0  0  0  0  1  0  0  0  0  0  0
  161.6950  203.7130  151.3920 C   0  0  0  0  0  2  0  0  0  0  0  0
  160.2140  211.3910  155.2440 N   0  0  0  0  0  2  0  0  0  0  0  0
  158.6380  213.2720  155.6490 C   0  0  0  0  0  3  0  0  0  0  0  0
  157.3340  213.7270  155.8700 C   0  0  0  0  0  3  0  0  0  0  0  0
  157.8240  211.0000  155.5140 C   0  0  0  0  0  3  0  0  0  0  0  0
  156.5200  211.4530  155.7340 C   0  0  0  0  0  3  0  0  0  0  0  0
  158.8920  211.9030  155.4690 C   0  0  0  0  0  0  0  0  0  0  0  0
  156.2750  212.8170  155.9120 C   0  0  0  0  0  3  0  0  0  0  0  0
  1  7  2  0  0  0  0
  1  4  1  0  0  0  0
  2  5  2  0  0  0  0
  3  1  1  0  0  0  0
  4  6  2  0  0  0  0
  5  8  1  0  0  0  0
  6  5  1  0  0  0  0
  6 29  1  0  0  0  0
  7  2  1  0  0  0  0
  8  9  1  6  0  0  0
 10  8  1  0  0  0  0
 10 11  2  0  0  0  0
 12  7  1  0  0  0  0
 13 12  1  0  0  0  0
 14 13  1  0  0  0  0
 16 25  1  0  0  0  0
 16 19  1  0  0  0  0
 17 15  2  0  0  0  0
 17 22  1  0  0  0  0
 19 18  1  6  0  0  0
 19 17  1  0  0  0  0
 20 22  1  0  0  0  0
 21 20  1  0  0  0  0
 21 14  1  6  0  0  0
 22 26  1  0  0  0  0
 23 25  2  0  0  0  0
 24 21  1  0  0  0  0
 25 24  1  0  0  0  0
 26 28  1  0  0  0  0
 28 27  1  0  0  0  0
 29 34  1  0  0  0  0
 30 31  1  0  0  0  0
 31 35  2  0  0  0  0
 32 33  2  0  0  0  0
 33 35  1  0  0  0  0
 34 32  1  0  0  0  0
 34 30  2  0  0  0  0
M  END
>  <MODEL>
3

>  <REMARK>
 VINA RESULT:      -8.0      1.361      2.198
  Name = 
  10 active torsions:
  status: ('A' for Active; 'I' for Inactive)
    1  A    between atoms: C_1  and  C_5
    2  A    between atoms: C_5  and  C_25
    3  A    between atoms: C_6  and  C_18
    4  A    between atoms: C_6  and  C_35
    5  A    between atoms: C_7  and  C_18
    6  A    between atoms: C_7  and  C_21
    7  A    between atoms: C_9  and  N_22
    8  A    between atoms: C_9  and  C_29
    9  A    between atoms: N_26  and  C_31
   10  A    between atoms: N_26  and  C_32
                            x       y       z     vdW  Elec       q    Type
                         _______ _______ _______ _____ _____    ______ ____

>  <TORSDO>
F 10

$$$$
=
 OpenBabel11072411273D

 35 37  0  0  1  0  0  0  0  0999 V2000
  161.0980  208.8200  153.5200 C   0  0  0  0  0  0  0  0  0  0  0  0
  160.8440  210.3440  151.6580 C   0  0  0  0  0  3  0  0  0  0  0  0
  161.5160  207.6020  154.0420 O   0  0  0  0  0  1  0  0  0  0  0  0
  160.4880  209.7550  154.3580 C   0  0  0  0  0  3  0  0  0  0  0  0
  160.2290  211.2840  152.4970 C   0  0  0  0  0  0  0  0  0  0  0  0
  160.0490  210.9920  153.8620 C   0  0  0  0  0  0  0  0  0  0  0  0
  161.2830  209.1170  152.1620 C   0  0  0  0  0  0  0  0  0  0  0  0
  159.7750  212.5980  151.9330 C   0  0  2  0  0  3  0  0  0  0  0  0
  158.4060  212.5640  151.6620 O   0  0  0  0  0  1  0  0  0  0  0  0
  160.5380  212.9310  150.6900 C   0  0  0  0  0  3  0  0  0  0  0  0
  160.0070  213.5700  149.7960 O   0  0  0  0  0  0  0  0  0  0  0  0
  161.9140  208.1350  151.2340 C   0  0  0  0  0  2  0  0  0  0  0  0
  160.8410  207.3300  150.5220 C   0  0  0  0  0  2  0  0  0  0  0  0
  161.2190  207.1170  149.0660 C   0  0  0  0  0  2  0  0  0  0  0  0
  161.0240  201.3870  148.4470 O   0  0  0  0  0  0  0  0  0  0  0  0
  162.1080  203.8560  146.1970 C   0  0  0  0  0  2  0  0  0  0  0  0
  161.0200  202.6020  148.1100 C   0  0  0  0  0  0  0  0  0  0  0  0
  160.9350  201.8090  145.8550 O   0  0  0  0  0  1  0  0  0  0  0  0
  160.9560  202.9600  146.6450 C   0  0  2  0  0  3  0  0  0  0  0  0
  161.6950  204.7740  148.9540 O   0  0  0  0  0  0  0  0  0  0  0  0
  160.7580  205.7520  148.5760 C   0  0  2  0  0  3  0  0  0  0  0  0
  161.0040  203.6180  149.1320 N   0  0  0  0  0  0  0  0  0  0  0  0
  162.5410  206.1410  145.8270 O   0  0  0  0  0  0  0  0  0  0  0  0
  160.5640  205.7950  147.0580 C   0  0  0  0  0  2  0  0  0  0  0  0
  161.7800  205.3210  146.3110 C   0  0  0  0  0  0  0  0  0  0  0  0
  160.5590  203.2830  150.4840 C   0  0  0  0  0  2  0  0  0  0  0  0
  161.1030  204.5420  152.5770 C   0  0  0  0  0  1  0  0  0  0  0  0
  161.6360  203.6060  151.5100 C   0  0  0  0  0  2  0  0  0  0  0  0
  159.4240  211.9670  154.7160 N   0  0  0  0  0  2  0  0  0  0  0  0
  157.9360  212.4440  156.6520 C   0  0  0  0  0  3  0  0  0  0  0  0
  156.6800  212.3520  157.2590 C   0  0  0  0  0  3  0  0  0  0  0  0
  157.0900  211.2650  154.7190 C   0  0  0  0  0  3  0  0  0  0  0  0
  155.8330  211.1730  155.3230 C   0  0  0  0  0  3  0  0  0  0  0  0
  158.1500  211.9000  155.3750 C   0  0  0  0  0  0  0  0  0  0  0  0
  155.6280  211.7170  156.5950 C   0  0  0  0  0  3  0  0  0  0  0  0
  1  3  1  0  0  0  0
  1  4  1  0  0  0  0
  2  7  1  0  0  0  0
  2  5  2  0  0  0  0
  5  6  1  0  0  0  0
  6  4  2  0  0  0  0
  6 29  1  0  0  0  0
  7  1  2  0  0  0  0
  8  9  1  6  0  0  0
  8  5  1  0  0  0  0
 10  8  1  0  0  0  0
 11 10  2  0  0  0  0
 12  7  1  0  0  0  0
 13 12  1  0  0  0  0
 14 13  1  0  0  0  0
 16 25  1  0  0  0  0
 16 19  1  0  0  0  0
 17 15  2  0  0  0  0
 17 22  1  0  0  0  0
 19 18  1  6  0  0  0
 19 17  1  0  0  0  0
 20 22  1  0  0  0  0
 21 20  1  0  0  0  0
 21 14  1  6  0  0  0
 22 26  1  0  0  0  0
 23 25  2  0  0  0  0
 24 21  1  0  0  0  0
 25 24  1  0  0  0  0
 26 28  1  0  0  0  0
 28 27  1  0  0  0  0
 29 34  1  0  0  0  0
 30 31  1  0  0  0  0
 32 33  2  0  0  0  0
 32 34  1  0  0  0  0
 33 35  1  0  0  0  0
 34 30  2  0  0  0  0
 35 31  2  0  0  0  0
M  END
>  <MODEL>
4

>  <REMARK>
 VINA RESULT:      -7.6      1.951      3.550
  Name = 
  10 active torsions:
  status: ('A' for Active; 'I' for Inactive)
    1  A    between atoms: C_1  and  C_5
    2  A    between atoms: C_5  and  C_25
    3  A    between atoms: C_6  and  C_18
    4  A    between atoms: C_6  and  C_35
    5  A    between atoms: C_7  and  C_18
    6  A    between atoms: C_7  and  C_21
    7  A    between atoms: C_9  and  N_22
    8  A    between atoms: C_9  and  C_29
    9  A    between atoms: N_26  and  C_31
   10  A    between atoms: N_26  and  C_32
                            x       y       z     vdW  Elec       q    Type
                         _______ _______ _______ _____ _____    ______ ____

>  <TORSDO>
F 10

$$$$
=
 OpenBabel11072411273D

 35 37  0  0  1  0  0  0  0  0999 V2000
  161.6790  208.5410  151.3850 C   0  0  0  0  0  0  0  0  0  0  0  0
  161.4510  207.2220  153.4000 C   0  0  0  0  0  3  0  0  0  0  0  0
  161.9700  208.6450  150.0300 O   0  0  0  0  0  1  0  0  0  0  0  0
  161.3250  209.6850  152.1030 C   0  0  0  0  0  3  0  0  0  0  0  0
  161.0970  208.3690  154.1250 C   0  0  0  0  0  0  0  0  0  0  0  0
  161.0300  209.6150  153.4730 C   0  0  0  0  0  0  0  0  0  0  0  0
  161.7380  207.3000  152.0350 C   0  0  0  0  0  0  0  0  0  0  0  0
  160.7840  208.2570  155.5880 C   0  0  2  0  0  3  0  0  0  0  0  0
  161.9540  208.3610  156.3440 O   0  0  0  0  0  1  0  0  0  0  0  0
  160.0950  206.9630  155.8830 C   0  0  0  0  0  3  0  0  0  0  0  0
  158.8980  206.9450  156.1200 O   0  0  0  0  0  0  0  0  0  0  0  0
  162.1290  206.0610  151.3040 C   0  0  0  0  0  2  0  0  0  0  0  0
  161.6880  204.8360  152.0850 C   0  0  0  0  0  2  0  0  0  0  0  0
  160.6220  204.0730  151.3150 C   0  0  0  0  0  2  0  0  0  0  0  0
  161.4730  203.1910  145.6800 O   0  0  0  0  0  0  0  0  0  0  0  0
  159.8310  201.1830  148.0480 C   0  0  0  0  0  2  0  0  0  0  0  0
  161.2820  202.9090  146.8940 C   0  0  0  0  0  0  0  0  0  0  0  0
  161.2070  200.6260  146.1830 O   0  0  0  0  0  1  0  0  0  0  0  0
  161.1310  201.4630  147.2990 C   0  0  2  0  0  3  0  0  0  0  0  0
  160.4390  203.9150  148.9340 O   0  0  0  0  0  0  0  0  0  0  0  0
  161.1940  203.4770  150.0370 C   0  0  2  0  0  3  0  0  0  0  0  0
  161.2870  203.9660  147.8740 N   0  0  0  0  0  0  0  0  0  0  0  0
  159.0700  200.9620  150.2660 O   0  0  0  0  0  0  0  0  0  0  0  0
  161.2040  201.9510  150.1480 C   0  0  0  0  0  2  0  0  0  0  0  0
  159.9800  201.3230  149.5390 C   0  0  0  0  0  0  0  0  0  0  0  0
  161.9240  205.2440  147.5630 C   0  0  0  0  0  2  0  0  0  0  0  0
  160.4560  206.4080  145.9040 C   0  0  0  0  0  1  0  0  0  0  0  0
  160.8850  206.3370  147.3570 C   0  0  0  0  0  2  0  0  0  0  0  0
  160.6580  210.7850  154.2240 N   0  0  0  0  0  2  0  0  0  0  0  0
  158.5360  211.3370  155.4000 C   0  0  0  0  0  3  0  0  0  0  0  0
  157.3020  211.9950  155.4170 C   0  0  0  0  0  3  0  0  0  0  0  0
  158.9790  212.2200  153.1940 C   0  0  0  0  0  3  0  0  0  0  0  0
  157.7470  212.8790  153.2090 C   0  0  0  0  0  3  0  0  0  0  0  0
  159.3850  211.4460  154.2870 C   0  0  0  0  0  0  0  0  0  0  0  0
  156.9080  212.7660  154.3210 C   0  0  0  0  0  3  0  0  0  0  0  0
  1  7  2  0  0  0  0
  1  4  1  0  0  0  0
  2  5  2  0  0  0  0
  3  1  1  0  0  0  0
  4  6  2  0  0  0  0
  5  8  1  0  0  0  0
  6  5  1  0  0  0  0
  6 29  1  0  0  0  0
  7  2  1  0  0  0  0
  8 10  1  0  0  0  0
  8  9  1  1  0  0  0
 10 11  2  0  0  0  0
 12  7  1  0  0  0  0
 12 13  1  0  0  0  0
 14 13  1  0  0  0  0
 15 17  2  0  0  0  0
 16 25  1  0  0  0  0
 17 19  1  0  0  0  0
 17 22  1  0  0  0  0
 19 18  1  6  0  0  0
 19 16  1  0  0  0  0
 20 21  1  0  0  0  0
 21 24  1  0  0  0  0
 21 14  1  1  0  0  0
 22 20  1  0  0  0  0
 25 24  1  0  0  0  0
 25 23  2  0  0  0  0
 26 22  1  0  0  0  0
 27 28  1  0  0  0  0
 28 26  1  0  0  0  0
 29 34  1  0  0  0  0
 30 31  1  0  0  0  0
 32 33  2  0  0  0  0
 32 34  1  0  0  0  0
 33 35  1  0  0  0  0
 34 30  2  0  0  0  0
 35 31  2  0  0  0  0
M  END
>  <MODEL>
5

>  <REMARK>
 VINA RESULT:      -7.3      1.335      2.932
  Name = 
  10 active torsions:
  status: ('A' for Active; 'I' for Inactive)
    1  A    between atoms: C_1  and  C_5
    2  A    between atoms: C_5  and  C_25
    3  A    between atoms: C_6  and  C_18
    4  A    between atoms: C_6  and  C_35
    5  A    between atoms: C_7  and  C_18
    6  A    between atoms: C_7  and  C_21
    7  A    between atoms: C_9  and  N_22
    8  A    between atoms: C_9  and  C_29
    9  A    between atoms: N_26  and  C_31
   10  A    between atoms: N_26  and  C_32
                            x       y       z     vdW  Elec       q    Type
                         _______ _______ _______ _____ _____    ______ ____

>  <TORSDO>
F 10

$$$$
=
 OpenBabel11072411273D

 35 37  0  0  1  0  0  0  0  0999 V2000
  160.7560  207.3970  154.7390 C   0  0  0  0  0  0  0  0  0  0  0  0
  161.5210  207.6650  152.4600 C   0  0  0  0  0  3  0  0  0  0  0  0
  160.3890  206.5890  155.8090 O   0  0  0  0  0  1  0  0  0  0  0  0
  160.7140  208.7860  154.8800 C   0  0  0  0  0  3  0  0  0  0  0  0
  161.4790  209.0590  152.5970 C   0  0  0  0  0  0  0  0  0  0  0  0
  161.0740  209.6300  153.8190 C   0  0  0  0  0  0  0  0  0  0  0  0
  161.1670  206.8320  153.5240 C   0  0  0  0  0  0  0  0  0  0  0  0
  161.8730  209.9320  151.4420 C   0  0  2  0  0  3  0  0  0  0  0  0
  160.8990  210.9060  151.2150 O   0  0  0  0  0  1  0  0  0  0  0  0
  162.0800  209.1130  150.2080 C   0  0  0  0  0  3  0  0  0  0  0  0
  161.9570  209.6210  149.1060 O   0  0  0  0  0  0  0  0  0  0  0  0
  161.2060  205.3530  153.3330 C   0  0  0  0  0  2  0  0  0  0  0  0
  161.6340  205.0250  151.9130 C   0  0  0  0  0  2  0  0  0  0  0  0
  160.6390  204.0740  151.2670 C   0  0  0  0  0  2  0  0  0  0  0  0
  161.4940  203.1820  145.6340 O   0  0  0  0  0  0  0  0  0  0  0  0
  159.8310  201.1890  148.0000 C   0  0  0  0  0  2  0  0  0  0  0  0
  161.2990  202.9010  146.8490 C   0  0  0  0  0  0  0  0  0  0  0  0
  161.2060  200.6190  146.1390 O   0  0  0  0  0  1  0  0  0  0  0  0
  161.1350  201.4570  147.2540 C   0  0  2  0  0  3  0  0  0  0  0  0
  160.4590  203.9160  148.8850 O   0  0  0  0  0  0  0  0  0  0  0  0
  161.2080  203.4730  149.9900 C   0  0  2  0  0  3  0  0  0  0  0  0
  161.3100  203.9590  147.8270 N   0  0  0  0  0  0  0  0  0  0  0  0
  159.0640  200.9760  150.2170 O   0  0  0  0  0  0  0  0  0  0  0  0
  161.2060  201.9460  150.1020 C   0  0  0  0  0  2  0  0  0  0  0  0
  159.9780  201.3280  149.4920 C   0  0  0  0  0  0  0  0  0  0  0  0
  161.9570  205.2320  147.5170 C   0  0  0  0  0  2  0  0  0  0  0  0
  160.4550  206.3260  145.8420 C   0  0  0  0  0  1  0  0  0  0  0  0
  160.9270  206.3270  147.2830 C   0  0  0  0  0  2  0  0  0  0  0  0
  161.0410  211.0630  153.9510 N   0  0  0  0  0  2  0  0  0  0  0  0
  160.0820  212.5690  155.6830 C   0  0  0  0  0  3  0  0  0  0  0  0
  159.0280  213.3670  156.1380 C   0  0  0  0  0  3  0  0  0  0  0  0
  158.8200  212.0320  153.6930 C   0  0  0  0  0  3  0  0  0  0  0  0
  157.7650  212.8290  154.1450 C   0  0  0  0  0  3  0  0  0  0  0  0
  159.9860  211.8950  154.4550 C   0  0  0  0  0  0  0  0  0  0  0  0
  157.8690  213.4970  155.3690 C   0  0  0  0  0  3  0  0  0  0  0  0
  1  4  1  0  0  0  0
  1  3  1  0  0  0  0
  2  5  2  0  0  0  0
  2  7  1  0  0  0  0
  5  6  1  0  0  0  0
  6 29  1  0  0  0  0
  6  4  2  0  0  0  0
  7  1  2  0  0  0  0
  8  9  1  6  0  0  0
  8  5  1  0  0  0  0
 10  8  1  0  0  0  0
 11 10  2  0  0  0  0
 12  7  1  0  0  0  0
 13 12  1  0  0  0  0
 14 13  1  0  0  0  0
 15 17  2  0  0  0  0
 16 25  1  0  0  0  0
 17 19  1  0  0  0  0
 17 22  1  0  0  0  0
 19 18  1  6  0  0  0
 19 16  1  0  0  0  0
 20 21  1  0  0  0  0
 21 24  1  0  0  0  0
 21 14  1  1  0  0  0
 22 20  1  0  0  0  0
 25 24  1  0  0  0  0
 25 23  2  0  0  0  0
 26 22  1  0  0  0  0
 27 28  1  0  0  0  0
 28 26  1  0  0  0  0
 29 34  1  0  0  0  0
 30 31  1  0  0  0  0
 32 33  2  0  0  0  0
 32 34  1  0  0  0  0
 33 35  1  0  0  0  0
 34 30  2  0  0  0  0
 35 31  2  0  0  0  0
M  END
>  <MODEL>
6

>  <REMARK>
 VINA RESULT:      -7.0      1.530      4.002
  Name = 
  10 active torsions:
  status: ('A' for Active; 'I' for Inactive)
    1  A    between atoms: C_1  and  C_5
    2  A    between atoms: C_5  and  C_25
    3  A    between atoms: C_6  and  C_18
    4  A    between atoms: C_6  and  C_35
    5  A    between atoms: C_7  and  C_18
    6  A    between atoms: C_7  and  C_21
    7  A    between atoms: C_9  and  N_22
    8  A    between atoms: C_9  and  C_29
    9  A    between atoms: N_26  and  C_31
   10  A    between atoms: N_26  and  C_32
                            x       y       z     vdW  Elec       q    Type
                         _______ _______ _______ _____ _____    ______ ____

>  <TORSDO>
F 10

$$$$
=
 OpenBabel11072411273D

 35 37  0  0  1  0  0  0  0  0999 V2000
  160.3460  211.8390  152.3990 C   0  0  0  0  0  0  0  0  0  0  0  0
  161.6720  210.2670  153.6730 C   0  0  0  0  0  3  0  0  0  0  0  0
  159.9910  212.4290  151.1920 O   0  0  0  0  0  1  0  0  0  0  0  0
  159.7160  212.2490  153.5760 C   0  0  0  0  0  3  0  0  0  0  0  0
  161.0440  210.6780  154.8570 C   0  0  0  0  0  0  0  0  0  0  0  0
  160.0530  211.6780  154.8130 C   0  0  0  0  0  0  0  0  0  0  0  0
  161.3260  210.8380  152.4450 C   0  0  0  0  0  0  0  0  0  0  0  0
  161.4280  210.0430  156.1610 C   0  0  2  0  0  3  0  0  0  0  0  0
  162.8100  210.1060  156.3440 O   0  0  0  0  0  1  0  0  0  0  0  0
  160.9660  208.6210  156.2110 C   0  0  0  0  0  3  0  0  0  0  0  0
  159.8200  208.3350  155.9060 O   0  0  0  0  0  0  0  0  0  0  0  0
  162.0310  210.3880  151.2110 C   0  0  0  0  0  2  0  0  0  0  0  0
  162.3060  208.8960  151.2850 C   0  0  0  0  0  2  0  0  0  0  0  0
  161.2320  208.1230  150.5380 C   0  0  0  0  0  2  0  0  0  0  0  0
  160.7560  202.5170  149.2660 O   0  0  0  0  0  0  0  0  0  0  0  0
  160.8160  204.1170  152.3930 C   0  0  0  0  0  2  0  0  0  0  0  0
  161.0460  203.5460  149.9360 C   0  0  0  0  0  0  0  0  0  0  0  0
  161.7180  202.0350  151.6640 O   0  0  0  0  0  1  0  0  0  0  0  0
  161.6220  203.3850  151.3220 C   0  0  2  0  0  3  0  0  0  0  0  0
  160.4720  205.8980  150.0850 O   0  0  0  0  0  0  0  0  0  0  0  0
  161.6150  206.6570  150.3950 C   0  0  2  0  0  3  0  0  0  0  0  0
  160.8910  204.8460  149.3340 N   0  0  0  0  0  0  0  0  0  0  0  0
  160.8670  206.1570  153.5700 O   0  0  0  0  0  0  0  0  0  0  0  0
  162.2810  206.1770  151.6870 C   0  0  0  0  0  2  0  0  0  0  0  0
  161.3060  205.5210  152.6260 C   0  0  0  0  0  0  0  0  0  0  0  0
  160.8320  204.9740  147.8790 C   0  0  0  0  0  2  0  0  0  0  0  0
  162.3820  205.1820  145.9270 C   0  0  0  0  0  1  0  0  0  0  0  0
  162.1110  204.4610  147.2330 C   0  0  0  0  0  2  0  0  0  0  0  0
  159.4100  212.0860  156.0330 N   0  0  0  0  0  2  0  0  0  0  0  0
  157.5300  213.4520  156.9230 C   0  0  0  0  0  3  0  0  0  0  0  0
  156.1600  213.6140  157.1510 C   0  0  0  0  0  3  0  0  0  0  0  0
  157.1040  211.3120  155.8810 C   0  0  0  0  0  3  0  0  0  0  0  0
  155.7340  211.4730  156.1080 C   0  0  0  0  0  3  0  0  0  0  0  0
  158.0120  212.2980  156.2850 C   0  0  0  0  0  0  0  0  0  0  0  0
  155.2620  212.6250  156.7440 C   0  0  0  0  0  3  0  0  0  0  0  0
  1  7  2  0  0  0  0
  1  4  1  0  0  0  0
  2  5  2  0  0  0  0
  3  1  1  0  0  0  0
  4  6  2  0  0  0  0
  5  8  1  0  0  0  0
  6  5  1  0  0  0  0
  6 29  1  0  0  0  0
  7  2  1  0  0  0  0
  8 10  1  0  0  0  0
  8  9  1  6  0  0  0
 11 10  2  0  0  0  0
 12 13  1  0  0  0  0
 12  7  1  0  0  0  0
 14 13  1  0  0  0  0
 15 17  2  0  0  0  0
 16 25  1  0  0  0  0
 17 19  1  0  0  0  0
 19 18  1  1  0  0  0
 19 16  1  0  0  0  0
 20 21  1  0  0  0  0
 21 14  1  1  0  0  0
 21 24  1  0  0  0  0
 22 17  1  0  0  0  0
 22 20  1  0  0  0  0
 24 25  1  0  0  0  0
 25 23  2  0  0  0  0
 26 22  1  0  0  0  0
 27 28  1  0  0  0  0
 28 26  1  0  0  0  0
 29 34  1  0  0  0  0
 30 31  1  0  0  0  0
 32 33  2  0  0  0  0
 32 34  1  0  0  0  0
 33 35  1  0  0  0  0
 34 30  2  0  0  0  0
 35 31  2  0  0  0  0
M  END
>  <MODEL>
7

>  <REMARK>
 VINA RESULT:      -7.0      2.247      3.758
  Name = 
  10 active torsions:
  status: ('A' for Active; 'I' for Inactive)
    1  A    between atoms: C_1  and  C_5
    2  A    between atoms: C_5  and  C_25
    3  A    between atoms: C_6  and  C_18
    4  A    between atoms: C_6  and  C_35
    5  A    between atoms: C_7  and  C_18
    6  A    between atoms: C_7  and  C_21
    7  A    between atoms: C_9  and  N_22
    8  A    between atoms: C_9  and  C_29
    9  A    between atoms: N_26  and  C_31
   10  A    between atoms: N_26  and  C_32
                            x       y       z     vdW  Elec       q    Type
                         _______ _______ _______ _____ _____    ______ ____

>  <TORSDO>
F 10

$$$$
=
 OpenBabel11072411273D

 35 37  0  0  1  0  0  0  0  0999 V2000
  161.9560  209.0950  149.3520 C   0  0  0  0  0  0  0  0  0  0  0  0
  161.7930  207.8490  151.4190 C   0  0  0  0  0  3  0  0  0  0  0  0
  162.0620  210.2990  148.6670 O   0  0  0  0  0  1  0  0  0  0  0  0
  161.8960  207.8980  148.6350 C   0  0  0  0  0  3  0  0  0  0  0  0
  161.7300  206.6450  150.7020 C   0  0  0  0  0  0  0  0  0  0  0  0
  161.7840  206.6650  149.2950 C   0  0  0  0  0  0  0  0  0  0  0  0
  161.9100  209.0710  150.7530 C   0  0  0  0  0  0  0  0  0  0  0  0
  161.6140  205.3450  151.4420 C   0  0  2  0  0  3  0  0  0  0  0  0
  160.4070  204.7150  151.1300 O   0  0  0  0  0  1  0  0  0  0  0  0
  161.7120  205.5660  152.9180 C   0  0  0  0  0  3  0  0  0  0  0  0
  160.8350  205.1570  153.6600 O   0  0  0  0  0  0  0  0  0  0  0  0
  161.9540  210.3310  151.5500 C   0  0  0  0  0  2  0  0  0  0  0  0
  160.6770  210.4770  152.3590 C   0  0  0  0  0  2  0  0  0  0  0  0
  160.0880  211.8660  152.1710 C   0  0  0  0  0  2  0  0  0  0  0  0
  156.8930  211.8050  156.9720 O   0  0  0  0  0  0  0  0  0  0  0  0
  156.3020  213.3960  153.8970 C   0  0  0  0  0  2  0  0  0  0  0  0
  157.3610  212.2330  155.8810 C   0  0  0  0  0  0  0  0  0  0  0  0
  155.8490  214.0680  156.1380 O   0  0  0  0  0  1  0  0  0  0  0  0
  156.8440  213.5330  155.3180 C   0  0  2  0  0  3  0  0  0  0  0  0
  158.4760  211.4240  153.8850 O   0  0  0  0  0  0  0  0  0  0  0  0
  159.4340  212.3590  153.4530 C   0  0  2  0  0  3  0  0  0  0  0  0
  158.4290  211.5080  155.2400 N   0  0  0  0  0  0  0  0  0  0  0  0
  157.0190  213.7450  151.6810 O   0  0  0  0  0  0  0  0  0  0  0  0
  158.8110  213.7370  153.2090 C   0  0  0  0  0  2  0  0  0  0  0  0
  157.3530  213.6510  152.8500 C   0  0  0  0  0  0  0  0  0  0  0  0
  159.2470  210.5780  156.0150 C   0  0  0  0  0  2  0  0  0  0  0  0
  161.7450  210.7040  155.9400 C   0  0  0  0  0  1  0  0  0  0  0  0
  160.4860  211.2690  156.5690 C   0  0  0  0  0  2  0  0  0  0  0  0
  161.7270  205.4240  148.5700 N   0  0  0  0  0  2  0  0  0  0  0  0
  160.7570  206.1750  146.4060 C   0  0  0  0  0  3  0  0  0  0  0  0
  160.4560  205.9160  145.0650 C   0  0  0  0  0  3  0  0  0  0  0  0
  161.7390  203.9750  146.6100 C   0  0  0  0  0  3  0  0  0  0  0  0
  161.4390  203.7160  145.2700 C   0  0  0  0  0  3  0  0  0  0  0  0
  161.4020  205.2040  147.1890 C   0  0  0  0  0  0  0  0  0  0  0  0
  160.7970  204.6870  144.4970 C   0  0  0  0  0  3  0  0  0  0  0  0
  1  7  1  0  0  0  0
  3  1  1  0  0  0  0
  4  6  1  0  0  0  0
  4  1  2  0  0  0  0
  5  2  1  0  0  0  0
  5  8  1  0  0  0  0
  6  5  2  0  0  0  0
  7  2  2  0  0  0  0
  7 12  1  0  0  0  0
  8  9  1  1  0  0  0
  8 10  1  0  0  0  0
 10 11  2  0  0  0  0
 12 13  1  0  0  0  0
 14 13  1  0  0  0  0
 16 19  1  0  0  0  0
 17 15  2  0  0  0  0
 19 17  1  0  0  0  0
 19 18  1  1  0  0  0
 20 22  1  0  0  0  0
 21 14  1  6  0  0  0
 21 20  1  0  0  0  0
 22 17  1  0  0  0  0
 22 26  1  0  0  0  0
 23 25  2  0  0  0  0
 24 21  1  0  0  0  0
 25 24  1  0  0  0  0
 25 16  1  0  0  0  0
 26 28  1  0  0  0  0
 27 28  1  0  0  0  0
 29  6  1  0  0  0  0
 30 34  1  0  0  0  0
 31 30  2  0  0  0  0
 32 34  2  0  0  0  0
 33 32  1  0  0  0  0
 34 29  1  0  0  0  0
 35 31  1  0  0  0  0
 35 33  2  0  0  0  0
M  END
>  <MODEL>
8

>  <REMARK>
 VINA RESULT:      -7.0      2.698      9.749
  Name = 
  10 active torsions:
  status: ('A' for Active; 'I' for Inactive)
    1  A    between atoms: C_1  and  C_5
    2  A    between atoms: C_5  and  C_25
    3  A    between atoms: C_6  and  C_18
    4  A    between atoms: C_6  and  C_35
    5  A    between atoms: C_7  and  C_18
    6  A    between atoms: C_7  and  C_21
    7  A    between atoms: C_9  and  N_22
    8  A    between atoms: C_9  and  C_29
    9  A    between atoms: N_26  and  C_31
   10  A    between atoms: N_26  and  C_32
                            x       y       z     vdW  Elec       q    Type
                         _______ _______ _______ _____ _____    ______ ____

>  <TORSDO>
F 10

$$$$
=
 OpenBabel11072411273D

 35 37  0  0  1  0  0  0  0  0999 V2000
  161.3830  210.2370  151.7340 C   0  0  0  0  0  0  0  0  0  0  0  0
  161.5110  208.4810  153.3930 C   0  0  0  0  0  3  0  0  0  0  0  0
  161.5910  210.7010  150.4410 O   0  0  0  0  0  1  0  0  0  0  0  0
  160.8290  211.0900  152.6910 C   0  0  0  0  0  3  0  0  0  0  0  0
  160.9580  209.3360  154.3580 C   0  0  0  0  0  0  0  0  0  0  0  0
  160.6090  210.6540  154.0060 C   0  0  0  0  0  0  0  0  0  0  0  0
  161.7210  208.9220  152.0850 C   0  0  0  0  0  0  0  0  0  0  0  0
  160.7340  208.8350  155.7540 C   0  0  2  0  0  3  0  0  0  0  0  0
  161.9540  208.5400  156.3660 O   0  0  0  0  0  1  0  0  0  0  0  0
  159.8560  207.6240  155.7460 C   0  0  0  0  0  3  0  0  0  0  0  0
  159.7270  206.9530  156.7560 O   0  0  0  0  0  0  0  0  0  0  0  0
  162.3310  207.9890  151.0930 C   0  0  0  0  0  2  0  0  0  0  0  0
  162.3380  206.5760  151.6480 C   0  0  0  0  0  2  0  0  0  0  0  0
  161.1360  205.8000  151.1370 C   0  0  0  0  0  2  0  0  0  0  0  0
  161.2060  202.5460  146.3750 O   0  0  0  0  0  0  0  0  0  0  0  0
  160.1380  201.7530  149.6260 C   0  0  0  0  0  2  0  0  0  0  0  0
  161.2290  202.8230  147.6060 C   0  0  0  0  0  0  0  0  0  0  0  0
  161.2640  200.4590  147.9710 O   0  0  0  0  0  1  0  0  0  0  0  0
  161.2780  201.6990  148.6130 C   0  0  2  0  0  3  0  0  0  0  0  0
  160.6110  204.6070  149.1290 O   0  0  0  0  0  0  0  0  0  0  0  0
  161.5620  204.7140  150.1590 C   0  0  2  0  0  3  0  0  0  0  0  0
  161.2810  204.2030  148.0180 N   0  0  0  0  0  0  0  0  0  0  0  0
  159.7440  202.5160  151.8190 O   0  0  0  0  0  0  0  0  0  0  0  0
  161.7330  203.3920  150.9120 C   0  0  0  0  0  2  0  0  0  0  0  0
  160.4960  202.5380  150.8600 C   0  0  0  0  0  0  0  0  0  0  0  0
  161.7400  205.2260  147.0810 C   0  0  0  0  0  2  0  0  0  0  0  0
  160.3290  206.2030  145.2600 C   0  0  0  0  0  1  0  0  0  0  0  0
  160.6220  206.2040  146.7480 C   0  0  0  0  0  2  0  0  0  0  0  0
  160.0350  211.5200  155.0010 N   0  0  0  0  0  2  0  0  0  0  0  0
  157.7530  212.1980  154.2770 C   0  0  0  0  0  3  0  0  0  0  0  0
  156.4130  212.4440  154.5890 C   0  0  0  0  0  3  0  0  0  0  0  0
  158.1840  211.6160  156.5830 C   0  0  0  0  0  3  0  0  0  0  0  0
  156.8440  211.8610  156.8970 C   0  0  0  0  0  3  0  0  0  0  0  0
  158.6500  211.7810  155.2740 C   0  0  0  0  0  0  0  0  0  0  0  0
  155.9580  212.2760  155.8980 C   0  0  0  0  0  3  0  0  0  0  0  0
  1  7  2  0  0  0  0
  1  4  1  0  0  0  0
  2  5  2  0  0  0  0
  3  1  1  0  0  0  0
  4  6  2  0  0  0  0
  5  8  1  0  0  0  0
  6  5  1  0  0  0  0
  6 29  1  0  0  0  0
  7  2  1  0  0  0  0
  8  9  1  6  0  0  0
 10  8  1  0  0  0  0
 10 11  2  0  0  0  0
 12 13  1  0  0  0  0
 12  7  1  0  0  0  0
 14 13  1  0  0  0  0
 15 17  2  0  0  0  0
 16 25  1  0  0  0  0
 17 22  1  0  0  0  0
 17 19  1  0  0  0  0
 19 18  1  6  0  0  0
 19 16  1  0  0  0  0
 20 21  1  0  0  0  0
 21 24  1  0  0  0  0
 21 14  1  1  0  0  0
 22 20  1  0  0  0  0
 25 24  1  0  0  0  0
 25 23  2  0  0  0  0
 26 22  1  0  0  0  0
 27 28  1  0  0  0  0
 28 26  1  0  0  0  0
 29 34  1  0  0  0  0
 30 31  2  0  0  0  0
 30 34  1  0  0  0  0
 31 35  1  0  0  0  0
 32 33  1  0  0  0  0
 34 32  2  0  0  0  0
 35 33  2  0  0  0  0
M  END
>  <MODEL>
9

>  <REMARK>
 VINA RESULT:      -6.9      1.434      3.057
  Name = 
  10 active torsions:
  status: ('A' for Active; 'I' for Inactive)
    1  A    between atoms: C_1  and  C_5
    2  A    between atoms: C_5  and  C_25
    3  A    between atoms: C_6  and  C_18
    4  A    between atoms: C_6  and  C_35
    5  A    between atoms: C_7  and  C_18
    6  A    between atoms: C_7  and  C_21
    7  A    between atoms: C_9  and  N_22
    8  A    between atoms: C_9  and  C_29
    9  A    between atoms: N_26  and  C_31
   10  A    between atoms: N_26  and  C_32
                            x       y       z     vdW  Elec       q    Type
                         _______ _______ _______ _____ _____    ______ ____

>  <TORSDO>
F 10

$$$$
