=
 OpenBabel11072413303D

 36 41  0  0  1  0  0  0  0  0999 V2000
  161.7120  206.2200  153.6670 C   0  0  0  0  0  3  0  0  0  0  0  0
  161.9380  206.6690  152.3600 C   0  0  0  0  0  0  0  0  0  0  0  0
  160.9160  208.3510  154.3260 C   0  0  0  0  0  0  0  0  0  0  0  0
  161.2130  207.0570  154.6110 N   0  0  0  0  0  0  0  0  0  0  0  0
  161.6480  208.0210  152.0300 C   0  0  0  0  0  0  0  0  0  0  0  0
  161.1290  208.8470  153.0410 C   0  0  0  0  0  3  0  0  0  0  0  0
  161.9930  210.5430  149.1870 C   0  0  0  0  0  0  0  0  0  0  0  0
  162.1570  207.8020  149.5800 C   0  0  0  0  0  3  0  0  0  0  0  0
  162.2600  209.7080  148.1480 N   0  0  0  0  0  0  0  0  0  0  0  0
  161.8780  208.6260  150.6820 C   0  0  0  0  0  0  0  0  0  0  0  0
  162.3460  208.3620  148.3150 C   0  0  0  0  0  3  0  0  0  0  0  0
  161.7910  210.0070  150.4640 C   0  0  0  0  0  3  0  0  0  0  0  0
  161.0740  212.6870  149.5940 O   0  0  0  0  0  0  0  0  0  0  0  0
  161.9180  211.9980  148.9620 C   0  0  0  0  0  0  0  0  0  0  0  0
  162.8330  212.6850  148.0030 C   0  0  0  0  0  2  0  0  0  0  0  0
  161.3210  212.7740  146.1690 O   0  0  0  0  0  0  0  0  0  0  0  0
  162.4970  213.3650  145.6770 C   0  0  0  0  0  2  0  0  0  0  0  0
  162.0430  213.5800  147.0680 C   0  0  2  0  0  3  0  0  0  0  0  0
  160.2560  209.3910  155.5730 S   0  0  0  0  0  0  0  0  0  0  0  0
  159.3030  208.6150  156.4410 O   0  0  0  0  0  0  0  0  0  0  0  0
  161.3730  209.9180  156.4290 O   0  0  0  0  0  0  0  0  0  0  0  0
  157.9870  212.8250  153.6810 C   0  0  0  0  0  0  0  0  0  0  0  0
  159.3650  212.7200  153.4720 C   0  0  0  0  0  3  0  0  0  0  0  0
  157.3430  211.9050  154.4490 N   0  0  0  0  0  0  0  0  0  0  0  0
  158.0100  210.8690  155.0270 C   0  0  0  0  0  3  0  0  0  0  0  0
  160.0660  211.6630  154.0550 C   0  0  0  0  0  3  0  0  0  0  0  0
  159.3880  210.7260  154.8360 C   0  0  0  0  0  0  0  0  0  0  0  0
  157.2540  213.8890  153.0870 N   0  0  0  0  0  1  0  0  0  0  0  0
  162.4540  205.6670  151.3710 C   0  0  0  0  0  2  0  0  0  0  0  0
  160.1780  205.0830  150.3640 C   0  0  0  0  0  2  0  0  0  0  0  0
  160.6620  202.9730  149.1660 C   0  0  0  0  0  2  0  0  0  0  0  0
  161.0460  201.8620  150.1300 C   0  0  0  0  0  2  0  0  0  0  0  0
  161.2740  203.4180  152.0520 C   0  0  0  0  0  2  0  0  0  0  0  0
  161.2410  204.3350  149.5600 C   0  0  2  0  0  3  0  0  0  0  0  0
  161.4240  204.5860  151.0590 C   0  0  2  0  0  0  0  0  0  0  0  0
  160.5160  202.2150  151.5050 C   0  0  0  0  0  2  0  0  0  0  0  0
  1  4  1  0  0  0  0
  2  1  2  0  0  0  0
  3  4  2  0  0  0  0
  3 19  1  0  0  0  0
  5  2  1  0  0  0  0
  5  6  2  0  0  0  0
  6  3  1  0  0  0  0
  7 12  1  0  0  0  0
  8 10  1  0  0  0  0
  9 11  1  0  0  0  0
  9  7  2  0  0  0  0
 10  5  1  0  0  0  0
 11  8  2  0  0  0  0
 12 10  2  0  0  0  0
 14  7  1  0  0  0  0
 14 13  2  0  0  0  0
 15 14  1  0  0  0  0
 16 18  1  0  0  0  0
 17 16  1  0  0  0  0
 17 18  1  0  0  0  0
 18 15  1  1  0  0  0
 19 21  2  0  0  0  0
 19 20  2  0  0  0  0
 22 24  1  0  0  0  0
 23 22  2  0  0  0  0
 23 26  1  0  0  0  0
 24 25  2  0  0  0  0
 26 27  2  0  0  0  0
 27 25  1  0  0  0  0
 27 19  1  0  0  0  0
 28 22  1  0  0  0  0
 29  2  1  0  0  0  0
 30 35  1  0  0  0  0
 31 32  1  0  0  0  0
 32 36  1  0  0  0  0
 34 31  1  1  0  0  0
 34 30  1  0  0  0  0
 34 35  1  0  0  0  0
 35 29  1  1  0  0  0
 35 33  1  0  0  0  0
 36 33  1  0  0  0  0
M  END
>  <MODEL>
1

>  <REMARK>
 VINA RESULT:      -8.0      0.000      0.000
  Name = 
  8 active torsions:
  status: ('A' for Active; 'I' for Inactive)
    1  A    between atoms: C_1  and  C_27
    2  A    between atoms: C_5  and  C_28
    3  A    between atoms: C_6  and  C_13
    4  A    between atoms: C_6  and  C_34
    5  A    between atoms: S_7  and  C_17
    6  A    between atoms: S_7  and  C_30
    7  A    between atoms: C_20  and  C_24
    8  A    between atoms: C_24  and  C_27
                            x       y       z     vdW  Elec       q    Type
                         _______ _______ _______ _____ _____    ______ ____

>  <TORSDO>
F 8

$$$$
=
 OpenBabel11072413303D

 36 41  0  0  1  0  0  0  0  0999 V2000
  161.8200  205.9130  153.7430 C   0  0  0  0  0  3  0  0  0  0  0  0
  161.9420  206.2630  152.3930 C   0  0  0  0  0  0  0  0  0  0  0  0
  160.8930  208.0270  154.2710 C   0  0  0  0  0  0  0  0  0  0  0  0
  161.3060  206.7880  154.6420 N   0  0  0  0  0  0  0  0  0  0  0  0
  161.5300  207.5570  151.9710 C   0  0  0  0  0  0  0  0  0  0  0  0
  161.0000  208.4260  152.9390 C   0  0  0  0  0  3  0  0  0  0  0  0
  161.6140  207.7070  148.1590 C   0  0  0  0  0  0  0  0  0  0  0  0
  161.9450  209.4090  150.3250 C   0  0  0  0  0  3  0  0  0  0  0  0
  161.9090  209.0210  147.9700 N   0  0  0  0  0  0  0  0  0  0  0  0
  161.6420  208.0590  150.5670 C   0  0  0  0  0  0  0  0  0  0  0  0
  162.0760  209.8740  149.0150 C   0  0  0  0  0  3  0  0  0  0  0  0
  161.4860  207.2120  149.4620 C   0  0  0  0  0  3  0  0  0  0  0  0
  160.4360  206.9710  146.2420 O   0  0  0  0  0  0  0  0  0  0  0  0
  161.4330  206.8190  146.9970 C   0  0  0  0  0  0  0  0  0  0  0  0
  162.4160  205.7410  146.6800 C   0  0  0  0  0  2  0  0  0  0  0  0
  160.9470  204.1780  145.6530 O   0  0  0  0  0  0  0  0  0  0  0  0
  162.2140  203.5770  145.5570 C   0  0  0  0  0  2  0  0  0  0  0  0
  162.0320  205.0350  145.3940 C   0  0  2  0  0  3  0  0  0  0  0  0
  160.2180  209.1190  155.4650 S   0  0  0  0  0  0  0  0  0  0  0  0
  159.1110  208.4350  156.2200 O   0  0  0  0  0  0  0  0  0  0  0  0
  161.2910  209.5230  156.4360 O   0  0  0  0  0  0  0  0  0  0  0  0
  158.5020  212.7800  153.4230 C   0  0  0  0  0  0  0  0  0  0  0  0
  159.8520  212.4660  153.2390 C   0  0  0  0  0  3  0  0  0  0  0  0
  157.7210  211.9920  154.2100 N   0  0  0  0  0  0  0  0  0  0  0  0
  158.2210  210.8900  154.8330 C   0  0  0  0  0  3  0  0  0  0  0  0
  160.3830  211.3390  153.8690 C   0  0  0  0  0  3  0  0  0  0  0  0
  159.5650  210.5390  154.6700 C   0  0  0  0  0  0  0  0  0  0  0  0
  157.9420  213.9180  152.7810 N   0  0  0  0  0  1  0  0  0  0  0  0
  162.4840  205.2210  151.4610 C   0  0  0  0  0  2  0  0  0  0  0  0
  160.1340  204.6490  150.6330 C   0  0  0  0  0  2  0  0  0  0  0  0
  160.5500  202.6720  149.2040 C   0  0  0  0  0  2  0  0  0  0  0  0
  161.0590  201.4940  150.0190 C   0  0  0  0  0  2  0  0  0  0  0  0
  161.4390  202.8800  152.0440 C   0  0  0  0  0  2  0  0  0  0  0  0
  161.1300  204.0130  149.6630 C   0  0  2  0  0  3  0  0  0  0  0  0
  161.4560  204.1370  151.1540 C   0  0  2  0  0  0  0  0  0  0  0  0
  160.6620  201.7040  151.4660 C   0  0  0  0  0  2  0  0  0  0  0  0
  1  4  1  0  0  0  0
  2  1  2  0  0  0  0
  3  4  2  0  0  0  0
  3 19  1  0  0  0  0
  5  2  1  0  0  0  0
  5  6  2  0  0  0  0
  6  3  1  0  0  0  0
  7 12  1  0  0  0  0
  8 10  1  0  0  0  0
  9  7  2  0  0  0  0
  9 11  1  0  0  0  0
 10  5  1  0  0  0  0
 11  8  2  0  0  0  0
 12 10  2  0  0  0  0
 13 14  2  0  0  0  0
 14  7  1  0  0  0  0
 15 14  1  0  0  0  0
 17 16  1  0  0  0  0
 18 17  1  0  0  0  0
 18 16  1  0  0  0  0
 18 15  1  1  0  0  0
 19 20  2  0  0  0  0
 19 21  2  0  0  0  0
 22 24  1  0  0  0  0
 23 22  2  0  0  0  0
 23 26  1  0  0  0  0
 24 25  2  0  0  0  0
 26 27  2  0  0  0  0
 27 25  1  0  0  0  0
 27 19  1  0  0  0  0
 28 22  1  0  0  0  0
 29  2  1  0  0  0  0
 30 35  1  0  0  0  0
 31 32  1  0  0  0  0
 32 36  1  0  0  0  0
 34 31  1  1  0  0  0
 34 30  1  0  0  0  0
 34 35  1  0  0  0  0
 35 29  1  1  0  0  0
 35 33  1  0  0  0  0
 36 33  1  0  0  0  0
M  END
>  <MODEL>
2

>  <REMARK>
 VINA RESULT:      -7.5      2.148      3.339
  Name = 
  8 active torsions:
  status: ('A' for Active; 'I' for Inactive)
    1  A    between atoms: C_1  and  C_27
    2  A    between atoms: C_5  and  C_28
    3  A    between atoms: C_6  and  C_13
    4  A    between atoms: C_6  and  C_34
    5  A    between atoms: S_7  and  C_17
    6  A    between atoms: S_7  and  C_30
    7  A    between atoms: C_20  and  C_24
    8  A    between atoms: C_24  and  C_27
                            x       y       z     vdW  Elec       q    Type
                         _______ _______ _______ _____ _____    ______ ____

>  <TORSDO>
F 8

$$$$
=
 OpenBabel11072413303D

 36 41  0  0  1  0  0  0  0  0999 V2000
  162.3320  209.0850  148.7870 C   0  0  0  0  0  3  0  0  0  0  0  0
  162.2020  208.7060  150.1280 C   0  0  0  0  0  0  0  0  0  0  0  0
  161.5410  211.2660  149.2630 C   0  0  0  0  0  0  0  0  0  0  0  0
  162.0040  210.3390  148.3860 N   0  0  0  0  0  0  0  0  0  0  0  0
  161.7100  209.6490  151.0720 C   0  0  0  0  0  0  0  0  0  0  0  0
  161.3890  210.9360  150.6090 C   0  0  0  0  0  3  0  0  0  0  0  0
  161.7770  209.8870  154.8800 C   0  0  0  0  0  0  0  0  0  0  0  0
  160.8210  208.1840  152.9090 C   0  0  0  0  0  3  0  0  0  0  0  0
  161.1190  208.7430  155.2100 N   0  0  0  0  0  0  0  0  0  0  0  0
  161.4940  209.3540  152.5220 C   0  0  0  0  0  0  0  0  0  0  0  0
  160.6420  207.8930  154.2630 C   0  0  0  0  0  3  0  0  0  0  0  0
  161.9770  210.1990  153.5300 C   0  0  0  0  0  3  0  0  0  0  0  0
  163.5090  210.9190  156.1210 O   0  0  0  0  0  0  0  0  0  0  0  0
  162.2700  210.7850  155.9400 C   0  0  0  0  0  0  0  0  0  0  0  0
  161.3300  211.5560  156.8070 C   0  0  0  0  0  2  0  0  0  0  0  0
  160.1240  213.5730  156.4460 O   0  0  0  0  0  0  0  0  0  0  0  0
  159.1370  212.6400  156.8060 C   0  0  0  0  0  2  0  0  0  0  0  0
  160.2900  212.2630  155.9610 C   0  0  2  0  0  3  0  0  0  0  0  0
  161.1480  212.8800  148.7030 S   0  0  0  0  0  0  0  0  0  0  0  0
  160.0650  213.4730  149.5620 O   0  0  0  0  0  0  0  0  0  0  0  0
  162.3700  213.7510  148.7910 O   0  0  0  0  0  0  0  0  0  0  0  0
  159.7110  212.7140  144.4110 C   0  0  0  0  0  0  0  0  0  0  0  0
  158.7920  212.5210  145.4460 C   0  0  0  0  0  3  0  0  0  0  0  0
  161.0200  212.9440  144.6970 N   0  0  0  0  0  0  0  0  0  0  0  0
  161.4700  212.9940  145.9810 C   0  0  0  0  0  3  0  0  0  0  0  0
  159.2330  212.5700  146.7690 C   0  0  0  0  0  3  0  0  0  0  0  0
  160.5800  212.8120  147.0450 C   0  0  0  0  0  0  0  0  0  0  0  0
  159.2770  212.6770  143.0570 N   0  0  0  0  0  1  0  0  0  0  0  0
  162.6240  207.3130  150.4910 C   0  0  0  0  0  2  0  0  0  0  0  0
  160.5690  206.7420  149.0820 C   0  0  0  0  0  2  0  0  0  0  0  0
  161.0550  204.4240  148.3650 C   0  0  0  0  0  2  0  0  0  0  0  0
  161.0900  203.4720  149.5480 C   0  0  0  0  0  2  0  0  0  0  0  0
  161.0730  205.3160  151.2110 C   0  0  0  0  0  2  0  0  0  0  0  0
  161.6880  205.7850  148.6710 C   0  0  2  0  0  3  0  0  0  0  0  0
  161.5680  206.2790  150.1160 C   0  0  2  0  0  0  0  0  0  0  0  0
  160.3190  204.0980  150.6920 C   0  0  0  0  0  2  0  0  0  0  0  0
  1  2  1  0  0  0  0
  2 29  1  0  0  0  0
  2  5  2  0  0  0  0
  3  6  2  0  0  0  0
  4  1  2  0  0  0  0
  4  3  1  0  0  0  0
  5 10  1  0  0  0  0
  6  5  1  0  0  0  0
  7  9  1  0  0  0  0
  7 14  1  0  0  0  0
  8 11  1  0  0  0  0
 10  8  2  0  0  0  0
 10 12  1  0  0  0  0
 11  9  2  0  0  0  0
 12  7  2  0  0  0  0
 14 13  2  0  0  0  0
 14 15  1  0  0  0  0
 16 17  1  0  0  0  0
 18 16  1  0  0  0  0
 18 17  1  0  0  0  0
 18 15  1  1  0  0  0
 19 21  2  0  0  0  0
 19  3  1  0  0  0  0
 19 20  2  0  0  0  0
 22 24  2  0  0  0  0
 22 23  1  0  0  0  0
 23 26  2  0  0  0  0
 24 25  1  0  0  0  0
 25 27  2  0  0  0  0
 26 27  1  0  0  0  0
 27 19  1  0  0  0  0
 28 22  1  0  0  0  0
 30 35  1  0  0  0  0
 31 32  1  0  0  0  0
 32 36  1  0  0  0  0
 34 31  1  1  0  0  0
 34 30  1  0  0  0  0
 34 35  1  0  0  0  0
 35 29  1  1  0  0  0
 35 33  1  0  0  0  0
 36 33  1  0  0  0  0
M  END
>  <MODEL>
3

>  <REMARK>
 VINA RESULT:      -7.4      2.632      6.717
  Name = 
  8 active torsions:
  status: ('A' for Active; 'I' for Inactive)
    1  A    between atoms: C_1  and  C_27
    2  A    between atoms: C_5  and  C_28
    3  A    between atoms: C_6  and  C_13
    4  A    between atoms: C_6  and  C_34
    5  A    between atoms: S_7  and  C_17
    6  A    between atoms: S_7  and  C_30
    7  A    between atoms: C_20  and  C_24
    8  A    between atoms: C_24  and  C_27
                            x       y       z     vdW  Elec       q    Type
                         _______ _______ _______ _____ _____    ______ ____

>  <TORSDO>
F 8

$$$$
=
 OpenBabel11072413303D

 36 41  0  0  1  0  0  0  0  0999 V2000
  161.9170  209.8010  149.5670 C   0  0  0  0  0  3  0  0  0  0  0  0
  161.6690  209.5400  150.9200 C   0  0  0  0  0  0  0  0  0  0  0  0
  161.5460  207.5330  148.9960 C   0  0  0  0  0  0  0  0  0  0  0  0
  161.8510  208.8080  148.6450 N   0  0  0  0  0  0  0  0  0  0  0  0
  161.3560  208.2130  151.3240 C   0  0  0  0  0  0  0  0  0  0  0  0
  161.2960  207.2200  150.3320 C   0  0  0  0  0  3  0  0  0  0  0  0
  160.7030  208.3270  155.0820 C   0  0  0  0  0  0  0  0  0  0  0  0
  161.0890  206.4410  153.0850 C   0  0  0  0  0  3  0  0  0  0  0  0
  160.6940  206.9990  155.3720 N   0  0  0  0  0  0  0  0  0  0  0  0
  161.1060  207.8020  152.7400 C   0  0  0  0  0  0  0  0  0  0  0  0
  160.8820  206.0560  154.4110 C   0  0  0  0  0  3  0  0  0  0  0  0
  160.9160  208.7410  153.7620 C   0  0  0  0  0  3  0  0  0  0  0  0
  159.3690  209.8850  156.2650 O   0  0  0  0  0  0  0  0  0  0  0  0
  160.4870  209.3150  156.1540 C   0  0  0  0  0  0  0  0  0  0  0  0
  161.5660  209.6540  157.1290 C   0  0  0  0  0  2  0  0  0  0  0  0
  163.3070  210.7220  155.9120 O   0  0  0  0  0  0  0  0  0  0  0  0
  163.6080  210.9940  157.2580 C   0  0  0  0  0  2  0  0  0  0  0  0
  162.2150  210.9740  156.7620 C   0  0  2  0  0  3  0  0  0  0  0  0
  161.4540  206.2860  147.7680 S   0  0  0  0  0  0  0  0  0  0  0  0
  160.3050  206.5620  146.8380 O   0  0  0  0  0  0  0  0  0  0  0  0
  162.7300  206.2720  146.9740 O   0  0  0  0  0  0  0  0  0  0  0  0
  160.8140  202.2360  149.6940 C   0  0  0  0  0  0  0  0  0  0  0  0
  160.6160  203.3930  150.4540 C   0  0  0  0  0  3  0  0  0  0  0  0
  161.1990  202.3350  148.3930 N   0  0  0  0  0  0  0  0  0  0  0  0
  161.3980  203.5430  147.8000 C   0  0  0  0  0  3  0  0  0  0  0  0
  160.8150  204.6410  149.8630 C   0  0  0  0  0  3  0  0  0  0  0  0
  161.2040  204.7230  148.5250 C   0  0  0  0  0  0  0  0  0  0  0  0
  160.6070  200.9560  150.2770 N   0  0  0  0  0  1  0  0  0  0  0  0
  161.7240  210.7030  151.8650 C   0  0  0  0  0  2  0  0  0  0  0  0
  159.2460  211.0120  152.4140 C   0  0  0  0  0  2  0  0  0  0  0  0
  159.1490  213.3970  153.0650 C   0  0  0  0  0  2  0  0  0  0  0  0
  159.4860  214.3070  151.8950 C   0  0  0  0  0  2  0  0  0  0  0  0
  160.2960  212.4290  150.4870 C   0  0  0  0  0  2  0  0  0  0  0  0
  160.0150  212.1350  153.1110 C   0  0  2  0  0  3  0  0  0  0  0  0
  160.4830  211.5840  151.7610 C   0  0  2  0  0  0  0  0  0  0  0  0
  159.2600  213.5390  150.6090 C   0  0  0  0  0  2  0  0  0  0  0  0
  1  2  1  0  0  0  0
  2  5  2  0  0  0  0
  2 29  1  0  0  0  0
  3  6  2  0  0  0  0
  4  3  1  0  0  0  0
  4  1  2  0  0  0  0
  5 10  1  0  0  0  0
  6  5  1  0  0  0  0
  7  9  1  0  0  0  0
  7 14  1  0  0  0  0
  8 11  1  0  0  0  0
 10  8  2  0  0  0  0
 10 12  1  0  0  0  0
 11  9  2  0  0  0  0
 12  7  2  0  0  0  0
 14 13  2  0  0  0  0
 14 15  1  0  0  0  0
 16 18  1  0  0  0  0
 16 17  1  0  0  0  0
 18 15  1  1  0  0  0
 18 17  1  0  0  0  0
 19 27  1  0  0  0  0
 19  3  1  0  0  0  0
 20 19  2  0  0  0  0
 21 19  2  0  0  0  0
 22 28  1  0  0  0  0
 22 23  1  0  0  0  0
 24 22  2  0  0  0  0
 25 24  1  0  0  0  0
 25 27  2  0  0  0  0
 26 23  2  0  0  0  0
 27 26  1  0  0  0  0
 31 34  1  0  0  0  0
 32 31  1  0  0  0  0
 33 36  1  0  0  0  0
 33 35  1  0  0  0  0
 34 30  1  6  0  0  0
 35 29  1  1  0  0  0
 35 30  1  0  0  0  0
 35 34  1  0  0  0  0
 36 32  1  0  0  0  0
M  END
>  <MODEL>
4

>  <REMARK>
 VINA RESULT:      -7.4      3.220      8.581
  Name = 
  8 active torsions:
  status: ('A' for Active; 'I' for Inactive)
    1  A    between atoms: C_1  and  C_27
    2  A    between atoms: C_5  and  C_28
    3  A    between atoms: C_6  and  C_13
    4  A    between atoms: C_6  and  C_34
    5  A    between atoms: S_7  and  C_17
    6  A    between atoms: S_7  and  C_30
    7  A    between atoms: C_20  and  C_24
    8  A    between atoms: C_24  and  C_27
                            x       y       z     vdW  Elec       q    Type
                         _______ _______ _______ _____ _____    ______ ____

>  <TORSDO>
F 8

$$$$
=
 OpenBabel11072413303D

 36 41  0  0  1  0  0  0  0  0999 V2000
  161.6110  208.7970  149.4480 C   0  0  0  0  0  3  0  0  0  0  0  0
  161.2750  209.0540  150.7820 C   0  0  0  0  0  0  0  0  0  0  0  0
  162.1350  211.0760  149.0760 C   0  0  0  0  0  0  0  0  0  0  0  0
  162.0280  209.7980  148.6330 N   0  0  0  0  0  0  0  0  0  0  0  0
  161.3650  210.3840  151.2770 C   0  0  0  0  0  0  0  0  0  0  0  0
  161.8070  211.3850  150.3960 C   0  0  0  0  0  3  0  0  0  0  0  0
  161.3350  210.7050  155.0790 C   0  0  0  0  0  0  0  0  0  0  0  0
  159.9040  211.6360  152.8930 C   0  0  0  0  0  3  0  0  0  0  0  0
  160.2640  211.5260  155.2490 N   0  0  0  0  0  0  0  0  0  0  0  0
  161.0020  210.7900  152.6700 C   0  0  0  0  0  0  0  0  0  0  0  0
  159.5480  211.9950  154.1940 C   0  0  0  0  0  3  0  0  0  0  0  0
  161.7090  210.3230  153.7860 C   0  0  0  0  0  3  0  0  0  0  0  0
  163.2310  210.6980  156.4970 O   0  0  0  0  0  0  0  0  0  0  0  0
  162.0890  210.2270  156.2520 C   0  0  0  0  0  0  0  0  0  0  0  0
  161.5250  209.1970  157.1740 C   0  0  0  0  0  2  0  0  0  0  0  0
  159.8720  207.7790  156.2190 O   0  0  0  0  0  0  0  0  0  0  0  0
  160.4260  207.0130  157.2590 C   0  0  0  0  0  2  0  0  0  0  0  0
  161.2580  207.9060  156.4250 C   0  0  2  0  0  3  0  0  0  0  0  0
  162.6970  212.3340  147.9920 S   0  0  0  0  0  0  0  0  0  0  0  0
  162.7840  213.6450  148.7250 O   0  0  0  0  0  0  0  0  0  0  0  0
  164.0610  211.9750  147.4740 O   0  0  0  0  0  0  0  0  0  0  0  0
  159.8280  212.8000  144.5180 C   0  0  0  0  0  0  0  0  0  0  0  0
  159.3420  212.3480  145.7480 C   0  0  0  0  0  3  0  0  0  0  0  0
  161.1490  213.0900  144.3730 N   0  0  0  0  0  0  0  0  0  0  0  0
  162.0250  212.9530  145.4050 C   0  0  0  0  0  3  0  0  0  0  0  0
  160.2250  212.2030  146.8190 C   0  0  0  0  0  3  0  0  0  0  0  0
  161.5770  212.5100  146.6540 C   0  0  0  0  0  0  0  0  0  0  0  0
  158.9420  212.9640  143.4180 N   0  0  0  0  0  1  0  0  0  0  0  0
  160.8610  207.8830  151.6230 C   0  0  0  0  0  2  0  0  0  0  0  0
  162.7770  206.1980  151.4680 C   0  0  0  0  0  2  0  0  0  0  0  0
  161.5850  204.0360  151.6360 C   0  0  0  0  0  2  0  0  0  0  0  0
  160.6680  203.8120  150.4450 C   0  0  0  0  0  2  0  0  0  0  0  0
  160.9060  206.1520  149.6460 C   0  0  0  0  0  2  0  0  0  0  0  0
  161.5920  205.4880  152.1230 C   0  0  2  0  0  3  0  0  0  0  0  0
  161.3700  206.5620  151.0550 C   0  0  2  0  0  0  0  0  0  0  0  0
  161.1430  204.6860  149.3020 C   0  0  0  0  0  2  0  0  0  0  0  0
  1  2  1  0  0  0  0
  2  5  2  0  0  0  0
  2 29  1  0  0  0  0
  3  6  2  0  0  0  0
  4  3  1  0  0  0  0
  4  1  2  0  0  0  0
  5 10  1  0  0  0  0
  6  5  1  0  0  0  0
  7  9  1  0  0  0  0
  7 14  1  0  0  0  0
  8 11  1  0  0  0  0
 10  8  2  0  0  0  0
 10 12  1  0  0  0  0
 11  9  2  0  0  0  0
 12  7  2  0  0  0  0
 14 13  2  0  0  0  0
 14 15  1  0  0  0  0
 16 18  1  0  0  0  0
 16 17  1  0  0  0  0
 18 15  1  1  0  0  0
 18 17  1  0  0  0  0
 19 20  2  0  0  0  0
 19  3  1  0  0  0  0
 21 19  2  0  0  0  0
 22 23  1  0  0  0  0
 23 26  2  0  0  0  0
 24 22  2  0  0  0  0
 24 25  1  0  0  0  0
 25 27  2  0  0  0  0
 27 26  1  0  0  0  0
 27 19  1  0  0  0  0
 28 22  1  0  0  0  0
 31 34  1  0  0  0  0
 32 31  1  0  0  0  0
 33 35  1  0  0  0  0
 34 30  1  6  0  0  0
 35 30  1  0  0  0  0
 35 29  1  1  0  0  0
 35 34  1  0  0  0  0
 36 33  1  0  0  0  0
 36 32  1  0  0  0  0
M  END
>  <MODEL>
5

>  <REMARK>
 VINA RESULT:      -7.3      2.677      7.264
  Name = 
  8 active torsions:
  status: ('A' for Active; 'I' for Inactive)
    1  A    between atoms: C_1  and  C_27
    2  A    between atoms: C_5  and  C_28
    3  A    between atoms: C_6  and  C_13
    4  A    between atoms: C_6  and  C_34
    5  A    between atoms: S_7  and  C_17
    6  A    between atoms: S_7  and  C_30
    7  A    between atoms: C_20  and  C_24
    8  A    between atoms: C_24  and  C_27
                            x       y       z     vdW  Elec       q    Type
                         _______ _______ _______ _____ _____    ______ ____

>  <TORSDO>
F 8

$$$$
=
 OpenBabel11072413303D

 36 41  0  0  1  0  0  0  0  0999 V2000
  162.1530  207.7560  150.7440 C   0  0  0  0  0  3  0  0  0  0  0  0
  162.1720  208.6330  149.6530 C   0  0  0  0  0  0  0  0  0  0  0  0
  161.6970  209.5310  152.2430 C   0  0  0  0  0  0  0  0  0  0  0  0
  161.9200  208.2140  151.9990 N   0  0  0  0  0  0  0  0  0  0  0  0
  161.9520  210.0200  149.8740 C   0  0  0  0  0  0  0  0  0  0  0  0
  161.7100  210.4460  151.1910 C   0  0  0  0  0  3  0  0  0  0  0  0
  160.9040  212.3460  147.0370 C   0  0  0  0  0  0  0  0  0  0  0  0
  163.1830  211.7160  148.4870 C   0  0  0  0  0  3  0  0  0  0  0  0
  162.0880  212.9590  146.7690 N   0  0  0  0  0  0  0  0  0  0  0  0
  161.9810  211.0580  148.7990 C   0  0  0  0  0  0  0  0  0  0  0  0
  163.2180  212.6660  147.4660 C   0  0  0  0  0  3  0  0  0  0  0  0
  160.8420  211.3840  148.0510 C   0  0  0  0  0  3  0  0  0  0  0  0
  158.5610  212.5800  146.7850 O   0  0  0  0  0  0  0  0  0  0  0  0
  159.7010  212.7000  146.2620 C   0  0  0  0  0  0  0  0  0  0  0  0
  159.7990  213.2140  144.8640 C   0  0  0  0  0  2  0  0  0  0  0  0
  161.1890  212.2120  143.2150 O   0  0  0  0  0  0  0  0  0  0  0  0
  160.0340  212.5930  142.5100 C   0  0  0  0  0  2  0  0  0  0  0  0
  159.9630  212.0650  143.8880 C   0  0  2  0  0  3  0  0  0  0  0  0
  161.3810  210.0760  153.8790 S   0  0  0  0  0  0  0  0  0  0  0  0
  160.9480  208.9160  154.7340 O   0  0  0  0  0  0  0  0  0  0  0  0
  162.6350  210.6660  154.4600 O   0  0  0  0  0  0  0  0  0  0  0  0
  158.0930  213.1920  153.8820 C   0  0  0  0  0  0  0  0  0  0  0  0
  158.1050  212.2130  152.8840 C   0  0  0  0  0  3  0  0  0  0  0  0
  159.0640  213.2040  154.8340 N   0  0  0  0  0  0  0  0  0  0  0  0
  160.0610  212.2770  154.8470 C   0  0  0  0  0  3  0  0  0  0  0  0
  159.1180  211.2530  152.8810 C   0  0  0  0  0  3  0  0  0  0  0  0
  160.1030  211.2780  153.8690 C   0  0  0  0  0  0  0  0  0  0  0  0
  157.0630  214.1720  153.9070 N   0  0  0  0  0  1  0  0  0  0  0  0
  162.3980  208.0350  148.2960 C   0  0  0  0  0  2  0  0  0  0  0  0
  160.9120  206.6200  146.7720 C   0  0  0  0  0  2  0  0  0  0  0  0
  161.8360  204.3490  147.1040 C   0  0  0  0  0  2  0  0  0  0  0  0
  161.6330  203.8700  148.5320 C   0  0  0  0  0  2  0  0  0  0  0  0
  160.9350  206.1140  149.3340 C   0  0  0  0  0  2  0  0  0  0  0  0
  162.2010  205.8340  147.0170 C   0  0  2  0  0  3  0  0  0  0  0  0
  161.6160  206.7410  148.1030 C   0  0  2  0  0  0  0  0  0  0  0  0
  160.5010  204.6650  149.1490 C   0  0  0  0  0  2  0  0  0  0  0  0
  1  4  1  0  0  0  0
  2  5  1  0  0  0  0
  2  1  2  0  0  0  0
  3 19  1  0  0  0  0
  4  3  2  0  0  0  0
  5  6  2  0  0  0  0
  6  3  1  0  0  0  0
  7 12  1  0  0  0  0
  8 10  1  0  0  0  0
  9  7  2  0  0  0  0
  9 11  1  0  0  0  0
 10  5  1  0  0  0  0
 11  8  2  0  0  0  0
 12 10  2  0  0  0  0
 14 13  2  0  0  0  0
 14  7  1  0  0  0  0
 15 14  1  0  0  0  0
 16 18  1  0  0  0  0
 17 16  1  0  0  0  0
 17 18  1  0  0  0  0
 18 15  1  1  0  0  0
 19 21  2  0  0  0  0
 19 20  2  0  0  0  0
 22 28  1  0  0  0  0
 22 24  1  0  0  0  0
 23 22  2  0  0  0  0
 24 25  2  0  0  0  0
 26 23  1  0  0  0  0
 26 27  2  0  0  0  0
 27 19  1  0  0  0  0
 27 25  1  0  0  0  0
 29  2  1  0  0  0  0
 30 35  1  0  0  0  0
 31 32  1  0  0  0  0
 32 36  1  0  0  0  0
 34 30  1  6  0  0  0
 34 31  1  0  0  0  0
 34 35  1  0  0  0  0
 35 29  1  1  0  0  0
 35 33  1  0  0  0  0
 36 33  1  0  0  0  0
M  END
>  <MODEL>
6

>  <REMARK>
 VINA RESULT:      -7.2      2.052      3.108
  Name = 
  8 active torsions:
  status: ('A' for Active; 'I' for Inactive)
    1  A    between atoms: C_1  and  C_27
    2  A    between atoms: C_5  and  C_28
    3  A    between atoms: C_6  and  C_13
    4  A    between atoms: C_6  and  C_34
    5  A    between atoms: S_7  and  C_17
    6  A    between atoms: S_7  and  C_30
    7  A    between atoms: C_20  and  C_24
    8  A    between atoms: C_24  and  C_27
                            x       y       z     vdW  Elec       q    Type
                         _______ _______ _______ _____ _____    ______ ____

>  <TORSDO>
F 8

$$$$
=
 OpenBabel11072413303D

 36 41  0  0  1  0  0  0  0  0999 V2000
  162.5080  207.8000  148.7080 C   0  0  0  0  0  3  0  0  0  0  0  0
  162.2790  206.4410  148.9560 C   0  0  0  0  0  0  0  0  0  0  0  0
  161.6800  208.3940  150.8460 C   0  0  0  0  0  0  0  0  0  0  0  0
  162.2080  208.7360  149.6430 N   0  0  0  0  0  0  0  0  0  0  0  0
  161.7160  206.0490  150.2010 C   0  0  0  0  0  0  0  0  0  0  0  0
  161.4280  207.0540  151.1390 C   0  0  0  0  0  3  0  0  0  0  0  0
  160.5930  202.4070  150.0110 C   0  0  0  0  0  0  0  0  0  0  0  0
  161.5460  204.2030  151.8980 C   0  0  0  0  0  3  0  0  0  0  0  0
  160.7560  202.0300  151.3080 N   0  0  0  0  0  0  0  0  0  0  0  0
  161.3940  204.6360  150.5710 C   0  0  0  0  0  0  0  0  0  0  0  0
  161.2210  202.8920  152.2500 C   0  0  0  0  0  3  0  0  0  0  0  0
  160.9040  203.7180  149.6330 C   0  0  0  0  0  3  0  0  0  0  0  0
  158.8680  201.1510  148.9860 O   0  0  0  0  0  0  0  0  0  0  0  0
  160.0940  201.4360  149.0210 C   0  0  0  0  0  0  0  0  0  0  0  0
  161.0110  200.7840  148.0390 C   0  0  0  0  0  2  0  0  0  0  0  0
  159.8000  201.5520  146.1430 O   0  0  0  0  0  0  0  0  0  0  0  0
  160.7790  200.6980  145.6060 C   0  0  0  0  0  2  0  0  0  0  0  0
  161.0660  201.5850  146.7530 C   0  0  2  0  0  3  0  0  0  0  0  0
  161.3260  209.6360  152.0310 S   0  0  0  0  0  0  0  0  0  0  0  0
  162.5310  210.5150  152.2310 O   0  0  0  0  0  0  0  0  0  0  0  0
  160.1840  210.4820  151.5430 O   0  0  0  0  0  0  0  0  0  0  0  0
  160.2390  207.7480  156.0020 C   0  0  0  0  0  0  0  0  0  0  0  0
  160.7130  206.9360  154.9670 C   0  0  0  0  0  3  0  0  0  0  0  0
  160.1060  209.0870  155.8090 N   0  0  0  0  0  0  0  0  0  0  0  0
  160.4250  209.6710  154.6210 C   0  0  0  0  0  3  0  0  0  0  0  0
  161.0460  207.5160  153.7420 C   0  0  0  0  0  3  0  0  0  0  0  0
  160.9080  208.8940  153.5640 C   0  0  0  0  0  0  0  0  0  0  0  0
  159.9040  207.1760  157.2600 N   0  0  0  0  0  1  0  0  0  0  0  0
  162.6750  205.4720  147.8830 C   0  0  0  0  0  2  0  0  0  0  0  0
  162.7650  206.1160  145.4110 C   0  0  0  0  0  2  0  0  0  0  0  0
  161.1810  204.5090  144.3950 C   0  0  0  0  0  2  0  0  0  0  0  0
  159.7620  204.7410  144.8870 C   0  0  0  0  0  2  0  0  0  0  0  0
  160.4890  206.2980  146.6790 C   0  0  0  0  0  2  0  0  0  0  0  0
  162.2330  204.6850  145.4940 C   0  0  2  0  0  3  0  0  0  0  0  0
  161.9080  205.7080  146.5860 C   0  0  2  0  0  0  0  0  0  0  0  0
  159.6600  206.1590  145.4090 C   0  0  0  0  0  2  0  0  0  0  0  0
  1  2  2  0  0  0  0
  1  4  1  0  0  0  0
  2  5  1  0  0  0  0
  3  6  1  0  0  0  0
  3 19  1  0  0  0  0
  4  3  2  0  0  0  0
  5 10  1  0  0  0  0
  5  6  2  0  0  0  0
  7  9  1  0  0  0  0
  8 11  1  0  0  0  0
  9 11  2  0  0  0  0
 10  8  2  0  0  0  0
 12  7  2  0  0  0  0
 12 10  1  0  0  0  0
 13 14  2  0  0  0  0
 14  7  1  0  0  0  0
 15 14  1  0  0  0  0
 16 18  1  0  0  0  0
 17 16  1  0  0  0  0
 17 18  1  0  0  0  0
 18 15  1  1  0  0  0
 19 20  2  0  0  0  0
 19 27  1  0  0  0  0
 21 19  2  0  0  0  0
 22 28  1  0  0  0  0
 23 22  2  0  0  0  0
 24 22  1  0  0  0  0
 25 24  2  0  0  0  0
 26 23  1  0  0  0  0
 27 26  2  0  0  0  0
 27 25  1  0  0  0  0
 29  2  1  0  0  0  0
 30 34  1  0  0  0  0
 30 35  1  0  0  0  0
 31 32  1  0  0  0  0
 32 36  1  0  0  0  0
 34 31  1  6  0  0  0
 34 35  1  0  0  0  0
 35 33  1  0  0  0  0
 35 29  1  1  0  0  0
 36 33  1  0  0  0  0
M  END
>  <MODEL>
7

>  <REMARK>
 VINA RESULT:      -6.9      3.765      6.861
  Name = 
  8 active torsions:
  status: ('A' for Active; 'I' for Inactive)
    1  A    between atoms: C_1  and  C_27
    2  A    between atoms: C_5  and  C_28
    3  A    between atoms: C_6  and  C_13
    4  A    between atoms: C_6  and  C_34
    5  A    between atoms: S_7  and  C_17
    6  A    between atoms: S_7  and  C_30
    7  A    between atoms: C_20  and  C_24
    8  A    between atoms: C_24  and  C_27
                            x       y       z     vdW  Elec       q    Type
                         _______ _______ _______ _____ _____    ______ ____

>  <TORSDO>
F 8

$$$$
=
 OpenBabel11072413303D

 36 41  0  0  1  0  0  0  0  0999 V2000
  161.5870  208.7310  149.4560 C   0  0  0  0  0  3  0  0  0  0  0  0
  161.2900  208.9900  150.7990 C   0  0  0  0  0  0  0  0  0  0  0  0
  162.1250  211.0050  149.0720 C   0  0  0  0  0  0  0  0  0  0  0  0
  161.9920  209.7280  148.6310 N   0  0  0  0  0  0  0  0  0  0  0  0
  161.4080  210.3190  151.2930 C   0  0  0  0  0  0  0  0  0  0  0  0
  161.8360  211.3150  150.4000 C   0  0  0  0  0  3  0  0  0  0  0  0
  159.7310  211.9320  154.3170 C   0  0  0  0  0  0  0  0  0  0  0  0
  161.9110  210.3110  153.7540 C   0  0  0  0  0  3  0  0  0  0  0  0
  160.5550  211.5070  155.3120 N   0  0  0  0  0  0  0  0  0  0  0  0
  161.0870  210.7270  152.6950 C   0  0  0  0  0  0  0  0  0  0  0  0
  161.6290  210.7120  155.0610 C   0  0  0  0  0  3  0  0  0  0  0  0
  159.9950  211.5510  152.9970 C   0  0  0  0  0  3  0  0  0  0  0  0
  158.2770  213.7480  153.8790 O   0  0  0  0  0  0  0  0  0  0  0  0
  158.5730  212.7850  154.6360 C   0  0  0  0  0  0  0  0  0  0  0  0
  157.7240  212.5300  155.8380 C   0  0  0  0  0  2  0  0  0  0  0  0
  155.9730  211.3440  154.7500 O   0  0  0  0  0  0  0  0  0  0  0  0
  155.5860  211.3720  156.1010 C   0  0  0  0  0  2  0  0  0  0  0  0
  157.0000  211.2050  155.7020 C   0  0  2  0  0  3  0  0  0  0  0  0
  162.6710  212.2580  147.9740 S   0  0  0  0  0  0  0  0  0  0  0  0
  162.9100  213.5360  148.7300 O   0  0  0  0  0  0  0  0  0  0  0  0
  163.9570  211.8290  147.3260 O   0  0  0  0  0  0  0  0  0  0  0  0
  159.5420  213.0150  144.7880 C   0  0  0  0  0  0  0  0  0  0  0  0
  159.1370  212.5810  146.0530 C   0  0  0  0  0  3  0  0  0  0  0  0
  160.8640  213.2020  144.5240 N   0  0  0  0  0  0  0  0  0  0  0  0
  161.8170  212.9770  145.4690 C   0  0  0  0  0  3  0  0  0  0  0  0
  160.0990  212.3450  147.0350 C   0  0  0  0  0  3  0  0  0  0  0  0
  161.4510  212.5470  146.7480 C   0  0  0  0  0  0  0  0  0  0  0  0
  158.5750  213.2700  143.7770 N   0  0  0  0  0  1  0  0  0  0  0  0
  160.8860  207.8230  151.6500 C   0  0  0  0  0  2  0  0  0  0  0  0
  162.7870  206.1190  151.5160 C   0  0  0  0  0  2  0  0  0  0  0  0
  161.5710  203.9680  151.6530 C   0  0  0  0  0  2  0  0  0  0  0  0
  160.6700  203.7610  150.4470 C   0  0  0  0  0  2  0  0  0  0  0  0
  160.9450  206.1010  149.6640 C   0  0  0  0  0  2  0  0  0  0  0  0
  161.5850  205.4170  152.1490 C   0  0  2  0  0  3  0  0  0  0  0  0
  161.3910  206.5000  151.0830 C   0  0  2  0  0  0  0  0  0  0  0  0
  161.1720  204.6350  149.3160 C   0  0  0  0  0  2  0  0  0  0  0  0
  1  2  1  0  0  0  0
  2  5  2  0  0  0  0
  2 29  1  0  0  0  0
  3  6  2  0  0  0  0
  4  3  1  0  0  0  0
  4  1  2  0  0  0  0
  5 10  1  0  0  0  0
  6  5  1  0  0  0  0
  7 14  1  0  0  0  0
  7  9  1  0  0  0  0
  8 11  1  0  0  0  0
 10 12  1  0  0  0  0
 10  8  2  0  0  0  0
 11  9  2  0  0  0  0
 12  7  2  0  0  0  0
 13 14  2  0  0  0  0
 14 15  1  0  0  0  0
 16 18  1  0  0  0  0
 16 17  1  0  0  0  0
 18 15  1  1  0  0  0
 18 17  1  0  0  0  0
 19 20  2  0  0  0  0
 19  3  1  0  0  0  0
 21 19  2  0  0  0  0
 22 23  1  0  0  0  0
 23 26  2  0  0  0  0
 24 22  2  0  0  0  0
 24 25  1  0  0  0  0
 25 27  2  0  0  0  0
 27 26  1  0  0  0  0
 27 19  1  0  0  0  0
 28 22  1  0  0  0  0
 31 34  1  0  0  0  0
 32 31  1  0  0  0  0
 33 35  1  0  0  0  0
 34 30  1  6  0  0  0
 35 30  1  0  0  0  0
 35 29  1  1  0  0  0
 35 34  1  0  0  0  0
 36 33  1  0  0  0  0
 36 32  1  0  0  0  0
M  END
>  <MODEL>
8

>  <REMARK>
 VINA RESULT:      -6.8      2.818      6.961
  Name = 
  8 active torsions:
  status: ('A' for Active; 'I' for Inactive)
    1  A    between atoms: C_1  and  C_27
    2  A    between atoms: C_5  and  C_28
    3  A    between atoms: C_6  and  C_13
    4  A    between atoms: C_6  and  C_34
    5  A    between atoms: S_7  and  C_17
    6  A    between atoms: S_7  and  C_30
    7  A    between atoms: C_20  and  C_24
    8  A    between atoms: C_24  and  C_27
                            x       y       z     vdW  Elec       q    Type
                         _______ _______ _______ _____ _____    ______ ____

>  <TORSDO>
F 8

$$$$
=
 OpenBabel11072413303D

 36 41  0  0  1  0  0  0  0  0999 V2000
  162.4080  208.9460  148.8400 C   0  0  0  0  0  3  0  0  0  0  0  0
  162.1000  208.6720  150.1780 C   0  0  0  0  0  0  0  0  0  0  0  0
  161.5370  211.1400  149.0250 C   0  0  0  0  0  0  0  0  0  0  0  0
  162.1250  210.1560  148.2970 N   0  0  0  0  0  0  0  0  0  0  0  0
  161.4740  209.6760  150.9660 C   0  0  0  0  0  0  0  0  0  0  0  0
  161.2060  210.9150  150.3600 C   0  0  0  0  0  3  0  0  0  0  0  0
  160.1350  210.3340  154.4780 C   0  0  0  0  0  0  0  0  0  0  0  0
  161.2890  208.2640  153.0360 C   0  0  0  0  0  3  0  0  0  0  0  0
  160.3690  209.1280  155.0610 N   0  0  0  0  0  0  0  0  0  0  0  0
  161.0660  209.4930  152.3930 C   0  0  0  0  0  0  0  0  0  0  0  0
  160.9330  208.0990  154.3760 C   0  0  0  0  0  3  0  0  0  0  0  0
  160.4900  210.5290  153.1380 C   0  0  0  0  0  3  0  0  0  0  0  0
  160.1530  212.4840  155.4700 O   0  0  0  0  0  0  0  0  0  0  0  0
  159.5140  211.4200  155.2570 C   0  0  0  0  0  0  0  0  0  0  0  0
  158.1270  211.2950  155.7980 C   0  0  0  0  0  2  0  0  0  0  0  0
  155.9650  212.0950  155.2160 O   0  0  0  0  0  0  0  0  0  0  0  0
  155.8860  210.7060  155.0140 C   0  0  0  0  0  2  0  0  0  0  0  0
  157.1090  211.4710  154.6880 C   0  0  2  0  0  3  0  0  0  0  0  0
  161.2070  212.6960  148.2870 S   0  0  0  0  0  0  0  0  0  0  0  0
  162.1130  213.7450  148.8710 O   0  0  0  0  0  0  0  0  0  0  0  0
  161.4540  212.6090  146.8070 O   0  0  0  0  0  0  0  0  0  0  0  0
  156.9140  213.8920  149.0980 C   0  0  0  0  0  0  0  0  0  0  0  0
  157.2430  213.3240  147.8640 C   0  0  0  0  0  3  0  0  0  0  0  0
  157.8790  214.0850  150.0370 N   0  0  0  0  0  0  0  0  0  0  0  0
  159.1740  213.7330  149.8090 C   0  0  0  0  0  3  0  0  0  0  0  0
  158.5650  212.9560  147.6110 C   0  0  0  0  0  3  0  0  0  0  0  0
  159.5410  213.1560  148.5890 C   0  0  0  0  0  0  0  0  0  0  0  0
  155.5700  214.2640  149.3760 N   0  0  0  0  0  1  0  0  0  0  0  0
  162.4830  207.3220  150.7060 C   0  0  0  0  0  2  0  0  0  0  0  0
  160.4580  206.6880  149.2800 C   0  0  0  0  0  2  0  0  0  0  0  0
  161.0940  204.4510  148.4350 C   0  0  0  0  0  2  0  0  0  0  0  0
  161.2060  203.4410  149.5640 C   0  0  0  0  0  2  0  0  0  0  0  0
  161.0790  205.1870  151.3260 C   0  0  0  0  0  2  0  0  0  0  0  0
  161.6360  205.8340  148.8110 C   0  0  2  0  0  3  0  0  0  0  0  0
  161.4970  206.2390  150.2810 C   0  0  2  0  0  0  0  0  0  0  0  0
  160.4050  203.9500  150.7450 C   0  0  0  0  0  2  0  0  0  0  0  0
  1  2  1  0  0  0  0
  2 29  1  0  0  0  0
  2  5  2  0  0  0  0
  3  6  2  0  0  0  0
  4  1  2  0  0  0  0
  4  3  1  0  0  0  0
  5 10  1  0  0  0  0
  6  5  1  0  0  0  0
  7  9  1  0  0  0  0
  7 14  1  0  0  0  0
  8 11  1  0  0  0  0
 10  8  2  0  0  0  0
 10 12  1  0  0  0  0
 11  9  2  0  0  0  0
 12  7  2  0  0  0  0
 14 13  2  0  0  0  0
 14 15  1  0  0  0  0
 17 16  1  0  0  0  0
 18 17  1  0  0  0  0
 18 16  1  0  0  0  0
 18 15  1  1  0  0  0
 19 27  1  0  0  0  0
 19 20  2  0  0  0  0
 19  3  1  0  0  0  0
 21 19  2  0  0  0  0
 22 28  1  0  0  0  0
 22 24  1  0  0  0  0
 23 22  2  0  0  0  0
 25 24  2  0  0  0  0
 26 23  1  0  0  0  0
 26 27  2  0  0  0  0
 27 25  1  0  0  0  0
 30 35  1  0  0  0  0
 31 32  1  0  0  0  0
 32 36  1  0  0  0  0
 34 31  1  1  0  0  0
 34 30  1  0  0  0  0
 34 35  1  0  0  0  0
 35 29  1  1  0  0  0
 35 33  1  0  0  0  0
 36 33  1  0  0  0  0
M  END
>  <MODEL>
9

>  <REMARK>
 VINA RESULT:      -6.8      2.591      6.016
  Name = 
  8 active torsions:
  status: ('A' for Active; 'I' for Inactive)
    1  A    between atoms: C_1  and  C_27
    2  A    between atoms: C_5  and  C_28
    3  A    between atoms: C_6  and  C_13
    4  A    between atoms: C_6  and  C_34
    5  A    between atoms: S_7  and  C_17
    6  A    between atoms: S_7  and  C_30
    7  A    between atoms: C_20  and  C_24
    8  A    between atoms: C_24  and  C_27
                            x       y       z     vdW  Elec       q    Type
                         _______ _______ _______ _____ _____    ______ ____

>  <TORSDO>
F 8

$$$$
