=
 OpenBabel11072410203D

 33 36  0  0  1  0  0  0  0  0999 V2000
  160.2320  209.3270  156.1160 O   0  0  0  0  0  0  0  0  0  0  0  0
  160.5950  212.9570  149.4770 C   0  0  1  0  0  3  0  0  0  0  0  0
  159.4290  211.3690  155.1580 C   0  0  0  0  0  0  0  0  0  0  0  0
  160.0760  208.4580  155.0300 C   0  0  0  0  0  2  0  0  0  0  0  0
  161.4490  211.3230  156.5790 C   0  0  0  0  0  1  0  0  0  0  0  0
  159.4770  212.1290  153.9570 C   0  0  0  0  0  0  0  0  0  0  0  0
  161.5250  209.9400  150.8560 C   0  0  1  0  0  3  0  0  0  0  0  0
  156.1410  213.7770  153.4530 S   0  0  0  0  0  0  0  0  0  0  0  0
  157.1660  212.0330  155.6270 N   0  0  0  0  0  0  0  0  0  0  0  0
  161.4830  206.9940  152.5860 C   0  0  0  0  0  2  0  0  0  0  0  0
  157.6700  213.7030  152.6500 C   0  0  1  0  0  3  0  0  0  0  0  0
  158.3220  212.8070  153.6410 C   0  0  0  0  0  0  0  0  0  0  0  0
  160.9630  206.4210  153.8960 C   0  0  0  0  0  2  0  0  0  0  0  0
  157.1960  212.7390  154.4840 C   0  0  0  0  0  0  0  0  0  0  0  0
  159.3930  212.4420  150.2570 C   0  0  0  0  0  2  0  0  0  0  0  0
  160.6090  212.1880  153.1530 O   0  0  0  0  0  1  0  0  0  0  0  0
  158.4660  213.4740  150.4120 O   0  0  0  0  0  0  0  0  0  0  0  0
  161.6230  213.3600  147.3230 C   0  0  1  0  0  3  0  0  0  0  0  0
  160.6220  210.5550  155.5660 C   0  0  1  0  0  3  0  0  0  0  0  0
  161.6000  210.6150  149.4930 C   0  0  0  0  0  2  0  0  0  0  0  0
  161.8560  212.1150  149.6280 C   0  0  1  0  0  3  0  0  0  0  0  0
  161.0160  208.5110  150.6710 C   0  0  0  0  0  2  0  0  0  0  0  0
  161.1580  207.3940  155.0490 C   0  0  0  0  0  2  0  0  0  0  0  0
  158.2870  211.3600  155.9460 N   0  0  0  0  0  0  0  0  0  0  0  0
  160.2970  213.0750  148.0020 C   0  0  0  0  0  2  0  0  0  0  0  0
  160.4660  207.9340  151.9630 C   0  0  0  0  0  2  0  0  0  0  0  0
  162.9820  212.6200  148.2940 S   0  0  0  0  0  0  0  0  0  0  0  0
  157.5220  212.9870  151.3160 C   0  0  0  0  0  2  0  0  0  0  0  0
  163.7080  210.9680  150.9760 O   0  0  0  0  0  1  0  0  0  0  0  0
  162.8820  210.0190  151.5760 C   0  0  1  0  0  3  0  0  0  0  0  0
  162.7540  210.3000  153.0660 C   0  0  0  0  0  1  0  0  0  0  0  0
  162.7680  213.4030  145.1490 N   0  0  0  0  0  1  0  0  0  0  0  0
  161.6290  212.8680  145.8800 C   0  0  0  0  0  2  0  0  0  0  0  0
  2 25  1  6  0  0  0
  2 21  1  0  0  0  0
  2 15  1  0  0  0  0
  3 19  1  0  0  0  0
  3 24  1  0  0  0  0
  4 23  1  0  0  0  0
  4  1  1  0  0  0  0
  6  3  2  0  0  0  0
  7 30  1  6  0  0  0
  8 14  1  0  0  0  0
  9 24  2  0  0  0  0
 10 13  1  0  0  0  0
 11 28  1  6  0  0  0
 11  8  1  0  0  0  0
 11 12  1  0  0  0  0
 12  6  1  0  0  0  0
 12 14  2  0  0  0  0
 13 23  1  0  0  0  0
 14  9  1  0  0  0  0
 15 17  1  0  0  0  0
 16  6  1  0  0  0  0
 17 28  1  0  0  0  0
 18 33  1  6  0  0  0
 18 25  1  0  0  0  0
 18 27  1  0  0  0  0
 19  1  1  0  0  0  0
 19  5  1  1  0  0  0
 20  7  1  0  0  0  0
 21 20  1  6  0  0  0
 22  7  1  0  0  0  0
 22 26  1  0  0  0  0
 26 10  1  0  0  0  0
 27 21  1  0  0  0  0
 29 30  1  0  0  0  0
 30 31  1  1  0  0  0
 32 33  1  0  0  0  0
M  END
>  <MODEL>
1

>  <REMARK>
 VINA RESULT:      -1.5      0.000      0.000
  Name = 
  2 active torsions:
  status: ('A' for Active; 'I' for Inactive)
    1  A    between atoms: C_8  and  C_23
    2  A    between atoms: C_20  and  C_26
                            x       y       z     vdW  Elec       q    Type
                         _______ _______ _______ _____ _____    ______ ____

>  <TORSDO>
F 2

$$$$
=
 OpenBabel11072410203D

 33 36  0  0  1  0  0  0  0  0999 V2000
  159.9580  210.3250  157.0320 O   0  0  0  0  0  0  0  0  0  0  0  0
  159.5480  213.4530  150.1440 C   0  0  1  0  0  3  0  0  0  0  0  0
  158.9160  212.2140  155.9940 C   0  0  0  0  0  0  0  0  0  0  0  0
  159.8060  209.3660  156.0240 C   0  0  0  0  0  2  0  0  0  0  0  0
  161.0240  212.4450  157.2610 C   0  0  0  0  0  1  0  0  0  0  0  0
  158.8150  212.8810  154.7430 C   0  0  0  0  0  0  0  0  0  0  0  0
  160.8320  210.6380  151.6600 C   0  0  1  0  0  3  0  0  0  0  0  0
  155.3190  214.2030  154.3730 S   0  0  0  0  0  0  0  0  0  0  0  0
  156.6400  212.7230  156.5820 N   0  0  0  0  0  0  0  0  0  0  0  0
  161.1680  207.8400  153.5920 C   0  0  0  0  0  2  0  0  0  0  0  0
  156.7910  214.1950  153.4650 C   0  0  1  0  0  3  0  0  0  0  0  0
  157.5860  213.4350  154.4660 C   0  0  0  0  0  0  0  0  0  0  0  0
  160.7910  207.3280  154.9740 C   0  0  0  0  0  2  0  0  0  0  0  0
  156.5300  213.3380  155.3930 C   0  0  0  0  0  0  0  0  0  0  0  0
  158.4520  212.9020  151.0460 C   0  0  0  0  0  2  0  0  0  0  0  0
  159.8790  212.9710  153.8540 O   0  0  0  0  0  1  0  0  0  0  0  0
  157.4500  213.8620  151.1960 O   0  0  0  0  0  0  0  0  0  0  0  0
  160.3880  213.7730  147.8970 C   0  0  1  0  0  3  0  0  0  0  0  0
  160.2010  211.5350  156.3690 C   0  0  1  0  0  3  0  0  0  0  0  0
  160.7540  211.2100  150.2510 C   0  0  0  0  0  2  0  0  0  0  0  0
  160.8850  212.7320  150.2600 C   0  0  1  0  0  3  0  0  0  0  0  0
  160.4390  209.1620  151.6150 C   0  0  0  0  0  2  0  0  0  0  0  0
  160.9770  208.4000  156.0380 C   0  0  0  0  0  2  0  0  0  0  0  0
  157.8350  212.1710  156.8630 N   0  0  0  0  0  0  0  0  0  0  0  0
  159.1410  213.4320  148.6910 C   0  0  0  0  0  2  0  0  0  0  0  0
  160.0310  208.6420  152.9820 C   0  0  0  0  0  2  0  0  0  0  0  0
  161.8700  213.2250  148.8140 S   0  0  0  0  0  0  0  0  0  0  0  0
  156.6160  213.3690  152.2000 C   0  0  0  0  0  2  0  0  0  0  0  0
  162.1920  210.7320  153.6550 O   0  0  0  0  0  1  0  0  0  0  0  0
  162.2220  210.8840  152.2690 C   0  0  1  0  0  3  0  0  0  0  0  0
  163.3040  210.0000  151.6670 C   0  0  0  0  0  1  0  0  0  0  0  0
  161.6210  213.3110  145.8220 N   0  0  0  0  0  1  0  0  0  0  0  0
  160.3390  213.1740  146.4960 C   0  0  0  0  0  2  0  0  0  0  0  0
  2 25  1  6  0  0  0
  2 21  1  0  0  0  0
  2 15  1  0  0  0  0
  3 19  1  0  0  0  0
  3 24  1  0  0  0  0
  4 23  1  0  0  0  0
  4  1  1  0  0  0  0
  6  3  2  0  0  0  0
  7 30  1  6  0  0  0
  8 14  1  0  0  0  0
  9 24  2  0  0  0  0
 10 13  1  0  0  0  0
 11 28  1  6  0  0  0
 11  8  1  0  0  0  0
 11 12  1  0  0  0  0
 12  6  1  0  0  0  0
 12 14  2  0  0  0  0
 13 23  1  0  0  0  0
 14  9  1  0  0  0  0
 15 17  1  0  0  0  0
 16  6  1  0  0  0  0
 17 28  1  0  0  0  0
 18 33  1  6  0  0  0
 18 25  1  0  0  0  0
 18 27  1  0  0  0  0
 19  1  1  0  0  0  0
 19  5  1  1  0  0  0
 20  7  1  0  0  0  0
 21 20  1  6  0  0  0
 22  7  1  0  0  0  0
 22 26  1  0  0  0  0
 26 10  1  0  0  0  0
 27 21  1  0  0  0  0
 30 31  1  6  0  0  0
 30 29  1  0  0  0  0
 32 33  1  0  0  0  0
M  END
>  <MODEL>
2

>  <REMARK>
 VINA RESULT:      -1.4      1.311      1.425
  Name = 
  2 active torsions:
  status: ('A' for Active; 'I' for Inactive)
    1  A    between atoms: C_8  and  C_23
    2  A    between atoms: C_20  and  C_26
                            x       y       z     vdW  Elec       q    Type
                         _______ _______ _______ _____ _____    ______ ____

>  <TORSDO>
F 2

$$$$
=
 OpenBabel11072410203D

 33 36  0  0  1  0  0  0  0  0999 V2000
  160.8400  208.7370  154.7470 O   0  0  0  0  0  0  0  0  0  0  0  0
  160.4760  213.4130  148.7980 C   0  0  1  0  0  3  0  0  0  0  0  0
  159.8620  210.8540  154.2050 C   0  0  0  0  0  0  0  0  0  0  0  0
  160.6380  208.0480  153.5460 C   0  0  0  0  0  2  0  0  0  0  0  0
  161.9920  210.7030  155.4460 C   0  0  0  0  0  1  0  0  0  0  0  0
  159.7730  211.8000  153.1470 C   0  0  0  0  0  0  0  0  0  0  0  0
  161.6630  210.2760  149.5830 C   0  0  1  0  0  3  0  0  0  0  0  0
  156.3300  213.2980  153.1710 S   0  0  0  0  0  0  0  0  0  0  0  0
  157.6160  211.2920  154.9420 N   0  0  0  0  0  0  0  0  0  0  0  0
  161.9090  207.0900  150.7950 C   0  0  0  0  0  2  0  0  0  0  0  0
  157.7890  213.4510  152.2570 C   0  0  1  0  0  3  0  0  0  0  0  0
  158.5640  212.4480  153.0340 C   0  0  0  0  0  0  0  0  0  0  0  0
  161.5270  206.2810  152.0260 C   0  0  0  0  0  2  0  0  0  0  0  0
  157.5160  212.1740  153.9340 C   0  0  0  0  0  0  0  0  0  0  0  0
  159.3690  212.7050  149.5670 C   0  0  0  0  0  2  0  0  0  0  0  0
  160.8300  212.0590  152.2830 O   0  0  0  0  0  1  0  0  0  0  0  0
  158.4080  213.6380  149.9600 O   0  0  0  0  0  0  0  0  0  0  0  0
  161.3020  214.2230  146.6720 C   0  0  1  0  0  3  0  0  0  0  0  0
  161.1230  210.0600  154.3830 C   0  0  1  0  0  3  0  0  0  0  0  0
  161.5920  211.1650  148.3500 C   0  0  0  0  0  2  0  0  0  0  0  0
  161.7850  212.6370  148.7140 C   0  0  1  0  0  3  0  0  0  0  0  0
  161.2110  208.8660  149.2000 C   0  0  0  0  0  2  0  0  0  0  0  0
  161.7680  207.0640  153.3080 C   0  0  0  0  0  2  0  0  0  0  0  0
  158.7900  210.6470  155.0610 N   0  0  0  0  0  0  0  0  0  0  0  0
  160.0520  213.7500  147.3900 C   0  0  0  0  0  2  0  0  0  0  0  0
  160.7980  208.0550  150.4150 C   0  0  0  0  0  2  0  0  0  0  0  0
  162.7710  213.4210  147.4040 S   0  0  0  0  0  0  0  0  0  0  0  0
  157.5670  212.9530  150.8370 C   0  0  0  0  0  2  0  0  0  0  0  0
  163.7900  211.4130  149.7250 O   0  0  0  0  0  1  0  0  0  0  0  0
  163.0690  210.3200  150.2040 C   0  0  1  0  0  3  0  0  0  0  0  0
  163.0510  210.3280  151.7260 C   0  0  0  0  0  1  0  0  0  0  0  0
  160.3340  212.8520  144.8760 N   0  0  0  0  0  1  0  0  0  0  0  0
  161.2130  213.9730  145.1710 C   0  0  0  0  0  2  0  0  0  0  0  0
  2 25  1  6  0  0  0
  2 15  1  0  0  0  0
  3 19  1  0  0  0  0
  3 24  1  0  0  0  0
  4  1  1  0  0  0  0
  6  3  2  0  0  0  0
  7 30  1  6  0  0  0
  8 14  1  0  0  0  0
  9 24  2  0  0  0  0
 10 13  1  0  0  0  0
 11 28  1  6  0  0  0
 11 12  1  0  0  0  0
 11  8  1  0  0  0  0
 12  6  1  0  0  0  0
 12 14  2  0  0  0  0
 13 23  1  0  0  0  0
 14  9  1  0  0  0  0
 15 17  1  0  0  0  0
 16  6  1  0  0  0  0
 17 28  1  0  0  0  0
 18 33  1  6  0  0  0
 18 25  1  0  0  0  0
 18 27  1  0  0  0  0
 19  1  1  0  0  0  0
 19  5  1  1  0  0  0
 20  7  1  0  0  0  0
 21 20  1  6  0  0  0
 21  2  1  0  0  0  0
 22  7  1  0  0  0  0
 22 26  1  0  0  0  0
 23  4  1  0  0  0  0
 26 10  1  0  0  0  0
 27 21  1  0  0  0  0
 29 30  1  0  0  0  0
 30 31  1  1  0  0  0
 32 33  1  0  0  0  0
M  END
>  <MODEL>
3

>  <REMARK>
 VINA RESULT:       0.1      1.164      1.303
  Name = 
  2 active torsions:
  status: ('A' for Active; 'I' for Inactive)
    1  A    between atoms: C_8  and  C_23
    2  A    between atoms: C_20  and  C_26
                            x       y       z     vdW  Elec       q    Type
                         _______ _______ _______ _____ _____    ______ ____

>  <TORSDO>
F 2

$$$$
=
 OpenBabel11072410203D

 33 36  0  0  1  0  0  0  0  0999 V2000
  161.2220  205.1910  153.5060 O   0  0  0  0  0  0  0  0  0  0  0  0
  161.6000  211.8790  149.9690 C   0  0  1  0  0  3  0  0  0  0  0  0
  161.0690  207.5140  154.0690 C   0  0  0  0  0  0  0  0  0  0  0  0
  160.5430  205.1810  152.2830 C   0  0  0  0  0  2  0  0  0  0  0  0
  163.1620  206.2460  154.4030 C   0  0  0  0  0  1  0  0  0  0  0  0
  161.1600  208.8080  153.4870 C   0  0  0  0  0  0  0  0  0  0  0  0
  161.5880  208.5200  149.2050 C   0  0  1  0  0  3  0  0  0  0  0  0
  158.6500  211.0470  155.1580 S   0  0  0  0  0  0  0  0  0  0  0  0
  159.3580  208.1990  155.6130 N   0  0  0  0  0  0  0  0  0  0  0  0
  160.7910  205.1980  149.1150 C   0  0  0  0  0  2  0  0  0  0  0  0
  159.8510  211.1650  153.9200 C   0  0  1  0  0  3  0  0  0  0  0  0
  160.3030  209.7510  154.0070 C   0  0  0  0  0  0  0  0  0  0  0  0
  160.3640  204.0790  150.0520 C   0  0  0  0  0  2  0  0  0  0  0  0
  159.4230  209.4200  155.0560 C   0  0  0  0  0  0  0  0  0  0  0  0
  160.4720  211.2500  150.7740 C   0  0  0  0  0  2  0  0  0  0  0  0
  162.0480  209.1070  152.4620 O   0  0  0  0  0  1  0  0  0  0  0  0
  160.0470  212.1480  151.7540 O   0  0  0  0  0  0  0  0  0  0  0  0
  162.2580  213.2640  148.0950 C   0  0  1  0  0  3  0  0  0  0  0  0
  161.9260  206.4020  153.5380 C   0  0  1  0  0  3  0  0  0  0  0  0
  161.6390  209.8370  148.4430 C   0  0  0  0  0  2  0  0  0  0  0  0
  162.4580  210.8840  149.1970 C   0  0  1  0  0  3  0  0  0  0  0  0
  160.5560  207.6080  148.5420 C   0  0  0  0  0  2  0  0  0  0  0  0
  161.1300  204.1240  151.3660 C   0  0  0  0  0  2  0  0  0  0  0  0
  160.1850  207.2650  155.1090 N   0  0  0  0  0  0  0  0  0  0  0  0
  161.0830  212.8990  148.9830 C   0  0  0  0  0  2  0  0  0  0  0  0
  160.0970  206.5010  149.4750 C   0  0  0  0  0  2  0  0  0  0  0  0
  163.4050  211.8470  147.9810 S   0  0  0  0  0  0  0  0  0  0  0  0
  159.1870  211.4180  152.5750 C   0  0  0  0  0  2  0  0  0  0  0  0
  163.1440  207.2000  150.5000 O   0  0  0  0  0  1  0  0  0  0  0  0
  162.9890  207.8930  149.3000 C   0  0  1  0  0  3  0  0  0  0  0  0
  163.3200  206.9870  148.1230 C   0  0  0  0  0  1  0  0  0  0  0  0
  160.8100  212.8150  146.1610 N   0  0  0  0  0  1  0  0  0  0  0  0
  161.7960  213.7270  146.7190 C   0  0  0  0  0  2  0  0  0  0  0  0
  1 19  1  0  0  0  0
  2 25  1  6  0  0  0
  2 15  1  0  0  0  0
  3 24  1  0  0  0  0
  4  1  1  0  0  0  0
  6 12  1  0  0  0  0
  6  3  2  0  0  0  0
  7 30  1  6  0  0  0
 10 26  1  0  0  0  0
 10 13  1  0  0  0  0
 11 28  1  6  0  0  0
 11 12  1  0  0  0  0
 11  8  1  0  0  0  0
 12 14  2  0  0  0  0
 13 23  1  0  0  0  0
 14  8  1  0  0  0  0
 14  9  1  0  0  0  0
 15 17  1  0  0  0  0
 16  6  1  0  0  0  0
 17 28  1  0  0  0  0
 18 33  1  6  0  0  0
 18 25  1  0  0  0  0
 19  3  1  0  0  0  0
 19  5  1  1  0  0  0
 20  7  1  0  0  0  0
 21 20  1  6  0  0  0
 21  2  1  0  0  0  0
 22  7  1  0  0  0  0
 22 26  1  0  0  0  0
 23  4  1  0  0  0  0
 24  9  2  0  0  0  0
 27 18  1  0  0  0  0
 27 21  1  0  0  0  0
 30 31  1  6  0  0  0
 30 29  1  0  0  0  0
 32 33  1  0  0  0  0
M  END
>  <MODEL>
4

>  <REMARK>
 VINA RESULT:       0.4      2.522      3.551
  Name = 
  2 active torsions:
  status: ('A' for Active; 'I' for Inactive)
    1  A    between atoms: C_8  and  C_23
    2  A    between atoms: C_20  and  C_26
                            x       y       z     vdW  Elec       q    Type
                         _______ _______ _______ _____ _____    ______ ____

>  <TORSDO>
F 2

$$$$
