=
 OpenBabel11072414223D

 26 30  0  0  0  0  0  0  0  0999 V2000
  161.9300  205.9240  149.6360 N   0  0  0  0  0  0  0  0  0  0  0  0
  162.8360  205.2220  147.1350 S   0  0  0  0  0  0  0  0  0  0  0  0
  160.9830  206.6710  154.3810 C   0  0  0  0  0  3  0  0  0  0  0  0
  162.1900  206.3550  148.3610 C   0  0  0  0  0  0  0  0  0  0  0  0
  160.6230  209.4210  154.0830 C   0  0  0  0  0  3  0  0  0  0  0  0
  160.1620  201.6770  148.2470 C   0  0  0  0  0  3  0  0  0  0  0  0
  161.7340  208.5870  148.9600 C   0  0  0  0  0  0  0  0  0  0  0  0
  161.3450  203.3720  145.0880 C   0  0  0  0  0  1  0  0  0  0  0  0
  161.1120  203.1060  146.5350 C   0  0  0  0  0  0  0  0  0  0  0  0
  160.9540  208.6310  152.9790 C   0  0  0  0  0  0  0  0  0  0  0  0
  161.8140  204.5610  149.8750 O   0  0  0  0  0  0  0  0  0  0  0  0
  161.1440  209.3330  151.4700 S   0  0  0  0  0  0  0  0  0  0  0  0
  161.6550  206.8300  150.6430 C   0  0  0  0  0  0  0  0  0  0  0  0
  160.4720  208.8320  155.3390 C   0  0  0  0  0  3  0  0  0  0  0  0
  160.3640  201.9820  146.8990 C   0  0  0  0  0  3  0  0  0  0  0  0
  161.1390  207.2390  153.1010 C   0  0  0  0  0  0  0  0  0  0  0  0
  161.5370  208.1960  150.2860 C   0  0  0  0  0  0  0  0  0  0  0  0
  161.4770  206.3910  152.0040 C   0  0  0  0  0  0  0  0  0  0  0  0
  161.6450  205.1680  152.2680 O   0  0  0  0  0  0  0  0  0  0  0  0
  160.6520  207.4570  155.4880 C   0  0  0  0  0  3  0  0  0  0  0  0
  161.4120  203.6530  148.8860 C   0  0  0  0  0  0  0  0  0  0  0  0
  162.0750  207.6650  148.0350 N   0  0  0  0  0  0  0  0  0  0  0  0
  160.4260  202.1780  150.6700 C   0  0  0  0  0  1  0  0  0  0  0  0
  161.6620  203.9280  147.5340 C   0  0  0  0  0  0  0  0  0  0  0  0
  161.6180  209.7940  148.6160 O   0  0  0  0  0  0  0  0  0  0  0  0
  160.6900  202.5040  149.2410 C   0  0  0  0  0  0  0  0  0  0  0  0
  1 11  1  0  0  0  0
  1 13  1  0  0  0  0
  2 24  1  0  0  0  0
  2  4  1  0  0  0  0
  3 20  1  0  0  0  0
  4  1  1  0  0  0  0
  5 14  1  0  0  0  0
  6 26  1  0  0  0  0
  7 17  1  0  0  0  0
  8  9  1  0  0  0  0
  9 15  1  0  0  0  0
  9 24  2  0  0  0  0
 10 16  1  0  0  0  0
 10  5  2  0  0  0  0
 12 10  1  0  0  0  0
 13 18  1  0  0  0  0
 14 20  2  0  0  0  0
 15  6  2  0  0  0  0
 16  3  2  0  0  0  0
 17 13  2  0  0  0  0
 17 12  1  0  0  0  0
 18 19  2  0  0  0  0
 18 16  1  0  0  0  0
 21 26  2  0  0  0  0
 21 11  1  0  0  0  0
 22  4  2  0  0  0  0
 22  7  1  0  0  0  0
 24 21  1  0  0  0  0
 25  7  2  0  0  0  0
 26 23  1  0  0  0  0
M  END
>  <MODEL>
1

>  <REMARK>
 VINA RESULT:      -9.5      0.000      0.000
  Name = 
  0 active torsions:
  status: ('A' for Active; 'I' for Inactive)
                            x       y       z     vdW  Elec       q    Type
                         _______ _______ _______ _____ _____    ______ ____

>  <TORSDO>
F 0

$$$$
=
 OpenBabel11072414223D

 26 30  0  0  0  0  0  0  0  0999 V2000
  161.6110  206.9210  151.9420 N   0  0  0  0  0  0  0  0  0  0  0  0
  161.7110  207.3720  154.6540 S   0  0  0  0  0  0  0  0  0  0  0  0
  162.2190  206.5210  147.1010 C   0  0  0  0  0  3  0  0  0  0  0  0
  161.3690  206.4030  153.1880 C   0  0  0  0  0  0  0  0  0  0  0  0
  161.4180  203.8510  147.0170 C   0  0  0  0  0  3  0  0  0  0  0  0
  160.0610  211.3310  153.0550 C   0  0  0  0  0  3  0  0  0  0  0  0
  160.8480  204.2950  152.2760 C   0  0  0  0  0  0  0  0  0  0  0  0
  159.8810  209.3470  156.2620 C   0  0  0  0  0  1  0  0  0  0  0  0
  160.1840  209.7050  154.8470 C   0  0  0  0  0  0  0  0  0  0  0  0
  161.4610  204.5350  148.2360 C   0  0  0  0  0  0  0  0  0  0  0  0
  161.7650  208.2940  151.8010 O   0  0  0  0  0  0  0  0  0  0  0  0
  161.0400  203.7520  149.6540 S   0  0  0  0  0  0  0  0  0  0  0  0
  161.5720  206.1100  150.8240 C   0  0  0  0  0  0  0  0  0  0  0  0
  161.7770  204.5060  145.8390 C   0  0  0  0  0  3  0  0  0  0  0  0
  159.7570  210.9450  154.3620 C   0  0  0  0  0  3  0  0  0  0  0  0
  161.8600  205.8850  148.3060 C   0  0  0  0  0  0  0  0  0  0  0  0
  161.1600  204.7650  150.9990 C   0  0  0  0  0  0  0  0  0  0  0  0
  161.9210  206.6250  149.5240 C   0  0  0  0  0  0  0  0  0  0  0  0
  162.3290  207.8170  149.4390 O   0  0  0  0  0  0  0  0  0  0  0  0
  162.1770  205.8410  145.8800 C   0  0  0  0  0  3  0  0  0  0  0  0
  161.1780  209.2120  152.6830 C   0  0  0  0  0  0  0  0  0  0  0  0
  160.9780  205.1160  153.3400 N   0  0  0  0  0  0  0  0  0  0  0  0
  161.0530  210.8930  150.8150 C   0  0  0  0  0  1  0  0  0  0  0  0
  160.9220  208.8480  154.0120 C   0  0  0  0  0  0  0  0  0  0  0  0
  160.4640  203.1080  152.4540 O   0  0  0  0  0  0  0  0  0  0  0  0
  160.7770  210.4730  152.2170 C   0  0  0  0  0  0  0  0  0  0  0  0
  1  4  1  0  0  0  0
  3 16  1  0  0  0  0
  4 22  2  0  0  0  0
  4  2  1  0  0  0  0
  5 10  1  0  0  0  0
  6 15  1  0  0  0  0
  7 25  2  0  0  0  0
  7 22  1  0  0  0  0
  9  8  1  0  0  0  0
 10 16  2  0  0  0  0
 10 12  1  0  0  0  0
 11  1  1  0  0  0  0
 11 21  1  0  0  0  0
 12 17  1  0  0  0  0
 13 17  2  0  0  0  0
 13  1  1  0  0  0  0
 14 20  1  0  0  0  0
 14  5  2  0  0  0  0
 15  9  2  0  0  0  0
 16 18  1  0  0  0  0
 17  7  1  0  0  0  0
 18 13  1  0  0  0  0
 19 18  2  0  0  0  0
 20  3  2  0  0  0  0
 21 24  2  0  0  0  0
 23 26  1  0  0  0  0
 24  2  1  0  0  0  0
 24  9  1  0  0  0  0
 26 21  1  0  0  0  0
 26  6  2  0  0  0  0
M  END
>  <MODEL>
2

>  <REMARK>
 VINA RESULT:      -8.6      2.130      7.609
  Name = 
  0 active torsions:
  status: ('A' for Active; 'I' for Inactive)
                            x       y       z     vdW  Elec       q    Type
                         _______ _______ _______ _____ _____    ______ ____

>  <TORSDO>
F 0

$$$$
=
 OpenBabel11072414223D

 26 30  0  0  0  0  0  0  0  0999 V2000
  161.9230  207.4220  151.3000 N   0  0  0  0  0  0  0  0  0  0  0  0
  162.9330  207.1190  148.7590 S   0  0  0  0  0  0  0  0  0  0  0  0
  160.8360  207.5030  156.0730 C   0  0  0  0  0  3  0  0  0  0  0  0
  162.1510  208.0250  150.0900 C   0  0  0  0  0  0  0  0  0  0  0  0
  160.1840  210.2150  156.0850 C   0  0  0  0  0  3  0  0  0  0  0  0
  160.6450  203.2040  149.3860 C   0  0  0  0  0  3  0  0  0  0  0  0
  161.4480  210.1100  150.9300 C   0  0  0  0  0  0  0  0  0  0  0  0
  161.6800  205.3730  146.4750 C   0  0  0  0  0  1  0  0  0  0  0  0
  161.4580  204.9150  147.8760 C   0  0  0  0  0  0  0  0  0  0  0  0
  160.6130  209.6000  154.9050 C   0  0  0  0  0  0  0  0  0  0  0  0
  161.9530  206.0350  151.3780 O   0  0  0  0  0  0  0  0  0  0  0  0
  160.7470  210.4890  153.4930 S   0  0  0  0  0  0  0  0  0  0  0  0
  161.5380  208.1690  152.3970 C   0  0  0  0  0  0  0  0  0  0  0  0
  160.0810  209.4700  157.2600 C   0  0  0  0  0  3  0  0  0  0  0  0
  160.8310  203.6840  148.0880 C   0  0  0  0  0  3  0  0  0  0  0  0
  160.9470  208.2300  154.8710 C   0  0  0  0  0  0  0  0  0  0  0  0
  161.2770  209.5480  152.1970 C   0  0  0  0  0  0  0  0  0  0  0  0
  161.3900  207.5570  153.6940 C   0  0  0  0  0  0  0  0  0  0  0  0
  161.6860  206.3370  153.8200 O   0  0  0  0  0  0  0  0  0  0  0  0
  160.4070  208.1140  157.2550 C   0  0  0  0  0  3  0  0  0  0  0  0
  161.6640  205.2130  150.2810 C   0  0  0  0  0  0  0  0  0  0  0  0
  161.8990  209.3440  149.9150 N   0  0  0  0  0  0  0  0  0  0  0  0
  160.8210  203.4420  151.8570 C   0  0  0  0  0  1  0  0  0  0  0  0
  161.9020  205.6690  148.9760 C   0  0  0  0  0  0  0  0  0  0  0  0
  161.2060  211.3290  150.7240 O   0  0  0  0  0  0  0  0  0  0  0  0
  161.0670  203.9590  150.4820 C   0  0  0  0  0  0  0  0  0  0  0  0
  1 11  1  0  0  0  0
  1 13  1  0  0  0  0
  2 24  1  0  0  0  0
  2  4  1  0  0  0  0
  3 20  1  0  0  0  0
  4  1  1  0  0  0  0
  5 14  1  0  0  0  0
  6 26  1  0  0  0  0
  7 17  1  0  0  0  0
  8  9  1  0  0  0  0
  9 15  1  0  0  0  0
  9 24  2  0  0  0  0
 10  5  2  0  0  0  0
 12 10  1  0  0  0  0
 13 18  1  0  0  0  0
 15  6  2  0  0  0  0
 16 10  1  0  0  0  0
 16  3  2  0  0  0  0
 17 13  2  0  0  0  0
 17 12  1  0  0  0  0
 18 19  2  0  0  0  0
 18 16  1  0  0  0  0
 20 14  2  0  0  0  0
 21 26  2  0  0  0  0
 21 11  1  0  0  0  0
 22  4  2  0  0  0  0
 22  7  1  0  0  0  0
 24 21  1  0  0  0  0
 25  7  2  0  0  0  0
 26 23  1  0  0  0  0
M  END
>  <MODEL>
3

>  <REMARK>
 VINA RESULT:      -8.5      1.664      2.206
  Name = 
  0 active torsions:
  status: ('A' for Active; 'I' for Inactive)
                            x       y       z     vdW  Elec       q    Type
                         _______ _______ _______ _____ _____    ______ ____

>  <TORSDO>
F 0

$$$$
=
 OpenBabel11072414223D

 26 30  0  0  0  0  0  0  0  0999 V2000
  161.3350  209.1580  152.6210 N   0  0  0  0  0  0  0  0  0  0  0  0
  161.5530  210.3610  155.0850 S   0  0  0  0  0  0  0  0  0  0  0  0
  161.6480  207.5090  148.0220 C   0  0  0  0  0  3  0  0  0  0  0  0
  161.2760  208.9810  153.9790 C   0  0  0  0  0  0  0  0  0  0  0  0
  161.3130  204.8350  148.7430 C   0  0  0  0  0  3  0  0  0  0  0  0
  159.1370  213.4300  152.6990 C   0  0  0  0  0  3  0  0  0  0  0  0
  161.0590  206.6490  153.7260 C   0  0  0  0  0  0  0  0  0  0  0  0
  159.5330  212.4210  156.3150 C   0  0  0  0  0  1  0  0  0  0  0  0
  159.6670  212.4070  154.8310 C   0  0  0  0  0  0  0  0  0  0  0  0
  161.3270  205.8320  149.7230 C   0  0  0  0  0  0  0  0  0  0  0  0
  161.2410  210.4430  152.1040 O   0  0  0  0  0  0  0  0  0  0  0  0
  161.1500  205.4260  151.3380 S   0  0  0  0  0  0  0  0  0  0  0  0
  161.3540  208.0690  151.7700 C   0  0  0  0  0  0  0  0  0  0  0  0
  161.4670  205.1780  147.4000 C   0  0  0  0  0  3  0  0  0  0  0  0
  159.0000  213.3860  154.0870 C   0  0  0  0  0  3  0  0  0  0  0  0
  161.4930  207.1910  149.3860 C   0  0  0  0  0  0  0  0  0  0  0  0
  161.1930  206.7820  152.3420 C   0  0  0  0  0  0  0  0  0  0  0  0
  161.5140  208.2440  150.3490 C   0  0  0  0  0  0  0  0  0  0  0  0
  161.7040  209.4100  149.9040 O   0  0  0  0  0  0  0  0  0  0  0  0
  161.6350  206.5150  147.0390 C   0  0  0  0  0  3  0  0  0  0  0  0
  160.5710  211.4770  152.7730 C   0  0  0  0  0  0  0  0  0  0  0  0
  161.1240  207.7450  154.5110 N   0  0  0  0  0  0  0  0  0  0  0  0
  160.0250  212.5300  150.5540 C   0  0  0  0  0  1  0  0  0  0  0  0
  160.4790  211.4670  154.1720 C   0  0  0  0  0  0  0  0  0  0  0  0
  160.8980  205.5170  154.2560 O   0  0  0  0  0  0  0  0  0  0  0  0
  159.9270  212.4850  152.0400 C   0  0  0  0  0  0  0  0  0  0  0  0
  1  4  1  0  0  0  0
  3 16  1  0  0  0  0
  4 22  2  0  0  0  0
  4  2  1  0  0  0  0
  5 10  1  0  0  0  0
  6 15  1  0  0  0  0
  7 25  2  0  0  0  0
  7 22  1  0  0  0  0
  9  8  1  0  0  0  0
 10 12  1  0  0  0  0
 11  1  1  0  0  0  0
 11 21  1  0  0  0  0
 12 17  1  0  0  0  0
 13 17  2  0  0  0  0
 13  1  1  0  0  0  0
 14  5  2  0  0  0  0
 15  9  2  0  0  0  0
 16 10  2  0  0  0  0
 16 18  1  0  0  0  0
 17  7  1  0  0  0  0
 18 13  1  0  0  0  0
 19 18  2  0  0  0  0
 20 14  1  0  0  0  0
 20  3  2  0  0  0  0
 21 24  2  0  0  0  0
 23 26  1  0  0  0  0
 24  9  1  0  0  0  0
 24  2  1  0  0  0  0
 26  6  2  0  0  0  0
 26 21  1  0  0  0  0
M  END
>  <MODEL>
4

>  <REMARK>
 VINA RESULT:      -8.1      2.902      8.194
  Name = 
  0 active torsions:
  status: ('A' for Active; 'I' for Inactive)
                            x       y       z     vdW  Elec       q    Type
                         _______ _______ _______ _____ _____    ______ ____

>  <TORSDO>
F 0

$$$$
=
 OpenBabel11072414223D

 26 30  0  0  0  0  0  0  0  0999 V2000
  160.9350  208.5640  151.5570 N   0  0  0  0  0  0  0  0  0  0  0  0
  160.3640  210.7820  153.0800 S   0  0  0  0  0  0  0  0  0  0  0  0
  161.1230  204.3750  149.0300 C   0  0  0  0  0  3  0  0  0  0  0  0
  161.0710  209.9230  151.6780 C   0  0  0  0  0  0  0  0  0  0  0  0
  162.3490  205.5340  146.8090 C   0  0  0  0  0  3  0  0  0  0  0  0
  161.5700  207.6980  156.2410 C   0  0  0  0  0  3  0  0  0  0  0  0
  162.0550  210.0750  149.5440 C   0  0  0  0  0  0  0  0  0  0  0  0
  161.5930  211.4570  155.8860 C   0  0  0  0  0  1  0  0  0  0  0  0
  161.4480  210.0150  155.5390 C   0  0  0  0  0  0  0  0  0  0  0  0
  162.0160  206.3180  147.9180 C   0  0  0  0  0  0  0  0  0  0  0  0
  160.5840  207.8190  152.6750 O   0  0  0  0  0  0  0  0  0  0  0  0
  162.3440  207.9590  147.9160 S   0  0  0  0  0  0  0  0  0  0  0  0
  161.2700  207.9260  150.3770 C   0  0  0  0  0  0  0  0  0  0  0  0
  162.0670  204.1680  146.8130 C   0  0  0  0  0  3  0  0  0  0  0  0
  161.7350  209.0570  156.5170 C   0  0  0  0  0  3  0  0  0  0  0  0
  161.3980  205.7560  149.0540 C   0  0  0  0  0  0  0  0  0  0  0  0
  161.8630  208.7050  149.3520 C   0  0  0  0  0  0  0  0  0  0  0  0
  161.0390  206.5140  150.2090 C   0  0  0  0  0  0  0  0  0  0  0  0
  160.4600  205.8840  151.1380 O   0  0  0  0  0  0  0  0  0  0  0  0
  161.4540  203.5880  147.9240 C   0  0  0  0  0  3  0  0  0  0  0  0
  160.8780  208.2360  153.9810 C   0  0  0  0  0  0  0  0  0  0  0  0
  161.6380  210.6540  150.6900 N   0  0  0  0  0  0  0  0  0  0  0  0
  161.0040  205.8280  154.6990 C   0  0  0  0  0  1  0  0  0  0  0  0
  160.9900  209.6030  154.2750 C   0  0  0  0  0  0  0  0  0  0  0  0
  162.5960  210.7840  148.6540 O   0  0  0  0  0  0  0  0  0  0  0  0
  161.1340  207.2850  154.9790 C   0  0  0  0  0  0  0  0  0  0  0  0
  1  4  1  0  0  0  0
  1 11  1  0  0  0  0
  2 24  1  0  0  0  0
  3 16  1  0  0  0  0
  4  2  1  0  0  0  0
  5 14  2  0  0  0  0
  5 10  1  0  0  0  0
  6 15  1  0  0  0  0
  7 22  1  0  0  0  0
  9  8  1  0  0  0  0
  9 15  2  0  0  0  0
 10 16  2  0  0  0  0
 11 21  1  0  0  0  0
 12 10  1  0  0  0  0
 12 17  1  0  0  0  0
 13  1  1  0  0  0  0
 14 20  1  0  0  0  0
 16 18  1  0  0  0  0
 17  7  1  0  0  0  0
 17 13  2  0  0  0  0
 18 13  1  0  0  0  0
 18 19  2  0  0  0  0
 20  3  2  0  0  0  0
 21 24  2  0  0  0  0
 21 26  1  0  0  0  0
 22  4  2  0  0  0  0
 23 26  1  0  0  0  0
 24  9  1  0  0  0  0
 25  7  2  0  0  0  0
 26  6  2  0  0  0  0
M  END
>  <MODEL>
5

>  <REMARK>
 VINA RESULT:      -8.1      1.862      6.987
  Name = 
  0 active torsions:
  status: ('A' for Active; 'I' for Inactive)
                            x       y       z     vdW  Elec       q    Type
                         _______ _______ _______ _____ _____    ______ ____

>  <TORSDO>
F 0

$$$$
=
 OpenBabel11072414223D

 26 30  0  0  0  0  0  0  0  0999 V2000
  161.7740  208.3360  151.3780 N   0  0  0  0  0  0  0  0  0  0  0  0
  162.8380  207.8310  148.8910 S   0  0  0  0  0  0  0  0  0  0  0  0
  160.6160  208.8500  156.1070 C   0  0  0  0  0  3  0  0  0  0  0  0
  161.9820  208.8210  150.1130 C   0  0  0  0  0  0  0  0  0  0  0  0
  159.7960  211.5010  155.8260 C   0  0  0  0  0  3  0  0  0  0  0  0
  160.7890  203.8670  149.9120 C   0  0  0  0  0  3  0  0  0  0  0  0
  161.1390  210.9350  150.7210 C   0  0  0  0  0  0  0  0  0  0  0  0
  161.7290  205.7790  146.7950 C   0  0  0  0  0  1  0  0  0  0  0  0
  161.5150  205.4580  148.2350 C   0  0  0  0  0  0  0  0  0  0  0  0
  160.2800  210.7940  154.7210 C   0  0  0  0  0  0  0  0  0  0  0  0
  161.8890  206.9700  151.6030 O   0  0  0  0  0  0  0  0  0  0  0  0
  160.3780  211.5360  153.2240 S   0  0  0  0  0  0  0  0  0  0  0  0
  161.3270  209.1690  152.3860 C   0  0  0  0  0  0  0  0  0  0  0  0
  159.7230  210.8800  157.0720 C   0  0  0  0  0  3  0  0  0  0  0  0
  160.9640  204.2190  148.5720 C   0  0  0  0  0  3  0  0  0  0  0  0
  160.6990  209.4520  154.8350 C   0  0  0  0  0  0  0  0  0  0  0  0
  160.9840  210.4990  152.0390 C   0  0  0  0  0  0  0  0  0  0  0  0
  161.2000  208.6890  153.7390 C   0  0  0  0  0  0  0  0  0  0  0  0
  161.5690  207.5090  153.9960 O   0  0  0  0  0  0  0  0  0  0  0  0
  160.1320  209.5540  157.2130 C   0  0  0  0  0  3  0  0  0  0  0  0
  161.6680  206.0200  150.5970 C   0  0  0  0  0  0  0  0  0  0  0  0
  161.6510  210.0950  149.7960 N   0  0  0  0  0  0  0  0  0  0  0  0
  160.9140  204.3750  152.3450 C   0  0  0  0  0  1  0  0  0  0  0  0
  161.8960  206.3500  149.2530 C   0  0  0  0  0  0  0  0  0  0  0  0
  160.8240  212.1080  150.3850 O   0  0  0  0  0  0  0  0  0  0  0  0
  161.1470  204.7590  150.9250 C   0  0  0  0  0  0  0  0  0  0  0  0
  1 11  1  0  0  0  0
  1 13  1  0  0  0  0
  2 24  1  0  0  0  0
  2  4  1  0  0  0  0
  3 20  1  0  0  0  0
  4  1  1  0  0  0  0
  5 14  1  0  0  0  0
  6 26  1  0  0  0  0
  7 17  1  0  0  0  0
  8  9  1  0  0  0  0
  9 15  1  0  0  0  0
  9 24  2  0  0  0  0
 10 16  1  0  0  0  0
 10  5  2  0  0  0  0
 12 10  1  0  0  0  0
 13 18  1  0  0  0  0
 14 20  2  0  0  0  0
 15  6  2  0  0  0  0
 16  3  2  0  0  0  0
 17 13  2  0  0  0  0
 17 12  1  0  0  0  0
 18 19  2  0  0  0  0
 18 16  1  0  0  0  0
 21 26  2  0  0  0  0
 21 11  1  0  0  0  0
 22  4  2  0  0  0  0
 22  7  1  0  0  0  0
 24 21  1  0  0  0  0
 25  7  2  0  0  0  0
 26 23  1  0  0  0  0
M  END
>  <MODEL>
6

>  <REMARK>
 VINA RESULT:      -7.7      2.083      2.917
  Name = 
  0 active torsions:
  status: ('A' for Active; 'I' for Inactive)
                            x       y       z     vdW  Elec       q    Type
                         _______ _______ _______ _____ _____    ______ ____

>  <TORSDO>
F 0

$$$$
=
 OpenBabel11072414223D

 26 30  0  0  0  0  0  0  0  0999 V2000
  161.7910  208.1790  150.6980 N   0  0  0  0  0  0  0  0  0  0  0  0
  161.8720  209.4820  153.1190 S   0  0  0  0  0  0  0  0  0  0  0  0
  162.4500  206.2030  146.2670 C   0  0  0  0  0  3  0  0  0  0  0  0
  161.5060  208.1040  152.0370 C   0  0  0  0  0  0  0  0  0  0  0  0
  161.5240  203.6850  147.0300 C   0  0  0  0  0  3  0  0  0  0  0  0
  160.4360  212.7690  150.2760 C   0  0  0  0  0  3  0  0  0  0  0  0
  160.8990  205.8370  151.8430 C   0  0  0  0  0  0  0  0  0  0  0  0
  160.1150  211.9450  153.9460 C   0  0  0  0  0  1  0  0  0  0  0  0
  160.4550  211.8110  152.5010 C   0  0  0  0  0  0  0  0  0  0  0  0
  161.5820  204.7250  147.9620 C   0  0  0  0  0  0  0  0  0  0  0  0
  162.0120  209.4240  150.1240 O   0  0  0  0  0  0  0  0  0  0  0  0
  161.1030  204.4640  149.5450 S   0  0  0  0  0  0  0  0  0  0  0  0
  161.7300  207.0500  149.9030 C   0  0  0  0  0  0  0  0  0  0  0  0
  161.9310  203.9060  145.7150 C   0  0  0  0  0  3  0  0  0  0  0  0
  160.0960  212.8410  151.6280 C   0  0  0  0  0  3  0  0  0  0  0  0
  162.0440  206.0080  147.6020 C   0  0  0  0  0  0  0  0  0  0  0  0
  161.2520  205.8530  150.4920 C   0  0  0  0  0  0  0  0  0  0  0  0
  162.1210  207.1010  148.5170 C   0  0  0  0  0  0  0  0  0  0  0  0
  162.5870  208.1830  148.0620 O   0  0  0  0  0  0  0  0  0  0  0  0
  162.3930  205.1660  145.3320 C   0  0  0  0  0  3  0  0  0  0  0  0
  161.4570  210.6010  150.6430 C   0  0  0  0  0  0  0  0  0  0  0  0
  161.0530  206.9530  152.5870 N   0  0  0  0  0  0  0  0  0  0  0  0
  161.4400  211.5880  148.3290 C   0  0  0  0  0  1  0  0  0  0  0  0
  161.1650  210.7000  152.0110 C   0  0  0  0  0  0  0  0  0  0  0  0
  160.4560  204.7890  152.3840 O   0  0  0  0  0  0  0  0  0  0  0  0
  161.1230  211.6580  149.7820 C   0  0  0  0  0  0  0  0  0  0  0  0
  1  4  1  0  0  0  0
  3 16  1  0  0  0  0
  4 22  2  0  0  0  0
  4  2  1  0  0  0  0
  5 10  1  0  0  0  0
  6 15  1  0  0  0  0
  7 25  2  0  0  0  0
  7 22  1  0  0  0  0
  9  8  1  0  0  0  0
 10 12  1  0  0  0  0
 11 21  1  0  0  0  0
 11  1  1  0  0  0  0
 12 17  1  0  0  0  0
 13 17  2  0  0  0  0
 13  1  1  0  0  0  0
 14  5  2  0  0  0  0
 15  9  2  0  0  0  0
 16 10  2  0  0  0  0
 16 18  1  0  0  0  0
 17  7  1  0  0  0  0
 18 13  1  0  0  0  0
 19 18  2  0  0  0  0
 20 14  1  0  0  0  0
 20  3  2  0  0  0  0
 21 24  2  0  0  0  0
 23 26  1  0  0  0  0
 24  9  1  0  0  0  0
 24  2  1  0  0  0  0
 26  6  2  0  0  0  0
 26 21  1  0  0  0  0
M  END
>  <MODEL>
7

>  <REMARK>
 VINA RESULT:      -7.6      2.309      7.698
  Name = 
  0 active torsions:
  status: ('A' for Active; 'I' for Inactive)
                            x       y       z     vdW  Elec       q    Type
                         _______ _______ _______ _____ _____    ______ ____

>  <TORSDO>
F 0

$$$$
=
 OpenBabel11072414223D

 26 30  0  0  0  0  0  0  0  0999 V2000
  160.6750  210.2080  154.3740 N   0  0  0  0  0  0  0  0  0  0  0  0
  160.6770  211.9070  156.5370 S   0  0  0  0  0  0  0  0  0  0  0  0
  161.3330  207.6850  150.2300 C   0  0  0  0  0  3  0  0  0  0  0  0
  160.5740  210.3090  155.7380 C   0  0  0  0  0  0  0  0  0  0  0  0
  161.2080  205.1980  151.4860 C   0  0  0  0  0  3  0  0  0  0  0  0
  158.1020  214.1720  153.5050 C   0  0  0  0  0  3  0  0  0  0  0  0
  160.5780  207.9660  155.9720 C   0  0  0  0  0  0  0  0  0  0  0  0
  158.4300  213.9720  157.2610 C   0  0  0  0  0  1  0  0  0  0  0  0
  158.6280  213.6660  155.8160 C   0  0  0  0  0  0  0  0  0  0  0  0
  161.0890  206.3720  152.2360 C   0  0  0  0  0  0  0  0  0  0  0  0
  160.4880  211.3440  153.5980 O   0  0  0  0  0  0  0  0  0  0  0  0
  160.8810  206.2920  153.8950 S   0  0  0  0  0  0  0  0  0  0  0  0
  160.8280  208.9740  153.7710 C   0  0  0  0  0  0  0  0  0  0  0  0
  161.3880  205.2710  150.1050 C   0  0  0  0  0  3  0  0  0  0  0  0
  157.9100  214.4020  154.8690 C   0  0  0  0  0  3  0  0  0  0  0  0
  161.1470  207.6420  151.6260 C   0  0  0  0  0  0  0  0  0  0  0  0
  160.7580  207.8230  154.5950 C   0  0  0  0  0  0  0  0  0  0  0  0
  161.0330  208.8670  152.3480 C   0  0  0  0  0  0  0  0  0  0  0  0
  161.1370  209.9300  151.6740 O   0  0  0  0  0  0  0  0  0  0  0  0
  161.4510  206.5140  149.4760 C   0  0  0  0  0  3  0  0  0  0  0  0
  159.7000  212.4230  154.0200 C   0  0  0  0  0  0  0  0  0  0  0  0
  160.5100  209.2010  156.5130 N   0  0  0  0  0  0  0  0  0  0  0  0
  159.1580  212.9400  151.6180 C   0  0  0  0  0  1  0  0  0  0  0  0
  159.5490  212.6930  155.3880 C   0  0  0  0  0  0  0  0  0  0  0  0
  160.4950  206.9570  156.7230 O   0  0  0  0  0  0  0  0  0  0  0  0
  159.0010  213.1920  153.0770 C   0  0  0  0  0  0  0  0  0  0  0  0
  1  4  1  0  0  0  0
  3 16  1  0  0  0  0
  4 22  2  0  0  0  0
  4  2  1  0  0  0  0
  5 10  1  0  0  0  0
  6 15  1  0  0  0  0
  7 22  1  0  0  0  0
  7 25  2  0  0  0  0
  9  8  1  0  0  0  0
 10 12  1  0  0  0  0
 11 21  1  0  0  0  0
 11  1  1  0  0  0  0
 12 17  1  0  0  0  0
 13  1  1  0  0  0  0
 13 17  2  0  0  0  0
 14  5  2  0  0  0  0
 15  9  2  0  0  0  0
 16 10  2  0  0  0  0
 16 18  1  0  0  0  0
 17  7  1  0  0  0  0
 18 13  1  0  0  0  0
 19 18  2  0  0  0  0
 20 14  1  0  0  0  0
 20  3  2  0  0  0  0
 21 24  2  0  0  0  0
 23 26  1  0  0  0  0
 24  9  1  0  0  0  0
 24  2  1  0  0  0  0
 26  6  2  0  0  0  0
 26 21  1  0  0  0  0
M  END
>  <MODEL>
8

>  <REMARK>
 VINA RESULT:      -7.6      3.965      9.009
  Name = 
  0 active torsions:
  status: ('A' for Active; 'I' for Inactive)
                            x       y       z     vdW  Elec       q    Type
                         _______ _______ _______ _____ _____    ______ ____

>  <TORSDO>
F 0

$$$$
=
 OpenBabel11072414223D

 26 30  0  0  0  0  0  0  0  0999 V2000
  160.0450  210.8560  153.3230 N   0  0  0  0  0  0  0  0  0  0  0  0
  162.1900  210.1460  151.7540 S   0  0  0  0  0  0  0  0  0  0  0  0
  156.8190  212.1640  156.7650 C   0  0  0  0  0  3  0  0  0  0  0  0
  160.6630  211.0090  152.1090 C   0  0  0  0  0  0  0  0  0  0  0  0
  155.5710  214.0720  155.1580 C   0  0  0  0  0  3  0  0  0  0  0  0
  160.9730  206.1510  153.6300 C   0  0  0  0  0  3  0  0  0  0  0  0
  159.1360  212.6870  151.4760 C   0  0  0  0  0  0  0  0  0  0  0  0
  162.6850  207.3240  150.4760 C   0  0  0  0  0  1  0  0  0  0  0  0
  161.9420  207.3620  151.7680 C   0  0  0  0  0  0  0  0  0  0  0  0
  156.6560  213.3390  154.6670 C   0  0  0  0  0  0  0  0  0  0  0  0
  160.3870  209.7730  154.1210 O   0  0  0  0  0  0  0  0  0  0  0  0
  157.2180  213.6080  153.1130 S   0  0  0  0  0  0  0  0  0  0  0  0
  159.0030  211.6860  153.6910 C   0  0  0  0  0  0  0  0  0  0  0  0
  155.1110  213.8480  156.4560 C   0  0  0  0  0  3  0  0  0  0  0  0
  161.6300  206.1540  152.3980 C   0  0  0  0  0  3  0  0  0  0  0  0
  157.3030  212.3670  155.4580 C   0  0  0  0  0  0  0  0  0  0  0  0
  158.5270  212.6130  152.7300 C   0  0  0  0  0  0  0  0  0  0  0  0
  158.4130  211.5950  155.0030 C   0  0  0  0  0  0  0  0  0  0  0  0
  158.9140  210.7850  155.8320 O   0  0  0  0  0  0  0  0  0  0  0  0
  155.7350  212.8940  157.2600 C   0  0  0  0  0  3  0  0  0  0  0  0
  160.8830  208.5740  153.5920 C   0  0  0  0  0  0  0  0  0  0  0  0
  160.1980  211.9000  151.2020 N   0  0  0  0  0  0  0  0  0  0  0  0
  159.8720  207.3260  155.5290 C   0  0  0  0  0  1  0  0  0  0  0  0
  161.5930  208.5770  152.3820 C   0  0  0  0  0  0  0  0  0  0  0  0
  158.7190  213.4910  150.6000 O   0  0  0  0  0  0  0  0  0  0  0  0
  160.6070  207.3570  154.2340 C   0  0  0  0  0  0  0  0  0  0  0  0
  1 13  1  0  0  0  0
  1 11  1  0  0  0  0
  2  4  1  0  0  0  0
  2 24  1  0  0  0  0
  3 20  1  0  0  0  0
  4  1  1  0  0  0  0
  5 14  1  0  0  0  0
  6 26  1  0  0  0  0
  7 17  1  0  0  0  0
  8  9  1  0  0  0  0
  9 24  2  0  0  0  0
  9 15  1  0  0  0  0
 10  5  2  0  0  0  0
 10 16  1  0  0  0  0
 12 10  1  0  0  0  0
 13 18  1  0  0  0  0
 14 20  2  0  0  0  0
 15  6  2  0  0  0  0
 16  3  2  0  0  0  0
 17 12  1  0  0  0  0
 17 13  2  0  0  0  0
 18 16  1  0  0  0  0
 18 19  2  0  0  0  0
 21 11  1  0  0  0  0
 21 26  2  0  0  0  0
 22  7  1  0  0  0  0
 22  4  2  0  0  0  0
 24 21  1  0  0  0  0
 25  7  2  0  0  0  0
 26 23  1  0  0  0  0
M  END
>  <MODEL>
9

>  <REMARK>
 VINA RESULT:      -6.8      4.419      6.662
  Name = 
  0 active torsions:
  status: ('A' for Active; 'I' for Inactive)
                            x       y       z     vdW  Elec       q    Type
                         _______ _______ _______ _____ _____    ______ ____

>  <TORSDO>
F 0

$$$$
