=
 OpenBabel11072413163D

 27 30  0  0  1  0  0  0  0  0999 V2000
  161.6180  204.8520  151.1380 C   0  0  1  0  0  3  0  0  0  0  0  0
  160.5910  203.5050  152.8130 O   0  0  0  0  0  1  0  0  0  0  0  0
  161.0570  203.5630  151.6460 C   0  0  0  0  0  0  0  0  0  0  0  0
  161.0170  202.4370  150.8320 O   0  0  0  0  0  0  0  0  0  0  0  0
  160.7320  205.4520  150.0490 C   0  0  0  0  0  2  0  0  0  0  0  0
  161.0180  204.3210  147.8200 C   0  0  1  0  0  3  0  0  0  0  0  0
  161.2400  206.8790  148.0520 C   0  0  2  0  0  3  0  0  0  0  0  0
  161.8380  205.9120  146.0540 C   0  0  0  0  0  2  0  0  0  0  0  0
  161.4530  205.4980  148.7080 C   0  0  1  0  0  3  0  0  0  0  0  0
  161.3000  204.5150  146.3260 C   0  0  1  0  0  3  0  0  0  0  0  0
  160.9860  206.8530  146.6600 O   0  0  0  0  0  0  0  0  0  0  0  0
  162.2590  203.7240  147.1870 C   0  0  0  0  0  2  0  0  0  0  0  0
  161.8970  209.0640  148.7590 O   0  0  0  0  0  1  0  0  0  0  0  0
  162.3930  207.8150  148.3860 C   0  0  0  0  0  2  0  0  0  0  0  0
  161.9070  205.8360  152.2740 C   0  0  0  0  0  2  0  0  0  0  0  0
  160.9010  206.9810  152.3270 C   0  0  0  0  0  2  0  0  0  0  0  0
  160.6540  206.9320  154.7160 N   0  0  0  0  0  0  0  0  0  0  0  0
  161.2760  210.7170  151.8900 C   0  0  0  0  0  3  0  0  0  0  0  0
  160.9380  207.6440  153.6680 C   0  0  0  0  0  0  0  0  0  0  0  0
  159.4870  210.9500  153.5380 C   0  0  0  0  0  2  0  0  0  0  0  0
  159.5990  209.6170  155.5440 C   0  0  0  0  0  3  0  0  0  0  0  0
  160.5410  207.4010  156.0700 C   0  0  0  0  0  3  0  0  0  0  0  0
  160.0420  211.3430  152.3920 C   0  0  0  0  0  3  0  0  0  0  0  0
  160.0750  208.5710  156.4070 N   0  0  0  0  0  0  0  0  0  0  0  0
  161.8530  209.7020  152.5380 C   0  0  0  0  0  3  0  0  0  0  0  0
  161.2740  209.1050  153.8010 C   0  0  0  0  0  0  0  0  0  0  0  0
  160.0870  209.8660  154.3300 C   0  0  0  0  0  0  0  0  0  0  0  0
  1  5  1  6  0  0  0
  1  3  1  0  0  0  0
  1 15  1  0  0  0  0
  3  2  1  0  0  0  0
  4  3  2  0  0  0  0
  6 12  1  1  0  0  0
  6  9  1  0  0  0  0
  7 14  1  6  0  0  0
  7  9  1  0  0  0  0
  8 11  1  0  0  0  0
  9  5  1  1  0  0  0
 10  8  1  1  0  0  0
 10 12  1  0  0  0  0
 10  6  1  0  0  0  0
 11  7  1  0  0  0  0
 14 13  1  0  0  0  0
 15 16  1  0  0  0  0
 16 19  1  0  0  0  0
 17 22  1  0  0  0  0
 18 23  2  0  0  0  0
 18 25  1  0  0  0  0
 19 26  1  0  0  0  0
 19 17  2  0  0  0  0
 20 27  1  0  0  0  0
 21 24  1  0  0  0  0
 22 24  2  0  0  0  0
 23 20  1  0  0  0  0
 25 26  2  0  0  0  0
 26 27  1  0  0  0  0
 27 21  2  0  0  0  0
M  END
>  <MODEL>
1

>  <REMARK>
 VINA RESULT:      -7.9      0.000      0.000
  Name = 
  7 active torsions:
  status: ('A' for Active; 'I' for Inactive)
    1  A    between atoms: C_3  and  C_20
    2  A    between atoms: C_7  and  C_18
    3  A    between atoms: C_12  and  C_24
    4  A    between atoms: C_13  and  C_16
    5  A    between atoms: C_16  and  C_24
    6  A    between atoms: C_18  and  C_27
    7  A    between atoms: C_24  and  C_27
                            x       y       z     vdW  Elec       q    Type
                         _______ _______ _______ _____ _____    ______ ____

>  <TORSDO>
F 7

$$$$
=
 OpenBabel11072413163D

 27 30  0  0  1  0  0  0  0  0999 V2000
  161.0570  207.1460  151.5090 C   0  0  1  0  0  3  0  0  0  0  0  0
  163.0450  205.9090  151.9460 O   0  0  0  0  0  0  0  0  0  0  0  0
  161.7980  205.9890  152.0970 C   0  0  0  0  0  0  0  0  0  0  0  0
  161.1290  205.0170  152.8320 O   0  0  0  0  0  1  0  0  0  0  0  0
  161.5050  208.4660  152.1330 C   0  0  0  0  0  2  0  0  0  0  0  0
  161.1860  208.0890  154.5990 C   0  0  1  0  0  3  0  0  0  0  0  0
  160.6020  210.3530  153.5130 C   0  0  2  0  0  3  0  0  0  0  0  0
  159.9730  209.9980  155.6960 C   0  0  0  0  0  2  0  0  0  0  0  0
  160.6630  208.8190  153.3510 C   0  0  1  0  0  3  0  0  0  0  0  0
  160.7400  208.7050  155.9300 C   0  0  1  0  0  3  0  0  0  0  0  0
  160.7250  210.8250  154.8430 O   0  0  0  0  0  0  0  0  0  0  0  0
  159.9960  207.5230  155.3480 C   0  0  0  0  0  2  0  0  0  0  0  0
  159.6610  212.1200  152.2100 O   0  0  0  0  0  1  0  0  0  0  0  0
  159.3570  210.9140  152.8420 C   0  0  0  0  0  2  0  0  0  0  0  0
  161.1360  207.1580  149.9810 C   0  0  0  0  0  2  0  0  0  0  0  0
  160.3970  205.9860  149.3460 C   0  0  0  0  0  2  0  0  0  0  0  0
  161.6140  205.9880  147.2750 N   0  0  0  0  0  0  0  0  0  0  0  0
  160.6690  202.2990  150.1400 C   0  0  0  0  0  3  0  0  0  0  0  0
  161.2640  205.3130  148.3290 C   0  0  0  0  0  0  0  0  0  0  0  0
  160.2270  201.8980  147.7700 C   0  0  0  0  0  3  0  0  0  0  0  0
  161.4270  203.2140  146.1440 C   0  0  0  0  0  3  0  0  0  0  0  0
  162.3570  205.4970  146.1470 C   0  0  0  0  0  3  0  0  0  0  0  0
  160.0160  201.5650  149.0430 C   0  0  0  0  0  3  0  0  0  0  0  0
  162.2560  204.2880  145.6690 N   0  0  0  0  0  0  0  0  0  0  0  0
  161.4540  203.3530  149.9000 C   0  0  0  0  0  3  0  0  0  0  0  0
  161.7030  203.8850  148.5060 C   0  0  0  0  0  0  0  0  0  0  0  0
  161.1120  203.0200  147.4240 C   0  0  2  0  0  3  0  0  0  0  0  0
  1 15  1  6  0  0  0
  1  3  1  0  0  0  0
  1  5  1  0  0  0  0
  2  3  2  0  0  0  0
  3  4  1  0  0  0  0
  6 12  1  6  0  0  0
  6 10  1  0  0  0  0
  7 14  1  1  0  0  0
  7 11  1  0  0  0  0
  8 10  1  0  0  0  0
  9  5  1  6  0  0  0
  9  7  1  0  0  0  0
  9  6  1  0  0  0  0
 10 12  1  6  0  0  0
 11  8  1  0  0  0  0
 13 14  1  0  0  0  0
 16 15  1  0  0  0  0
 17 19  1  0  0  0  0
 19 26  2  0  0  0  0
 19 16  1  0  0  0  0
 20 23  2  0  0  0  0
 22 17  2  0  0  0  0
 23 18  1  0  0  0  0
 24 21  2  0  0  0  0
 24 22  1  0  0  0  0
 25 18  2  0  0  0  0
 26 25  1  0  0  0  0
 27 21  1  1  0  0  0
 27 20  1  0  0  0  0
 27 26  1  0  0  0  0
M  END
>  <MODEL>
2

>  <REMARK>
 VINA RESULT:      -7.8      3.183      7.754
  Name = 
  7 active torsions:
  status: ('A' for Active; 'I' for Inactive)
    1  A    between atoms: C_3  and  C_20
    2  A    between atoms: C_7  and  C_18
    3  A    between atoms: C_12  and  C_24
    4  A    between atoms: C_13  and  C_16
    5  A    between atoms: C_16  and  C_24
    6  A    between atoms: C_18  and  C_27
    7  A    between atoms: C_24  and  C_27
                            x       y       z     vdW  Elec       q    Type
                         _______ _______ _______ _____ _____    ______ ____

>  <TORSDO>
F 7

$$$$
=
 OpenBabel11072413163D

 27 30  0  0  1  0  0  0  0  0999 V2000
  161.3660  208.5290  152.1620 C   0  0  1  0  0  3  0  0  0  0  0  0
  163.0100  210.2010  151.7440 O   0  0  0  0  0  1  0  0  0  0  0  0
  162.1910  209.3810  151.2530 C   0  0  0  0  0  0  0  0  0  0  0  0
  162.0840  209.2580  149.8730 O   0  0  0  0  0  0  0  0  0  0  0  0
  160.3000  209.3540  152.8790 C   0  0  0  0  0  2  0  0  0  0  0  0
  160.9440  207.9030  154.8310 C   0  0  1  0  0  3  0  0  0  0  0  0
  161.4250  210.4350  154.8410 C   0  0  2  0  0  3  0  0  0  0  0  0
  161.7490  209.2580  156.7880 C   0  0  0  0  0  2  0  0  0  0  0  0
  160.4800  209.3010  154.3900 C   0  0  1  0  0  3  0  0  0  0  0  0
  161.5950  207.8560  156.2170 C   0  0  1  0  0  3  0  0  0  0  0  0
  162.3730  210.0740  155.8290 O   0  0  0  0  0  0  0  0  0  0  0  0
  160.1350  207.5000  156.0480 C   0  0  0  0  0  2  0  0  0  0  0  0
  159.3200  211.2950  155.5720 O   0  0  0  0  0  1  0  0  0  0  0  0
  160.6290  211.6620  155.2610 C   0  0  0  0  0  2  0  0  0  0  0  0
  160.7830  207.3150  151.4340 C   0  0  0  0  0  2  0  0  0  0  0  0
  161.8410  206.2730  151.0920 C   0  0  0  0  0  2  0  0  0  0  0  0
  161.1540  203.9820  151.3100 N   0  0  0  0  0  0  0  0  0  0  0  0
  161.1380  206.7090  147.4030 C   0  0  0  0  0  3  0  0  0  0  0  0
  161.1970  205.0350  150.5520 C   0  0  0  0  0  0  0  0  0  0  0  0
  162.1020  204.4840  147.0980 C   0  0  0  0  0  2  0  0  0  0  0  0
  161.4160  202.7250  148.5980 C   0  0  0  0  0  3  0  0  0  0  0  0
  160.6690  202.6780  150.9460 C   0  0  0  0  0  3  0  0  0  0  0  0
  161.9820  205.7430  146.6790 C   0  0  0  0  0  3  0  0  0  0  0  0
  160.7980  202.1500  149.7610 N   0  0  0  0  0  0  0  0  0  0  0  0
  160.5060  206.3710  148.5300 C   0  0  0  0  0  3  0  0  0  0  0  0
  160.6330  205.0000  149.1580 C   0  0  0  0  0  0  0  0  0  0  0  0
  161.4030  204.0250  148.3080 C   0  0  0  0  0  0  0  0  0  0  0  0
  1 15  1  6  0  0  0
  1  5  1  0  0  0  0
  3  2  1  0  0  0  0
  3  1  1  0  0  0  0
  4  3  2  0  0  0  0
  6 12  1  1  0  0  0
  6 10  1  0  0  0  0
  7 14  1  1  0  0  0
  7 11  1  0  0  0  0
  9  5  1  6  0  0  0
  9  6  1  0  0  0  0
  9  7  1  0  0  0  0
 10 12  1  1  0  0  0
 10  8  1  0  0  0  0
 11  8  1  0  0  0  0
 14 13  1  0  0  0  0
 16 15  1  0  0  0  0
 18 25  1  0  0  0  0
 19 16  1  0  0  0  0
 19 17  2  0  0  0  0
 20 27  1  0  0  0  0
 21 24  1  0  0  0  0
 22 17  1  0  0  0  0
 23 20  1  0  0  0  0
 23 18  2  0  0  0  0
 24 22  2  0  0  0  0
 25 26  2  0  0  0  0
 26 19  1  0  0  0  0
 27 21  2  0  0  0  0
 27 26  1  0  0  0  0
M  END
>  <MODEL>
3

>  <REMARK>
 VINA RESULT:      -7.7      2.873      7.469
  Name = 
  7 active torsions:
  status: ('A' for Active; 'I' for Inactive)
    1  A    between atoms: C_3  and  C_20
    2  A    between atoms: C_7  and  C_18
    3  A    between atoms: C_12  and  C_24
    4  A    between atoms: C_13  and  C_16
    5  A    between atoms: C_16  and  C_24
    6  A    between atoms: C_18  and  C_27
    7  A    between atoms: C_24  and  C_27
                            x       y       z     vdW  Elec       q    Type
                         _______ _______ _______ _____ _____    ______ ____

>  <TORSDO>
F 7

$$$$
=
 OpenBabel11072413163D

 27 30  0  0  1  0  0  0  0  0999 V2000
  161.1910  204.7700  151.2370 C   0  0  1  0  0  3  0  0  0  0  0  0
  161.9720  202.6460  151.9790 O   0  0  0  0  0  1  0  0  0  0  0  0
  161.2030  203.2760  151.2080 C   0  0  0  0  0  0  0  0  0  0  0  0
  160.3540  202.5750  150.3600 O   0  0  0  0  0  0  0  0  0  0  0  0
  160.4440  205.3410  150.0330 C   0  0  0  0  0  2  0  0  0  0  0  0
  160.9780  204.2410  147.8350 C   0  0  1  0  0  3  0  0  0  0  0  0
  161.2510  206.7850  148.1500 C   0  0  2  0  0  3  0  0  0  0  0  0
  162.0700  205.8330  146.2250 C   0  0  0  0  0  2  0  0  0  0  0  0
  161.3330  205.3860  148.7980 C   0  0  1  0  0  3  0  0  0  0  0  0
  161.4570  204.4500  146.3940 C   0  0  1  0  0  3  0  0  0  0  0  0
  161.1780  206.7920  146.7360 O   0  0  0  0  0  0  0  0  0  0  0  0
  162.2710  203.6120  147.3540 C   0  0  0  0  0  2  0  0  0  0  0  0
  161.9620  209.0040  148.6740 O   0  0  0  0  0  1  0  0  0  0  0  0
  162.3800  207.6740  148.6500 C   0  0  0  0  0  2  0  0  0  0  0  0
  160.6660  205.3120  152.5690 C   0  0  0  0  0  2  0  0  0  0  0  0
  161.6720  206.2180  153.2700 C   0  0  0  0  0  2  0  0  0  0  0  0
  161.4230  208.3390  152.1700 N   0  0  0  0  0  0  0  0  0  0  0  0
  160.5210  207.2490  156.7200 C   0  0  0  0  0  3  0  0  0  0  0  0
  161.2020  207.6380  153.2410 C   0  0  0  0  0  0  0  0  0  0  0  0
  161.8220  209.2910  156.3930 C   0  0  0  0  0  3  0  0  0  0  0  0
  161.6160  210.4540  154.2900 C   0  0  0  0  0  3  0  0  0  0  0  0
  161.1390  209.7350  151.9820 C   0  0  0  0  0  3  0  0  0  0  0  0
  161.4400  208.2970  157.1940 C   0  0  0  0  0  3  0  0  0  0  0  0
  161.2340  210.6380  152.9170 N   0  0  0  0  0  0  0  0  0  0  0  0
  160.0800  207.2290  155.4600 C   0  0  0  0  0  3  0  0  0  0  0  0
  160.5090  208.2490  154.4280 C   0  0  0  0  0  0  0  0  0  0  0  0
  161.3460  209.3620  155.0030 C   0  0  2  0  0  3  0  0  0  0  0  0
  1  5  1  6  0  0  0
  1 15  1  0  0  0  0
  3  1  1  0  0  0  0
  3  2  1  0  0  0  0
  4  3  2  0  0  0  0
  6 12  1  1  0  0  0
  6  9  1  0  0  0  0
  7 14  1  6  0  0  0
  7  9  1  0  0  0  0
  8 11  1  0  0  0  0
  9  5  1  1  0  0  0
 10  8  1  1  0  0  0
 10 12  1  0  0  0  0
 10  6  1  0  0  0  0
 11  7  1  0  0  0  0
 14 13  1  0  0  0  0
 15 16  1  0  0  0  0
 17 19  1  0  0  0  0
 18 23  1  0  0  0  0
 19 16  1  0  0  0  0
 19 26  2  0  0  0  0
 20 23  2  0  0  0  0
 22 17  2  0  0  0  0
 22 24  1  0  0  0  0
 24 21  2  0  0  0  0
 25 18  2  0  0  0  0
 26 27  1  0  0  0  0
 26 25  1  0  0  0  0
 27 21  1  1  0  0  0
 27 20  1  0  0  0  0
M  END
>  <MODEL>
4

>  <REMARK>
 VINA RESULT:      -7.7      1.406      2.534
  Name = 
  7 active torsions:
  status: ('A' for Active; 'I' for Inactive)
    1  A    between atoms: C_3  and  C_20
    2  A    between atoms: C_7  and  C_18
    3  A    between atoms: C_12  and  C_24
    4  A    between atoms: C_13  and  C_16
    5  A    between atoms: C_16  and  C_24
    6  A    between atoms: C_18  and  C_27
    7  A    between atoms: C_24  and  C_27
                            x       y       z     vdW  Elec       q    Type
                         _______ _______ _______ _____ _____    ______ ____

>  <TORSDO>
F 7

$$$$
=
 OpenBabel11072413163D

 27 30  0  0  1  0  0  0  0  0999 V2000
  162.3140  209.4300  151.3900 C   0  0  1  0  0  3  0  0  0  0  0  0
  161.5770  211.4080  150.2880 O   0  0  0  0  0  1  0  0  0  0  0  0
  161.9490  210.2120  150.1700 C   0  0  0  0  0  0  0  0  0  0  0  0
  162.0440  209.6420  148.9060 O   0  0  0  0  0  0  0  0  0  0  0  0
  162.2070  210.2850  152.6500 C   0  0  0  0  0  2  0  0  0  0  0  0
  161.4570  209.1710  154.7780 C   0  0  1  0  0  3  0  0  0  0  0  0
  160.1170  211.1210  153.7530 C   0  0  2  0  0  3  0  0  0  0  0  0
  159.1840  209.9600  155.5050 C   0  0  0  0  0  2  0  0  0  0  0  0
  161.0040  209.8840  153.4930 C   0  0  1  0  0  3  0  0  0  0  0  0
  160.4070  209.1430  155.8940 C   0  0  1  0  0  3  0  0  0  0  0  0
  159.6040  211.2290  155.0690 O   0  0  0  0  0  0  0  0  0  0  0  0
  160.5770  207.9530  154.9770 C   0  0  0  0  0  2  0  0  0  0  0  0
  158.9820  212.4900  152.1590 O   0  0  0  0  0  1  0  0  0  0  0  0
  159.0060  211.2120  152.7180 C   0  0  0  0  0  2  0  0  0  0  0  0
  161.5190  208.1250  151.4910 C   0  0  0  0  0  2  0  0  0  0  0  0
  162.3110  206.9170  151.0040 C   0  0  0  0  0  2  0  0  0  0  0  0
  161.4670  204.9480  152.0900 N   0  0  0  0  0  0  0  0  0  0  0  0
  160.9060  206.2850  147.5510 C   0  0  0  0  0  3  0  0  0  0  0  0
  161.4530  205.6910  151.0250 C   0  0  0  0  0  0  0  0  0  0  0  0
  161.5690  203.9530  147.8590 C   0  0  0  0  0  2  0  0  0  0  0  0
  161.0420  202.8820  149.9540 C   0  0  0  0  0  3  0  0  0  0  0  0
  160.7950  203.6890  152.2700 C   0  0  0  0  0  3  0  0  0  0  0  0
  161.4860  205.0220  147.0660 C   0  0  0  0  0  3  0  0  0  0  0  0
  160.6260  202.8040  151.3280 N   0  0  0  0  0  0  0  0  0  0  0  0
  160.4910  206.4200  148.8130 C   0  0  0  0  0  3  0  0  0  0  0  0
  160.6130  205.3120  149.8360 C   0  0  0  0  0  0  0  0  0  0  0  0
  161.0950  204.0110  149.2500 C   0  0  0  0  0  0  0  0  0  0  0  0
  1 15  1  1  0  0  0
  1  5  1  0  0  0  0
  3  2  1  0  0  0  0
  3  1  1  0  0  0  0
  4  3  2  0  0  0  0
  6 12  1  6  0  0  0
  6 10  1  0  0  0  0
  7 14  1  6  0  0  0
  7 11  1  0  0  0  0
  8 10  1  0  0  0  0
  9  5  1  1  0  0  0
  9  7  1  0  0  0  0
  9  6  1  0  0  0  0
 10 12  1  6  0  0  0
 11  8  1  0  0  0  0
 13 14  1  0  0  0  0
 16 19  1  0  0  0  0
 16 15  1  0  0  0  0
 17 22  1  0  0  0  0
 18 25  1  0  0  0  0
 19 17  2  0  0  0  0
 20 27  1  0  0  0  0
 21 24  1  0  0  0  0
 23 18  2  0  0  0  0
 23 20  1  0  0  0  0
 24 22  2  0  0  0  0
 25 26  2  0  0  0  0
 26 19  1  0  0  0  0
 27 26  1  0  0  0  0
 27 21  2  0  0  0  0
M  END
>  <MODEL>
5

>  <REMARK>
 VINA RESULT:      -7.7      2.711      7.145
  Name = 
  7 active torsions:
  status: ('A' for Active; 'I' for Inactive)
    1  A    between atoms: C_3  and  C_20
    2  A    between atoms: C_7  and  C_18
    3  A    between atoms: C_12  and  C_24
    4  A    between atoms: C_13  and  C_16
    5  A    between atoms: C_16  and  C_24
    6  A    between atoms: C_18  and  C_27
    7  A    between atoms: C_24  and  C_27
                            x       y       z     vdW  Elec       q    Type
                         _______ _______ _______ _____ _____    ______ ____

>  <TORSDO>
F 7

$$$$
=
 OpenBabel11072413163D

 27 30  0  0  1  0  0  0  0  0999 V2000
  161.1610  205.3120  147.1210 C   0  0  1  0  0  3  0  0  0  0  0  0
  160.4350  205.9080  144.9320 O   0  0  0  0  0  0  0  0  0  0  0  0
  161.4100  205.6890  145.6960 C   0  0  0  0  0  0  0  0  0  0  0  0
  162.7070  205.8270  145.2150 O   0  0  0  0  0  1  0  0  0  0  0  0
  161.8810  204.0160  147.4850 C   0  0  0  0  0  2  0  0  0  0  0  0
  161.2030  202.4510  145.6360 C   0  0  1  0  0  3  0  0  0  0  0  0
  161.4000  201.6270  148.0710 C   0  0  2  0  0  3  0  0  0  0  0  0
  160.4630  200.2160  146.5160 C   0  0  0  0  0  2  0  0  0  0  0  0
  161.0450  202.7950  147.1260 C   0  0  1  0  0  3  0  0  0  0  0  0
  160.8050  201.0170  145.2690 C   0  0  1  0  0  3  0  0  0  0  0  0
  161.5060  200.3590  147.4490 O   0  0  0  0  0  0  0  0  0  0  0  0
  159.8280  202.1540  145.0720 C   0  0  0  0  0  2  0  0  0  0  0  0
  161.1600  201.3910  150.4350 O   0  0  0  0  0  1  0  0  0  0  0  0
  160.4440  201.5840  149.2540 C   0  0  0  0  0  2  0  0  0  0  0  0
  161.4870  206.4590  148.0810 C   0  0  0  0  0  2  0  0  0  0  0  0
  160.4600  206.5980  149.1980 C   0  0  0  0  0  2  0  0  0  0  0  0
  160.8130  204.9720  150.9310 N   0  0  0  0  0  0  0  0  0  0  0  0
  161.9610  209.5960  150.9430 C   0  0  0  0  0  3  0  0  0  0  0  0
  161.0530  206.1750  150.5050 C   0  0  0  0  0  0  0  0  0  0  0  0
  160.8290  208.8150  152.9630 C   0  0  0  0  0  3  0  0  0  0  0  0
  160.9760  206.4740  153.5240 C   0  0  0  0  0  3  0  0  0  0  0  0
  161.2070  204.4110  152.1950 C   0  0  0  0  0  3  0  0  0  0  0  0
  161.1800  209.8270  152.1690 C   0  0  0  0  0  3  0  0  0  0  0  0
  161.2670  205.0830  153.3110 N   0  0  0  0  0  0  0  0  0  0  0  0
  162.3010  208.3630  150.5570 C   0  0  0  0  0  3  0  0  0  0  0  0
  161.8870  207.1250  151.3210 C   0  0  1  0  0  3  0  0  0  0  0  0
  161.2010  207.4320  152.6260 C   0  0  0  0  0  0  0  0  0  0  0  0
  1  5  1  1  0  0  0
  1 15  1  0  0  0  0
  2  3  2  0  0  0  0
  3  1  1  0  0  0  0
  4  3  1  0  0  0  0
  6 12  1  6  0  0  0
  6  9  1  0  0  0  0
  7 14  1  1  0  0  0
  8 11  1  0  0  0  0
  9  5  1  1  0  0  0
  9  7  1  0  0  0  0
 10 12  1  6  0  0  0
 10  6  1  0  0  0  0
 10  8  1  0  0  0  0
 11  7  1  0  0  0  0
 14 13  1  0  0  0  0
 15 16  1  0  0  0  0
 16 19  1  0  0  0  0
 17 22  1  0  0  0  0
 18 23  1  0  0  0  0
 19 17  2  0  0  0  0
 19 26  1  0  0  0  0
 22 24  2  0  0  0  0
 23 20  2  0  0  0  0
 24 21  1  0  0  0  0
 25 18  2  0  0  0  0
 26 25  1  6  0  0  0
 26 27  1  0  0  0  0
 27 20  1  0  0  0  0
 27 21  2  0  0  0  0
M  END
>  <MODEL>
6

>  <REMARK>
 VINA RESULT:      -7.5      2.210      4.704
  Name = 
  7 active torsions:
  status: ('A' for Active; 'I' for Inactive)
    1  A    between atoms: C_3  and  C_20
    2  A    between atoms: C_7  and  C_18
    3  A    between atoms: C_12  and  C_24
    4  A    between atoms: C_13  and  C_16
    5  A    between atoms: C_16  and  C_24
    6  A    between atoms: C_18  and  C_27
    7  A    between atoms: C_24  and  C_27
                            x       y       z     vdW  Elec       q    Type
                         _______ _______ _______ _____ _____    ______ ____

>  <TORSDO>
F 7

$$$$
=
 OpenBabel11072413163D

 27 30  0  0  1  0  0  0  0  0999 V2000
  161.5870  208.6200  152.1570 C   0  0  1  0  0  3  0  0  0  0  0  0
  161.8310  210.6030  150.8600 O   0  0  0  0  0  1  0  0  0  0  0  0
  161.9250  209.3490  150.8970 C   0  0  0  0  0  0  0  0  0  0  0  0
  162.3690  208.6590  149.7750 O   0  0  0  0  0  0  0  0  0  0  0  0
  160.7350  209.4830  153.0850 C   0  0  0  0  0  2  0  0  0  0  0  0
  161.7210  210.8500  154.9510 C   0  0  1  0  0  3  0  0  0  0  0  0
  160.1970  208.8300  155.4440 C   0  0  2  0  0  3  0  0  0  0  0  0
  161.3070  209.8110  157.2020 C   0  0  0  0  0  2  0  0  0  0  0  0
  161.2610  209.4500  154.5130 C   0  0  1  0  0  3  0  0  0  0  0  0
  161.8220  211.0400  156.4690 C   0  0  1  0  0  3  0  0  0  0  0  0
  160.0390  209.4750  156.6940 O   0  0  0  0  0  0  0  0  0  0  0  0
  163.0540  210.7090  155.6580 C   0  0  0  0  0  2  0  0  0  0  0  0
  159.7130  206.8630  156.7100 O   0  0  0  0  0  1  0  0  0  0  0  0
  160.4410  207.3380  155.6190 C   0  0  0  0  0  2  0  0  0  0  0  0
  160.9560  207.2540  151.8750 C   0  0  0  0  0  2  0  0  0  0  0  0
  161.9190  206.2950  151.1850 C   0  0  0  0  0  2  0  0  0  0  0  0
  161.1790  204.0570  151.6450 N   0  0  0  0  0  0  0  0  0  0  0  0
  161.0230  206.4270  147.5150 C   0  0  0  0  0  3  0  0  0  0  0  0
  161.2100  205.0370  150.7940 C   0  0  0  0  0  0  0  0  0  0  0  0
  161.9020  204.1530  147.3600 C   0  0  0  0  0  2  0  0  0  0  0  0
  161.2510  202.5570  149.0470 C   0  0  0  0  0  3  0  0  0  0  0  0
  160.6360  202.7440  151.4260 C   0  0  0  0  0  3  0  0  0  0  0  0
  161.7960  205.3740  146.8370 C   0  0  0  0  0  3  0  0  0  0  0  0
  160.6830  202.1090  150.2890 N   0  0  0  0  0  0  0  0  0  0  0  0
  160.4460  206.2120  148.7000 C   0  0  0  0  0  3  0  0  0  0  0  0
  160.5670  204.8990  149.4410 C   0  0  0  0  0  0  0  0  0  0  0  0
  161.2600  203.8260  148.6420 C   0  0  0  0  0  0  0  0  0  0  0  0
  1 15  1  6  0  0  0
  1  5  1  0  0  0  0
  2  3  1  0  0  0  0
  3  1  1  0  0  0  0
  4  3  2  0  0  0  0
  6 12  1  6  0  0  0
  6 10  1  0  0  0  0
  7 14  1  1  0  0  0
  7 11  1  0  0  0  0
  9  5  1  6  0  0  0
  9  6  1  0  0  0  0
  9  7  1  0  0  0  0
 10 12  1  6  0  0  0
 10  8  1  0  0  0  0
 11  8  1  0  0  0  0
 14 13  1  0  0  0  0
 16 15  1  0  0  0  0
 18 25  1  0  0  0  0
 19 16  1  0  0  0  0
 19 17  2  0  0  0  0
 20 27  1  0  0  0  0
 21 24  1  0  0  0  0
 22 17  1  0  0  0  0
 23 20  1  0  0  0  0
 23 18  2  0  0  0  0
 24 22  2  0  0  0  0
 25 26  2  0  0  0  0
 26 19  1  0  0  0  0
 27 21  2  0  0  0  0
 27 26  1  0  0  0  0
M  END
>  <MODEL>
7

>  <REMARK>
 VINA RESULT:      -7.3      2.677      7.723
  Name = 
  7 active torsions:
  status: ('A' for Active; 'I' for Inactive)
    1  A    between atoms: C_3  and  C_20
    2  A    between atoms: C_7  and  C_18
    3  A    between atoms: C_12  and  C_24
    4  A    between atoms: C_13  and  C_16
    5  A    between atoms: C_16  and  C_24
    6  A    between atoms: C_18  and  C_27
    7  A    between atoms: C_24  and  C_27
                            x       y       z     vdW  Elec       q    Type
                         _______ _______ _______ _____ _____    ______ ____

>  <TORSDO>
F 7

$$$$
=
 OpenBabel11072413163D

 27 30  0  0  1  0  0  0  0  0999 V2000
  160.8140  210.8150  152.8810 C   0  0  1  0  0  3  0  0  0  0  0  0
  159.5780  212.8460  153.0250 O   0  0  0  0  0  1  0  0  0  0  0  0
  160.2310  212.0580  152.2920 C   0  0  0  0  0  0  0  0  0  0  0  0
  160.4260  212.3680  150.9510 O   0  0  0  0  0  0  0  0  0  0  0  0
  159.7800  210.0560  153.7090 C   0  0  0  0  0  2  0  0  0  0  0  0
  160.7880  208.2560  155.1480 C   0  0  1  0  0  3  0  0  0  0  0  0
  161.4070  210.7350  155.4900 C   0  0  2  0  0  3  0  0  0  0  0  0
  162.1220  209.2090  157.0540 C   0  0  0  0  0  2  0  0  0  0  0  0
  160.3160  209.7180  155.0940 C   0  0  1  0  0  3  0  0  0  0  0  0
  161.7510  207.9410  156.2990 C   0  0  1  0  0  3  0  0  0  0  0  0
  162.5430  210.1820  156.1310 O   0  0  0  0  0  0  0  0  0  0  0  0
  160.2750  207.6430  156.4360 C   0  0  0  0  0  2  0  0  0  0  0  0
  159.5870  211.4770  156.8470 O   0  0  0  0  0  1  0  0  0  0  0  0
  160.8110  211.8720  156.3070 C   0  0  0  0  0  2  0  0  0  0  0  0
  161.4800  209.9370  151.8190 C   0  0  0  0  0  2  0  0  0  0  0  0
  160.7590  208.6090  151.6200 C   0  0  0  0  0  2  0  0  0  0  0  0
  161.5510  208.2690  149.3780 N   0  0  0  0  0  0  0  0  0  0  0  0
  161.4280  205.1420  152.9710 C   0  0  0  0  0  3  0  0  0  0  0  0
  161.4570  207.7890  150.5810 C   0  0  0  0  0  0  0  0  0  0  0  0
  160.5660  204.2980  150.8470 C   0  0  0  0  0  3  0  0  0  0  0  0
  161.3370  205.3300  148.8080 C   0  0  0  0  0  3  0  0  0  0  0  0
  162.0930  207.6020  148.2250 C   0  0  0  0  0  3  0  0  0  0  0  0
  160.6270  204.1990  152.1740 C   0  0  0  0  0  3  0  0  0  0  0  0
  161.9840  206.3230  147.9960 N   0  0  0  0  0  0  0  0  0  0  0  0
  162.0790  206.1580  152.3980 C   0  0  0  0  0  3  0  0  0  0  0  0
  162.0170  206.4330  150.9120 C   0  0  0  0  0  0  0  0  0  0  0  0
  161.2890  205.3650  150.1380 C   0  0  2  0  0  3  0  0  0  0  0  0
  1 15  1  6  0  0  0
  1  5  1  0  0  0  0
  3  1  1  0  0  0  0
  3  2  1  0  0  0  0
  4  3  2  0  0  0  0
  6 10  1  0  0  0  0
  6 12  1  1  0  0  0
  7 11  1  0  0  0  0
  7 14  1  1  0  0  0
  9  5  1  6  0  0  0
  9  6  1  0  0  0  0
  9  7  1  0  0  0  0
 10 12  1  1  0  0  0
 10  8  1  0  0  0  0
 11  8  1  0  0  0  0
 14 13  1  0  0  0  0
 16 15  1  0  0  0  0
 17 19  1  0  0  0  0
 19 26  2  0  0  0  0
 19 16  1  0  0  0  0
 20 23  2  0  0  0  0
 22 17  2  0  0  0  0
 23 18  1  0  0  0  0
 24 22  1  0  0  0  0
 24 21  2  0  0  0  0
 25 18  2  0  0  0  0
 26 25  1  0  0  0  0
 27 21  1  6  0  0  0
 27 20  1  0  0  0  0
 27 26  1  0  0  0  0
M  END
>  <MODEL>
8

>  <REMARK>
 VINA RESULT:      -7.3      3.539      7.746
  Name = 
  7 active torsions:
  status: ('A' for Active; 'I' for Inactive)
    1  A    between atoms: C_3  and  C_20
    2  A    between atoms: C_7  and  C_18
    3  A    between atoms: C_12  and  C_24
    4  A    between atoms: C_13  and  C_16
    5  A    between atoms: C_16  and  C_24
    6  A    between atoms: C_18  and  C_27
    7  A    between atoms: C_24  and  C_27
                            x       y       z     vdW  Elec       q    Type
                         _______ _______ _______ _____ _____    ______ ____

>  <TORSDO>
F 7

$$$$
=
 OpenBabel11072413163D

 27 30  0  0  1  0  0  0  0  0999 V2000
  161.2040  205.1940  146.4490 C   0  0  1  0  0  3  0  0  0  0  0  0
  161.6000  205.4250  144.1120 O   0  0  0  0  0  0  0  0  0  0  0  0
  162.0820  205.1490  145.2410 C   0  0  0  0  0  0  0  0  0  0  0  0
  163.4310  204.8320  145.3550 O   0  0  0  0  0  1  0  0  0  0  0  0
  161.6060  204.1300  147.4680 C   0  0  0  0  0  2  0  0  0  0  0  0
  161.1170  202.3620  145.7470 C   0  0  1  0  0  3  0  0  0  0  0  0
  161.3420  201.7620  148.2440 C   0  0  2  0  0  3  0  0  0  0  0  0
  160.5760  200.1450  146.8000 C   0  0  0  0  0  2  0  0  0  0  0  0
  160.8970  202.8090  147.2010 C   0  0  1  0  0  3  0  0  0  0  0  0
  160.8650  200.8710  145.4950 C   0  0  1  0  0  3  0  0  0  0  0  0
  161.5810  200.4630  147.7310 O   0  0  0  0  0  0  0  0  0  0  0  0
  159.7880  201.8890  145.1930 C   0  0  0  0  0  2  0  0  0  0  0  0
  161.0470  201.3630  150.5800 O   0  0  0  0  0  1  0  0  0  0  0  0
  160.3710  201.7230  149.4140 C   0  0  0  0  0  2  0  0  0  0  0  0
  161.1390  206.5980  147.0560 C   0  0  0  0  0  2  0  0  0  0  0  0
  162.2550  206.8540  148.0620 C   0  0  0  0  0  2  0  0  0  0  0  0
  162.1150  209.0610  148.9990 N   0  0  0  0  0  0  0  0  0  0  0  0
  160.8060  204.9280  150.9750 C   0  0  0  0  0  3  0  0  0  0  0  0
  161.7950  207.8080  149.1190 C   0  0  0  0  0  0  0  0  0  0  0  0
  162.1390  206.3790  152.4190 C   0  0  0  0  0  3  0  0  0  0  0  0
  162.1260  208.7510  151.9840 C   0  0  0  0  0  3  0  0  0  0  0  0
  161.8540  210.1110  149.9460 C   0  0  0  0  0  3  0  0  0  0  0  0
  161.6830  205.1600  152.1340 C   0  0  0  0  0  3  0  0  0  0  0  0
  161.8690  209.9540  151.2400 N   0  0  0  0  0  0  0  0  0  0  0  0
  160.4780  205.9190  150.1410 C   0  0  0  0  0  3  0  0  0  0  0  0
  161.0020  207.3290  150.3040 C   0  0  1  0  0  3  0  0  0  0  0  0
  161.7890  207.5300  151.5730 C   0  0  0  0  0  0  0  0  0  0  0  0
  1 15  1  1  0  0  0
  1  5  1  0  0  0  0
  2  3  2  0  0  0  0
  3  4  1  0  0  0  0
  3  1  1  0  0  0  0
  6 12  1  6  0  0  0
  6  9  1  0  0  0  0
  7 14  1  1  0  0  0
  8 11  1  0  0  0  0
  9  5  1  1  0  0  0
  9  7  1  0  0  0  0
 10 12  1  6  0  0  0
 10  6  1  0  0  0  0
 10  8  1  0  0  0  0
 11  7  1  0  0  0  0
 14 13  1  0  0  0  0
 15 16  1  0  0  0  0
 16 19  1  0  0  0  0
 17 19  2  0  0  0  0
 17 22  1  0  0  0  0
 18 23  1  0  0  0  0
 19 26  1  0  0  0  0
 22 24  2  0  0  0  0
 23 20  2  0  0  0  0
 24 21  1  0  0  0  0
 25 18  2  0  0  0  0
 26 25  1  6  0  0  0
 26 27  1  0  0  0  0
 27 21  2  0  0  0  0
 27 20  1  0  0  0  0
M  END
>  <MODEL>
9

>  <REMARK>
 VINA RESULT:      -7.3      2.765      5.507
  Name = 
  7 active torsions:
  status: ('A' for Active; 'I' for Inactive)
    1  A    between atoms: C_3  and  C_20
    2  A    between atoms: C_7  and  C_18
    3  A    between atoms: C_12  and  C_24
    4  A    between atoms: C_13  and  C_16
    5  A    between atoms: C_16  and  C_24
    6  A    between atoms: C_18  and  C_27
    7  A    between atoms: C_24  and  C_27
                            x       y       z     vdW  Elec       q    Type
                         _______ _______ _______ _____ _____    ______ ____

>  <TORSDO>
F 7

$$$$
