=
 OpenBabel11072414383D

 26 29  0  0  1  0  0  0  0  0999 V2000
  161.7650  208.3830  149.8590 C   0  0  0  0  0  0  0  0  0  0  0  0
  161.5410  208.0370  152.1070 N   0  0  0  0  0  0  0  0  0  0  0  0
  161.5410  207.3950  150.8580 N   0  0  0  0  0  0  0  0  0  0  0  0
  161.9070  209.6530  150.5440 C   0  0  0  0  0  0  0  0  0  0  0  0
  162.0960  210.8380  150.0480 N   0  0  0  0  0  0  0  0  0  0  0  0
  161.7640  209.3110  151.9610 C   0  0  0  0  0  0  0  0  0  0  0  0
  161.8320  208.1680  148.6200 O   0  0  0  0  0  0  0  0  0  0  0  0
  161.3290  205.9860  150.6820 C   0  0  0  0  0  0  0  0  0  0  0  0
  161.1760  203.7520  151.6300 C   0  0  0  0  0  3  0  0  0  0  0  0
  160.9210  203.2270  150.3600 C   0  0  0  0  0  3  0  0  0  0  0  0
  161.3800  205.1260  151.7890 C   0  0  0  0  0  3  0  0  0  0  0  0
  161.0710  205.4490  149.4110 C   0  0  0  0  0  3  0  0  0  0  0  0
  160.8680  204.0750  149.2510 C   0  0  0  0  0  3  0  0  0  0  0  0
  160.0870  210.4150  154.3040 N   0  0  0  0  0  2  0  0  0  0  0  0
  161.7460  210.2940  153.0950 C   0  0  1  0  0  3  0  0  0  0  0  0
  160.4980  211.0410  153.1100 N   0  0  0  0  0  2  0  0  0  0  0  0
  161.3050  209.6280  154.3610 C   0  0  0  0  0  2  0  0  0  0  0  0
  162.1890  211.1160  148.6200 C   0  0  0  0  0  2  0  0  0  0  0  0
  161.6030  212.8300  146.8870 C   0  0  2  0  0  3  0  0  0  0  0  0
  159.7540  213.9480  147.9730 C   0  0  0  0  0  2  0  0  0  0  0  0
  160.6190  213.2170  149.3940 S   0  0  0  0  0  0  0  0  0  0  0  0
  160.7450  214.0710  146.8410 C   0  0  0  0  0  2  0  0  0  0  0  0
  161.9700  212.5970  148.3430 C   0  0  1  0  0  3  0  0  0  0  0  0
  162.7580  213.0270  146.1280 O   0  0  0  0  0  0  0  0  0  0  0  0
  162.2990  213.4160  144.8680 C   0  0  0  0  0  2  0  0  0  0  0  0
  163.2100  213.0070  143.8950 O   0  0  0  0  0  1  0  0  0  0  0  0
  1  4  1  0  0  0  0
  1  3  1  0  0  0  0
  3  2  1  0  0  0  0
  4  6  1  0  0  0  0
  5  4  2  0  0  0  0
  6  2  2  0  0  0  0
  7  1  2  0  0  0  0
  8  3  1  0  0  0  0
  8 11  1  0  0  0  0
  9 11  2  0  0  0  0
 10  9  1  0  0  0  0
 12  8  2  0  0  0  0
 13 12  1  0  0  0  0
 13 10  2  0  0  0  0
 14 17  1  0  0  0  0
 15  6  1  6  0  0  0
 15 16  1  0  0  0  0
 15 17  1  0  0  0  0
 16 14  1  0  0  0  0
 18  5  1  0  0  0  0
 19 24  1  6  0  0  0
 19 23  1  0  0  0  0
 20 21  1  0  0  0  0
 22 19  1  0  0  0  0
 22 20  1  0  0  0  0
 23 18  1  6  0  0  0
 23 21  1  0  0  0  0
 25 24  1  0  0  0  0
 26 25  1  0  0  0  0
M  END
>  <MODEL>
1

>  <REMARK>
 VINA RESULT:      -7.6      0.000      0.000
  Name = 
  6 active torsions:
  status: ('A' for Active; 'I' for Inactive)
    1  A    between atoms: C_2  and  N_10
    2  A    between atoms: C_3  and  O_6
    3  A    between atoms: O_6  and  C_18
    4  A    between atoms: C_11  and  C_21
    5  A    between atoms: C_11  and  N_24
    6  A    between atoms: C_12  and  C_25
                            x       y       z     vdW  Elec       q    Type
                         _______ _______ _______ _____ _____    ______ ____

>  <TORSDO>
F 6

$$$$
=
 OpenBabel11072414383D

 26 29  0  0  1  0  0  0  0  0999 V2000
  161.4340  206.9700  149.3380 C   0  0  0  0  0  0  0  0  0  0  0  0
  161.6130  204.7000  149.5390 N   0  0  0  0  0  0  0  0  0  0  0  0
  161.4680  205.7460  148.6130 N   0  0  0  0  0  0  0  0  0  0  0  0
  161.5700  206.6340  150.7420 C   0  0  0  0  0  0  0  0  0  0  0  0
  161.5670  207.4160  151.7790 N   0  0  0  0  0  0  0  0  0  0  0  0
  161.6930  205.1750  150.7480 C   0  0  0  0  0  0  0  0  0  0  0  0
  161.3170  208.1180  148.8320 O   0  0  0  0  0  0  0  0  0  0  0  0
  161.3590  205.5510  147.1940 C   0  0  0  0  0  0  0  0  0  0  0  0
  162.0680  204.3980  145.1750 C   0  0  0  0  0  3  0  0  0  0  0  0
  161.1650  205.1540  144.4220 C   0  0  0  0  0  3  0  0  0  0  0  0
  162.1640  204.5970  146.5550 C   0  0  0  0  0  3  0  0  0  0  0  0
  160.4550  206.3050  146.4300 C   0  0  0  0  0  3  0  0  0  0  0  0
  160.3590  206.1070  145.0490 C   0  0  0  0  0  3  0  0  0  0  0  0
  160.3810  202.8250  152.2590 N   0  0  0  0  0  2  0  0  0  0  0  0
  161.7710  204.3140  151.9750 C   0  0  1  0  0  3  0  0  0  0  0  0
  160.4640  204.1900  152.6030 N   0  0  0  0  0  2  0  0  0  0  0  0
  161.6780  202.8660  151.6090 C   0  0  0  0  0  2  0  0  0  0  0  0
  161.3990  208.8620  151.7040 C   0  0  0  0  0  2  0  0  0  0  0  0
  161.2430  209.3040  154.1670 C   0  0  2  0  0  3  0  0  0  0  0  0
  160.5540  211.6230  154.1610 C   0  0  0  0  0  2  0  0  0  0  0  0
  160.0210  211.0830  152.5090 S   0  0  0  0  0  0  0  0  0  0  0  0
  160.6660  210.3970  155.0340 C   0  0  0  0  0  2  0  0  0  0  0  0
  160.5110  209.3610  152.8360 C   0  0  1  0  0  3  0  0  0  0  0  0
  161.0390  208.0640  154.7740 O   0  0  0  0  0  0  0  0  0  0  0  0
  160.0530  208.2920  155.7350 C   0  0  0  0  0  2  0  0  0  0  0  0
  159.7390  207.0920  156.3730 O   0  0  0  0  0  1  0  0  0  0  0  0
  1  4  1  0  0  0  0
  2  6  2  0  0  0  0
  3  1  1  0  0  0  0
  3  2  1  0  0  0  0
  4  6  1  0  0  0  0
  4  5  2  0  0  0  0
  7  1  2  0  0  0  0
  8  3  1  0  0  0  0
  9 11  2  0  0  0  0
 10 13  2  0  0  0  0
 10  9  1  0  0  0  0
 11  8  1  0  0  0  0
 12  8  2  0  0  0  0
 13 12  1  0  0  0  0
 14 16  1  0  0  0  0
 15  6  1  6  0  0  0
 15 16  1  0  0  0  0
 17 15  1  0  0  0  0
 17 14  1  0  0  0  0
 18  5  1  0  0  0  0
 19 24  1  1  0  0  0
 19 22  1  0  0  0  0
 20 22  1  0  0  0  0
 21 23  1  0  0  0  0
 21 20  1  0  0  0  0
 23 18  1  6  0  0  0
 23 19  1  0  0  0  0
 24 25  1  0  0  0  0
 25 26  1  0  0  0  0
M  END
>  <MODEL>
2

>  <REMARK>
 VINA RESULT:      -7.0      3.915      6.601
  Name = 
  6 active torsions:
  status: ('A' for Active; 'I' for Inactive)
    1  A    between atoms: C_2  and  N_10
    2  A    between atoms: C_3  and  O_6
    3  A    between atoms: O_6  and  C_18
    4  A    between atoms: C_11  and  C_21
    5  A    between atoms: C_11  and  N_24
    6  A    between atoms: C_12  and  C_25
                            x       y       z     vdW  Elec       q    Type
                         _______ _______ _______ _____ _____    ______ ____

>  <TORSDO>
F 6

$$$$
=
 OpenBabel11072414383D

 26 29  0  0  1  0  0  0  0  0999 V2000
  161.1470  206.1320  152.3380 C   0  0  0  0  0  0  0  0  0  0  0  0
  161.1950  208.3240  151.6900 N   0  0  0  0  0  0  0  0  0  0  0  0
  161.0580  207.4750  152.8000 N   0  0  0  0  0  0  0  0  0  0  0  0
  161.3500  206.1920  150.9020 C   0  0  0  0  0  0  0  0  0  0  0  0
  161.4600  205.2210  150.0470 N   0  0  0  0  0  0  0  0  0  0  0  0
  161.3810  207.6250  150.6070 C   0  0  0  0  0  0  0  0  0  0  0  0
  161.0710  205.1030  153.0590 O   0  0  0  0  0  0  0  0  0  0  0  0
  160.8480  207.9390  154.1430 C   0  0  0  0  0  0  0  0  0  0  0  0
  160.9470  209.7320  155.7820 C   0  0  0  0  0  3  0  0  0  0  0  0
  160.4500  208.8690  156.7610 C   0  0  0  0  0  3  0  0  0  0  0  0
  161.1460  209.2680  154.4780 C   0  0  0  0  0  3  0  0  0  0  0  0
  160.3480  207.0800  155.1330 C   0  0  0  0  0  3  0  0  0  0  0  0
  160.1490  207.5430  156.4370 C   0  0  0  0  0  3  0  0  0  0  0  0
  162.3600  207.1530  147.7180 N   0  0  0  0  0  2  0  0  0  0  0  0
  161.4820  208.2290  149.2360 C   0  0  1  0  0  3  0  0  0  0  0  0
  162.8220  208.0590  148.6950 N   0  0  0  0  0  2  0  0  0  0  0  0
  160.9950  207.2640  148.2000 C   0  0  0  0  0  2  0  0  0  0  0  0
  161.3790  203.8100  150.4050 C   0  0  0  0  0  2  0  0  0  0  0  0
  161.4960  203.0160  148.0300 C   0  0  2  0  0  3  0  0  0  0  0  0
  161.1940  200.6360  148.3400 C   0  0  0  0  0  2  0  0  0  0  0  0
  160.4490  201.2960  149.8610 S   0  0  0  0  0  0  0  0  0  0  0  0
  161.1760  201.7320  147.3020 C   0  0  0  0  0  2  0  0  0  0  0  0
  160.6780  203.0160  149.3100 C   0  0  1  0  0  3  0  0  0  0  0  0
  161.1430  204.1080  147.2350 O   0  0  0  0  0  0  0  0  0  0  0  0
  161.5070  203.7420  145.9380 C   0  0  0  0  0  2  0  0  0  0  0  0
  162.6080  204.4960  145.5340 O   0  0  0  0  0  1  0  0  0  0  0  0
  1  3  1  0  0  0  0
  1  7  2  0  0  0  0
  2  3  1  0  0  0  0
  3  8  1  0  0  0  0
  4  1  1  0  0  0  0
  5 18  1  0  0  0  0
  5  4  2  0  0  0  0
  6  4  1  0  0  0  0
  6  2  2  0  0  0  0
  8 11  2  0  0  0  0
  8 12  1  0  0  0  0
  9 10  2  0  0  0  0
 11  9  1  0  0  0  0
 12 13  2  0  0  0  0
 13 10  1  0  0  0  0
 14 17  1  0  0  0  0
 14 16  1  0  0  0  0
 15  6  1  1  0  0  0
 16 15  1  0  0  0  0
 17 15  1  0  0  0  0
 19 24  1  6  0  0  0
 19 23  1  0  0  0  0
 20 21  1  0  0  0  0
 22 19  1  0  0  0  0
 22 20  1  0  0  0  0
 23 21  1  0  0  0  0
 23 18  1  1  0  0  0
 25 24  1  0  0  0  0
 26 25  1  0  0  0  0
M  END
>  <MODEL>
3

>  <REMARK>
 VINA RESULT:      -7.0      4.575      7.584
  Name = 
  6 active torsions:
  status: ('A' for Active; 'I' for Inactive)
    1  A    between atoms: C_2  and  N_10
    2  A    between atoms: C_3  and  O_6
    3  A    between atoms: O_6  and  C_18
    4  A    between atoms: C_11  and  C_21
    5  A    between atoms: C_11  and  N_24
    6  A    between atoms: C_12  and  C_25
                            x       y       z     vdW  Elec       q    Type
                         _______ _______ _______ _____ _____    ______ ____

>  <TORSDO>
F 6

$$$$
=
 OpenBabel11072414383D

 26 29  0  0  1  0  0  0  0  0999 V2000
  161.7830  208.3970  150.7790 C   0  0  0  0  0  0  0  0  0  0  0  0
  161.9360  209.2790  148.6760 N   0  0  0  0  0  0  0  0  0  0  0  0
  161.8040  208.0780  149.3930 N   0  0  0  0  0  0  0  0  0  0  0  0
  161.9010  209.8390  150.8840 C   0  0  0  0  0  0  0  0  0  0  0  0
  161.9540  210.5850  151.9450 N   0  0  0  0  0  0  0  0  0  0  0  0
  161.9740  210.2910  149.4930 C   0  0  0  0  0  0  0  0  0  0  0  0
  161.6710  207.5670  151.7190 O   0  0  0  0  0  0  0  0  0  0  0  0
  161.7270  206.7830  148.7780 C   0  0  0  0  0  0  0  0  0  0  0  0
  162.2090  205.3220  146.8960 C   0  0  0  0  0  3  0  0  0  0  0  0
  161.5850  204.2600  147.5550 C   0  0  0  0  0  3  0  0  0  0  0  0
  162.2790  206.5780  147.5050 C   0  0  0  0  0  3  0  0  0  0  0  0
  161.1020  205.7100  149.4330 C   0  0  0  0  0  3  0  0  0  0  0  0
  161.0320  204.4540  148.8230 C   0  0  0  0  0  3  0  0  0  0  0  0
  160.7790  212.6320  147.8740 N   0  0  0  0  0  2  0  0  0  0  0  0
  162.1920  211.7090  149.0500 C   0  0  1  0  0  3  0  0  0  0  0  0
  161.9270  211.8520  147.6270 N   0  0  0  0  0  2  0  0  0  0  0  0
  160.9710  212.5350  149.3100 C   0  0  0  0  0  2  0  0  0  0  0  0
  161.9170  210.0630  153.3070 C   0  0  0  0  0  2  0  0  0  0  0  0
  160.4620  209.6000  155.2940 C   0  0  2  0  0  3  0  0  0  0  0  0
  159.4780  211.7820  155.6440 C   0  0  0  0  0  2  0  0  0  0  0  0
  159.9580  211.8780  153.8940 S   0  0  0  0  0  0  0  0  0  0  0  0
  159.3440  210.3230  156.0080 C   0  0  0  0  0  2  0  0  0  0  0  0
  160.5070  210.1430  153.8760 C   0  0  1  0  0  3  0  0  0  0  0  0
  160.1990  208.2290  155.2750 O   0  0  0  0  0  0  0  0  0  0  0  0
  160.8320  207.7250  156.4120 C   0  0  0  0  0  2  0  0  0  0  0  0
  159.9290  206.9540  157.1430 O   0  0  0  0  0  1  0  0  0  0  0  0
  1  4  1  0  0  0  0
  1  7  2  0  0  0  0
  2  3  1  0  0  0  0
  2  6  2  0  0  0  0
  3  1  1  0  0  0  0
  4  5  2  0  0  0  0
  5 18  1  0  0  0  0
  6  4  1  0  0  0  0
  8  3  1  0  0  0  0
  8 12  1  0  0  0  0
  9 11  1  0  0  0  0
  9 10  2  0  0  0  0
 10 13  1  0  0  0  0
 11  8  2  0  0  0  0
 13 12  2  0  0  0  0
 14 17  1  0  0  0  0
 15 17  1  0  0  0  0
 15  6  1  1  0  0  0
 16 14  1  0  0  0  0
 16 15  1  0  0  0  0
 19 24  1  6  0  0  0
 19 22  1  0  0  0  0
 20 22  1  0  0  0  0
 21 20  1  0  0  0  0
 23 18  1  1  0  0  0
 23 21  1  0  0  0  0
 23 19  1  0  0  0  0
 24 25  1  0  0  0  0
 25 26  1  0  0  0  0
M  END
>  <MODEL>
4

>  <REMARK>
 VINA RESULT:      -7.0      3.283      6.403
  Name = 
  6 active torsions:
  status: ('A' for Active; 'I' for Inactive)
    1  A    between atoms: C_2  and  N_10
    2  A    between atoms: C_3  and  O_6
    3  A    between atoms: O_6  and  C_18
    4  A    between atoms: C_11  and  C_21
    5  A    between atoms: C_11  and  N_24
    6  A    between atoms: C_12  and  C_25
                            x       y       z     vdW  Elec       q    Type
                         _______ _______ _______ _____ _____    ______ ____

>  <TORSDO>
F 6

$$$$
=
 OpenBabel11072414383D

 26 29  0  0  1  0  0  0  0  0999 V2000
  161.7390  208.4790  149.7430 C   0  0  0  0  0  0  0  0  0  0  0  0
  161.5530  207.9730  151.9650 N   0  0  0  0  0  0  0  0  0  0  0  0
  161.5320  207.4220  150.6720 N   0  0  0  0  0  0  0  0  0  0  0  0
  161.8930  209.6970  150.5150 C   0  0  0  0  0  0  0  0  0  0  0  0
  162.0730  210.9150  150.1020 N   0  0  0  0  0  0  0  0  0  0  0  0
  161.7740  209.2540  151.9050 C   0  0  0  0  0  0  0  0  0  0  0  0
  161.7850  208.3530  148.4910 O   0  0  0  0  0  0  0  0  0  0  0  0
  161.3170  206.0280  150.4000 C   0  0  0  0  0  0  0  0  0  0  0  0
  160.9820  204.2310  148.7980 C   0  0  0  0  0  3  0  0  0  0  0  0
  160.8930  203.3100  149.8450 C   0  0  0  0  0  3  0  0  0  0  0  0
  161.1930  205.5850  149.0750 C   0  0  0  0  0  3  0  0  0  0  0  0
  161.2270  205.0950  151.4450 C   0  0  0  0  0  3  0  0  0  0  0  0
  161.0160  203.7410  151.1680 C   0  0  0  0  0  3  0  0  0  0  0  0
  160.0710  210.3240  154.2470 N   0  0  0  0  0  2  0  0  0  0  0  0
  161.7750  210.1540  153.1070 C   0  0  1  0  0  3  0  0  0  0  0  0
  160.5890  210.9970  153.1220 N   0  0  0  0  0  2  0  0  0  0  0  0
  161.2200  209.4390  154.2990 C   0  0  0  0  0  2  0  0  0  0  0  0
  162.1410  211.2940  148.6950 C   0  0  0  0  0  2  0  0  0  0  0  0
  161.0430  213.5400  148.8680 C   0  0  2  0  0  3  0  0  0  0  0  0
  160.6950  214.0470  146.5280 C   0  0  0  0  0  2  0  0  0  0  0  0
  160.8270  212.2350  146.4900 S   0  0  0  0  0  0  0  0  0  0  0  0
  160.2940  214.4520  147.9260 C   0  0  0  0  0  2  0  0  0  0  0  0
  160.9320  212.1330  148.3040 C   0  0  1  0  0  3  0  0  0  0  0  0
  160.4630  213.5950  150.1360 O   0  0  0  0  0  0  0  0  0  0  0  0
  159.1020  213.8000  149.9010 C   0  0  0  0  0  2  0  0  0  0  0  0
  158.3560  213.0640  150.8210 O   0  0  0  0  0  1  0  0  0  0  0  0
  1  4  1  0  0  0  0
  1  3  1  0  0  0  0
  3  2  1  0  0  0  0
  4  6  1  0  0  0  0
  5  4  2  0  0  0  0
  6  2  2  0  0  0  0
  7  1  2  0  0  0  0
  8  3  1  0  0  0  0
  8 12  1  0  0  0  0
  9 11  1  0  0  0  0
  9 10  2  0  0  0  0
 10 13  1  0  0  0  0
 11  8  2  0  0  0  0
 13 12  2  0  0  0  0
 14 17  1  0  0  0  0
 15  6  1  6  0  0  0
 15 16  1  0  0  0  0
 15 17  1  0  0  0  0
 16 14  1  0  0  0  0
 18  5  1  0  0  0  0
 19 24  1  1  0  0  0
 20 22  1  0  0  0  0
 21 20  1  0  0  0  0
 21 23  1  0  0  0  0
 22 19  1  0  0  0  0
 23 18  1  6  0  0  0
 23 19  1  0  0  0  0
 25 24  1  0  0  0  0
 25 26  1  0  0  0  0
M  END
>  <MODEL>
5

>  <REMARK>
 VINA RESULT:      -7.0      1.834      2.583
  Name = 
  6 active torsions:
  status: ('A' for Active; 'I' for Inactive)
    1  A    between atoms: C_2  and  N_10
    2  A    between atoms: C_3  and  O_6
    3  A    between atoms: O_6  and  C_18
    4  A    between atoms: C_11  and  C_21
    5  A    between atoms: C_11  and  N_24
    6  A    between atoms: C_12  and  C_25
                            x       y       z     vdW  Elec       q    Type
                         _______ _______ _______ _____ _____    ______ ____

>  <TORSDO>
F 6

$$$$
=
 OpenBabel11072414383D

 26 29  0  0  1  0  0  0  0  0999 V2000
  161.6440  207.0340  148.8920 C   0  0  0  0  0  0  0  0  0  0  0  0
  161.6220  205.9180  150.8880 N   0  0  0  0  0  0  0  0  0  0  0  0
  161.5100  205.7530  149.4970 N   0  0  0  0  0  0  0  0  0  0  0  0
  161.8480  207.9890  149.9650 C   0  0  0  0  0  0  0  0  0  0  0  0
  161.9930  209.2780  149.9020 N   0  0  0  0  0  0  0  0  0  0  0  0
  161.8320  207.1690  151.1780 C   0  0  0  0  0  0  0  0  0  0  0  0
  161.6000  207.2680  147.6560 O   0  0  0  0  0  0  0  0  0  0  0  0
  161.2820  204.4880  148.8570 C   0  0  0  0  0  0  0  0  0  0  0  0
  160.5350  202.1780  148.9810 C   0  0  0  0  0  3  0  0  0  0  0  0
  160.8320  202.0050  147.6270 C   0  0  0  0  0  3  0  0  0  0  0  0
  160.7600  203.4150  149.5930 C   0  0  0  0  0  3  0  0  0  0  0  0
  161.5760  204.3050  147.4960 C   0  0  0  0  0  3  0  0  0  0  0  0
  161.3510  203.0680  146.8840 C   0  0  0  0  0  3  0  0  0  0  0  0
  160.4550  207.1920  153.9410 N   0  0  0  0  0  2  0  0  0  0  0  0
  161.9170  207.6940  152.5820 C   0  0  1  0  0  3  0  0  0  0  0  0
  160.6350  208.2350  153.0090 N   0  0  0  0  0  2  0  0  0  0  0  0
  161.7210  206.5860  153.5700 C   0  0  0  0  0  2  0  0  0  0  0  0
  161.9570  210.0390  148.6580 C   0  0  0  0  0  2  0  0  0  0  0  0
  161.6090  212.3510  147.7550 C   0  0  2  0  0  3  0  0  0  0  0  0
  160.2910  213.3300  149.5320 C   0  0  0  0  0  2  0  0  0  0  0  0
  161.1230  211.9700  150.4050 S   0  0  0  0  0  0  0  0  0  0  0  0
  161.1110  213.6640  148.3090 C   0  0  0  0  0  2  0  0  0  0  0  0
  162.1010  211.5290  148.9350 C   0  0  1  0  0  3  0  0  0  0  0  0
  162.6570  212.5830  146.8620 O   0  0  0  0  0  0  0  0  0  0  0  0
  162.3350  213.7890  146.2360 C   0  0  0  0  0  2  0  0  0  0  0  0
  162.4690  213.6460  144.8560 O   0  0  0  0  0  1  0  0  0  0  0  0
  1  3  1  0  0  0  0
  1  4  1  0  0  0  0
  2  6  2  0  0  0  0
  3  2  1  0  0  0  0
  4  6  1  0  0  0  0
  5  4  2  0  0  0  0
  7  1  2  0  0  0  0
  8  3  1  0  0  0  0
  8 11  1  0  0  0  0
  9 11  2  0  0  0  0
 10  9  1  0  0  0  0
 12  8  2  0  0  0  0
 13 12  1  0  0  0  0
 13 10  2  0  0  0  0
 15  6  1  6  0  0  0
 15 16  1  0  0  0  0
 15 17  1  0  0  0  0
 16 14  1  0  0  0  0
 17 14  1  0  0  0  0
 18  5  1  0  0  0  0
 19 24  1  6  0  0  0
 19 22  1  0  0  0  0
 19 23  1  0  0  0  0
 20 21  1  0  0  0  0
 22 20  1  0  0  0  0
 23 18  1  6  0  0  0
 23 21  1  0  0  0  0
 25 24  1  0  0  0  0
 26 25  1  0  0  0  0
M  END
>  <MODEL>
6

>  <REMARK>
 VINA RESULT:      -6.9      1.649      2.174
  Name = 
  6 active torsions:
  status: ('A' for Active; 'I' for Inactive)
    1  A    between atoms: C_2  and  N_10
    2  A    between atoms: C_3  and  O_6
    3  A    between atoms: O_6  and  C_18
    4  A    between atoms: C_11  and  C_21
    5  A    between atoms: C_11  and  N_24
    6  A    between atoms: C_12  and  C_25
                            x       y       z     vdW  Elec       q    Type
                         _______ _______ _______ _____ _____    ______ ____

>  <TORSDO>
F 6

$$$$
=
 OpenBabel11072414383D

 26 29  0  0  1  0  0  0  0  0999 V2000
  161.8070  208.3110  150.7390 C   0  0  0  0  0  0  0  0  0  0  0  0
  161.9660  209.2260  148.6500 N   0  0  0  0  0  0  0  0  0  0  0  0
  161.8320  208.0140  149.3470 N   0  0  0  0  0  0  0  0  0  0  0  0
  161.9230  209.7510  150.8660 C   0  0  0  0  0  0  0  0  0  0  0  0
  161.9730  210.4800  151.9400 N   0  0  0  0  0  0  0  0  0  0  0  0
  162.0000  210.2260  149.4830 C   0  0  0  0  0  0  0  0  0  0  0  0
  161.6940  207.4660  151.6650 O   0  0  0  0  0  0  0  0  0  0  0  0
  161.7590  206.7290  148.7120 C   0  0  0  0  0  0  0  0  0  0  0  0
  162.2450  205.2990  146.8070 C   0  0  0  0  0  3  0  0  0  0  0  0
  161.6230  204.2250  147.4490 C   0  0  0  0  0  3  0  0  0  0  0  0
  162.3120  206.5460  147.4360 C   0  0  0  0  0  3  0  0  0  0  0  0
  161.1360  205.6440  149.3490 C   0  0  0  0  0  3  0  0  0  0  0  0
  161.0690  204.3970  148.7200 C   0  0  0  0  0  3  0  0  0  0  0  0
  160.8180  212.5830  147.8800 N   0  0  0  0  0  2  0  0  0  0  0  0
  162.2180  211.6500  149.0640 C   0  0  1  0  0  3  0  0  0  0  0  0
  161.9730  211.8120  147.6390 N   0  0  0  0  0  2  0  0  0  0  0  0
  160.9890  212.4670  149.3160 C   0  0  0  0  0  2  0  0  0  0  0  0
  161.9320  209.9370  153.2930 C   0  0  0  0  0  2  0  0  0  0  0  0
  159.7180  210.5440  154.2990 C   0  0  2  0  0  3  0  0  0  0  0  0
  160.2700  210.4970  156.6530 C   0  0  0  0  0  2  0  0  0  0  0  0
  161.9060  210.7520  155.9030 S   0  0  0  0  0  0  0  0  0  0  0  0
  159.2300  210.9650  155.6640 C   0  0  0  0  0  2  0  0  0  0  0  0
  161.1970  210.8840  154.2310 C   0  0  1  0  0  3  0  0  0  0  0  0
  159.0200  211.2440  153.3130 O   0  0  0  0  0  0  0  0  0  0  0  0
  159.2510  212.5910  153.5960 C   0  0  0  0  0  2  0  0  0  0  0  0
  159.4600  213.2870  152.4070 O   0  0  0  0  0  1  0  0  0  0  0  0
  1  4  1  0  0  0  0
  1  7  2  0  0  0  0
  2  3  1  0  0  0  0
  2  6  2  0  0  0  0
  3  1  1  0  0  0  0
  4  5  2  0  0  0  0
  5 18  1  0  0  0  0
  6  4  1  0  0  0  0
  8  3  1  0  0  0  0
  8 12  1  0  0  0  0
  9 11  1  0  0  0  0
  9 10  2  0  0  0  0
 10 13  1  0  0  0  0
 11  8  2  0  0  0  0
 13 12  2  0  0  0  0
 14 17  1  0  0  0  0
 15 17  1  0  0  0  0
 15  6  1  1  0  0  0
 16 14  1  0  0  0  0
 16 15  1  0  0  0  0
 19 24  1  6  0  0  0
 19 22  1  0  0  0  0
 21 20  1  0  0  0  0
 22 20  1  0  0  0  0
 23 18  1  6  0  0  0
 23 19  1  0  0  0  0
 23 21  1  0  0  0  0
 24 25  1  0  0  0  0
 26 25  1  0  0  0  0
M  END
>  <MODEL>
7

>  <REMARK>
 VINA RESULT:      -6.9      3.349      5.639
  Name = 
  6 active torsions:
  status: ('A' for Active; 'I' for Inactive)
    1  A    between atoms: C_2  and  N_10
    2  A    between atoms: C_3  and  O_6
    3  A    between atoms: O_6  and  C_18
    4  A    between atoms: C_11  and  C_21
    5  A    between atoms: C_11  and  N_24
    6  A    between atoms: C_12  and  C_25
                            x       y       z     vdW  Elec       q    Type
                         _______ _______ _______ _____ _____    ______ ____

>  <TORSDO>
F 6

$$$$
=
 OpenBabel11072414383D

 26 29  0  0  1  0  0  0  0  0999 V2000
  161.2310  206.7780  149.3580 C   0  0  0  0  0  0  0  0  0  0  0  0
  161.0520  204.4990  149.3190 N   0  0  0  0  0  0  0  0  0  0  0  0
  161.2220  205.6350  148.5100 N   0  0  0  0  0  0  0  0  0  0  0  0
  161.0660  206.2970  150.7170 C   0  0  0  0  0  0  0  0  0  0  0  0
  160.9870  206.9720  151.8240 N   0  0  0  0  0  0  0  0  0  0  0  0
  160.9810  204.8430  150.5720 C   0  0  0  0  0  0  0  0  0  0  0  0
  161.3670  207.9700  148.9780 O   0  0  0  0  0  0  0  0  0  0  0  0
  161.3410  205.5890  147.0800 C   0  0  0  0  0  0  0  0  0  0  0  0
  160.4750  206.1630  144.8830 C   0  0  0  0  0  3  0  0  0  0  0  0
  161.5520  205.5080  144.2820 C   0  0  0  0  0  3  0  0  0  0  0  0
  160.3700  206.2030  146.2770 C   0  0  0  0  0  3  0  0  0  0  0  0
  162.4210  204.9330  146.4680 C   0  0  0  0  0  3  0  0  0  0  0  0
  162.5260  204.8940  145.0740 C   0  0  0  0  0  3  0  0  0  0  0  0
  161.3050  201.9110  151.4820 N   0  0  0  0  0  2  0  0  0  0  0  0
  160.7180  203.8720  151.6870 C   0  0  1  0  0  3  0  0  0  0  0  0
  160.1390  202.6410  151.1730 N   0  0  0  0  0  2  0  0  0  0  0  0
  161.9560  203.0960  152.0110 C   0  0  0  0  0  2  0  0  0  0  0  0
  161.0390  208.4280  151.8920 C   0  0  0  0  0  2  0  0  0  0  0  0
  160.3420  209.9580  153.7510 C   0  0  2  0  0  3  0  0  0  0  0  0
  160.0820  208.3720  155.5590 C   0  0  0  0  0  2  0  0  0  0  0  0
  161.2050  207.4740  154.4500 S   0  0  0  0  0  0  0  0  0  0  0  0
  160.2060  209.8450  155.2510 C   0  0  0  0  0  2  0  0  0  0  0  0
  161.3310  208.8900  153.3130 C   0  0  1  0  0  3  0  0  0  0  0  0
  160.8240  211.2240  153.4160 O   0  0  0  0  0  0  0  0  0  0  0  0
  159.7030  212.0550  153.4450 C   0  0  0  0  0  2  0  0  0  0  0  0
  158.8640  211.7410  152.3760 O   0  0  0  0  0  1  0  0  0  0  0  0
  1  4  1  0  0  0  0
  2  6  2  0  0  0  0
  3  2  1  0  0  0  0
  3  1  1  0  0  0  0
  4  5  2  0  0  0  0
  5 18  1  0  0  0  0
  6  4  1  0  0  0  0
  7  1  2  0  0  0  0
  8  3  1  0  0  0  0
  9 11  1  0  0  0  0
 10  9  2  0  0  0  0
 10 13  1  0  0  0  0
 11  8  2  0  0  0  0
 12  8  1  0  0  0  0
 13 12  2  0  0  0  0
 14 17  1  0  0  0  0
 15  6  1  6  0  0  0
 15 17  1  0  0  0  0
 16 14  1  0  0  0  0
 16 15  1  0  0  0  0
 19 24  1  1  0  0  0
 19 22  1  0  0  0  0
 21 20  1  0  0  0  0
 22 20  1  0  0  0  0
 23 18  1  6  0  0  0
 23 19  1  0  0  0  0
 23 21  1  0  0  0  0
 24 25  1  0  0  0  0
 26 25  1  0  0  0  0
M  END
>  <MODEL>
8

>  <REMARK>
 VINA RESULT:      -6.8      4.209      6.486
  Name = 
  6 active torsions:
  status: ('A' for Active; 'I' for Inactive)
    1  A    between atoms: C_2  and  N_10
    2  A    between atoms: C_3  and  O_6
    3  A    between atoms: O_6  and  C_18
    4  A    between atoms: C_11  and  C_21
    5  A    between atoms: C_11  and  N_24
    6  A    between atoms: C_12  and  C_25
                            x       y       z     vdW  Elec       q    Type
                         _______ _______ _______ _____ _____    ______ ____

>  <TORSDO>
F 6

$$$$
=
 OpenBabel11072414383D

 26 29  0  0  1  0  0  0  0  0999 V2000
  161.1670  207.7730  151.9530 C   0  0  0  0  0  0  0  0  0  0  0  0
  161.1370  206.0470  153.4520 N   0  0  0  0  0  0  0  0  0  0  0  0
  161.1310  206.3570  152.0820 N   0  0  0  0  0  0  0  0  0  0  0  0
  161.2010  208.3190  153.2970 C   0  0  0  0  0  0  0  0  0  0  0  0
  161.2120  209.5600  153.6800 N   0  0  0  0  0  0  0  0  0  0  0  0
  161.1950  207.1380  154.1610 C   0  0  0  0  0  0  0  0  0  0  0  0
  161.1770  208.4090  150.8660 O   0  0  0  0  0  0  0  0  0  0  0  0
  161.0790  205.3710  151.0390 C   0  0  0  0  0  0  0  0  0  0  0  0
  160.8280  203.0520  150.3540 C   0  0  0  0  0  3  0  0  0  0  0  0
  160.9770  203.4270  149.0170 C   0  0  0  0  0  3  0  0  0  0  0  0
  160.8800  204.0210  151.3610 C   0  0  0  0  0  3  0  0  0  0  0  0
  161.2260  205.7380  149.6920 C   0  0  0  0  0  3  0  0  0  0  0  0
  161.1750  204.7690  148.6850 C   0  0  0  0  0  3  0  0  0  0  0  0
  160.0780  208.6440  156.6120 N   0  0  0  0  0  2  0  0  0  0  0  0
  161.1350  207.1580  155.6610 C   0  0  1  0  0  3  0  0  0  0  0  0
  161.4080  208.4930  156.1700 N   0  0  0  0  0  2  0  0  0  0  0  0
  159.7230  207.3230  156.1280 C   0  0  0  0  0  2  0  0  0  0  0  0
  161.1750  210.6930  152.7630 C   0  0  0  0  0  2  0  0  0  0  0  0
  158.8260  211.5620  152.8660 C   0  0  2  0  0  3  0  0  0  0  0  0
  158.5250  211.7480  155.2590 C   0  0  0  0  0  2  0  0  0  0  0  0
  160.3350  211.8010  155.1170 S   0  0  0  0  0  0  0  0  0  0  0  0
  157.9440  212.1700  153.9310 C   0  0  0  0  0  2  0  0  0  0  0  0
  160.2650  211.7900  153.2990 C   0  0  1  0  0  3  0  0  0  0  0  0
  158.5890  212.1910  151.6420 O   0  0  0  0  0  0  0  0  0  0  0  0
  158.8120  213.5480  151.8860 C   0  0  0  0  0  2  0  0  0  0  0  0
  157.9500  214.3090  151.0970 O   0  0  0  0  0  1  0  0  0  0  0  0
  1  3  1  0  0  0  0
  1  4  1  0  0  0  0
  2  6  2  0  0  0  0
  3  2  1  0  0  0  0
  4  5  2  0  0  0  0
  4  6  1  0  0  0  0
  7  1  2  0  0  0  0
  8 11  1  0  0  0  0
  8  3  1  0  0  0  0
  9 11  2  0  0  0  0
 10  9  1  0  0  0  0
 12  8  2  0  0  0  0
 13 10  2  0  0  0  0
 13 12  1  0  0  0  0
 15  6  1  6  0  0  0
 15 17  1  0  0  0  0
 15 16  1  0  0  0  0
 16 14  1  0  0  0  0
 17 14  1  0  0  0  0
 18  5  1  0  0  0  0
 19 24  1  6  0  0  0
 19 23  1  0  0  0  0
 19 22  1  0  0  0  0
 21 20  1  0  0  0  0
 22 20  1  0  0  0  0
 23 18  1  6  0  0  0
 23 21  1  0  0  0  0
 24 25  1  0  0  0  0
 26 25  1  0  0  0  0
M  END
>  <MODEL>
9

>  <REMARK>
 VINA RESULT:      -6.7      3.869      4.615
  Name = 
  6 active torsions:
  status: ('A' for Active; 'I' for Inactive)
    1  A    between atoms: C_2  and  N_10
    2  A    between atoms: C_3  and  O_6
    3  A    between atoms: O_6  and  C_18
    4  A    between atoms: C_11  and  C_21
    5  A    between atoms: C_11  and  N_24
    6  A    between atoms: C_12  and  C_25
                            x       y       z     vdW  Elec       q    Type
                         _______ _______ _______ _____ _____    ______ ____

>  <TORSDO>
F 6

$$$$
