=
 OpenBabel11072412453D

 55 59  0  0  1  0  0  0  0  0999 V2000
  162.5770  209.7970  147.5870 S   0  0  0  0  0  0  0  0  0  0  0  0
  161.1160  207.5400  148.0480 C   0  0  0  0  0  1  0  0  0  0  0  0
  161.7810  210.6000  149.9290 C   0  0  0  0  0  2  0  0  0  0  0  0
  163.2780  207.7270  149.0320 O   0  0  0  0  0  1  0  0  0  0  0  0
  162.8400  210.8790  148.9640 N   0  0  0  0  0  0  0  0  0  0  0  0
  161.4970  209.1030  149.9430 C   0  0  1  0  0  3  0  0  0  0  0  0
  162.1280  208.4520  148.7110 C   0  0  1  0  0  0  0  0  0  0  0  0
  161.8200  208.0460  153.7430 C   0  0  2  0  0  3  0  0  0  0  0  0
  161.9680  209.5200  152.6970 S   0  0  0  0  0  0  0  0  0  0  0  0
  160.8440  207.3800  151.5800 N   0  0  0  0  0  2  0  0  0  0  0  0
  161.8240  208.4100  151.2740 C   0  0  1  0  0  3  0  0  0  0  0  0
  161.0520  206.9790  152.9630 C   0  0  1  0  0  3  0  0  0  0  0  0
  161.1120  208.3500  155.0230 C   0  0  0  0  0  0  0  0  0  0  0  0
  161.6670  208.0480  156.1180 O   0  0  0  0  0  0  0  0  0  0  0  0
  159.8200  208.8840  154.9940 O   0  0  0  0  0  0  0  0  0  0  0  0
  159.4750  210.1530  155.4740 C   0  0  0  0  0  0  0  0  0  0  0  0
  158.3960  210.3380  156.1050 O   0  0  0  0  0  0  0  0  0  0  0  0
  160.1910  212.2040  154.5420 O   0  0  0  0  0  0  0  0  0  0  0  0
  160.4310  211.2560  155.3460 C   0  0  0  0  0  0  0  0  0  0  0  0
  161.5480  211.3290  156.1800 O   0  0  0  0  0  1  0  0  0  0  0  0
  161.7110  205.6050  153.0470 C   0  0  0  0  0  2  0  0  0  0  0  0
  160.7190  204.4790  152.7480 C   0  0  0  0  0  2  0  0  0  0  0  0
  161.0900  203.7840  151.5210 N   0  0  0  0  0  0  0  0  0  0  0  0
  161.4530  201.9880  149.2740 C   0  0  2  0  0  3  0  0  0  0  0  0
  161.6810  204.1270  148.0000 C   0  0  0  0  0  1  0  0  0  0  0  0
  161.2090  201.5020  150.6950 C   0  0  0  0  0  2  0  0  0  0  0  0
  159.9680  205.2960  150.1250 O   0  0  0  0  0  0  0  0  0  0  0  0
  161.8010  202.5200  151.6520 C   0  0  0  0  0  2  0  0  0  0  0  0
  160.8240  203.3690  148.9980 C   0  0  2  0  0  3  0  0  0  0  0  0
  160.6140  204.2190  150.2310 C   0  0  0  0  0  0  0  0  0  0  0  0
  160.9010  200.9580  148.3040 C   0  0  0  0  0  2  0  0  0  0  0  0
  160.9080  201.5110  146.8930 C   0  0  0  0  0  1  0  0  0  0  0  0
  160.6650  211.5940  147.3880 O   0  0  0  0  0  0  0  0  0  0  0  0
  161.5060  212.4920  147.6690 C   0  0  0  0  0  0  0  0  0  0  0  0
  162.6270  212.1810  148.4940 N   0  0  0  0  0  2  0  0  0  0  0  0
  161.2870  213.9060  147.2310 C   0  0  0  0  0  2  0  0  0  0  0  0
  162.4810  214.4410  146.4500 C   0  0  0  0  0  2  0  0  0  0  0  0
  163.5280  212.9810  144.9410 O   0  0  0  0  0  0  0  0  0  0  0  0
  162.5850  213.7370  145.1260 C   0  0  0  0  0  0  0  0  0  0  0  0
  161.5870  213.9430  144.0150 C   0  0  0  0  0  2  0  0  0  0  0  0
  160.7400  212.7010  143.7380 C   0  0  1  0  0  3  0  0  0  0  0  0
  159.2660  212.9470  143.9050 C   0  0  0  0  0  0  0  0  0  0  0  0
  158.6250  213.5000  142.9680 O   0  0  0  0  0  0  0  0  0  0  0  0
  158.6100  212.5560  145.0750 O   0  0  0  0  0  0  0  0  0  0  0  0
  157.7950  213.4500  145.8140 C   0  0  0  0  0  1  0  0  0  0  0  0
  161.0690  212.0970  142.3760 C   0  0  0  0  0  2  0  0  0  0  0  0
  162.2910  212.5740  141.8920 O   0  0  0  0  0  0  0  0  0  0  0  0
  162.2700  212.2760  140.5240 C   0  0  0  0  0  2  0  0  0  0  0  0
  159.1300  210.1480  138.8300 C   0  0  0  0  0  1  0  0  0  0  0  0
  160.5160  209.6510  138.4500 C   0  0  1  0  0  3  0  0  0  0  0  0
  161.9370  208.5850  139.8870 C   0  0  0  0  0  3  0  0  0  0  0  0
  162.4750  209.9650  139.7090 C   0  0  2  0  0  3  0  0  0  0  0  0
  161.5330  210.9720  140.2100 C   0  0  2  0  0  3  0  0  0  0  0  0
  161.5590  210.6460  138.7610 N   0  0  2  0  0  0  0  0  0  0  0  0
  160.8460  208.3960  139.1710 C   0  0  0  0  0  3  0  0  0  0  0  0
  1  7  1  0  0  0  0
  1  5  1  0  0  0  0
  5  3  1  0  0  0  0
  6  3  1  1  0  0  0
  6 11  1  0  0  0  0
  7  2  1  6  0  0  0
  7  4  1  0  0  0  0
  7  6  1  0  0  0  0
  8 13  1  1  0  0  0
  9  8  1  0  0  0  0
 10 12  1  0  0  0  0
 11 10  1  1  0  0  0
 11  9  1  0  0  0  0
 12 21  1  6  0  0  0
 12  8  1  0  0  0  0
 13 14  2  0  0  0  0
 15 13  1  0  0  0  0
 15 16  1  0  0  0  0
 16 17  2  0  0  0  0
 18 19  2  0  0  0  0
 19 16  1  0  0  0  0
 19 20  1  0  0  0  0
 22 21  1  0  0  0  0
 23 28  1  0  0  0  0
 23 22  1  0  0  0  0
 24 31  1  6  0  0  0
 24 26  1  0  0  0  0
 26 28  1  0  0  0  0
 27 30  2  0  0  0  0
 29 25  1  6  0  0  0
 29 24  1  0  0  0  0
 29 30  1  0  0  0  0
 30 23  1  0  0  0  0
 32 31  1  0  0  0  0
 33 34  2  0  0  0  0
 34 35  1  0  0  0  0
 35  5  1  0  0  0  0
 36 34  1  0  0  0  0
 37 36  1  0  0  0  0
 38 39  2  0  0  0  0
 39 37  1  0  0  0  0
 40 39  1  0  0  0  0
 41 46  1  6  0  0  0
 41 42  1  0  0  0  0
 41 40  1  0  0  0  0
 42 44  1  0  0  0  0
 43 42  2  0  0  0  0
 44 45  1  0  0  0  0
 47 46  1  0  0  0  0
 48 47  1  0  0  0  0
 50 54  1  0  0  0  0
 50 49  1  1  0  0  0
 50 55  1  0  0  0  0
 52 51  1  1  0  0  0
 52 53  1  0  0  0  0
 53 48  1  6  0  0  0
 54 52  1  0  0  0  0
 54 53  1  0  0  0  0
 55 51  2  0  0  0  0
M  END
>  <MODEL>
1

>  <REMARK>
 VINA RESULT:      -5.1      0.000      0.000
  Name = 
  21 active torsions:
  status: ('A' for Active; 'I' for Inactive)
    1  A    between atoms: C_1  and  C_2
    2  A    between atoms: C_1  and  O_8
    3  A    between atoms: N_3  and  C_29
    4  A    between atoms: C_4  and  C_6
    5  A    between atoms: O_8  and  C_24
    6  A    between atoms: C_9  and  C_24
    7  A    between atoms: C_11  and  C_46
    8  A    between atoms: C_12  and  C_26
    9  A    between atoms: C_12  and  C_53
   10  A    between atoms: C_15  and  C_16
   11  A    between atoms: C_15  and  C_25
   12  A    between atoms: C_15  and  C_37
   13  A    between atoms: C_16  and  C_51
   14  A    between atoms: C_25  and  O_33
   15  A    between atoms: C_26  and  C_51
   16  A    between atoms: C_27  and  C_29
   17  A    between atoms: C_27  and  C_49
   18  A    between atoms: C_31  and  C_47
   19  A    between atoms: N_36  and  N_54
   20  A    between atoms: C_37  and  O_41
   21  A    between atoms: O_41  and  C_47
                            x       y       z     vdW  Elec       q    Type
                         _______ _______ _______ _____ _____    ______ ____

>  <TORSDO>
F 21

$$$$
=
 OpenBabel11072412453D

 55 59  0  0  1  0  0  0  0  0999 V2000
  161.3250  203.8460  151.7000 S   0  0  0  0  0  0  0  0  0  0  0  0
  160.8790  205.1690  154.0450 C   0  0  0  0  0  1  0  0  0  0  0  0
  160.3890  205.9620  150.5130 C   0  0  0  0  0  2  0  0  0  0  0  0
  162.8410  205.6820  152.7940 O   0  0  0  0  0  1  0  0  0  0  0  0
  161.2100  204.7950  150.2090 N   0  0  0  0  0  0  0  0  0  0  0  0
  160.7100  206.4490  151.9210 C   0  0  1  0  0  3  0  0  0  0  0  0
  161.4870  205.3660  152.6710 C   0  0  1  0  0  0  0  0  0  0  0  0
  161.8830  210.1630  151.2180 C   0  0  2  0  0  3  0  0  0  0  0  0
  161.7460  208.5680  150.3660 S   0  0  0  0  0  0  0  0  0  0  0  0
  160.4910  208.7750  152.7060 N   0  0  0  0  0  2  0  0  0  0  0  0
  161.3430  207.8480  151.9770 C   0  0  1  0  0  3  0  0  0  0  0  0
  161.0070  210.1150  152.4700 C   0  0  1  0  0  3  0  0  0  0  0  0
  161.4560  211.2930  150.3400 C   0  0  0  0  0  0  0  0  0  0  0  0
  162.0670  211.4880  149.2500 O   0  0  0  0  0  0  0  0  0  0  0  0
  160.4490  212.1650  150.7670 O   0  0  0  0  0  0  0  0  0  0  0  0
  160.0770  213.3350  150.0960 C   0  0  0  0  0  0  0  0  0  0  0  0
  160.9100  214.2650  149.9000 O   0  0  0  0  0  0  0  0  0  0  0  0
  158.6050  213.4620  148.2500 O   0  0  0  0  0  0  0  0  0  0  0  0
  158.7380  213.4360  149.5090 C   0  0  0  0  0  0  0  0  0  0  0  0
  157.6020  213.3940  150.3180 O   0  0  0  0  0  1  0  0  0  0  0  0
  161.7210  210.6580  153.7050 C   0  0  0  0  0  2  0  0  0  0  0  0
  161.0900  211.9610  154.2010 C   0  0  0  0  0  2  0  0  0  0  0  0
  159.7380  211.7220  154.6880 N   0  0  0  0  0  0  0  0  0  0  0  0
  157.2600  211.4510  156.1690 C   0  0  2  0  0  3  0  0  0  0  0  0
  156.2410  212.0650  153.9700 C   0  0  0  0  0  1  0  0  0  0  0  0
  158.6300  211.2300  156.7930 C   0  0  0  0  0  2  0  0  0  0  0  0
  158.8000  213.4780  153.4500 O   0  0  0  0  0  0  0  0  0  0  0  0
  159.5630  210.7070  155.7170 C   0  0  0  0  0  2  0  0  0  0  0  0
  157.2920  212.4510  154.9950 C   0  0  2  0  0  3  0  0  0  0  0  0
  158.6370  212.5760  154.3160 C   0  0  0  0  0  0  0  0  0  0  0  0
  156.3050  211.9350  157.2450 C   0  0  0  0  0  2  0  0  0  0  0  0
  155.0560  211.0780  157.2610 C   0  0  0  0  0  1  0  0  0  0  0  0
  162.3960  203.3770  148.1340 O   0  0  0  0  0  0  0  0  0  0  0  0
  161.1390  203.3260  148.2350 C   0  0  0  0  0  0  0  0  0  0  0  0
  160.4860  204.0170  149.2980 N   0  0  0  0  0  2  0  0  0  0  0  0
  160.3350  202.4640  147.3150 C   0  0  0  0  0  2  0  0  0  0  0  0
  161.1450  202.0410  146.0950 C   0  0  0  0  0  2  0  0  0  0  0  0
  162.6380  203.6130  145.2000 O   0  0  0  0  0  0  0  0  0  0  0  0
  161.4740  203.2430  145.2560 C   0  0  0  0  0  0  0  0  0  0  0  0
  160.4250  204.0200  144.5010 C   0  0  0  0  0  2  0  0  0  0  0  0
  160.7310  205.5160  144.4270 C   0  0  1  0  0  3  0  0  0  0  0  0
  160.9470  206.1390  145.7780 C   0  0  0  0  0  0  0  0  0  0  0  0
  159.9550  206.3120  146.5410 O   0  0  0  0  0  0  0  0  0  0  0  0
  162.2290  206.5080  146.1920 O   0  0  0  0  0  0  0  0  0  0  0  0
  162.5430  206.7280  147.5570 C   0  0  0  0  0  1  0  0  0  0  0  0
  161.8890  205.7990  143.4740 C   0  0  0  0  0  2  0  0  0  0  0  0
  161.5000  206.6620  142.4460 O   0  0  0  0  0  0  0  0  0  0  0  0
  162.0510  206.1030  141.2860 C   0  0  0  0  0  2  0  0  0  0  0  0
  162.4890  207.1910  137.3000 C   0  0  0  0  0  1  0  0  0  0  0  0
  161.4740  208.0130  138.0790 C   0  0  1  0  0  3  0  0  0  0  0  0
  162.0170  209.5170  139.7100 C   0  0  0  0  0  3  0  0  0  0  0  0
  161.4600  208.3220  140.4080 C   0  0  2  0  0  3  0  0  0  0  0  0
  162.2950  207.1370  140.1850 C   0  0  2  0  0  3  0  0  0  0  0  0
  161.0910  207.3570  139.3420 N   0  0  2  0  0  0  0  0  0  0  0  0
  162.0140  209.3570  138.4010 C   0  0  0  0  0  3  0  0  0  0  0  0
  1  7  1  0  0  0  0
  5  3  1  0  0  0  0
  5  1  1  0  0  0  0
  6  3  1  6  0  0  0
  6 11  1  0  0  0  0
  6  7  1  0  0  0  0
  7  4  1  0  0  0  0
  7  2  1  1  0  0  0
  8 13  1  6  0  0  0
  8 12  1  0  0  0  0
  9  8  1  0  0  0  0
 11  9  1  6  0  0  0
 11 10  1  0  0  0  0
 12 10  1  0  0  0  0
 12 21  1  1  0  0  0
 13 15  1  0  0  0  0
 14 13  2  0  0  0  0
 16 15  1  0  0  0  0
 17 16  2  0  0  0  0
 18 19  2  0  0  0  0
 19 16  1  0  0  0  0
 19 20  1  0  0  0  0
 21 22  1  0  0  0  0
 22 23  1  0  0  0  0
 23 28  1  0  0  0  0
 24 26  1  0  0  0  0
 24 31  1  1  0  0  0
 27 30  2  0  0  0  0
 28 26  1  0  0  0  0
 29 25  1  6  0  0  0
 29 24  1  0  0  0  0
 30 23  1  0  0  0  0
 30 29  1  0  0  0  0
 31 32  1  0  0  0  0
 33 34  2  0  0  0  0
 34 35  1  0  0  0  0
 35  5  1  0  0  0  0
 36 34  1  0  0  0  0
 37 36  1  0  0  0  0
 38 39  2  0  0  0  0
 39 37  1  0  0  0  0
 40 39  1  0  0  0  0
 41 46  1  6  0  0  0
 41 40  1  0  0  0  0
 41 42  1  0  0  0  0
 42 44  1  0  0  0  0
 42 43  2  0  0  0  0
 44 45  1  0  0  0  0
 47 46  1  0  0  0  0
 48 47  1  0  0  0  0
 50 49  1  1  0  0  0
 50 55  1  0  0  0  0
 50 54  1  0  0  0  0
 52 51  1  6  0  0  0
 53 52  1  0  0  0  0
 53 48  1  1  0  0  0
 54 53  1  0  0  0  0
 54 52  1  0  0  0  0
 55 51  2  0  0  0  0
M  END
>  <MODEL>
2

>  <REMARK>
 VINA RESULT:      -4.1      3.258      7.764
  Name = 
  21 active torsions:
  status: ('A' for Active; 'I' for Inactive)
    1  A    between atoms: C_1  and  C_2
    2  A    between atoms: C_1  and  O_8
    3  A    between atoms: N_3  and  C_29
    4  A    between atoms: C_4  and  C_6
    5  A    between atoms: O_8  and  C_24
    6  A    between atoms: C_9  and  C_24
    7  A    between atoms: C_11  and  C_46
    8  A    between atoms: C_12  and  C_26
    9  A    between atoms: C_12  and  C_53
   10  A    between atoms: C_15  and  C_16
   11  A    between atoms: C_15  and  C_25
   12  A    between atoms: C_15  and  C_37
   13  A    between atoms: C_16  and  C_51
   14  A    between atoms: C_25  and  O_33
   15  A    between atoms: C_26  and  C_51
   16  A    between atoms: C_27  and  C_29
   17  A    between atoms: C_27  and  C_49
   18  A    between atoms: C_31  and  C_47
   19  A    between atoms: N_36  and  N_54
   20  A    between atoms: C_37  and  O_41
   21  A    between atoms: O_41  and  C_47
                            x       y       z     vdW  Elec       q    Type
                         _______ _______ _______ _____ _____    ______ ____

>  <TORSDO>
F 21

$$$$
=
 OpenBabel11072412453D

 55 59  0  0  1  0  0  0  0  0999 V2000
  162.2780  209.4920  149.3420 S   0  0  0  0  0  0  0  0  0  0  0  0
  163.1490  211.7970  148.1680 C   0  0  0  0  0  1  0  0  0  0  0  0
  161.4090  210.9940  151.2790 C   0  0  0  0  0  2  0  0  0  0  0  0
  160.8480  211.2080  147.9720 O   0  0  0  0  0  1  0  0  0  0  0  0
  161.1920  209.6580  150.7310 N   0  0  0  0  0  0  0  0  0  0  0  0
  161.6390  211.9740  150.1350 C   0  0  1  0  0  3  0  0  0  0  0  0
  161.9340  211.2000  148.8500 C   0  0  1  0  0  0  0  0  0  0  0  0
  158.6950  214.3300  148.9290 C   0  0  2  0  0  3  0  0  0  0  0  0
  160.2420  213.6140  148.3070 S   0  0  0  0  0  0  0  0  0  0  0  0
  159.2990  212.6070  150.5850 N   0  0  0  0  0  2  0  0  0  0  0  0
  160.5530  213.0540  150.0000 C   0  0  1  0  0  3  0  0  0  0  0  0
  158.2680  213.5440  150.1680 C   0  0  1  0  0  3  0  0  0  0  0  0
  157.6150  214.2830  147.8980 C   0  0  0  0  0  0  0  0  0  0  0  0
  156.4090  214.2450  148.2750 O   0  0  0  0  0  0  0  0  0  0  0  0
  157.9490  214.1990  146.5430 O   0  0  0  0  0  0  0  0  0  0  0  0
  157.9080  213.0220  145.7880 C   0  0  0  0  0  0  0  0  0  0  0  0
  156.9630  212.1950  145.9250 O   0  0  0  0  0  0  0  0  0  0  0  0
  159.9270  212.0890  144.9860 O   0  0  0  0  0  1  0  0  0  0  0  0
  158.9090  212.8020  144.7400 C   0  0  0  0  0  0  0  0  0  0  0  0
  158.7000  213.2770  143.4450 O   0  0  0  0  0  0  0  0  0  0  0  0
  157.8480  214.4520  151.3210 C   0  0  0  0  0  2  0  0  0  0  0  0
  158.8270  214.3730  152.4940 C   0  0  0  0  0  2  0  0  0  0  0  0
  158.1610  213.8550  153.6830 N   0  0  0  0  0  0  0  0  0  0  0  0
  156.4790  212.5600  155.6570 C   0  0  2  0  0  3  0  0  0  0  0  0
  158.6270  212.3950  156.9250 C   0  0  0  0  0  1  0  0  0  0  0  0
  155.9500  213.0850  154.3310 C   0  0  0  0  0  2  0  0  0  0  0  0
  159.9270  212.4230  154.2550 O   0  0  0  0  0  0  0  0  0  0  0  0
  156.7900  214.2820  153.9260 C   0  0  0  0  0  2  0  0  0  0  0  0
  157.9600  212.1390  155.5850 C   0  0  2  0  0  3  0  0  0  0  0  0
  158.7520  212.8160  154.4900 C   0  0  0  0  0  0  0  0  0  0  0  0
  155.6210  211.3870  156.0960 C   0  0  0  0  0  2  0  0  0  0  0  0
  155.4560  210.4030  154.9550 C   0  0  0  0  0  1  0  0  0  0  0  0
  160.1160  209.4970  153.2880 O   0  0  0  0  0  0  0  0  0  0  0  0
  161.0690  208.7190  153.0030 C   0  0  0  0  0  0  0  0  0  0  0  0
  161.6390  208.7480  151.6960 N   0  0  0  0  0  2  0  0  0  0  0  0
  161.5390  207.6960  153.9870 C   0  0  0  0  0  2  0  0  0  0  0  0
  162.0740  206.4520  153.2870 C   0  0  0  0  0  2  0  0  0  0  0  0
  159.8400  205.7500  153.4220 O   0  0  0  0  0  0  0  0  0  0  0  0
  160.9920  205.4140  153.1880 C   0  0  0  0  0  0  0  0  0  0  0  0
  161.2750  203.9760  152.8340 C   0  0  0  0  0  2  0  0  0  0  0  0
  161.6470  203.7880  151.3630 C   0  0  1  0  0  3  0  0  0  0  0  0
  161.1450  202.4910  150.7910 C   0  0  0  0  0  0  0  0  0  0  0  0
  161.8450  201.4480  150.9270 O   0  0  0  0  0  0  0  0  0  0  0  0
  159.9150  202.4350  150.1320 O   0  0  0  0  0  0  0  0  0  0  0  0
  159.5540  201.3400  149.3070 C   0  0  0  0  0  1  0  0  0  0  0  0
  161.2170  204.9880  150.5230 C   0  0  0  0  0  2  0  0  0  0  0  0
  161.3350  204.7190  149.1570 O   0  0  0  0  0  0  0  0  0  0  0  0
  161.2130  205.9690  148.5380 C   0  0  0  0  0  2  0  0  0  0  0  0
  163.4700  204.6960  145.2910 C   0  0  0  0  0  1  0  0  0  0  0  0
  161.9730  204.4650  145.1570 C   0  0  1  0  0  3  0  0  0  0  0  0
  160.4380  206.1310  144.8620 C   0  0  0  0  0  3  0  0  0  0  0  0
  160.2970  205.6750  146.2760 C   0  0  2  0  0  3  0  0  0  0  0  0
  161.5230  205.9250  147.0410 C   0  0  2  0  0  3  0  0  0  0  0  0
  161.2830  204.5800  146.4550 N   0  0  2  0  0  0  0  0  0  0  0  0
  161.3660  205.4460  144.2230 C   0  0  0  0  0  3  0  0  0  0  0  0
  1  5  1  0  0  0  0
  4  7  1  0  0  0  0
  5  3  1  0  0  0  0
  5 35  1  0  0  0  0
  6  3  1  1  0  0  0
  7  2  1  6  0  0  0
  7  1  1  0  0  0  0
  7  6  1  0  0  0  0
  8 13  1  6  0  0  0
  8 12  1  0  0  0  0
  9  8  1  0  0  0  0
 11  9  1  6  0  0  0
 11  6  1  0  0  0  0
 11 10  1  0  0  0  0
 12 10  1  0  0  0  0
 12 21  1  1  0  0  0
 13 14  2  0  0  0  0
 15 13  1  0  0  0  0
 16 17  2  0  0  0  0
 16 15  1  0  0  0  0
 19 18  1  0  0  0  0
 19 16  1  0  0  0  0
 20 19  2  0  0  0  0
 21 22  1  0  0  0  0
 22 23  1  0  0  0  0
 23 28  1  0  0  0  0
 23 30  1  0  0  0  0
 24 31  1  6  0  0  0
 26 24  1  0  0  0  0
 27 30  2  0  0  0  0
 28 26  1  0  0  0  0
 29 24  1  0  0  0  0
 29 25  1  1  0  0  0
 30 29  1  0  0  0  0
 32 31  1  0  0  0  0
 34 33  2  0  0  0  0
 34 36  1  0  0  0  0
 35 34  1  0  0  0  0
 37 36  1  0  0  0  0
 39 37  1  0  0  0  0
 39 38  2  0  0  0  0
 40 39  1  0  0  0  0
 41 46  1  6  0  0  0
 41 40  1  0  0  0  0
 42 43  2  0  0  0  0
 42 41  1  0  0  0  0
 44 42  1  0  0  0  0
 45 44  1  0  0  0  0
 47 46  1  0  0  0  0
 48 47  1  0  0  0  0
 50 49  1  1  0  0  0
 50 54  1  0  0  0  0
 52 51  1  6  0  0  0
 52 54  1  0  0  0  0
 52 53  1  0  0  0  0
 53 48  1  1  0  0  0
 54 53  1  0  0  0  0
 55 51  2  0  0  0  0
 55 50  1  0  0  0  0
M  END
>  <MODEL>
3

>  <REMARK>
 VINA RESULT:      -4.0      3.364      9.761
  Name = 
  21 active torsions:
  status: ('A' for Active; 'I' for Inactive)
    1  A    between atoms: C_1  and  C_2
    2  A    between atoms: C_1  and  O_8
    3  A    between atoms: N_3  and  C_29
    4  A    between atoms: C_4  and  C_6
    5  A    between atoms: O_8  and  C_24
    6  A    between atoms: C_9  and  C_24
    7  A    between atoms: C_11  and  C_46
    8  A    between atoms: C_12  and  C_26
    9  A    between atoms: C_12  and  C_53
   10  A    between atoms: C_15  and  C_16
   11  A    between atoms: C_15  and  C_25
   12  A    between atoms: C_15  and  C_37
   13  A    between atoms: C_16  and  C_51
   14  A    between atoms: C_25  and  O_33
   15  A    between atoms: C_26  and  C_51
   16  A    between atoms: C_27  and  C_29
   17  A    between atoms: C_27  and  C_49
   18  A    between atoms: C_31  and  C_47
   19  A    between atoms: N_36  and  N_54
   20  A    between atoms: C_37  and  O_41
   21  A    between atoms: O_41  and  C_47
                            x       y       z     vdW  Elec       q    Type
                         _______ _______ _______ _____ _____    ______ ____

>  <TORSDO>
F 21

$$$$
=
 OpenBabel11072412453D

 55 59  0  0  1  0  0  0  0  0999 V2000
  160.2250  213.5150  147.9370 S   0  0  0  0  0  0  0  0  0  0  0  0
  161.4850  214.4530  150.1690 C   0  0  0  0  0  1  0  0  0  0  0  0
  161.6460  211.3580  148.2350 C   0  0  0  0  0  2  0  0  0  0  0  0
  159.6580  212.9450  150.4310 O   0  0  0  0  0  1  0  0  0  0  0  0
  160.4260  211.7960  147.5640 N   0  0  0  0  0  0  0  0  0  0  0  0
  161.7510  212.0500  149.5880 C   0  0  1  0  0  3  0  0  0  0  0  0
  160.7730  213.2240  149.6380 C   0  0  1  0  0  0  0  0  0  0  0  0
  160.8870  210.2320  152.9960 C   0  0  2  0  0  3  0  0  0  0  0  0
  161.2570  211.8920  152.3640 S   0  0  0  0  0  0  0  0  0  0  0  0
  160.7330  210.0200  150.5450 N   0  0  0  0  0  2  0  0  0  0  0  0
  161.6750  211.0990  150.7920 C   0  0  1  0  0  3  0  0  0  0  0  0
  160.5050  209.3430  151.8130 C   0  0  1  0  0  3  0  0  0  0  0  0
  159.7770  210.2580  153.9940 C   0  0  0  0  0  0  0  0  0  0  0  0
  159.9780  209.7810  155.1470 O   0  0  0  0  0  0  0  0  0  0  0  0
  158.5150  210.7300  153.6200 O   0  0  0  0  0  0  0  0  0  0  0  0
  157.9320  211.9060  154.1050 C   0  0  0  0  0  0  0  0  0  0  0  0
  158.0130  212.9870  153.4560 O   0  0  0  0  0  0  0  0  0  0  0  0
  157.5360  212.4120  156.3800 O   0  0  0  0  0  1  0  0  0  0  0  0
  157.1160  211.8580  155.3220 C   0  0  0  0  0  0  0  0  0  0  0  0
  155.8360  211.3030  155.2980 O   0  0  0  0  0  0  0  0  0  0  0  0
  161.2050  207.9870  151.8480 C   0  0  0  0  0  2  0  0  0  0  0  0
  162.0910  207.7710  150.6190 C   0  0  0  0  0  2  0  0  0  0  0  0
  161.9590  206.4050  150.1290 N   0  0  0  0  0  0  0  0  0  0  0  0
  161.2520  203.6570  149.5370 C   0  0  2  0  0  3  0  0  0  0  0  0
  161.9320  204.3060  147.2200 C   0  0  0  0  0  1  0  0  0  0  0  0
  161.1420  204.2620  150.9280 C   0  0  0  0  0  2  0  0  0  0  0  0
  161.1610  207.0580  148.0240 O   0  0  0  0  0  0  0  0  0  0  0  0
  162.2160  205.3240  151.0690 C   0  0  0  0  0  2  0  0  0  0  0  0
  161.0830  204.7010  148.4150 C   0  0  2  0  0  3  0  0  0  0  0  0
  161.4150  206.1180  148.8240 C   0  0  0  0  0  0  0  0  0  0  0  0
  160.2090  202.5620  149.3950 C   0  0  0  0  0  2  0  0  0  0  0  0
  160.7360  201.2600  149.9630 C   0  0  0  0  0  1  0  0  0  0  0  0
  158.7310  212.8830  145.6490 O   0  0  0  0  0  0  0  0  0  0  0  0
  159.7550  212.2680  145.2430 C   0  0  0  0  0  0  0  0  0  0  0  0
  160.6680  211.7140  146.1870 N   0  0  0  0  0  2  0  0  0  0  0  0
  160.0780  212.2040  143.7840 C   0  0  0  0  0  2  0  0  0  0  0  0
  159.8330  213.5430  143.0980 C   0  0  0  0  0  2  0  0  0  0  0  0
  158.3180  213.2350  141.3340 O   0  0  0  0  0  0  0  0  0  0  0  0
  159.4960  213.3240  141.6510 C   0  0  0  0  0  0  0  0  0  0  0  0
  160.5500  213.1880  140.5810 C   0  0  0  0  0  2  0  0  0  0  0  0
  160.0030  212.6070  139.2770 C   0  0  1  0  0  3  0  0  0  0  0  0
  160.9510  212.7660  138.1210 C   0  0  0  0  0  0  0  0  0  0  0  0
  161.1490  213.9180  137.6410 O   0  0  0  0  0  0  0  0  0  0  0  0
  161.6170  211.6570  137.5920 O   0  0  0  0  0  0  0  0  0  0  0  0
  162.9420  211.3260  137.9710 C   0  0  0  0  0  1  0  0  0  0  0  0
  159.5580  211.1580  139.4590 C   0  0  0  0  0  2  0  0  0  0  0  0
  158.1640  211.0580  139.4980 O   0  0  0  0  0  0  0  0  0  0  0  0
  157.7980  210.7040  138.1930 C   0  0  0  0  0  2  0  0  0  0  0  0
  154.3650  208.7970  139.5500 C   0  0  0  0  0  1  0  0  0  0  0  0
  154.1920  210.2740  139.2330 C   0  0  1  0  0  3  0  0  0  0  0  0
  154.2210  211.1480  137.1220 C   0  0  0  0  0  3  0  0  0  0  0  0
  155.5230  211.5210  137.7500 C   0  0  2  0  0  3  0  0  0  0  0  0
  156.3190  210.3320  138.0710 C   0  0  2  0  0  3  0  0  0  0  0  0
  155.4900  210.9670  139.1270 N   0  0  2  0  0  0  0  0  0  0  0  0
  153.4630  210.4620  137.9550 C   0  0  0  0  0  3  0  0  0  0  0  0
  1  7  1  0  0  0  0
  5  1  1  0  0  0  0
  5  3  1  0  0  0  0
  6  3  1  6  0  0  0
  6  7  1  0  0  0  0
  6 11  1  0  0  0  0
  7  2  1  1  0  0  0
  7  4  1  0  0  0  0
  8 13  1  1  0  0  0
  9  8  1  0  0  0  0
 10 12  1  0  0  0  0
 11 10  1  6  0  0  0
 11  9  1  0  0  0  0
 12 21  1  6  0  0  0
 12  8  1  0  0  0  0
 13 14  2  0  0  0  0
 15 13  1  0  0  0  0
 15 16  1  0  0  0  0
 16 19  1  0  0  0  0
 17 16  2  0  0  0  0
 19 18  1  0  0  0  0
 20 19  2  0  0  0  0
 22 21  1  0  0  0  0
 23 22  1  0  0  0  0
 23 28  1  0  0  0  0
 24 31  1  6  0  0  0
 24 26  1  0  0  0  0
 26 28  1  0  0  0  0
 27 30  2  0  0  0  0
 29 25  1  6  0  0  0
 29 30  1  0  0  0  0
 29 24  1  0  0  0  0
 30 23  1  0  0  0  0
 31 32  1  0  0  0  0
 34 33  2  0  0  0  0
 34 35  1  0  0  0  0
 35  5  1  0  0  0  0
 36 34  1  0  0  0  0
 37 36  1  0  0  0  0
 38 39  2  0  0  0  0
 39 37  1  0  0  0  0
 40 39  1  0  0  0  0
 41 46  1  1  0  0  0
 41 40  1  0  0  0  0
 42 41  1  0  0  0  0
 43 42  2  0  0  0  0
 44 45  1  0  0  0  0
 44 42  1  0  0  0  0
 46 47  1  0  0  0  0
 48 47  1  0  0  0  0
 50 49  1  6  0  0  0
 51 55  2  0  0  0  0
 52 51  1  6  0  0  0
 52 53  1  0  0  0  0
 52 54  1  0  0  0  0
 53 48  1  1  0  0  0
 53 54  1  0  0  0  0
 54 50  1  0  0  0  0
 55 50  1  0  0  0  0
M  END
>  <MODEL>
4

>  <REMARK>
 VINA RESULT:      -3.1      2.788      4.580
  Name = 
  21 active torsions:
  status: ('A' for Active; 'I' for Inactive)
    1  A    between atoms: C_1  and  C_2
    2  A    between atoms: C_1  and  O_8
    3  A    between atoms: N_3  and  C_29
    4  A    between atoms: C_4  and  C_6
    5  A    between atoms: O_8  and  C_24
    6  A    between atoms: C_9  and  C_24
    7  A    between atoms: C_11  and  C_46
    8  A    between atoms: C_12  and  C_26
    9  A    between atoms: C_12  and  C_53
   10  A    between atoms: C_15  and  C_16
   11  A    between atoms: C_15  and  C_25
   12  A    between atoms: C_15  and  C_37
   13  A    between atoms: C_16  and  C_51
   14  A    between atoms: C_25  and  O_33
   15  A    between atoms: C_26  and  C_51
   16  A    between atoms: C_27  and  C_29
   17  A    between atoms: C_27  and  C_49
   18  A    between atoms: C_31  and  C_47
   19  A    between atoms: N_36  and  N_54
   20  A    between atoms: C_37  and  O_41
   21  A    between atoms: O_41  and  C_47
                            x       y       z     vdW  Elec       q    Type
                         _______ _______ _______ _____ _____    ______ ____

>  <TORSDO>
F 21

$$$$
=
 OpenBabel11072412453D

 55 59  0  0  1  0  0  0  0  0999 V2000
  162.5310  208.2050  152.2750 S   0  0  0  0  0  0  0  0  0  0  0  0
  160.6090  207.8210  154.1750 C   0  0  0  0  0  1  0  0  0  0  0  0
  160.7130  209.4800  150.9220 C   0  0  0  0  0  2  0  0  0  0  0  0
  161.7380  209.9180  154.0920 O   0  0  0  0  0  1  0  0  0  0  0  0
  162.1670  209.3650  150.9880 N   0  0  0  0  0  0  0  0  0  0  0  0
  160.1410  209.4230  152.3320 C   0  0  1  0  0  3  0  0  0  0  0  0
  161.2070  208.9010  153.2950 C   0  0  1  0  0  0  0  0  0  0  0  0
  158.6740  212.4840  154.3690 C   0  0  2  0  0  3  0  0  0  0  0  0
  158.7830  210.6770  154.4690 S   0  0  0  0  0  0  0  0  0  0  0  0
  160.3330  211.8590  152.6560 N   0  0  0  0  0  2  0  0  0  0  0  0
  159.4440  210.7160  152.7850 C   0  0  1  0  0  3  0  0  0  0  0  0
  159.7150  212.9720  153.3610 C   0  0  1  0  0  3  0  0  0  0  0  0
  158.9130  213.1240  155.6970 C   0  0  0  0  0  0  0  0  0  0  0  0
  160.0580  213.0320  156.2250 O   0  0  0  0  0  0  0  0  0  0  0  0
  157.8550  213.7390  156.3740 O   0  0  0  0  0  0  0  0  0  0  0  0
  156.5540  213.2280  156.4420 C   0  0  0  0  0  0  0  0  0  0  0  0
  156.2570  212.3130  157.2610 O   0  0  0  0  0  0  0  0  0  0  0  0
  155.5230  213.7380  154.3770 O   0  0  0  0  0  0  0  0  0  0  0  0
  155.4940  213.8440  155.6380 C   0  0  0  0  0  0  0  0  0  0  0  0
  154.3980  214.4510  156.2510 O   0  0  0  0  0  1  0  0  0  0  0  0
  159.1480  213.9980  152.3840 C   0  0  0  0  0  2  0  0  0  0  0  0
  158.2860  213.3410  151.3030 C   0  0  0  0  0  2  0  0  0  0  0  0
  158.8320  213.6120  149.9790 N   0  0  0  0  0  0  0  0  0  0  0  0
  160.2720  213.6950  147.4650 C   0  0  2  0  0  3  0  0  0  0  0  0
  158.0440  214.3890  146.5680 C   0  0  0  0  0  1  0  0  0  0  0  0
  160.9240  213.3080  148.7830 C   0  0  0  0  0  2  0  0  0  0  0  0
  156.9170  212.8640  148.8520 O   0  0  0  0  0  0  0  0  0  0  0  0
  160.2170  214.0530  149.8990 C   0  0  0  0  0  2  0  0  0  0  0  0
  158.7670  213.3630  147.4220 C   0  0  2  0  0  3  0  0  0  0  0  0
  158.1050  213.2800  148.7780 C   0  0  0  0  0  0  0  0  0  0  0  0
  160.9970  212.9870  146.3340 C   0  0  0  0  0  2  0  0  0  0  0  0
  160.0250  212.6410  145.2240 C   0  0  0  0  0  1  0  0  0  0  0  0
  160.8300  207.2380  149.7980 O   0  0  0  0  0  0  0  0  0  0  0  0
  161.8730  207.6660  149.2310 C   0  0  0  0  0  0  0  0  0  0  0  0
  162.5800  208.7710  149.7890 N   0  0  0  0  0  2  0  0  0  0  0  0
  162.3180  207.0940  147.9220 C   0  0  0  0  0  2  0  0  0  0  0  0
  161.6710  205.7400  147.6550 C   0  0  0  0  0  2  0  0  0  0  0  0
  162.1320  206.1300  145.3880 O   0  0  0  0  0  0  0  0  0  0  0  0
  161.9930  205.2840  146.2600 C   0  0  0  0  0  0  0  0  0  0  0  0
  162.1270  203.8290  145.8910 C   0  0  0  0  0  2  0  0  0  0  0  0
  160.8940  203.0040  146.2640 C   0  0  1  0  0  3  0  0  0  0  0  0
  160.2450  202.3490  145.0760 C   0  0  0  0  0  0  0  0  0  0  0  0
  159.5130  203.0430  144.3150 O   0  0  0  0  0  0  0  0  0  0  0  0
  160.4590  200.9950  144.8070 O   0  0  0  0  0  0  0  0  0  0  0  0
  159.4710  200.0120  145.0680 C   0  0  0  0  0  1  0  0  0  0  0  0
  161.2120  202.0000  147.3690 C   0  0  0  0  0  2  0  0  0  0  0  0
  160.5390  202.3200  148.5520 O   0  0  0  0  0  0  0  0  0  0  0  0
  161.2720  201.6810  149.5600 C   0  0  0  0  0  2  0  0  0  0  0  0
  162.9480  204.8940  151.5920 C   0  0  0  0  0  1  0  0  0  0  0  0
  161.4310  204.8200  151.6540 C   0  0  1  0  0  3  0  0  0  0  0  0
  160.2680  203.2440  152.8300 C   0  0  0  0  0  3  0  0  0  0  0  0
  160.1420  202.8730  151.3890 C   0  0  2  0  0  3  0  0  0  0  0  0
  161.4490  202.5490  150.8070 C   0  0  2  0  0  3  0  0  0  0  0  0
  160.8840  203.9110  150.6310 N   0  0  2  0  0  0  0  0  0  0  0  0
  160.9770  204.3450  152.9850 C   0  0  0  0  0  3  0  0  0  0  0  0
  1  7  1  0  0  0  0
  3  5  1  0  0  0  0
  5  1  1  0  0  0  0
  6  3  1  6  0  0  0
  6 11  1  0  0  0  0
  6  7  1  0  0  0  0
  7  4  1  0  0  0  0
  7  2  1  1  0  0  0
  8  9  1  0  0  0  0
  8 13  1  1  0  0  0
 10 12  1  0  0  0  0
 11 10  1  1  0  0  0
 11  9  1  0  0  0  0
 12 21  1  6  0  0  0
 12  8  1  0  0  0  0
 13 14  2  0  0  0  0
 13 15  1  0  0  0  0
 15 16  1  0  0  0  0
 16 17  2  0  0  0  0
 18 19  2  0  0  0  0
 19 20  1  0  0  0  0
 19 16  1  0  0  0  0
 22 21  1  0  0  0  0
 23 22  1  0  0  0  0
 24 31  1  6  0  0  0
 24 26  1  0  0  0  0
 26 28  1  0  0  0  0
 28 23  1  0  0  0  0
 29 25  1  6  0  0  0
 29 24  1  0  0  0  0
 29 30  1  0  0  0  0
 30 27  2  0  0  0  0
 30 23  1  0  0  0  0
 32 31  1  0  0  0  0
 34 35  1  0  0  0  0
 34 33  2  0  0  0  0
 35  5  1  0  0  0  0
 36 34  1  0  0  0  0
 37 36  1  0  0  0  0
 38 39  2  0  0  0  0
 39 37  1  0  0  0  0
 40 39  1  0  0  0  0
 41 40  1  6  0  0  0
 41 46  1  0  0  0  0
 42 41  1  0  0  0  0
 43 42  2  0  0  0  0
 44 45  1  0  0  0  0
 44 42  1  0  0  0  0
 46 47  1  0  0  0  0
 47 48  1  0  0  0  0
 50 49  1  1  0  0  0
 50 55  1  0  0  0  0
 51 55  2  0  0  0  0
 52 51  1  1  0  0  0
 53 48  1  6  0  0  0
 53 52  1  0  0  0  0
 54 53  1  0  0  0  0
 54 52  1  0  0  0  0
 54 50  1  0  0  0  0
M  END
>  <MODEL>
5

>  <REMARK>
 VINA RESULT:      -2.9      3.774      9.291
  Name = 
  21 active torsions:
  status: ('A' for Active; 'I' for Inactive)
    1  A    between atoms: C_1  and  C_2
    2  A    between atoms: C_1  and  O_8
    3  A    between atoms: N_3  and  C_29
    4  A    between atoms: C_4  and  C_6
    5  A    between atoms: O_8  and  C_24
    6  A    between atoms: C_9  and  C_24
    7  A    between atoms: C_11  and  C_46
    8  A    between atoms: C_12  and  C_26
    9  A    between atoms: C_12  and  C_53
   10  A    between atoms: C_15  and  C_16
   11  A    between atoms: C_15  and  C_25
   12  A    between atoms: C_15  and  C_37
   13  A    between atoms: C_16  and  C_51
   14  A    between atoms: C_25  and  O_33
   15  A    between atoms: C_26  and  C_51
   16  A    between atoms: C_27  and  C_29
   17  A    between atoms: C_27  and  C_49
   18  A    between atoms: C_31  and  C_47
   19  A    between atoms: N_36  and  N_54
   20  A    between atoms: C_37  and  O_41
   21  A    between atoms: O_41  and  C_47
                            x       y       z     vdW  Elec       q    Type
                         _______ _______ _______ _____ _____    ______ ____

>  <TORSDO>
F 21

$$$$
=
 OpenBabel11072412453D

 55 59  0  0  1  0  0  0  0  0999 V2000
  162.6600  207.9690  152.1460 S   0  0  0  0  0  0  0  0  0  0  0  0
  160.6800  207.5470  153.9760 C   0  0  0  0  0  1  0  0  0  0  0  0
  160.8770  209.2400  150.7450 C   0  0  0  0  0  2  0  0  0  0  0  0
  161.7900  209.6560  153.9520 O   0  0  0  0  0  1  0  0  0  0  0  0
  162.3280  209.1380  150.8580 N   0  0  0  0  0  0  0  0  0  0  0  0
  160.2580  209.1630  152.1350 C   0  0  1  0  0  3  0  0  0  0  0  0
  161.2960  208.6420  153.1280 C   0  0  1  0  0  0  0  0  0  0  0  0
  158.4570  212.0560  154.1480 C   0  0  2  0  0  3  0  0  0  0  0  0
  158.4380  210.2480  154.0040 S   0  0  0  0  0  0  0  0  0  0  0  0
  160.4830  211.5100  152.8550 N   0  0  0  0  0  2  0  0  0  0  0  0
  159.5330  210.4450  152.5760 C   0  0  1  0  0  3  0  0  0  0  0  0
  159.7560  212.5730  153.5310 C   0  0  1  0  0  3  0  0  0  0  0  0
  158.3580  212.4950  155.5720 C   0  0  0  0  0  0  0  0  0  0  0  0
  157.7690  213.5810  155.8400 O   0  0  0  0  0  0  0  0  0  0  0  0
  158.9860  211.7500  156.5760 O   0  0  0  0  0  0  0  0  0  0  0  0
  160.3200  211.9080  156.9640 C   0  0  0  0  0  0  0  0  0  0  0  0
  160.7790  213.0470  157.2610 O   0  0  0  0  0  0  0  0  0  0  0  0
  160.6470  209.5700  157.0930 O   0  0  0  0  0  0  0  0  0  0  0  0
  161.1650  210.7250  157.1430 C   0  0  0  0  0  0  0  0  0  0  0  0
  162.5500  210.8500  157.2590 O   0  0  0  0  0  1  0  0  0  0  0  0
  159.5310  213.7640  152.6030 C   0  0  0  0  0  2  0  0  0  0  0  0
  158.3870  213.5110  151.6180 C   0  0  0  0  0  2  0  0  0  0  0  0
  158.8460  213.6870  150.2460 N   0  0  0  0  0  0  0  0  0  0  0  0
  160.0870  213.5620  147.6290 C   0  0  2  0  0  3  0  0  0  0  0  0
  157.8520  214.3890  146.8720 C   0  0  0  0  0  1  0  0  0  0  0  0
  160.8110  213.1780  148.9110 C   0  0  0  0  0  2  0  0  0  0  0  0
  156.7990  213.0440  149.3010 O   0  0  0  0  0  0  0  0  0  0  0  0
  160.2490  214.0190  150.0430 C   0  0  0  0  0  2  0  0  0  0  0  0
  158.5630  213.3450  147.7140 C   0  0  2  0  0  3  0  0  0  0  0  0
  158.0050  213.3650  149.1190 C   0  0  0  0  0  0  0  0  0  0  0  0
  160.6680  212.7580  146.4800 C   0  0  0  0  0  2  0  0  0  0  0  0
  161.9630  213.3850  146.0040 C   0  0  0  0  0  1  0  0  0  0  0  0
  160.8630  207.2810  149.3990 O   0  0  0  0  0  0  0  0  0  0  0  0
  162.0080  207.5940  148.9680 C   0  0  0  0  0  0  0  0  0  0  0  0
  162.7880  208.5610  149.6690 N   0  0  0  0  0  2  0  0  0  0  0  0
  162.5130  207.0400  147.6740 C   0  0  0  0  0  2  0  0  0  0  0  0
  161.6630  205.8670  147.1990 C   0  0  0  0  0  2  0  0  0  0  0  0
  162.6820  206.1640  145.1070 O   0  0  0  0  0  0  0  0  0  0  0  0
  162.1760  205.3630  145.8800 C   0  0  0  0  0  0  0  0  0  0  0  0
  162.0720  203.9170  145.4660 C   0  0  0  0  0  2  0  0  0  0  0  0
  160.8870  203.1970  146.1110 C   0  0  1  0  0  3  0  0  0  0  0  0
  160.2770  202.1530  145.2170 C   0  0  0  0  0  0  0  0  0  0  0  0
  159.1660  202.3910  144.6640 O   0  0  0  0  0  0  0  0  0  0  0  0
  160.9350  200.9430  144.9890 O   0  0  0  0  0  0  0  0  0  0  0  0
  160.3980  199.9450  144.1360 C   0  0  0  0  0  1  0  0  0  0  0  0
  161.2590  202.6340  147.4800 C   0  0  0  0  0  2  0  0  0  0  0  0
  160.6560  201.3910  147.6970 O   0  0  0  0  0  0  0  0  0  0  0  0
  160.9700  201.0730  149.0240 C   0  0  0  0  0  2  0  0  0  0  0  0
  160.2140  204.9850  150.1990 C   0  0  0  0  0  1  0  0  0  0  0  0
  160.2730  203.9770  151.3360 C   0  0  1  0  0  3  0  0  0  0  0  0
  162.1860  202.9510  152.0460 C   0  0  0  0  0  3  0  0  0  0  0  0
  161.4150  201.9230  151.2870 C   0  0  2  0  0  3  0  0  0  0  0  0
  161.2580  202.3070  149.8800 C   0  0  2  0  0  3  0  0  0  0  0  0
  160.1650  202.5910  150.8450 N   0  0  2  0  0  0  0  0  0  0  0  0
  161.5440  204.1020  152.0910 C   0  0  0  0  0  3  0  0  0  0  0  0
  1  7  1  0  0  0  0
  3  5  1  0  0  0  0
  5  1  1  0  0  0  0
  6  3  1  6  0  0  0
  6 11  1  0  0  0  0
  6  7  1  0  0  0  0
  7  4  1  0  0  0  0
  7  2  1  1  0  0  0
  8 13  1  1  0  0  0
  9  8  1  0  0  0  0
 10 12  1  0  0  0  0
 11 10  1  1  0  0  0
 11  9  1  0  0  0  0
 12 21  1  6  0  0  0
 12  8  1  0  0  0  0
 13 14  2  0  0  0  0
 13 15  1  0  0  0  0
 15 16  1  0  0  0  0
 16 19  1  0  0  0  0
 16 17  2  0  0  0  0
 18 19  2  0  0  0  0
 19 20  1  0  0  0  0
 22 21  1  0  0  0  0
 23 22  1  0  0  0  0
 24 31  1  6  0  0  0
 24 29  1  0  0  0  0
 24 26  1  0  0  0  0
 26 28  1  0  0  0  0
 28 23  1  0  0  0  0
 29 25  1  6  0  0  0
 29 30  1  0  0  0  0
 30 27  2  0  0  0  0
 30 23  1  0  0  0  0
 32 31  1  0  0  0  0
 34 33  2  0  0  0  0
 34 35  1  0  0  0  0
 35  5  1  0  0  0  0
 36 34  1  0  0  0  0
 37 36  1  0  0  0  0
 38 39  2  0  0  0  0
 39 37  1  0  0  0  0
 40 39  1  0  0  0  0
 41 40  1  6  0  0  0
 41 46  1  0  0  0  0
 42 41  1  0  0  0  0
 43 42  2  0  0  0  0
 44 42  1  0  0  0  0
 45 44  1  0  0  0  0
 46 47  1  0  0  0  0
 47 48  1  0  0  0  0
 50 49  1  6  0  0  0
 50 55  1  0  0  0  0
 51 55  2  0  0  0  0
 52 51  1  1  0  0  0
 53 48  1  6  0  0  0
 53 54  1  0  0  0  0
 53 52  1  0  0  0  0
 54 52  1  0  0  0  0
 54 50  1  0  0  0  0
M  END
>  <MODEL>
6

>  <REMARK>
 VINA RESULT:      -2.4      3.917      9.116
  Name = 
  21 active torsions:
  status: ('A' for Active; 'I' for Inactive)
    1  A    between atoms: C_1  and  C_2
    2  A    between atoms: C_1  and  O_8
    3  A    between atoms: N_3  and  C_29
    4  A    between atoms: C_4  and  C_6
    5  A    between atoms: O_8  and  C_24
    6  A    between atoms: C_9  and  C_24
    7  A    between atoms: C_11  and  C_46
    8  A    between atoms: C_12  and  C_26
    9  A    between atoms: C_12  and  C_53
   10  A    between atoms: C_15  and  C_16
   11  A    between atoms: C_15  and  C_25
   12  A    between atoms: C_15  and  C_37
   13  A    between atoms: C_16  and  C_51
   14  A    between atoms: C_25  and  O_33
   15  A    between atoms: C_26  and  C_51
   16  A    between atoms: C_27  and  C_29
   17  A    between atoms: C_27  and  C_49
   18  A    between atoms: C_31  and  C_47
   19  A    between atoms: N_36  and  N_54
   20  A    between atoms: C_37  and  O_41
   21  A    between atoms: O_41  and  C_47
                            x       y       z     vdW  Elec       q    Type
                         _______ _______ _______ _____ _____    ______ ____

>  <TORSDO>
F 21

$$$$
=
 OpenBabel11072412453D

 55 59  0  0  1  0  0  0  0  0999 V2000
  161.2560  203.6510  152.4460 S   0  0  0  0  0  0  0  0  0  0  0  0
  160.4180  205.4650  154.3040 C   0  0  0  0  0  1  0  0  0  0  0  0
  160.7650  205.4840  150.6680 C   0  0  0  0  0  2  0  0  0  0  0  0
  162.6370  205.6360  153.4540 O   0  0  0  0  0  1  0  0  0  0  0  0
  161.5390  204.2550  150.8050 N   0  0  0  0  0  0  0  0  0  0  0  0
  160.8110  206.2560  151.9800 C   0  0  1  0  0  3  0  0  0  0  0  0
  161.3210  205.3410  153.0930 C   0  0  1  0  0  0  0  0  0  0  0  0
  162.0720  209.8700  150.9730 C   0  0  2  0  0  3  0  0  0  0  0  0
  161.7170  208.2630  150.2110 S   0  0  0  0  0  0  0  0  0  0  0  0
  160.8450  208.6120  152.7020 N   0  0  0  0  0  2  0  0  0  0  0  0
  161.5230  207.6150  151.8890 C   0  0  1  0  0  3  0  0  0  0  0  0
  161.3950  209.9110  152.3420 C   0  0  1  0  0  3  0  0  0  0  0  0
  161.5810  211.0000  150.1270 C   0  0  0  0  0  0  0  0  0  0  0  0
  160.7840  211.8410  150.6320 O   0  0  0  0  0  0  0  0  0  0  0  0
  161.9380  211.0650  148.7770 O   0  0  0  0  0  0  0  0  0  0  0  0
  161.9240  212.2350  148.0090 C   0  0  0  0  0  0  0  0  0  0  0  0
  162.9630  212.9420  147.8830 O   0  0  0  0  0  0  0  0  0  0  0  0
  160.1040  213.6580  147.5040 O   0  0  0  0  0  1  0  0  0  0  0  0
  160.7210  212.5830  147.2470 C   0  0  0  0  0  0  0  0  0  0  0  0
  160.3120  211.7970  146.1690 O   0  0  0  0  0  0  0  0  0  0  0  0
  162.3170  210.4430  153.4360 C   0  0  0  0  0  2  0  0  0  0  0  0
  161.7090  210.2660  154.8300 C   0  0  0  0  0  2  0  0  0  0  0  0
  160.5530  211.1380  154.9980 N   0  0  0  0  0  0  0  0  0  0  0  0
  158.1150  212.6920  154.7900 C   0  0  2  0  0  3  0  0  0  0  0  0
  157.9510  212.1860  157.2330 C   0  0  0  0  0  1  0  0  0  0  0  0
  159.0300  212.4190  153.6060 C   0  0  0  0  0  2  0  0  0  0  0  0
  159.5300  209.7550  156.5910 O   0  0  0  0  0  0  0  0  0  0  0  0
  160.4510  212.2970  154.1230 C   0  0  0  0  0  2  0  0  0  0  0  0
  158.1720  211.5810  155.8580 C   0  0  2  0  0  3  0  0  0  0  0  0
  159.4540  210.7790  155.8600 C   0  0  0  0  0  0  0  0  0  0  0  0
  156.6940  212.8570  154.2810 C   0  0  0  0  0  2  0  0  0  0  0  0
  156.6980  213.1010  152.7850 C   0  0  0  0  0  1  0  0  0  0  0  0
  161.5450  204.5440  148.0410 O   0  0  0  0  0  0  0  0  0  0  0  0
  160.9790  203.5240  148.5220 C   0  0  0  0  0  0  0  0  0  0  0  0
  160.9710  203.3180  149.9330 N   0  0  0  0  0  2  0  0  0  0  0  0
  160.4080  202.4740  147.6230 C   0  0  0  0  0  2  0  0  0  0  0  0
  161.3900  202.0850  146.5240 C   0  0  0  0  0  2  0  0  0  0  0  0
  162.6790  203.8990  145.7820 O   0  0  0  0  0  0  0  0  0  0  0  0
  161.6470  203.2620  145.6260 C   0  0  0  0  0  0  0  0  0  0  0  0
  160.6750  203.6990  144.5590 C   0  0  0  0  0  2  0  0  0  0  0  0
  160.6610  205.2140  144.3510 C   0  0  1  0  0  3  0  0  0  0  0  0
  160.7510  205.9840  145.6400 C   0  0  0  0  0  0  0  0  0  0  0  0
  159.7570  205.9960  146.4190 O   0  0  0  0  0  0  0  0  0  0  0  0
  161.9220  206.6660  145.9780 O   0  0  0  0  0  0  0  0  0  0  0  0
  162.2100  207.0470  147.3130 C   0  0  0  0  0  1  0  0  0  0  0  0
  161.7290  205.6460  143.3490 C   0  0  0  0  0  2  0  0  0  0  0  0
  161.1530  206.0780  142.1510 O   0  0  0  0  0  0  0  0  0  0  0  0
  162.2280  206.5700  141.4000 C   0  0  0  0  0  2  0  0  0  0  0  0
  160.4110  210.0140  139.9480 C   0  0  0  0  0  1  0  0  0  0  0  0
  161.8170  209.7650  139.4260 C   0  0  1  0  0  3  0  0  0  0  0  0
  162.3690  208.0970  137.9660 C   0  0  0  0  0  3  0  0  0  0  0  0
  162.8810  207.6730  139.3020 C   0  0  2  0  0  3  0  0  0  0  0  0
  161.7850  207.4880  140.2580 C   0  0  2  0  0  3  0  0  0  0  0  0
  162.5360  208.7690  140.2420 N   0  0  2  0  0  0  0  0  0  0  0  0
  161.7840  209.2770  138.0250 C   0  0  0  0  0  3  0  0  0  0  0  0
  1  7  1  0  0  0  0
  3  5  1  0  0  0  0
  5  1  1  0  0  0  0
  6  3  1  6  0  0  0
  6  7  1  0  0  0  0
  7  4  1  0  0  0  0
  7  2  1  1  0  0  0
  8 13  1  6  0  0  0
  8 12  1  0  0  0  0
  9  8  1  0  0  0  0
 11  9  1  6  0  0  0
 11  6  1  0  0  0  0
 11 10  1  0  0  0  0
 12 10  1  0  0  0  0
 12 21  1  1  0  0  0
 13 14  2  0  0  0  0
 15 13  1  0  0  0  0
 16 15  1  0  0  0  0
 17 16  2  0  0  0  0
 19 18  1  0  0  0  0
 19 16  1  0  0  0  0
 20 19  2  0  0  0  0
 21 22  1  0  0  0  0
 22 23  1  0  0  0  0
 23 30  1  0  0  0  0
 24 31  1  6  0  0  0
 24 29  1  0  0  0  0
 26 28  1  0  0  0  0
 26 24  1  0  0  0  0
 28 23  1  0  0  0  0
 29 30  1  0  0  0  0
 29 25  1  1  0  0  0
 30 27  2  0  0  0  0
 32 31  1  0  0  0  0
 33 34  2  0  0  0  0
 34 35  1  0  0  0  0
 35  5  1  0  0  0  0
 36 34  1  0  0  0  0
 37 36  1  0  0  0  0
 39 38  2  0  0  0  0
 39 37  1  0  0  0  0
 40 39  1  0  0  0  0
 41 46  1  6  0  0  0
 41 40  1  0  0  0  0
 41 42  1  0  0  0  0
 42 44  1  0  0  0  0
 42 43  2  0  0  0  0
 44 45  1  0  0  0  0
 47 46  1  0  0  0  0
 48 47  1  0  0  0  0
 50 49  1  1  0  0  0
 50 54  1  0  0  0  0
 51 55  2  0  0  0  0
 52 51  1  6  0  0  0
 52 54  1  0  0  0  0
 52 53  1  0  0  0  0
 53 48  1  1  0  0  0
 54 53  1  0  0  0  0
 55 50  1  0  0  0  0
M  END
>  <MODEL>
7

>  <REMARK>
 VINA RESULT:      -2.4      2.718      7.820
  Name = 
  21 active torsions:
  status: ('A' for Active; 'I' for Inactive)
    1  A    between atoms: C_1  and  C_2
    2  A    between atoms: C_1  and  O_8
    3  A    between atoms: N_3  and  C_29
    4  A    between atoms: C_4  and  C_6
    5  A    between atoms: O_8  and  C_24
    6  A    between atoms: C_9  and  C_24
    7  A    between atoms: C_11  and  C_46
    8  A    between atoms: C_12  and  C_26
    9  A    between atoms: C_12  and  C_53
   10  A    between atoms: C_15  and  C_16
   11  A    between atoms: C_15  and  C_25
   12  A    between atoms: C_15  and  C_37
   13  A    between atoms: C_16  and  C_51
   14  A    between atoms: C_25  and  O_33
   15  A    between atoms: C_26  and  C_51
   16  A    between atoms: C_27  and  C_29
   17  A    between atoms: C_27  and  C_49
   18  A    between atoms: C_31  and  C_47
   19  A    between atoms: N_36  and  N_54
   20  A    between atoms: C_37  and  O_41
   21  A    between atoms: O_41  and  C_47
                            x       y       z     vdW  Elec       q    Type
                         _______ _______ _______ _____ _____    ______ ____

>  <TORSDO>
F 21

$$$$
