=
 OpenBabel11072410203D

 33 38  0  0  1  0  0  0  0  0999 V2000
  158.3630  212.0150  152.7630 C   0  0  0  0  0  3  0  0  0  0  0  0
  157.6840  212.0920  155.1060 C   0  0  0  0  0  3  0  0  0  0  0  0
  159.4580  210.6210  154.4240 C   0  0  0  0  0  0  0  0  0  0  0  0
  159.3080  211.0500  153.1060 C   0  0  0  0  0  0  0  0  0  0  0  0
  160.7960  209.4400  154.6220 P   0  0  1  0  0  4  0  0  0  0  0  0
  162.2680  209.5190  152.2260 N   0  0  0  0  0  0  0  0  0  0  0  0
  157.5430  212.5340  153.7770 C   0  0  0  0  0  3  0  0  0  0  0  0
  160.2690  210.3930  152.2290 C   0  0  0  0  0  0  0  0  0  0  0  0
  158.6510  211.1310  155.4370 C   0  0  0  0  0  3  0  0  0  0  0  0
  161.0910  209.5320  152.8690 C   0  0  2  0  0  3  0  0  0  0  0  0
  160.9160  210.9030  151.1710 N   0  0  0  0  0  0  0  0  0  0  0  0
  162.1100  210.3160  151.1720 N   0  0  0  0  0  0  0  0  0  0  0  0
  164.1630  211.2200  155.9660 C   0  0  0  0  0  3  0  0  0  0  0  0
  163.8640  210.7950  157.2600 C   0  0  0  0  0  3  0  0  0  0  0  0
  163.2250  210.8360  154.9980 C   0  0  0  0  0  3  0  0  0  0  0  0
  162.4200  209.9330  157.1840 S   0  0  0  0  0  0  0  0  0  0  0  0
  162.1790  210.1090  155.5380 C   0  0  0  0  0  0  0  0  0  0  0  0
  160.1880  207.8200  155.1150 C   0  0  0  0  0  0  0  0  0  0  0  0
  159.4110  207.7450  156.1000 O   0  0  0  0  0  0  0  0  0  0  0  0
  160.5650  206.6140  154.4390 N   0  0  0  0  0  2  0  0  0  0  0  0
  161.4400  206.5470  153.2810 C   0  0  0  0  0  2  0  0  0  0  0  0
  161.4290  205.1510  152.6850 C   0  0  0  0  0  2  0  0  0  0  0  0
  160.7230  202.6410  148.4360 C   0  0  0  0  0  3  0  0  0  0  0  0
  160.9020  205.0760  148.1270 C   0  0  0  0  0  2  0  0  0  0  0  0
  161.4870  207.1060  149.4850 C   0  0  0  0  0  2  0  0  0  0  0  0
  161.9740  206.1100  148.4340 C   0  0  0  0  0  2  0  0  0  0  0  0
  160.7170  201.4660  149.1860 C   0  0  0  0  0  3  0  0  0  0  0  0
  160.7670  206.4360  150.6540 C   0  0  0  0  0  2  0  0  0  0  0  0
  160.9580  201.5170  150.5570 C   0  0  0  0  0  3  0  0  0  0  0  0
  161.5590  205.2380  151.1650 C   0  0  2  0  0  3  0  0  0  0  0  0
  161.1980  202.7440  151.1750 C   0  0  0  0  0  3  0  0  0  0  0  0
  161.1900  203.9460  150.4460 C   0  0  0  0  0  0  0  0  0  0  0  0
  160.9740  203.8790  149.0370 C   0  0  0  0  0  0  0  0  0  0  0  0
  1  4  2  0  0  0  0
  1  7  1  0  0  0  0
  2  9  1  0  0  0  0
  3  5  1  0  0  0  0
  3  9  2  0  0  0  0
  4  3  1  0  0  0  0
  5 18  1  1  0  0  0
  5 17  1  0  0  0  0
  7  2  2  0  0  0  0
  8 10  1  0  0  0  0
  8  4  1  0  0  0  0
 10  6  1  1  0  0  0
 10  5  1  0  0  0  0
 11 12  1  0  0  0  0
 11  8  2  0  0  0  0
 12  6  2  0  0  0  0
 13 14  2  0  0  0  0
 15 17  2  0  0  0  0
 15 13  1  0  0  0  0
 16 14  1  0  0  0  0
 17 16  1  0  0  0  0
 18 19  2  0  0  0  0
 20 18  1  0  0  0  0
 21 20  1  0  0  0  0
 22 21  1  0  0  0  0
 23 33  2  0  0  0  0
 23 27  1  0  0  0  0
 24 26  1  0  0  0  0
 24 33  1  0  0  0  0
 25 28  1  0  0  0  0
 26 25  1  0  0  0  0
 27 29  2  0  0  0  0
 28 30  1  0  0  0  0
 29 31  1  0  0  0  0
 30 22  1  1  0  0  0
 32 30  1  0  0  0  0
 32 31  2  0  0  0  0
 33 32  1  0  0  0  0
M  END
>  <MODEL>
1

>  <REMARK>
 VINA RESULT:      -8.4      0.000      0.000
  Name = 
  5 active torsions:
  status: ('A' for Active; 'I' for Inactive)
    1  A    between atoms: C_8  and  C_21
    2  A    between atoms: C_8  and  C_32
    3  A    between atoms: C_15  and  P_16
    4  A    between atoms: P_16  and  C_29
    5  A    between atoms: N_19  and  C_32
                            x       y       z     vdW  Elec       q    Type
                         _______ _______ _______ _____ _____    ______ ____

>  <TORSDO>
F 5

$$$$
=
 OpenBabel11072410203D

 33 38  0  0  1  0  0  0  0  0999 V2000
  155.8850  212.4530  156.0750 C   0  0  0  0  0  3  0  0  0  0  0  0
  155.6620  210.2950  154.9580 C   0  0  0  0  0  3  0  0  0  0  0  0
  157.7850  211.4210  154.9670 C   0  0  0  0  0  0  0  0  0  0  0  0
  157.2240  212.4730  155.6880 C   0  0  0  0  0  0  0  0  0  0  0  0
  159.5400  211.6420  154.6670 P   0  0  1  0  0  4  0  0  0  0  0  0
  160.3580  213.7560  156.3330 N   0  0  0  0  0  0  0  0  0  0  0  0
  155.1010  211.3520  155.6990 C   0  0  0  0  0  3  0  0  0  0  0  0
  158.2200  213.4960  155.9820 C   0  0  0  0  0  0  0  0  0  0  0  0
  157.0150  210.3230  154.5910 C   0  0  0  0  0  3  0  0  0  0  0  0
  159.4530  213.2080  155.5090 C   0  0  0  0  0  0  0  0  0  0  0  0
  158.3460  214.2450  157.0870 N   0  0  0  0  0  0  0  0  0  0  0  0
  159.6550  214.4230  157.2450 N   0  0  0  0  0  2  0  0  0  0  0  0
  161.1090  208.7050  156.9530 C   0  0  0  0  0  3  0  0  0  0  0  0
  162.3900  209.1680  156.6580 C   0  0  0  0  0  3  0  0  0  0  0  0
  160.0750  209.4400  156.3550 C   0  0  0  0  0  3  0  0  0  0  0  0
  162.2220  210.5030  155.6460 S   0  0  0  0  0  0  0  0  0  0  0  0
  160.5500  210.4820  155.5800 C   0  0  0  0  0  0  0  0  0  0  0  0
  159.8980  211.8430  152.9140 C   0  0  0  0  0  0  0  0  0  0  0  0
  159.7660  212.9830  152.4010 O   0  0  0  0  0  0  0  0  0  0  0  0
  160.3150  210.7550  152.0800 N   0  0  0  0  0  2  0  0  0  0  0  0
  160.5240  209.3910  152.5340 C   0  0  0  0  0  2  0  0  0  0  0  0
  161.3920  208.6280  151.5480 C   0  0  0  0  0  2  0  0  0  0  0  0
  161.2180  204.3540  148.9890 C   0  0  0  0  0  3  0  0  0  0  0  0
  161.4000  204.0410  151.4220 C   0  0  0  0  0  2  0  0  0  0  0  0
  161.3010  205.4330  153.5110 C   0  0  0  0  0  2  0  0  0  0  0  0
  160.5490  204.4520  152.6130 C   0  0  0  0  0  2  0  0  0  0  0  0
  161.1170  205.1120  147.8230 C   0  0  0  0  0  3  0  0  0  0  0  0
  162.0260  206.5240  152.7250 C   0  0  0  0  0  2  0  0  0  0  0  0
  161.0380  206.5000  147.9020 C   0  0  0  0  0  3  0  0  0  0  0  0
  161.1130  207.1310  151.6670 C   0  0  2  0  0  3  0  0  0  0  0  0
  161.0670  207.1270  149.1470 C   0  0  0  0  0  3  0  0  0  0  0  0
  161.1890  206.3890  150.3380 C   0  0  0  0  0  0  0  0  0  0  0  0
  161.2370  204.9660  150.2470 C   0  0  0  0  0  0  0  0  0  0  0  0
  2  7  2  0  0  0  0
  3  4  1  0  0  0  0
  4  8  1  0  0  0  0
  4  1  2  0  0  0  0
  5 18  1  6  0  0  0
  5  3  1  0  0  0  0
  5 10  1  0  0  0  0
  5 17  1  0  0  0  0
  6 12  1  0  0  0  0
  7  1  1  0  0  0  0
  8 11  2  0  0  0  0
  9  2  1  0  0  0  0
  9  3  2  0  0  0  0
 10  8  1  0  0  0  0
 10  6  2  0  0  0  0
 11 12  1  0  0  0  0
 14 13  2  0  0  0  0
 15 13  1  0  0  0  0
 16 14  1  0  0  0  0
 17 16  1  0  0  0  0
 17 15  2  0  0  0  0
 19 18  2  0  0  0  0
 20 21  1  0  0  0  0
 20 18  1  0  0  0  0
 22 21  1  0  0  0  0
 23 33  1  0  0  0  0
 24 26  1  0  0  0  0
 26 25  1  0  0  0  0
 27 29  1  0  0  0  0
 27 23  2  0  0  0  0
 28 25  1  0  0  0  0
 29 31  2  0  0  0  0
 30 22  1  6  0  0  0
 30 28  1  0  0  0  0
 31 32  1  0  0  0  0
 32 30  1  0  0  0  0
 33 32  2  0  0  0  0
 33 24  1  0  0  0  0
M  END
>  <MODEL>
2

>  <REMARK>
 VINA RESULT:      -7.8      2.746      4.120
  Name = 
  5 active torsions:
  status: ('A' for Active; 'I' for Inactive)
    1  A    between atoms: C_8  and  C_21
    2  A    between atoms: C_8  and  C_32
    3  A    between atoms: C_15  and  P_16
    4  A    between atoms: P_16  and  C_29
    5  A    between atoms: N_19  and  C_32
                            x       y       z     vdW  Elec       q    Type
                         _______ _______ _______ _____ _____    ______ ____

>  <TORSDO>
F 5

$$$$
=
 OpenBabel11072410203D

 33 38  0  0  1  0  0  0  0  0999 V2000
  157.2270  213.1840  156.1980 C   0  0  0  0  0  3  0  0  0  0  0  0
  155.8620  211.5810  154.9640 C   0  0  0  0  0  3  0  0  0  0  0  0
  158.2570  211.3960  154.9160 C   0  0  0  0  0  0  0  0  0  0  0  0
  158.3610  212.5190  155.7340 C   0  0  0  0  0  0  0  0  0  0  0  0
  159.8520  210.6710  154.5250 P   0  0  1  0  0  4  0  0  0  0  0  0
  161.7050  211.8730  156.2680 N   0  0  0  0  0  0  0  0  0  0  0  0
  155.9680  212.7070  155.8020 C   0  0  0  0  0  3  0  0  0  0  0  0
  159.7550  212.8240  156.0300 C   0  0  0  0  0  0  0  0  0  0  0  0
  157.0130  210.9140  154.5180 C   0  0  0  0  0  3  0  0  0  0  0  0
  160.6330  211.9640  155.4670 C   0  0  0  0  0  0  0  0  0  0  0  0
  160.2820  213.2930  157.1710 N   0  0  0  0  0  0  0  0  0  0  0  0
  161.4850  212.7320  157.2600 N   0  0  0  0  0  2  0  0  0  0  0  0
  159.6040  207.0030  156.1960 C   0  0  0  0  0  3  0  0  0  0  0  0
  160.9800  207.0150  156.4130 C   0  0  0  0  0  3  0  0  0  0  0  0
  159.1040  208.1580  155.5780 C   0  0  0  0  0  3  0  0  0  0  0  0
  161.5690  208.4800  155.8270 S   0  0  0  0  0  0  0  0  0  0  0  0
  160.0980  209.0790  155.3010 C   0  0  0  0  0  0  0  0  0  0  0  0
  160.2320  210.7980  152.7700 C   0  0  0  0  0  0  0  0  0  0  0  0
  160.1780  211.9300  152.2250 O   0  0  0  0  0  0  0  0  0  0  0  0
  160.5790  209.6620  151.9690 N   0  0  0  0  0  2  0  0  0  0  0  0
  160.6950  208.3000  152.4630 C   0  0  0  0  0  2  0  0  0  0  0  0
  161.7890  207.5550  151.7190 C   0  0  0  0  0  2  0  0  0  0  0  0
  161.3540  204.5250  147.7850 C   0  0  0  0  0  3  0  0  0  0  0  0
  161.1100  203.3770  149.9480 C   0  0  0  0  0  2  0  0  0  0  0  0
  160.9080  203.9700  152.3800 C   0  0  0  0  0  2  0  0  0  0  0  0
  160.1600  203.5210  151.1260 C   0  0  0  0  0  2  0  0  0  0  0  0
  161.5500  205.6370  146.9670 C   0  0  0  0  0  3  0  0  0  0  0  0
  161.9040  205.0960  152.1090 C   0  0  0  0  0  2  0  0  0  0  0  0
  161.6750  206.9020  147.5340 C   0  0  0  0  0  3  0  0  0  0  0  0
  161.2680  206.1930  151.2640 C   0  0  2  0  0  3  0  0  0  0  0  0
  161.6090  207.0520  148.9190 C   0  0  0  0  0  3  0  0  0  0  0  0
  161.4320  205.9460  149.7690 C   0  0  0  0  0  0  0  0  0  0  0  0
  161.2730  204.6580  149.1750 C   0  0  0  0  0  0  0  0  0  0  0  0
  2  7  2  0  0  0  0
  3  4  1  0  0  0  0
  4  8  1  0  0  0  0
  4  1  2  0  0  0  0
  5 18  1  6  0  0  0
  5  3  1  0  0  0  0
  5 17  1  0  0  0  0
  5 10  1  0  0  0  0
  6 12  1  0  0  0  0
  7  1  1  0  0  0  0
  8 11  2  0  0  0  0
  9  3  2  0  0  0  0
  9  2  1  0  0  0  0
 10  8  1  0  0  0  0
 10  6  2  0  0  0  0
 11 12  1  0  0  0  0
 13 14  2  0  0  0  0
 15 13  1  0  0  0  0
 16 14  1  0  0  0  0
 17 15  2  0  0  0  0
 17 16  1  0  0  0  0
 19 18  2  0  0  0  0
 20 21  1  0  0  0  0
 20 18  1  0  0  0  0
 22 21  1  0  0  0  0
 23 33  1  0  0  0  0
 24 26  1  0  0  0  0
 26 25  1  0  0  0  0
 27 29  1  0  0  0  0
 27 23  2  0  0  0  0
 28 25  1  0  0  0  0
 29 31  2  0  0  0  0
 30 22  1  1  0  0  0
 30 28  1  0  0  0  0
 31 32  1  0  0  0  0
 32 30  1  0  0  0  0
 33 32  2  0  0  0  0
 33 24  1  0  0  0  0
M  END
>  <MODEL>
3

>  <REMARK>
 VINA RESULT:      -7.4      2.409      3.884
  Name = 
  5 active torsions:
  status: ('A' for Active; 'I' for Inactive)
    1  A    between atoms: C_8  and  C_21
    2  A    between atoms: C_8  and  C_32
    3  A    between atoms: C_15  and  P_16
    4  A    between atoms: P_16  and  C_29
    5  A    between atoms: N_19  and  C_32
                            x       y       z     vdW  Elec       q    Type
                         _______ _______ _______ _____ _____    ______ ____

>  <TORSDO>
F 5

$$$$
=
 OpenBabel11072410203D

 33 38  0  0  1  0  0  0  0  0999 V2000
  158.0240  211.8550  153.3740 C   0  0  0  0  0  3  0  0  0  0  0  0
  157.5990  211.6640  155.7700 C   0  0  0  0  0  3  0  0  0  0  0  0
  159.4750  210.5210  154.7950 C   0  0  0  0  0  0  0  0  0  0  0  0
  159.1260  211.0160  153.5400 C   0  0  0  0  0  0  0  0  0  0  0  0
  160.9760  209.5380  154.7610 P   0  0  1  0  0  4  0  0  0  0  0  0
  162.1570  210.0030  152.2500 N   0  0  0  0  0  0  0  0  0  0  0  0
  157.2550  212.1750  154.5040 C   0  0  0  0  0  3  0  0  0  0  0  0
  160.0680  210.5720  152.5210 C   0  0  0  0  0  0  0  0  0  0  0  0
  158.7190  210.8340  155.9220 C   0  0  0  0  0  3  0  0  0  0  0  0
  161.0650  209.7970  153.0020 C   0  0  2  0  0  3  0  0  0  0  0  0
  160.5210  211.2460  151.4530 N   0  0  0  0  0  0  0  0  0  0  0  0
  161.7770  210.8410  151.2880 N   0  0  0  0  0  0  0  0  0  0  0  0
  164.4180  211.3110  155.9120 C   0  0  0  0  0  3  0  0  0  0  0  0
  163.9310  211.3980  157.2150 C   0  0  0  0  0  3  0  0  0  0  0  0
  163.5350  210.7140  155.0010 C   0  0  0  0  0  3  0  0  0  0  0  0
  162.3890  210.7210  157.2210 S   0  0  0  0  0  0  0  0  0  0  0  0
  162.3440  210.3350  155.5930 C   0  0  0  0  0  0  0  0  0  0  0  0
  160.6560  207.8150  155.1690 C   0  0  0  0  0  0  0  0  0  0  0  0
  160.5680  207.4920  156.3810 O   0  0  0  0  0  0  0  0  0  0  0  0
  160.5100  206.7980  154.1710 N   0  0  0  0  0  2  0  0  0  0  0  0
  160.5720  207.0240  152.7370 C   0  0  0  0  0  2  0  0  0  0  0  0
  161.7650  206.3030  152.1350 C   0  0  0  0  0  2  0  0  0  0  0  0
  161.2320  204.9260  147.3740 C   0  0  0  0  0  3  0  0  0  0  0  0
  161.1740  203.0450  148.9590 C   0  0  0  0  0  2  0  0  0  0  0  0
  161.0920  202.6790  151.4420 C   0  0  0  0  0  2  0  0  0  0  0  0
  160.2910  202.6790  150.1410 C   0  0  0  0  0  2  0  0  0  0  0  0
  161.3270  206.2720  147.0230 C   0  0  0  0  0  3  0  0  0  0  0  0
  162.0170  203.8870  151.5720 C   0  0  0  0  0  2  0  0  0  0  0  0
  161.4280  207.2420  148.0170 C   0  0  0  0  0  3  0  0  0  0  0  0
  161.2810  205.1760  151.2240 C   0  0  2  0  0  3  0  0  0  0  0  0
  161.4390  206.8640  149.3590 C   0  0  0  0  0  3  0  0  0  0  0  0
  161.3650  205.5120  149.7410 C   0  0  0  0  0  0  0  0  0  0  0  0
  161.2300  204.5280  148.7150 C   0  0  0  0  0  0  0  0  0  0  0  0
  1  4  2  0  0  0  0
  1  7  1  0  0  0  0
  2  9  1  0  0  0  0
  3  9  2  0  0  0  0
  4  3  1  0  0  0  0
  5  3  1  0  0  0  0
  5 18  1  1  0  0  0
  5 17  1  0  0  0  0
  7  2  2  0  0  0  0
  8 10  1  0  0  0  0
  8  4  1  0  0  0  0
 10  6  1  1  0  0  0
 10  5  1  0  0  0  0
 11  8  2  0  0  0  0
 12 11  1  0  0  0  0
 12  6  2  0  0  0  0
 13 14  2  0  0  0  0
 14 16  1  0  0  0  0
 15 17  2  0  0  0  0
 15 13  1  0  0  0  0
 17 16  1  0  0  0  0
 18 19  2  0  0  0  0
 20 18  1  0  0  0  0
 21 20  1  0  0  0  0
 22 21  1  0  0  0  0
 23 33  1  0  0  0  0
 24 26  1  0  0  0  0
 25 28  1  0  0  0  0
 26 25  1  0  0  0  0
 27 23  2  0  0  0  0
 27 29  1  0  0  0  0
 29 31  2  0  0  0  0
 30 28  1  0  0  0  0
 30 22  1  1  0  0  0
 31 32  1  0  0  0  0
 32 30  1  0  0  0  0
 33 24  1  0  0  0  0
 33 32  2  0  0  0  0
M  END
>  <MODEL>
4

>  <REMARK>
 VINA RESULT:      -7.2      0.823      2.223
  Name = 
  5 active torsions:
  status: ('A' for Active; 'I' for Inactive)
    1  A    between atoms: C_8  and  C_21
    2  A    between atoms: C_8  and  C_32
    3  A    between atoms: C_15  and  P_16
    4  A    between atoms: P_16  and  C_29
    5  A    between atoms: N_19  and  C_32
                            x       y       z     vdW  Elec       q    Type
                         _______ _______ _______ _____ _____    ______ ____

>  <TORSDO>
F 5

$$$$
=
 OpenBabel11072410203D

 33 38  0  0  1  0  0  0  0  0999 V2000
  158.9740  212.9530  154.7010 C   0  0  0  0  0  3  0  0  0  0  0  0
  157.8890  211.8280  152.8280 C   0  0  0  0  0  3  0  0  0  0  0  0
  159.9670  210.9820  153.6870 C   0  0  0  0  0  0  0  0  0  0  0  0
  159.9980  212.0100  154.6270 C   0  0  0  0  0  0  0  0  0  0  0  0
  161.3510  209.8500  153.8500 P   0  0  1  0  0  4  0  0  0  0  0  0
  162.5570  210.4420  156.3220 N   0  0  0  0  0  0  0  0  0  0  0  0
  157.9140  212.8580  153.7870 C   0  0  0  0  0  3  0  0  0  0  0  0
  161.1750  211.9060  155.4800 C   0  0  0  0  0  0  0  0  0  0  0  0
  158.9190  210.8770  152.7760 C   0  0  0  0  0  3  0  0  0  0  0  0
  161.9670  210.8490  155.1890 C   0  0  0  0  0  0  0  0  0  0  0  0
  161.2850  212.1800  156.7880 N   0  0  0  0  0  0  0  0  0  0  0  0
  162.1660  211.3030  157.2590 N   0  0  0  0  0  2  0  0  0  0  0  0
  160.6780  205.9290  154.5470 C   0  0  0  0  0  3  0  0  0  0  0  0
  159.8760  206.2670  155.6360 C   0  0  0  0  0  3  0  0  0  0  0  0
  161.2270  207.0270  153.8690 C   0  0  0  0  0  3  0  0  0  0  0  0
  159.8560  207.9470  155.7440 S   0  0  0  0  0  0  0  0  0  0  0  0
  160.8580  208.2340  154.4350 C   0  0  0  0  0  0  0  0  0  0  0  0
  162.4360  209.9110  152.4150 C   0  0  0  0  0  0  0  0  0  0  0  0
  163.4270  210.6840  152.4440 O   0  0  0  0  0  0  0  0  0  0  0  0
  162.2080  209.1240  151.2400 N   0  0  0  0  0  2  0  0  0  0  0  0
  161.1170  208.1800  151.0690 C   0  0  0  0  0  2  0  0  0  0  0  0
  161.0640  207.6800  149.6350 C   0  0  0  0  0  2  0  0  0  0  0  0
  161.4520  203.6030  146.7940 C   0  0  0  0  0  3  0  0  0  0  0  0
  161.4120  203.1250  149.2070 C   0  0  0  0  0  2  0  0  0  0  0  0
  161.0050  204.3510  151.3610 C   0  0  0  0  0  2  0  0  0  0  0  0
  160.4180  203.3920  150.3270 C   0  0  0  0  0  2  0  0  0  0  0  0
  161.4140  204.4360  145.6770 C   0  0  0  0  0  3  0  0  0  0  0  0
  161.7260  205.5410  150.7300 C   0  0  0  0  0  2  0  0  0  0  0  0
  161.2290  205.8060  145.8390 C   0  0  0  0  0  3  0  0  0  0  0  0
  160.8820  206.1640  149.6240 C   0  0  2  0  0  3  0  0  0  0  0  0
  161.0880  206.3420  147.1190 C   0  0  0  0  0  3  0  0  0  0  0  0
  161.1430  205.5280  148.2640 C   0  0  0  0  0  0  0  0  0  0  0  0
  161.3010  204.1210  148.0850 C   0  0  0  0  0  0  0  0  0  0  0  0
  2  7  1  0  0  0  0
  3  5  1  0  0  0  0
  3  4  2  0  0  0  0
  4  1  1  0  0  0  0
  4  8  1  0  0  0  0
  5 18  1  6  0  0  0
  5 17  1  0  0  0  0
  5 10  1  0  0  0  0
  6 12  1  0  0  0  0
  7  1  2  0  0  0  0
  8 11  2  0  0  0  0
  9  2  2  0  0  0  0
  9  3  1  0  0  0  0
 10  8  1  0  0  0  0
 10  6  2  0  0  0  0
 11 12  1  0  0  0  0
 13 14  2  0  0  0  0
 14 16  1  0  0  0  0
 15 17  2  0  0  0  0
 15 13  1  0  0  0  0
 17 16  1  0  0  0  0
 18 19  2  0  0  0  0
 20 18  1  0  0  0  0
 21 20  1  0  0  0  0
 22 21  1  0  0  0  0
 23 33  1  0  0  0  0
 24 26  1  0  0  0  0
 26 25  1  0  0  0  0
 27 29  1  0  0  0  0
 27 23  2  0  0  0  0
 28 25  1  0  0  0  0
 29 31  2  0  0  0  0
 30 22  1  6  0  0  0
 30 28  1  0  0  0  0
 31 32  1  0  0  0  0
 32 30  1  0  0  0  0
 33 32  2  0  0  0  0
 33 24  1  0  0  0  0
M  END
>  <MODEL>
5

>  <REMARK>
 VINA RESULT:      -7.0      2.318      3.859
  Name = 
  5 active torsions:
  status: ('A' for Active; 'I' for Inactive)
    1  A    between atoms: C_8  and  C_21
    2  A    between atoms: C_8  and  C_32
    3  A    between atoms: C_15  and  P_16
    4  A    between atoms: P_16  and  C_29
    5  A    between atoms: N_19  and  C_32
                            x       y       z     vdW  Elec       q    Type
                         _______ _______ _______ _____ _____    ______ ____

>  <TORSDO>
F 5

$$$$
=
 OpenBabel11072410203D

 33 38  0  0  1  0  0  0  0  0999 V2000
  162.7180  209.2380  157.2070 C   0  0  0  0  0  3  0  0  0  0  0  0
  163.6200  211.2600  156.1810 C   0  0  0  0  0  3  0  0  0  0  0  0
  162.0000  209.9390  154.9950 C   0  0  0  0  0  0  0  0  0  0  0  0
  161.9530  209.0400  156.0590 C   0  0  0  0  0  0  0  0  0  0  0  0
  160.8630  209.5120  153.6740 P   0  0  1  0  0  4  0  0  0  0  0  0
  159.1520  207.5400  154.7220 N   0  0  0  0  0  0  0  0  0  0  0  0
  163.5600  210.3590  157.2610 C   0  0  0  0  0  3  0  0  0  0  0  0
  161.0040  207.9670  155.7950 C   0  0  0  0  0  0  0  0  0  0  0  0
  162.8320  211.0550  155.0390 C   0  0  0  0  0  3  0  0  0  0  0  0
  160.3770  208.0730  154.6030 C   0  0  0  0  0  0  0  0  0  0  0  0
  160.1860  207.3450  156.6580 N   0  0  0  0  0  0  0  0  0  0  0  0
  159.0900  207.0590  155.9620 N   0  0  0  0  0  2  0  0  0  0  0  0
  158.0610  212.2100  152.5860 C   0  0  0  0  0  3  0  0  0  0  0  0
  157.5240  212.1610  153.8710 C   0  0  0  0  0  3  0  0  0  0  0  0
  159.1720  211.3780  152.3900 C   0  0  0  0  0  3  0  0  0  0  0  0
  158.4490  211.0720  154.7620 S   0  0  0  0  0  0  0  0  0  0  0  0
  159.5050  210.6670  153.5290 C   0  0  0  0  0  0  0  0  0  0  0  0
  161.7320  209.0700  152.1610 C   0  0  0  0  0  0  0  0  0  0  0  0
  162.0920  209.9910  151.3840 O   0  0  0  0  0  0  0  0  0  0  0  0
  162.0200  207.7130  151.8020 N   0  0  0  0  0  2  0  0  0  0  0  0
  161.6810  206.5500  152.6040 C   0  0  0  0  0  2  0  0  0  0  0  0
  160.7150  205.6490  151.8540 C   0  0  0  0  0  2  0  0  0  0  0  0
  161.1350  202.3000  148.1860 C   0  0  0  0  0  3  0  0  0  0  0  0
  161.3110  204.6320  147.4200 C   0  0  0  0  0  2  0  0  0  0  0  0
  161.4890  206.9300  148.4150 C   0  0  0  0  0  2  0  0  0  0  0  0
  162.2450  205.7880  147.7410 C   0  0  0  0  0  2  0  0  0  0  0  0
  160.9820  201.3000  149.1460 C   0  0  0  0  0  3  0  0  0  0  0  0
  160.5270  206.4500  149.5010 C   0  0  0  0  0  2  0  0  0  0  0  0
  160.8820  201.6410  150.4920 C   0  0  0  0  0  3  0  0  0  0  0  0
  161.2070  205.4440  150.4230 C   0  0  2  0  0  3  0  0  0  0  0  0
  160.9290  202.9800  150.8760 C   0  0  0  0  0  3  0  0  0  0  0  0
  161.0620  204.0100  149.9270 C   0  0  0  0  0  0  0  0  0  0  0  0
  161.1960  203.6490  148.5530 C   0  0  0  0  0  0  0  0  0  0  0  0
  1  7  1  0  0  0  0
  2  7  2  0  0  0  0
  3  9  2  0  0  0  0
  3  4  1  0  0  0  0
  4  1  2  0  0  0  0
  5 18  1  6  0  0  0
  5 10  1  0  0  0  0
  5  3  1  0  0  0  0
  6 12  1  0  0  0  0
  8  4  1  0  0  0  0
  8 11  2  0  0  0  0
  9  2  1  0  0  0  0
 10  6  2  0  0  0  0
 10  8  1  0  0  0  0
 12 11  1  0  0  0  0
 13 14  2  0  0  0  0
 14 16  1  0  0  0  0
 15 13  1  0  0  0  0
 15 17  2  0  0  0  0
 17  5  1  0  0  0  0
 17 16  1  0  0  0  0
 19 18  2  0  0  0  0
 20 18  1  0  0  0  0
 20 21  1  0  0  0  0
 22 21  1  0  0  0  0
 23 33  2  0  0  0  0
 23 27  1  0  0  0  0
 24 26  1  0  0  0  0
 24 33  1  0  0  0  0
 25 28  1  0  0  0  0
 26 25  1  0  0  0  0
 27 29  2  0  0  0  0
 28 30  1  0  0  0  0
 29 31  1  0  0  0  0
 30 22  1  1  0  0  0
 32 30  1  0  0  0  0
 32 31  2  0  0  0  0
 33 32  1  0  0  0  0
M  END
>  <MODEL>
6

>  <REMARK>
 VINA RESULT:      -6.9      1.776      4.043
  Name = 
  5 active torsions:
  status: ('A' for Active; 'I' for Inactive)
    1  A    between atoms: C_8  and  C_21
    2  A    between atoms: C_8  and  C_32
    3  A    between atoms: C_15  and  P_16
    4  A    between atoms: P_16  and  C_29
    5  A    between atoms: N_19  and  C_32
                            x       y       z     vdW  Elec       q    Type
                         _______ _______ _______ _____ _____    ______ ____

>  <TORSDO>
F 5

$$$$
=
 OpenBabel11072410203D

 33 38  0  0  1  0  0  0  0  0999 V2000
  162.7900  210.7050  152.6660 C   0  0  0  0  0  3  0  0  0  0  0  0
  160.7500  210.2530  151.4070 C   0  0  0  0  0  3  0  0  0  0  0  0
  160.8140  209.8250  153.7710 C   0  0  0  0  0  0  0  0  0  0  0  0
  162.1390  210.2530  153.8130 C   0  0  0  0  0  0  0  0  0  0  0  0
  160.1780  209.3750  155.3880 P   0  0  1  0  0  4  0  0  0  0  0  0
  162.0490  210.3330  157.2580 N   0  0  0  0  0  0  0  0  0  0  0  0
  162.0840  210.6980  151.4540 C   0  0  0  0  0  3  0  0  0  0  0  0
  162.6670  210.1910  155.1700 C   0  0  0  0  0  0  0  0  0  0  0  0
  160.1040  209.8160  152.5730 C   0  0  0  0  0  3  0  0  0  0  0  0
  161.7740  209.7480  156.0830 C   0  0  0  0  0  0  0  0  0  0  0  0
  163.5190  211.0330  155.7730 N   0  0  0  0  0  0  0  0  0  0  0  0
  163.1440  211.0600  157.0490 N   0  0  0  0  0  2  0  0  0  0  0  0
  156.9270  211.6510  156.1390 C   0  0  0  0  0  3  0  0  0  0  0  0
  157.6080  212.2670  157.1880 C   0  0  0  0  0  3  0  0  0  0  0  0
  157.6690  210.6740  155.4610 C   0  0  0  0  0  3  0  0  0  0  0  0
  159.1440  211.5820  157.2600 S   0  0  0  0  0  0  0  0  0  0  0  0
  158.9390  210.5170  155.9860 C   0  0  0  0  0  0  0  0  0  0  0  0
  159.7970  207.6190  155.4910 C   0  0  0  0  0  0  0  0  0  0  0  0
  159.0060  207.2280  156.3870 O   0  0  0  0  0  0  0  0  0  0  0  0
  160.3660  206.6500  154.6020 N   0  0  0  0  0  2  0  0  0  0  0  0
  161.2790  206.9550  153.5130 C   0  0  0  0  0  2  0  0  0  0  0  0
  161.9150  205.6830  152.9790 C   0  0  0  0  0  2  0  0  0  0  0  0
  160.7350  202.9520  148.9800 C   0  0  0  0  0  3  0  0  0  0  0  0
  160.8800  205.3650  148.5210 C   0  0  0  0  0  2  0  0  0  0  0  0
  161.6150  207.4620  149.6910 C   0  0  0  0  0  2  0  0  0  0  0  0
  161.9800  206.4070  148.6490 C   0  0  0  0  0  2  0  0  0  0  0  0
  160.8120  201.8200  149.7890 C   0  0  0  0  0  3  0  0  0  0  0  0
  161.0300  206.8610  150.9680 C   0  0  0  0  0  2  0  0  0  0  0  0
  161.2050  201.9430  151.1190 C   0  0  0  0  0  3  0  0  0  0  0  0
  161.8740  205.6870  151.4520 C   0  0  2  0  0  3  0  0  0  0  0  0
  161.5150  203.2000  151.6380 C   0  0  0  0  0  3  0  0  0  0  0  0
  161.4250  204.3610  150.8510 C   0  0  0  0  0  0  0  0  0  0  0  0
  161.0520  204.2190  149.4800 C   0  0  0  0  0  0  0  0  0  0  0  0
  1  4  1  0  0  0  0
  2  7  1  0  0  0  0
  2  9  2  0  0  0  0
  3  4  2  0  0  0  0
  3  5  1  0  0  0  0
  4  8  1  0  0  0  0
  5 18  1  1  0  0  0
  5 17  1  0  0  0  0
  5 10  1  0  0  0  0
  7  1  2  0  0  0  0
  8 11  2  0  0  0  0
  8 10  1  0  0  0  0
  9  3  1  0  0  0  0
 10  6  2  0  0  0  0
 11 12  1  0  0  0  0
 12  6  1  0  0  0  0
 13 14  2  0  0  0  0
 14 16  1  0  0  0  0
 15 17  2  0  0  0  0
 15 13  1  0  0  0  0
 17 16  1  0  0  0  0
 18 19  2  0  0  0  0
 20 18  1  0  0  0  0
 21 20  1  0  0  0  0
 22 21  1  0  0  0  0
 23 33  2  0  0  0  0
 23 27  1  0  0  0  0
 24 26  1  0  0  0  0
 24 33  1  0  0  0  0
 25 28  1  0  0  0  0
 26 25  1  0  0  0  0
 27 29  2  0  0  0  0
 28 30  1  0  0  0  0
 29 31  1  0  0  0  0
 30 22  1  1  0  0  0
 32 30  1  0  0  0  0
 32 31  2  0  0  0  0
 33 32  1  0  0  0  0
M  END
>  <MODEL>
7

>  <REMARK>
 VINA RESULT:      -6.9      1.930      3.361
  Name = 
  5 active torsions:
  status: ('A' for Active; 'I' for Inactive)
    1  A    between atoms: C_8  and  C_21
    2  A    between atoms: C_8  and  C_32
    3  A    between atoms: C_15  and  P_16
    4  A    between atoms: P_16  and  C_29
    5  A    between atoms: N_19  and  C_32
                            x       y       z     vdW  Elec       q    Type
                         _______ _______ _______ _____ _____    ______ ____

>  <TORSDO>
F 5

$$$$
=
 OpenBabel11072410203D

 33 38  0  0  1  0  0  0  0  0999 V2000
  163.0940  209.4950  157.2390 C   0  0  0  0  0  3  0  0  0  0  0  0
  163.1540  211.8310  156.5400 C   0  0  0  0  0  3  0  0  0  0  0  0
  161.3760  210.4040  155.7830 C   0  0  0  0  0  0  0  0  0  0  0  0
  161.9320  209.3370  156.4840 C   0  0  0  0  0  0  0  0  0  0  0  0
  159.8400  209.9690  154.9620 P   0  0  1  0  0  4  0  0  0  0  0  0
  159.0670  207.4780  156.0170 N   0  0  0  0  0  0  0  0  0  0  0  0
  163.7080  210.7560  157.2590 C   0  0  0  0  0  3  0  0  0  0  0  0
  161.1240  208.1330  156.3360 C   0  0  0  0  0  0  0  0  0  0  0  0
  161.9760  211.6600  155.7980 C   0  0  0  0  0  3  0  0  0  0  0  0
  160.0230  208.3070  155.5720 C   0  0  0  0  0  0  0  0  0  0  0  0
  160.8720  207.1800  157.2450 N   0  0  0  0  0  0  0  0  0  0  0  0
  159.6320  206.7720  156.9940 N   0  0  0  0  0  2  0  0  0  0  0  0
  156.2690  211.6040  155.9050 C   0  0  0  0  0  3  0  0  0  0  0  0
  156.7670  211.9540  157.1580 C   0  0  0  0  0  3  0  0  0  0  0  0
  157.1880  210.9410  155.0800 C   0  0  0  0  0  3  0  0  0  0  0  0
  158.3660  211.4310  157.2280 S   0  0  0  0  0  0  0  0  0  0  0  0
  158.4150  210.7640  155.6940 C   0  0  0  0  0  0  0  0  0  0  0  0
  159.9950  210.0460  153.1700 C   0  0  0  0  0  0  0  0  0  0  0  0
  159.6460  211.1020  152.5830 O   0  0  0  0  0  0  0  0  0  0  0  0
  160.4870  208.9510  152.3880 N   0  0  0  0  0  2  0  0  0  0  0  0
  160.9390  207.6800  152.9280 C   0  0  0  0  0  2  0  0  0  0  0  0
  161.9810  207.0550  152.0170 C   0  0  0  0  0  2  0  0  0  0  0  0
  161.1750  205.0550  147.5240 C   0  0  0  0  0  3  0  0  0  0  0  0
  161.0280  203.4330  149.3680 C   0  0  0  0  0  2  0  0  0  0  0  0
  161.0050  203.4370  151.8790 C   0  0  0  0  0  2  0  0  0  0  0  0
  160.1610  203.3140  150.6120 C   0  0  0  0  0  2  0  0  0  0  0  0
  161.3620  206.3240  146.9780 C   0  0  0  0  0  3  0  0  0  0  0  0
  162.0260  204.5720  151.8090 C   0  0  0  0  0  2  0  0  0  0  0  0
  161.5720  207.4150  147.8160 C   0  0  0  0  0  3  0  0  0  0  0  0
  161.3800  205.8520  151.2940 C   0  0  2  0  0  3  0  0  0  0  0  0
  161.6010  207.2350  149.1980 C   0  0  0  0  0  3  0  0  0  0  0  0
  161.4370  205.9630  149.7750 C   0  0  0  0  0  0  0  0  0  0  0  0
  161.1900  204.8560  148.9080 C   0  0  0  0  0  0  0  0  0  0  0  0
  1  7  1  0  0  0  0
  2  7  2  0  0  0  0
  3  9  2  0  0  0  0
  3  4  1  0  0  0  0
  4  1  2  0  0  0  0
  5 18  1  6  0  0  0
  5 10  1  0  0  0  0
  5 17  1  0  0  0  0
  5  3  1  0  0  0  0
  6 12  1  0  0  0  0
  8  4  1  0  0  0  0
  8 11  2  0  0  0  0
  9  2  1  0  0  0  0
 10  6  2  0  0  0  0
 10  8  1  0  0  0  0
 12 11  1  0  0  0  0
 13 14  2  0  0  0  0
 14 16  1  0  0  0  0
 15 17  2  0  0  0  0
 15 13  1  0  0  0  0
 17 16  1  0  0  0  0
 19 18  2  0  0  0  0
 20 21  1  0  0  0  0
 20 18  1  0  0  0  0
 22 21  1  0  0  0  0
 23 33  1  0  0  0  0
 24 26  1  0  0  0  0
 26 25  1  0  0  0  0
 27 23  2  0  0  0  0
 27 29  1  0  0  0  0
 28 25  1  0  0  0  0
 29 31  2  0  0  0  0
 30 28  1  0  0  0  0
 30 22  1  1  0  0  0
 31 32  1  0  0  0  0
 32 30  1  0  0  0  0
 33 24  1  0  0  0  0
 33 32  2  0  0  0  0
M  END
>  <MODEL>
8

>  <REMARK>
 VINA RESULT:      -6.7      1.815      4.688
  Name = 
  5 active torsions:
  status: ('A' for Active; 'I' for Inactive)
    1  A    between atoms: C_8  and  C_21
    2  A    between atoms: C_8  and  C_32
    3  A    between atoms: C_15  and  P_16
    4  A    between atoms: P_16  and  C_29
    5  A    between atoms: N_19  and  C_32
                            x       y       z     vdW  Elec       q    Type
                         _______ _______ _______ _____ _____    ______ ____

>  <TORSDO>
F 5

$$$$
=
 OpenBabel11072410203D

 33 38  0  0  1  0  0  0  0  0999 V2000
  161.2570  212.1490  156.9610 C   0  0  0  0  0  3  0  0  0  0  0  0
  163.5190  211.3020  156.6160 C   0  0  0  0  0  3  0  0  0  0  0  0
  161.6900  210.3650  155.3710 C   0  0  0  0  0  0  0  0  0  0  0  0
  160.8060  211.2250  156.0200 C   0  0  0  0  0  0  0  0  0  0  0  0
  160.8800  209.3330  154.1450 P   0  0  1  0  0  4  0  0  0  0  0  0
  158.3120  210.4220  153.7800 N   0  0  0  0  0  0  0  0  0  0  0  0
  162.6270  212.1800  157.2600 C   0  0  0  0  0  3  0  0  0  0  0  0
  159.4420  211.0310  155.5450 C   0  0  0  0  0  0  0  0  0  0  0  0
  163.0520  210.3890  155.6590 C   0  0  0  0  0  3  0  0  0  0  0  0
  159.3280  210.0830  154.5880 C   0  0  2  0  0  3  0  0  0  0  0  0
  158.4860  211.9520  155.3570 N   0  0  0  0  0  0  0  0  0  0  0  0
  157.7890  211.5270  154.3060 N   0  0  0  0  0  0  0  0  0  0  0  0
  162.3780  209.6280  150.4060 C   0  0  0  0  0  3  0  0  0  0  0  0
  161.6500  210.8010  150.2140 C   0  0  0  0  0  3  0  0  0  0  0  0
  162.2110  209.0430  151.6690 C   0  0  0  0  0  3  0  0  0  0  0  0
  160.7970  211.1020  151.6340 S   0  0  0  0  0  0  0  0  0  0  0  0
  161.3400  209.7590  152.4700 C   0  0  0  0  0  0  0  0  0  0  0  0
  160.9360  207.5920  154.5970 C   0  0  0  0  0  0  0  0  0  0  0  0
  161.0030  207.2890  155.8150 O   0  0  0  0  0  0  0  0  0  0  0  0
  160.9190  206.5390  153.6240 N   0  0  0  0  0  2  0  0  0  0  0  0
  160.8290  206.7350  152.1870 C   0  0  0  0  0  2  0  0  0  0  0  0
  160.5250  205.4220  151.4880 C   0  0  0  0  0  2  0  0  0  0  0  0
  161.2120  202.6820  147.3820 C   0  0  0  0  0  3  0  0  0  0  0  0
  161.4110  205.1040  146.9980 C   0  0  0  0  0  2  0  0  0  0  0  0
  161.5000  207.2210  148.3460 C   0  0  0  0  0  2  0  0  0  0  0  0
  162.3100  206.1980  147.5520 C   0  0  0  0  0  2  0  0  0  0  0  0
  161.0100  201.5450  148.1630 C   0  0  0  0  0  3  0  0  0  0  0  0
  160.4770  206.5780  149.2800 C   0  0  0  0  0  2  0  0  0  0  0  0
  160.8210  201.6730  149.5370 C   0  0  0  0  0  3  0  0  0  0  0  0
  161.1080  205.4420  150.0770 C   0  0  2  0  0  3  0  0  0  0  0  0
  160.8290  202.9370  150.1250 C   0  0  0  0  0  3  0  0  0  0  0  0
  161.0100  204.1020  149.3580 C   0  0  0  0  0  0  0  0  0  0  0  0
  161.2350  203.9570  147.9550 C   0  0  0  0  0  0  0  0  0  0  0  0
  1  7  1  0  0  0  0
  2  7  2  0  0  0  0
  3  9  2  0  0  0  0
  3  4  1  0  0  0  0
  4  1  2  0  0  0  0
  5 10  1  0  0  0  0
  5 18  1  1  0  0  0
  5  3  1  0  0  0  0
  6 12  2  0  0  0  0
  8  4  1  0  0  0  0
  9  2  1  0  0  0  0
 10  6  1  6  0  0  0
 10  8  1  0  0  0  0
 11  8  2  0  0  0  0
 12 11  1  0  0  0  0
 13 15  1  0  0  0  0
 14 13  2  0  0  0  0
 14 16  1  0  0  0  0
 15 17  2  0  0  0  0
 16 17  1  0  0  0  0
 17  5  1  0  0  0  0
 18 19  2  0  0  0  0
 20 18  1  0  0  0  0
 21 20  1  0  0  0  0
 22 21  1  0  0  0  0
 23 33  2  0  0  0  0
 23 27  1  0  0  0  0
 24 26  1  0  0  0  0
 24 33  1  0  0  0  0
 25 28  1  0  0  0  0
 26 25  1  0  0  0  0
 27 29  2  0  0  0  0
 28 30  1  0  0  0  0
 29 31  1  0  0  0  0
 30 22  1  1  0  0  0
 32 30  1  0  0  0  0
 32 31  2  0  0  0  0
 33 32  1  0  0  0  0
M  END
>  <MODEL>
9

>  <REMARK>
 VINA RESULT:      -6.7      2.105      3.500
  Name = 
  5 active torsions:
  status: ('A' for Active; 'I' for Inactive)
    1  A    between atoms: C_8  and  C_21
    2  A    between atoms: C_8  and  C_32
    3  A    between atoms: C_15  and  P_16
    4  A    between atoms: P_16  and  C_29
    5  A    between atoms: N_19  and  C_32
                            x       y       z     vdW  Elec       q    Type
                         _______ _______ _______ _____ _____    ______ ____

>  <TORSDO>
F 5

$$$$
