=
 OpenBabel11072411033D

 30 35  0  0  1  0  0  0  0  0999 V2000
  160.7320  209.8280  152.3910 C   0  0  0  0  0  2  0  0  0  0  0  0
  160.5220  211.0860  156.5220 C   0  0  0  0  0  2  0  0  0  0  0  0
  161.1620  209.4810  154.7430 N   0  0  0  0  0  0  0  0  0  0  0  0
  156.3550  214.2330  153.1530 C   0  0  0  0  0  1  0  0  0  0  0  0
  159.5240  211.1100  154.1980 N   0  0  0  0  0  2  0  0  0  0  0  0
  160.9280  209.6530  156.1810 C   0  0  0  0  0  2  0  0  0  0  0  0
  158.6590  212.7900  155.9040 C   0  0  2  0  0  3  0  0  0  0  0  0
  159.3840  211.4880  155.6000 C   0  0  2  0  0  0  0  0  0  0  0  0
  157.9830  211.4310  156.1850 C   0  0  2  0  0  3  0  0  0  0  0  0
  156.7720  213.5020  154.4110 C   0  0  2  0  0  0  0  0  0  0  0  0
  156.8930  211.0590  155.1740 C   0  0  0  0  0  2  0  0  0  0  0  0
  160.4680  210.0980  153.8310 C   0  0  0  0  0  0  0  0  0  0  0  0
  158.2250  213.4400  154.6620 N   0  0  0  0  0  2  0  0  0  0  0  0
  156.2220  213.3160  156.8000 F   0  0  0  0  0  0  0  0  0  0  0  0
  156.0220  212.1980  154.6090 C   0  0  1  0  0  3  0  0  0  0  0  0
  155.7150  213.4110  155.5170 C   0  0  2  0  0  3  0  0  0  0  0  0
  160.4690  208.4830  152.1100 O   0  0  0  0  0  0  0  0  0  0  0  0
  161.7260  207.8820  151.9790 C   0  0  1  0  0  3  0  0  0  0  0  0
  161.3070  207.0710  149.6230 C   0  0  0  0  0  2  0  0  0  0  0  0
  161.6570  206.4600  152.4550 C   0  0  0  0  0  0  0  0  0  0  0  0
  160.9810  204.6260  149.2180 C   0  0  0  0  0  3  0  0  0  0  0  0
  160.8730  203.3070  149.6660 C   0  0  0  0  0  0  0  0  0  0  0  0
  161.8050  206.2140  153.6830 O   0  0  0  0  0  0  0  0  0  0  0  0
  162.1920  207.9370  150.5190 C   0  0  0  0  0  2  0  0  0  0  0  0
  161.3760  205.3690  151.4990 C   0  0  0  0  0  0  0  0  0  0  0  0
  161.2440  205.6580  150.1240 C   0  0  0  0  0  0  0  0  0  0  0  0
  161.2680  204.0420  151.9400 C   0  0  0  0  0  3  0  0  0  0  0  0
  161.0160  203.0150  151.0250 C   0  0  0  0  0  3  0  0  0  0  0  0
  160.3980  201.3990  147.9760 N   0  0  0  0  0  0  0  0  0  0  0  0
  160.6100  202.2510  148.7300 C   0  0  0  0  0  0  0  0  0  0  0  0
  1 12  1  0  0  0  0
  3  6  1  0  0  0  0
  5  8  1  0  0  0  0
  6  2  1  0  0  0  0
  7 13  1  6  0  0  0
  7  9  1  0  0  0  0
  8  7  1  0  0  0  0
  8  9  1  0  0  0  0
  8  2  1  1  0  0  0
  9 11  1  6  0  0  0
 10  4  1  6  0  0  0
 10 15  1  0  0  0  0
 10 13  1  0  0  0  0
 10 16  1  0  0  0  0
 12  5  1  0  0  0  0
 12  3  2  0  0  0  0
 15 11  1  1  0  0  0
 15 16  1  0  0  0  0
 16 14  1  1  0  0  0
 17  1  1  0  0  0  0
 18 17  1  6  0  0  0
 18 20  1  0  0  0  0
 19 26  1  0  0  0  0
 19 24  1  0  0  0  0
 20 23  2  0  0  0  0
 21 22  2  0  0  0  0
 21 26  1  0  0  0  0
 22 28  1  0  0  0  0
 24 18  1  0  0  0  0
 25 27  1  0  0  0  0
 25 20  1  0  0  0  0
 26 25  2  0  0  0  0
 28 27  2  0  0  0  0
 29 30  3  0  0  0  0
 30 22  1  0  0  0  0
M  END
>  <MODEL>
1

>  <REMARK>
 VINA RESULT:      -8.9      0.000      0.000
  Name = 
  4 active torsions:
  status: ('A' for Active; 'I' for Inactive)
    1  A    between atoms: C_3  and  O_18
    2  A    between atoms: C_12  and  O_18
    3  A    between atoms: C_12  and  C_19
    4  A    between atoms: C_16  and  C_29
                            x       y       z     vdW  Elec       q    Type
                         _______ _______ _______ _____ _____    ______ ____

>  <TORSDO>
F 4

$$$$
=
 OpenBabel11072411033D

 30 35  0  0  1  0  0  0  0  0999 V2000
  162.3750  206.7320  151.5360 C   0  0  0  0  0  2  0  0  0  0  0  0
  160.8090  210.7520  151.8200 C   0  0  0  0  0  2  0  0  0  0  0  0
  162.2210  209.0130  150.7560 N   0  0  0  0  0  0  0  0  0  0  0  0
  160.0770  207.8250  157.2510 C   0  0  0  0  0  1  0  0  0  0  0  0
  161.4820  208.6040  152.9730 N   0  0  0  0  0  2  0  0  0  0  0  0
  161.9830  210.4540  150.8870 C   0  0  0  0  0  2  0  0  0  0  0  0
  160.1030  210.2990  154.2800 C   0  0  2  0  0  3  0  0  0  0  0  0
  161.0230  209.9820  153.1110 C   0  0  2  0  0  0  0  0  0  0  0  0
  161.5730  210.7690  154.2890 C   0  0  2  0  0  3  0  0  0  0  0  0
  160.4130  209.0550  156.4370 C   0  0  2  0  0  0  0  0  0  0  0  0
  162.4790  209.9580  155.2210 C   0  0  0  0  0  2  0  0  0  0  0  0
  162.0590  208.1730  151.7360 C   0  0  0  0  0  0  0  0  0  0  0  0
  159.8460  209.0920  155.0740 N   0  0  0  0  0  2  0  0  0  0  0  0
  160.5080  211.5050  156.6030 F   0  0  0  0  0  0  0  0  0  0  0  0
  161.8740  209.4500  156.5440 C   0  0  1  0  0  3  0  0  0  0  0  0
  160.7880  210.3080  157.2350 C   0  0  2  0  0  3  0  0  0  0  0  0
  162.4910  206.4630  150.1690 O   0  0  0  0  0  0  0  0  0  0  0  0
  161.1780  206.2950  149.7140 C   0  0  1  0  0  3  0  0  0  0  0  0
  161.1260  203.8130  150.1870 C   0  0  0  0  0  2  0  0  0  0  0  0
  161.1890  205.9910  148.2430 C   0  0  0  0  0  0  0  0  0  0  0  0
  161.1470  202.2100  148.2690 C   0  0  0  0  0  3  0  0  0  0  0  0
  161.2020  201.9240  146.9020 C   0  0  0  0  0  0  0  0  0  0  0  0
  161.2220  206.9430  147.4180 O   0  0  0  0  0  0  0  0  0  0  0  0
  160.4860  205.1680  150.4900 C   0  0  0  0  0  2  0  0  0  0  0  0
  161.2050  204.5900  147.7750 C   0  0  0  0  0  0  0  0  0  0  0  0
  161.1360  203.5360  148.7110 C   0  0  0  0  0  0  0  0  0  0  0  0
  161.2570  204.2940  146.4050 C   0  0  0  0  0  3  0  0  0  0  0  0
  161.2570  202.9650  145.9710 C   0  0  0  0  0  3  0  0  0  0  0  0
  161.2090  199.4610  146.0920 N   0  0  0  0  0  0  0  0  0  0  0  0
  161.2070  200.5610  146.4530 C   0  0  0  0  0  0  0  0  0  0  0  0
  1 12  1  0  0  0  0
  3  6  1  0  0  0  0
  3 12  2  0  0  0  0
  5  8  1  0  0  0  0
  6  2  1  0  0  0  0
  7  9  1  0  0  0  0
  7 13  1  1  0  0  0
  8  2  1  6  0  0  0
  8  7  1  0  0  0  0
  8  9  1  0  0  0  0
  9 11  1  1  0  0  0
 10 15  1  0  0  0  0
 10 16  1  0  0  0  0
 10  4  1  1  0  0  0
 12  5  1  0  0  0  0
 13 10  1  0  0  0  0
 15 11  1  6  0  0  0
 15 16  1  0  0  0  0
 16 14  1  6  0  0  0
 17  1  1  0  0  0  0
 18 17  1  1  0  0  0
 18 24  1  0  0  0  0
 19 24  1  0  0  0  0
 20 18  1  0  0  0  0
 21 26  1  0  0  0  0
 22 21  2  0  0  0  0
 23 20  2  0  0  0  0
 25 20  1  0  0  0  0
 25 26  2  0  0  0  0
 26 19  1  0  0  0  0
 27 25  1  0  0  0  0
 28 27  2  0  0  0  0
 28 22  1  0  0  0  0
 29 30  3  0  0  0  0
 30 22  1  0  0  0  0
M  END
>  <MODEL>
2

>  <REMARK>
 VINA RESULT:      -8.1      2.817      4.553
  Name = 
  4 active torsions:
  status: ('A' for Active; 'I' for Inactive)
    1  A    between atoms: C_3  and  O_18
    2  A    between atoms: C_12  and  O_18
    3  A    between atoms: C_12  and  C_19
    4  A    between atoms: C_16  and  C_29
                            x       y       z     vdW  Elec       q    Type
                         _______ _______ _______ _____ _____    ______ ____

>  <TORSDO>
F 4

$$$$
=
 OpenBabel11072411033D

 30 35  0  0  1  0  0  0  0  0999 V2000
  160.8010  207.1090  153.2310 C   0  0  0  0  0  2  0  0  0  0  0  0
  161.1070  211.0110  151.3930 C   0  0  0  0  0  2  0  0  0  0  0  0
  162.0310  208.7940  152.0130 N   0  0  0  0  0  0  0  0  0  0  0  0
  156.4100  210.9680  155.4610 C   0  0  0  0  0  1  0  0  0  0  0  0
  160.1060  209.5340  153.1860 N   0  0  0  0  0  2  0  0  0  0  0  0
  162.3610  210.1590  151.5900 C   0  0  0  0  0  2  0  0  0  0  0  0
  159.0550  211.8150  152.7700 C   0  0  2  0  0  3  0  0  0  0  0  0
  160.2450  210.8790  152.6370 C   0  0  2  0  0  0  0  0  0  0  0  0
  160.3150  212.0200  153.6370 C   0  0  2  0  0  3  0  0  0  0  0  0
  157.5970  211.6390  154.8050 C   0  0  2  0  0  0  0  0  0  0  0  0
  160.1420  211.5900  155.0970 C   0  0  0  0  0  2  0  0  0  0  0  0
  161.0370  208.5160  152.8050 C   0  0  0  0  0  0  0  0  0  0  0  0
  157.9460  211.1450  153.4590 N   0  0  0  0  0  2  0  0  0  0  0  0
  158.5570  213.8620  154.3780 F   0  0  0  0  0  0  0  0  0  0  0  0
  158.7670  211.8230  155.7540 C   0  0  1  0  0  3  0  0  0  0  0  0
  157.9350  213.0470  155.3060 C   0  0  2  0  0  3  0  0  0  0  0  0
  160.5440  206.3160  152.1080 O   0  0  0  0  0  0  0  0  0  0  0  0
  161.6470  205.4590  152.0030 C   0  0  1  0  0  3  0  0  0  0  0  0
  161.8480  205.7110  149.4970 C   0  0  0  0  0  2  0  0  0  0  0  0
  161.1710  204.0500  151.8000 C   0  0  0  0  0  0  0  0  0  0  0  0
  161.2240  203.7870  148.0280 C   0  0  0  0  0  3  0  0  0  0  0  0
  160.7400  202.4900  147.8350 C   0  0  0  0  0  0  0  0  0  0  0  0
  160.8780  203.3480  152.8040 O   0  0  0  0  0  0  0  0  0  0  0  0
  162.5500  205.8940  150.8430 C   0  0  0  0  0  2  0  0  0  0  0  0
  161.0100  203.5100  150.4340 C   0  0  0  0  0  0  0  0  0  0  0  0
  161.3730  204.2980  149.3210 C   0  0  0  0  0  0  0  0  0  0  0  0
  160.5270  202.2090  150.2310 C   0  0  0  0  0  3  0  0  0  0  0  0
  160.3930  201.7020  148.9350 C   0  0  0  0  0  3  0  0  0  0  0  0
  160.4800  201.5490  145.4330 N   0  0  0  0  0  0  0  0  0  0  0  0
  160.5960  201.9690  146.5050 C   0  0  0  0  0  0  0  0  0  0  0  0
  2  6  1  0  0  0  0
  3 12  2  0  0  0  0
  6  3  1  0  0  0  0
  7 13  1  1  0  0  0
  7  9  1  0  0  0  0
  8  2  1  6  0  0  0
  8  7  1  0  0  0  0
  8  5  1  0  0  0  0
  8  9  1  0  0  0  0
  9 11  1  1  0  0  0
 10 16  1  0  0  0  0
 10  4  1  1  0  0  0
 10 15  1  0  0  0  0
 12  5  1  0  0  0  0
 12  1  1  0  0  0  0
 13 10  1  0  0  0  0
 15 11  1  6  0  0  0
 16 14  1  6  0  0  0
 16 15  1  0  0  0  0
 17  1  1  0  0  0  0
 18 17  1  6  0  0  0
 19 24  1  0  0  0  0
 20 18  1  0  0  0  0
 20 23  2  0  0  0  0
 21 26  1  0  0  0  0
 22 21  2  0  0  0  0
 22 28  1  0  0  0  0
 24 18  1  0  0  0  0
 25 20  1  0  0  0  0
 26 19  1  0  0  0  0
 26 25  2  0  0  0  0
 27 25  1  0  0  0  0
 28 27  2  0  0  0  0
 29 30  3  0  0  0  0
 30 22  1  0  0  0  0
M  END
>  <MODEL>
3

>  <REMARK>
 VINA RESULT:      -7.4      1.688      2.846
  Name = 
  4 active torsions:
  status: ('A' for Active; 'I' for Inactive)
    1  A    between atoms: C_3  and  O_18
    2  A    between atoms: C_12  and  O_18
    3  A    between atoms: C_12  and  C_19
    4  A    between atoms: C_16  and  C_29
                            x       y       z     vdW  Elec       q    Type
                         _______ _______ _______ _____ _____    ______ ____

>  <TORSDO>
F 4

$$$$
=
 OpenBabel11072411033D

 30 35  0  0  1  0  0  0  0  0999 V2000
  161.6950  210.3390  150.3530 C   0  0  0  0  0  2  0  0  0  0  0  0
  158.8320  212.4360  152.8240 C   0  0  0  0  0  2  0  0  0  0  0  0
  160.4430  212.3200  150.9420 N   0  0  0  0  0  0  0  0  0  0  0  0
  160.8980  207.3970  155.8160 C   0  0  0  0  0  1  0  0  0  0  0  0
  160.5930  210.6330  152.6040 N   0  0  0  0  0  2  0  0  0  0  0  0
  159.7080  213.2140  151.8420 C   0  0  0  0  0  2  0  0  0  0  0  0
  159.0980  210.6200  154.6650 C   0  0  2  0  0  3  0  0  0  0  0  0
  159.6920  211.3710  153.4830 C   0  0  2  0  0  0  0  0  0  0  0  0
  160.2010  211.6780  154.8810 C   0  0  2  0  0  3  0  0  0  0  0  0
  160.4760  208.8500  155.7900 C   0  0  2  0  0  0  0  0  0  0  0  0
  161.5790  211.0830  155.1930 C   0  0  0  0  0  2  0  0  0  0  0  0
  160.9120  211.1650  151.3140 C   0  0  0  0  0  0  0  0  0  0  0  0
  159.5740  209.2320  154.6850 N   0  0  0  0  0  2  0  0  0  0  0  0
  159.6470  210.6390  157.2570 F   0  0  0  0  0  0  0  0  0  0  0  0
  161.6280  209.8020  156.0480 C   0  0  1  0  0  3  0  0  0  0  0  0
  160.5420  209.5930  157.1280 C   0  0  2  0  0  3  0  0  0  0  0  0
  161.2060  209.0290  150.3540 O   0  0  0  0  0  0  0  0  0  0  0  0
  162.3420  208.2130  150.4030 C   0  0  1  0  0  3  0  0  0  0  0  0
  161.5880  206.7200  148.5080 C   0  0  0  0  0  2  0  0  0  0  0  0
  162.1070  207.0790  151.3580 C   0  0  0  0  0  0  0  0  0  0  0  0
  160.8660  204.3820  149.0170 C   0  0  0  0  0  3  0  0  0  0  0  0
  160.6050  203.3390  149.9110 C   0  0  0  0  0  0  0  0  0  0  0  0
  162.3310  207.2520  152.5860 O   0  0  0  0  0  0  0  0  0  0  0  0
  162.6720  207.6760  149.0040 C   0  0  0  0  0  2  0  0  0  0  0  0
  161.5790  205.7900  150.8660 C   0  0  0  0  0  0  0  0  0  0  0  0
  161.3630  205.6020  149.4840 C   0  0  0  0  0  0  0  0  0  0  0  0
  161.3160  204.7380  151.7550 C   0  0  0  0  0  3  0  0  0  0  0  0
  160.8300  203.5180  151.2780 C   0  0  0  0  0  3  0  0  0  0  0  0
  159.6950  201.0770  149.0310 N   0  0  0  0  0  0  0  0  0  0  0  0
  160.1010  202.0860  149.4240 C   0  0  0  0  0  0  0  0  0  0  0  0
  1 17  1  0  0  0  0
  1 12  1  0  0  0  0
  3 12  2  0  0  0  0
  3  6  1  0  0  0  0
  5  8  1  0  0  0  0
  6  2  1  0  0  0  0
  7 13  1  6  0  0  0
  7  9  1  0  0  0  0
  8  2  1  6  0  0  0
  8  7  1  0  0  0  0
  8  9  1  0  0  0  0
  9 11  1  6  0  0  0
 10  4  1  1  0  0  0
 10 15  1  0  0  0  0
 10 16  1  0  0  0  0
 12  5  1  0  0  0  0
 13 10  1  0  0  0  0
 15 11  1  6  0  0  0
 15 16  1  0  0  0  0
 16 14  1  6  0  0  0
 18 17  1  6  0  0  0
 18 20  1  0  0  0  0
 19 24  1  0  0  0  0
 19 26  1  0  0  0  0
 20 23  2  0  0  0  0
 21 26  2  0  0  0  0
 21 22  1  0  0  0  0
 22 28  2  0  0  0  0
 24 18  1  0  0  0  0
 25 20  1  0  0  0  0
 25 27  2  0  0  0  0
 26 25  1  0  0  0  0
 28 27  1  0  0  0  0
 29 30  3  0  0  0  0
 30 22  1  0  0  0  0
M  END
>  <MODEL>
4

>  <REMARK>
 VINA RESULT:      -7.4      2.073      3.564
  Name = 
  4 active torsions:
  status: ('A' for Active; 'I' for Inactive)
    1  A    between atoms: C_3  and  O_18
    2  A    between atoms: C_12  and  O_18
    3  A    between atoms: C_12  and  C_19
    4  A    between atoms: C_16  and  C_29
                            x       y       z     vdW  Elec       q    Type
                         _______ _______ _______ _____ _____    ______ ____

>  <TORSDO>
F 4

$$$$
=
 OpenBabel11072411033D

 30 35  0  0  1  0  0  0  0  0999 V2000
  162.1950  210.9190  148.6730 C   0  0  0  0  0  2  0  0  0  0  0  0
  160.9120  207.4800  150.9590 C   0  0  0  0  0  2  0  0  0  0  0  0
  162.0920  209.6490  150.7260 N   0  0  0  0  0  0  0  0  0  0  0  0
  160.6110  206.1980  144.8860 C   0  0  0  0  0  1  0  0  0  0  0  0
  161.5790  208.4720  148.7290 N   0  0  0  0  0  2  0  0  0  0  0  0
  161.9560  208.4350  151.5370 C   0  0  0  0  0  2  0  0  0  0  0  0
  160.4560  206.1880  148.7500 C   0  0  2  0  0  3  0  0  0  0  0  0
  161.2210  207.2770  149.4850 C   0  0  2  0  0  0  0  0  0  0  0  0
  161.9430  205.9930  149.1130 C   0  0  2  0  0  3  0  0  0  0  0  0
  160.9280  205.8110  146.3140 C   0  0  2  0  0  0  0  0  0  0  0  0
  162.8970  206.1300  147.9210 C   0  0  0  0  0  2  0  0  0  0  0  0
  161.9900  209.6520  149.4280 C   0  0  0  0  0  0  0  0  0  0  0  0
  160.2170  206.5780  147.3550 N   0  0  0  0  0  2  0  0  0  0  0  0
  161.1870  203.8410  147.7610 F   0  0  0  0  0  0  0  0  0  0  0  0
  162.4120  205.6100  146.5540 C   0  0  1  0  0  3  0  0  0  0  0  0
  161.4630  204.3900  146.5230 C   0  0  2  0  0  3  0  0  0  0  0  0
  161.1950  211.0540  147.7040 O   0  0  0  0  0  0  0  0  0  0  0  0
  161.0380  212.4340  147.5270 C   0  0  1  0  0  3  0  0  0  0  0  0
  159.7060  212.2030  145.3920 C   0  0  0  0  0  2  0  0  0  0  0  0
  162.1870  212.9730  146.7250 C   0  0  0  0  0  0  0  0  0  0  0  0
  160.7650  212.8530  143.2230 C   0  0  0  0  0  3  0  0  0  0  0  0
  161.8480  213.3140  142.4700 C   0  0  0  0  0  0  0  0  0  0  0  0
  163.2520  213.2950  147.3150 O   0  0  0  0  0  0  0  0  0  0  0  0
  159.7070  212.7320  146.8270 C   0  0  0  0  0  2  0  0  0  0  0  0
  162.0790  213.0830  145.2550 C   0  0  0  0  0  0  0  0  0  0  0  0
  160.8690  212.7470  144.6130 C   0  0  0  0  0  0  0  0  0  0  0  0
  163.1610  213.5450  144.4920 C   0  0  0  0  0  3  0  0  0  0  0  0
  163.0450  213.6600  143.1040 C   0  0  0  0  0  3  0  0  0  0  0  0
  161.6420  213.5200  139.8940 N   0  0  0  0  0  0  0  0  0  0  0  0
  161.7340  213.4280  141.0430 C   0  0  0  0  0  0  0  0  0  0  0  0
  1 12  1  0  0  0  0
  2  6  1  0  0  0  0
  3  6  1  0  0  0  0
  5 12  1  0  0  0  0
  5  8  1  0  0  0  0
  7 13  1  6  0  0  0
  7  9  1  0  0  0  0
  7  8  1  0  0  0  0
  8  2  1  1  0  0  0
  9 11  1  6  0  0  0
  9  8  1  0  0  0  0
 10  4  1  6  0  0  0
 10 16  1  0  0  0  0
 10 15  1  0  0  0  0
 10 13  1  0  0  0  0
 12  3  2  0  0  0  0
 15 11  1  1  0  0  0
 16 15  1  0  0  0  0
 16 14  1  1  0  0  0
 17  1  1  0  0  0  0
 18 17  1  6  0  0  0
 19 24  1  0  0  0  0
 20 23  2  0  0  0  0
 20 18  1  0  0  0  0
 21 26  1  0  0  0  0
 22 28  1  0  0  0  0
 22 21  2  0  0  0  0
 24 18  1  0  0  0  0
 25 20  1  0  0  0  0
 26 25  2  0  0  0  0
 26 19  1  0  0  0  0
 27 25  1  0  0  0  0
 28 27  2  0  0  0  0
 29 30  3  0  0  0  0
 30 22  1  0  0  0  0
M  END
>  <MODEL>
5

>  <REMARK>
 VINA RESULT:      -7.3      6.722      9.931
  Name = 
  4 active torsions:
  status: ('A' for Active; 'I' for Inactive)
    1  A    between atoms: C_3  and  O_18
    2  A    between atoms: C_12  and  O_18
    3  A    between atoms: C_12  and  C_19
    4  A    between atoms: C_16  and  C_29
                            x       y       z     vdW  Elec       q    Type
                         _______ _______ _______ _____ _____    ______ ____

>  <TORSDO>
F 4

$$$$
=
 OpenBabel11072411033D

 30 35  0  0  1  0  0  0  0  0999 V2000
  162.4870  210.2010  152.0660 C   0  0  0  0  0  2  0  0  0  0  0  0
  161.3620  211.1950  156.1210 C   0  0  0  0  0  2  0  0  0  0  0  0
  162.4230  209.7200  154.4330 N   0  0  0  0  0  0  0  0  0  0  0  0
  157.8860  214.4400  152.1210 C   0  0  0  0  0  1  0  0  0  0  0  0
  160.8780  211.3380  153.6420 N   0  0  0  0  0  2  0  0  0  0  0  0
  161.8840  209.7960  155.7950 C   0  0  0  0  0  2  0  0  0  0  0  0
  159.6090  212.8870  155.2150 C   0  0  2  0  0  3  0  0  0  0  0  0
  160.4300  211.6250  155.0010 C   0  0  2  0  0  0  0  0  0  0  0  0
  158.9400  211.4970  155.2700 C   0  0  2  0  0  3  0  0  0  0  0  0
  158.0540  213.6430  153.3960 C   0  0  2  0  0  0  0  0  0  0  0  0
  158.1040  211.1610  154.0300 C   0  0  0  0  0  2  0  0  0  0  0  0
  161.9150  210.3750  153.4300 C   0  0  0  0  0  0  0  0  0  0  0  0
  159.4230  213.6010  153.9470 N   0  0  0  0  0  2  0  0  0  0  0  0
  157.0190  213.2950  155.5990 F   0  0  0  0  0  0  0  0  0  0  0  0
  157.3290  212.3110  153.3570 C   0  0  1  0  0  3  0  0  0  0  0  0
  156.7920  213.4570  154.2440 C   0  0  2  0  0  3  0  0  0  0  0  0
  162.4790  208.8460  151.7230 O   0  0  0  0  0  0  0  0  0  0  0  0
  161.1760  208.5860  151.2810 C   0  0  1  0  0  3  0  0  0  0  0  0
  160.9860  206.3930  152.5230 C   0  0  0  0  0  2  0  0  0  0  0  0
  161.2260  207.8220  149.9890 C   0  0  0  0  0  0  0  0  0  0  0  0
  160.9980  204.2560  151.2260 C   0  0  0  0  0  3  0  0  0  0  0  0
  161.0880  203.5430  150.0280 C   0  0  0  0  0  0  0  0  0  0  0  0
  161.3350  208.4550  148.9040 O   0  0  0  0  0  0  0  0  0  0  0  0
  160.4020  207.7950  152.3430 C   0  0  0  0  0  2  0  0  0  0  0  0
  161.1890  206.3450  149.9970 C   0  0  0  0  0  0  0  0  0  0  0  0
  161.0360  205.6540  151.2170 C   0  0  0  0  0  0  0  0  0  0  0  0
  161.2770  205.6210  148.8000 C   0  0  0  0  0  3  0  0  0  0  0  0
  161.2260  204.2250  148.8160 C   0  0  0  0  0  3  0  0  0  0  0  0
  161.0040  200.9520  150.0540 N   0  0  0  0  0  0  0  0  0  0  0  0
  161.0410  202.1080  150.0430 C   0  0  0  0  0  0  0  0  0  0  0  0
  1 12  1  0  0  0  0
  3  6  1  0  0  0  0
  5  8  1  0  0  0  0
  6  2  1  0  0  0  0
  7 13  1  6  0  0  0
  7  9  1  0  0  0  0
  8  7  1  0  0  0  0
  8  9  1  0  0  0  0
  8  2  1  1  0  0  0
  9 11  1  6  0  0  0
 10  4  1  6  0  0  0
 10 13  1  0  0  0  0
 10 16  1  0  0  0  0
 12  5  1  0  0  0  0
 12  3  2  0  0  0  0
 15 10  1  0  0  0  0
 15 11  1  1  0  0  0
 15 16  1  0  0  0  0
 16 14  1  1  0  0  0
 17  1  1  0  0  0  0
 18 17  1  1  0  0  0
 18 24  1  0  0  0  0
 20 25  1  0  0  0  0
 20 18  1  0  0  0  0
 22 30  1  0  0  0  0
 22 21  2  0  0  0  0
 23 20  2  0  0  0  0
 24 19  1  0  0  0  0
 25 26  2  0  0  0  0
 26 21  1  0  0  0  0
 26 19  1  0  0  0  0
 27 28  2  0  0  0  0
 27 25  1  0  0  0  0
 28 22  1  0  0  0  0
 30 29  3  0  0  0  0
M  END
>  <MODEL>
6

>  <REMARK>
 VINA RESULT:      -7.1      1.414      2.057
  Name = 
  4 active torsions:
  status: ('A' for Active; 'I' for Inactive)
    1  A    between atoms: C_3  and  O_18
    2  A    between atoms: C_12  and  O_18
    3  A    between atoms: C_12  and  C_19
    4  A    between atoms: C_16  and  C_29
                            x       y       z     vdW  Elec       q    Type
                         _______ _______ _______ _____ _____    ______ ____

>  <TORSDO>
F 4

$$$$
=
 OpenBabel11072411033D

 30 35  0  0  1  0  0  0  0  0999 V2000
  162.0910  207.5710  151.5350 C   0  0  0  0  0  2  0  0  0  0  0  0
  161.1840  209.0430  155.4990 C   0  0  0  0  0  2  0  0  0  0  0  0
  161.5810  207.2150  153.8700 N   0  0  0  0  0  0  0  0  0  0  0  0
  160.0520  213.4810  151.3000 C   0  0  0  0  0  1  0  0  0  0  0  0
  161.0660  209.3590  152.9920 N   0  0  0  0  0  2  0  0  0  0  0  0
  161.0140  207.5580  155.1780 C   0  0  0  0  0  2  0  0  0  0  0  0
  160.5330  211.3480  154.4890 C   0  0  2  0  0  3  0  0  0  0  0  0
  160.6780  209.8450  154.3120 C   0  0  2  0  0  0  0  0  0  0  0  0
  159.2860  210.4400  154.4380 C   0  0  2  0  0  3  0  0  0  0  0  0
  159.7010  212.7200  152.5590 C   0  0  2  0  0  0  0  0  0  0  0  0
  158.5130  210.5200  153.1170 C   0  0  0  0  0  2  0  0  0  0  0  0
  161.5400  208.0160  152.8450 C   0  0  0  0  0  0  0  0  0  0  0  0
  160.8290  212.0450  153.2320 N   0  0  0  0  0  2  0  0  0  0  0  0
  158.4190  212.9380  154.6450 F   0  0  0  0  0  0  0  0  0  0  0  0
  158.4410  211.8880  152.4110 C   0  0  1  0  0  3  0  0  0  0  0  0
  158.4260  213.1660  153.2810 C   0  0  2  0  0  3  0  0  0  0  0  0
  161.9900  206.1800  151.4330 O   0  0  0  0  0  0  0  0  0  0  0  0
  160.7270  205.9430  150.8780 C   0  0  1  0  0  3  0  0  0  0  0  0
  160.8640  203.4350  151.1570 C   0  0  0  0  0  2  0  0  0  0  0  0
  160.8560  205.7610  149.3930 C   0  0  0  0  0  0  0  0  0  0  0  0
  161.1430  202.0000  149.1290 C   0  0  0  0  0  3  0  0  0  0  0  0
  161.3070  201.8320  147.7510 C   0  0  0  0  0  0  0  0  0  0  0  0
  160.8560  206.7760  148.6460 O   0  0  0  0  0  0  0  0  0  0  0  0
  160.0900  204.7030  151.5170 C   0  0  0  0  0  2  0  0  0  0  0  0
  161.0230  204.4080  148.8220 C   0  0  0  0  0  0  0  0  0  0  0  0
  160.9890  203.2800  149.6680 C   0  0  0  0  0  0  0  0  0  0  0  0
  161.1850  204.2300  147.4410 C   0  0  0  0  0  3  0  0  0  0  0  0
  161.3280  202.9460  146.9080 C   0  0  0  0  0  3  0  0  0  0  0  0
  161.5800  199.4520  146.7590 N   0  0  0  0  0  0  0  0  0  0  0  0
  161.4580  200.5140  147.2020 C   0  0  0  0  0  0  0  0  0  0  0  0
  1 12  1  0  0  0  0
  3  6  1  0  0  0  0
  5  8  1  0  0  0  0
  6  2  1  0  0  0  0
  7 13  1  6  0  0  0
  8  9  1  0  0  0  0
  8  7  1  0  0  0  0
  8  2  1  1  0  0  0
  9 11  1  6  0  0  0
  9  7  1  0  0  0  0
 10  4  1  6  0  0  0
 10 13  1  0  0  0  0
 10 16  1  0  0  0  0
 12  5  1  0  0  0  0
 12  3  2  0  0  0  0
 15 10  1  0  0  0  0
 15 11  1  1  0  0  0
 15 16  1  0  0  0  0
 16 14  1  1  0  0  0
 17  1  1  0  0  0  0
 18 17  1  1  0  0  0
 18 24  1  0  0  0  0
 19 24  1  0  0  0  0
 20 18  1  0  0  0  0
 21 26  1  0  0  0  0
 22 21  2  0  0  0  0
 23 20  2  0  0  0  0
 25 20  1  0  0  0  0
 25 26  2  0  0  0  0
 26 19  1  0  0  0  0
 27 25  1  0  0  0  0
 28 27  2  0  0  0  0
 28 22  1  0  0  0  0
 29 30  3  0  0  0  0
 30 22  1  0  0  0  0
M  END
>  <MODEL>
7

>  <REMARK>
 VINA RESULT:      -7.1      2.024      3.154
  Name = 
  4 active torsions:
  status: ('A' for Active; 'I' for Inactive)
    1  A    between atoms: C_3  and  O_18
    2  A    between atoms: C_12  and  O_18
    3  A    between atoms: C_12  and  C_19
    4  A    between atoms: C_16  and  C_29
                            x       y       z     vdW  Elec       q    Type
                         _______ _______ _______ _____ _____    ______ ____

>  <TORSDO>
F 4

$$$$
=
 OpenBabel11072411033D

 30 35  0  0  1  0  0  0  0  0999 V2000
  161.0110  203.8020  151.7590 C   0  0  0  0  0  2  0  0  0  0  0  0
  160.4790  201.5190  148.1260 C   0  0  0  0  0  2  0  0  0  0  0  0
  161.0880  201.7290  150.5210 N   0  0  0  0  0  0  0  0  0  0  0  0
  160.9390  207.5630  146.7610 C   0  0  0  0  0  1  0  0  0  0  0  0
  161.0290  203.7240  149.2370 N   0  0  0  0  0  2  0  0  0  0  0  0
  161.2050  200.8970  149.3180 C   0  0  0  0  0  2  0  0  0  0  0  0
  160.5200  203.7190  146.7430 C   0  0  2  0  0  3  0  0  0  0  0  0
  160.9320  202.9630  147.9960 C   0  0  2  0  0  0  0  0  0  0  0  0
  161.9790  203.2530  146.9340 C   0  0  2  0  0  3  0  0  0  0  0  0
  161.2410  206.1080  146.4780 C   0  0  2  0  0  0  0  0  0  0  0  0
  162.9490  204.3830  147.2980 C   0  0  0  0  0  2  0  0  0  0  0  0
  161.0790  203.0290  150.4880 C   0  0  0  0  0  0  0  0  0  0  0  0
  160.2890  205.1350  147.0490 N   0  0  0  0  0  2  0  0  0  0  0  0
  161.8860  204.5970  144.6490 F   0  0  0  0  0  0  0  0  0  0  0  0
  162.7080  205.7660  146.6620 C   0  0  1  0  0  3  0  0  0  0  0  0
  162.1010  205.8280  145.2410 C   0  0  2  0  0  3  0  0  0  0  0  0
  160.8300  205.1590  151.4740 O   0  0  0  0  0  0  0  0  0  0  0  0
  161.9890  205.7900  151.9400 C   0  0  1  0  0  3  0  0  0  0  0  0
  160.8430  206.8540  153.9250 C   0  0  0  0  0  2  0  0  0  0  0  0
  162.1100  207.1490  151.3120 C   0  0  0  0  0  0  0  0  0  0  0  0
  160.4580  209.3240  153.9260 C   0  0  0  0  0  3  0  0  0  0  0  0
  160.5310  210.5830  153.3240 C   0  0  0  0  0  0  0  0  0  0  0  0
  162.6550  207.2570  150.1810 O   0  0  0  0  0  0  0  0  0  0  0  0
  161.9530  205.9070  153.4690 C   0  0  0  0  0  2  0  0  0  0  0  0
  161.5580  208.3360  151.9960 C   0  0  0  0  0  0  0  0  0  0  0  0
  160.9790  208.2010  153.2760 C   0  0  0  0  0  0  0  0  0  0  0  0
  161.6280  209.6030  151.4000 C   0  0  0  0  0  3  0  0  0  0  0  0
  161.1160  210.7220  152.0620 C   0  0  0  0  0  3  0  0  0  0  0  0
  159.5730  212.6600  154.5440 N   0  0  0  0  0  0  0  0  0  0  0  0
  160.0010  211.7330  153.9990 C   0  0  0  0  0  0  0  0  0  0  0  0
  2  6  1  0  0  0  0
  5 12  1  0  0  0  0
  6  3  1  0  0  0  0
  7  9  1  0  0  0  0
  7 13  1  1  0  0  0
  7  8  1  0  0  0  0
  8  2  1  1  0  0  0
  8  5  1  0  0  0  0
  9 11  1  1  0  0  0
  9  8  1  0  0  0  0
 10 15  1  0  0  0  0
 10  4  1  1  0  0  0
 10 13  1  0  0  0  0
 12  3  2  0  0  0  0
 12  1  1  0  0  0  0
 15 11  1  1  0  0  0
 16 14  1  1  0  0  0
 16 10  1  0  0  0  0
 16 15  1  0  0  0  0
 17  1  1  0  0  0  0
 18 17  1  6  0  0  0
 18 24  1  0  0  0  0
 20 18  1  0  0  0  0
 20 25  1  0  0  0  0
 22 21  1  0  0  0  0
 22 30  1  0  0  0  0
 23 20  2  0  0  0  0
 24 19  1  0  0  0  0
 25 26  1  0  0  0  0
 26 19  1  0  0  0  0
 26 21  2  0  0  0  0
 27 25  2  0  0  0  0
 27 28  1  0  0  0  0
 28 22  2  0  0  0  0
 30 29  3  0  0  0  0
M  END
>  <MODEL>
8

>  <REMARK>
 VINA RESULT:      -6.7      3.795      9.526
  Name = 
  4 active torsions:
  status: ('A' for Active; 'I' for Inactive)
    1  A    between atoms: C_3  and  O_18
    2  A    between atoms: C_12  and  O_18
    3  A    between atoms: C_12  and  C_19
    4  A    between atoms: C_16  and  C_29
                            x       y       z     vdW  Elec       q    Type
                         _______ _______ _______ _____ _____    ______ ____

>  <TORSDO>
F 4

$$$$
=
 OpenBabel11072411033D

 30 35  0  0  1  0  0  0  0  0999 V2000
  160.8290  207.2940  147.7510 C   0  0  0  0  0  2  0  0  0  0  0  0
  162.1210  203.9520  145.3300 C   0  0  0  0  0  2  0  0  0  0  0  0
  161.0820  206.1860  145.6190 N   0  0  0  0  0  0  0  0  0  0  0  0
  161.6060  202.1750  151.2620 C   0  0  0  0  0  1  0  0  0  0  0  0
  161.2680  204.8180  147.5490 N   0  0  0  0  0  2  0  0  0  0  0  0
  161.2250  205.0320  144.7250 C   0  0  0  0  0  2  0  0  0  0  0  0
  162.2170  202.4570  147.4540 C   0  0  2  0  0  3  0  0  0  0  0  0
  161.6250  203.6600  146.7360 C   0  0  2  0  0  0  0  0  0  0  0  0
  160.7730  202.4140  146.9110 C   0  0  2  0  0  3  0  0  0  0  0  0
  161.4340  201.9290  149.7790 C   0  0  2  0  0  0  0  0  0  0  0  0
  159.6970  202.5350  147.9950 C   0  0  0  0  0  2  0  0  0  0  0  0
  161.0300  206.0780  146.9150 C   0  0  0  0  0  0  0  0  0  0  0  0
  162.3170  202.7150  148.8950 N   0  0  0  0  0  2  0  0  0  0  0  0
  161.2060  200.1070  148.1450 F   0  0  0  0  0  0  0  0  0  0  0  0
  159.9770  201.8700  149.3580 C   0  0  1  0  0  3  0  0  0  0  0  0
  160.8260  200.5780  149.3880 C   0  0  2  0  0  3  0  0  0  0  0  0
  160.6210  206.9180  149.0820 O   0  0  0  0  0  0  0  0  0  0  0  0
  161.8370  207.1670  149.7290 C   0  0  1  0  0  3  0  0  0  0  0  0
  161.3550  205.6010  151.6530 C   0  0  0  0  0  2  0  0  0  0  0  0
  161.6810  208.3290  150.6670 C   0  0  0  0  0  0  0  0  0  0  0  0
  160.8740  206.5610  153.9100 C   0  0  0  0  0  3  0  0  0  0  0  0
  160.6850  207.6430  154.7740 C   0  0  0  0  0  0  0  0  0  0  0  0
  161.8190  209.5010  150.2230 O   0  0  0  0  0  0  0  0  0  0  0  0
  162.2980  205.9190  150.4930 C   0  0  0  0  0  2  0  0  0  0  0  0
  161.3270  208.0990  152.0820 C   0  0  0  0  0  0  0  0  0  0  0  0
  161.2060  206.7800  152.5700 C   0  0  0  0  0  0  0  0  0  0  0  0
  161.1370  209.1780  152.9570 C   0  0  0  0  0  3  0  0  0  0  0  0
  160.8170  208.9500  154.2980 C   0  0  0  0  0  3  0  0  0  0  0  0
  160.0820  207.2240  157.2610 N   0  0  0  0  0  0  0  0  0  0  0  0
  160.3510  207.4120  156.1510 C   0  0  0  0  0  0  0  0  0  0  0  0
  1 17  1  0  0  0  0
  3 12  2  0  0  0  0
  6  2  1  0  0  0  0
  6  3  1  0  0  0  0
  7 13  1  1  0  0  0
  8  2  1  6  0  0  0
  8  9  1  0  0  0  0
  8  7  1  0  0  0  0
  8  5  1  0  0  0  0
  9  7  1  0  0  0  0
  9 11  1  1  0  0  0
 10  4  1  1  0  0  0
 12  5  1  0  0  0  0
 12  1  1  0  0  0  0
 13 10  1  0  0  0  0
 15 11  1  6  0  0  0
 15 16  1  0  0  0  0
 15 10  1  0  0  0  0
 16 14  1  6  0  0  0
 16 10  1  0  0  0  0
 18 17  1  1  0  0  0
 18 24  1  0  0  0  0
 18 20  1  0  0  0  0
 19 26  1  0  0  0  0
 20 25  1  0  0  0  0
 21 22  1  0  0  0  0
 22 30  1  0  0  0  0
 23 20  2  0  0  0  0
 24 19  1  0  0  0  0
 25 26  1  0  0  0  0
 25 27  2  0  0  0  0
 26 21  2  0  0  0  0
 27 28  1  0  0  0  0
 28 22  2  0  0  0  0
 30 29  3  0  0  0  0
M  END
>  <MODEL>
9

>  <REMARK>
 VINA RESULT:      -6.0      4.704      9.724
  Name = 
  4 active torsions:
  status: ('A' for Active; 'I' for Inactive)
    1  A    between atoms: C_3  and  O_18
    2  A    between atoms: C_12  and  O_18
    3  A    between atoms: C_12  and  C_19
    4  A    between atoms: C_16  and  C_29
                            x       y       z     vdW  Elec       q    Type
                         _______ _______ _______ _____ _____    ______ ____

>  <TORSDO>
F 4

$$$$
