=
 OpenBabel11072413403D

 67 73  0  0  1  0  0  0  0  0999 V2000
  162.0590  207.5090  142.0160 C   0  0  0  0  0  3  0  0  0  0  0  0
  160.4580  210.5370  141.2460 O   0  0  0  0  0  0  0  0  0  0  0  0
  160.7990  208.0950  141.4710 C   0  0  0  0  0  2  0  0  0  0  0  0
  163.1940  207.3380  149.3060 O   0  0  0  0  0  0  0  0  0  0  0  0
  161.4620  209.8040  150.3300 C   0  0  2  0  0  3  0  0  0  0  0  0
  158.6480  210.9950  148.9520 O   0  0  0  0  0  1  0  0  0  0  0  0
  161.3660  204.7390  150.1830 C   0  0  0  0  0  2  0  0  0  0  0  0
  160.5290  209.4210  142.0920 C   0  0  0  0  0  0  0  0  0  0  0  0
  160.9150  214.4530  145.3070 O   0  0  0  0  0  1  0  0  0  0  0  0
  160.8640  206.4450  151.6190 C   0  0  0  0  0  0  0  0  0  0  0  0
  158.0640  213.1110  147.1080 C   0  0  0  0  0  1  0  0  0  0  0  0
  160.9720  212.9560  145.5220 P   0  0  2  0  0  0  0  0  0  0  0  0
  162.1880  207.1740  143.2640 N   0  0  0  0  0  0  0  0  0  0  0  0
  161.5130  206.1690  150.5470 C   0  0  0  0  0  0  0  0  0  0  0  0
  159.3740  213.0210  147.8720 C   0  0  0  0  0  0  0  0  0  0  0  0
  160.3880  212.1840  147.0520 C   0  0  0  0  0  2  0  0  0  0  0  0
  162.5510  209.4790  148.0890 C   0  0  0  0  0  2  0  0  0  0  0  0
  160.6280  204.1910  151.4280 C   0  0  1  0  0  3  0  0  0  0  0  0
  160.3090  209.5300  143.4070 C   0  0  0  0  0  3  0  0  0  0  0  0
  161.6370  212.6830  147.1140 O   0  0  0  0  0  0  0  0  0  0  0  0
  162.1010  212.1580  142.0470 C   0  0  1  0  0  3  0  0  0  0  0  0
  162.6020  210.2400  149.4090 C   0  0  0  0  0  2  0  0  0  0  0  0
  160.2980  212.2910  149.9790 O   0  0  0  0  0  0  0  0  0  0  0  0
  161.5030  206.9480  146.7600 C   0  0  0  0  0  2  0  0  0  0  0  0
  161.8850  207.3880  149.8060 C   0  0  1  0  0  3  0  0  0  0  0  0
  161.2570  208.1460  153.3450 C   0  0  0  0  0  1  0  0  0  0  0  0
  160.7830  207.8900  151.9320 C   0  0  1  0  0  3  0  0  0  0  0  0
  162.9850  207.2840  146.8680 C   0  0  0  0  0  2  0  0  0  0  0  0
  163.2800  208.1120  148.1180 C   0  0  2  0  0  3  0  0  0  0  0  0
  161.3130  210.7520  151.3510 O   0  0  0  0  0  0  0  0  0  0  0  0
  161.1700  206.3420  145.4040 C   0  0  0  0  0  2  0  0  0  0  0  0
  160.1180  211.4300  151.0770 C   0  0  1  0  0  3  0  0  0  0  0  0
  163.7420  213.2600  143.6270 C   0  0  0  0  0  1  0  0  0  0  0  0
  160.2890  205.3430  152.2050 O   0  0  0  0  0  0  0  0  0  0  0  0
  161.7980  208.4430  150.9180 C   0  0  2  0  0  3  0  0  0  0  0  0
  159.1150  212.2980  149.2020 C   0  0  2  0  0  3  0  0  0  0  0  0
  159.8350  214.4470  148.1710 C   0  0  0  0  0  1  0  0  0  0  0  0
  161.2090  207.3540  144.3010 C   0  0  0  0  0  0  0  0  0  0  0  0
  162.2850  212.8860  143.3950 C   0  0  2  0  0  3  0  0  0  0  0  0
  160.4010  208.4240  144.3790 C   0  0  0  0  0  3  0  0  0  0  0  0
  160.6330  211.8930  141.6610 C   0  0  2  0  0  3  0  0  0  0  0  0
  161.8890  212.0330  144.4290 O   0  0  0  0  0  0  0  0  0  0  0  0
  159.6200  212.3840  152.5420 P   0  0  0  0  0  0  0  0  0  0  0  0
  158.1920  212.0450  152.9090 O   0  0  0  0  0  1  0  0  0  0  0  0
  160.6400  212.0100  153.8370 O   0  0  0  0  0  1  0  0  0  0  0  0
  159.7330  214.0360  152.1980 O   0  0  0  0  0  0  0  0  0  0  0  0
  161.8400  213.1960  139.7580 C   0  0  2  0  0  3  0  0  0  0  0  0
  161.3700  211.9210  139.0710 C   0  0  2  0  0  3  0  0  0  0  0  0
  162.7930  212.0160  139.6500 C   0  0  2  0  0  0  0  0  0  0  0  0
  162.8020  212.8880  140.8960 C   0  0  2  0  0  3  0  0  0  0  0  0
  165.2350  211.3940  138.8460 C   0  0  0  0  0  1  0  0  0  0  0  0
  164.4160  213.7700  138.7620 C   0  0  0  0  0  1  0  0  0  0  0  0
  164.0170  212.3080  138.7480 C   0  0  0  0  0  3  0  0  0  0  0  0
  160.9260  213.4500  137.2280 F   0  0  0  0  0  0  0  0  0  0  0  0
  161.1250  212.1200  137.5620 C   0  0  2  0  0  3  0  0  0  0  0  0
  160.1110  211.2800  137.0110 O   0  0  0  0  0  0  0  0  0  0  0  0
  158.9380  210.9390  137.6930 C   0  0  0  0  0  0  0  0  0  0  0  0
  158.7780  209.7510  138.2690 C   0  0  0  0  0  2  0  0  0  0  0  0
  157.7100  212.3320  139.2160 N   0  0  0  0  0  1  0  0  0  0  0  0
  157.8580  211.9510  137.8230 C   0  0  0  0  0  2  0  0  0  0  0  0
  159.1270  213.4290  142.1720 C   0  0  0  0  0  1  0  0  0  0  0  0
  159.7030  212.2490  142.6430 O   0  0  0  0  0  0  0  0  0  0  0  0
  159.4690  203.5180  151.0420 O   0  0  0  0  0  0  0  0  0  0  0  0
  159.8050  202.9210  149.8240 C   0  0  0  0  0  2  0  0  0  0  0  0
  160.7200  200.9890  148.9090 C   0  0  0  0  0  1  0  0  0  0  0  0
  159.8760  201.4790  149.9830 N   0  0  0  0  0  0  0  0  0  0  0  0
  158.6330  200.9940  149.7510 O   0  0  0  0  0  1  0  0  0  0  0  0
  1 13  2  0  0  0  0
  2 41  1  0  0  0  0
  2  8  1  0  0  0  0
  3  1  1  0  0  0  0
  3  8  1  0  0  0  0
  5 22  1  6  0  0  0
  5 35  1  0  0  0  0
  5 30  1  0  0  0  0
  6 36  1  0  0  0  0
  7 14  1  0  0  0  0
  7 18  1  0  0  0  0
  8 19  2  0  0  0  0
 10 27  1  0  0  0  0
 10 34  1  0  0  0  0
 11 15  1  0  0  0  0
 12  9  1  6  0  0  0
 12 20  1  0  0  0  0
 13 38  1  0  0  0  0
 14 10  2  0  0  0  0
 15 37  1  0  0  0  0
 15 36  1  0  0  0  0
 16 20  1  0  0  0  0
 16 15  1  0  0  0  0
 17 29  1  0  0  0  0
 17 22  1  0  0  0  0
 18 63  1  6  0  0  0
 18 34  1  0  0  0  0
 19 40  1  0  0  0  0
 21 50  1  6  0  0  0
 21 39  1  0  0  0  0
 23 32  1  0  0  0  0
 24 28  1  0  0  0  0
 25  4  1  1  0  0  0
 25 14  1  0  0  0  0
 25 35  1  0  0  0  0
 27 26  1  1  0  0  0
 29 28  1  6  0  0  0
 29  4  1  0  0  0  0
 31 24  1  0  0  0  0
 32 30  1  0  0  0  0
 32 43  1  1  0  0  0
 35 27  1  0  0  0  0
 36 23  1  0  0  0  0
 38 40  2  0  0  0  0
 38 31  1  0  0  0  0
 39 33  1  0  0  0  0
 39 42  1  0  0  0  0
 41 21  1  0  0  0  0
 41 62  1  0  0  0  0
 42 12  1  0  0  0  0
 43 44  1  0  0  0  0
 43 45  1  0  0  0  0
 46 43  2  0  0  0  0
 47 50  1  0  0  0  0
 48 49  1  0  0  0  0
 48 47  1  0  0  0  0
 49 47  1  0  0  0  0
 49 50  1  0  0  0  0
 53 52  1  0  0  0  0
 53 51  1  0  0  0  0
 53 49  1  0  0  0  0
 54 55  1  0  0  0  0
 55 48  1  0  0  0  0
 56 55  1  0  0  0  0
 56 57  1  0  0  0  0
 57 60  1  0  0  0  0
 57 58  2  0  0  0  0
 60 59  1  0  0  0  0
 61 62  1  0  0  0  0
 64 66  1  0  0  0  0
 64 63  1  0  0  0  0
 65 66  1  0  0  0  0
 67 66  1  0  0  0  0
M  END
>  <MODEL>
1

>  <REMARK>
 VINA RESULT:      29.6      0.000      0.000
  Name = 
  11 active torsions:
  status: ('A' for Active; 'I' for Inactive)
    1  A    between atoms: P_4  and  C_50
    2  A    between atoms: C_11  and  N_38
    3  A    between atoms: C_11  and  O_49
    4  A    between atoms: C_28  and  O_49
    5  A    between atoms: C_31  and  C_65
    6  A    between atoms: C_32  and  C_61
    7  A    between atoms: O_43  and  C_56
    8  A    between atoms: O_43  and  C_61
    9  A    between atoms: C_46  and  C_56
   10  A    between atoms: C_57  and  C_62
   11  A    between atoms: C_63  and  O_66
                            x       y       z     vdW  Elec       q    Type
                         _______ _______ _______ _____ _____    ______ ____

>  <TORSDO>
F 11

$$$$
=
 OpenBabel11072413403D

 67 73  0  0  1  0  0  0  0  0999 V2000
  161.5590  207.8310  143.6480 C   0  0  0  0  0  3  0  0  0  0  0  0
  159.9620  210.9360  143.2890 O   0  0  0  0  0  0  0  0  0  0  0  0
  160.2720  208.4800  143.2610 C   0  0  0  0  0  2  0  0  0  0  0  0
  163.2660  206.9700  150.7760 O   0  0  0  0  0  0  0  0  0  0  0  0
  161.6670  209.3520  152.1570 C   0  0  2  0  0  3  0  0  0  0  0  0
  158.7770  210.6990  151.1250 O   0  0  0  0  0  1  0  0  0  0  0  0
  161.4620  204.3240  151.5560 C   0  0  0  0  0  2  0  0  0  0  0  0
  160.0780  209.7450  144.0220 C   0  0  0  0  0  0  0  0  0  0  0  0
  160.8150  214.4530  147.6420 O   0  0  0  0  0  1  0  0  0  0  0  0
  161.1090  205.8950  153.1770 C   0  0  0  0  0  0  0  0  0  0  0  0
  158.0900  212.9840  149.5360 C   0  0  0  0  0  1  0  0  0  0  0  0
  160.8600  212.9410  147.7130 P   0  0  2  0  0  0  0  0  0  0  0  0
  161.7810  207.3800  144.8450 N   0  0  0  0  0  0  0  0  0  0  0  0
  161.6660  205.7120  152.0360 C   0  0  0  0  0  0  0  0  0  0  0  0
  159.4540  212.8080  150.1810 C   0  0  0  0  0  0  0  0  0  0  0  0
  160.3830  212.0380  149.2080 C   0  0  0  0  0  2  0  0  0  0  0  0
  162.5690  209.2230  149.8160 C   0  0  0  0  0  2  0  0  0  0  0  0
  160.8150  203.6710  152.8010 C   0  0  1  0  0  3  0  0  0  0  0  0
  159.9650  209.7340  145.3540 C   0  0  0  0  0  3  0  0  0  0  0  0
  161.6430  212.5150  149.2150 O   0  0  0  0  0  0  0  0  0  0  0  0
  161.6940  212.4560  144.1000 C   0  0  1  0  0  3  0  0  0  0  0  0
  162.7400  209.8580  151.1910 C   0  0  0  0  0  2  0  0  0  0  0  0
  160.5280  211.8740  152.1300 O   0  0  0  0  0  0  0  0  0  0  0  0
  161.3700  206.8390  148.3490 C   0  0  0  0  0  2  0  0  0  0  0  0
  162.0010  206.9900  151.3820 C   0  0  1  0  0  3  0  0  0  0  0  0
  161.6710  207.4240  155.0150 C   0  0  0  0  0  1  0  0  0  0  0  0
  161.0810  207.3060  153.6270 C   0  0  1  0  0  3  0  0  0  0  0  0
  162.8630  207.1460  148.3680 C   0  0  0  0  0  2  0  0  0  0  0  0
  163.2710  207.8500  149.6610 C   0  0  2  0  0  3  0  0  0  0  0  0
  161.6190  210.2020  153.2690 O   0  0  0  0  0  0  0  0  0  0  0  0
  160.9200  206.3650  146.9750 C   0  0  0  0  0  2  0  0  0  0  0  0
  160.4190  210.9180  153.1560 C   0  0  1  0  0  3  0  0  0  0  0  0
  163.4760  213.3870  145.6370 C   0  0  0  0  0  1  0  0  0  0  0  0
  160.5610  204.7500  153.7050 O   0  0  0  0  0  0  0  0  0  0  0  0
  162.0230  207.9380  152.5890 C   0  0  2  0  0  3  0  0  0  0  0  0
  159.2880  211.9680  151.4560 C   0  0  2  0  0  3  0  0  0  0  0  0
  159.9650  214.1940  150.5710 C   0  0  0  0  0  1  0  0  0  0  0  0
  160.8900  207.4740  145.9700 C   0  0  0  0  0  0  0  0  0  0  0  0
  161.9980  213.0540  145.4890 C   0  0  2  0  0  3  0  0  0  0  0  0
  160.1130  208.5420  146.2100 C   0  0  0  0  0  3  0  0  0  0  0  0
  160.1950  212.2450  143.8110 C   0  0  2  0  0  3  0  0  0  0  0  0
  161.6690  212.1140  146.4700 O   0  0  0  0  0  0  0  0  0  0  0  0
  160.0570  211.7370  154.7370 P   0  0  0  0  0  0  0  0  0  0  0  0
  161.2310  211.5730  155.6770 O   0  0  0  0  0  1  0  0  0  0  0  0
  159.7720  213.3830  154.4710 O   0  0  0  0  0  0  0  0  0  0  0  0
  158.6820  211.0360  155.4290 O   0  0  0  0  0  1  0  0  0  0  0  0
  161.2710  213.7110  141.9480 C   0  0  2  0  0  3  0  0  0  0  0  0
  160.7180  212.5130  141.1860 C   0  0  2  0  0  3  0  0  0  0  0  0
  162.1850  212.5310  141.6510 C   0  0  2  0  0  0  0  0  0  0  0  0
  162.3160  213.2820  142.9670 C   0  0  2  0  0  3  0  0  0  0  0  0
  163.5060  214.3430  140.2480 C   0  0  0  0  0  1  0  0  0  0  0  0
  163.4230  211.9430  139.5010 C   0  0  0  0  0  1  0  0  0  0  0  0
  163.3380  212.8900  140.6820 C   0  0  0  0  0  3  0  0  0  0  0  0
  160.3150  214.2240  139.5010 F   0  0  0  0  0  0  0  0  0  0  0  0
  160.3560  212.8580  139.7270 C   0  0  2  0  0  3  0  0  0  0  0  0
  159.1840  212.2060  139.2390 O   0  0  0  0  0  0  0  0  0  0  0  0
  157.9440  212.8430  139.1110 C   0  0  0  0  0  0  0  0  0  0  0  0
  157.3160  213.3770  140.1530 C   0  0  0  0  0  2  0  0  0  0  0  0
  155.9590  213.4170  137.8880 N   0  0  0  0  0  1  0  0  0  0  0  0
  157.3350  212.9710  137.7620 C   0  0  0  0  0  2  0  0  0  0  0  0
  158.3800  213.3750  144.3760 C   0  0  0  0  0  1  0  0  0  0  0  0
  159.3530  212.5200  144.8930 O   0  0  0  0  0  0  0  0  0  0  0  0
  159.6160  203.0510  152.4490 O   0  0  0  0  0  0  0  0  0  0  0  0
  159.7170  202.8610  151.0690 C   0  0  0  0  0  2  0  0  0  0  0  0
  161.0840  201.2750  150.0580 C   0  0  0  0  0  1  0  0  0  0  0  0
  159.8320  201.4430  150.7720 N   0  0  0  0  0  0  0  0  0  0  0  0
  158.8440  201.1410  149.8970 O   0  0  0  0  0  1  0  0  0  0  0  0
  1 13  2  0  0  0  0
  2 41  1  0  0  0  0
  2  8  1  0  0  0  0
  3  1  1  0  0  0  0
  3  8  1  0  0  0  0
  5 22  1  6  0  0  0
  5 35  1  0  0  0  0
  5 30  1  0  0  0  0
  6 36  1  0  0  0  0
  7 14  1  0  0  0  0
  7 18  1  0  0  0  0
  8 19  2  0  0  0  0
 10 27  1  0  0  0  0
 10 34  1  0  0  0  0
 11 15  1  0  0  0  0
 12  9  1  6  0  0  0
 12 20  1  0  0  0  0
 13 38  1  0  0  0  0
 14 10  2  0  0  0  0
 15 37  1  0  0  0  0
 15 36  1  0  0  0  0
 16 20  1  0  0  0  0
 16 15  1  0  0  0  0
 17 22  1  0  0  0  0
 18 63  1  6  0  0  0
 18 34  1  0  0  0  0
 19 40  1  0  0  0  0
 21 50  1  6  0  0  0
 21 39  1  0  0  0  0
 23 32  1  0  0  0  0
 24 28  1  0  0  0  0
 25  4  1  1  0  0  0
 25 14  1  0  0  0  0
 25 35  1  0  0  0  0
 27 26  1  1  0  0  0
 29 28  1  6  0  0  0
 29 17  1  0  0  0  0
 29  4  1  0  0  0  0
 31 24  1  0  0  0  0
 32 30  1  0  0  0  0
 32 43  1  1  0  0  0
 35 27  1  0  0  0  0
 36 23  1  0  0  0  0
 38 40  2  0  0  0  0
 38 31  1  0  0  0  0
 39 33  1  0  0  0  0
 39 42  1  0  0  0  0
 41 21  1  0  0  0  0
 41 62  1  0  0  0  0
 42 12  1  0  0  0  0
 43 46  1  0  0  0  0
 43 44  1  0  0  0  0
 45 43  2  0  0  0  0
 47 50  1  0  0  0  0
 48 49  1  0  0  0  0
 48 47  1  0  0  0  0
 49 47  1  0  0  0  0
 49 50  1  0  0  0  0
 51 53  1  0  0  0  0
 52 53  1  0  0  0  0
 53 49  1  0  0  0  0
 54 55  1  0  0  0  0
 55 48  1  0  0  0  0
 56 55  1  0  0  0  0
 57 56  1  0  0  0  0
 57 58  2  0  0  0  0
 60 59  1  0  0  0  0
 60 57  1  0  0  0  0
 61 62  1  0  0  0  0
 64 63  1  0  0  0  0
 65 66  1  0  0  0  0
 66 64  1  0  0  0  0
 67 66  1  0  0  0  0
M  END
>  <MODEL>
2

>  <REMARK>
 VINA RESULT:      31.5      1.680      2.168
  Name = 
  11 active torsions:
  status: ('A' for Active; 'I' for Inactive)
    1  A    between atoms: P_4  and  C_50
    2  A    between atoms: C_11  and  N_38
    3  A    between atoms: C_11  and  O_49
    4  A    between atoms: C_28  and  O_49
    5  A    between atoms: C_31  and  C_65
    6  A    between atoms: C_32  and  C_61
    7  A    between atoms: O_43  and  C_56
    8  A    between atoms: O_43  and  C_61
    9  A    between atoms: C_46  and  C_56
   10  A    between atoms: C_57  and  C_62
   11  A    between atoms: C_63  and  O_66
                            x       y       z     vdW  Elec       q    Type
                         _______ _______ _______ _____ _____    ______ ____

>  <TORSDO>
F 11

$$$$
