=
 OpenBabel11072413593D

 29 32  0  0  1  0  0  0  0  0999 V2000
  160.0810  206.6180  149.5630 O   0  0  0  0  0  1  0  0  0  0  0  0
  161.2880  205.9490  149.7790 C   0  0  2  0  0  3  0  0  0  0  0  0
  161.1790  204.5080  149.3740 C   0  0  0  0  0  0  0  0  0  0  0  0
  160.2540  200.9510  150.1580 C   0  0  0  0  0  1  0  0  0  0  0  0
  160.6060  203.5860  151.5360 O   0  0  0  0  0  0  0  0  0  0  0  0
  160.8540  203.4360  150.3100 C   0  0  0  0  0  0  0  0  0  0  0  0
  160.8250  202.1860  149.6450 N   0  0  0  0  0  0  0  0  0  0  0  0
  161.0060  201.6350  147.2890 C   0  0  0  0  0  2  0  0  0  0  0  0
  161.1000  202.5080  148.2870 C   0  0  0  0  0  0  0  0  0  0  0  0
  161.3230  203.9610  148.1500 C   0  0  0  0  0  0  0  0  0  0  0  0
  162.8070  204.7360  146.3680 N   0  0  0  0  0  0  0  0  0  0  0  0
  161.2870  205.8700  144.9680 N   0  0  0  0  0  0  0  0  0  0  0  0
  160.6680  205.3160  146.0970 N   0  0  0  0  0  2  0  0  0  0  0  0
  162.7000  205.4970  145.1300 C   0  0  0  0  0  3  0  0  0  0  0  0
  161.6340  204.6580  146.8800 C   0  0  0  0  0  0  0  0  0  0  0  0
  161.7390  206.0830  151.2260 C   0  0  0  0  0  2  0  0  0  0  0  0
  160.8410  207.0540  151.9700 C   0  0  0  0  0  2  0  0  0  0  0  0
  162.2330  208.9790  151.1800 C   0  0  0  0  0  2  0  0  0  0  0  0
  159.5690  209.3460  155.2420 C   0  0  0  0  0  2  0  0  0  0  0  0
  159.6940  212.2250  153.6790 C   0  0  0  0  0  2  0  0  0  0  0  0
  161.6330  208.2760  152.3980 C   0  0  1  0  0  3  0  0  0  0  0  0
  160.6940  209.3010  153.0300 C   0  0  1  0  0  3  0  0  0  0  0  0
  161.8140  208.5850  155.0700 O   0  0  0  0  0  1  0  0  0  0  0  0
  161.7600  210.3480  151.2430 N   0  0  0  0  0  0  0  0  0  0  0  0
  158.8210  210.6680  155.3890 C   0  0  0  0  0  2  0  0  0  0  0  0
  158.5300  211.3200  154.0450 C   0  0  0  0  0  2  0  0  0  0  0  0
  160.3310  211.8000  152.4400 N   0  0  0  0  0  2  0  0  0  0  0  0
  160.9080  209.5080  154.5370 C   0  0  2  0  0  3  0  0  0  0  0  0
  160.9700  210.5340  152.2400 C   0  0  0  0  0  0  0  0  0  0  0  0
  2  1  1  1  0  0  0
  2 16  1  0  0  0  0
  3  2  1  0  0  0  0
  3  6  1  0  0  0  0
  6  5  2  0  0  0  0
  7  4  1  0  0  0  0
  7  6  1  0  0  0  0
  8  9  2  0  0  0  0
  9  7  1  0  0  0  0
 10  9  1  0  0  0  0
 10  3  2  0  0  0  0
 11 15  2  0  0  0  0
 12 14  2  0  0  0  0
 12 13  1  0  0  0  0
 13 15  1  0  0  0  0
 14 11  1  0  0  0  0
 15 10  1  0  0  0  0
 16 17  1  0  0  0  0
 18 24  1  0  0  0  0
 18 21  1  0  0  0  0
 19 25  1  0  0  0  0
 20 26  1  0  0  0  0
 21 17  1  6  0  0  0
 21 22  1  0  0  0  0
 22 29  1  6  0  0  0
 22 28  1  0  0  0  0
 24 29  2  0  0  0  0
 26 25  1  0  0  0  0
 27 20  1  0  0  0  0
 28 23  1  1  0  0  0
 28 19  1  0  0  0  0
 29 27  1  0  0  0  0
M  END
>  <MODEL>
1

>  <REMARK>
 VINA RESULT:      -8.3      0.000      0.000
  Name = 
  5 active torsions:
  status: ('A' for Active; 'I' for Inactive)
    1  A    between atoms: C_1  and  C_27
    2  A    between atoms: C_8  and  C_28
    3  A    between atoms: C_21  and  C_27
    4  A    between atoms: C_21  and  C_28
    5  A    between atoms: C_25  and  C_29
                            x       y       z     vdW  Elec       q    Type
                         _______ _______ _______ _____ _____    ______ ____

>  <TORSDO>
F 5

$$$$
=
 OpenBabel11072413593D

 29 32  0  0  1  0  0  0  0  0999 V2000
  162.7740  205.7090  146.8930 O   0  0  0  0  0  1  0  0  0  0  0  0
  161.8350  205.3460  147.8610 C   0  0  2  0  0  3  0  0  0  0  0  0
  161.3730  203.9330  147.6520 C   0  0  0  0  0  0  0  0  0  0  0  0
  160.8070  200.9770  145.4020 C   0  0  0  0  0  1  0  0  0  0  0  0
  161.5010  203.8850  145.2370 O   0  0  0  0  0  0  0  0  0  0  0  0
  161.2340  203.3240  146.3330 C   0  0  0  0  0  0  0  0  0  0  0  0
  160.7770  201.9880  146.4460 N   0  0  0  0  0  0  0  0  0  0  0  0
  160.4320  200.5880  148.3980 C   0  0  0  0  0  2  0  0  0  0  0  0
  160.6740  201.7740  147.8490 C   0  0  0  0  0  0  0  0  0  0  0  0
  161.0450  203.0060  148.5740 C   0  0  0  0  0  0  0  0  0  0  0  0
  161.8200  202.4950  150.8360 N   0  0  0  0  0  0  0  0  0  0  0  0
  160.4690  203.9390  152.1190 N   0  0  0  0  0  0  0  0  0  0  0  0
  160.2140  204.0420  150.7450 N   0  0  0  0  0  2  0  0  0  0  0  0
  161.5280  202.9220  152.1980 C   0  0  0  0  0  3  0  0  0  0  0  0
  161.0540  203.1550  150.0490 C   0  0  0  0  0  0  0  0  0  0  0  0
  160.6620  206.3140  147.8780 C   0  0  0  0  0  2  0  0  0  0  0  0
  160.4150  206.8170  149.2880 C   0  0  0  0  0  2  0  0  0  0  0  0
  162.0590  208.6800  148.9790 C   0  0  0  0  0  2  0  0  0  0  0  0
  161.0950  206.9340  153.4240 C   0  0  0  0  0  2  0  0  0  0  0  0
  161.6990  210.1530  153.5540 C   0  0  0  0  0  2  0  0  0  0  0  0
  161.6690  207.4760  149.8360 C   0  0  1  0  0  3  0  0  0  0  0  0
  161.3840  208.0460  151.2240 C   0  0  1  0  0  3  0  0  0  0  0  0
  162.7710  206.1700  151.9220 O   0  0  0  0  0  1  0  0  0  0  0  0
  162.1260  209.8060  149.8910 N   0  0  0  0  0  0  0  0  0  0  0  0
  160.9300  208.0030  154.5000 C   0  0  0  0  0  2  0  0  0  0  0  0
  160.4740  209.3360  153.9250 C   0  0  0  0  0  2  0  0  0  0  0  0
  161.7300  210.4510  152.1290 N   0  0  0  0  0  2  0  0  0  0  0  0
  162.1170  207.3240  152.3650 C   0  0  2  0  0  3  0  0  0  0  0  0
  161.8020  209.4700  151.0880 C   0  0  0  0  0  0  0  0  0  0  0  0
  2  1  1  6  0  0  0
  2 16  1  0  0  0  0
  3  2  1  0  0  0  0
  3 10  2  0  0  0  0
  4  7  1  0  0  0  0
  5  6  2  0  0  0  0
  6  7  1  0  0  0  0
  6  3  1  0  0  0  0
  7  9  1  0  0  0  0
  9  8  2  0  0  0  0
  9 10  1  0  0  0  0
 10 15  1  0  0  0  0
 11 14  1  0  0  0  0
 12 14  2  0  0  0  0
 13 12  1  0  0  0  0
 15 13  1  0  0  0  0
 15 11  2  0  0  0  0
 16 17  1  0  0  0  0
 18 21  1  0  0  0  0
 18 24  1  0  0  0  0
 19 25  1  0  0  0  0
 20 26  1  0  0  0  0
 21 17  1  6  0  0  0
 21 22  1  0  0  0  0
 22 29  1  6  0  0  0
 22 28  1  0  0  0  0
 24 29  2  0  0  0  0
 26 25  1  0  0  0  0
 27 20  1  0  0  0  0
 28 23  1  6  0  0  0
 28 19  1  0  0  0  0
 29 27  1  0  0  0  0
M  END
>  <MODEL>
2

>  <REMARK>
 VINA RESULT:      -8.1      2.214      3.746
  Name = 
  5 active torsions:
  status: ('A' for Active; 'I' for Inactive)
    1  A    between atoms: C_1  and  C_27
    2  A    between atoms: C_8  and  C_28
    3  A    between atoms: C_21  and  C_27
    4  A    between atoms: C_21  and  C_28
    5  A    between atoms: C_25  and  C_29
                            x       y       z     vdW  Elec       q    Type
                         _______ _______ _______ _____ _____    ______ ____

>  <TORSDO>
F 5

$$$$
=
 OpenBabel11072413593D

 29 32  0  0  1  0  0  0  0  0999 V2000
  160.7810  203.3490  152.1330 O   0  0  0  0  0  1  0  0  0  0  0  0
  160.6100  204.3190  151.1430 C   0  0  2  0  0  3  0  0  0  0  0  0
  160.9200  203.7570  149.7870 C   0  0  0  0  0  0  0  0  0  0  0  0
  160.9170  200.8900  147.3560 C   0  0  0  0  0  1  0  0  0  0  0  0
  160.4490  201.4330  150.2640 O   0  0  0  0  0  0  0  0  0  0  0  0
  160.8210  202.3360  149.4690 C   0  0  0  0  0  0  0  0  0  0  0  0
  161.1760  202.1020  148.1170 N   0  0  0  0  0  0  0  0  0  0  0  0
  161.6760  203.6480  146.3160 C   0  0  0  0  0  2  0  0  0  0  0  0
  161.4580  203.3980  147.6030 C   0  0  0  0  0  0  0  0  0  0  0  0
  161.2960  204.4070  148.6680 C   0  0  0  0  0  0  0  0  0  0  0  0
  160.5730  206.7400  148.5460 N   0  0  0  0  0  0  0  0  0  0  0  0
  162.6220  207.8340  148.1450 N   0  0  0  0  0  0  0  0  0  0  0  0
  162.7670  206.4450  148.2590 N   0  0  0  0  0  2  0  0  0  0  0  0
  161.1800  208.0480  148.3330 C   0  0  0  0  0  3  0  0  0  0  0  0
  161.5080  205.8650  148.4980 C   0  0  0  0  0  0  0  0  0  0  0  0
  161.4480  205.5540  151.4350 C   0  0  0  0  0  2  0  0  0  0  0  0
  160.7630  206.4240  152.4710 C   0  0  0  0  0  2  0  0  0  0  0  0
  162.3430  208.1690  151.6190 C   0  0  0  0  0  2  0  0  0  0  0  0
  159.6680  208.9810  155.6090 C   0  0  0  0  0  2  0  0  0  0  0  0
  160.0870  211.7570  153.9160 C   0  0  0  0  0  2  0  0  0  0  0  0
  161.6610  207.5860  152.8560 C   0  0  1  0  0  3  0  0  0  0  0  0
  160.8140  208.7240  153.4230 C   0  0  1  0  0  3  0  0  0  0  0  0
  161.8320  208.0050  155.5140 O   0  0  0  0  0  1  0  0  0  0  0  0
  162.0000  209.5780  151.6090 N   0  0  0  0  0  0  0  0  0  0  0  0
  159.0470  210.3730  155.6790 C   0  0  0  0  0  2  0  0  0  0  0  0
  158.8380  210.9840  154.3010 C   0  0  0  0  0  2  0  0  0  0  0  0
  160.6980  211.2150  152.7100 N   0  0  0  0  0  2  0  0  0  0  0  0
  161.0260  208.9820  154.9220 C   0  0  2  0  0  3  0  0  0  0  0  0
  161.2180  209.8860  152.5810 C   0  0  0  0  0  0  0  0  0  0  0  0
  2 16  1  0  0  0  0
  2  1  1  1  0  0  0
  3  2  1  0  0  0  0
  4  7  1  0  0  0  0
  6  3  1  0  0  0  0
  6  5  2  0  0  0  0
  7  6  1  0  0  0  0
  8  9  2  0  0  0  0
  9  7  1  0  0  0  0
  9 10  1  0  0  0  0
 10  3  2  0  0  0  0
 12 13  1  0  0  0  0
 12 14  2  0  0  0  0
 13 15  1  0  0  0  0
 14 11  1  0  0  0  0
 15 11  2  0  0  0  0
 15 10  1  0  0  0  0
 16 17  1  0  0  0  0
 18 21  1  0  0  0  0
 19 25  1  0  0  0  0
 20 26  1  0  0  0  0
 21 17  1  6  0  0  0
 21 22  1  0  0  0  0
 22 29  1  6  0  0  0
 22 28  1  0  0  0  0
 24 18  1  0  0  0  0
 24 29  2  0  0  0  0
 26 25  1  0  0  0  0
 27 20  1  0  0  0  0
 28 23  1  1  0  0  0
 28 19  1  0  0  0  0
 29 27  1  0  0  0  0
M  END
>  <MODEL>
3

>  <REMARK>
 VINA RESULT:      -8.0      1.562      2.035
  Name = 
  5 active torsions:
  status: ('A' for Active; 'I' for Inactive)
    1  A    between atoms: C_1  and  C_27
    2  A    between atoms: C_8  and  C_28
    3  A    between atoms: C_21  and  C_27
    4  A    between atoms: C_21  and  C_28
    5  A    between atoms: C_25  and  C_29
                            x       y       z     vdW  Elec       q    Type
                         _______ _______ _______ _____ _____    ______ ____

>  <TORSDO>
F 5

$$$$
=
 OpenBabel11072413593D

 29 32  0  0  1  0  0  0  0  0999 V2000
  162.8460  205.7630  152.2710 O   0  0  0  0  0  1  0  0  0  0  0  0
  161.8390  206.4690  151.6100 C   0  0  2  0  0  3  0  0  0  0  0  0
  161.4070  207.6600  152.4140 C   0  0  0  0  0  0  0  0  0  0  0  0
  160.4600  209.2170  155.7020 C   0  0  0  0  0  1  0  0  0  0  0  0
  160.9580  206.5190  154.4990 O   0  0  0  0  0  0  0  0  0  0  0  0
  160.9860  207.5730  153.8090 C   0  0  0  0  0  0  0  0  0  0  0  0
  160.6330  208.8520  154.3050 N   0  0  0  0  0  0  0  0  0  0  0  0
  160.8290  211.0530  153.3020 C   0  0  0  0  0  2  0  0  0  0  0  0
  160.8770  209.7280  153.2100 C   0  0  0  0  0  0  0  0  0  0  0  0
  161.3520  208.9550  152.0450 C   0  0  0  0  0  0  0  0  0  0  0  0
  161.9210  210.7810  150.5210 N   0  0  0  0  0  0  0  0  0  0  0  0
  162.1760  209.6170  148.4880 N   0  0  0  0  0  0  0  0  0  0  0  0
  161.8390  208.7720  149.5530 N   0  0  0  0  0  2  0  0  0  0  0  0
  162.2350  210.9480  149.1080 C   0  0  0  0  0  3  0  0  0  0  0  0
  161.7050  209.5350  150.7270 C   0  0  0  0  0  0  0  0  0  0  0  0
  160.6590  205.5670  151.2820 C   0  0  0  0  0  2  0  0  0  0  0  0
  160.5020  205.4300  149.7790 C   0  0  0  0  0  2  0  0  0  0  0  0
  161.3110  203.0740  150.0330 C   0  0  0  0  0  2  0  0  0  0  0  0
  161.3860  205.2670  145.6830 C   0  0  0  0  0  2  0  0  0  0  0  0
  160.7590  202.0670  145.3520 C   0  0  0  0  0  2  0  0  0  0  0  0
  161.4580  204.3770  149.2470 C   0  0  1  0  0  3  0  0  0  0  0  0
  161.0820  204.0220  147.8090 C   0  0  1  0  0  3  0  0  0  0  0  0
  163.1130  205.2730  147.3160 O   0  0  0  0  0  1  0  0  0  0  0  0
  161.0200  202.0510  149.0470 N   0  0  0  0  0  0  0  0  0  0  0  0
  160.9130  204.3910  144.5270 C   0  0  0  0  0  2  0  0  0  0  0  0
  159.9540  203.3000  144.9820 C   0  0  0  0  0  2  0  0  0  0  0  0
  160.5750  201.7100  146.7520 N   0  0  0  0  0  2  0  0  0  0  0  0
  162.1100  204.4710  146.7600 C   0  0  2  0  0  3  0  0  0  0  0  0
  160.9310  202.5410  147.8630 C   0  0  0  0  0  0  0  0  0  0  0  0
  2  1  1  1  0  0  0
  2  3  1  0  0  0  0
  3  6  1  0  0  0  0
  6  7  1  0  0  0  0
  6  5  2  0  0  0  0
  7  4  1  0  0  0  0
  9  8  2  0  0  0  0
  9  7  1  0  0  0  0
 10  3  2  0  0  0  0
 10  9  1  0  0  0  0
 11 15  2  0  0  0  0
 12 14  2  0  0  0  0
 12 13  1  0  0  0  0
 13 15  1  0  0  0  0
 14 11  1  0  0  0  0
 15 10  1  0  0  0  0
 16  2  1  0  0  0  0
 17 16  1  0  0  0  0
 19 28  1  0  0  0  0
 20 27  1  0  0  0  0
 21 17  1  1  0  0  0
 21 18  1  0  0  0  0
 22 29  1  1  0  0  0
 22 21  1  0  0  0  0
 24 18  1  0  0  0  0
 25 26  1  0  0  0  0
 25 19  1  0  0  0  0
 26 20  1  0  0  0  0
 27 29  1  0  0  0  0
 28 23  1  1  0  0  0
 28 22  1  0  0  0  0
 29 24  2  0  0  0  0
M  END
>  <MODEL>
4

>  <REMARK>
 VINA RESULT:      -7.9      2.032      8.002
  Name = 
  5 active torsions:
  status: ('A' for Active; 'I' for Inactive)
    1  A    between atoms: C_1  and  C_27
    2  A    between atoms: C_8  and  C_28
    3  A    between atoms: C_21  and  C_27
    4  A    between atoms: C_21  and  C_28
    5  A    between atoms: C_25  and  C_29
                            x       y       z     vdW  Elec       q    Type
                         _______ _______ _______ _____ _____    ______ ____

>  <TORSDO>
F 5

$$$$
=
 OpenBabel11072413593D

 29 32  0  0  1  0  0  0  0  0999 V2000
  162.8020  205.8960  152.5130 O   0  0  0  0  0  1  0  0  0  0  0  0
  162.1260  206.2720  151.3490 C   0  0  2  0  0  3  0  0  0  0  0  0
  161.9590  207.7620  151.2880 C   0  0  0  0  0  0  0  0  0  0  0  0
  161.7850  210.9540  149.3100 C   0  0  0  0  0  1  0  0  0  0  0  0
  162.5170  208.0720  148.9540 O   0  0  0  0  0  0  0  0  0  0  0  0
  162.1860  208.5420  150.0740 C   0  0  0  0  0  0  0  0  0  0  0  0
  161.9560  209.9190  150.3170 N   0  0  0  0  0  0  0  0  0  0  0  0
  161.0800  211.0630  152.2690 C   0  0  0  0  0  2  0  0  0  0  0  0
  161.5500  209.9690  151.6800 C   0  0  0  0  0  0  0  0  0  0  0  0
  161.5690  208.6110  152.2590 C   0  0  0  0  0  0  0  0  0  0  0  0
  160.4120  207.3290  153.9910 N   0  0  0  0  0  0  0  0  0  0  0  0
  161.1630  208.4150  155.9430 N   0  0  0  0  0  0  0  0  0  0  0  0
  161.6980  208.9760  154.7750 N   0  0  0  0  0  2  0  0  0  0  0  0
  160.3120  207.3250  155.4440 C   0  0  0  0  0  3  0  0  0  0  0  0
  161.2060  208.2780  153.6570 C   0  0  0  0  0  0  0  0  0  0  0  0
  160.7870  205.5610  151.2380 C   0  0  0  0  0  2  0  0  0  0  0  0
  160.4560  205.2840  149.7830 C   0  0  0  0  0  2  0  0  0  0  0  0
  161.2060  202.9030  149.9740 C   0  0  0  0  0  2  0  0  0  0  0  0
  161.3680  205.2200  145.6910 C   0  0  0  0  0  2  0  0  0  0  0  0
  160.6680  202.0470  145.2610 C   0  0  0  0  0  2  0  0  0  0  0  0
  161.3900  204.2240  149.2280 C   0  0  1  0  0  3  0  0  0  0  0  0
  161.0180  203.9210  147.7770 C   0  0  1  0  0  3  0  0  0  0  0  0
  163.0810  205.1360  147.3360 O   0  0  0  0  0  1  0  0  0  0  0  0
  160.8990  201.9160  148.9560 N   0  0  0  0  0  0  0  0  0  0  0  0
  160.8840  204.3900  144.5060 C   0  0  0  0  0  2  0  0  0  0  0  0
  159.8960  203.3090  144.9220 C   0  0  0  0  0  2  0  0  0  0  0  0
  160.4640  201.6540  146.6480 N   0  0  0  0  0  2  0  0  0  0  0  0
  162.0650  204.3760  146.7490 C   0  0  2  0  0  3  0  0  0  0  0  0
  160.8310  202.4430  147.7860 C   0  0  0  0  0  0  0  0  0  0  0  0
  2  1  1  1  0  0  0
  3  2  1  0  0  0  0
  3 10  2  0  0  0  0
  4  7  1  0  0  0  0
  5  6  2  0  0  0  0
  6  7  1  0  0  0  0
  6  3  1  0  0  0  0
  7  9  1  0  0  0  0
  9 10  1  0  0  0  0
  9  8  2  0  0  0  0
 10 15  1  0  0  0  0
 11 14  1  0  0  0  0
 13 12  1  0  0  0  0
 14 12  2  0  0  0  0
 15 11  2  0  0  0  0
 15 13  1  0  0  0  0
 16  2  1  0  0  0  0
 17 16  1  0  0  0  0
 19 28  1  0  0  0  0
 20 27  1  0  0  0  0
 21 17  1  1  0  0  0
 21 18  1  0  0  0  0
 22 29  1  1  0  0  0
 22 21  1  0  0  0  0
 24 18  1  0  0  0  0
 25 26  1  0  0  0  0
 25 19  1  0  0  0  0
 26 20  1  0  0  0  0
 27 29  1  0  0  0  0
 28 23  1  1  0  0  0
 28 22  1  0  0  0  0
 29 24  2  0  0  0  0
M  END
>  <MODEL>
5

>  <REMARK>
 VINA RESULT:      -7.7      2.264      8.570
  Name = 
  5 active torsions:
  status: ('A' for Active; 'I' for Inactive)
    1  A    between atoms: C_1  and  C_27
    2  A    between atoms: C_8  and  C_28
    3  A    between atoms: C_21  and  C_27
    4  A    between atoms: C_21  and  C_28
    5  A    between atoms: C_25  and  C_29
                            x       y       z     vdW  Elec       q    Type
                         _______ _______ _______ _____ _____    ______ ____

>  <TORSDO>
F 5

$$$$
=
 OpenBabel11072413593D

 29 32  0  0  1  0  0  0  0  0999 V2000
  160.4070  206.8920  149.5500 O   0  0  0  0  0  1  0  0  0  0  0  0
  161.5950  206.1660  149.6600 C   0  0  2  0  0  3  0  0  0  0  0  0
  161.3770  204.7280  149.2920 C   0  0  0  0  0  0  0  0  0  0  0  0
  160.3240  201.2400  150.2170 C   0  0  0  0  0  1  0  0  0  0  0  0
  160.9260  203.8730  151.5100 O   0  0  0  0  0  0  0  0  0  0  0  0
  161.0680  203.6900  150.2720 C   0  0  0  0  0  0  0  0  0  0  0  0
  160.9190  202.4330  149.6360 N   0  0  0  0  0  0  0  0  0  0  0  0
  160.8840  201.8370  147.2850 C   0  0  0  0  0  2  0  0  0  0  0  0
  161.1030  202.7180  148.2540 C   0  0  0  0  0  0  0  0  0  0  0  0
  161.3930  204.1540  148.0730 C   0  0  0  0  0  0  0  0  0  0  0  0
  162.7910  204.8920  146.2060 N   0  0  0  0  0  0  0  0  0  0  0  0
  161.1960  205.9550  144.8340 N   0  0  0  0  0  0  0  0  0  0  0  0
  160.6340  205.4290  146.0040 N   0  0  0  0  0  2  0  0  0  0  0  0
  162.6210  205.6090  144.9490 C   0  0  0  0  0  3  0  0  0  0  0  0
  161.6420  204.8130  146.7680 C   0  0  0  0  0  0  0  0  0  0  0  0
  162.1910  206.2960  151.0530 C   0  0  0  0  0  2  0  0  0  0  0  0
  161.9600  207.6930  151.5970 C   0  0  0  0  0  2  0  0  0  0  0  0
  160.6340  206.2630  153.1660 C   0  0  0  0  0  2  0  0  0  0  0  0
  161.3970  210.9740  154.1470 C   0  0  0  0  0  2  0  0  0  0  0  0
  161.3270  209.2150  156.9120 C   0  0  0  0  0  2  0  0  0  0  0  0
  160.8420  207.6760  152.6240 C   0  0  1  0  0  3  0  0  0  0  0  0
  161.2460  208.5160  153.8350 C   0  0  1  0  0  3  0  0  0  0  0  0
  159.5880  210.0450  152.9170 O   0  0  0  0  0  1  0  0  0  0  0  0
  160.7710  206.3700  154.6060 N   0  0  0  0  0  0  0  0  0  0  0  0
  161.7570  211.2650  155.6010 C   0  0  0  0  0  2  0  0  0  0  0  0
  162.4110  210.0730  156.2850 C   0  0  0  0  0  2  0  0  0  0  0  0
  161.3140  207.8740  156.3460 N   0  0  0  0  0  2  0  0  0  0  0  0
  160.4300  209.8060  154.0080 C   0  0  2  0  0  3  0  0  0  0  0  0
  161.0610  207.5670  154.9700 C   0  0  0  0  0  0  0  0  0  0  0  0
  2  1  1  1  0  0  0
  2 16  1  0  0  0  0
  3  2  1  0  0  0  0
  3  6  1  0  0  0  0
  6  5  2  0  0  0  0
  7  4  1  0  0  0  0
  7  6  1  0  0  0  0
  8  9  2  0  0  0  0
  9  7  1  0  0  0  0
 10  9  1  0  0  0  0
 10  3  2  0  0  0  0
 11 15  2  0  0  0  0
 12 14  2  0  0  0  0
 12 13  1  0  0  0  0
 13 15  1  0  0  0  0
 14 11  1  0  0  0  0
 15 10  1  0  0  0  0
 16 17  1  0  0  0  0
 18 24  1  0  0  0  0
 19 25  1  0  0  0  0
 21 17  1  6  0  0  0
 21 18  1  0  0  0  0
 21 22  1  0  0  0  0
 22 28  1  0  0  0  0
 22 29  1  1  0  0  0
 24 29  2  0  0  0  0
 25 26  1  0  0  0  0
 26 20  1  0  0  0  0
 27 20  1  0  0  0  0
 28 23  1  6  0  0  0
 28 19  1  0  0  0  0
 29 27  1  0  0  0  0
M  END
>  <MODEL>
6

>  <REMARK>
 VINA RESULT:      -7.6      1.877      2.408
  Name = 
  5 active torsions:
  status: ('A' for Active; 'I' for Inactive)
    1  A    between atoms: C_1  and  C_27
    2  A    between atoms: C_8  and  C_28
    3  A    between atoms: C_21  and  C_27
    4  A    between atoms: C_21  and  C_28
    5  A    between atoms: C_25  and  C_29
                            x       y       z     vdW  Elec       q    Type
                         _______ _______ _______ _____ _____    ______ ____

>  <TORSDO>
F 5

$$$$
=
 OpenBabel11072413593D

 29 32  0  0  1  0  0  0  0  0999 V2000
  162.6790  207.6500  149.3580 O   0  0  0  0  0  1  0  0  0  0  0  0
  162.0890  207.1850  150.5360 C   0  0  2  0  0  3  0  0  0  0  0  0
  161.7400  205.7300  150.4200 C   0  0  0  0  0  0  0  0  0  0  0  0
  160.8130  202.4530  152.0090 C   0  0  0  0  0  1  0  0  0  0  0  0
  161.7950  205.1760  152.7740 O   0  0  0  0  0  0  0  0  0  0  0  0
  161.6340  204.8390  151.5710 C   0  0  0  0  0  0  0  0  0  0  0  0
  161.2960  203.5270  151.1560 N   0  0  0  0  0  0  0  0  0  0  0  0
  160.6870  202.6590  148.9740 C   0  0  0  0  0  2  0  0  0  0  0  0
  161.1590  203.6340  149.7440 C   0  0  0  0  0  0  0  0  0  0  0  0
  161.4490  205.0160  149.3140 C   0  0  0  0  0  0  0  0  0  0  0  0
  160.4530  206.2000  147.4200 N   0  0  0  0  0  0  0  0  0  0  0  0
  162.0690  205.8230  145.7460 N   0  0  0  0  0  0  0  0  0  0  0  0
  162.4130  205.2300  146.9680 N   0  0  0  0  0  2  0  0  0  0  0  0
  160.7780  206.4680  146.0250 C   0  0  0  0  0  3  0  0  0  0  0  0
  161.4060  205.4980  147.9130 C   0  0  0  0  0  0  0  0  0  0  0  0
  160.8720  208.0170  150.9070 C   0  0  0  0  0  2  0  0  0  0  0  0
  160.8340  208.2590  152.4040 C   0  0  0  0  0  2  0  0  0  0  0  0
  161.3170  210.5180  151.4380 C   0  0  0  0  0  2  0  0  0  0  0  0
  159.6710  210.0720  156.0020 C   0  0  0  0  0  2  0  0  0  0  0  0
  158.5060  212.8050  154.6160 C   0  0  0  0  0  2  0  0  0  0  0  0
  161.2670  209.6810  152.7160 C   0  0  1  0  0  3  0  0  0  0  0  0
  160.2180  210.3550  153.5970 C   0  0  1  0  0  3  0  0  0  0  0  0
  161.9410  210.0810  155.2960 O   0  0  0  0  0  1  0  0  0  0  0  0
  160.4560  211.6590  151.6810 N   0  0  0  0  0  0  0  0  0  0  0  0
  158.5930  211.0810  156.3850 C   0  0  0  0  0  2  0  0  0  0  0  0
  157.8100  211.5770  155.1770 C   0  0  0  0  0  2  0  0  0  0  0  0
  158.9470  212.5880  153.2450 N   0  0  0  0  0  2  0  0  0  0  0  0
  160.6910  210.6490  155.0290 C   0  0  2  0  0  3  0  0  0  0  0  0
  159.8960  211.5960  152.8370 C   0  0  0  0  0  0  0  0  0  0  0  0
  2  1  1  6  0  0  0
  2 16  1  0  0  0  0
  3  2  1  0  0  0  0
  3  6  1  0  0  0  0
  6  5  2  0  0  0  0
  7  6  1  0  0  0  0
  7  4  1  0  0  0  0
  8  9  2  0  0  0  0
  9  7  1  0  0  0  0
 10  9  1  0  0  0  0
 10  3  2  0  0  0  0
 11 15  2  0  0  0  0
 12 14  2  0  0  0  0
 12 13  1  0  0  0  0
 13 15  1  0  0  0  0
 14 11  1  0  0  0  0
 15 10  1  0  0  0  0
 16 17  1  0  0  0  0
 18 24  1  0  0  0  0
 18 21  1  0  0  0  0
 19 25  1  0  0  0  0
 20 26  1  0  0  0  0
 21 17  1  6  0  0  0
 21 22  1  0  0  0  0
 22 29  1  6  0  0  0
 22 28  1  0  0  0  0
 24 29  2  0  0  0  0
 26 25  1  0  0  0  0
 27 20  1  0  0  0  0
 28 23  1  1  0  0  0
 28 19  1  0  0  0  0
 29 27  1  0  0  0  0
M  END
>  <MODEL>
7

>  <REMARK>
 VINA RESULT:      -7.6      1.473      1.837
  Name = 
  5 active torsions:
  status: ('A' for Active; 'I' for Inactive)
    1  A    between atoms: C_1  and  C_27
    2  A    between atoms: C_8  and  C_28
    3  A    between atoms: C_21  and  C_27
    4  A    between atoms: C_21  and  C_28
    5  A    between atoms: C_25  and  C_29
                            x       y       z     vdW  Elec       q    Type
                         _______ _______ _______ _____ _____    ______ ____

>  <TORSDO>
F 5

$$$$
=
 OpenBabel11072413593D

 29 32  0  0  1  0  0  0  0  0999 V2000
  162.3760  208.2100  150.9220 O   0  0  0  0  0  1  0  0  0  0  0  0
  161.0550  208.0180  151.3310 C   0  0  2  0  0  3  0  0  0  0  0  0
  160.8870  208.3740  152.7790 C   0  0  0  0  0  0  0  0  0  0  0  0
  161.4310  207.6080  156.4190 C   0  0  0  0  0  1  0  0  0  0  0  0
  161.7020  206.3060  153.7350 O   0  0  0  0  0  0  0  0  0  0  0  0
  161.2210  207.4630  153.8700 C   0  0  0  0  0  0  0  0  0  0  0  0
  160.9560  208.0670  155.1230 N   0  0  0  0  0  0  0  0  0  0  0  0
  160.2840  210.3300  155.6840 C   0  0  0  0  0  2  0  0  0  0  0  0
  160.4920  209.3700  154.7890 C   0  0  0  0  0  0  0  0  0  0  0  0
  160.4530  209.5290  153.3220 C   0  0  0  0  0  0  0  0  0  0  0  0
  160.7930  211.4830  151.8910 N   0  0  0  0  0  0  0  0  0  0  0  0
  158.6310  212.4210  151.8790 N   0  0  0  0  0  0  0  0  0  0  0  0
  158.7070  211.2550  152.6510 N   0  0  0  0  0  2  0  0  0  0  0  0
  160.0000  212.5880  151.3680 C   0  0  0  0  0  3  0  0  0  0  0  0
  160.0210  210.7550  152.6100 C   0  0  0  0  0  0  0  0  0  0  0  0
  160.5960  206.5950  151.0550 C   0  0  0  0  0  2  0  0  0  0  0  0
  160.5560  206.3340  149.5610 C   0  0  0  0  0  2  0  0  0  0  0  0
  161.3210  204.0160  150.1170 C   0  0  0  0  0  2  0  0  0  0  0  0
  161.6340  205.7040  145.5580 C   0  0  0  0  0  2  0  0  0  0  0  0
  160.9830  202.4920  145.5570 C   0  0  0  0  0  2  0  0  0  0  0  0
  161.5230  205.2200  149.1980 C   0  0  1  0  0  3  0  0  0  0  0  0
  161.2120  204.7090  147.7930 C   0  0  1  0  0  3  0  0  0  0  0  0
  163.2800  205.8810  147.2630 O   0  0  0  0  0  1  0  0  0  0  0  0
  161.0660  202.8900  149.2400 N   0  0  0  0  0  0  0  0  0  0  0  0
  161.2060  204.7070  144.4850 C   0  0  0  0  0  2  0  0  0  0  0  0
  160.2130  203.6810  145.0120 C   0  0  0  0  0  2  0  0  0  0  0  0
  160.7270  202.2960  146.9770 N   0  0  0  0  0  2  0  0  0  0  0  0
  162.2960  205.0300  146.7520 C   0  0  2  0  0  3  0  0  0  0  0  0
  161.0400  203.2440  148.0050 C   0  0  0  0  0  0  0  0  0  0  0  0
  2  1  1  1  0  0  0
  2  3  1  0  0  0  0
  3 10  2  0  0  0  0
  3  6  1  0  0  0  0
  5  6  2  0  0  0  0
  6  7  1  0  0  0  0
  7  4  1  0  0  0  0
  9  7  1  0  0  0  0
  9  8  2  0  0  0  0
 10  9  1  0  0  0  0
 11 15  2  0  0  0  0
 12 13  1  0  0  0  0
 14 12  2  0  0  0  0
 14 11  1  0  0  0  0
 15 13  1  0  0  0  0
 15 10  1  0  0  0  0
 16  2  1  0  0  0  0
 17 16  1  0  0  0  0
 19 28  1  0  0  0  0
 20 27  1  0  0  0  0
 21 17  1  1  0  0  0
 21 18  1  0  0  0  0
 22 29  1  1  0  0  0
 22 21  1  0  0  0  0
 24 18  1  0  0  0  0
 25 26  1  0  0  0  0
 25 19  1  0  0  0  0
 26 20  1  0  0  0  0
 27 29  1  0  0  0  0
 28 23  1  1  0  0  0
 28 22  1  0  0  0  0
 29 24  2  0  0  0  0
M  END
>  <MODEL>
8

>  <REMARK>
 VINA RESULT:      -7.5      1.946      8.393
  Name = 
  5 active torsions:
  status: ('A' for Active; 'I' for Inactive)
    1  A    between atoms: C_1  and  C_27
    2  A    between atoms: C_8  and  C_28
    3  A    between atoms: C_21  and  C_27
    4  A    between atoms: C_21  and  C_28
    5  A    between atoms: C_25  and  C_29
                            x       y       z     vdW  Elec       q    Type
                         _______ _______ _______ _____ _____    ______ ____

>  <TORSDO>
F 5

$$$$
=
 OpenBabel11072413593D

 29 32  0  0  1  0  0  0  0  0999 V2000
  163.0440  205.9750  152.3830 O   0  0  0  0  0  1  0  0  0  0  0  0
  161.6860  205.6640  152.2870 C   0  0  2  0  0  3  0  0  0  0  0  0
  161.4110  204.8520  151.0560 C   0  0  0  0  0  0  0  0  0  0  0  0
  160.1800  201.6950  149.4290 C   0  0  0  0  0  1  0  0  0  0  0  0
  160.8720  202.7580  152.1420 O   0  0  0  0  0  0  0  0  0  0  0  0
  161.0330  203.4420  151.0960 C   0  0  0  0  0  0  0  0  0  0  0  0
  160.8410  202.9400  149.7860 N   0  0  0  0  0  0  0  0  0  0  0  0
  160.8320  204.0690  147.6380 C   0  0  0  0  0  2  0  0  0  0  0  0
  161.0690  204.0650  148.9450 C   0  0  0  0  0  0  0  0  0  0  0  0
  161.4280  205.2390  149.7650 C   0  0  0  0  0  0  0  0  0  0  0  0
  160.9090  207.5670  149.2240 N   0  0  0  0  0  0  0  0  0  0  0  0
  162.9400  208.2760  148.2600 N   0  0  0  0  0  0  0  0  0  0  0  0
  162.9770  206.9360  148.6680 N   0  0  0  0  0  2  0  0  0  0  0  0
  161.5820  208.7100  148.6190 C   0  0  0  0  0  3  0  0  0  0  0  0
  161.7360  206.5880  149.2310 C   0  0  0  0  0  0  0  0  0  0  0  0
  160.8310  206.9220  152.3220 C   0  0  0  0  0  2  0  0  0  0  0  0
  160.8340  207.5230  153.7150 C   0  0  0  0  0  2  0  0  0  0  0  0
  161.7370  209.3360  152.2440 C   0  0  0  0  0  2  0  0  0  0  0  0
  158.9550  210.4200  156.0940 C   0  0  0  0  0  2  0  0  0  0  0  0
  158.4180  212.5360  153.6500 C   0  0  0  0  0  2  0  0  0  0  0  0
  161.2940  208.9690  153.6600 C   0  0  1  0  0  3  0  0  0  0  0  0
  160.1160  209.8930  153.9640 C   0  0  1  0  0  3  0  0  0  0  0  0
  161.3220  210.2020  156.0570 O   0  0  0  0  0  1  0  0  0  0  0  0
  160.9430  210.4910  151.8700 N   0  0  0  0  0  0  0  0  0  0  0  0
  157.9050  211.4940  155.8310 C   0  0  0  0  0  2  0  0  0  0  0  0
  157.5000  211.5610  154.3660 C   0  0  0  0  0  2  0  0  0  0  0  0
  159.1720  211.8790  152.5910 N   0  0  0  0  0  2  0  0  0  0  0  0
  160.2340  210.6450  155.2990 C   0  0  2  0  0  3  0  0  0  0  0  0
  160.1050  210.8110  152.7910 C   0  0  0  0  0  0  0  0  0  0  0  0
  2 16  1  0  0  0  0
  2  1  1  6  0  0  0
  3  6  1  0  0  0  0
  3  2  1  0  0  0  0
  4  7  1  0  0  0  0
  6  5  2  0  0  0  0
  7  6  1  0  0  0  0
  8  9  2  0  0  0  0
  9 10  1  0  0  0  0
  9  7  1  0  0  0  0
 10  3  2  0  0  0  0
 11 15  2  0  0  0  0
 12 14  2  0  0  0  0
 12 13  1  0  0  0  0
 13 15  1  0  0  0  0
 14 11  1  0  0  0  0
 15 10  1  0  0  0  0
 16 17  1  0  0  0  0
 18 21  1  0  0  0  0
 20 26  1  0  0  0  0
 21 17  1  6  0  0  0
 21 22  1  0  0  0  0
 22 29  1  6  0  0  0
 22 28  1  0  0  0  0
 24 18  1  0  0  0  0
 24 29  2  0  0  0  0
 25 19  1  0  0  0  0
 26 25  1  0  0  0  0
 27 29  1  0  0  0  0
 27 20  1  0  0  0  0
 28 23  1  1  0  0  0
 28 19  1  0  0  0  0
M  END
>  <MODEL>
9

>  <REMARK>
 VINA RESULT:      -7.4      1.903      2.334
  Name = 
  5 active torsions:
  status: ('A' for Active; 'I' for Inactive)
    1  A    between atoms: C_1  and  C_27
    2  A    between atoms: C_8  and  C_28
    3  A    between atoms: C_21  and  C_27
    4  A    between atoms: C_21  and  C_28
    5  A    between atoms: C_25  and  C_29
                            x       y       z     vdW  Elec       q    Type
                         _______ _______ _______ _____ _____    ______ ____

>  <TORSDO>
F 5

$$$$
