=
 OpenBabel11072414303D

 65 70  0  0  1  0  0  0  0  0999 V2000
  161.0780  210.5760  150.5600 C   0  0  2  0  0  3  0  0  0  0  0  0
  160.6660  206.5730  153.7060 C   0  0  0  0  0  2  0  0  0  0  0  0
  162.0040  208.6170  154.1500 C   0  0  0  0  0  0  0  0  0  0  0  0
  158.0000  209.1920  155.6250 C   0  0  2  0  0  3  0  0  0  0  0  0
  160.6420  212.7060  146.0320 C   0  0  0  0  0  0  0  0  0  0  0  0
  160.5650  207.5290  150.0750 C   0  0  0  0  0  0  0  0  0  0  0  0
  158.7810  207.8870  155.5830 C   0  0  0  0  0  2  0  0  0  0  0  0
  159.7550  208.6550  149.9110 O   0  0  0  0  0  0  0  0  0  0  0  0
  160.9890  207.8130  154.4920 C   0  0  0  0  0  0  0  0  0  0  0  0
  160.1820  208.1510  155.5910 O   0  0  0  0  0  0  0  0  0  0  0  0
  161.4070  210.7240  149.1410 N   0  0  0  0  0  2  0  0  0  0  0  0
  159.8030  209.7700  150.7980 C   0  0  0  0  0  2  0  0  0  0  0  0
  159.8630  206.8770  152.4430 C   0  0  0  0  0  2  0  0  0  0  0  0
  156.0310  210.1800  154.5830 C   0  0  0  0  0  2  0  0  0  0  0  0
  156.5300  208.9480  155.3410 C   0  0  0  0  0  2  0  0  0  0  0  0
  158.7020  212.6310  151.0810 C   0  0  1  0  0  3  0  0  0  0  0  0
  158.3730  212.4830  152.5570 C   0  0  0  0  0  2  0  0  0  0  0  0
  157.2460  211.0400  154.2790 C   0  0  1  0  0  0  0  0  0  0  0  0
  161.3190  207.3980  147.6550 C   0  0  0  0  0  1  0  0  0  0  0  0
  160.2020  211.4840  146.1020 N   0  0  0  0  0  0  0  0  0  0  0  0
  158.4440  210.1470  154.5370 C   0  0  0  0  0  2  0  0  0  0  0  0
  157.2300  211.5140  152.8190 C   0  0  0  0  0  2  0  0  0  0  0  0
  157.2550  212.2270  155.2350 C   0  0  0  0  0  1  0  0  0  0  0  0
  159.7060  210.9290  147.3660 C   0  0  0  0  0  2  0  0  0  0  0  0
  161.3140  206.9530  149.0780 C   0  0  0  0  0  0  0  0  0  0  0  0
  161.5230  205.6750  150.8360 C   0  0  0  0  0  0  0  0  0  0  0  0
  157.7800  213.6670  150.4630 C   0  0  0  0  0  1  0  0  0  0  0  0
  160.1910  213.0190  150.9590 C   0  0  1  0  0  3  0  0  0  0  0  0
  161.1900  211.9080  151.3320 C   0  0  1  0  0  3  0  0  0  0  0  0
  160.4420  211.5110  148.4850 N   0  0  0  0  0  0  0  0  0  0  0  0
  160.5930  213.7770  149.6870 C   0  0  2  0  0  3  0  0  0  0  0  0
  161.9130  205.8370  149.5520 N   0  0  0  0  0  0  0  0  0  0  0  0
  160.6980  206.7400  151.2050 C   0  0  0  0  0  0  0  0  0  0  0  0
  160.6210  212.9340  148.4440 C   0  0  0  0  0  0  0  0  0  0  0  0
  161.8110  214.4490  149.8740 O   0  0  0  0  0  1  0  0  0  0  0  0
  160.7340  213.5250  147.2510 C   0  0  0  0  0  3  0  0  0  0  0  0
  163.5260  208.8940  150.7580 O   0  0  0  0  0  1  0  0  0  0  0  0
  162.7740  209.2030  151.8650 C   0  0  0  0  0  3  0  0  0  0  0  0
  162.7530  208.3780  152.8990 C   0  0  0  0  0  3  0  0  0  0  0  0
  161.0280  203.1540  150.9850 C   0  0  2  0  0  3  0  0  0  0  0  0
  160.3550  203.8380  152.1510 C   0  0  0  0  0  2  0  0  0  0  0  0
  161.6730  204.3850  151.6200 C   0  0  2  0  0  3  0  0  0  0  0  0
  160.3050  203.4430  149.8240 O   0  0  0  0  0  0  0  0  0  0  0  0
  159.4920  202.3200  149.6340 C   0  0  0  0  0  2  0  0  0  0  0  0
  160.3500  201.1270  149.2340 C   0  0  0  0  0  2  0  0  0  0  0  0
  160.5620  201.1670  147.7380 C   0  0  0  0  0  1  0  0  0  0  0  0
  162.1990  214.1520  144.9310 N   0  0  0  0  0  1  0  0  0  0  0  0
  161.0690  213.2680  144.7260 C   0  0  0  0  0  2  0  0  0  0  0  0
  161.2700  211.7200  152.8310 C   0  0  0  0  0  2  0  0  0  0  0  0
  160.4590  213.9460  153.1220 O   0  0  0  0  0  1  0  0  0  0  0  0
  160.2880  212.6280  153.5530 C   0  0  2  0  0  3  0  0  0  0  0  0
  160.5150  212.5470  155.0560 C   0  0  0  0  0  2  0  0  0  0  0  0
  159.6490  213.4100  157.1990 C   0  0  0  0  0  1  0  0  0  0  0  0
  160.0010  213.7890  155.7620 C   0  0  0  0  0  2  0  0  0  0  0  0
  162.3310  209.7810  155.0320 C   0  0  0  0  0  2  0  0  0  0  0  0
  162.0980  209.5130  156.4960 C   0  0  0  0  0  0  0  0  0  0  0  0
  162.4400  208.2400  157.0350 N   0  0  0  0  0  1  0  0  0  0  0  0
  161.6230  210.4050  157.2520 O   0  0  0  0  0  0  0  0  0  0  0  0
  162.7390  204.9540  148.8820 O   0  0  0  0  0  0  0  0  0  0  0  0
  162.7700  202.8090  147.8790 C   0  0  0  0  0  1  0  0  0  0  0  0
  162.4030  204.2690  147.6780 C   0  0  2  0  0  3  0  0  0  0  0  0
  163.1700  206.2440  146.5590 F   0  0  0  0  0  0  0  0  0  0  0  0
  164.4610  204.3740  146.4300 F   0  0  0  0  0  0  0  0  0  0  0  0
  162.5240  204.4840  145.2930 F   0  0  0  0  0  0  0  0  0  0  0  0
  163.1560  204.8570  146.4700 C   0  0  0  0  0  0  0  0  0  0  0  0
  1 12  1  6  0  0  0
  1 29  1  0  0  0  0
  2  9  1  0  0  0  0
  3  9  2  0  0  0  0
  3 55  1  0  0  0  0
  4 21  1  6  0  0  0
  5 20  2  0  0  0  0
  5 36  1  0  0  0  0
  6 33  1  0  0  0  0
  7 10  1  0  0  0  0
  7  4  1  0  0  0  0
  8  6  1  0  0  0  0
  8 12  1  0  0  0  0
  9 10  1  0  0  0  0
 11  1  1  0  0  0  0
 13  2  1  0  0  0  0
 14 15  1  0  0  0  0
 15  4  1  0  0  0  0
 16 27  1  1  0  0  0
 16 17  1  0  0  0  0
 17 22  1  0  0  0  0
 18 21  1  0  0  0  0
 18 14  1  0  0  0  0
 18 23  1  1  0  0  0
 19 25  1  0  0  0  0
 20 24  1  0  0  0  0
 22 18  1  0  0  0  0
 24 30  1  0  0  0  0
 25 32  1  0  0  0  0
 25  6  2  0  0  0  0
 26 33  2  0  0  0  0
 26 42  1  0  0  0  0
 28 16  1  0  0  0  0
 28 29  1  0  0  0  0
 29 49  1  0  0  0  0
 30 11  1  0  0  0  0
 31 35  1  0  0  0  0
 31 28  1  0  0  0  0
 32 26  1  0  0  0  0
 33 13  1  0  0  0  0
 34 30  1  0  0  0  0
 34 31  1  0  0  0  0
 36 34  2  0  0  0  0
 37 38  1  0  0  0  0
 38 39  2  0  0  0  0
 39  3  1  0  0  0  0
 40 42  1  0  0  0  0
 40 41  1  0  0  0  0
 42 41  1  0  0  0  0
 43 40  1  0  0  0  0
 44 43  1  0  0  0  0
 45 44  1  0  0  0  0
 46 45  1  0  0  0  0
 48 47  1  0  0  0  0
 48  5  1  0  0  0  0
 49 51  1  0  0  0  0
 50 51  1  0  0  0  0
 51 52  1  0  0  0  0
 52 54  1  0  0  0  0
 54 53  1  0  0  0  0
 55 56  1  0  0  0  0
 56 57  1  0  0  0  0
 56 58  2  0  0  0  0
 59 32  1  0  0  0  0
 61 60  1  0  0  0  0
 61 59  1  0  0  0  0
 63 65  1  0  0  0  0
 64 65  1  0  0  0  0
 65 62  1  0  0  0  0
 65 61  1  0  0  0  0
M  END
>  <MODEL>
1

>  <REMARK>
 VINA RESULT:      19.0      0.000      0.000
  Name = 
  15 active torsions:
  status: ('A' for Active; 'I' for Inactive)
    1  A    between atoms: C_5  and  C_29
    2  A    between atoms: C_5  and  C_54
    3  A    between atoms: C_8  and  C_59
    4  A    between atoms: C_10  and  C_18
    5  A    between atoms: C_10  and  C_50
    6  A    between atoms: C_11  and  C_61
    7  A    between atoms: C_17  and  C_29
    8  A    between atoms: C_18  and  C_52
    9  A    between atoms: C_22  and  O_65
   10  A    between atoms: O_32  and  C_51
   11  A    between atoms: O_32  and  N_56
   12  A    between atoms: C_39  and  C_51
   13  A    between atoms: C_43  and  C_52
   14  A    between atoms: C_45  and  C_46
   15  A    between atoms: C_61  and  O_65
                            x       y       z     vdW  Elec       q    Type
                         _______ _______ _______ _____ _____    ______ ____

>  <TORSDO>
F 15

$$$$
=
 OpenBabel11072414303D

 65 70  0  0  1  0  0  0  0  0999 V2000
  161.4720  210.1810  150.6730 C   0  0  2  0  0  3  0  0  0  0  0  0
  160.5520  205.9700  153.4140 C   0  0  0  0  0  2  0  0  0  0  0  0
  162.1240  207.7840  154.0510 C   0  0  0  0  0  0  0  0  0  0  0  0
  158.2070  208.6930  155.5900 C   0  0  2  0  0  3  0  0  0  0  0  0
  161.3330  212.7800  146.3770 C   0  0  0  0  0  0  0  0  0  0  0  0
  160.5970  207.2810  149.8950 C   0  0  0  0  0  0  0  0  0  0  0  0
  158.8250  207.3130  155.4180 C   0  0  0  0  0  2  0  0  0  0  0  0
  159.9310  208.5080  149.8450 O   0  0  0  0  0  0  0  0  0  0  0  0
  161.0160  207.0790  154.3160 C   0  0  0  0  0  0  0  0  0  0  0  0
  160.2470  207.4040  155.4460 O   0  0  0  0  0  0  0  0  0  0  0  0
  161.8270  210.4260  149.2750 N   0  0  0  0  0  2  0  0  0  0  0  0
  160.1060  209.5170  150.8360 C   0  0  0  0  0  2  0  0  0  0  0  0
  159.8020  206.4910  152.1900 C   0  0  0  0  0  2  0  0  0  0  0  0
  156.3810  210.0100  154.6570 C   0  0  0  0  0  2  0  0  0  0  0  0
  156.7210  208.6580  155.2890 C   0  0  0  0  0  2  0  0  0  0  0  0
  159.3570  212.4490  151.4020 C   0  0  1  0  0  3  0  0  0  0  0  0
  159.0010  212.1980  152.8570 C   0  0  0  0  0  2  0  0  0  0  0  0
  157.6940  210.7420  154.4350 C   0  0  1  0  0  0  0  0  0  0  0  0
  161.3500  207.2970  147.4700 C   0  0  0  0  0  1  0  0  0  0  0  0
  160.7480  211.6200  146.3290 N   0  0  0  0  0  0  0  0  0  0  0  0
  158.7720  209.6890  154.5990 C   0  0  0  0  0  2  0  0  0  0  0  0
  157.7470  211.3540  153.0270 C   0  0  0  0  0  2  0  0  0  0  0  0
  157.8390  211.8200  155.5020 C   0  0  0  0  0  1  0  0  0  0  0  0
  160.1780  211.0080  147.5340 C   0  0  0  0  0  2  0  0  0  0  0  0
  161.2790  206.7190  148.8440 C   0  0  0  0  0  0  0  0  0  0  0  0
  161.3180  205.2590  150.4670 C   0  0  0  0  0  0  0  0  0  0  0  0
  158.5730  213.6440  150.8910 C   0  0  0  0  0  1  0  0  0  0  0  0
  160.8840  212.6630  151.3130 C   0  0  1  0  0  3  0  0  0  0  0  0
  161.7380  211.4090  151.5710 C   0  0  1  0  0  3  0  0  0  0  0  0
  160.9700  211.3850  148.7020 N   0  0  0  0  0  0  0  0  0  0  0  0
  161.3840  213.4870  150.1190 C   0  0  2  0  0  3  0  0  0  0  0  0
  161.7350  205.4970  149.2030 N   0  0  0  0  0  0  0  0  0  0  0  0
  160.6240  206.3760  150.9420 C   0  0  0  0  0  0  0  0  0  0  0  0
  161.3200  212.7720  148.7990 C   0  0  0  0  0  0  0  0  0  0  0  0
  162.6730  213.9850  150.3670 O   0  0  0  0  0  1  0  0  0  0  0  0
  161.5130  213.4590  147.6700 C   0  0  0  0  0  3  0  0  0  0  0  0
  164.0000  206.3410  151.1700 O   0  0  0  0  0  1  0  0  0  0  0  0
  163.3660  206.4260  152.3860 C   0  0  0  0  0  3  0  0  0  0  0  0
  162.8490  207.5790  152.7790 C   0  0  0  0  0  3  0  0  0  0  0  0
  160.5190  202.8150  150.3710 C   0  0  2  0  0  3  0  0  0  0  0  0
  159.9260  203.4590  151.6020 C   0  0  0  0  0  2  0  0  0  0  0  0
  161.3040  203.8900  151.1200 C   0  0  2  0  0  3  0  0  0  0  0  0
  159.8430  203.3010  149.2480 O   0  0  0  0  0  0  0  0  0  0  0  0
  159.5240  202.1560  148.5130 C   0  0  0  0  0  2  0  0  0  0  0  0
  159.3360  200.9750  149.4580 C   0  0  0  0  0  2  0  0  0  0  0  0
  157.8960  200.5210  149.3780 C   0  0  0  0  0  1  0  0  0  0  0  0
  163.2820  213.3280  145.1020 N   0  0  0  0  0  1  0  0  0  0  0  0
  161.8350  213.4100  145.1310 C   0  0  0  0  0  2  0  0  0  0  0  0
  161.7820  211.0670  153.0440 C   0  0  0  0  0  2  0  0  0  0  0  0
  164.1170  210.5810  152.9770 O   0  0  0  0  0  1  0  0  0  0  0  0
  163.1530  211.3490  153.6350 C   0  0  2  0  0  3  0  0  0  0  0  0
  163.1570  211.0150  155.1200 C   0  0  0  0  0  2  0  0  0  0  0  0
  164.3300  211.3840  157.2600 C   0  0  0  0  0  1  0  0  0  0  0  0
  164.5130  211.2930  155.7460 C   0  0  0  0  0  2  0  0  0  0  0  0
  162.5830  208.8080  155.0410 C   0  0  0  0  0  2  0  0  0  0  0  0
  162.0530  208.5810  156.4330 C   0  0  0  0  0  0  0  0  0  0  0  0
  161.2010  209.5570  157.0240 N   0  0  0  0  0  1  0  0  0  0  0  0
  162.3390  207.5310  157.0730 O   0  0  0  0  0  0  0  0  0  0  0  0
  162.4530  204.5900  148.4470 O   0  0  0  0  0  0  0  0  0  0  0  0
  162.0720  202.6590  147.1310 C   0  0  0  0  0  1  0  0  0  0  0  0
  162.1170  204.1770  147.1250 C   0  0  2  0  0  3  0  0  0  0  0  0
  164.4210  204.6480  146.6600 F   0  0  0  0  0  0  0  0  0  0  0  0
  163.1170  203.9020  144.9500 F   0  0  0  0  0  0  0  0  0  0  0  0
  162.8510  205.9910  145.7400 F   0  0  0  0  0  0  0  0  0  0  0  0
  163.1490  204.6850  146.1000 C   0  0  0  0  0  0  0  0  0  0  0  0
  1 12  1  6  0  0  0
  1 29  1  0  0  0  0
  2  9  1  0  0  0  0
  3  9  2  0  0  0  0
  3 55  1  0  0  0  0
  4 21  1  6  0  0  0
  5 36  1  0  0  0  0
  6 33  1  0  0  0  0
  7 10  1  0  0  0  0
  7  4  1  0  0  0  0
  8  6  1  0  0  0  0
  8 12  1  0  0  0  0
  9 10  1  0  0  0  0
 11  1  1  0  0  0  0
 13  2  1  0  0  0  0
 14 15  1  0  0  0  0
 15  4  1  0  0  0  0
 16 27  1  1  0  0  0
 16 17  1  0  0  0  0
 17 22  1  0  0  0  0
 18 21  1  0  0  0  0
 18 14  1  0  0  0  0
 18 23  1  1  0  0  0
 19 25  1  0  0  0  0
 20  5  2  0  0  0  0
 20 24  1  0  0  0  0
 22 18  1  0  0  0  0
 24 30  1  0  0  0  0
 25 32  1  0  0  0  0
 25  6  2  0  0  0  0
 26 33  2  0  0  0  0
 26 42  1  0  0  0  0
 28 16  1  0  0  0  0
 28 29  1  0  0  0  0
 29 49  1  0  0  0  0
 30 34  1  0  0  0  0
 30 11  1  0  0  0  0
 31 35  1  0  0  0  0
 31 28  1  0  0  0  0
 32 26  1  0  0  0  0
 33 13  1  0  0  0  0
 34 31  1  0  0  0  0
 36 34  2  0  0  0  0
 37 38  1  0  0  0  0
 38 39  2  0  0  0  0
 39  3  1  0  0  0  0
 40 42  1  0  0  0  0
 40 41  1  0  0  0  0
 42 41  1  0  0  0  0
 43 40  1  0  0  0  0
 44 43  1  0  0  0  0
 44 45  1  0  0  0  0
 46 45  1  0  0  0  0
 47 48  1  0  0  0  0
 48  5  1  0  0  0  0
 49 51  1  0  0  0  0
 50 51  1  0  0  0  0
 51 52  1  0  0  0  0
 52 54  1  0  0  0  0
 54 53  1  0  0  0  0
 55 56  1  0  0  0  0
 56 57  1  0  0  0  0
 56 58  2  0  0  0  0
 59 32  1  0  0  0  0
 61 60  1  0  0  0  0
 61 59  1  0  0  0  0
 63 65  1  0  0  0  0
 64 65  1  0  0  0  0
 65 62  1  0  0  0  0
 65 61  1  0  0  0  0
M  END
>  <MODEL>
2

>  <REMARK>
 VINA RESULT:      19.7      1.205      1.632
  Name = 
  15 active torsions:
  status: ('A' for Active; 'I' for Inactive)
    1  A    between atoms: C_5  and  C_29
    2  A    between atoms: C_5  and  C_54
    3  A    between atoms: C_8  and  C_59
    4  A    between atoms: C_10  and  C_18
    5  A    between atoms: C_10  and  C_50
    6  A    between atoms: C_11  and  C_61
    7  A    between atoms: C_17  and  C_29
    8  A    between atoms: C_18  and  C_52
    9  A    between atoms: C_22  and  O_65
   10  A    between atoms: O_32  and  C_51
   11  A    between atoms: O_32  and  N_56
   12  A    between atoms: C_39  and  C_51
   13  A    between atoms: C_43  and  C_52
   14  A    between atoms: C_45  and  C_46
   15  A    between atoms: C_61  and  O_65
                            x       y       z     vdW  Elec       q    Type
                         _______ _______ _______ _____ _____    ______ ____

>  <TORSDO>
F 15

$$$$
=
 OpenBabel11072414303D

 65 70  0  0  1  0  0  0  0  0999 V2000
  161.7170  209.4420  150.3450 C   0  0  2  0  0  3  0  0  0  0  0  0
  160.5390  205.2370  152.9960 C   0  0  0  0  0  2  0  0  0  0  0  0
  162.3380  206.8460  153.5790 C   0  0  0  0  0  0  0  0  0  0  0  0
  158.6580  208.0950  155.4330 C   0  0  2  0  0  3  0  0  0  0  0  0
  161.5630  212.2240  146.1670 C   0  0  0  0  0  0  0  0  0  0  0  0
  160.4820  206.6870  149.5310 C   0  0  0  0  0  0  0  0  0  0  0  0
  159.1100  206.6670  155.1670 C   0  0  0  0  0  2  0  0  0  0  0  0
  159.9510  207.9770  149.5740 O   0  0  0  0  0  0  0  0  0  0  0  0
  161.1810  206.2510  153.9000 C   0  0  0  0  0  0  0  0  0  0  0  0
  160.5320  206.6060  155.0940 O   0  0  0  0  0  0  0  0  0  0  0  0
  161.9990  209.7080  148.9340 N   0  0  0  0  0  2  0  0  0  0  0  0
  160.3020  208.9180  150.5840 C   0  0  0  0  0  2  0  0  0  0  0  0
  159.7670  205.8860  151.8490 C   0  0  0  0  0  2  0  0  0  0  0  0
  156.9260  209.6360  154.6840 C   0  0  0  0  0  2  0  0  0  0  0  0
  157.1600  208.2300  155.2410 C   0  0  0  0  0  2  0  0  0  0  0  0
  159.9160  211.8860  151.3080 C   0  0  1  0  0  3  0  0  0  0  0  0
  159.6360  211.6120  152.7760 C   0  0  0  0  0  2  0  0  0  0  0  0
  158.2910  210.2350  154.3920 C   0  0  1  0  0  0  0  0  0  0  0  0
  161.0620  206.7270  147.0600 C   0  0  0  0  0  1  0  0  0  0  0  0
  160.8540  211.1340  146.1200 N   0  0  0  0  0  0  0  0  0  0  0  0
  159.2580  209.0680  154.4390 C   0  0  0  0  0  2  0  0  0  0  0  0
  158.3120  210.8980  153.0070 C   0  0  0  0  0  2  0  0  0  0  0  0
  158.6250  211.2440  155.4830 C   0  0  0  0  0  1  0  0  0  0  0  0
  160.3060  210.5350  147.3410 C   0  0  0  0  0  2  0  0  0  0  0  0
  161.0240  206.1010  148.4140 C   0  0  0  0  0  0  0  0  0  0  0  0
  161.0170  204.5770  149.9770 C   0  0  0  0  0  0  0  0  0  0  0  0
  159.2310  213.1780  150.8980 C   0  0  0  0  0  1  0  0  0  0  0  0
  161.4460  211.9420  151.1140 C   0  0  1  0  0  3  0  0  0  0  0  0
  162.1760  210.5940  151.2650 C   0  0  1  0  0  3  0  0  0  0  0  0
  161.2130  210.7760  148.4610 N   0  0  0  0  0  0  0  0  0  0  0  0
  161.9490  212.7590  149.9170 C   0  0  2  0  0  3  0  0  0  0  0  0
  161.3690  204.8240  148.6950 N   0  0  0  0  0  0  0  0  0  0  0  0
  160.4830  205.7390  150.5400 C   0  0  0  0  0  0  0  0  0  0  0  0
  161.7170  212.1130  148.5810 C   0  0  0  0  0  0  0  0  0  0  0  0
  163.2990  213.1070  150.0870 O   0  0  0  0  0  1  0  0  0  0  0  0
  161.9050  212.8240  147.4650 C   0  0  0  0  0  3  0  0  0  0  0  0
  163.6260  207.2190  150.1010 O   0  0  0  0  0  1  0  0  0  0  0  0
  163.0140  207.5280  151.2910 C   0  0  0  0  0  3  0  0  0  0  0  0
  162.9470  206.6200  152.2510 C   0  0  0  0  0  3  0  0  0  0  0  0
  160.3890  202.1050  149.6340 C   0  0  2  0  0  3  0  0  0  0  0  0
  159.4670  202.6870  150.6790 C   0  0  0  0  0  2  0  0  0  0  0  0
  160.9010  203.1900  150.5800 C   0  0  2  0  0  3  0  0  0  0  0  0
  160.0060  202.5950  148.3820 O   0  0  0  0  0  0  0  0  0  0  0  0
  160.0680  201.4800  147.5400 C   0  0  0  0  0  2  0  0  0  0  0  0
  161.2100  200.5710  147.9760 C   0  0  0  0  0  2  0  0  0  0  0  0
  161.6770  199.7790  146.7760 C   0  0  0  0  0  1  0  0  0  0  0  0
  161.0560  212.6520  143.8670 N   0  0  0  0  0  1  0  0  0  0  0  0
  162.0430  212.8510  144.9100 C   0  0  0  0  0  2  0  0  0  0  0  0
  162.2840  210.1870  152.7180 C   0  0  0  0  0  2  0  0  0  0  0  0
  164.5530  210.7020  153.2490 O   0  0  0  0  0  1  0  0  0  0  0  0
  163.2330  211.1000  153.4760 C   0  0  2  0  0  3  0  0  0  0  0  0
  162.9290  211.0410  154.9670 C   0  0  0  0  0  2  0  0  0  0  0  0
  163.8400  211.0370  157.2600 C   0  0  0  0  0  1  0  0  0  0  0  0
  164.1690  211.3270  155.7960 C   0  0  0  0  0  2  0  0  0  0  0  0
  162.9720  207.7720  154.5690 C   0  0  0  0  0  2  0  0  0  0  0  0
  162.2160  207.8770  155.8680 C   0  0  0  0  0  0  0  0  0  0  0  0
  161.5130  209.0780  156.1710 N   0  0  0  0  0  1  0  0  0  0  0  0
  162.1820  206.9110  156.6790 O   0  0  0  0  0  0  0  0  0  0  0  0
  161.9310  203.8800  147.8560 O   0  0  0  0  0  0  0  0  0  0  0  0
  163.6320  205.4230  147.2800 C   0  0  0  0  0  1  0  0  0  0  0  0
  162.9180  204.1490  146.8640 C   0  0  2  0  0  3  0  0  0  0  0  0
  160.9480  203.9180  145.5180 F   0  0  0  0  0  0  0  0  0  0  0  0
  162.3650  205.6370  145.0520 F   0  0  0  0  0  0  0  0  0  0  0  0
  162.9540  203.5260  144.5490 F   0  0  0  0  0  0  0  0  0  0  0  0
  162.2810  204.3130  145.4710 C   0  0  0  0  0  0  0  0  0  0  0  0
  1 12  1  6  0  0  0
  1 29  1  0  0  0  0
  2  9  1  0  0  0  0
  3  9  2  0  0  0  0
  3 55  1  0  0  0  0
  4 21  1  6  0  0  0
  5 36  1  0  0  0  0
  6  8  1  0  0  0  0
  6 33  1  0  0  0  0
  7  4  1  0  0  0  0
  8 12  1  0  0  0  0
  9 10  1  0  0  0  0
 10  7  1  0  0  0  0
 11  1  1  0  0  0  0
 13  2  1  0  0  0  0
 14 15  1  0  0  0  0
 15  4  1  0  0  0  0
 16 27  1  1  0  0  0
 16 17  1  0  0  0  0
 17 22  1  0  0  0  0
 18 21  1  0  0  0  0
 18 14  1  0  0  0  0
 18 23  1  1  0  0  0
 19 25  1  0  0  0  0
 20  5  2  0  0  0  0
 20 24  1  0  0  0  0
 22 18  1  0  0  0  0
 24 30  1  0  0  0  0
 25 32  1  0  0  0  0
 25  6  2  0  0  0  0
 26 33  2  0  0  0  0
 26 42  1  0  0  0  0
 28 29  1  0  0  0  0
 28 16  1  0  0  0  0
 29 49  1  0  0  0  0
 30 34  1  0  0  0  0
 30 11  1  0  0  0  0
 31 35  1  0  0  0  0
 31 28  1  0  0  0  0
 32 26  1  0  0  0  0
 33 13  1  0  0  0  0
 34 31  1  0  0  0  0
 36 34  2  0  0  0  0
 37 38  1  0  0  0  0
 38 39  2  0  0  0  0
 39  3  1  0  0  0  0
 40 42  1  0  0  0  0
 40 41  1  0  0  0  0
 42 41  1  0  0  0  0
 43 40  1  0  0  0  0
 44 45  1  0  0  0  0
 44 43  1  0  0  0  0
 46 45  1  0  0  0  0
 47 48  1  0  0  0  0
 48  5  1  0  0  0  0
 49 51  1  0  0  0  0
 50 51  1  0  0  0  0
 51 52  1  0  0  0  0
 52 54  1  0  0  0  0
 54 53  1  0  0  0  0
 55 56  1  0  0  0  0
 56 57  1  0  0  0  0
 56 58  2  0  0  0  0
 59 32  1  0  0  0  0
 61 60  1  0  0  0  0
 61 59  1  0  0  0  0
 63 65  1  0  0  0  0
 64 65  1  0  0  0  0
 65 62  1  0  0  0  0
 65 61  1  0  0  0  0
M  END
>  <MODEL>
3

>  <REMARK>
 VINA RESULT:      20.3      1.572      2.009
  Name = 
  15 active torsions:
  status: ('A' for Active; 'I' for Inactive)
    1  A    between atoms: C_5  and  C_29
    2  A    between atoms: C_5  and  C_54
    3  A    between atoms: C_8  and  C_59
    4  A    between atoms: C_10  and  C_18
    5  A    between atoms: C_10  and  C_50
    6  A    between atoms: C_11  and  C_61
    7  A    between atoms: C_17  and  C_29
    8  A    between atoms: C_18  and  C_52
    9  A    between atoms: C_22  and  O_65
   10  A    between atoms: O_32  and  C_51
   11  A    between atoms: O_32  and  N_56
   12  A    between atoms: C_39  and  C_51
   13  A    between atoms: C_43  and  C_52
   14  A    between atoms: C_45  and  C_46
   15  A    between atoms: C_61  and  O_65
                            x       y       z     vdW  Elec       q    Type
                         _______ _______ _______ _____ _____    ______ ____

>  <TORSDO>
F 15

$$$$
