=
 OpenBabel11072411313D

 52 56  0  0  1  0  0  0  0  0999 V2000
  161.4230  212.0980  148.6940 C   0  0  2  0  0  3  0  0  0  0  0  0
  163.0940  211.3670  149.4890 O   0  0  0  0  0  0  0  0  0  0  0  0
  161.6550  209.5280  148.8990 C   0  0  0  0  0  1  0  0  0  0  0  0
  162.7760  212.4420  148.7570 O   0  0  0  0  0  0  0  0  0  0  0  0
  161.7760  210.9140  149.5290 C   0  0  2  0  0  0  0  0  0  0  0  0
  161.2450  210.9940  150.9610 C   0  0  0  0  0  2  0  0  0  0  0  0
  162.6860  209.7650  152.3870 O   0  0  0  0  0  0  0  0  0  0  0  0
  161.5720  209.7990  151.7970 C   0  0  0  0  0  0  0  0  0  0  0  0
  160.6350  208.7690  151.9570 O   0  0  0  0  0  0  0  0  0  0  0  0
  160.6700  207.4740  153.8460 O   0  0  0  0  0  0  0  0  0  0  0  0
  160.8770  207.5500  152.6070 C   0  0  0  0  0  0  0  0  0  0  0  0
  161.4440  206.3630  151.8760 C   0  0  2  0  0  3  0  0  0  0  0  0
  160.6240  203.9370  151.3530 C   0  0  2  0  0  0  0  0  0  0  0  0
  161.2970  202.7480  151.6950 O   0  0  0  0  0  0  0  0  0  0  0  0
  161.9370  203.9480  152.0550 C   0  0  2  0  0  3  0  0  0  0  0  0
  160.9180  205.0170  152.3960 C   0  0  1  0  0  3  0  0  0  0  0  0
  161.4670  202.8080  147.9860 C   0  0  0  0  0  3  0  0  0  0  0  0
  160.3530  203.2650  148.8900 C   0  0  0  0  0  2  0  0  0  0  0  0
  160.0540  205.6550  149.6340 C   0  0  0  0  0  2  0  0  0  0  0  0
  162.2790  205.4730  145.3540 C   0  0  0  0  0  1  0  0  0  0  0  0
  161.6930  204.9040  146.5950 C   0  0  0  0  0  0  0  0  0  0  0  0
  160.8210  204.3420  149.8800 C   0  0  1  0  0  3  0  0  0  0  0  0
  162.0190  203.5170  146.9850 C   0  0  0  0  0  3  0  0  0  0  0  0
  160.3500  206.3130  148.3130 C   0  0  0  0  0  3  0  0  0  0  0  0
  161.0200  205.6740  147.3980 C   0  0  0  0  0  0  0  0  0  0  0  0
  162.9720  206.3990  151.8570 C   0  0  0  0  0  2  0  0  0  0  0  0
  163.5290  206.5990  150.4570 C   0  0  0  0  0  1  0  0  0  0  0  0
  161.0590  211.7790  147.2400 C   0  0  0  0  0  2  0  0  0  0  0  0
  160.7480  214.2060  147.0280 C   0  0  0  0  0  1  0  0  0  0  0  0
  160.2050  212.8590  146.5620 C   0  0  1  0  0  0  0  0  0  0  0  0
  162.8720  213.2680  142.5440 O   0  0  0  0  0  0  0  0  0  0  0  0
  160.3500  212.7300  145.0630 C   0  0  0  0  0  0  0  0  0  0  0  0
  161.6980  213.3470  142.9900 C   0  0  0  0  0  0  0  0  0  0  0  0
  159.5500  212.0040  144.4130 O   0  0  0  0  0  0  0  0  0  0  0  0
  161.4900  213.3010  144.4070 N   0  0  0  0  0  2  0  0  0  0  0  0
  160.6410  213.5030  142.0890 O   0  0  0  0  0  0  0  0  0  0  0  0
  160.0620  213.4280  138.5090 C   0  0  0  0  0  2  0  0  0  0  0  0
  160.0030  213.9250  139.9500 C   0  0  0  0  0  2  0  0  0  0  0  0
  159.2860  210.0080  139.3160 O   0  0  0  0  0  0  0  0  0  0  0  0
  160.6630  212.9570  140.8230 N   0  0  0  0  0  0  0  0  0  0  0  0
  159.5300  212.1090  138.4120 O   0  0  0  0  0  0  0  0  0  0  0  0
  159.8520  211.7360  140.8700 C   0  0  0  0  0  2  0  0  0  0  0  0
  159.5690  211.2220  139.4900 C   0  0  0  0  0  0  0  0  0  0  0  0
  158.7380  212.7420  147.0160 C   0  0  0  0  0  2  0  0  0  0  0  0
  156.7310  212.4300  149.0250 O   0  0  0  0  0  0  0  0  0  0  0  0
  158.3820  213.7400  148.0160 N   0  0  0  0  0  2  0  0  0  0  0  0
  157.3940  213.5020  149.0220 C   0  0  0  0  0  0  0  0  0  0  0  0
  157.1510  214.4510  150.0120 O   0  0  0  0  0  0  0  0  0  0  0  0
  157.2700  214.1400  151.3930 C   0  0  0  0  0  2  0  0  0  0  0  0
  158.7200  214.2650  151.8150 C   0  0  0  0  0  2  0  0  0  0  0  0
  159.1640  213.0010  152.5230 C   0  0  0  0  0  2  0  0  0  0  0  0
  158.2820  211.9750  152.2340 F   0  0  0  0  0  0  0  0  0  0  0  0
  1 28  1  6  0  0  0
  1  4  1  0  0  0  0
  1  5  1  0  0  0  0
  2  5  1  0  0  0  0
  4  2  1  0  0  0  0
  5  3  1  6  0  0  0
  5  6  1  0  0  0  0
  6  8  1  0  0  0  0
  8  9  1  0  0  0  0
  8  7  2  0  0  0  0
  9 11  1  0  0  0  0
 11 10  2  0  0  0  0
 12 26  1  1  0  0  0
 12 11  1  0  0  0  0
 13 14  1  1  0  0  0
 13 15  1  0  0  0  0
 13 16  1  0  0  0  0
 15 14  1  1  0  0  0
 15 16  1  0  0  0  0
 16 12  1  6  0  0  0
 17 18  1  0  0  0  0
 19 22  1  0  0  0  0
 20 21  1  0  0  0  0
 21 23  1  0  0  0  0
 21 25  2  0  0  0  0
 22 18  1  6  0  0  0
 22 13  1  0  0  0  0
 23 17  2  0  0  0  0
 24 19  1  0  0  0  0
 25 24  2  0  0  0  0
 27 26  1  0  0  0  0
 30 44  1  0  0  0  0
 30 29  1  1  0  0  0
 30 28  1  0  0  0  0
 31 33  2  0  0  0  0
 32 30  1  0  0  0  0
 33 35  1  0  0  0  0
 34 32  2  0  0  0  0
 35 32  1  0  0  0  0
 36 33  1  0  0  0  0
 37 38  1  0  0  0  0
 38 40  1  0  0  0  0
 39 43  2  0  0  0  0
 40 42  1  0  0  0  0
 40 36  1  0  0  0  0
 41 37  1  0  0  0  0
 41 43  1  0  0  0  0
 43 42  1  0  0  0  0
 44 46  1  0  0  0  0
 46 47  1  0  0  0  0
 47 45  2  0  0  0  0
 47 48  1  0  0  0  0
 48 49  1  0  0  0  0
 49 50  1  0  0  0  0
 50 51  1  0  0  0  0
 52 51  1  0  0  0  0
M  END
>  <MODEL>
1

>  <REMARK>
 VINA RESULT:      -5.3      0.000      0.000
  Name = 
  19 active torsions:
  status: ('A' for Active; 'I' for Inactive)
    1  A    between atoms: C_1  and  C_41
    2  A    between atoms: C_2  and  C_30
    3  A    between atoms: C_7  and  C_36
    4  A    between atoms: C_16  and  C_40
    5  A    between atoms: C_16  and  O_47
    6  A    between atoms: C_18  and  N_34
    7  A    between atoms: C_18  and  C_36
    8  A    between atoms: C_19  and  O_33
    9  A    between atoms: N_23  and  O_33
   10  A    between atoms: C_26  and  C_37
   11  A    between atoms: C_28  and  C_35
   12  A    between atoms: C_28  and  C_39
   13  A    between atoms: C_29  and  C_40
   14  A    between atoms: O_32  and  C_38
   15  A    between atoms: O_32  and  C_39
   16  A    between atoms: C_36  and  C_41
   17  A    between atoms: C_37  and  C_38
   18  A    between atoms: C_37  and  C_43
   19  A    between atoms: C_44  and  O_47
                            x       y       z     vdW  Elec       q    Type
                         _______ _______ _______ _____ _____    ______ ____

>  <TORSDO>
F 19

$$$$
=
 OpenBabel11072411313D

 52 56  0  0  1  0  0  0  0  0999 V2000
  161.4310  209.5190  149.6120 C   0  0  2  0  0  3  0  0  0  0  0  0
  162.2150  211.3410  149.7870 O   0  0  0  0  0  0  0  0  0  0  0  0
  163.1480  209.9340  151.5050 C   0  0  0  0  0  1  0  0  0  0  0  0
  161.7750  210.5840  148.7740 O   0  0  0  0  0  0  0  0  0  0  0  0
  161.9010  210.3730  150.7410 C   0  0  2  0  0  0  0  0  0  0  0  0
  160.7700  210.8790  151.6370 C   0  0  0  0  0  2  0  0  0  0  0  0
  161.0120  209.3020  153.3910 O   0  0  0  0  0  0  0  0  0  0  0  0
  160.9320  210.5210  153.0800 C   0  0  0  0  0  0  0  0  0  0  0  0
  161.0420  211.5260  154.0500 O   0  0  0  0  0  0  0  0  0  0  0  0
  161.2240  211.5840  156.3320 O   0  0  0  0  0  0  0  0  0  0  0  0
  160.4710  211.4800  155.3290 C   0  0  0  0  0  0  0  0  0  0  0  0
  158.9990  211.2370  155.5310 C   0  0  2  0  0  3  0  0  0  0  0  0
  157.4830  213.1070  156.5480 C   0  0  2  0  0  0  0  0  0  0  0  0
  156.2830  212.9000  157.2570 O   0  0  0  0  0  0  0  0  0  0  0  0
  156.9250  211.7460  156.7750 C   0  0  2  0  0  3  0  0  0  0  0  0
  158.4300  211.9270  156.7780 C   0  0  1  0  0  3  0  0  0  0  0  0
  155.0260  213.8660  153.9580 C   0  0  0  0  0  3  0  0  0  0  0  0
  156.0480  214.4500  154.8970 C   0  0  0  0  0  2  0  0  0  0  0  0
  158.5360  214.2110  154.5720 C   0  0  0  0  0  2  0  0  0  0  0  0
  156.2440  214.0340  150.3280 C   0  0  0  0  0  1  0  0  0  0  0  0
  156.3360  214.0820  151.8100 C   0  0  0  0  0  0  0  0  0  0  0  0
  157.2570  213.5210  155.0820 C   0  0  1  0  0  3  0  0  0  0  0  0
  155.1550  213.7350  152.6250 C   0  0  0  0  0  3  0  0  0  0  0  0
  158.5670  214.4510  153.0870 C   0  0  0  0  0  3  0  0  0  0  0  0
  157.4910  214.2860  152.3740 C   0  0  0  0  0  0  0  0  0  0  0  0
  158.6750  209.7430  155.5200 C   0  0  0  0  0  2  0  0  0  0  0  0
  159.6080  208.9410  156.4130 C   0  0  0  0  0  1  0  0  0  0  0  0
  162.3320  208.3220  149.2880 C   0  0  0  0  0  2  0  0  0  0  0  0
  160.3090  207.2470  150.1730 C   0  0  0  0  0  1  0  0  0  0  0  0
  161.7040  206.9640  149.6280 C   0  0  1  0  0  0  0  0  0  0  0  0
  163.8310  204.7280  145.8990 O   0  0  0  0  0  0  0  0  0  0  0  0
  161.6110  206.1360  148.3670 C   0  0  0  0  0  0  0  0  0  0  0  0
  162.7860  205.3340  146.2520 C   0  0  0  0  0  0  0  0  0  0  0  0
  160.5740  205.4580  148.1330 O   0  0  0  0  0  0  0  0  0  0  0  0
  162.7630  205.9950  147.5230 N   0  0  0  0  0  2  0  0  0  0  0  0
  161.6940  205.3610  145.3800 O   0  0  0  0  0  0  0  0  0  0  0  0
  159.1330  203.2770  143.8780 C   0  0  0  0  0  2  0  0  0  0  0  0
  159.7570  204.4690  144.5970 C   0  0  0  0  0  2  0  0  0  0  0  0
  160.8800  200.7900  145.8050 O   0  0  0  0  0  0  0  0  0  0  0  0
  161.1820  204.2190  144.8000 N   0  0  0  0  0  0  0  0  0  0  0  0
  159.4110  202.0680  144.5800 O   0  0  0  0  0  0  0  0  0  0  0  0
  161.3360  203.1380  145.7790 C   0  0  0  0  0  2  0  0  0  0  0  0
  160.5540  201.9250  145.3700 C   0  0  0  0  0  0  0  0  0  0  0  0
  162.5220  206.2570  150.7260 C   0  0  0  0  0  2  0  0  0  0  0  0
  161.3260  204.9890  152.9890 O   0  0  0  0  0  0  0  0  0  0  0  0
  162.2070  204.8390  150.8300 N   0  0  0  0  0  2  0  0  0  0  0  0
  161.5680  204.2750  151.9790 C   0  0  0  0  0  0  0  0  0  0  0  0
  161.2060  202.9300  151.9970 O   0  0  0  0  0  0  0  0  0  0  0  0
  160.2660  202.3960  151.0760 C   0  0  0  0  0  2  0  0  0  0  0  0
  160.8050  201.1030  150.4980 C   0  0  0  0  0  2  0  0  0  0  0  0
  161.4840  201.3730  149.1710 C   0  0  0  0  0  2  0  0  0  0  0  0
  160.9910  202.5470  148.6300 F   0  0  0  0  0  0  0  0  0  0  0  0
  1 28  1  6  0  0  0
  1  5  1  0  0  0  0
  2  5  1  0  0  0  0
  4  1  1  0  0  0  0
  4  2  1  0  0  0  0
  5  3  1  1  0  0  0
  5  6  1  0  0  0  0
  6  8  1  0  0  0  0
  8  7  2  0  0  0  0
  8  9  1  0  0  0  0
  9 11  1  0  0  0  0
 11 12  1  0  0  0  0
 11 10  2  0  0  0  0
 12 26  1  1  0  0  0
 13 15  1  0  0  0  0
 13 16  1  0  0  0  0
 13 14  1  1  0  0  0
 15 16  1  0  0  0  0
 15 14  1  1  0  0  0
 16 12  1  6  0  0  0
 17 18  1  0  0  0  0
 18 22  1  0  0  0  0
 20 21  1  0  0  0  0
 21 25  2  0  0  0  0
 21 23  1  0  0  0  0
 22 19  1  1  0  0  0
 22 13  1  0  0  0  0
 23 17  2  0  0  0  0
 24 19  1  0  0  0  0
 25 24  2  0  0  0  0
 26 27  1  0  0  0  0
 28 30  1  0  0  0  0
 30 29  1  1  0  0  0
 30 44  1  0  0  0  0
 31 33  2  0  0  0  0
 32 30  1  0  0  0  0
 33 35  1  0  0  0  0
 34 32  2  0  0  0  0
 35 32  1  0  0  0  0
 36 33  1  0  0  0  0
 37 41  1  0  0  0  0
 37 38  1  0  0  0  0
 38 40  1  0  0  0  0
 40 36  1  0  0  0  0
 40 42  1  0  0  0  0
 41 43  1  0  0  0  0
 43 42  1  0  0  0  0
 43 39  2  0  0  0  0
 44 46  1  0  0  0  0
 46 47  1  0  0  0  0
 47 48  1  0  0  0  0
 47 45  2  0  0  0  0
 49 48  1  0  0  0  0
 50 49  1  0  0  0  0
 51 50  1  0  0  0  0
 52 51  1  0  0  0  0
M  END
>  <MODEL>
2

>  <REMARK>
 VINA RESULT:      -4.0      5.023      9.242
  Name = 
  19 active torsions:
  status: ('A' for Active; 'I' for Inactive)
    1  A    between atoms: C_1  and  C_41
    2  A    between atoms: C_2  and  C_30
    3  A    between atoms: C_7  and  C_36
    4  A    between atoms: C_16  and  C_40
    5  A    between atoms: C_16  and  O_47
    6  A    between atoms: C_18  and  N_34
    7  A    between atoms: C_18  and  C_36
    8  A    between atoms: C_19  and  O_33
    9  A    between atoms: N_23  and  O_33
   10  A    between atoms: C_26  and  C_37
   11  A    between atoms: C_28  and  C_35
   12  A    between atoms: C_28  and  C_39
   13  A    between atoms: C_29  and  C_40
   14  A    between atoms: O_32  and  C_38
   15  A    between atoms: O_32  and  C_39
   16  A    between atoms: C_36  and  C_41
   17  A    between atoms: C_37  and  C_38
   18  A    between atoms: C_37  and  C_43
   19  A    between atoms: C_44  and  O_47
                            x       y       z     vdW  Elec       q    Type
                         _______ _______ _______ _____ _____    ______ ____

>  <TORSDO>
F 19

$$$$
=
 OpenBabel11072411313D

 52 56  0  0  1  0  0  0  0  0999 V2000
  161.5470  211.3320  150.2840 C   0  0  2  0  0  3  0  0  0  0  0  0
  162.7210  210.0110  151.1980 O   0  0  0  0  0  0  0  0  0  0  0  0
  161.6030  208.9100  149.3720 C   0  0  0  0  0  1  0  0  0  0  0  0
  162.7630  211.3300  150.9730 O   0  0  0  0  0  0  0  0  0  0  0  0
  161.4920  209.8680  150.5560 C   0  0  2  0  0  0  0  0  0  0  0  0
  160.4200  209.4740  151.5740 C   0  0  0  0  0  2  0  0  0  0  0  0
  161.8280  209.4850  153.4820 O   0  0  0  0  0  0  0  0  0  0  0  0
  160.9640  208.8490  152.8180 C   0  0  0  0  0  0  0  0  0  0  0  0
  160.4830  207.6070  153.2550 O   0  0  0  0  0  0  0  0  0  0  0  0
  161.8670  206.1860  154.4000 O   0  0  0  0  0  0  0  0  0  0  0  0
  161.2410  206.4300  153.3360 C   0  0  0  0  0  0  0  0  0  0  0  0
  161.3810  205.4960  152.1640 C   0  0  2  0  0  3  0  0  0  0  0  0
  160.4770  203.2500  151.1810 C   0  0  2  0  0  0  0  0  0  0  0  0
  161.0810  201.9860  151.3240 O   0  0  0  0  0  0  0  0  0  0  0  0
  161.7570  203.0670  151.9170 C   0  0  2  0  0  3  0  0  0  0  0  0
  160.7740  204.1090  152.4120 C   0  0  1  0  0  3  0  0  0  0  0  0
  161.5310  202.7190  147.7270 C   0  0  0  0  0  3  0  0  0  0  0  0
  160.3600  203.0110  148.6270 C   0  0  0  0  0  2  0  0  0  0  0  0
  159.9880  205.2370  149.7510 C   0  0  0  0  0  2  0  0  0  0  0  0
  162.4630  205.7980  145.6440 C   0  0  0  0  0  1  0  0  0  0  0  0
  161.8120  205.0230  146.7320 C   0  0  0  0  0  0  0  0  0  0  0  0
  160.7550  203.9030  149.8140 C   0  0  1  0  0  3  0  0  0  0  0  0
  162.1320  203.5900  146.8970 C   0  0  0  0  0  3  0  0  0  0  0  0
  160.3520  206.1130  148.5830 C   0  0  0  0  0  3  0  0  0  0  0  0
  161.0840  205.6430  147.6140 C   0  0  0  0  0  0  0  0  0  0  0  0
  162.8340  205.3990  151.7010 C   0  0  0  0  0  2  0  0  0  0  0  0
  163.2840  206.6360  150.9410 C   0  0  0  0  0  1  0  0  0  0  0  0
  161.8060  211.7090  148.8210 C   0  0  0  0  0  2  0  0  0  0  0  0
  161.9510  214.1610  148.7840 C   0  0  0  0  0  1  0  0  0  0  0  0
  161.0770  212.9820  148.3690 C   0  0  1  0  0  0  0  0  0  0  0  0
  158.2820  213.1900  144.4240 O   0  0  0  0  0  0  0  0  0  0  0  0
  160.9230  212.9520  146.8660 C   0  0  0  0  0  0  0  0  0  0  0  0
  159.3360  212.6840  144.8900 C   0  0  0  0  0  0  0  0  0  0  0  0
  161.9190  213.1770  146.1260 O   0  0  0  0  0  0  0  0  0  0  0  0
  159.6170  212.8320  146.2870 N   0  0  0  0  0  2  0  0  0  0  0  0
  160.1830  211.9750  144.0330 O   0  0  0  0  0  0  0  0  0  0  0  0
  160.8120  211.7430  140.4690 C   0  0  0  0  0  2  0  0  0  0  0  0
  160.5150  211.2870  141.8940 C   0  0  0  0  0  2  0  0  0  0  0  0
  163.4460  214.0120  141.3980 O   0  0  0  0  0  0  0  0  0  0  0  0
  160.5330  212.4450  142.7850 N   0  0  0  0  0  0  0  0  0  0  0  0
  162.0280  212.4850  140.4240 O   0  0  0  0  0  0  0  0  0  0  0  0
  161.9100  212.9400  142.8860 C   0  0  0  0  0  2  0  0  0  0  0  0
  162.4900  213.2040  141.5280 C   0  0  0  0  0  0  0  0  0  0  0  0
  159.7210  213.1040  149.0890 C   0  0  0  0  0  2  0  0  0  0  0  0
  157.7800  212.9090  151.1760 O   0  0  0  0  0  0  0  0  0  0  0  0
  159.8440  213.6970  150.4140 N   0  0  0  0  0  2  0  0  0  0  0  0
  158.8510  213.5260  151.4290 C   0  0  0  0  0  0  0  0  0  0  0  0
  159.0530  214.0360  152.7090 O   0  0  0  0  0  0  0  0  0  0  0  0
  157.9700  214.4530  153.5280 C   0  0  0  0  0  2  0  0  0  0  0  0
  158.0970  213.8140  154.8960 C   0  0  0  0  0  2  0  0  0  0  0  0
  158.6160  212.3970  154.7590 C   0  0  0  0  0  2  0  0  0  0  0  0
  159.9970  212.4150  154.6970 F   0  0  0  0  0  0  0  0  0  0  0  0
  1 28  1  6  0  0  0
  1  5  1  0  0  0  0
  1  4  1  0  0  0  0
  4  2  1  0  0  0  0
  5  3  1  6  0  0  0
  5  2  1  0  0  0  0
  5  6  1  0  0  0  0
  6  8  1  0  0  0  0
  8  9  1  0  0  0  0
  8  7  2  0  0  0  0
  9 11  1  0  0  0  0
 11 10  2  0  0  0  0
 12 26  1  1  0  0  0
 12 11  1  0  0  0  0
 13 14  1  1  0  0  0
 13 15  1  0  0  0  0
 13 16  1  0  0  0  0
 15 14  1  1  0  0  0
 15 16  1  0  0  0  0
 16 12  1  6  0  0  0
 17 18  1  0  0  0  0
 19 22  1  0  0  0  0
 20 21  1  0  0  0  0
 21 23  1  0  0  0  0
 21 25  2  0  0  0  0
 22 18  1  6  0  0  0
 22 13  1  0  0  0  0
 23 17  2  0  0  0  0
 24 19  1  0  0  0  0
 25 24  2  0  0  0  0
 27 26  1  0  0  0  0
 30 29  1  1  0  0  0
 30 28  1  0  0  0  0
 30 44  1  0  0  0  0
 31 33  2  0  0  0  0
 32 30  1  0  0  0  0
 33 35  1  0  0  0  0
 34 32  2  0  0  0  0
 35 32  1  0  0  0  0
 36 33  1  0  0  0  0
 37 38  1  0  0  0  0
 38 40  1  0  0  0  0
 39 43  2  0  0  0  0
 40 42  1  0  0  0  0
 40 36  1  0  0  0  0
 41 37  1  0  0  0  0
 41 43  1  0  0  0  0
 43 42  1  0  0  0  0
 44 46  1  0  0  0  0
 45 47  2  0  0  0  0
 46 47  1  0  0  0  0
 47 48  1  0  0  0  0
 48 49  1  0  0  0  0
 49 50  1  0  0  0  0
 51 50  1  0  0  0  0
 52 51  1  0  0  0  0
M  END
>  <MODEL>
3

>  <REMARK>
 VINA RESULT:      -3.6      1.575      2.310
  Name = 
  19 active torsions:
  status: ('A' for Active; 'I' for Inactive)
    1  A    between atoms: C_1  and  C_41
    2  A    between atoms: C_2  and  C_30
    3  A    between atoms: C_7  and  C_36
    4  A    between atoms: C_16  and  C_40
    5  A    between atoms: C_16  and  O_47
    6  A    between atoms: C_18  and  N_34
    7  A    between atoms: C_18  and  C_36
    8  A    between atoms: C_19  and  O_33
    9  A    between atoms: N_23  and  O_33
   10  A    between atoms: C_26  and  C_37
   11  A    between atoms: C_28  and  C_35
   12  A    between atoms: C_28  and  C_39
   13  A    between atoms: C_29  and  C_40
   14  A    between atoms: O_32  and  C_38
   15  A    between atoms: O_32  and  C_39
   16  A    between atoms: C_36  and  C_41
   17  A    between atoms: C_37  and  C_38
   18  A    between atoms: C_37  and  C_43
   19  A    between atoms: C_44  and  O_47
                            x       y       z     vdW  Elec       q    Type
                         _______ _______ _______ _____ _____    ______ ____

>  <TORSDO>
F 19

$$$$
=
 OpenBabel11072411313D

 52 56  0  0  1  0  0  0  0  0999 V2000
  161.1580  209.1360  151.3570 C   0  0  2  0  0  3  0  0  0  0  0  0
  162.7300  207.9560  151.0430 O   0  0  0  0  0  0  0  0  0  0  0  0
  162.5520  209.5050  149.2070 C   0  0  0  0  0  1  0  0  0  0  0  0
  162.1150  208.4610  152.1200 O   0  0  0  0  0  0  0  0  0  0  0  0
  161.8310  208.5540  150.1610 C   0  0  2  0  0  0  0  0  0  0  0  0
  161.0050  207.4770  149.4560 C   0  0  0  0  0  2  0  0  0  0  0  0
  161.1890  207.7380  147.1070 O   0  0  0  0  0  0  0  0  0  0  0  0
  161.5430  207.0760  148.1200 C   0  0  0  0  0  0  0  0  0  0  0  0
  162.4570  206.0200  148.0140 O   0  0  0  0  0  0  0  0  0  0  0  0
  163.6310  204.9550  146.3600 O   0  0  0  0  0  0  0  0  0  0  0  0
  162.5270  205.1170  146.9440 C   0  0  0  0  0  0  0  0  0  0  0  0
  161.3080  204.3970  146.4330 C   0  0  2  0  0  3  0  0  0  0  0  0
  161.6010  201.8240  146.7800 C   0  0  2  0  0  0  0  0  0  0  0  0
  160.7520  200.8210  146.2710 O   0  0  0  0  0  0  0  0  0  0  0  0
  160.3880  202.1490  145.9810 C   0  0  2  0  0  3  0  0  0  0  0  0
  161.6180  203.0210  145.8280 C   0  0  1  0  0  3  0  0  0  0  0  0
  160.1380  204.1600  149.1720 C   0  0  0  0  0  3  0  0  0  0  0  0
  159.9860  202.8150  148.5120 C   0  0  0  0  0  2  0  0  0  0  0  0
  161.4310  200.8230  149.0610 C   0  0  0  0  0  2  0  0  0  0  0  0
  161.0940  203.7770  152.8640 C   0  0  0  0  0  1  0  0  0  0  0  0
  160.8850  203.3680  151.4510 C   0  0  0  0  0  0  0  0  0  0  0  0
  161.3430  202.1390  148.2650 C   0  0  1  0  0  3  0  0  0  0  0  0
  160.5040  204.3830  150.4480 C   0  0  0  0  0  3  0  0  0  0  0  0
  161.4500  200.9970  150.5550 C   0  0  0  0  0  3  0  0  0  0  0  0
  161.1800  202.1550  151.0850 C   0  0  0  0  0  0  0  0  0  0  0  0
  160.5110  205.2710  145.4640 C   0  0  0  0  0  2  0  0  0  0  0  0
  161.1910  205.4030  144.1110 C   0  0  0  0  0  1  0  0  0  0  0  0
  161.3530  210.6450  151.5400 C   0  0  0  0  0  2  0  0  0  0  0  0
  161.1880  211.7260  153.7390 C   0  0  0  0  0  1  0  0  0  0  0  0
  160.3700  211.2820  152.5310 C   0  0  1  0  0  0  0  0  0  0  0  0
  156.4500  213.9830  151.6590 O   0  0  0  0  0  0  0  0  0  0  0  0
  159.7190  212.4790  151.8760 C   0  0  0  0  0  0  0  0  0  0  0  0
  157.5420  213.5990  151.1670 C   0  0  0  0  0  0  0  0  0  0  0  0
  160.4260  213.4480  151.4890 O   0  0  0  0  0  0  0  0  0  0  0  0
  158.2890  212.5810  151.8440 N   0  0  0  0  0  2  0  0  0  0  0  0
  157.9760  214.1610  149.9620 O   0  0  0  0  0  0  0  0  0  0  0  0
  159.3830  212.7520  146.9300 C   0  0  0  0  0  2  0  0  0  0  0  0
  159.3020  213.5720  148.2140 C   0  0  0  0  0  2  0  0  0  0  0  0
  156.1770  213.8010  145.6750 O   0  0  0  0  0  0  0  0  0  0  0  0
  157.9550  213.4650  148.7720 N   0  0  0  0  0  0  0  0  0  0  0  0
  158.3520  213.1370  146.0250 O   0  0  0  0  0  0  0  0  0  0  0  0
  157.0200  214.1640  147.8840 C   0  0  0  0  0  2  0  0  0  0  0  0
  157.1400  213.6670  146.4740 C   0  0  0  0  0  0  0  0  0  0  0  0
  159.3350  210.2420  152.9990 C   0  0  0  0  0  2  0  0  0  0  0  0
  157.9830  211.2840  155.2900 O   0  0  0  0  0  0  0  0  0  0  0  0
  159.5550  209.8170  154.3750 N   0  0  0  0  0  2  0  0  0  0  0  0
  158.8120  210.3520  155.4740 C   0  0  0  0  0  0  0  0  0  0  0  0
  158.9930  209.8510  156.7610 O   0  0  0  0  0  0  0  0  0  0  0  0
  160.2210  209.2620  157.1690 C   0  0  0  0  0  2  0  0  0  0  0  0
  161.2880  210.3340  157.2600 C   0  0  0  0  0  2  0  0  0  0  0  0
  162.5260  209.8960  156.5050 C   0  0  0  0  0  2  0  0  0  0  0  0
  163.6510  210.1740  157.2610 F   0  0  0  0  0  0  0  0  0  0  0  0
  1 28  1  6  0  0  0
  1  4  1  0  0  0  0
  2  4  1  0  0  0  0
  5  3  1  6  0  0  0
  5  2  1  0  0  0  0
  5  1  1  0  0  0  0
  6  5  1  0  0  0  0
  7  8  2  0  0  0  0
  8  6  1  0  0  0  0
  9  8  1  0  0  0  0
 10 11  2  0  0  0  0
 11  9  1  0  0  0  0
 12 26  1  6  0  0  0
 12 11  1  0  0  0  0
 13 14  1  6  0  0  0
 13 22  1  0  0  0  0
 15 14  1  6  0  0  0
 15 13  1  0  0  0  0
 16 15  1  0  0  0  0
 16 12  1  1  0  0  0
 16 13  1  0  0  0  0
 17 23  2  0  0  0  0
 18 17  1  0  0  0  0
 19 24  1  0  0  0  0
 21 20  1  0  0  0  0
 22 18  1  6  0  0  0
 22 19  1  0  0  0  0
 23 21  1  0  0  0  0
 24 25  2  0  0  0  0
 25 21  2  0  0  0  0
 27 26  1  0  0  0  0
 28 30  1  0  0  0  0
 30 44  1  0  0  0  0
 30 29  1  1  0  0  0
 32 30  1  0  0  0  0
 33 31  2  0  0  0  0
 33 35  1  0  0  0  0
 34 32  2  0  0  0  0
 35 32  1  0  0  0  0
 36 33  1  0  0  0  0
 37 38  1  0  0  0  0
 38 40  1  0  0  0  0
 39 43  2  0  0  0  0
 40 36  1  0  0  0  0
 41 43  1  0  0  0  0
 41 37  1  0  0  0  0
 42 40  1  0  0  0  0
 43 42  1  0  0  0  0
 44 46  1  0  0  0  0
 45 47  2  0  0  0  0
 46 47  1  0  0  0  0
 47 48  1  0  0  0  0
 48 49  1  0  0  0  0
 49 50  1  0  0  0  0
 51 50  1  0  0  0  0
 51 52  1  0  0  0  0
M  END
>  <MODEL>
4

>  <REMARK>
 VINA RESULT:      -3.3      3.719      6.569
  Name = 
  19 active torsions:
  status: ('A' for Active; 'I' for Inactive)
    1  A    between atoms: C_1  and  C_41
    2  A    between atoms: C_2  and  C_30
    3  A    between atoms: C_7  and  C_36
    4  A    between atoms: C_16  and  C_40
    5  A    between atoms: C_16  and  O_47
    6  A    between atoms: C_18  and  N_34
    7  A    between atoms: C_18  and  C_36
    8  A    between atoms: C_19  and  O_33
    9  A    between atoms: N_23  and  O_33
   10  A    between atoms: C_26  and  C_37
   11  A    between atoms: C_28  and  C_35
   12  A    between atoms: C_28  and  C_39
   13  A    between atoms: C_29  and  C_40
   14  A    between atoms: O_32  and  C_38
   15  A    between atoms: O_32  and  C_39
   16  A    between atoms: C_36  and  C_41
   17  A    between atoms: C_37  and  C_38
   18  A    between atoms: C_37  and  C_43
   19  A    between atoms: C_44  and  O_47
                            x       y       z     vdW  Elec       q    Type
                         _______ _______ _______ _____ _____    ______ ____

>  <TORSDO>
F 19

$$$$
=
 OpenBabel11072411313D

 52 56  0  0  1  0  0  0  0  0999 V2000
  159.8910  212.0940  153.9250 C   0  0  2  0  0  3  0  0  0  0  0  0
  158.8080  213.7520  154.1210 O   0  0  0  0  0  0  0  0  0  0  0  0
  157.9180  212.4650  152.2900 C   0  0  0  0  0  1  0  0  0  0  0  0
  159.4810  212.9480  154.9530 O   0  0  0  0  0  0  0  0  0  0  0  0
  159.1590  213.0040  152.9980 C   0  0  2  0  0  0  0  0  0  0  0  0
  160.0800  213.8280  152.0960 C   0  0  0  0  0  2  0  0  0  0  0  0
  160.7890  211.9960  150.7680 O   0  0  0  0  0  0  0  0  0  0  0  0
  160.3720  213.1860  150.7780 C   0  0  0  0  0  0  0  0  0  0  0  0
  160.1370  213.8820  149.5840 O   0  0  0  0  0  0  0  0  0  0  0  0
  162.1830  214.1880  148.6010 O   0  0  0  0  0  0  0  0  0  0  0  0
  160.9750  213.8640  148.4600 C   0  0  0  0  0  0  0  0  0  0  0  0
  160.4510  213.5390  147.0870 C   0  0  2  0  0  3  0  0  0  0  0  0
  158.6520  214.2450  145.3270 C   0  0  2  0  0  0  0  0  0  0  0  0
  157.3840  213.6550  145.1630 O   0  0  0  0  0  0  0  0  0  0  0  0
  158.2030  213.0960  146.1600 C   0  0  2  0  0  3  0  0  0  0  0  0
  159.0770  214.1590  146.7950 C   0  0  1  0  0  3  0  0  0  0  0  0
  159.1740  212.7740  142.0270 C   0  0  0  0  0  3  0  0  0  0  0  0
  159.2590  214.0380  142.8410 C   0  0  0  0  0  2  0  0  0  0  0  0
  161.0280  214.4530  144.5890 C   0  0  0  0  0  2  0  0  0  0  0  0
  162.6680  211.4400  141.1920 C   0  0  0  0  0  1  0  0  0  0  0  0
  161.6430  212.2620  141.8860 C   0  0  0  0  0  0  0  0  0  0  0  0
  159.6840  213.7620  144.2910 C   0  0  1  0  0  3  0  0  0  0  0  0
  160.2110  212.0310  141.6030 C   0  0  0  0  0  3  0  0  0  0  0  0
  162.1990  213.9000  143.8220 C   0  0  0  0  0  3  0  0  0  0  0  0
  162.0050  213.0700  142.8380 C   0  0  0  0  0  0  0  0  0  0  0  0
  160.4520  212.0320  146.8330 C   0  0  0  0  0  2  0  0  0  0  0  0
  161.4910  211.3040  147.6700 C   0  0  0  0  0  1  0  0  0  0  0  0
  159.2400  210.7210  154.1300 C   0  0  0  0  0  2  0  0  0  0  0  0
  159.1680  208.7000  155.5240 C   0  0  0  0  0  1  0  0  0  0  0  0
  160.1110  209.7340  154.9180 C   0  0  1  0  0  0  0  0  0  0  0  0
  162.7190  209.7870  150.8400 O   0  0  0  0  0  0  0  0  0  0  0  0
  161.0750  209.0620  153.9660 C   0  0  0  0  0  0  0  0  0  0  0  0
  162.0920  209.0340  151.6290 C   0  0  0  0  0  0  0  0  0  0  0  0
  161.7890  208.1030  154.3660 O   0  0  0  0  0  0  0  0  0  0  0  0
  161.2940  209.6220  152.6640 N   0  0  0  0  0  2  0  0  0  0  0  0
  162.1770  207.6490  151.4530 O   0  0  0  0  0  0  0  0  0  0  0  0
  160.0690  204.8830  150.4210 C   0  0  0  0  0  2  0  0  0  0  0  0
  161.0700  205.6750  151.2570 C   0  0  0  0  0  2  0  0  0  0  0  0
  161.5670  205.7100  147.2560 O   0  0  0  0  0  0  0  0  0  0  0  0
  161.3310  206.9590  150.6100 N   0  0  0  0  0  0  0  0  0  0  0  0
  160.5220  204.7670  149.0750 O   0  0  0  0  0  0  0  0  0  0  0  0
  162.0700  206.7170  149.3660 C   0  0  0  0  0  2  0  0  0  0  0  0
  161.3550  205.7270  148.4960 C   0  0  0  0  0  0  0  0  0  0  0  0
  160.8400  210.4600  156.0640 C   0  0  0  0  0  2  0  0  0  0  0  0
  163.4020  209.9410  157.2170 O   0  0  0  0  0  0  0  0  0  0  0  0
  162.0950  211.0610  155.6350 N   0  0  0  0  0  2  0  0  0  0  0  0
  163.3520  210.7240  156.2300 C   0  0  0  0  0  0  0  0  0  0  0  0
  164.5370  211.2560  155.7270 O   0  0  0  0  0  0  0  0  0  0  0  0
  165.5400  211.7900  156.5810 C   0  0  0  0  0  2  0  0  0  0  0  0
  166.3310  212.8430  155.8330 C   0  0  0  0  0  2  0  0  0  0  0  0
  167.4550  212.1890  155.0550 C   0  0  0  0  0  2  0  0  0  0  0  0
  168.3460  211.6010  155.9350 F   0  0  0  0  0  0  0  0  0  0  0  0
  1 28  1  1  0  0  0
  1  4  1  0  0  0  0
  2  4  1  0  0  0  0
  5  3  1  6  0  0  0
  5  1  1  0  0  0  0
  5  2  1  0  0  0  0
  6  5  1  0  0  0  0
  7  8  2  0  0  0  0
  8  6  1  0  0  0  0
  9  8  1  0  0  0  0
 11 10  2  0  0  0  0
 11  9  1  0  0  0  0
 12 26  1  1  0  0  0
 12 11  1  0  0  0  0
 13 14  1  6  0  0  0
 13 15  1  0  0  0  0
 13 16  1  0  0  0  0
 15 14  1  1  0  0  0
 15 16  1  0  0  0  0
 16 12  1  6  0  0  0
 17 18  1  0  0  0  0
 20 21  1  0  0  0  0
 21 25  2  0  0  0  0
 22 18  1  6  0  0  0
 22 19  1  0  0  0  0
 22 13  1  0  0  0  0
 23 21  1  0  0  0  0
 23 17  2  0  0  0  0
 24 19  1  0  0  0  0
 25 24  2  0  0  0  0
 26 27  1  0  0  0  0
 28 30  1  0  0  0  0
 30 29  1  1  0  0  0
 30 44  1  0  0  0  0
 31 33  2  0  0  0  0
 32 34  2  0  0  0  0
 32 30  1  0  0  0  0
 33 35  1  0  0  0  0
 35 32  1  0  0  0  0
 36 33  1  0  0  0  0
 37 38  1  0  0  0  0
 39 43  2  0  0  0  0
 40 38  1  0  0  0  0
 40 36  1  0  0  0  0
 41 37  1  0  0  0  0
 42 40  1  0  0  0  0
 43 41  1  0  0  0  0
 43 42  1  0  0  0  0
 46 44  1  0  0  0  0
 46 47  1  0  0  0  0
 47 45  2  0  0  0  0
 48 47  1  0  0  0  0
 48 49  1  0  0  0  0
 50 49  1  0  0  0  0
 51 50  1  0  0  0  0
 51 52  1  0  0  0  0
M  END
>  <MODEL>
5

>  <REMARK>
 VINA RESULT:      -3.0      3.788      9.541
  Name = 
  19 active torsions:
  status: ('A' for Active; 'I' for Inactive)
    1  A    between atoms: C_1  and  C_41
    2  A    between atoms: C_2  and  C_30
    3  A    between atoms: C_7  and  C_36
    4  A    between atoms: C_16  and  C_40
    5  A    between atoms: C_16  and  O_47
    6  A    between atoms: C_18  and  N_34
    7  A    between atoms: C_18  and  C_36
    8  A    between atoms: C_19  and  O_33
    9  A    between atoms: N_23  and  O_33
   10  A    between atoms: C_26  and  C_37
   11  A    between atoms: C_28  and  C_35
   12  A    between atoms: C_28  and  C_39
   13  A    between atoms: C_29  and  C_40
   14  A    between atoms: O_32  and  C_38
   15  A    between atoms: O_32  and  C_39
   16  A    between atoms: C_36  and  C_41
   17  A    between atoms: C_37  and  C_38
   18  A    between atoms: C_37  and  C_43
   19  A    between atoms: C_44  and  O_47
                            x       y       z     vdW  Elec       q    Type
                         _______ _______ _______ _____ _____    ______ ____

>  <TORSDO>
F 19

$$$$
=
 OpenBabel11072411313D

 52 56  0  0  1  0  0  0  0  0999 V2000
  161.7790  211.7170  149.4070 C   0  0  2  0  0  3  0  0  0  0  0  0
  163.0620  210.3110  148.8270 O   0  0  0  0  0  0  0  0  0  0  0  0
  160.9770  209.2560  149.4100 C   0  0  0  0  0  1  0  0  0  0  0  0
  162.8460  211.5940  148.5120 O   0  0  0  0  0  0  0  0  0  0  0  0
  162.0360  210.2950  149.7710 C   0  0  2  0  0  0  0  0  0  0  0  0
  162.6260  210.1190  151.1720 C   0  0  0  0  0  2  0  0  0  0  0  0
  160.5110  210.1630  152.2430 O   0  0  0  0  0  0  0  0  0  0  0  0
  161.6460  209.6180  152.1840 C   0  0  0  0  0  0  0  0  0  0  0  0
  161.9750  208.5350  153.0100 O   0  0  0  0  0  0  0  0  0  0  0  0
  160.4790  207.1110  154.0010 O   0  0  0  0  0  0  0  0  0  0  0  0
  161.2840  207.3150  153.0560 C   0  0  0  0  0  0  0  0  0  0  0  0
  161.5370  206.2240  152.0510 C   0  0  2  0  0  3  0  0  0  0  0  0
  160.7250  203.8280  151.3960 C   0  0  2  0  0  0  0  0  0  0  0  0
  161.4040  202.6250  151.6670 O   0  0  0  0  0  0  0  0  0  0  0  0
  162.0410  203.8050  152.0890 C   0  0  2  0  0  3  0  0  0  0  0  0
  161.0210  204.8500  152.4960 C   0  0  1  0  0  3  0  0  0  0  0  0
  161.7170  202.9330  148.0000 C   0  0  0  0  0  3  0  0  0  0  0  0
  160.5530  203.2510  148.9000 C   0  0  0  0  0  2  0  0  0  0  0  0
  160.0390  205.5700  149.7440 C   0  0  0  0  0  2  0  0  0  0  0  0
  162.3430  205.7760  145.5070 C   0  0  0  0  0  1  0  0  0  0  0  0
  161.7870  205.1030  146.7090 C   0  0  0  0  0  0  0  0  0  0  0  0
  160.9100  204.3170  149.9480 C   0  0  1  0  0  3  0  0  0  0  0  0
  162.2240  203.7310  147.0430 C   0  0  0  0  0  3  0  0  0  0  0  0
  160.2990  206.3110  148.4610 C   0  0  0  0  0  3  0  0  0  0  0  0
  161.0370  205.7750  147.5320 C   0  0  0  0  0  0  0  0  0  0  0  0
  163.0120  206.1670  151.6510 C   0  0  0  0  0  2  0  0  0  0  0  0
  163.2650  206.7780  150.2820 C   0  0  0  0  0  1  0  0  0  0  0  0
  160.4910  211.9590  148.6120 C   0  0  0  0  0  2  0  0  0  0  0  0
  158.7200  213.4820  147.8540 C   0  0  0  0  0  1  0  0  0  0  0  0
  159.8600  213.3350  148.8560 C   0  0  1  0  0  0  0  0  0  0  0  0
  156.1210  213.4720  151.9260 O   0  0  0  0  0  0  0  0  0  0  0  0
  159.3200  213.3850  150.2670 C   0  0  0  0  0  0  0  0  0  0  0  0
  157.3120  213.8460  151.7670 C   0  0  0  0  0  0  0  0  0  0  0  0
  160.0540  213.0430  151.2340 O   0  0  0  0  0  0  0  0  0  0  0  0
  157.9310  213.6630  150.4880 N   0  0  0  0  0  2  0  0  0  0  0  0
  157.9810  214.4490  152.8370 O   0  0  0  0  0  0  0  0  0  0  0  0
  159.1740  213.9550  156.2260 C   0  0  0  0  0  2  0  0  0  0  0  0
  159.1610  214.4320  154.7770 C   0  0  0  0  0  2  0  0  0  0  0  0
  158.1030  210.6030  155.4710 O   0  0  0  0  0  0  0  0  0  0  0  0
  157.9670  213.9190  154.1090 N   0  0  0  0  0  0  0  0  0  0  0  0
  159.0440  212.5370  156.2870 O   0  0  0  0  0  0  0  0  0  0  0  0
  158.0940  212.4640  153.9680 C   0  0  0  0  0  2  0  0  0  0  0  0
  158.3830  211.8170  155.2900 C   0  0  0  0  0  0  0  0  0  0  0  0
  160.8890  214.4500  148.5890 C   0  0  0  0  0  2  0  0  0  0  0  0
  160.1970  214.4530  145.8170 O   0  0  0  0  0  0  0  0  0  0  0  0
  161.7920  214.1240  147.4930 N   0  0  0  0  0  2  0  0  0  0  0  0
  161.3910  214.1860  146.1210 C   0  0  0  0  0  0  0  0  0  0  0  0
  162.3140  213.9530  145.1040 O   0  0  0  0  0  0  0  0  0  0  0  0
  162.0430  213.0510  144.0400 C   0  0  0  0  0  2  0  0  0  0  0  0
  163.0740  213.2370  142.9460 C   0  0  0  0  0  2  0  0  0  0  0  0
  162.4780  214.0360  141.8050 C   0  0  0  0  0  2  0  0  0  0  0  0
  161.6690  213.2160  141.0400 F   0  0  0  0  0  0  0  0  0  0  0  0
  1 28  1  6  0  0  0
  1  5  1  0  0  0  0
  2  5  1  0  0  0  0
  4  2  1  0  0  0  0
  4  1  1  0  0  0  0
  5  3  1  6  0  0  0
  5  6  1  0  0  0  0
  6  8  1  0  0  0  0
  8  7  2  0  0  0  0
  8  9  1  0  0  0  0
  9 11  1  0  0  0  0
 11 10  2  0  0  0  0
 12 26  1  1  0  0  0
 12 11  1  0  0  0  0
 13 14  1  1  0  0  0
 13 15  1  0  0  0  0
 13 16  1  0  0  0  0
 15 14  1  1  0  0  0
 15 16  1  0  0  0  0
 16 12  1  6  0  0  0
 17 18  1  0  0  0  0
 19 22  1  0  0  0  0
 20 21  1  0  0  0  0
 21 23  1  0  0  0  0
 21 25  2  0  0  0  0
 22 18  1  6  0  0  0
 22 13  1  0  0  0  0
 23 17  2  0  0  0  0
 24 19  1  0  0  0  0
 25 24  2  0  0  0  0
 27 26  1  0  0  0  0
 28 30  1  0  0  0  0
 30 29  1  6  0  0  0
 30 32  1  0  0  0  0
 32 35  1  0  0  0  0
 32 34  2  0  0  0  0
 33 31  2  0  0  0  0
 33 36  1  0  0  0  0
 35 33  1  0  0  0  0
 36 40  1  0  0  0  0
 37 41  1  0  0  0  0
 38 37  1  0  0  0  0
 40 38  1  0  0  0  0
 42 40  1  0  0  0  0
 42 43  1  0  0  0  0
 43 39  2  0  0  0  0
 43 41  1  0  0  0  0
 44 30  1  0  0  0  0
 45 47  2  0  0  0  0
 46 44  1  0  0  0  0
 47 46  1  0  0  0  0
 48 47  1  0  0  0  0
 49 48  1  0  0  0  0
 50 49  1  0  0  0  0
 51 50  1  0  0  0  0
 52 51  1  0  0  0  0
M  END
>  <MODEL>
6

>  <REMARK>
 VINA RESULT:      -2.8      2.962      7.346
  Name = 
  19 active torsions:
  status: ('A' for Active; 'I' for Inactive)
    1  A    between atoms: C_1  and  C_41
    2  A    between atoms: C_2  and  C_30
    3  A    between atoms: C_7  and  C_36
    4  A    between atoms: C_16  and  C_40
    5  A    between atoms: C_16  and  O_47
    6  A    between atoms: C_18  and  N_34
    7  A    between atoms: C_18  and  C_36
    8  A    between atoms: C_19  and  O_33
    9  A    between atoms: N_23  and  O_33
   10  A    between atoms: C_26  and  C_37
   11  A    between atoms: C_28  and  C_35
   12  A    between atoms: C_28  and  C_39
   13  A    between atoms: C_29  and  C_40
   14  A    between atoms: O_32  and  C_38
   15  A    between atoms: O_32  and  C_39
   16  A    between atoms: C_36  and  C_41
   17  A    between atoms: C_37  and  C_38
   18  A    between atoms: C_37  and  C_43
   19  A    between atoms: C_44  and  O_47
                            x       y       z     vdW  Elec       q    Type
                         _______ _______ _______ _____ _____    ______ ____

>  <TORSDO>
F 19

$$$$
=
 OpenBabel11072411313D

 52 56  0  0  1  0  0  0  0  0999 V2000
  161.5150  210.5340  150.0330 C   0  0  2  0  0  3  0  0  0  0  0  0
  162.9400  209.7080  151.1500 O   0  0  0  0  0  0  0  0  0  0  0  0
  162.5630  208.3080  149.2270 C   0  0  0  0  0  1  0  0  0  0  0  0
  162.5400  210.9580  150.8840 O   0  0  0  0  0  0  0  0  0  0  0  0
  161.9490  209.1430  150.3490 C   0  0  2  0  0  0  0  0  0  0  0  0
  160.9540  208.3750  151.2200 C   0  0  0  0  0  2  0  0  0  0  0  0
  162.3800  206.5650  151.7800 O   0  0  0  0  0  0  0  0  0  0  0  0
  161.2520  206.9150  151.3390 C   0  0  0  0  0  0  0  0  0  0  0  0
  160.2740  205.9650  151.0130 O   0  0  0  0  0  0  0  0  0  0  0  0
  160.8140  203.9190  151.8890 O   0  0  0  0  0  0  0  0  0  0  0  0
  160.5010  204.5890  150.8710 C   0  0  0  0  0  0  0  0  0  0  0  0
  160.4510  203.9130  149.5270 C   0  0  2  0  0  3  0  0  0  0  0  0
  160.6640  201.6120  148.3050 C   0  0  2  0  0  0  0  0  0  0  0  0
  161.7210  200.6930  148.4560 O   0  0  0  0  0  0  0  0  0  0  0  0
  161.8250  201.8850  149.1950 C   0  0  2  0  0  3  0  0  0  0  0  0
  160.4540  202.3800  149.6120 C   0  0  1  0  0  3  0  0  0  0  0  0
  162.8500  203.6460  146.2060 C   0  0  0  0  0  3  0  0  0  0  0  0
  162.1400  202.3230  146.3290 C   0  0  0  0  0  2  0  0  0  0  0  0
  159.6480  202.0500  146.0670 C   0  0  0  0  0  2  0  0  0  0  0  0
  161.2210  205.8320  143.5120 C   0  0  0  0  0  1  0  0  0  0  0  0
  161.3480  204.7080  144.4750 C   0  0  0  0  0  0  0  0  0  0  0  0
  160.7790  202.4640  147.0270 C   0  0  1  0  0  3  0  0  0  0  0  0
  162.5110  204.6560  145.3850 C   0  0  0  0  0  3  0  0  0  0  0  0
  159.4720  202.9590  144.8810 C   0  0  0  0  0  3  0  0  0  0  0  0
  160.3660  203.8650  144.6100 C   0  0  0  0  0  0  0  0  0  0  0  0
  161.5580  204.4260  148.6050 C   0  0  0  0  0  2  0  0  0  0  0  0
  161.2190  205.7730  147.9870 C   0  0  0  0  0  1  0  0  0  0  0  0
  161.8300  211.0020  148.6070 C   0  0  0  0  0  2  0  0  0  0  0  0
  162.3250  213.3920  148.8770 C   0  0  0  0  0  1  0  0  0  0  0  0
  161.3160  212.4120  148.2890 C   0  0  1  0  0  0  0  0  0  0  0  0
  163.4580  213.3470  144.0510 O   0  0  0  0  0  0  0  0  0  0  0  0
  161.2410  212.5800  146.7890 C   0  0  0  0  0  0  0  0  0  0  0  0
  162.3760  213.4610  144.6830 C   0  0  0  0  0  0  0  0  0  0  0  0
  160.2690  212.0960  146.1480 O   0  0  0  0  0  0  0  0  0  0  0  0
  162.3530  213.1460  146.0810 N   0  0  0  0  0  2  0  0  0  0  0  0
  161.2400  213.9140  144.0050 O   0  0  0  0  0  0  0  0  0  0  0  0
  159.0950  213.3400  141.1370 C   0  0  0  0  0  2  0  0  0  0  0  0
  159.4960  213.6820  142.5690 C   0  0  0  0  0  2  0  0  0  0  0  0
  161.2150  210.4420  140.8930 O   0  0  0  0  0  0  0  0  0  0  0  0
  160.9400  213.5160  142.7190 N   0  0  0  0  0  0  0  0  0  0  0  0
  159.5670  212.0420  140.7820 O   0  0  0  0  0  0  0  0  0  0  0  0
  161.2630  212.0890  142.6270 C   0  0  0  0  0  2  0  0  0  0  0  0
  160.7060  211.4890  141.3700 C   0  0  0  0  0  0  0  0  0  0  0  0
  159.9540  212.6490  148.9680 C   0  0  0  0  0  2  0  0  0  0  0  0
  157.8310  213.0160  150.8440 O   0  0  0  0  0  0  0  0  0  0  0  0
  160.0850  213.2670  150.2810 N   0  0  0  0  0  2  0  0  0  0  0  0
  158.9860  213.3820  151.1900 C   0  0  0  0  0  0  0  0  0  0  0  0
  159.1790  213.8980  152.4690 O   0  0  0  0  0  0  0  0  0  0  0  0
  158.7510  213.2000  153.6300 C   0  0  0  0  0  2  0  0  0  0  0  0
  159.0750  211.7270  153.4810 C   0  0  0  0  0  2  0  0  0  0  0  0
  160.4750  211.4520  153.9900 C   0  0  0  0  0  2  0  0  0  0  0  0
  160.7310  210.0940  153.9290 F   0  0  0  0  0  0  0  0  0  0  0  0
  1 28  1  6  0  0  0
  1  5  1  0  0  0  0
  1  4  1  0  0  0  0
  4  2  1  0  0  0  0
  5  3  1  6  0  0  0
  5  2  1  0  0  0  0
  5  6  1  0  0  0  0
  6  8  1  0  0  0  0
  8  7  2  0  0  0  0
  9  8  1  0  0  0  0
 11  9  1  0  0  0  0
 11 10  2  0  0  0  0
 12 26  1  6  0  0  0
 12 11  1  0  0  0  0
 13 14  1  6  0  0  0
 13 15  1  0  0  0  0
 13 16  1  0  0  0  0
 15 14  1  1  0  0  0
 15 16  1  0  0  0  0
 16 12  1  6  0  0  0
 17 18  1  0  0  0  0
 18 22  1  0  0  0  0
 20 21  1  0  0  0  0
 21 25  2  0  0  0  0
 21 23  1  0  0  0  0
 22 19  1  6  0  0  0
 22 13  1  0  0  0  0
 23 17  2  0  0  0  0
 24 19  1  0  0  0  0
 25 24  2  0  0  0  0
 27 26  1  0  0  0  0
 30 28  1  0  0  0  0
 30 29  1  1  0  0  0
 30 44  1  0  0  0  0
 31 33  2  0  0  0  0
 32 30  1  0  0  0  0
 33 35  1  0  0  0  0
 34 32  2  0  0  0  0
 35 32  1  0  0  0  0
 36 33  1  0  0  0  0
 37 38  1  0  0  0  0
 38 40  1  0  0  0  0
 39 43  2  0  0  0  0
 40 36  1  0  0  0  0
 41 37  1  0  0  0  0
 41 43  1  0  0  0  0
 42 40  1  0  0  0  0
 43 42  1  0  0  0  0
 44 46  1  0  0  0  0
 45 47  2  0  0  0  0
 46 47  1  0  0  0  0
 47 48  1  0  0  0  0
 48 49  1  0  0  0  0
 50 49  1  0  0  0  0
 50 51  1  0  0  0  0
 52 51  1  0  0  0  0
M  END
>  <MODEL>
7

>  <REMARK>
 VINA RESULT:      -2.6      1.905      2.894
  Name = 
  19 active torsions:
  status: ('A' for Active; 'I' for Inactive)
    1  A    between atoms: C_1  and  C_41
    2  A    between atoms: C_2  and  C_30
    3  A    between atoms: C_7  and  C_36
    4  A    between atoms: C_16  and  C_40
    5  A    between atoms: C_16  and  O_47
    6  A    between atoms: C_18  and  N_34
    7  A    between atoms: C_18  and  C_36
    8  A    between atoms: C_19  and  O_33
    9  A    between atoms: N_23  and  O_33
   10  A    between atoms: C_26  and  C_37
   11  A    between atoms: C_28  and  C_35
   12  A    between atoms: C_28  and  C_39
   13  A    between atoms: C_29  and  C_40
   14  A    between atoms: O_32  and  C_38
   15  A    between atoms: O_32  and  C_39
   16  A    between atoms: C_36  and  C_41
   17  A    between atoms: C_37  and  C_38
   18  A    between atoms: C_37  and  C_43
   19  A    between atoms: C_44  and  O_47
                            x       y       z     vdW  Elec       q    Type
                         _______ _______ _______ _____ _____    ______ ____

>  <TORSDO>
F 19

$$$$
=
 OpenBabel11072411313D

 52 56  0  0  1  0  0  0  0  0999 V2000
  161.8890  206.9070  151.2170 C   0  0  2  0  0  3  0  0  0  0  0  0
  162.7110  205.2850  152.0260 O   0  0  0  0  0  0  0  0  0  0  0  0
  160.3410  204.9170  151.8020 C   0  0  0  0  0  1  0  0  0  0  0  0
  163.1060  206.2220  151.1550 O   0  0  0  0  0  0  0  0  0  0  0  0
  161.4600  205.8760  152.2040 C   0  0  2  0  0  0  0  0  0  0  0  0
  161.3380  206.4080  153.6320 C   0  0  0  0  0  2  0  0  0  0  0  0
  160.0590  208.2620  152.8900 O   0  0  0  0  0  0  0  0  0  0  0  0
  160.9170  207.8400  153.7130 C   0  0  0  0  0  0  0  0  0  0  0  0
  161.4320  208.6740  154.7150 O   0  0  0  0  0  0  0  0  0  0  0  0
  161.8730  210.7250  153.7960 O   0  0  0  0  0  0  0  0  0  0  0  0
  161.3370  210.0730  154.7300 C   0  0  0  0  0  0  0  0  0  0  0  0
  160.6790  210.8090  155.8650 C   0  0  2  0  0  3  0  0  0  0  0  0
  159.7420  213.2490  155.8440 C   0  0  2  0  0  0  0  0  0  0  0  0
  159.8410  214.1790  156.8970 O   0  0  0  0  0  0  0  0  0  0  0  0
  160.3960  212.9090  157.1370 C   0  0  2  0  0  3  0  0  0  0  0  0
  160.9570  212.3190  155.8580 C   0  0  1  0  0  3  0  0  0  0  0  0
  156.3790  213.0410  157.2480 C   0  0  0  0  0  3  0  0  0  0  0  0
  157.2000  213.5180  156.0790 C   0  0  0  0  0  2  0  0  0  0  0  0
  158.1970  211.9750  154.3530 C   0  0  0  0  0  2  0  0  0  0  0  0
  154.2110  210.0360  156.2660 C   0  0  0  0  0  1  0  0  0  0  0  0
  155.2960  211.0440  156.1430 C   0  0  0  0  0  0  0  0  0  0  0  0
  158.3640  212.5660  155.7660 C   0  0  1  0  0  3  0  0  0  0  0  0
  155.5450  211.9860  157.2540 C   0  0  0  0  0  3  0  0  0  0  0  0
  157.0120  211.0620  154.1940 C   0  0  0  0  0  3  0  0  0  0  0  0
  156.1070  210.9930  155.1280 C   0  0  0  0  0  0  0  0  0  0  0  0
  161.0290  210.1800  157.2140 C   0  0  0  0  0  2  0  0  0  0  0  0
  162.4580  209.6630  157.2580 C   0  0  0  0  0  1  0  0  0  0  0  0
  161.2020  206.8210  149.8500 C   0  0  0  0  0  2  0  0  0  0  0  0
  163.1010  208.3030  149.3730 C   0  0  0  0  0  1  0  0  0  0  0  0
  161.8000  207.7590  148.7940 C   0  0  1  0  0  0  0  0  0  0  0  0
  160.3070  205.8440  144.6070 O   0  0  0  0  0  0  0  0  0  0  0  0
  162.0820  206.9680  147.5370 C   0  0  0  0  0  0  0  0  0  0  0  0
  161.1080  205.6820  145.5640 C   0  0  0  0  0  0  0  0  0  0  0  0
  163.2690  206.8230  147.1370 O   0  0  0  0  0  0  0  0  0  0  0  0
  160.9920  206.5260  146.7160 N   0  0  0  0  0  2  0  0  0  0  0  0
  162.0660  204.6660  145.4800 O   0  0  0  0  0  0  0  0  0  0  0  0
  160.0740  201.6870  144.9210 C   0  0  0  0  0  2  0  0  0  0  0  0
  160.4630  203.1620  144.9070 C   0  0  0  0  0  2  0  0  0  0  0  0
  161.0430  201.1300  148.3410 O   0  0  0  0  0  0  0  0  0  0  0  0
  161.7400  203.3320  145.5970 N   0  0  0  0  0  0  0  0  0  0  0  0
  160.0810  201.1800  146.2520 O   0  0  0  0  0  0  0  0  0  0  0  0
  161.5430  203.0640  147.0260 C   0  0  0  0  0  2  0  0  0  0  0  0
  160.9040  201.7240  147.2410 C   0  0  0  0  0  0  0  0  0  0  0  0
  160.8500  208.9440  148.5320 C   0  0  0  0  0  2  0  0  0  0  0  0
  161.6390  211.3310  149.8890 O   0  0  0  0  0  0  0  0  0  0  0  0
  161.5290  210.0780  147.9190 N   0  0  0  0  0  2  0  0  0  0  0  0
  161.9340  211.2280  148.6670 C   0  0  0  0  0  0  0  0  0  0  0  0
  162.6600  212.2480  148.0570 O   0  0  0  0  0  0  0  0  0  0  0  0
  162.0190  213.3260  147.3890 C   0  0  0  0  0  2  0  0  0  0  0  0
  162.3030  213.2400  145.9040 C   0  0  0  0  0  2  0  0  0  0  0  0
  161.0040  213.2760  145.1250 C   0  0  0  0  0  2  0  0  0  0  0  0
  160.1650  212.2750  145.5790 F   0  0  0  0  0  0  0  0  0  0  0  0
  1 28  1  6  0  0  0
  1  5  1  0  0  0  0
  2  5  1  0  0  0  0
  4  1  1  0  0  0  0
  4  2  1  0  0  0  0
  5  3  1  6  0  0  0
  5  6  1  0  0  0  0
  6  8  1  0  0  0  0
  7  8  2  0  0  0  0
  8  9  1  0  0  0  0
  9 11  1  0  0  0  0
 10 11  2  0  0  0  0
 11 12  1  0  0  0  0
 12 26  1  1  0  0  0
 13 16  1  0  0  0  0
 13 14  1  6  0  0  0
 13 15  1  0  0  0  0
 15 14  1  6  0  0  0
 16 12  1  1  0  0  0
 16 15  1  0  0  0  0
 17 23  2  0  0  0  0
 18 17  1  0  0  0  0
 21 20  1  0  0  0  0
 21 23  1  0  0  0  0
 22 19  1  6  0  0  0
 22 13  1  0  0  0  0
 22 18  1  0  0  0  0
 24 19  1  0  0  0  0
 24 25  2  0  0  0  0
 25 21  2  0  0  0  0
 26 27  1  0  0  0  0
 30 29  1  1  0  0  0
 30 28  1  0  0  0  0
 31 33  2  0  0  0  0
 32 30  1  0  0  0  0
 33 35  1  0  0  0  0
 34 32  2  0  0  0  0
 35 32  1  0  0  0  0
 36 33  1  0  0  0  0
 36 40  1  0  0  0  0
 37 41  1  0  0  0  0
 38 37  1  0  0  0  0
 38 40  1  0  0  0  0
 40 42  1  0  0  0  0
 41 43  1  0  0  0  0
 42 43  1  0  0  0  0
 43 39  2  0  0  0  0
 44 30  1  0  0  0  0
 46 44  1  0  0  0  0
 46 47  1  0  0  0  0
 47 45  2  0  0  0  0
 48 47  1  0  0  0  0
 49 48  1  0  0  0  0
 50 49  1  0  0  0  0
 51 52  1  0  0  0  0
 51 50  1  0  0  0  0
M  END
>  <MODEL>
8

>  <REMARK>
 VINA RESULT:      -2.4      4.049      8.803
  Name = 
  19 active torsions:
  status: ('A' for Active; 'I' for Inactive)
    1  A    between atoms: C_1  and  C_41
    2  A    between atoms: C_2  and  C_30
    3  A    between atoms: C_7  and  C_36
    4  A    between atoms: C_16  and  C_40
    5  A    between atoms: C_16  and  O_47
    6  A    between atoms: C_18  and  N_34
    7  A    between atoms: C_18  and  C_36
    8  A    between atoms: C_19  and  O_33
    9  A    between atoms: N_23  and  O_33
   10  A    between atoms: C_26  and  C_37
   11  A    between atoms: C_28  and  C_35
   12  A    between atoms: C_28  and  C_39
   13  A    between atoms: C_29  and  C_40
   14  A    between atoms: O_32  and  C_38
   15  A    between atoms: O_32  and  C_39
   16  A    between atoms: C_36  and  C_41
   17  A    between atoms: C_37  and  C_38
   18  A    between atoms: C_37  and  C_43
   19  A    between atoms: C_44  and  O_47
                            x       y       z     vdW  Elec       q    Type
                         _______ _______ _______ _____ _____    ______ ____

>  <TORSDO>
F 19

$$$$
