=
 OpenBabel11072414223D

 26 31  0  0  1  0  0  0  0  0999 V2000
  160.7390  209.0520  155.0020 C   0  0  0  0  0  0  0  0  0  0  0  0
  160.9400  208.0770  153.9920 C   0  0  0  0  0  0  0  0  0  0  0  0
  160.1480  208.6610  156.2170 C   0  0  0  0  0  3  0  0  0  0  0  0
  160.6060  206.7380  154.2550 C   0  0  0  0  0  3  0  0  0  0  0  0
  160.0460  206.3660  155.4770 C   0  0  0  0  0  3  0  0  0  0  0  0
  159.8080  207.3290  156.4550 C   0  0  0  0  0  3  0  0  0  0  0  0
  162.0990  209.6810  152.4040 C   0  0  0  0  0  2  0  0  0  0  0  0
  161.4600  208.4190  152.6940 N   0  0  0  0  0  0  0  0  0  0  0  0
  162.1840  207.8880  149.4140 C   0  0  0  0  0  2  0  0  0  0  0  0
  161.3670  208.6530  150.3500 N   0  0  2  0  0  0  0  0  0  0  0  0
  162.1190  206.4230  149.7980 C   0  0  1  0  0  3  0  0  0  0  0  0
  162.2090  209.7180  150.8950 C   0  0  0  0  0  2  0  0  0  0  0  0
  161.0350  207.7670  151.4680 C   0  0  1  0  0  3  0  0  0  0  0  0
  161.7180  206.4150  151.2500 C   0  0  2  0  0  3  0  0  0  0  0  0
  162.8680  206.2840  152.0340 O   0  0  0  0  0  1  0  0  0  0  0  0
  160.8080  204.2510  149.3080 C   0  0  0  0  0  2  0  0  0  0  0  0
  159.9850  206.3830  148.4430 O   0  0  0  0  0  1  0  0  0  0  0  0
  161.6010  204.5920  148.0500 C   0  0  0  0  0  2  0  0  0  0  0  0
  161.0870  205.6890  148.9480 C   0  0  0  0  0  0  0  0  0  0  0  0
  160.2380  212.3530  155.4410 C   0  0  0  0  0  2  0  0  0  0  0  0
  162.4840  210.9680  155.2730 C   0  0  0  0  0  2  0  0  0  0  0  0
  160.9170  210.7030  157.2040 O   0  0  0  0  0  1  0  0  0  0  0  0
  161.1270  210.5070  154.7820 C   0  0  2  0  0  0  0  0  0  0  0  0
  158.8780  210.9970  154.0310 O   0  0  0  0  0  1  0  0  0  0  0  0
  161.2550  211.3980  156.0390 C   0  0  1  0  0  0  0  0  0  0  0  0
  160.1640  211.5230  154.1770 C   0  0  1  0  0  3  0  0  0  0  0  0
  1  3  1  0  0  0  0
  2  4  1  0  0  0  0
  2  1  2  0  0  0  0
  3  6  2  0  0  0  0
  4  5  2  0  0  0  0
  5  6  1  0  0  0  0
  7  8  1  0  0  0  0
  8  2  1  0  0  0  0
  9 11  1  0  0  0  0
 10  9  1  6  0  0  0
 10 12  1  0  0  0  0
 10 13  1  0  0  0  0
 11 19  1  6  0  0  0
 11 14  1  0  0  0  0
 12  7  1  0  0  0  0
 13  8  1  1  0  0  0
 14 13  1  0  0  0  0
 14 15  1  1  0  0  0
 17 19  1  0  0  0  0
 18 19  1  0  0  0  0
 18 16  1  0  0  0  0
 19 16  1  0  0  0  0
 20 25  1  0  0  0  0
 21 25  1  0  0  0  0
 23  1  1  1  0  0  0
 23 21  1  0  0  0  0
 23 25  1  0  0  0  0
 25 22  1  1  0  0  0
 26 24  1  1  0  0  0
 26 23  1  0  0  0  0
 26 20  1  0  0  0  0
M  END
>  <MODEL>
1

>  <REMARK>
 VINA RESULT:      -7.1      0.000      0.000
  Name = 
  3 active torsions:
  status: ('A' for Active; 'I' for Inactive)
    1  A    between atoms: C_1  and  C_15
    2  A    between atoms: C_4  and  N_8
    3  A    between atoms: C_14  and  C_26
                            x       y       z     vdW  Elec       q    Type
                         _______ _______ _______ _____ _____    ______ ____

>  <TORSDO>
F 3

$$$$
=
 OpenBabel11072414223D

 26 31  0  0  1  0  0  0  0  0999 V2000
  161.2710  204.1810  146.9500 C   0  0  0  0  0  0  0  0  0  0  0  0
  161.4060  204.4540  148.3350 C   0  0  0  0  0  0  0  0  0  0  0  0
  161.0760  202.8520  146.5350 C   0  0  0  0  0  3  0  0  0  0  0  0
  161.2750  203.4020  149.2570 C   0  0  0  0  0  3  0  0  0  0  0  0
  161.0530  202.0950  148.8250 C   0  0  0  0  0  3  0  0  0  0  0  0
  160.9630  201.8170  147.4640 C   0  0  0  0  0  3  0  0  0  0  0  0
  162.1730  206.8480  147.9890 C   0  0  0  0  0  2  0  0  0  0  0  0
  161.6920  205.7760  148.8280 N   0  0  0  0  0  0  0  0  0  0  0  0
  161.9060  208.2190  151.1840 C   0  0  0  0  0  2  0  0  0  0  0  0
  162.6640  207.3430  150.2960 N   0  0  2  0  0  0  0  0  0  0  0  0
  160.8690  207.3880  151.9150 C   0  0  1  0  0  3  0  0  0  0  0  0
  162.6080  207.9280  148.9560 C   0  0  0  0  0  2  0  0  0  0  0  0
  161.9520  206.0650  150.2280 C   0  0  1  0  0  3  0  0  0  0  0  0
  160.6700  206.1660  151.0580 C   0  0  2  0  0  3  0  0  0  0  0  0
  159.5450  206.3590  150.2510 O   0  0  0  0  0  1  0  0  0  0  0  0
  160.3600  207.0310  154.4230 C   0  0  0  0  0  2  0  0  0  0  0  0
  162.3520  206.0170  153.4350 O   0  0  0  0  0  1  0  0  0  0  0  0
  161.4450  208.1020  154.3310 C   0  0  0  0  0  2  0  0  0  0  0  0
  161.3700  207.0010  153.3020 C   0  0  0  0  0  0  0  0  0  0  0  0
  161.9330  205.2920  143.8400 C   0  0  0  0  0  2  0  0  0  0  0  0
  160.0970  206.0620  145.5800 C   0  0  0  0  0  2  0  0  0  0  0  0
  160.0330  203.8000  144.5150 O   0  0  0  0  0  1  0  0  0  0  0  0
  161.3590  205.2940  145.9150 C   0  0  2  0  0  0  0  0  0  0  0  0
  163.6230  204.6210  145.3800 O   0  0  0  0  0  1  0  0  0  0  0  0
  160.6240  205.0650  144.5740 C   0  0  1  0  0  0  0  0  0  0  0  0
  162.6430  205.5880  145.1450 C   0  0  1  0  0  3  0  0  0  0  0  0
  1  2  1  0  0  0  0
  2  8  1  0  0  0  0
  2  4  2  0  0  0  0
  3  1  2  0  0  0  0
  3  6  1  0  0  0  0
  5  4  1  0  0  0  0
  6  5  2  0  0  0  0
  7  8  1  0  0  0  0
  7 12  1  0  0  0  0
 10 12  1  6  0  0  0
 10  9  1  0  0  0  0
 11  9  1  6  0  0  0
 11 19  1  0  0  0  0
 13  8  1  6  0  0  0
 13 10  1  0  0  0  0
 13 14  1  0  0  0  0
 14 15  1  6  0  0  0
 14 11  1  0  0  0  0
 18 16  1  0  0  0  0
 19 17  1  0  0  0  0
 19 18  1  0  0  0  0
 19 16  1  0  0  0  0
 20 25  1  0  0  0  0
 20 26  1  0  0  0  0
 21 23  1  0  0  0  0
 23  1  1  1  0  0  0
 25 22  1  6  0  0  0
 25 21  1  0  0  0  0
 25 23  1  0  0  0  0
 26 24  1  1  0  0  0
 26 23  1  0  0  0  0
M  END
>  <MODEL>
2

>  <REMARK>
 VINA RESULT:      -7.1      2.645      8.234
  Name = 
  3 active torsions:
  status: ('A' for Active; 'I' for Inactive)
    1  A    between atoms: C_1  and  C_15
    2  A    between atoms: C_4  and  N_8
    3  A    between atoms: C_14  and  C_26
                            x       y       z     vdW  Elec       q    Type
                         _______ _______ _______ _____ _____    ______ ____

>  <TORSDO>
F 3

$$$$
=
 OpenBabel11072414223D

 26 31  0  0  1  0  0  0  0  0999 V2000
  161.3510  212.3670  140.7490 C   0  0  0  0  0  0  0  0  0  0  0  0
  159.9510  212.5640  140.8690 C   0  0  0  0  0  0  0  0  0  0  0  0
  162.1280  212.2900  141.9190 C   0  0  0  0  0  3  0  0  0  0  0  0
  159.3710  212.6100  142.1470 C   0  0  0  0  0  3  0  0  0  0  0  0
  160.1570  212.5030  143.2940 C   0  0  0  0  0  3  0  0  0  0  0  0
  161.5370  212.3530  143.1810 C   0  0  0  0  0  3  0  0  0  0  0  0
  159.3450  213.7320  138.6990 C   0  0  0  0  0  2  0  0  0  0  0  0
  159.1040  212.7370  139.7170 N   0  0  0  0  0  0  0  0  0  0  0  0
  156.4700  212.0410  137.6830 C   0  0  0  0  0  2  0  0  0  0  0  0
  157.0450  213.0160  138.6040 N   0  0  2  0  0  0  0  0  0  0  0  0
  156.5370  210.6680  138.3250 C   0  0  1  0  0  3  0  0  0  0  0  0
  158.0770  213.7490  137.8710 C   0  0  0  0  0  2  0  0  0  0  0  0
  157.7300  212.2690  139.6610 C   0  0  1  0  0  3  0  0  0  0  0  0
  157.6280  210.7730  139.3590 C   0  0  2  0  0  3  0  0  0  0  0  0
  158.8150  210.2720  138.8150 O   0  0  0  0  0  1  0  0  0  0  0  0
  155.0800  208.9230  139.5530 C   0  0  0  0  0  2  0  0  0  0  0  0
  154.4890  211.2920  139.6680 O   0  0  0  0  0  1  0  0  0  0  0  0
  154.3490  209.2960  138.2650 C   0  0  0  0  0  2  0  0  0  0  0  0
  155.2060  210.3120  138.9780 C   0  0  0  0  0  0  0  0  0  0  0  0
  164.0840  212.0970  138.8010 C   0  0  0  0  0  2  0  0  0  0  0  0
  161.6570  211.0930  138.4970 C   0  0  0  0  0  2  0  0  0  0  0  0
  163.1720  210.3370  140.3380 O   0  0  0  0  0  1  0  0  0  0  0  0
  162.0190  212.2650  139.3860 C   0  0  2  0  0  0  0  0  0  0  0  0
  163.5010  214.0880  139.9720 O   0  0  0  0  0  1  0  0  0  0  0  0
  163.0070  211.0940  139.1740 C   0  0  1  0  0  0  0  0  0  0  0  0
  163.1010  213.2410  138.9350 C   0  0  1  0  0  3  0  0  0  0  0  0
  1  2  2  0  0  0  0
  1  3  1  0  0  0  0
  2  4  1  0  0  0  0
  3  6  2  0  0  0  0
  4  5  2  0  0  0  0
  6  5  1  0  0  0  0
  7  8  1  0  0  0  0
  8  2  1  0  0  0  0
 10  9  1  6  0  0  0
 10 13  1  0  0  0  0
 11  9  1  1  0  0  0
 11 19  1  0  0  0  0
 11 14  1  0  0  0  0
 12 10  1  0  0  0  0
 12  7  1  0  0  0  0
 13  8  1  6  0  0  0
 14 15  1  6  0  0  0
 14 13  1  0  0  0  0
 18 19  1  0  0  0  0
 18 16  1  0  0  0  0
 19 16  1  0  0  0  0
 19 17  1  0  0  0  0
 20 26  1  0  0  0  0
 20 25  1  0  0  0  0
 21 25  1  0  0  0  0
 21 23  1  0  0  0  0
 23  1  1  1  0  0  0
 25 23  1  0  0  0  0
 25 22  1  1  0  0  0
 26 23  1  0  0  0  0
 26 24  1  1  0  0  0
M  END
>  <MODEL>
3

>  <REMARK>
 VINA RESULT:      -5.6     11.677     14.385
  Name = 
  3 active torsions:
  status: ('A' for Active; 'I' for Inactive)
    1  A    between atoms: C_1  and  C_15
    2  A    between atoms: C_4  and  N_8
    3  A    between atoms: C_14  and  C_26
                            x       y       z     vdW  Elec       q    Type
                         _______ _______ _______ _____ _____    ______ ____

>  <TORSDO>
F 3

$$$$
=
 OpenBabel11072414223D

 26 31  0  0  1  0  0  0  0  0999 V2000
  159.8320  210.3590  138.6010 C   0  0  0  0  0  0  0  0  0  0  0  0
  159.6720  211.6840  139.0810 C   0  0  0  0  0  0  0  0  0  0  0  0
  158.6850  209.5870  138.3430 C   0  0  0  0  0  3  0  0  0  0  0  0
  158.3780  212.2120  139.2200 C   0  0  0  0  0  3  0  0  0  0  0  0
  157.2540  211.4380  138.9320 C   0  0  0  0  0  3  0  0  0  0  0  0
  157.4070  210.1220  138.5030 C   0  0  0  0  0  3  0  0  0  0  0  0
  161.7350  213.0370  138.4860 C   0  0  0  0  0  2  0  0  0  0  0  0
  160.7990  212.5040  139.4460 N   0  0  0  0  0  0  0  0  0  0  0  0
  162.8340  214.1830  141.5910 C   0  0  0  0  0  2  0  0  0  0  0  0
  162.7320  213.0470  140.6810 N   0  0  2  0  0  0  0  0  0  0  0  0
  161.6150  214.1940  142.4930 C   0  0  1  0  0  3  0  0  0  0  0  0
  162.8830  213.5630  139.3210 C   0  0  0  0  0  2  0  0  0  0  0  0
  161.3670  212.5250  140.7830 C   0  0  1  0  0  3  0  0  0  0  0  0
  160.5700  213.4030  141.7490 C   0  0  2  0  0  3  0  0  0  0  0  0
  159.7320  214.2920  141.0700 O   0  0  0  0  0  1  0  0  0  0  0  0
  162.5850  214.4150  144.8780 C   0  0  0  0  0  2  0  0  0  0  0  0
  161.0780  212.5650  144.3500 O   0  0  0  0  0  1  0  0  0  0  0  0
  163.3900  213.3340  144.1620 C   0  0  0  0  0  2  0  0  0  0  0  0
  161.9320  213.5420  143.8350 C   0  0  0  0  0  0  0  0  0  0  0  0
  161.9630  207.7510  138.6040 C   0  0  0  0  0  2  0  0  0  0  0  0
  161.8340  209.8580  137.0110 C   0  0  0  0  0  2  0  0  0  0  0  0
  160.0480  208.1070  137.0230 O   0  0  0  0  0  1  0  0  0  0  0  0
  161.2150  209.7580  138.3890 C   0  0  2  0  0  0  0  0  0  0  0  0
  161.1210  208.7570  140.5920 O   0  0  0  0  0  1  0  0  0  0  0  0
  161.3070  208.5180  137.4700 C   0  0  1  0  0  0  0  0  0  0  0  0
  161.9410  208.9830  139.4840 C   0  0  1  0  0  3  0  0  0  0  0  0
  1  2  1  0  0  0  0
  2  4  2  0  0  0  0
  2  8  1  0  0  0  0
  3  6  1  0  0  0  0
  3  1  2  0  0  0  0
  5  4  1  0  0  0  0
  6  5  2  0  0  0  0
  7 12  1  0  0  0  0
  7  8  1  0  0  0  0
 10 12  1  6  0  0  0
 10 13  1  0  0  0  0
 10  9  1  0  0  0  0
 11  9  1  6  0  0  0
 11 19  1  0  0  0  0
 13  8  1  6  0  0  0
 13 14  1  0  0  0  0
 14 15  1  6  0  0  0
 14 11  1  0  0  0  0
 18 16  1  0  0  0  0
 19 18  1  0  0  0  0
 19 17  1  0  0  0  0
 19 16  1  0  0  0  0
 20 26  1  0  0  0  0
 21 25  1  0  0  0  0
 21 23  1  0  0  0  0
 23  1  1  1  0  0  0
 23 26  1  0  0  0  0
 25 22  1  6  0  0  0
 25 23  1  0  0  0  0
 25 20  1  0  0  0  0
 26 24  1  1  0  0  0
M  END
>  <MODEL>
4

>  <REMARK>
 VINA RESULT:      -5.6     10.778     14.604
  Name = 
  3 active torsions:
  status: ('A' for Active; 'I' for Inactive)
    1  A    between atoms: C_1  and  C_15
    2  A    between atoms: C_4  and  N_8
    3  A    between atoms: C_14  and  C_26
                            x       y       z     vdW  Elec       q    Type
                         _______ _______ _______ _____ _____    ______ ____

>  <TORSDO>
F 3

$$$$
=
 OpenBabel11072414223D

 26 31  0  0  1  0  0  0  0  0999 V2000
  159.9670  209.9780  154.6510 C   0  0  0  0  0  0  0  0  0  0  0  0
  159.9850  210.2400  153.2570 C   0  0  0  0  0  0  0  0  0  0  0  0
  158.9510  210.5520  155.4370 C   0  0  0  0  0  3  0  0  0  0  0  0
  158.9540  211.0070  152.6900 C   0  0  0  0  0  3  0  0  0  0  0  0
  157.9400  211.5440  153.4830 C   0  0  0  0  0  3  0  0  0  0  0  0
  157.9440  211.3250  154.8590 C   0  0  0  0  0  3  0  0  0  0  0  0
  162.2430  210.5050  152.1300 C   0  0  0  0  0  2  0  0  0  0  0  0
  161.0390  209.7560  152.4040 N   0  0  0  0  0  0  0  0  0  0  0  0
  162.5820  207.5210  150.3580 C   0  0  0  0  0  2  0  0  0  0  0  0
  161.9300  208.8250  150.4300 N   0  0  2  0  0  0  0  0  0  0  0  0
  161.7130  206.5030  151.0720 C   0  0  1  0  0  3  0  0  0  0  0  0
  162.9030  209.7670  150.9850 C   0  0  0  0  0  2  0  0  0  0  0  0
  160.8440  208.7180  151.4070 C   0  0  1  0  0  3  0  0  0  0  0  0
  160.8530  207.3120  152.0090 C   0  0  2  0  0  3  0  0  0  0  0  0
  161.4350  207.2970  153.2800 O   0  0  0  0  0  1  0  0  0  0  0  0
  161.5310  205.2640  148.8120 C   0  0  0  0  0  2  0  0  0  0  0  0
  159.8400  204.8920  150.5380 O   0  0  0  0  0  1  0  0  0  0  0  0
  160.5420  206.4270  148.7700 C   0  0  0  0  0  2  0  0  0  0  0  0
  160.8520  205.7360  150.0750 C   0  0  0  0  0  0  0  0  0  0  0  0
  162.0790  209.2830  157.1800 C   0  0  0  0  0  2  0  0  0  0  0  0
  160.7020  207.6670  155.6040 C   0  0  0  0  0  2  0  0  0  0  0  0
  159.5740  209.1660  157.2570 O   0  0  0  0  0  1  0  0  0  0  0  0
  161.0360  209.1140  155.3050 C   0  0  2  0  0  0  0  0  0  0  0  0
  162.4160  211.0740  155.6460 O   0  0  0  0  0  1  0  0  0  0  0  0
  160.7690  208.6450  156.7540 C   0  0  1  0  0  0  0  0  0  0  0  0
  162.3790  209.6820  155.7500 C   0  0  1  0  0  3  0  0  0  0  0  0
  1  3  1  0  0  0  0
  2  1  2  0  0  0  0
  4  2  1  0  0  0  0
  4  5  2  0  0  0  0
  5  6  1  0  0  0  0
  6  3  2  0  0  0  0
  7  8  1  0  0  0  0
  8  2  1  0  0  0  0
  9 11  1  0  0  0  0
 10  9  1  1  0  0  0
 10 12  1  0  0  0  0
 10 13  1  0  0  0  0
 11 19  1  6  0  0  0
 11 14  1  0  0  0  0
 12  7  1  0  0  0  0
 13 14  1  0  0  0  0
 13  8  1  1  0  0  0
 14 15  1  1  0  0  0
 16 19  1  0  0  0  0
 18 16  1  0  0  0  0
 18 19  1  0  0  0  0
 19 17  1  0  0  0  0
 21 25  1  0  0  0  0
 23  1  1  6  0  0  0
 23 21  1  0  0  0  0
 23 26  1  0  0  0  0
 23 25  1  0  0  0  0
 25 20  1  0  0  0  0
 25 22  1  1  0  0  0
 26 24  1  1  0  0  0
 26 20  1  0  0  0  0
M  END
>  <MODEL>
5

>  <REMARK>
 VINA RESULT:      -5.5      1.587      2.729
  Name = 
  3 active torsions:
  status: ('A' for Active; 'I' for Inactive)
    1  A    between atoms: C_1  and  C_15
    2  A    between atoms: C_4  and  N_8
    3  A    between atoms: C_14  and  C_26
                            x       y       z     vdW  Elec       q    Type
                         _______ _______ _______ _____ _____    ______ ____

>  <TORSDO>
F 3

$$$$
=
 OpenBabel11072414223D

 26 31  0  0  1  0  0  0  0  0999 V2000
  160.3010  211.1580  139.7080 C   0  0  0  0  0  0  0  0  0  0  0  0
  159.1350  211.9380  139.9160 C   0  0  0  0  0  0  0  0  0  0  0  0
  161.2720  211.1030  140.7240 C   0  0  0  0  0  3  0  0  0  0  0  0
  158.9500  212.5780  141.1520 C   0  0  0  0  0  3  0  0  0  0  0  0
  159.9130  212.4880  142.1570 C   0  0  0  0  0  3  0  0  0  0  0  0
  161.0790  211.7580  141.9400 C   0  0  0  0  0  3  0  0  0  0  0  0
  158.4050  212.7560  137.6270 C   0  0  0  0  0  2  0  0  0  0  0  0
  158.1390  212.1090  138.8900 N   0  0  0  0  0  0  0  0  0  0  0  0
  155.0510  211.8120  137.4990 C   0  0  0  0  0  2  0  0  0  0  0  0
  156.0310  212.7440  138.0460 N   0  0  2  0  0  0  0  0  0  0  0  0
  154.9030  210.6450  138.4560 C   0  0  1  0  0  3  0  0  0  0  0  0
  157.0390  212.9730  137.0110 C   0  0  0  0  0  2  0  0  0  0  0  0
  156.7100  212.0650  139.1520 C   0  0  1  0  0  3  0  0  0  0  0  0
  156.1750  210.6360  139.2630 C   0  0  2  0  0  3  0  0  0  0  0  0
  157.0570  209.7080  138.7030 O   0  0  0  0  0  1  0  0  0  0  0  0
  153.0960  209.5980  139.9780 C   0  0  0  0  0  2  0  0  0  0  0  0
  153.5940  211.9850  140.1530 O   0  0  0  0  0  1  0  0  0  0  0  0
  152.3690  210.3220  138.8470 C   0  0  0  0  0  2  0  0  0  0  0  0
  153.6900  210.8400  139.3590 C   0  0  0  0  0  0  0  0  0  0  0  0
  162.3180  209.7740  137.3930 C   0  0  0  0  0  2  0  0  0  0  0  0
  159.9390  209.0180  138.2660 C   0  0  0  0  0  2  0  0  0  0  0  0
  161.9610  208.9550  139.7380 O   0  0  0  0  0  1  0  0  0  0  0  0
  160.5250  210.4080  138.4020 C   0  0  2  0  0  0  0  0  0  0  0  0
  162.0690  212.1260  137.6770 O   0  0  0  0  0  1  0  0  0  0  0  0
  161.4310  209.1560  138.4590 C   0  0  1  0  0  0  0  0  0  0  0  0
  161.3940  210.9690  137.2810 C   0  0  1  0  0  3  0  0  0  0  0  0
  1  2  2  0  0  0  0
  1  3  1  0  0  0  0
  2  4  1  0  0  0  0
  3  6  2  0  0  0  0
  4  5  2  0  0  0  0
  6  5  1  0  0  0  0
  7  8  1  0  0  0  0
  8  2  1  0  0  0  0
  9 10  1  0  0  0  0
 10 12  1  6  0  0  0
 10 13  1  0  0  0  0
 11  9  1  6  0  0  0
 11 14  1  0  0  0  0
 11 19  1  0  0  0  0
 12  7  1  0  0  0  0
 13  8  1  6  0  0  0
 13 14  1  0  0  0  0
 14 15  1  6  0  0  0
 18 19  1  0  0  0  0
 18 16  1  0  0  0  0
 19 16  1  0  0  0  0
 19 17  1  0  0  0  0
 20 25  1  0  0  0  0
 21 23  1  0  0  0  0
 21 25  1  0  0  0  0
 23 25  1  0  0  0  0
 23  1  1  1  0  0  0
 25 22  1  1  0  0  0
 26 20  1  0  0  0  0
 26 24  1  1  0  0  0
 26 23  1  0  0  0  0
M  END
>  <MODEL>
6

>  <REMARK>
 VINA RESULT:      -5.5     12.476     15.240
  Name = 
  3 active torsions:
  status: ('A' for Active; 'I' for Inactive)
    1  A    between atoms: C_1  and  C_15
    2  A    between atoms: C_4  and  N_8
    3  A    between atoms: C_14  and  C_26
                            x       y       z     vdW  Elec       q    Type
                         _______ _______ _______ _____ _____    ______ ____

>  <TORSDO>
F 3

$$$$
=
 OpenBabel11072414223D

 26 31  0  0  1  0  0  0  0  0999 V2000
  161.0230  209.9470  155.7530 C   0  0  0  0  0  0  0  0  0  0  0  0
  160.4180  211.1700  156.1420 C   0  0  0  0  0  0  0  0  0  0  0  0
  162.3700  209.7200  156.0860 C   0  0  0  0  0  3  0  0  0  0  0  0
  161.1570  212.0890  156.9040 C   0  0  0  0  0  3  0  0  0  0  0  0
  162.4840  211.8310  157.2480 C   0  0  0  0  0  3  0  0  0  0  0  0
  163.0940  210.6510  156.8300 C   0  0  0  0  0  3  0  0  0  0  0  0
  157.9090  211.0870  156.5110 C   0  0  0  0  0  2  0  0  0  0  0  0
  159.0700  211.5080  155.7640 N   0  0  0  0  0  0  0  0  0  0  0  0
  156.6700  212.9620  153.8440 C   0  0  0  0  0  2  0  0  0  0  0  0
  157.2550  211.6950  154.2720 N   0  0  2  0  0  0  0  0  0  0  0  0
  157.7880  213.8990  153.4300 C   0  0  1  0  0  3  0  0  0  0  0  0
  156.7360  211.4050  155.6080 C   0  0  0  0  0  2  0  0  0  0  0  0
  158.6970  211.9060  154.4180 C   0  0  1  0  0  3  0  0  0  0  0  0
  159.0170  213.3740  154.1270 C   0  0  2  0  0  3  0  0  0  0  0  0
  159.2140  214.1040  155.3020 O   0  0  0  0  0  1  0  0  0  0  0  0
  159.0280  212.9440  151.3730 C   0  0  0  0  0  2  0  0  0  0  0  0
  156.8710  214.0550  151.0800 O   0  0  0  0  0  1  0  0  0  0  0  0
  159.2630  214.4530  151.3820 C   0  0  0  0  0  2  0  0  0  0  0  0
  157.9750  213.8780  151.9170 C   0  0  0  0  0  0  0  0  0  0  0  0
  160.8910  207.2480  153.7430 C   0  0  0  0  0  2  0  0  0  0  0  0
  159.3020  207.9910  155.7220 C   0  0  0  0  0  2  0  0  0  0  0  0
  161.6690  207.2920  156.1280 O   0  0  0  0  0  1  0  0  0  0  0  0
  160.2490  208.8990  154.9660 C   0  0  2  0  0  0  0  0  0  0  0  0
  161.5590  209.4090  152.9940 O   0  0  0  0  0  1  0  0  0  0  0  0
  160.6090  207.4180  155.2250 C   0  0  1  0  0  0  0  0  0  0  0  0
  160.4690  208.6770  153.4730 C   0  0  1  0  0  3  0  0  0  0  0  0
  1  3  2  0  0  0  0
  1  2  1  0  0  0  0
  2  4  2  0  0  0  0
  3  6  1  0  0  0  0
  4  5  1  0  0  0  0
  6  5  2  0  0  0  0
  8  2  1  0  0  0  0
  8  7  1  0  0  0  0
 10  9  1  1  0  0  0
 10 13  1  0  0  0  0
 10 12  1  0  0  0  0
 11 19  1  6  0  0  0
 11  9  1  0  0  0  0
 11 14  1  0  0  0  0
 12  7  1  0  0  0  0
 13  8  1  1  0  0  0
 14 13  1  0  0  0  0
 14 15  1  1  0  0  0
 16 18  1  0  0  0  0
 16 19  1  0  0  0  0
 17 19  1  0  0  0  0
 18 19  1  0  0  0  0
 20 25  1  0  0  0  0
 23 25  1  0  0  0  0
 23 21  1  0  0  0  0
 23  1  1  1  0  0  0
 25 21  1  0  0  0  0
 25 22  1  1  0  0  0
 26 24  1  1  0  0  0
 26 20  1  0  0  0  0
 26 23  1  0  0  0  0
M  END
>  <MODEL>
7

>  <REMARK>
 VINA RESULT:      -5.4      3.451      6.445
  Name = 
  3 active torsions:
  status: ('A' for Active; 'I' for Inactive)
    1  A    between atoms: C_1  and  C_15
    2  A    between atoms: C_4  and  N_8
    3  A    between atoms: C_14  and  C_26
                            x       y       z     vdW  Elec       q    Type
                         _______ _______ _______ _____ _____    ______ ____

>  <TORSDO>
F 3

$$$$
=
 OpenBabel11072414223D

 26 31  0  0  1  0  0  0  0  0999 V2000
  161.5830  209.4930  151.3490 C   0  0  0  0  0  0  0  0  0  0  0  0
  161.7240  208.2720  150.6400 C   0  0  0  0  0  0  0  0  0  0  0  0
  161.8690  210.7000  150.6860 C   0  0  0  0  0  3  0  0  0  0  0  0
  162.0790  208.3050  149.2820 C   0  0  0  0  0  3  0  0  0  0  0  0
  162.3320  209.5160  148.6360 C   0  0  0  0  0  3  0  0  0  0  0  0
  162.2360  210.7130  149.3410 C   0  0  0  0  0  3  0  0  0  0  0  0
  161.5060  206.8180  152.7080 C   0  0  0  0  0  2  0  0  0  0  0  0
  161.5310  206.9950  151.2750 N   0  0  0  0  0  0  0  0  0  0  0  0
  160.9990  203.6380  151.3710 C   0  0  0  0  0  2  0  0  0  0  0  0
  161.9570  204.7050  151.6390 N   0  0  2  0  0  0  0  0  0  0  0  0
  160.4110  203.8490  149.9890 C   0  0  1  0  0  3  0  0  0  0  0  0
  161.5790  205.3200  152.9110 C   0  0  0  0  0  2  0  0  0  0  0  0
  161.7730  205.7280  150.6070 C   0  0  1  0  0  3  0  0  0  0  0  0
  160.6190  205.3110  149.6940 C   0  0  2  0  0  3  0  0  0  0  0  0
  159.4430  206.0040  149.9980 O   0  0  0  0  0  1  0  0  0  0  0  0
  160.3970  201.7560  148.4730 C   0  0  0  0  0  2  0  0  0  0  0  0
  161.9560  203.5800  148.0060 O   0  0  0  0  0  1  0  0  0  0  0  0
  161.5880  201.6200  149.4180 C   0  0  0  0  0  2  0  0  0  0  0  0
  161.1300  202.9820  148.9600 C   0  0  0  0  0  0  0  0  0  0  0  0
  161.1900  211.0620  154.3020 C   0  0  0  0  0  2  0  0  0  0  0  0
  159.7080  209.2100  153.1350 C   0  0  0  0  0  2  0  0  0  0  0  0
  159.9110  211.5180  152.1930 O   0  0  0  0  0  1  0  0  0  0  0  0
  161.1560  209.5120  152.8100 C   0  0  2  0  0  0  0  0  0  0  0  0
  163.3130  210.4190  153.4320 O   0  0  0  0  0  1  0  0  0  0  0  0
  160.1890  210.6380  153.2430 C   0  0  1  0  0  0  0  0  0  0  0  0
  162.1080  209.9160  153.9300 C   0  0  1  0  0  3  0  0  0  0  0  0
  2  8  1  0  0  0  0
  2  1  2  0  0  0  0
  3  1  1  0  0  0  0
  4  2  1  0  0  0  0
  5  4  2  0  0  0  0
  5  6  1  0  0  0  0
  6  3  2  0  0  0  0
  7 12  1  0  0  0  0
  8  7  1  0  0  0  0
 10  9  1  6  0  0  0
 10 12  1  0  0  0  0
 11 19  1  6  0  0  0
 11  9  1  0  0  0  0
 13  8  1  1  0  0  0
 13 10  1  0  0  0  0
 14 11  1  0  0  0  0
 14 15  1  1  0  0  0
 14 13  1  0  0  0  0
 16 19  1  0  0  0  0
 16 18  1  0  0  0  0
 17 19  1  0  0  0  0
 19 18  1  0  0  0  0
 21 25  1  0  0  0  0
 23  1  1  6  0  0  0
 23 21  1  0  0  0  0
 23 25  1  0  0  0  0
 23 26  1  0  0  0  0
 25 22  1  6  0  0  0
 25 20  1  0  0  0  0
 26 24  1  6  0  0  0
 26 20  1  0  0  0  0
M  END
>  <MODEL>
8

>  <REMARK>
 VINA RESULT:      -5.3      2.136      4.209
  Name = 
  3 active torsions:
  status: ('A' for Active; 'I' for Inactive)
    1  A    between atoms: C_1  and  C_15
    2  A    between atoms: C_4  and  N_8
    3  A    between atoms: C_14  and  C_26
                            x       y       z     vdW  Elec       q    Type
                         _______ _______ _______ _____ _____    ______ ____

>  <TORSDO>
F 3

$$$$
=
 OpenBabel11072414223D

 26 31  0  0  1  0  0  0  0  0999 V2000
  161.1940  205.7630  150.6880 C   0  0  0  0  0  0  0  0  0  0  0  0
  161.1280  206.3020  151.9990 C   0  0  0  0  0  0  0  0  0  0  0  0
  161.3140  204.3710  150.5320 C   0  0  0  0  0  3  0  0  0  0  0  0
  161.1150  205.4290  153.0990 C   0  0  0  0  0  3  0  0  0  0  0  0
  161.2060  204.0490  152.9200 C   0  0  0  0  0  3  0  0  0  0  0  0
  161.3150  203.5200  151.6370 C   0  0  0  0  0  3  0  0  0  0  0  0
  160.8310  208.6940  151.2040 C   0  0  0  0  0  2  0  0  0  0  0  0
  161.0900  207.7210  152.2390 N   0  0  0  0  0  0  0  0  0  0  0  0
  161.2680  210.5440  154.1270 C   0  0  0  0  0  2  0  0  0  0  0  0
  161.9120  209.7680  153.0720 N   0  0  2  0  0  0  0  0  0  0  0  0
  160.9230  209.6120  155.2730 C   0  0  1  0  0  3  0  0  0  0  0  0
  161.1780  210.0260  151.8330 C   0  0  0  0  0  2  0  0  0  0  0  0
  161.7160  208.3510  153.3890 C   0  0  1  0  0  3  0  0  0  0  0  0
  160.8700  208.2380  154.6580 C   0  0  2  0  0  3  0  0  0  0  0  0
  159.5390  207.9250  154.3670 O   0  0  0  0  0  1  0  0  0  0  0  0
  161.9950  210.9080  157.2350 C   0  0  0  0  0  2  0  0  0  0  0  0
  162.3940  208.5070  157.0060 O   0  0  0  0  0  1  0  0  0  0  0  0
  163.0810  210.7030  156.1820 C   0  0  0  0  0  2  0  0  0  0  0  0
  161.9890  209.6780  156.3610 C   0  0  0  0  0  0  0  0  0  0  0  0
  162.4840  206.8430  147.7710 C   0  0  0  0  0  2  0  0  0  0  0  0
  159.9680  206.5780  148.5390 C   0  0  0  0  0  2  0  0  0  0  0  0
  161.4550  204.5960  148.2030 O   0  0  0  0  0  1  0  0  0  0  0  0
  161.1650  206.6650  149.4630 C   0  0  2  0  0  0  0  0  0  0  0  0
  163.4540  207.3280  149.8920 O   0  0  0  0  0  1  0  0  0  0  0  0
  161.2770  205.9770  148.0830 C   0  0  1  0  0  0  0  0  0  0  0  0
  162.3350  207.5700  149.0910 C   0  0  1  0  0  3  0  0  0  0  0  0
  1  2  1  0  0  0  0
  2  8  1  0  0  0  0
  2  4  2  0  0  0  0
  3  1  2  0  0  0  0
  3  6  1  0  0  0  0
  5  4  1  0  0  0  0
  6  5  2  0  0  0  0
  7 12  1  0  0  0  0
  7  8  1  0  0  0  0
 10 12  1  6  0  0  0
 10 13  1  0  0  0  0
 10  9  1  0  0  0  0
 11  9  1  6  0  0  0
 11 19  1  0  0  0  0
 13  8  1  6  0  0  0
 13 14  1  0  0  0  0
 14 15  1  6  0  0  0
 14 11  1  0  0  0  0
 18 19  1  0  0  0  0
 18 16  1  0  0  0  0
 19 17  1  0  0  0  0
 19 16  1  0  0  0  0
 20 25  1  0  0  0  0
 20 26  1  0  0  0  0
 21 23  1  0  0  0  0
 23  1  1  1  0  0  0
 25 22  1  6  0  0  0
 25 21  1  0  0  0  0
 25 23  1  0  0  0  0
 26 23  1  0  0  0  0
 26 24  1  1  0  0  0
M  END
>  <MODEL>
9

>  <REMARK>
 VINA RESULT:      -5.3      1.675      6.677
  Name = 
  3 active torsions:
  status: ('A' for Active; 'I' for Inactive)
    1  A    between atoms: C_1  and  C_15
    2  A    between atoms: C_4  and  N_8
    3  A    between atoms: C_14  and  C_26
                            x       y       z     vdW  Elec       q    Type
                         _______ _______ _______ _____ _____    ______ ____

>  <TORSDO>
F 3

$$$$
