=
 OpenBabel11072412593D

 48 52  0  0  1  0  0  0  0  0999 V2000
  161.0480  208.5070  155.1950 C   0  0  0  0  0  0  0  0  0  0  0  0
  162.7810  208.6980  149.4850 S   0  0  0  0  0  0  0  0  0  0  0  0
  162.4280  210.4270  152.2280 C   0  0  0  0  0  2  0  0  0  0  0  0
  161.4630  211.0960  150.0130 C   0  0  0  0  0  2  0  0  0  0  0  0
  161.1020  207.8300  153.0750 C   0  0  0  0  0  0  0  0  0  0  0  0
  161.3840  207.6540  151.6580 N   0  0  0  0  0  0  0  0  0  0  0  0
  161.3600  208.9260  153.9070 C   0  0  0  0  0  0  0  0  0  0  0  0
  161.4130  208.7620  150.6740 C   0  0  1  0  0  3  0  0  0  0  0  0
  161.3200  210.1800  151.2140 C   0  0  1  0  0  3  0  0  0  0  0  0
  160.4390  207.3400  155.1280 O   0  0  0  0  0  0  0  0  0  0  0  0
  161.8520  210.2260  153.5350 N   0  0  0  0  0  0  0  0  0  0  0  0
  160.4330  206.9010  153.8810 C   0  0  0  0  0  3  0  0  0  0  0  0
  162.2720  210.3680  148.9200 C   0  0  2  0  0  3  0  0  0  0  0  0
  161.3760  203.9140  151.8760 C   0  0  0  0  0  2  0  0  0  0  0  0
  160.5020  203.4920  150.6820 C   0  0  1  0  0  3  0  0  0  0  0  0
  160.2440  206.0060  150.0760 C   0  0  2  0  0  3  0  0  0  0  0  0
  161.2770  206.2630  151.1900 C   0  0  2  0  0  3  0  0  0  0  0  0
  160.4450  204.5670  149.5740 C   0  0  0  0  0  2  0  0  0  0  0  0
  161.0500  205.3140  152.3690 C   0  0  0  0  0  2  0  0  0  0  0  0
  161.5560  201.3190  150.8200 O   0  0  0  0  0  0  0  0  0  0  0  0
  161.0310  202.2030  150.0810 C   0  0  0  0  0  0  0  0  0  0  0  0
  160.9450  201.9570  148.6690 N   0  0  0  0  0  1  0  0  0  0  0  0
  160.4600  206.8960  148.9940 O   0  0  0  0  0  0  0  0  0  0  0  0
  160.1420  206.2000  147.8180 C   0  0  0  0  0  2  0  0  0  0  0  0
  162.4590  206.5640  147.3020 O   0  0  0  0  0  0  0  0  0  0  0  0
  161.2980  206.3240  146.8630 C   0  0  0  0  0  0  0  0  0  0  0  0
  161.0650  206.3060  145.4830 O   0  0  0  0  0  0  0  0  0  0  0  0
  160.4960  205.1980  144.8780 N   0  0  0  0  0  1  0  0  0  0  0  0
  162.5580  210.2300  156.2130 C   0  0  0  0  0  1  0  0  0  0  0  0
  160.4530  209.7180  157.2390 N   0  0  0  0  0  1  0  0  0  0  0  0
  161.5540  209.1350  156.4850 C   0  0  1  0  0  0  0  0  0  0  0  0
  162.1630  208.1370  157.2600 O   0  0  0  0  0  1  0  0  0  0  0  0
  161.6790  210.3720  147.6380 O   0  0  0  0  0  0  0  0  0  0  0  0
  161.0860  211.6200  147.4280 C   0  0  0  0  0  1  0  0  0  0  0  0
  161.3740  211.4310  154.2270 C   0  0  0  0  0  2  0  0  0  0  0  0
  160.4180  213.0580  152.2610 F   0  0  0  0  0  0  0  0  0  0  0  0
  155.9820  213.2770  154.1420 C   0  0  0  0  0  1  0  0  0  0  0  0
  159.2170  211.1810  151.8490 F   0  0  0  0  0  0  0  0  0  0  0  0
  157.9540  212.2530  155.2790 C   0  0  1  0  0  3  0  0  0  0  0  0
  159.4300  212.2210  152.7530 C   0  0  0  0  0  0  0  0  0  0  0  0
  158.1410  213.0480  152.9010 C   0  0  1  0  0  3  0  0  0  0  0  0
  157.4940  213.1650  151.6750 F   0  0  0  0  0  0  0  0  0  0  0  0
  159.3600  212.3880  155.1860 O   0  0  0  0  0  0  0  0  0  0  0  0
  159.8440  211.6020  154.1150 C   0  0  2  0  0  3  0  0  0  0  0  0
  157.2130  212.4170  153.9380 C   0  0  2  0  0  3  0  0  0  0  0  0
  156.9000  211.1390  157.1260 O   0  0  0  0  0  1  0  0  0  0  0  0
  157.9260  209.7710  155.5830 O   0  0  0  0  0  0  0  0  0  0  0  0
  157.5520  211.0330  156.0480 C   0  0  0  0  0  0  0  0  0  0  0  0
  1 31  1  0  0  0  0
  3 11  1  0  0  0  0
  5 12  2  0  0  0  0
  5  7  1  0  0  0  0
  6  5  1  0  0  0  0
  7  1  2  0  0  0  0
  8  2  1  1  0  0  0
  8  9  1  0  0  0  0
  8  6  1  0  0  0  0
  9  4  1  6  0  0  0
  9  3  1  0  0  0  0
 10  1  1  0  0  0  0
 11  7  1  0  0  0  0
 11 35  1  0  0  0  0
 12 10  1  0  0  0  0
 13 33  1  6  0  0  0
 13  2  1  0  0  0  0
 13  4  1  0  0  0  0
 14 19  1  0  0  0  0
 15 21  1  6  0  0  0
 15 14  1  0  0  0  0
 16 23  1  6  0  0  0
 16 17  1  0  0  0  0
 17  6  1  1  0  0  0
 17 19  1  0  0  0  0
 18 16  1  0  0  0  0
 18 15  1  0  0  0  0
 21 20  2  0  0  0  0
 22 21  1  0  0  0  0
 24 23  1  0  0  0  0
 26 25  2  0  0  0  0
 26 24  1  0  0  0  0
 27 26  1  0  0  0  0
 28 27  1  0  0  0  0
 31 29  1  6  0  0  0
 31 30  1  0  0  0  0
 31 32  1  0  0  0  0
 34 33  1  0  0  0  0
 36 40  1  0  0  0  0
 38 40  1  0  0  0  0
 39 48  1  6  0  0  0
 40 41  1  0  0  0  0
 40 44  1  0  0  0  0
 41 42  1  6  0  0  0
 41 45  1  0  0  0  0
 43 39  1  0  0  0  0
 44 35  1  6  0  0  0
 44 43  1  0  0  0  0
 45 37  1  1  0  0  0
 45 39  1  0  0  0  0
 47 48  2  0  0  0  0
 48 46  1  0  0  0  0
M  END
>  <MODEL>
1

>  <REMARK>
 VINA RESULT:      -5.5      0.000      0.000
  Name = 
  11 active torsions:
  status: ('A' for Active; 'I' for Inactive)
    1  A    between atoms: C_1  and  C_31
    2  A    between atoms: C_3  and  O_18
    3  A    between atoms: C_3  and  C_29
    4  A    between atoms: C_9  and  C_44
    5  A    between atoms: C_11  and  O_18
    6  A    between atoms: C_12  and  N_27
    7  A    between atoms: C_15  and  C_34
    8  A    between atoms: C_15  and  N_43
    9  A    between atoms: O_17  and  C_29
   10  A    between atoms: O_19  and  C_48
   11  A    between atoms: C_25  and  C_47
                            x       y       z     vdW  Elec       q    Type
                         _______ _______ _______ _____ _____    ______ ____

>  <TORSDO>
F 11

$$$$
=
 OpenBabel11072412593D

 48 52  0  0  1  0  0  0  0  0999 V2000
  162.2110  209.7910  148.9720 C   0  0  0  0  0  0  0  0  0  0  0  0
  159.6670  204.7950  151.0240 S   0  0  0  0  0  0  0  0  0  0  0  0
  160.7730  207.7550  151.8320 C   0  0  0  0  0  2  0  0  0  0  0  0
  161.4860  205.6330  152.9610 C   0  0  0  0  0  2  0  0  0  0  0  0
  161.6950  207.6260  148.9420 C   0  0  0  0  0  0  0  0  0  0  0  0
  161.1630  206.2990  149.2180 N   0  0  0  0  0  0  0  0  0  0  0  0
  161.7860  208.7430  149.7810 C   0  0  0  0  0  0  0  0  0  0  0  0
  161.1920  205.6550  150.5530 C   0  0  1  0  0  3  0  0  0  0  0  0
  161.6390  206.5060  151.7310 C   0  0  1  0  0  3  0  0  0  0  0  0
  162.5670  209.3070  147.7990 O   0  0  0  0  0  0  0  0  0  0  0  0
  161.4990  208.8220  151.1890 N   0  0  0  0  0  0  0  0  0  0  0  0
  162.2920  208.0160  147.7370 C   0  0  0  0  0  3  0  0  0  0  0  0
  160.3900  204.5800  152.6970 C   0  0  2  0  0  3  0  0  0  0  0  0
  160.3440  205.5520  145.6410 C   0  0  0  0  0  2  0  0  0  0  0  0
  161.0280  204.1940  145.3960 C   0  0  1  0  0  3  0  0  0  0  0  0
  161.8080  204.2260  147.8750 C   0  0  2  0  0  3  0  0  0  0  0  0
  160.9270  205.4820  148.0180 C   0  0  2  0  0  3  0  0  0  0  0  0
  161.2590  203.4000  146.7010 C   0  0  0  0  0  2  0  0  0  0  0  0
  161.0050  206.3440  146.7560 C   0  0  0  0  0  2  0  0  0  0  0  0
  159.5950  203.8850  143.4730 O   0  0  0  0  0  0  0  0  0  0  0  0
  160.1880  203.3510  144.4560 C   0  0  0  0  0  0  0  0  0  0  0  0
  160.0510  201.9360  144.6560 N   0  0  0  0  0  1  0  0  0  0  0  0
  161.7330  203.4390  149.0530 O   0  0  0  0  0  0  0  0  0  0  0  0
  160.6360  202.5790  148.9070 C   0  0  0  0  0  2  0  0  0  0  0  0
  160.7620  200.7370  150.4410 O   0  0  0  0  0  0  0  0  0  0  0  0
  161.0620  201.1910  149.3000 C   0  0  0  0  0  0  0  0  0  0  0  0
  161.9020  200.4560  148.4570 O   0  0  0  0  0  0  0  0  0  0  0  0
  161.4630  200.0420  147.2100 N   0  0  0  0  0  1  0  0  0  0  0  0
  162.6070  212.1310  148.1640 C   0  0  0  0  0  1  0  0  0  0  0  0
  160.6370  211.6110  149.4260 N   0  0  0  0  0  1  0  0  0  0  0  0
  162.0450  211.2730  149.2720 C   0  0  1  0  0  0  0  0  0  0  0  0
  162.7200  211.5670  150.4660 O   0  0  0  0  0  1  0  0  0  0  0  0
  160.7630  203.2480  152.9820 O   0  0  0  0  0  0  0  0  0  0  0  0
  161.8940  202.9320  152.2240 C   0  0  0  0  0  1  0  0  0  0  0  0
  162.3020  209.6840  152.0660 C   0  0  0  0  0  2  0  0  0  0  0  0
  160.7410  211.9170  152.0110 F   0  0  0  0  0  0  0  0  0  0  0  0
  160.2950  212.1270  156.8090 C   0  0  0  0  0  1  0  0  0  0  0  0
  159.2510  210.4030  152.8020 F   0  0  0  0  0  0  0  0  0  0  0  0
  161.8350  210.5800  155.5960 C   0  0  1  0  0  3  0  0  0  0  0  0
  160.4250  211.1020  153.0850 C   0  0  0  0  0  0  0  0  0  0  0  0
  160.2040  212.0020  154.3130 C   0  0  1  0  0  3  0  0  0  0  0  0
  158.9260  212.5490  154.2930 F   0  0  0  0  0  0  0  0  0  0  0  0
  162.4560  210.5620  154.3240 O   0  0  0  0  0  0  0  0  0  0  0  0
  161.5500  210.0670  153.3580 C   0  0  2  0  0  3  0  0  0  0  0  0
  160.4310  211.2170  155.6040 C   0  0  2  0  0  3  0  0  0  0  0  0
  161.0680  208.3410  155.9930 O   0  0  0  0  0  0  0  0  0  0  0  0
  162.8710  209.0230  157.2550 O   0  0  0  0  0  1  0  0  0  0  0  0
  161.9000  209.2490  156.2770 C   0  0  0  0  0  0  0  0  0  0  0  0
  1 31  1  0  0  0  0
  1  7  2  0  0  0  0
  2 13  1  0  0  0  0
  5  6  1  0  0  0  0
  5  7  1  0  0  0  0
  6  8  1  0  0  0  0
  7 11  1  0  0  0  0
  8  2  1  1  0  0  0
  8  9  1  0  0  0  0
  9  3  1  1  0  0  0
  9  4  1  0  0  0  0
 10  1  1  0  0  0  0
 11  3  1  0  0  0  0
 11 35  1  0  0  0  0
 12 10  1  0  0  0  0
 12  5  2  0  0  0  0
 13  4  1  0  0  0  0
 13 33  1  6  0  0  0
 14 19  1  0  0  0  0
 15 21  1  6  0  0  0
 15 14  1  0  0  0  0
 15 18  1  0  0  0  0
 16 17  1  0  0  0  0
 16 23  1  1  0  0  0
 17 19  1  6  0  0  0
 17  6  1  0  0  0  0
 18 16  1  0  0  0  0
 20 21  2  0  0  0  0
 21 22  1  0  0  0  0
 24 23  1  0  0  0  0
 24 26  1  0  0  0  0
 26 25  2  0  0  0  0
 27 26  1  0  0  0  0
 28 27  1  0  0  0  0
 31 29  1  6  0  0  0
 31 30  1  0  0  0  0
 31 32  1  0  0  0  0
 34 33  1  0  0  0  0
 36 40  1  0  0  0  0
 38 40  1  0  0  0  0
 39 45  1  0  0  0  0
 39 48  1  6  0  0  0
 40 44  1  0  0  0  0
 40 41  1  0  0  0  0
 41 42  1  1  0  0  0
 41 45  1  0  0  0  0
 43 39  1  0  0  0  0
 44 35  1  6  0  0  0
 44 43  1  0  0  0  0
 45 37  1  1  0  0  0
 46 48  2  0  0  0  0
 48 47  1  0  0  0  0
M  END
>  <MODEL>
2

>  <REMARK>
 VINA RESULT:      -4.2      2.421      5.391
  Name = 
  11 active torsions:
  status: ('A' for Active; 'I' for Inactive)
    1  A    between atoms: C_1  and  C_31
    2  A    between atoms: C_3  and  O_18
    3  A    between atoms: C_3  and  C_29
    4  A    between atoms: C_9  and  C_44
    5  A    between atoms: C_11  and  O_18
    6  A    between atoms: C_12  and  N_27
    7  A    between atoms: C_15  and  C_34
    8  A    between atoms: C_15  and  N_43
    9  A    between atoms: O_17  and  C_29
   10  A    between atoms: O_19  and  C_48
   11  A    between atoms: C_25  and  C_47
                            x       y       z     vdW  Elec       q    Type
                         _______ _______ _______ _____ _____    ______ ____

>  <TORSDO>
F 11

$$$$
=
 OpenBabel11072412593D

 48 52  0  0  1  0  0  0  0  0999 V2000
  161.3050  205.1650  152.5150 C   0  0  0  0  0  0  0  0  0  0  0  0
  160.8850  210.6040  150.0890 S   0  0  0  0  0  0  0  0  0  0  0  0
  161.2490  207.4230  149.4670 C   0  0  0  0  0  2  0  0  0  0  0  0
  162.7940  209.2050  148.6180 C   0  0  0  0  0  2  0  0  0  0  0  0
  161.4450  207.3860  152.4960 C   0  0  0  0  0  0  0  0  0  0  0  0
  161.4020  208.7990  152.1480 N   0  0  0  0  0  0  0  0  0  0  0  0
  161.4080  206.2600  151.6650 C   0  0  0  0  0  0  0  0  0  0  0  0
  161.9360  209.3580  150.8820 C   0  0  1  0  0  3  0  0  0  0  0  0
  162.3870  208.3710  149.8180 C   0  0  1  0  0  3  0  0  0  0  0  0
  161.4920  205.5680  153.7550 O   0  0  0  0  0  0  0  0  0  0  0  0
  161.4580  206.2160  150.2280 N   0  0  0  0  0  0  0  0  0  0  0  0
  161.5960  206.8850  153.7950 C   0  0  0  0  0  3  0  0  0  0  0  0
  162.0190  210.5390  148.6480 C   0  0  2  0  0  3  0  0  0  0  0  0
  161.9770  210.4970  155.4370 C   0  0  0  0  0  2  0  0  0  0  0  0
  161.1670  211.7990  155.3090 C   0  0  1  0  0  3  0  0  0  0  0  0
  160.4310  211.0230  152.9410 C   0  0  2  0  0  3  0  0  0  0  0  0
  161.1310  209.6930  153.2840 C   0  0  2  0  0  3  0  0  0  0  0  0
  160.0340  211.6980  154.2640 C   0  0  0  0  0  2  0  0  0  0  0  0
  162.4080  209.9460  154.0880 C   0  0  0  0  0  2  0  0  0  0  0  0
  160.9240  213.2190  157.2530 O   0  0  0  0  0  0  0  0  0  0  0  0
  160.5600  212.1660  156.6500 C   0  0  0  0  0  0  0  0  0  0  0  0
  159.5600  211.3350  157.2610 N   0  0  0  0  0  1  0  0  0  0  0  0
  159.2530  210.7760  152.1900 O   0  0  0  0  0  0  0  0  0  0  0  0
  158.3040  211.7290  152.5860 C   0  0  0  0  0  2  0  0  0  0  0  0
  159.0250  213.9620  152.0760 O   0  0  0  0  0  0  0  0  0  0  0  0
  158.4200  212.9240  151.6800 C   0  0  0  0  0  0  0  0  0  0  0  0
  157.7450  212.9360  150.4550 O   0  0  0  0  0  0  0  0  0  0  0  0
  156.9690  214.0230  150.0870 N   0  0  0  0  0  1  0  0  0  0  0  0
  161.9170  202.8820  151.6770 C   0  0  0  0  0  1  0  0  0  0  0  0
  160.1410  203.1450  153.2650 N   0  0  0  0  0  1  0  0  0  0  0  0
  160.7940  203.7840  152.1320 C   0  0  1  0  0  0  0  0  0  0  0  0
  159.8680  203.9230  151.0870 O   0  0  0  0  0  1  0  0  0  0  0  0
  162.8180  211.6950  148.5090 O   0  0  0  0  0  0  0  0  0  0  0  0
  162.0000  212.7530  148.1010 C   0  0  0  0  0  1  0  0  0  0  0  0
  162.1640  205.1270  149.5390 C   0  0  0  0  0  2  0  0  0  0  0  0
  162.1130  202.4500  149.0370 F   0  0  0  0  0  0  0  0  0  0  0  0
  160.5590  202.9950  144.5030 C   0  0  0  0  0  1  0  0  0  0  0  0
  159.8980  202.9200  148.9390 F   0  0  0  0  0  0  0  0  0  0  0  0
  161.3030  204.8650  145.9800 C   0  0  1  0  0  3  0  0  0  0  0  0
  161.1330  203.1200  148.3230 C   0  0  0  0  0  0  0  0  0  0  0  0
  161.1000  202.5330  146.9000 C   0  0  1  0  0  3  0  0  0  0  0  0
  160.3710  201.3500  146.8780 F   0  0  0  0  0  0  0  0  0  0  0  0
  162.1390  204.9860  147.1160 O   0  0  0  0  0  0  0  0  0  0  0  0
  161.4120  204.6460  148.2800 C   0  0  2  0  0  3  0  0  0  0  0  0
  160.5140  203.5430  145.9150 C   0  0  2  0  0  3  0  0  0  0  0  0
  159.4230  206.0280  145.0450 O   0  0  0  0  0  0  0  0  0  0  0  0
  160.8490  207.2990  146.3320 O   0  0  0  0  0  1  0  0  0  0  0  0
  160.4630  206.0840  145.7610 C   0  0  0  0  0  0  0  0  0  0  0  0
  1 10  1  0  0  0  0
  3  9  1  0  0  0  0
  3 11  1  0  0  0  0
  4 13  1  0  0  0  0
  5 12  2  0  0  0  0
  6  5  1  0  0  0  0
  7  5  1  0  0  0  0
  7  1  2  0  0  0  0
  8  2  1  6  0  0  0
  8  6  1  0  0  0  0
  9  4  1  6  0  0  0
  9  8  1  0  0  0  0
 10 12  1  0  0  0  0
 11  7  1  0  0  0  0
 13 33  1  1  0  0  0
 13  2  1  0  0  0  0
 15 14  1  0  0  0  0
 15 21  1  1  0  0  0
 16 23  1  6  0  0  0
 16 17  1  0  0  0  0
 16 18  1  0  0  0  0
 17  6  1  6  0  0  0
 17 19  1  0  0  0  0
 18 15  1  0  0  0  0
 19 14  1  0  0  0  0
 21 20  2  0  0  0  0
 21 22  1  0  0  0  0
 23 24  1  0  0  0  0
 26 25  2  0  0  0  0
 26 24  1  0  0  0  0
 27 26  1  0  0  0  0
 28 27  1  0  0  0  0
 31 29  1  6  0  0  0
 31  1  1  0  0  0  0
 31 30  1  0  0  0  0
 32 31  1  0  0  0  0
 34 33  1  0  0  0  0
 35 11  1  0  0  0  0
 39 48  1  1  0  0  0
 39 43  1  0  0  0  0
 40 38  1  0  0  0  0
 40 36  1  0  0  0  0
 41 42  1  1  0  0  0
 41 40  1  0  0  0  0
 43 44  1  0  0  0  0
 44 40  1  0  0  0  0
 44 35  1  1  0  0  0
 45 37  1  6  0  0  0
 45 39  1  0  0  0  0
 45 41  1  0  0  0  0
 46 48  2  0  0  0  0
 48 47  1  0  0  0  0
M  END
>  <MODEL>
3

>  <REMARK>
 VINA RESULT:      -4.2      3.384      8.467
  Name = 
  11 active torsions:
  status: ('A' for Active; 'I' for Inactive)
    1  A    between atoms: C_1  and  C_31
    2  A    between atoms: C_3  and  O_18
    3  A    between atoms: C_3  and  C_29
    4  A    between atoms: C_9  and  C_44
    5  A    between atoms: C_11  and  O_18
    6  A    between atoms: C_12  and  N_27
    7  A    between atoms: C_15  and  C_34
    8  A    between atoms: C_15  and  N_43
    9  A    between atoms: O_17  and  C_29
   10  A    between atoms: O_19  and  C_48
   11  A    between atoms: C_25  and  C_47
                            x       y       z     vdW  Elec       q    Type
                         _______ _______ _______ _____ _____    ______ ____

>  <TORSDO>
F 11

$$$$
=
 OpenBabel11072412593D

 48 52  0  0  1  0  0  0  0  0999 V2000
  162.1300  209.7860  149.1560 C   0  0  0  0  0  0  0  0  0  0  0  0
  159.6720  204.6910  151.0650 S   0  0  0  0  0  0  0  0  0  0  0  0
  160.7310  207.6440  151.9570 C   0  0  0  0  0  2  0  0  0  0  0  0
  161.4810  205.5030  153.0230 C   0  0  0  0  0  2  0  0  0  0  0  0
  161.6490  207.6140  149.0630 C   0  0  0  0  0  0  0  0  0  0  0  0
  161.1410  206.2710  149.3010 N   0  0  0  0  0  0  0  0  0  0  0  0
  161.7240  208.7080  149.9340 C   0  0  0  0  0  0  0  0  0  0  0  0
  161.1820  205.5900  150.6170 C   0  0  1  0  0  3  0  0  0  0  0  0
  161.6170  206.4130  151.8180 C   0  0  1  0  0  3  0  0  0  0  0  0
  162.4920  209.3420  147.9690 O   0  0  0  0  0  0  0  0  0  0  0  0
  161.4380  208.7410  151.3440 N   0  0  0  0  0  0  0  0  0  0  0  0
  162.2390  208.0490  147.8690 C   0  0  0  0  0  3  0  0  0  0  0  0
  160.4020  204.4400  152.7300 C   0  0  2  0  0  3  0  0  0  0  0  0
  160.3700  205.6180  145.6940 C   0  0  0  0  0  2  0  0  0  0  0  0
  161.0460  204.2610  145.4280 C   0  0  1  0  0  3  0  0  0  0  0  0
  161.7870  204.2250  147.9180 C   0  0  2  0  0  3  0  0  0  0  0  0
  160.9160  205.4860  148.0780 C   0  0  2  0  0  3  0  0  0  0  0  0
  161.2490  203.4330  146.7160 C   0  0  0  0  0  2  0  0  0  0  0  0
  161.0210  206.3770  146.8390 C   0  0  0  0  0  2  0  0  0  0  0  0
  159.6290  204.0140  143.4830 O   0  0  0  0  0  0  0  0  0  0  0  0
  160.2130  203.4490  144.4550 C   0  0  0  0  0  0  0  0  0  0  0  0
  160.0720  202.0280  144.6090 N   0  0  0  0  0  1  0  0  0  0  0  0
  161.6870  203.4110  149.0750 O   0  0  0  0  0  0  0  0  0  0  0  0
  160.6260  202.5200  148.8630 C   0  0  0  0  0  2  0  0  0  0  0  0
  160.8830  200.5320  150.1850 O   0  0  0  0  0  0  0  0  0  0  0  0
  161.1260  201.1190  149.0930 C   0  0  0  0  0  0  0  0  0  0  0  0
  161.9730  200.5200  148.1530 O   0  0  0  0  0  0  0  0  0  0  0  0
  161.4510  199.8440  147.0630 N   0  0  0  0  0  1  0  0  0  0  0  0
  162.1870  212.1420  148.3010 C   0  0  0  0  0  1  0  0  0  0  0  0
  160.5830  211.5030  149.9640 N   0  0  0  0  0  1  0  0  0  0  0  0
  161.9400  211.2560  149.4990 C   0  0  1  0  0  0  0  0  0  0  0  0
  162.8430  211.5990  150.5160 O   0  0  0  0  0  1  0  0  0  0  0  0
  160.7970  203.1060  152.9750 O   0  0  0  0  0  0  0  0  0  0  0  0
  161.8510  202.7900  152.1130 C   0  0  0  0  0  1  0  0  0  0  0  0
  162.2280  209.5900  152.2450 C   0  0  0  0  0  2  0  0  0  0  0  0
  162.1100  208.5720  154.7700 F   0  0  0  0  0  0  0  0  0  0  0  0
  158.2840  211.2310  156.0190 C   0  0  0  0  0  1  0  0  0  0  0  0
  162.6700  210.7200  155.2280 F   0  0  0  0  0  0  0  0  0  0  0  0
  159.1960  211.0620  153.7010 C   0  0  1  0  0  3  0  0  0  0  0  0
  161.6700  209.8840  154.7300 C   0  0  0  0  0  0  0  0  0  0  0  0
  160.4190  209.9910  155.6210 C   0  0  1  0  0  3  0  0  0  0  0  0
  160.7810  210.1050  156.9580 F   0  0  0  0  0  0  0  0  0  0  0  0
  159.9800  210.1230  152.9870 O   0  0  0  0  0  0  0  0  0  0  0  0
  161.3480  210.3270  153.2770 C   0  0  2  0  0  3  0  0  0  0  0  0
  159.5560  211.1770  155.1950 C   0  0  2  0  0  3  0  0  0  0  0  0
  159.6700  213.4040  153.4760 O   0  0  0  0  0  1  0  0  0  0  0  0
  158.3720  212.4790  151.8130 O   0  0  0  0  0  0  0  0  0  0  0  0
  159.1070  212.3790  152.9960 C   0  0  0  0  0  0  0  0  0  0  0  0
  1 31  1  0  0  0  0
  1  7  2  0  0  0  0
  2 13  1  0  0  0  0
  5  6  1  0  0  0  0
  5  7  1  0  0  0  0
  6  8  1  0  0  0  0
  7 11  1  0  0  0  0
  8  2  1  1  0  0  0
  8  9  1  0  0  0  0
  9  3  1  1  0  0  0
  9  4  1  0  0  0  0
 10  1  1  0  0  0  0
 11  3  1  0  0  0  0
 11 35  1  0  0  0  0
 12 10  1  0  0  0  0
 12  5  2  0  0  0  0
 13 33  1  6  0  0  0
 13  4  1  0  0  0  0
 14 19  1  0  0  0  0
 15 21  1  6  0  0  0
 15 14  1  0  0  0  0
 15 18  1  0  0  0  0
 16 17  1  0  0  0  0
 16 23  1  1  0  0  0
 17 19  1  6  0  0  0
 17  6  1  0  0  0  0
 18 16  1  0  0  0  0
 20 21  2  0  0  0  0
 21 22  1  0  0  0  0
 24 23  1  0  0  0  0
 24 26  1  0  0  0  0
 26 25  2  0  0  0  0
 27 26  1  0  0  0  0
 28 27  1  0  0  0  0
 31 29  1  6  0  0  0
 31 30  1  0  0  0  0
 31 32  1  0  0  0  0
 34 33  1  0  0  0  0
 39 48  1  6  0  0  0
 39 45  1  0  0  0  0
 40 36  1  0  0  0  0
 40 38  1  0  0  0  0
 40 41  1  0  0  0  0
 41 42  1  1  0  0  0
 43 44  1  0  0  0  0
 43 39  1  0  0  0  0
 44 35  1  6  0  0  0
 44 40  1  0  0  0  0
 45 41  1  0  0  0  0
 45 37  1  1  0  0  0
 47 48  2  0  0  0  0
 48 46  1  0  0  0  0
M  END
>  <MODEL>
4

>  <REMARK>
 VINA RESULT:      -4.1      2.713      5.480
  Name = 
  11 active torsions:
  status: ('A' for Active; 'I' for Inactive)
    1  A    between atoms: C_1  and  C_31
    2  A    between atoms: C_3  and  O_18
    3  A    between atoms: C_3  and  C_29
    4  A    between atoms: C_9  and  C_44
    5  A    between atoms: C_11  and  O_18
    6  A    between atoms: C_12  and  N_27
    7  A    between atoms: C_15  and  C_34
    8  A    between atoms: C_15  and  N_43
    9  A    between atoms: O_17  and  C_29
   10  A    between atoms: O_19  and  C_48
   11  A    between atoms: C_25  and  C_47
                            x       y       z     vdW  Elec       q    Type
                         _______ _______ _______ _____ _____    ______ ____

>  <TORSDO>
F 11

$$$$
=
 OpenBabel11072412593D

 48 52  0  0  1  0  0  0  0  0999 V2000
  161.1930  207.1460  153.0950 C   0  0  0  0  0  0  0  0  0  0  0  0
  159.8110  212.1100  150.0800 S   0  0  0  0  0  0  0  0  0  0  0  0
  161.2180  209.1740  149.8890 C   0  0  0  0  0  2  0  0  0  0  0  0
  162.3380  211.3130  149.2160 C   0  0  0  0  0  2  0  0  0  0  0  0
  160.6840  209.3020  152.8750 C   0  0  0  0  0  0  0  0  0  0  0  0
  160.3200  210.6220  152.3800 N   0  0  0  0  0  0  0  0  0  0  0  0
  161.1750  208.1910  152.1790 C   0  0  0  0  0  0  0  0  0  0  0  0
  160.9560  211.2730  151.2100 C   0  0  1  0  0  3  0  0  0  0  0  0
  161.9150  210.4360  150.3790 C   0  0  1  0  0  3  0  0  0  0  0  0
  160.9530  207.6290  154.2980 O   0  0  0  0  0  0  0  0  0  0  0  0
  161.5790  208.1150  150.8000 N   0  0  0  0  0  0  0  0  0  0  0  0
  160.6590  208.9150  154.2210 C   0  0  0  0  0  3  0  0  0  0  0  0
  161.2270  212.3460  148.9370 C   0  0  2  0  0  3  0  0  0  0  0  0
  157.3130  212.3230  153.8260 C   0  0  0  0  0  2  0  0  0  0  0  0
  157.6490  212.4200  155.3260 C   0  0  1  0  0  3  0  0  0  0  0  0
  159.9310  211.2890  154.8130 C   0  0  2  0  0  3  0  0  0  0  0  0
  159.5380  211.4280  153.3300 C   0  0  2  0  0  3  0  0  0  0  0  0
  159.1670  212.3640  155.6020 C   0  0  0  0  0  2  0  0  0  0  0  0
  158.0400  211.1780  153.1420 C   0  0  0  0  0  2  0  0  0  0  0  0
  156.0120  214.1970  155.4610 O   0  0  0  0  0  0  0  0  0  0  0  0
  157.0980  213.7120  155.8980 C   0  0  0  0  0  0  0  0  0  0  0  0
  157.7900  214.4110  156.9460 N   0  0  0  0  0  1  0  0  0  0  0  0
  161.3220  211.5150  154.9730 O   0  0  0  0  0  0  0  0  0  0  0  0
  161.5740  211.5770  156.3510 C   0  0  0  0  0  2  0  0  0  0  0  0
  163.9240  211.0830  156.3920 O   0  0  0  0  0  0  0  0  0  0  0  0
  162.7520  210.6930  156.6610 C   0  0  0  0  0  0  0  0  0  0  0  0
  162.5400  209.3880  157.1200 O   0  0  0  0  0  0  0  0  0  0  0  0
  161.2560  208.8880  157.2600 N   0  0  0  0  0  1  0  0  0  0  0  0
  162.5820  205.2100  152.3140 C   0  0  0  0  0  1  0  0  0  0  0  0
  160.8310  204.8670  153.9160 N   0  0  0  0  0  1  0  0  0  0  0  0
  161.2110  205.6630  152.7570 C   0  0  1  0  0  0  0  0  0  0  0  0
  160.2950  205.4290  151.7200 O   0  0  0  0  0  1  0  0  0  0  0  0
  161.6670  213.6860  148.8540 O   0  0  0  0  0  0  0  0  0  0  0  0
  160.9960  214.4330  149.8270 C   0  0  0  0  0  1  0  0  0  0  0  0
  162.7130  207.2720  150.3990 C   0  0  0  0  0  2  0  0  0  0  0  0
  162.7530  208.3300  147.8890 F   0  0  0  0  0  0  0  0  0  0  0  0
  160.4010  204.6050  145.9240 C   0  0  0  0  0  1  0  0  0  0  0  0
  164.0950  206.5290  147.5880 F   0  0  0  0  0  0  0  0  0  0  0  0
  160.7220  204.9430  148.3760 C   0  0  1  0  0  3  0  0  0  0  0  0
  162.7920  206.9460  147.8580 C   0  0  0  0  0  0  0  0  0  0  0  0
  161.8560  206.4710  146.7320 C   0  0  1  0  0  3  0  0  0  0  0  0
  162.4920  206.5620  145.4990 F   0  0  0  0  0  0  0  0  0  0  0  0
  160.9780  206.0500  149.2210 O   0  0  0  0  0  0  0  0  0  0  0  0
  162.3620  206.3400  149.2210 C   0  0  2  0  0  3  0  0  0  0  0  0
  161.3870  205.0400  146.9900 C   0  0  2  0  0  3  0  0  0  0  0  0
  161.9210  202.8950  148.7350 O   0  0  0  0  0  0  0  0  0  0  0  0
  160.0750  203.2230  150.0720 O   0  0  0  0  0  1  0  0  0  0  0  0
  160.9540  203.6360  149.0690 C   0  0  0  0  0  0  0  0  0  0  0  0
  1 10  1  0  0  0  0
  3  9  1  0  0  0  0
  3 11  1  0  0  0  0
  5 12  2  0  0  0  0
  6  5  1  0  0  0  0
  7  5  1  0  0  0  0
  7  1  2  0  0  0  0
  8  2  1  6  0  0  0
  8  6  1  0  0  0  0
  9  4  1  6  0  0  0
  9  8  1  0  0  0  0
 11  7  1  0  0  0  0
 12 10  1  0  0  0  0
 13 33  1  1  0  0  0
 13  4  1  0  0  0  0
 13  2  1  0  0  0  0
 14 15  1  0  0  0  0
 15 18  1  0  0  0  0
 15 21  1  6  0  0  0
 16 23  1  6  0  0  0
 16 18  1  0  0  0  0
 17  6  1  6  0  0  0
 17 16  1  0  0  0  0
 19 17  1  0  0  0  0
 19 14  1  0  0  0  0
 20 21  2  0  0  0  0
 21 22  1  0  0  0  0
 23 24  1  0  0  0  0
 24 26  1  0  0  0  0
 25 26  2  0  0  0  0
 26 27  1  0  0  0  0
 27 28  1  0  0  0  0
 31 29  1  6  0  0  0
 31  1  1  0  0  0  0
 31 30  1  0  0  0  0
 32 31  1  0  0  0  0
 33 34  1  0  0  0  0
 35 11  1  0  0  0  0
 38 40  1  0  0  0  0
 39 48  1  1  0  0  0
 39 43  1  0  0  0  0
 40 36  1  0  0  0  0
 40 44  1  0  0  0  0
 41 42  1  6  0  0  0
 41 45  1  0  0  0  0
 41 40  1  0  0  0  0
 43 44  1  0  0  0  0
 44 35  1  1  0  0  0
 45 37  1  6  0  0  0
 45 39  1  0  0  0  0
 46 48  2  0  0  0  0
 48 47  1  0  0  0  0
M  END
>  <MODEL>
5

>  <REMARK>
 VINA RESULT:      -3.6      2.820      8.299
  Name = 
  11 active torsions:
  status: ('A' for Active; 'I' for Inactive)
    1  A    between atoms: C_1  and  C_31
    2  A    between atoms: C_3  and  O_18
    3  A    between atoms: C_3  and  C_29
    4  A    between atoms: C_9  and  C_44
    5  A    between atoms: C_11  and  O_18
    6  A    between atoms: C_12  and  N_27
    7  A    between atoms: C_15  and  C_34
    8  A    between atoms: C_15  and  N_43
    9  A    between atoms: O_17  and  C_29
   10  A    between atoms: O_19  and  C_48
   11  A    between atoms: C_25  and  C_47
                            x       y       z     vdW  Elec       q    Type
                         _______ _______ _______ _____ _____    ______ ____

>  <TORSDO>
F 11

$$$$
=
 OpenBabel11072412593D

 48 52  0  0  1  0  0  0  0  0999 V2000
  161.1840  206.3020  152.8950 C   0  0  0  0  0  0  0  0  0  0  0  0
  160.5770  211.4880  150.0000 S   0  0  0  0  0  0  0  0  0  0  0  0
  161.2360  208.3100  149.6770 C   0  0  0  0  0  2  0  0  0  0  0  0
  162.7130  210.1450  148.8190 C   0  0  0  0  0  2  0  0  0  0  0  0
  161.1560  208.5200  152.7050 C   0  0  0  0  0  0  0  0  0  0  0  0
  161.0390  209.8940  152.2380 N   0  0  0  0  0  0  0  0  0  0  0  0
  161.2810  207.3350  151.9700 C   0  0  0  0  0  0  0  0  0  0  0  0
  161.6420  210.3970  150.9810 C   0  0  1  0  0  3  0  0  0  0  0  0
  162.2630  209.3730  150.0440 C   0  0  1  0  0  3  0  0  0  0  0  0
  161.2260  206.8130  154.1100 O   0  0  0  0  0  0  0  0  0  0  0  0
  161.4660  207.1860  150.5500 N   0  0  0  0  0  0  0  0  0  0  0  0
  161.2260  208.1320  154.0490 C   0  0  0  0  0  3  0  0  0  0  0  0
  161.8400  211.4080  148.6720 C   0  0  2  0  0  3  0  0  0  0  0  0
  158.7100  212.1840  154.0710 C   0  0  0  0  0  2  0  0  0  0  0  0
  159.2890  212.2110  155.4970 C   0  0  1  0  0  3  0  0  0  0  0  0
  161.1820  210.6300  154.6780 C   0  0  2  0  0  3  0  0  0  0  0  0
  160.5970  210.8460  153.2690 C   0  0  2  0  0  3  0  0  0  0  0  0
  160.7880  211.8410  155.5390 C   0  0  0  0  0  2  0  0  0  0  0  0
  159.0690  210.9120  153.3210 C   0  0  0  0  0  2  0  0  0  0  0  0
  160.1090  214.2210  156.5640 O   0  0  0  0  0  0  0  0  0  0  0  0
  159.1120  213.5890  156.1040 C   0  0  0  0  0  0  0  0  0  0  0  0
  157.8170  214.2090  156.1660 N   0  0  0  0  0  1  0  0  0  0  0  0
  162.5970  210.5620  154.6160 O   0  0  0  0  0  0  0  0  0  0  0  0
  163.0750  210.7050  155.9260 C   0  0  0  0  0  2  0  0  0  0  0  0
  165.0410  211.4530  154.7680 O   0  0  0  0  0  0  0  0  0  0  0  0
  164.4330  211.3510  155.8710 C   0  0  0  0  0  0  0  0  0  0  0  0
  165.0770  211.7190  157.0580 O   0  0  0  0  0  0  0  0  0  0  0  0
  166.0280  212.7260  157.0620 N   0  0  0  0  0  1  0  0  0  0  0  0
  162.0220  204.0590  152.1530 C   0  0  0  0  0  1  0  0  0  0  0  0
  160.2490  204.2100  153.7600 N   0  0  0  0  0  1  0  0  0  0  0  0
  160.8170  204.8590  152.5860 C   0  0  1  0  0  0  0  0  0  0  0  0
  159.8670  204.8490  151.5530 O   0  0  0  0  0  1  0  0  0  0  0  0
  162.5590  212.6120  148.5050 O   0  0  0  0  0  0  0  0  0  0  0  0
  161.6710  213.6820  148.6540 C   0  0  0  0  0  1  0  0  0  0  0  0
  162.3120  206.1100  150.0170 C   0  0  0  0  0  2  0  0  0  0  0  0
  162.2800  203.3870  149.9400 F   0  0  0  0  0  0  0  0  0  0  0  0
  161.2070  203.2020  145.2410 C   0  0  0  0  0  1  0  0  0  0  0  0
  160.0930  203.8270  149.5410 F   0  0  0  0  0  0  0  0  0  0  0  0
  161.8190  205.2850  146.4740 C   0  0  1  0  0  3  0  0  0  0  0  0
  161.3870  203.9320  149.0320 C   0  0  0  0  0  0  0  0  0  0  0  0
  161.4930  203.1280  147.7240 C   0  0  1  0  0  3  0  0  0  0  0  0
  160.7560  201.9530  147.8130 F   0  0  0  0  0  0  0  0  0  0  0  0
  162.5350  205.5880  147.6570 O   0  0  0  0  0  0  0  0  0  0  0  0
  161.6880  205.4330  148.7790 C   0  0  2  0  0  3  0  0  0  0  0  0
  161.0240  203.9670  146.5370 C   0  0  2  0  0  3  0  0  0  0  0  0
  160.8270  207.4570  146.7210 O   0  0  0  0  0  1  0  0  0  0  0  0
  160.4630  206.4120  144.7010 O   0  0  0  0  0  0  0  0  0  0  0  0
  161.0210  206.4510  145.9800 C   0  0  0  0  0  0  0  0  0  0  0  0
  1 10  1  0  0  0  0
  3  9  1  0  0  0  0
  3 11  1  0  0  0  0
  5 12  2  0  0  0  0
  6  5  1  0  0  0  0
  7  5  1  0  0  0  0
  7  1  2  0  0  0  0
  8  2  1  6  0  0  0
  8  6  1  0  0  0  0
  9  4  1  6  0  0  0
  9  8  1  0  0  0  0
 11  7  1  0  0  0  0
 12 10  1  0  0  0  0
 13 33  1  1  0  0  0
 13  4  1  0  0  0  0
 13  2  1  0  0  0  0
 14 15  1  0  0  0  0
 15 18  1  0  0  0  0
 15 21  1  6  0  0  0
 16 23  1  6  0  0  0
 16 18  1  0  0  0  0
 17  6  1  6  0  0  0
 17 19  1  0  0  0  0
 17 16  1  0  0  0  0
 19 14  1  0  0  0  0
 21 22  1  0  0  0  0
 21 20  2  0  0  0  0
 23 24  1  0  0  0  0
 25 26  2  0  0  0  0
 26 24  1  0  0  0  0
 26 27  1  0  0  0  0
 27 28  1  0  0  0  0
 31 29  1  6  0  0  0
 31  1  1  0  0  0  0
 31 30  1  0  0  0  0
 32 31  1  0  0  0  0
 33 34  1  0  0  0  0
 35 11  1  0  0  0  0
 39 48  1  1  0  0  0
 39 45  1  0  0  0  0
 39 43  1  0  0  0  0
 40 38  1  0  0  0  0
 40 36  1  0  0  0  0
 41 42  1  1  0  0  0
 41 40  1  0  0  0  0
 43 44  1  0  0  0  0
 44 40  1  0  0  0  0
 44 35  1  1  0  0  0
 45 37  1  6  0  0  0
 45 41  1  0  0  0  0
 47 48  2  0  0  0  0
 48 46  1  0  0  0  0
M  END
>  <MODEL>
6

>  <REMARK>
 VINA RESULT:      -3.2      3.284      8.735
  Name = 
  11 active torsions:
  status: ('A' for Active; 'I' for Inactive)
    1  A    between atoms: C_1  and  C_31
    2  A    between atoms: C_3  and  O_18
    3  A    between atoms: C_3  and  C_29
    4  A    between atoms: C_9  and  C_44
    5  A    between atoms: C_11  and  O_18
    6  A    between atoms: C_12  and  N_27
    7  A    between atoms: C_15  and  C_34
    8  A    between atoms: C_15  and  N_43
    9  A    between atoms: O_17  and  C_29
   10  A    between atoms: O_19  and  C_48
   11  A    between atoms: C_25  and  C_47
                            x       y       z     vdW  Elec       q    Type
                         _______ _______ _______ _____ _____    ______ ____

>  <TORSDO>
F 11

$$$$
=
 OpenBabel11072412593D

 48 52  0  0  1  0  0  0  0  0999 V2000
  160.5260  209.1360  154.2810 C   0  0  0  0  0  0  0  0  0  0  0  0
  162.5720  210.7170  148.9000 S   0  0  0  0  0  0  0  0  0  0  0  0
  161.8240  211.7810  151.8910 C   0  0  0  0  0  2  0  0  0  0  0  0
  160.9200  212.7820  149.7780 C   0  0  0  0  0  2  0  0  0  0  0  0
  160.8010  208.9290  152.0810 C   0  0  0  0  0  0  0  0  0  0  0  0
  161.1920  209.0870  150.6880 N   0  0  0  0  0  0  0  0  0  0  0  0
  160.8600  209.8490  153.1350 C   0  0  0  0  0  0  0  0  0  0  0  0
  161.1370  210.3720  149.9520 C   0  0  1  0  0  3  0  0  0  0  0  0
  160.8240  211.6250  150.7540 C   0  0  1  0  0  3  0  0  0  0  0  0
  160.0810  207.9460  153.9280 O   0  0  0  0  0  0  0  0  0  0  0  0
  161.1990  211.2460  153.0750 N   0  0  0  0  0  0  0  0  0  0  0  0
  160.2110  207.7800  152.6240 C   0  0  0  0  0  3  0  0  0  0  0  0
  161.8840  212.3980  148.6370 C   0  0  2  0  0  3  0  0  0  0  0  0
  160.8920  206.7360  147.7870 C   0  0  0  0  0  2  0  0  0  0  0  0
  161.9680  205.6750  148.0790 C   0  0  1  0  0  3  0  0  0  0  0  0
  162.5230  206.9480  150.2750 C   0  0  2  0  0  3  0  0  0  0  0  0
  161.2980  207.8220  149.9440 C   0  0  2  0  0  3  0  0  0  0  0  0
  162.3330  205.5920  149.5770 C   0  0  0  0  0  2  0  0  0  0  0  0
  161.2040  208.0740  148.4370 C   0  0  0  0  0  2  0  0  0  0  0  0
  161.3400  204.0650  146.3850 O   0  0  0  0  0  0  0  0  0  0  0  0
  161.4900  204.3110  147.6190 C   0  0  0  0  0  0  0  0  0  0  0  0
  161.2010  203.2710  148.5660 N   0  0  0  0  0  1  0  0  0  0  0  0
  162.6050  206.7280  151.6730 O   0  0  0  0  0  0  0  0  0  0  0  0
  162.7290  205.3460  151.8670 C   0  0  0  0  0  2  0  0  0  0  0  0
  161.4170  205.2770  153.8780 O   0  0  0  0  0  0  0  0  0  0  0  0
  161.5610  204.8720  152.6890 C   0  0  0  0  0  0  0  0  0  0  0  0
  160.7110  203.8820  152.1840 O   0  0  0  0  0  0  0  0  0  0  0  0
  161.2060  202.6340  151.8430 N   0  0  0  0  0  1  0  0  0  0  0  0
  160.8490  208.3430  156.6370 C   0  0  0  0  0  1  0  0  0  0  0  0
  162.1890  210.1340  155.7760 N   0  0  0  0  0  1  0  0  0  0  0  0
  160.8640  209.5340  155.7090 C   0  0  1  0  0  0  0  0  0  0  0  0
  159.9150  210.4690  156.1500 O   0  0  0  0  0  1  0  0  0  0  0  0
  161.3770  212.6010  147.3350 O   0  0  0  0  0  0  0  0  0  0  0  0
  160.0160  212.9030  147.4310 C   0  0  0  0  0  1  0  0  0  0  0  0
  160.5250  212.2150  153.9490 C   0  0  0  0  0  2  0  0  0  0  0  0
  159.6530  214.2660  152.3810 F   0  0  0  0  0  0  0  0  0  0  0  0
  155.0200  213.6440  153.5700 C   0  0  0  0  0  1  0  0  0  0  0  0
  158.7180  212.5080  151.3000 F   0  0  0  0  0  0  0  0  0  0  0  0
  156.9330  212.4720  154.6650 C   0  0  1  0  0  3  0  0  0  0  0  0
  158.7060  213.2600  152.4740 C   0  0  0  0  0  0  0  0  0  0  0  0
  157.3280  213.9220  152.6480 C   0  0  1  0  0  3  0  0  0  0  0  0
  156.8290  214.3390  151.4190 F   0  0  0  0  0  0  0  0  0  0  0  0
  158.3180  212.7230  154.8220 O   0  0  0  0  0  0  0  0  0  0  0  0
  159.0110  212.3080  153.6620 C   0  0  2  0  0  3  0  0  0  0  0  0
  156.3510  212.9610  153.3250 C   0  0  2  0  0  3  0  0  0  0  0  0
  155.6090  210.4860  154.4200 O   0  0  0  0  0  0  0  0  0  0  0  0
  157.2860  210.3840  155.9950 O   0  0  0  0  0  1  0  0  0  0  0  0
  156.5710  211.0600  155.0040 C   0  0  0  0  0  0  0  0  0  0  0  0
  1 31  1  0  0  0  0
  3 11  1  0  0  0  0
  5 12  2  0  0  0  0
  5  7  1  0  0  0  0
  6  5  1  0  0  0  0
  7  1  2  0  0  0  0
  8  2  1  1  0  0  0
  8  6  1  0  0  0  0
  8  9  1  0  0  0  0
  9  4  1  6  0  0  0
  9  3  1  0  0  0  0
 10  1  1  0  0  0  0
 11  7  1  0  0  0  0
 11 35  1  0  0  0  0
 12 10  1  0  0  0  0
 13 33  1  6  0  0  0
 13  2  1  0  0  0  0
 13  4  1  0  0  0  0
 14 15  1  0  0  0  0
 14 19  1  0  0  0  0
 15 21  1  1  0  0  0
 15 18  1  0  0  0  0
 16 23  1  1  0  0  0
 17 19  1  6  0  0  0
 17 16  1  0  0  0  0
 17  6  1  0  0  0  0
 18 16  1  0  0  0  0
 20 21  2  0  0  0  0
 21 22  1  0  0  0  0
 23 24  1  0  0  0  0
 24 26  1  0  0  0  0
 26 25  2  0  0  0  0
 27 26  1  0  0  0  0
 28 27  1  0  0  0  0
 31 30  1  0  0  0  0
 31 32  1  0  0  0  0
 31 29  1  1  0  0  0
 33 34  1  0  0  0  0
 36 40  1  0  0  0  0
 38 40  1  0  0  0  0
 39 43  1  0  0  0  0
 39 48  1  6  0  0  0
 40 41  1  0  0  0  0
 40 44  1  0  0  0  0
 41 42  1  6  0  0  0
 41 45  1  0  0  0  0
 44 35  1  1  0  0  0
 44 43  1  0  0  0  0
 45 37  1  1  0  0  0
 45 39  1  0  0  0  0
 46 48  2  0  0  0  0
 48 47  1  0  0  0  0
M  END
>  <MODEL>
7

>  <REMARK>
 VINA RESULT:      -2.6      1.842      3.021
  Name = 
  11 active torsions:
  status: ('A' for Active; 'I' for Inactive)
    1  A    between atoms: C_1  and  C_31
    2  A    between atoms: C_3  and  O_18
    3  A    between atoms: C_3  and  C_29
    4  A    between atoms: C_9  and  C_44
    5  A    between atoms: C_11  and  O_18
    6  A    between atoms: C_12  and  N_27
    7  A    between atoms: C_15  and  C_34
    8  A    between atoms: C_15  and  N_43
    9  A    between atoms: O_17  and  C_29
   10  A    between atoms: O_19  and  C_48
   11  A    between atoms: C_25  and  C_47
                            x       y       z     vdW  Elec       q    Type
                         _______ _______ _______ _____ _____    ______ ____

>  <TORSDO>
F 11

$$$$
