=
 OpenBabel11072414103D

 28 32  0  0  1  0  0  0  0  0999 V2000
  161.2410  205.8000  152.2780 C   0  0  0  0  0  0  0  0  0  0  0  0
  161.1140  205.9890  149.0820 C   0  0  0  0  0  2  0  0  0  0  0  0
  161.0280  204.6870  151.3200 C   0  0  0  0  0  0  0  0  0  0  0  0
  162.3310  209.8270  149.8160 O   0  0  0  0  0  0  0  0  0  0  0  0
  161.8940  209.2230  150.7830 C   0  0  0  0  0  0  0  0  0  0  0  0
  161.4380  207.0840  152.0050 C   0  0  0  0  0  0  0  0  0  0  0  0
  161.4060  207.0050  154.2800 C   0  0  0  0  0  3  0  0  0  0  0  0
  161.9130  209.9520  154.5010 C   0  0  0  0  0  0  0  0  0  0  0  0
  160.6860  204.8940  149.9410 N   0  0  0  0  0  2  0  0  0  0  0  0
  161.5180  207.8160  153.2400 C   0  0  0  0  0  0  0  0  0  0  0  0
  162.9210  210.7030  154.6020 O   0  0  0  0  0  0  0  0  0  0  0  0
  160.9180  203.4900  151.7940 N   0  0  0  0  0  2  0  0  0  0  0  0
  160.7110  207.3330  149.6460 C   0  0  0  0  0  2  0  0  0  0  0  0
  161.6840  209.2410  153.2770 N   0  0  0  0  0  0  0  0  0  0  0  0
  161.7380  207.7210  150.6870 C   0  0  1  0  0  3  0  0  0  0  0  0
  161.2070  205.6110  153.7690 C   0  0  0  0  0  2  0  0  0  0  0  0
  161.5460  210.0140  152.0350 C   0  0  2  0  0  3  0  0  0  0  0  0
  160.2790  212.5120  151.7670 S   0  0  0  0  0  0  0  0  0  0  0  0
  158.6800  212.7490  152.5960 C   0  0  0  0  0  2  0  0  0  0  0  0
  157.3860  211.4530  154.2300 C   0  0  0  0  0  2  0  0  0  0  0  0
  160.1740  210.6970  151.9660 C   0  0  2  0  0  3  0  0  0  0  0  0
  158.3940  211.5120  153.3650 C   0  0  0  0  0  0  0  0  0  0  0  0
  159.3080  210.3620  153.1670 C   0  0  0  0  0  2  0  0  0  0  0  0
  160.6390  208.7660  156.1880 N   0  0  0  0  0  0  0  0  0  0  0  0
  159.5230  210.5460  157.2600 N   0  0  0  0  0  0  0  0  0  0  0  0
  160.3370  210.9810  156.2070 N   0  0  0  0  0  2  0  0  0  0  0  0
  160.9570  209.8670  155.6170 C   0  0  0  0  0  0  0  0  0  0  0  0
  159.7060  209.0860  157.2610 C   0  0  0  0  0  3  0  0  0  0  0  0
  1 16  1  0  0  0  0
  2 13  1  0  0  0  0
  2  9  1  0  0  0  0
  3 12  2  0  0  0  0
  3  1  1  0  0  0  0
  4  5  2  0  0  0  0
  6  1  2  0  0  0  0
  6 10  1  0  0  0  0
  8 11  2  0  0  0  0
  8 27  1  0  0  0  0
  9  3  1  0  0  0  0
 10 14  1  0  0  0  0
 10  7  2  0  0  0  0
 14  8  1  0  0  0  0
 15 13  1  6  0  0  0
 15  5  1  0  0  0  0
 15  6  1  0  0  0  0
 16  7  1  0  0  0  0
 17  5  1  6  0  0  0
 17 14  1  0  0  0  0
 18 21  1  0  0  0  0
 18 19  1  0  0  0  0
 19 22  1  0  0  0  0
 21 17  1  0  0  0  0
 21 23  1  1  0  0  0
 22 20  2  0  0  0  0
 23 22  1  0  0  0  0
 24 28  1  0  0  0  0
 25 28  2  0  0  0  0
 26 25  1  0  0  0  0
 27 24  2  0  0  0  0
 27 26  1  0  0  0  0
M  END
>  <MODEL>
1

>  <REMARK>
 VINA RESULT:      -6.6      0.000      0.000
  Name = 
  2 active torsions:
  status: ('A' for Active; 'I' for Inactive)
    1  A    between atoms: C_11  and  C_28
    2  A    between atoms: C_15  and  C_20
                            x       y       z     vdW  Elec       q    Type
                         _______ _______ _______ _____ _____    ______ ____

>  <TORSDO>
F 2

$$$$
=
 OpenBabel11072414103D

 28 32  0  0  1  0  0  0  0  0999 V2000
  159.1820  213.1190  151.9620 C   0  0  0  0  0  0  0  0  0  0  0  0
  159.2470  211.1270  154.4700 C   0  0  0  0  0  2  0  0  0  0  0  0
  158.3370  213.1800  153.1800 C   0  0  0  0  0  0  0  0  0  0  0  0
  162.5780  209.7170  152.5550 O   0  0  0  0  0  0  0  0  0  0  0  0
  161.8450  210.4220  151.8790 C   0  0  0  0  0  0  0  0  0  0  0  0
  160.1400  212.2450  151.6770 C   0  0  1  0  0  3  0  0  0  0  0  0
  160.0310  213.5640  149.8240 C   0  0  0  0  0  3  0  0  0  0  0  0
  162.2590  212.0650  148.4900 C   0  0  0  0  0  0  0  0  0  0  0  0
  158.2180  212.0910  154.1070 N   0  0  0  0  0  2  0  0  0  0  0  0
  160.6380  212.5160  150.3550 C   0  0  0  0  0  0  0  0  0  0  0  0
  163.5130  212.1650  148.4130 O   0  0  0  0  0  0  0  0  0  0  0  0
  157.4980  214.1570  153.2900 N   0  0  0  0  0  2  0  0  0  0  0  0
  159.7600  210.3750  153.2620 C   0  0  0  0  0  2  0  0  0  0  0  0
  161.6560  211.7100  149.7410 N   0  0  0  0  0  0  0  0  0  0  0  0
  160.7900  211.2480  152.5800 C   0  0  1  0  0  3  0  0  0  0  0  0
  159.0150  214.0650  150.8050 C   0  0  0  0  0  3  0  0  0  0  0  0
  162.0470  210.4420  150.3710 C   0  0  2  0  0  3  0  0  0  0  0  0
  161.0130  207.8560  150.7670 S   0  0  0  0  0  0  0  0  0  0  0  0
  161.1720  206.6570  149.4120 C   0  0  0  0  0  2  0  0  0  0  0  0
  162.3900  206.6300  147.2800 C   0  0  0  0  0  2  0  0  0  0  0  0
  161.3990  209.2510  149.6510 C   0  0  2  0  0  3  0  0  0  0  0  0
  161.9450  207.3160  148.3280 C   0  0  0  0  0  0  0  0  0  0  0  0
  162.2430  208.7600  148.4890 C   0  0  0  0  0  2  0  0  0  0  0  0
  160.3310  211.6470  147.0810 N   0  0  0  0  0  0  0  0  0  0  0  0
  160.7540  213.1050  145.2760 N   0  0  0  0  0  0  0  0  0  0  0  0
  161.7610  213.1510  146.2480 N   0  0  0  0  0  2  0  0  0  0  0  0
  161.4410  212.2530  147.2810 C   0  0  0  0  0  0  0  0  0  0  0  0
  159.8030  212.1160  145.8060 C   0  0  0  0  0  3  0  0  0  0  0  0
  1  3  1  0  0  0  0
  3 12  2  0  0  0  0
  3  9  1  0  0  0  0
  5  4  2  0  0  0  0
  5 15  1  0  0  0  0
  6 10  1  1  0  0  0
  6  1  1  0  0  0  0
  6 15  1  0  0  0  0
  7 10  2  0  0  0  0
  7 16  1  0  0  0  0
  8 14  1  0  0  0  0
  9  2  1  0  0  0  0
 11  8  2  0  0  0  0
 13  2  1  0  0  0  0
 14 10  1  0  0  0  0
 14 17  1  0  0  0  0
 15 13  1  6  0  0  0
 16  1  2  0  0  0  0
 17  5  1  1  0  0  0
 19 18  1  0  0  0  0
 20 22  2  0  0  0  0
 21 23  1  6  0  0  0
 21 17  1  0  0  0  0
 21 18  1  0  0  0  0
 22 23  1  0  0  0  0
 22 19  1  0  0  0  0
 24 27  2  0  0  0  0
 25 28  2  0  0  0  0
 25 26  1  0  0  0  0
 26 27  1  0  0  0  0
 27  8  1  0  0  0  0
 28 24  1  0  0  0  0
M  END
>  <MODEL>
2

>  <REMARK>
 VINA RESULT:      -6.1      3.791      7.563
  Name = 
  2 active torsions:
  status: ('A' for Active; 'I' for Inactive)
    1  A    between atoms: C_11  and  C_28
    2  A    between atoms: C_15  and  C_20
                            x       y       z     vdW  Elec       q    Type
                         _______ _______ _______ _____ _____    ______ ____

>  <TORSDO>
F 2

$$$$
=
 OpenBabel11072414103D

 28 32  0  0  1  0  0  0  0  0999 V2000
  161.1970  206.0960  151.7960 C   0  0  0  0  0  0  0  0  0  0  0  0
  161.3920  206.4590  148.6190 C   0  0  0  0  0  2  0  0  0  0  0  0
  161.0060  205.0520  150.7600 C   0  0  0  0  0  0  0  0  0  0  0  0
  162.7800  210.1590  149.6850 O   0  0  0  0  0  0  0  0  0  0  0  0
  162.2120  209.5380  150.5700 C   0  0  0  0  0  0  0  0  0  0  0  0
  161.5030  207.3760  151.6180 C   0  0  0  0  0  0  0  0  0  0  0  0
  161.2450  207.1820  153.8720 C   0  0  0  0  0  3  0  0  0  0  0  0
  161.9190  210.0700  154.3100 C   0  0  0  0  0  0  0  0  0  0  0  0
  160.8120  205.3540  149.3690 N   0  0  0  0  0  2  0  0  0  0  0  0
  161.5090  208.0350  152.8960 C   0  0  0  0  0  0  0  0  0  0  0  0
  162.9590  210.7420  154.5480 O   0  0  0  0  0  0  0  0  0  0  0  0
  160.7720  203.8430  151.1500 N   0  0  0  0  0  2  0  0  0  0  0  0
  161.0240  207.7970  149.2200 C   0  0  0  0  0  2  0  0  0  0  0  0
  161.7640  209.4420  153.0300 N   0  0  0  0  0  0  0  0  0  0  0  0
  161.9690  208.0570  150.3720 C   0  0  1  0  0  3  0  0  0  0  0  0
  161.0060  205.8330  153.2640 C   0  0  0  0  0  2  0  0  0  0  0  0
  161.7980  210.2850  151.8290 C   0  0  2  0  0  3  0  0  0  0  0  0
  160.4910  212.2090  150.2450 S   0  0  0  0  0  0  0  0  0  0  0  0
  159.2990  213.3130  151.0560 C   0  0  0  0  0  2  0  0  0  0  0  0
  158.7000  213.7730  153.3920 C   0  0  0  0  0  2  0  0  0  0  0  0
  160.4850  211.0660  151.6720 C   0  0  2  0  0  3  0  0  0  0  0  0
  159.3250  213.0020  152.5080 C   0  0  0  0  0  0  0  0  0  0  0  0
  160.1190  211.8240  152.9350 C   0  0  0  0  0  2  0  0  0  0  0  0
  161.0880  209.8710  156.5790 N   0  0  0  0  0  0  0  0  0  0  0  0
  158.7600  210.0280  156.2320 N   0  0  0  0  0  0  0  0  0  0  0  0
  159.4850  210.1040  155.0360 N   0  0  0  0  0  2  0  0  0  0  0  0
  160.8570  209.9940  155.3250 C   0  0  0  0  0  0  0  0  0  0  0  0
  159.8000  209.8690  157.2600 C   0  0  0  0  0  3  0  0  0  0  0  0
  1 16  1  0  0  0  0
  2 13  1  0  0  0  0
  2  9  1  0  0  0  0
  3 12  2  0  0  0  0
  3  1  1  0  0  0  0
  4  5  2  0  0  0  0
  6  1  2  0  0  0  0
  6 10  1  0  0  0  0
  8 11  2  0  0  0  0
  8 27  1  0  0  0  0
  9  3  1  0  0  0  0
 10 14  1  0  0  0  0
 10  7  2  0  0  0  0
 14  8  1  0  0  0  0
 15 13  1  6  0  0  0
 15  5  1  0  0  0  0
 15  6  1  0  0  0  0
 16  7  1  0  0  0  0
 17  5  1  6  0  0  0
 17 14  1  0  0  0  0
 18 19  1  0  0  0  0
 18 21  1  0  0  0  0
 19 22  1  0  0  0  0
 21 17  1  0  0  0  0
 21 23  1  1  0  0  0
 22 23  1  0  0  0  0
 22 20  2  0  0  0  0
 24 28  1  0  0  0  0
 25 28  2  0  0  0  0
 26 27  1  0  0  0  0
 26 25  1  0  0  0  0
 27 24  2  0  0  0  0
M  END
>  <MODEL>
3

>  <REMARK>
 VINA RESULT:      -5.8      1.007      1.077
  Name = 
  2 active torsions:
  status: ('A' for Active; 'I' for Inactive)
    1  A    between atoms: C_11  and  C_28
    2  A    between atoms: C_15  and  C_20
                            x       y       z     vdW  Elec       q    Type
                         _______ _______ _______ _____ _____    ______ ____

>  <TORSDO>
F 2

$$$$
=
 OpenBabel11072414103D

 28 32  0  0  1  0  0  0  0  0999 V2000
  160.3900  210.2270  153.4450 C   0  0  0  0  0  0  0  0  0  0  0  0
  160.8450  207.2420  154.5150 C   0  0  0  0  0  2  0  0  0  0  0  0
  159.9250  209.6530  154.7320 C   0  0  0  0  0  0  0  0  0  0  0  0
  163.2900  207.0360  151.2390 O   0  0  0  0  0  0  0  0  0  0  0  0
  162.5110  207.9760  151.2520 C   0  0  0  0  0  0  0  0  0  0  0  0
  161.0970  209.6290  152.4940 C   0  0  0  0  0  0  0  0  0  0  0  0
  160.6810  211.7020  151.6480 C   0  0  0  0  0  3  0  0  0  0  0  0
  162.2220  211.1120  149.1450 C   0  0  0  0  0  0  0  0  0  0  0  0
  159.9060  208.2430  155.0010 N   0  0  0  0  0  2  0  0  0  0  0  0
  161.2520  210.5370  151.3890 C   0  0  0  0  0  0  0  0  0  0  0  0
  163.4090  211.2530  148.7450 O   0  0  0  0  0  0  0  0  0  0  0  0
  159.2990  210.4300  155.5530 N   0  0  0  0  0  2  0  0  0  0  0  0
  160.8960  207.2090  153.0040 C   0  0  0  0  0  2  0  0  0  0  0  0
  161.9370  210.1650  150.1830 N   0  0  0  0  0  0  0  0  0  0  0  0
  161.8170  208.3210  152.5520 C   0  0  1  0  0  3  0  0  0  0  0  0
  160.0530  211.6250  153.0070 C   0  0  0  0  0  2  0  0  0  0  0  0
  162.2970  208.7580  149.9650 C   0  0  2  0  0  3  0  0  0  0  0  0
  160.4960  206.6120  149.7070 S   0  0  0  0  0  0  0  0  0  0  0  0
  160.2810  205.8720  148.0610 C   0  0  0  0  0  2  0  0  0  0  0  0
  161.4470  206.1010  145.9130 C   0  0  0  0  0  2  0  0  0  0  0  0
  161.3130  208.0850  148.9970 C   0  0  2  0  0  3  0  0  0  0  0  0
  161.2320  206.5520  147.1450 C   0  0  0  0  0  0  0  0  0  0  0  0
  161.9680  207.7230  147.6770 C   0  0  0  0  0  2  0  0  0  0  0  0
  160.6930  212.9830  148.9520 N   0  0  0  0  0  0  0  0  0  0  0  0
  159.5780  212.4620  146.9390 N   0  0  0  0  0  0  0  0  0  0  0  0
  160.5320  211.4970  147.2880 N   0  0  0  0  0  2  0  0  0  0  0  0
  161.1430  211.8740  148.4970 C   0  0  0  0  0  0  0  0  0  0  0  0
  159.6670  213.4480  148.0280 C   0  0  0  0  0  3  0  0  0  0  0  0
  1  3  1  0  0  0  0
  2  9  1  0  0  0  0
  3  9  1  0  0  0  0
  3 12  2  0  0  0  0
  4  5  2  0  0  0  0
  5 15  1  0  0  0  0
  6 15  1  0  0  0  0
  6  1  2  0  0  0  0
  7 16  1  0  0  0  0
  8 14  1  0  0  0  0
 10  7  2  0  0  0  0
 10  6  1  0  0  0  0
 11  8  2  0  0  0  0
 13  2  1  0  0  0  0
 14 10  1  0  0  0  0
 15 13  1  6  0  0  0
 16  1  1  0  0  0  0
 17 14  1  0  0  0  0
 17  5  1  1  0  0  0
 19 18  1  0  0  0  0
 20 22  2  0  0  0  0
 21 23  1  6  0  0  0
 21 18  1  0  0  0  0
 21 17  1  0  0  0  0
 22 23  1  0  0  0  0
 22 19  1  0  0  0  0
 25 26  1  0  0  0  0
 25 28  2  0  0  0  0
 26 27  1  0  0  0  0
 27 24  2  0  0  0  0
 27  8  1  0  0  0  0
 28 24  1  0  0  0  0
M  END
>  <MODEL>
4

>  <REMARK>
 VINA RESULT:      -5.8      3.140      6.446
  Name = 
  2 active torsions:
  status: ('A' for Active; 'I' for Inactive)
    1  A    between atoms: C_11  and  C_28
    2  A    between atoms: C_15  and  C_20
                            x       y       z     vdW  Elec       q    Type
                         _______ _______ _______ _____ _____    ______ ____

>  <TORSDO>
F 2

$$$$
=
 OpenBabel11072414103D

 28 32  0  0  1  0  0  0  0  0999 V2000
  157.9880  212.9420  153.3350 C   0  0  0  0  0  0  0  0  0  0  0  0
  157.1310  214.4500  156.0290 C   0  0  0  0  0  2  0  0  0  0  0  0
  156.8010  213.8080  153.5410 C   0  0  0  0  0  0  0  0  0  0  0  0
  160.8170  213.1640  157.2610 O   0  0  0  0  0  0  0  0  0  0  0  0
  160.3810  212.6200  156.2580 C   0  0  0  0  0  0  0  0  0  0  0  0
  158.9360  212.6350  154.2120 C   0  0  1  0  0  3  0  0  0  0  0  0
  159.5020  211.4490  152.3540 C   0  0  0  0  0  3  0  0  0  0  0  0
  161.9530  210.3370  153.6750 C   0  0  0  0  0  0  0  0  0  0  0  0
  156.3290  214.1960  154.8410 N   0  0  0  0  0  2  0  0  0  0  0  0
  159.8470  211.7030  153.6050 C   0  0  0  0  0  0  0  0  0  0  0  0
  163.1690  210.6560  153.7670 O   0  0  0  0  0  0  0  0  0  0  0  0
  156.0270  214.0310  152.5310 N   0  0  0  0  0  2  0  0  0  0  0  0
  157.9620  213.2460  156.4110 C   0  0  0  0  0  2  0  0  0  0  0  0
  160.9610  211.1460  154.3200 N   0  0  0  0  0  0  0  0  0  0  0  0
  159.2040  213.2510  155.5470 C   0  0  1  0  0  3  0  0  0  0  0  0
  158.2540  212.2190  152.0450 C   0  0  0  0  0  3  0  0  0  0  0  0
  161.0570  211.3470  155.7710 C   0  0  2  0  0  3  0  0  0  0  0  0
  162.0040  209.0360  157.0670 S   0  0  0  0  0  0  0  0  0  0  0  0
  160.9680  207.5440  157.0150 C   0  0  0  0  0  2  0  0  0  0  0  0
  158.9440  206.9050  155.7820 C   0  0  0  0  0  2  0  0  0  0  0  0
  160.6100  210.0880  156.5280 C   0  0  2  0  0  3  0  0  0  0  0  0
  159.7900  207.8560  156.1670 C   0  0  0  0  0  0  0  0  0  0  0  0
  159.6220  209.2610  155.7260 C   0  0  0  0  0  2  0  0  0  0  0  0
  161.2660  209.0790  151.7200 N   0  0  0  0  0  0  0  0  0  0  0  0
  161.2120  206.8830  152.5800 N   0  0  0  0  0  0  0  0  0  0  0  0
  161.5790  207.8280  153.5460 N   0  0  0  0  0  2  0  0  0  0  0  0
  161.5800  209.1050  152.9610 C   0  0  0  0  0  0  0  0  0  0  0  0
  160.9980  207.6900  151.3680 C   0  0  0  0  0  3  0  0  0  0  0  0
  1  3  1  0  0  0  0
  2 13  1  0  0  0  0
  3  9  1  0  0  0  0
  5  4  2  0  0  0  0
  6  1  1  6  0  0  0
  6 15  1  0  0  0  0
  7 10  2  0  0  0  0
  8 11  2  0  0  0  0
  8 14  1  0  0  0  0
  9  2  1  0  0  0  0
 10  6  1  0  0  0  0
 10 14  1  0  0  0  0
 12  3  2  0  0  0  0
 14 17  1  0  0  0  0
 15  5  1  0  0  0  0
 15 13  1  1  0  0  0
 16  7  1  0  0  0  0
 16  1  2  0  0  0  0
 17  5  1  1  0  0  0
 17 21  1  0  0  0  0
 19 18  1  0  0  0  0
 20 22  2  0  0  0  0
 21 23  1  6  0  0  0
 21 18  1  0  0  0  0
 22 19  1  0  0  0  0
 23 22  1  0  0  0  0
 24 27  2  0  0  0  0
 25 26  1  0  0  0  0
 27 26  1  0  0  0  0
 27  8  1  0  0  0  0
 28 24  1  0  0  0  0
 28 25  2  0  0  0  0
M  END
>  <MODEL>
5

>  <REMARK>
 VINA RESULT:      -5.7      2.799      6.795
  Name = 
  2 active torsions:
  status: ('A' for Active; 'I' for Inactive)
    1  A    between atoms: C_11  and  C_28
    2  A    between atoms: C_15  and  C_20
                            x       y       z     vdW  Elec       q    Type
                         _______ _______ _______ _____ _____    ______ ____

>  <TORSDO>
F 2

$$$$
=
 OpenBabel11072414103D

 28 32  0  0  1  0  0  0  0  0999 V2000
  158.3360  212.5660  153.2320 C   0  0  0  0  0  0  0  0  0  0  0  0
  157.1640  211.6700  156.0760 C   0  0  0  0  0  2  0  0  0  0  0  0
  157.1020  213.0600  153.8910 C   0  0  0  0  0  0  0  0  0  0  0  0
  160.7590  209.7300  156.3230 O   0  0  0  0  0  0  0  0  0  0  0  0
  160.4450  210.1080  155.2050 C   0  0  0  0  0  0  0  0  0  0  0  0
  159.2060  211.6740  153.6930 C   0  0  1  0  0  3  0  0  0  0  0  0
  159.9960  212.1930  151.6220 C   0  0  0  0  0  3  0  0  0  0  0  0
  162.3490  210.3620  151.9390 C   0  0  0  0  0  0  0  0  0  0  0  0
  156.4910  212.3980  155.0090 N   0  0  0  0  0  2  0  0  0  0  0  0
  160.2080  211.4400  152.6890 C   0  0  0  0  0  0  0  0  0  0  0  0
  163.5370  210.4590  152.3510 O   0  0  0  0  0  0  0  0  0  0  0  0
  156.4230  213.9830  153.2950 N   0  0  0  0  0  2  0  0  0  0  0  0
  158.0000  210.5320  155.5360 C   0  0  0  0  0  2  0  0  0  0  0  0
  161.2680  210.4890  152.8730 N   0  0  0  0  0  0  0  0  0  0  0  0
  159.3190  211.1100  155.0720 C   0  0  1  0  0  3  0  0  0  0  0  0
  158.7550  213.0000  151.8550 C   0  0  0  0  0  3  0  0  0  0  0  0
  161.2150  209.5640  154.0120 C   0  0  2  0  0  3  0  0  0  0  0  0
  160.5320  207.0010  154.9520 S   0  0  0  0  0  0  0  0  0  0  0  0
  160.8740  205.5790  153.8750 C   0  0  0  0  0  2  0  0  0  0  0  0
  162.1190  205.2730  151.7820 C   0  0  0  0  0  2  0  0  0  0  0  0
  160.7460  208.1720  153.5650 C   0  0  2  0  0  3  0  0  0  0  0  0
  161.5690  206.0960  152.6690 C   0  0  0  0  0  0  0  0  0  0  0  0
  161.6660  207.5680  152.5200 C   0  0  0  0  0  2  0  0  0  0  0  0
  162.0780  210.9490  149.6030 N   0  0  0  0  0  0  0  0  0  0  0  0
  161.7240  208.8280  148.6330 N   0  0  0  0  0  0  0  0  0  0  0  0
  161.8990  208.7590  150.0210 N   0  0  0  0  0  2  0  0  0  0  0  0
  162.0950  210.0570  150.5220 C   0  0  0  0  0  0  0  0  0  0  0  0
  161.8350  210.2650  148.3390 C   0  0  0  0  0  3  0  0  0  0  0  0
  1  6  1  0  0  0  0
  1  3  1  0  0  0  0
  3  9  1  0  0  0  0
  5  4  2  0  0  0  0
  6 10  1  1  0  0  0
  6 15  1  0  0  0  0
  7 16  1  0  0  0  0
  7 10  2  0  0  0  0
  8 11  2  0  0  0  0
  8 14  1  0  0  0  0
  9  2  1  0  0  0  0
 10 14  1  0  0  0  0
 12  3  2  0  0  0  0
 13  2  1  0  0  0  0
 14 17  1  0  0  0  0
 15  5  1  0  0  0  0
 15 13  1  6  0  0  0
 16  1  2  0  0  0  0
 17  5  1  1  0  0  0
 19 18  1  0  0  0  0
 20 22  2  0  0  0  0
 21 23  1  6  0  0  0
 21 17  1  0  0  0  0
 21 18  1  0  0  0  0
 22 19  1  0  0  0  0
 23 22  1  0  0  0  0
 24 27  2  0  0  0  0
 25 26  1  0  0  0  0
 26 27  1  0  0  0  0
 27  8  1  0  0  0  0
 28 25  2  0  0  0  0
 28 24  1  0  0  0  0
M  END
>  <MODEL>
6

>  <REMARK>
 VINA RESULT:      -5.5      2.618      6.850
  Name = 
  2 active torsions:
  status: ('A' for Active; 'I' for Inactive)
    1  A    between atoms: C_11  and  C_28
    2  A    between atoms: C_15  and  C_20
                            x       y       z     vdW  Elec       q    Type
                         _______ _______ _______ _____ _____    ______ ____

>  <TORSDO>
F 2

$$$$
=
 OpenBabel11072414103D

 28 32  0  0  1  0  0  0  0  0999 V2000
  160.8070  211.7800  150.6820 C   0  0  0  0  0  0  0  0  0  0  0  0
  162.2590  209.3050  149.2560 C   0  0  0  0  0  2  0  0  0  0  0  0
  161.4590  211.7670  149.3490 C   0  0  0  0  0  0  0  0  0  0  0  0
  160.6550  207.2600  152.4180 O   0  0  0  0  0  0  0  0  0  0  0  0
  160.6750  208.4750  152.5370 C   0  0  0  0  0  0  0  0  0  0  0  0
  160.6790  210.7720  151.5370 C   0  0  1  0  0  3  0  0  0  0  0  0
  159.7550  212.5410  152.6310 C   0  0  0  0  0  3  0  0  0  0  0  0
  159.0540  210.8490  155.0060 C   0  0  0  0  0  0  0  0  0  0  0  0
  162.3400  210.7190  148.9170 N   0  0  0  0  0  2  0  0  0  0  0  0
  160.0510  211.2560  152.7360 C   0  0  0  0  0  0  0  0  0  0  0  0
  158.0620  210.1720  155.3880 O   0  0  0  0  0  0  0  0  0  0  0  0
  161.4190  212.8480  148.6430 N   0  0  0  0  0  2  0  0  0  0  0  0
  162.3190  209.0840  150.7510 C   0  0  0  0  0  2  0  0  0  0  0  0
  159.8130  210.4090  153.8710 N   0  0  0  0  0  0  0  0  0  0  0  0
  160.9320  209.3170  151.3060 C   0  0  1  0  0  3  0  0  0  0  0  0
  160.2200  213.0220  151.2900 C   0  0  0  0  0  3  0  0  0  0  0  0
  160.4220  209.0740  153.9120 C   0  0  2  0  0  3  0  0  0  0  0  0
  161.3080  208.4810  156.5160 S   0  0  0  0  0  0  0  0  0  0  0  0
  162.6750  209.4660  157.1970 C   0  0  0  0  0  2  0  0  0  0  0  0
  163.8410  211.5050  156.4820 C   0  0  0  0  0  2  0  0  0  0  0  0
  161.6600  209.0650  154.8200 C   0  0  2  0  0  3  0  0  0  0  0  0
  163.0080  210.5090  156.1930 C   0  0  0  0  0  0  0  0  0  0  0  0
  162.3370  210.4230  154.8750 C   0  0  0  0  0  2  0  0  0  0  0  0
  160.1930  211.9960  156.8130 N   0  0  0  0  0  0  0  0  0  0  0  0
  159.6880  214.2480  156.3200 N   0  0  0  0  0  0  0  0  0  0  0  0
  159.1160  213.3580  155.4020 N   0  0  0  0  0  2  0  0  0  0  0  0
  159.4540  212.0430  155.7680 C   0  0  0  0  0  0  0  0  0  0  0  0
  160.3990  213.3680  157.2600 C   0  0  0  0  0  3  0  0  0  0  0  0
  1 16  2  0  0  0  0
  2 13  1  0  0  0  0
  3  1  1  0  0  0  0
  4  5  2  0  0  0  0
  6  1  1  6  0  0  0
  6 10  1  0  0  0  0
  7 10  2  0  0  0  0
  8 11  2  0  0  0  0
  8 27  1  0  0  0  0
  9  2  1  0  0  0  0
  9  3  1  0  0  0  0
 10 14  1  0  0  0  0
 12  3  2  0  0  0  0
 14 17  1  0  0  0  0
 14  8  1  0  0  0  0
 15 13  1  1  0  0  0
 15  6  1  0  0  0  0
 15  5  1  0  0  0  0
 16  7  1  0  0  0  0
 17  5  1  6  0  0  0
 17 21  1  0  0  0  0
 18 19  1  0  0  0  0
 21 23  1  1  0  0  0
 21 18  1  0  0  0  0
 22 20  2  0  0  0  0
 22 19  1  0  0  0  0
 23 22  1  0  0  0  0
 24 28  1  0  0  0  0
 25 28  2  0  0  0  0
 26 27  1  0  0  0  0
 26 25  1  0  0  0  0
 27 24  2  0  0  0  0
M  END
>  <MODEL>
7

>  <REMARK>
 VINA RESULT:      -5.0      3.124      4.974
  Name = 
  2 active torsions:
  status: ('A' for Active; 'I' for Inactive)
    1  A    between atoms: C_11  and  C_28
    2  A    between atoms: C_15  and  C_20
                            x       y       z     vdW  Elec       q    Type
                         _______ _______ _______ _____ _____    ______ ____

>  <TORSDO>
F 2

$$$$
=
 OpenBabel11072414103D

 28 32  0  0  1  0  0  0  0  0999 V2000
  156.7620  213.2900  154.8220 C   0  0  0  0  0  0  0  0  0  0  0  0
  157.8440  211.5140  157.2600 C   0  0  0  0  0  2  0  0  0  0  0  0
  156.0650  212.9970  156.0990 C   0  0  0  0  0  0  0  0  0  0  0  0
  161.3000  211.6140  155.0710 O   0  0  0  0  0  0  0  0  0  0  0  0
  160.2910  211.9480  154.4710 C   0  0  0  0  0  0  0  0  0  0  0  0
  157.9720  212.8930  154.4440 C   0  0  1  0  0  3  0  0  0  0  0  0
  157.1810  214.0410  152.6430 C   0  0  0  0  0  3  0  0  0  0  0  0
  159.7200  213.6030  151.1100 C   0  0  0  0  0  0  0  0  0  0  0  0
  156.4820  211.9600  157.0010 N   0  0  0  0  0  2  0  0  0  0  0  0
  158.2090  213.3430  153.0990 C   0  0  0  0  0  0  0  0  0  0  0  0
  160.8090  214.2170  150.9470 O   0  0  0  0  0  0  0  0  0  0  0  0
  154.9080  213.5350  156.2970 N   0  0  0  0  0  2  0  0  0  0  0  0
  158.5280  211.0400  155.9980 C   0  0  0  0  0  2  0  0  0  0  0  0
  159.4180  213.0320  152.3910 N   0  0  0  0  0  0  0  0  0  0  0  0
  159.0450  212.2610  155.2700 C   0  0  1  0  0  3  0  0  0  0  0  0
  156.1280  214.0750  153.7090 C   0  0  0  0  0  3  0  0  0  0  0  0
  160.3490  212.0450  152.9530 C   0  0  2  0  0  3  0  0  0  0  0  0
  160.1730  209.2730  153.4020 S   0  0  0  0  0  0  0  0  0  0  0  0
  160.8540  208.1610  152.1380 C   0  0  0  0  0  2  0  0  0  0  0  0
  162.2320  208.4830  150.1320 C   0  0  0  0  0  2  0  0  0  0  0  0
  160.2020  210.6900  152.2470 C   0  0  2  0  0  3  0  0  0  0  0  0
  161.4810  209.0100  151.0930 C   0  0  0  0  0  0  0  0  0  0  0  0
  161.2760  210.4750  151.1970 C   0  0  0  0  0  2  0  0  0  0  0  0
  159.1940  213.4590  148.7480 N   0  0  0  0  0  0  0  0  0  0  0  0
  156.8780  213.0140  148.8190 N   0  0  0  0  0  0  0  0  0  0  0  0
  157.4340  213.1590  150.0960 N   0  0  0  0  0  2  0  0  0  0  0  0
  158.8080  213.4290  149.9690 C   0  0  0  0  0  0  0  0  0  0  0  0
  158.0230  213.2130  147.9160 C   0  0  0  0  0  3  0  0  0  0  0  0
  1  3  1  0  0  0  0
  3 12  2  0  0  0  0
  3  9  1  0  0  0  0
  5  4  2  0  0  0  0
  5 15  1  0  0  0  0
  6 10  1  1  0  0  0
  6  1  1  0  0  0  0
  6 15  1  0  0  0  0
  7 10  2  0  0  0  0
  7 16  1  0  0  0  0
  8 14  1  0  0  0  0
  9  2  1  0  0  0  0
 11  8  2  0  0  0  0
 13  2  1  0  0  0  0
 14 17  1  0  0  0  0
 14 10  1  0  0  0  0
 15 13  1  6  0  0  0
 16  1  2  0  0  0  0
 17  5  1  1  0  0  0
 19 18  1  0  0  0  0
 20 22  2  0  0  0  0
 21 23  1  6  0  0  0
 21 17  1  0  0  0  0
 21 18  1  0  0  0  0
 22 23  1  0  0  0  0
 22 19  1  0  0  0  0
 24 27  2  0  0  0  0
 25 26  1  0  0  0  0
 27 26  1  0  0  0  0
 27  8  1  0  0  0  0
 28 24  1  0  0  0  0
 28 25  2  0  0  0  0
M  END
>  <MODEL>
8

>  <REMARK>
 VINA RESULT:      -4.8      3.603      7.512
  Name = 
  2 active torsions:
  status: ('A' for Active; 'I' for Inactive)
    1  A    between atoms: C_11  and  C_28
    2  A    between atoms: C_15  and  C_20
                            x       y       z     vdW  Elec       q    Type
                         _______ _______ _______ _____ _____    ______ ____

>  <TORSDO>
F 2

$$$$
=
 OpenBabel11072414103D

 28 32  0  0  1  0  0  0  0  0999 V2000
  161.5820  209.6440  150.2440 C   0  0  0  0  0  0  0  0  0  0  0  0
  161.3790  209.0840  153.3920 C   0  0  0  0  0  2  0  0  0  0  0  0
  161.2060  210.6090  151.3050 C   0  0  0  0  0  0  0  0  0  0  0  0
  163.0750  205.5210  152.3040 O   0  0  0  0  0  0  0  0  0  0  0  0
  162.5980  206.1750  151.3890 C   0  0  0  0  0  0  0  0  0  0  0  0
  161.9250  208.3690  150.3850 C   0  0  1  0  0  3  0  0  0  0  0  0
  161.9540  208.6990  148.1330 C   0  0  0  0  0  3  0  0  0  0  0  0
  162.8220  205.8750  147.6180 C   0  0  0  0  0  0  0  0  0  0  0  0
  160.8480  210.2110  152.6370 N   0  0  0  0  0  2  0  0  0  0  0  0
  162.1310  207.7950  149.0830 C   0  0  0  0  0  0  0  0  0  0  0  0
  163.9160  205.2630  147.4820 O   0  0  0  0  0  0  0  0  0  0  0  0
  160.9660  211.8310  150.9590 N   0  0  0  0  0  2  0  0  0  0  0  0
  161.1590  207.7740  152.6690 C   0  0  0  0  0  2  0  0  0  0  0  0
  162.4700  206.4120  148.9010 N   0  0  0  0  0  0  0  0  0  0  0  0
  162.2580  207.6280  151.6390 C   0  0  1  0  0  3  0  0  0  0  0  0
  161.5720  209.9940  148.7820 C   0  0  0  0  0  3  0  0  0  0  0  0
  162.3880  205.4940  150.0440 C   0  0  2  0  0  3  0  0  0  0  0  0
  160.6200  203.9490  151.5950 S   0  0  0  0  0  0  0  0  0  0  0  0
  159.7900  202.5450  150.7950 C   0  0  0  0  0  2  0  0  0  0  0  0
  160.0440  201.4050  148.6360 C   0  0  0  0  0  2  0  0  0  0  0  0
  161.1070  204.6510  149.9780 C   0  0  2  0  0  3  0  0  0  0  0  0
  160.3190  202.4500  149.4110 C   0  0  0  0  0  0  0  0  0  0  0  0
  161.2060  203.5430  148.9460 C   0  0  0  0  0  2  0  0  0  0  0  0
  162.2620  205.8040  145.2610 N   0  0  0  0  0  0  0  0  0  0  0  0
  159.9370  206.2000  145.3270 N   0  0  0  0  0  0  0  0  0  0  0  0
  160.5180  206.2060  146.6020 N   0  0  0  0  0  2  0  0  0  0  0  0
  161.8980  205.9730  146.4770 C   0  0  0  0  0  0  0  0  0  0  0  0
  161.0730  205.9400  144.4290 C   0  0  0  0  0  3  0  0  0  0  0  0
  1  6  1  0  0  0  0
  1  3  1  0  0  0  0
  3  9  1  0  0  0  0
  5 15  1  0  0  0  0
  5  4  2  0  0  0  0
  6 10  1  6  0  0  0
  6 15  1  0  0  0  0
  7 16  1  0  0  0  0
  7 10  2  0  0  0  0
  8 14  1  0  0  0  0
  9  2  1  0  0  0  0
 11  8  2  0  0  0  0
 12  3  2  0  0  0  0
 13  2  1  0  0  0  0
 14 10  1  0  0  0  0
 14 17  1  0  0  0  0
 15 13  1  1  0  0  0
 16  1  2  0  0  0  0
 17  5  1  1  0  0  0
 19 18  1  0  0  0  0
 20 22  2  0  0  0  0
 21 23  1  6  0  0  0
 21 17  1  0  0  0  0
 21 18  1  0  0  0  0
 22 19  1  0  0  0  0
 23 22  1  0  0  0  0
 24 27  2  0  0  0  0
 25 26  1  0  0  0  0
 27 26  1  0  0  0  0
 27  8  1  0  0  0  0
 28 24  1  0  0  0  0
 28 25  2  0  0  0  0
M  END
>  <MODEL>
9

>  <REMARK>
 VINA RESULT:      -4.6      3.348      7.920
  Name = 
  2 active torsions:
  status: ('A' for Active; 'I' for Inactive)
    1  A    between atoms: C_11  and  C_28
    2  A    between atoms: C_15  and  C_20
                            x       y       z     vdW  Elec       q    Type
                         _______ _______ _______ _____ _____    ______ ____

>  <TORSDO>
F 2

$$$$
