=
 OpenBabel11072410183D

 33 35  0  0  1  0  0  0  0  0999 V2000
  161.3260  209.1270  152.0880 C   0  0  0  0  0  0  0  0  0  0  0  0
  161.1550  208.0090  154.9270 C   0  0  0  0  0  3  0  0  0  0  0  0
  159.7450  209.4680  156.2780 O   0  0  0  0  0  1  0  0  0  0  0  0
  161.3790  207.3410  153.7980 C   0  0  0  0  0  3  0  0  0  0  0  0
  160.8090  207.7700  152.4880 C   0  0  2  0  0  3  0  0  0  0  0  0
  161.0180  210.2050  152.8130 C   0  0  0  0  0  3  0  0  0  0  0  0
  160.2910  210.2220  154.1050 C   0  0  0  0  0  0  0  0  0  0  0  0
  160.3790  209.2630  155.0550 C   0  0  0  0  0  0  0  0  0  0  0  0
  161.2480  203.3950  148.3070 Cl  0  0  0  0  0  0  0  0  0  0  0  0
  161.7960  203.1620  151.2360 F   0  0  0  0  0  0  0  0  0  0  0  0
  160.9380  206.7120  151.4290 C   0  0  0  0  0  0  0  0  0  0  0  0
  160.7360  205.9670  149.1260 C   0  0  0  0  0  0  0  0  0  0  0  0
  160.4360  206.2550  147.7990 O   0  0  0  0  0  1  0  0  0  0  0  0
  161.1270  204.6750  149.5050 C   0  0  0  0  0  0  0  0  0  0  0  0
  161.4200  204.4060  150.8500 C   0  0  0  0  0  0  0  0  0  0  0  0
  161.3210  205.4210  151.8050 C   0  0  0  0  0  3  0  0  0  0  0  0
  160.6420  206.9790  150.0850 C   0  0  0  0  0  3  0  0  0  0  0  0
  159.5540  211.4860  154.4110 C   0  0  0  0  0  2  0  0  0  0  0  0
  158.1090  211.3760  153.9590 C   0  0  0  0  0  2  0  0  0  0  0  0
  156.0180  212.5300  154.5620 C   0  0  2  0  0  3  0  0  0  0  0  0
  157.1890  211.7380  155.1060 C   0  0  1  0  0  3  0  0  0  0  0  0
  155.4590  213.3410  155.6280 N   0  0  0  0  0  1  0  0  0  0  0  0
  155.8480  211.0650  154.9060 C   0  0  0  0  0  2  0  0  0  0  0  0
  162.1130  209.3230  150.8250 C   0  0  0  0  0  2  0  0  0  0  0  0
  162.2080  210.7380  150.4900 N   0  0  0  0  0  2  0  0  0  0  0  0
  163.3520  211.4540  148.2110 O   0  0  0  0  0  0  0  0  0  0  0  0
  162.0670  210.9110  148.7720 S   0  0  0  0  0  0  0  0  0  0  0  0
  161.7650  209.5770  148.1450 O   0  0  0  0  0  0  0  0  0  0  0  0
  160.7430  212.0500  148.4140 C   0  0  2  0  0  3  0  0  0  0  0  0
  160.6840  212.2940  147.0410 O   0  0  0  0  0  1  0  0  0  0  0  0
  160.9300  213.3310  149.1580 C   0  0  0  0  0  0  0  0  0  0  0  0
  161.7440  214.1990  148.7450 O   0  0  0  0  0  0  0  0  0  0  0  0
  160.2270  213.5510  150.3340 O   0  0  0  0  0  1  0  0  0  0  0  0
  1  5  1  0  0  0  0
  1  6  2  0  0  0  0
  2  8  1  0  0  0  0
  4  2  2  0  0  0  0
  5 11  1  6  0  0  0
  5  4  1  0  0  0  0
  6  7  1  0  0  0  0
  7 18  1  0  0  0  0
  7  8  2  0  0  0  0
  8  3  1  0  0  0  0
  9 14  1  0  0  0  0
 11 16  1  0  0  0  0
 12 14  2  0  0  0  0
 12 17  1  0  0  0  0
 13 12  1  0  0  0  0
 14 15  1  0  0  0  0
 15 10  1  0  0  0  0
 15 16  2  0  0  0  0
 17 11  2  0  0  0  0
 19 18  1  0  0  0  0
 20 23  1  0  0  0  0
 20 21  1  0  0  0  0
 20 22  1  1  0  0  0
 21 19  1  6  0  0  0
 23 21  1  0  0  0  0
 24  1  1  0  0  0  0
 25 24  1  0  0  0  0
 26 27  2  0  0  0  0
 27 25  1  0  0  0  0
 28 27  2  0  0  0  0
 29 30  1  6  0  0  0
 29 27  1  0  0  0  0
 29 31  1  0  0  0  0
 31 33  1  0  0  0  0
 32 31  2  0  0  0  0
M  END
>  <MODEL>
1

>  <REMARK>
 VINA RESULT:      -7.3      0.000      0.000
  Name = 
  9 active torsions:
  status: ('A' for Active; 'I' for Inactive)
    1  A    between atoms: N_1  and  S_10
    2  A    between atoms: N_1  and  C_29
    3  A    between atoms: C_2  and  C_29
    4  A    between atoms: C_7  and  S_10
    5  A    between atoms: C_7  and  C_11
    6  A    between atoms: C_9  and  C_13
    7  A    between atoms: C_15  and  C_23
    8  A    between atoms: C_15  and  C_25
    9  A    between atoms: C_17  and  C_25
                            x       y       z     vdW  Elec       q    Type
                         _______ _______ _______ _____ _____    ______ ____

>  <TORSDO>
F 9

$$$$
=
 OpenBabel11072410183D

 33 35  0  0  1  0  0  0  0  0999 V2000
  161.3000  208.9590  151.8670 C   0  0  0  0  0  0  0  0  0  0  0  0
  161.2450  207.4690  154.5350 C   0  0  0  0  0  3  0  0  0  0  0  0
  159.8100  208.6730  156.0940 O   0  0  0  0  0  1  0  0  0  0  0  0
  161.4670  206.9660  153.3220 C   0  0  0  0  0  3  0  0  0  0  0  0
  160.8490  207.5400  152.0920 C   0  0  2  0  0  3  0  0  0  0  0  0
  160.9670  209.9170  152.7350 C   0  0  0  0  0  3  0  0  0  0  0  0
  160.2720  209.7310  154.0310 C   0  0  0  0  0  0  0  0  0  0  0  0
  160.4210  208.6590  154.8430 C   0  0  0  0  0  0  0  0  0  0  0  0
  161.3270  203.7980  147.3400 Cl  0  0  0  0  0  0  0  0  0  0  0  0
  161.3350  203.0570  150.2360 F   0  0  0  0  0  0  0  0  0  0  0  0
  160.9950  206.6370  150.9000 C   0  0  0  0  0  0  0  0  0  0  0  0
  161.0730  206.2760  148.4990 C   0  0  0  0  0  0  0  0  0  0  0  0
  161.0460  206.7980  147.2110 O   0  0  0  0  0  1  0  0  0  0  0  0
  161.1990  204.8950  148.7070 C   0  0  0  0  0  0  0  0  0  0  0  0
  161.2180  204.3890  150.0150 C   0  0  0  0  0  0  0  0  0  0  0  0
  161.1130  205.2590  151.1040 C   0  0  0  0  0  3  0  0  0  0  0  0
  160.9710  207.1410  149.5910 C   0  0  0  0  0  3  0  0  0  0  0  0
  159.4910  210.9100  154.5170 C   0  0  0  0  0  2  0  0  0  0  0  0
  159.6720  212.0860  153.5740 C   0  0  0  0  0  2  0  0  0  0  0  0
  158.3210  213.9210  152.6370 C   0  0  2  0  0  3  0  0  0  0  0  0
  158.3420  212.4370  152.9390 C   0  0  1  0  0  3  0  0  0  0  0  0
  156.9430  214.3710  152.5730 N   0  0  0  0  0  1  0  0  0  0  0  0
  158.5760  212.9250  151.5250 C   0  0  0  0  0  2  0  0  0  0  0  0
  162.0460  209.3540  150.6270 C   0  0  0  0  0  2  0  0  0  0  0  0
  162.0690  210.8030  150.4770 N   0  0  0  0  0  2  0  0  0  0  0  0
  163.3820  211.7550  148.3830 O   0  0  0  0  0  0  0  0  0  0  0  0
  162.0500  211.1850  148.7870 S   0  0  0  0  0  0  0  0  0  0  0  0
  161.7660  209.9450  147.9830 O   0  0  0  0  0  0  0  0  0  0  0  0
  160.7770  212.3960  148.4830 C   0  0  2  0  0  3  0  0  0  0  0  0
  160.2070  212.1820  147.2270 O   0  0  0  0  0  1  0  0  0  0  0  0
  161.3310  213.7810  148.5690 C   0  0  0  0  0  0  0  0  0  0  0  0
  161.2120  214.4530  149.6270 O   0  0  0  0  0  1  0  0  0  0  0  0
  161.9500  214.3420  147.4610 O   0  0  0  0  0  0  0  0  0  0  0  0
  1  5  1  0  0  0  0
  1  6  2  0  0  0  0
  2  8  1  0  0  0  0
  4  2  2  0  0  0  0
  5 11  1  6  0  0  0
  5  4  1  0  0  0  0
  6  7  1  0  0  0  0
  7 18  1  0  0  0  0
  7  8  2  0  0  0  0
  8  3  1  0  0  0  0
  9 14  1  0  0  0  0
 11 16  1  0  0  0  0
 12 14  2  0  0  0  0
 12 17  1  0  0  0  0
 13 12  1  0  0  0  0
 14 15  1  0  0  0  0
 15 10  1  0  0  0  0
 15 16  2  0  0  0  0
 17 11  2  0  0  0  0
 19 18  1  0  0  0  0
 20 22  1  6  0  0  0
 20 21  1  0  0  0  0
 21 19  1  1  0  0  0
 23 20  1  0  0  0  0
 23 21  1  0  0  0  0
 24  1  1  0  0  0  0
 25 24  1  0  0  0  0
 26 27  2  0  0  0  0
 27 25  1  0  0  0  0
 28 27  2  0  0  0  0
 29 30  1  6  0  0  0
 29 31  1  0  0  0  0
 29 27  1  0  0  0  0
 31 32  1  0  0  0  0
 33 31  2  0  0  0  0
M  END
>  <MODEL>
2

>  <REMARK>
 VINA RESULT:      -7.2      1.294      1.552
  Name = 
  9 active torsions:
  status: ('A' for Active; 'I' for Inactive)
    1  A    between atoms: N_1  and  S_10
    2  A    between atoms: N_1  and  C_29
    3  A    between atoms: C_2  and  C_29
    4  A    between atoms: C_7  and  S_10
    5  A    between atoms: C_7  and  C_11
    6  A    between atoms: C_9  and  C_13
    7  A    between atoms: C_15  and  C_23
    8  A    between atoms: C_15  and  C_25
    9  A    between atoms: C_17  and  C_25
                            x       y       z     vdW  Elec       q    Type
                         _______ _______ _______ _____ _____    ______ ____

>  <TORSDO>
F 9

$$$$
=
 OpenBabel11072410183D

 33 35  0  0  1  0  0  0  0  0999 V2000
  161.6380  208.1230  150.3360 C   0  0  0  0  0  0  0  0  0  0  0  0
  161.7420  206.2680  152.7620 C   0  0  0  0  0  3  0  0  0  0  0  0
  160.4910  207.2760  154.5950 O   0  0  0  0  0  1  0  0  0  0  0  0
  161.8430  205.9380  151.4760 C   0  0  0  0  0  3  0  0  0  0  0  0
  161.1490  206.7000  150.3980 C   0  0  2  0  0  3  0  0  0  0  0  0
  161.4160  208.9550  151.3560 C   0  0  0  0  0  3  0  0  0  0  0  0
  160.8240  208.6050  152.6690 C   0  0  0  0  0  0  0  0  0  0  0  0
  160.9960  207.4250  153.3060 C   0  0  0  0  0  0  0  0  0  0  0  0
  161.1100  203.6470  145.1550 Cl  0  0  0  0  0  0  0  0  0  0  0  0
  161.8610  202.6020  147.8530 F   0  0  0  0  0  0  0  0  0  0  0  0
  161.1590  205.9740  149.0830 C   0  0  0  0  0  0  0  0  0  0  0  0
  160.7610  205.9000  146.6870 C   0  0  0  0  0  0  0  0  0  0  0  0
  160.3760  206.5490  145.5190 O   0  0  0  0  0  1  0  0  0  0  0  0
  161.1270  204.5470  146.6640 C   0  0  0  0  0  0  0  0  0  0  0  0
  161.5060  203.9110  147.8550 C   0  0  0  0  0  0  0  0  0  0  0  0
  161.5170  204.6230  149.0570 C   0  0  0  0  0  3  0  0  0  0  0  0
  160.7760  206.6080  147.8920 C   0  0  0  0  0  3  0  0  0  0  0  0
  160.1350  209.7240  153.3820 C   0  0  0  0  0  2  0  0  0  0  0  0
  160.8840  211.0270  153.1660 C   0  0  0  0  0  2  0  0  0  0  0  0
  159.6850  212.6980  151.8110 C   0  0  2  0  0  3  0  0  0  0  0  0
  159.9110  212.1870  153.2180 C   0  0  1  0  0  3  0  0  0  0  0  0
  159.2490  214.0820  151.8740 N   0  0  0  0  0  1  0  0  0  0  0  0
  158.6480  211.8150  152.4720 C   0  0  0  0  0  2  0  0  0  0  0  0
  162.2950  208.6700  149.1030 C   0  0  0  0  0  2  0  0  0  0  0  0
  161.4240  209.6300  148.4370 N   0  0  0  0  0  2  0  0  0  0  0  0
  162.3460  211.5340  150.0310 O   0  0  0  0  0  0  0  0  0  0  0  0
  162.1270  211.2080  148.5800 S   0  0  0  0  0  0  0  0  0  0  0  0
  163.4410  211.2530  147.8480 O   0  0  0  0  0  0  0  0  0  0  0  0
  161.0100  212.4030  147.8720 C   0  0  2  0  0  3  0  0  0  0  0  0
  160.3050  211.8280  146.8140 O   0  0  0  0  0  1  0  0  0  0  0  0
  161.7540  213.6100  147.4000 C   0  0  0  0  0  0  0  0  0  0  0  0
  161.7860  213.9030  146.1760 O   0  0  0  0  0  0  0  0  0  0  0  0
  162.4440  214.3920  148.3150 O   0  0  0  0  0  1  0  0  0  0  0  0
  1  5  1  0  0  0  0
  1  6  2  0  0  0  0
  2  8  1  0  0  0  0
  4  2  2  0  0  0  0
  5 11  1  6  0  0  0
  5  4  1  0  0  0  0
  6  7  1  0  0  0  0
  7  8  2  0  0  0  0
  7 18  1  0  0  0  0
  8  3  1  0  0  0  0
  9 14  1  0  0  0  0
 10 15  1  0  0  0  0
 12 17  1  0  0  0  0
 13 12  1  0  0  0  0
 14 12  2  0  0  0  0
 14 15  1  0  0  0  0
 15 16  2  0  0  0  0
 16 11  1  0  0  0  0
 17 11  2  0  0  0  0
 19 18  1  0  0  0  0
 20 22  1  1  0  0  0
 20 23  1  0  0  0  0
 20 21  1  0  0  0  0
 21 19  1  6  0  0  0
 23 21  1  0  0  0  0
 24  1  1  0  0  0  0
 25 27  1  0  0  0  0
 25 24  1  0  0  0  0
 27 26  2  0  0  0  0
 28 27  2  0  0  0  0
 29 30  1  6  0  0  0
 29 27  1  0  0  0  0
 31 29  1  0  0  0  0
 31 33  1  0  0  0  0
 32 31  2  0  0  0  0
M  END
>  <MODEL>
3

>  <REMARK>
 VINA RESULT:      -7.1      2.096      2.742
  Name = 
  9 active torsions:
  status: ('A' for Active; 'I' for Inactive)
    1  A    between atoms: N_1  and  S_10
    2  A    between atoms: N_1  and  C_29
    3  A    between atoms: C_2  and  C_29
    4  A    between atoms: C_7  and  S_10
    5  A    between atoms: C_7  and  C_11
    6  A    between atoms: C_9  and  C_13
    7  A    between atoms: C_15  and  C_23
    8  A    between atoms: C_15  and  C_25
    9  A    between atoms: C_17  and  C_25
                            x       y       z     vdW  Elec       q    Type
                         _______ _______ _______ _____ _____    ______ ____

>  <TORSDO>
F 9

$$$$
=
 OpenBabel11072410183D

 33 35  0  0  1  0  0  0  0  0999 V2000
  161.4550  208.4640  151.2750 C   0  0  0  0  0  0  0  0  0  0  0  0
  161.6790  206.5810  153.6710 C   0  0  0  0  0  3  0  0  0  0  0  0
  160.4250  207.5130  155.5420 O   0  0  0  0  0  1  0  0  0  0  0  0
  161.7680  206.2730  152.3790 C   0  0  0  0  0  3  0  0  0  0  0  0
  161.0230  207.0220  151.3260 C   0  0  2  0  0  3  0  0  0  0  0  0
  161.2200  209.2730  152.3110 C   0  0  0  0  0  3  0  0  0  0  0  0
  160.6670  208.8820  153.6290 C   0  0  0  0  0  0  0  0  0  0  0  0
  160.8980  207.7000  154.2460 C   0  0  0  0  0  0  0  0  0  0  0  0
  161.1840  204.2750  145.9180 Cl  0  0  0  0  0  0  0  0  0  0  0  0
  160.9040  207.2020  146.4540 F   0  0  0  0  0  0  0  0  0  0  0  0
  161.0370  206.3150  149.9990 C   0  0  0  0  0  0  0  0  0  0  0  0
  161.2210  204.2930  148.6650 C   0  0  0  0  0  0  0  0  0  0  0  0
  161.3620  202.9120  148.6030 O   0  0  0  0  0  1  0  0  0  0  0  0
  161.1280  205.0550  147.4910 C   0  0  0  0  0  0  0  0  0  0  0  0
  160.9920  206.4480  147.5780 C   0  0  0  0  0  0  0  0  0  0  0  0
  160.9510  207.0720  148.8280 C   0  0  0  0  0  3  0  0  0  0  0  0
  161.1770  204.9220  149.9120 C   0  0  0  0  0  3  0  0  0  0  0  0
  159.9490  209.9620  154.3710 C   0  0  0  0  0  2  0  0  0  0  0  0
  160.0430  211.2750  153.6140 C   0  0  0  0  0  2  0  0  0  0  0  0
  158.2460  212.8950  153.1560 C   0  0  2  0  0  3  0  0  0  0  0  0
  159.1120  212.2910  154.2410 C   0  0  1  0  0  3  0  0  0  0  0  0
  157.7820  214.2000  153.5910 N   0  0  0  0  0  1  0  0  0  0  0  0
  157.6800  211.8300  154.0720 C   0  0  0  0  0  2  0  0  0  0  0  0
  162.0660  209.0540  150.0380 C   0  0  0  0  0  2  0  0  0  0  0  0
  162.3930  210.4590  150.2430 N   0  0  0  0  0  2  0  0  0  0  0  0
  163.3790  211.6860  148.1130 O   0  0  0  0  0  0  0  0  0  0  0  0
  162.0780  211.3210  148.7740 S   0  0  0  0  0  0  0  0  0  0  0  0
  161.2610  210.4680  147.8430 O   0  0  0  0  0  0  0  0  0  0  0  0
  161.1790  212.8110  149.1600 C   0  0  2  0  0  3  0  0  0  0  0  0
  160.4170  212.6210  150.3140 O   0  0  0  0  0  1  0  0  0  0  0  0
  160.3000  213.2110  148.0210 C   0  0  0  0  0  0  0  0  0  0  0  0
  159.0470  213.2220  148.1530 O   0  0  0  0  0  1  0  0  0  0  0  0
  160.8670  213.5380  146.7980 O   0  0  0  0  0  0  0  0  0  0  0  0
  1  5  1  0  0  0  0
  1  6  2  0  0  0  0
  2  8  1  0  0  0  0
  4  2  2  0  0  0  0
  5 11  1  6  0  0  0
  5  4  1  0  0  0  0
  6  7  1  0  0  0  0
  7  8  2  0  0  0  0
  7 18  1  0  0  0  0
  8  3  1  0  0  0  0
  9 14  1  0  0  0  0
 10 15  1  0  0  0  0
 12 17  2  0  0  0  0
 13 12  1  0  0  0  0
 14 15  2  0  0  0  0
 14 12  1  0  0  0  0
 15 16  1  0  0  0  0
 16 11  2  0  0  0  0
 17 11  1  0  0  0  0
 19 18  1  0  0  0  0
 20 22  1  1  0  0  0
 20 23  1  0  0  0  0
 20 21  1  0  0  0  0
 21 19  1  6  0  0  0
 23 21  1  0  0  0  0
 24 25  1  0  0  0  0
 24  1  1  0  0  0  0
 26 27  2  0  0  0  0
 27 29  1  0  0  0  0
 27 25  1  0  0  0  0
 28 27  2  0  0  0  0
 29 30  1  1  0  0  0
 31 32  1  0  0  0  0
 31 29  1  0  0  0  0
 33 31  2  0  0  0  0
M  END
>  <MODEL>
4

>  <REMARK>
 VINA RESULT:      -7.1      1.798      2.416
  Name = 
  9 active torsions:
  status: ('A' for Active; 'I' for Inactive)
    1  A    between atoms: N_1  and  S_10
    2  A    between atoms: N_1  and  C_29
    3  A    between atoms: C_2  and  C_29
    4  A    between atoms: C_7  and  S_10
    5  A    between atoms: C_7  and  C_11
    6  A    between atoms: C_9  and  C_13
    7  A    between atoms: C_15  and  C_23
    8  A    between atoms: C_15  and  C_25
    9  A    between atoms: C_17  and  C_25
                            x       y       z     vdW  Elec       q    Type
                         _______ _______ _______ _____ _____    ______ ____

>  <TORSDO>
F 9

$$$$
=
 OpenBabel11072410183D

 33 35  0  0  1  0  0  0  0  0999 V2000
  161.5820  208.6130  150.0490 C   0  0  0  0  0  0  0  0  0  0  0  0
  160.3980  209.4820  152.7290 C   0  0  0  0  0  3  0  0  0  0  0  0
  161.2350  208.0160  154.4860 O   0  0  0  0  0  1  0  0  0  0  0  0
  160.6140  210.2310  151.6490 C   0  0  0  0  0  3  0  0  0  0  0  0
  161.7320  209.9630  150.7000 C   0  0  2  0  0  3  0  0  0  0  0  0
  161.6590  207.5000  150.7820 C   0  0  0  0  0  3  0  0  0  0  0  0
  161.7580  207.4210  152.2590 C   0  0  0  0  0  0  0  0  0  0  0  0
  161.1710  208.2820  153.1220 C   0  0  0  0  0  0  0  0  0  0  0  0
  162.6720  214.4460  146.7210 Cl  0  0  0  0  0  0  0  0  0  0  0  0
  164.2820  211.9490  147.0490 F   0  0  0  0  0  0  0  0  0  0  0  0
  161.9610  211.0990  149.7440 C   0  0  0  0  0  0  0  0  0  0  0  0
  161.3230  213.2400  148.7890 C   0  0  0  0  0  0  0  0  0  0  0  0
  160.4650  214.3340  148.7740 O   0  0  0  0  0  1  0  0  0  0  0  0
  162.3940  213.1610  147.8860 C   0  0  0  0  0  0  0  0  0  0  0  0
  163.2440  212.0450  147.9160 C   0  0  0  0  0  0  0  0  0  0  0  0
  163.0230  211.0200  148.8390 C   0  0  0  0  0  3  0  0  0  0  0  0
  161.1090  212.2130  149.7110 C   0  0  0  0  0  3  0  0  0  0  0  0
  162.4190  206.1920  152.7940 C   0  0  0  0  0  2  0  0  0  0  0  0
  161.4410  205.0310  152.8120 C   0  0  0  0  0  2  0  0  0  0  0  0
  160.8890  202.8570  151.7960 C   0  0  2  0  0  3  0  0  0  0  0  0
  161.7220  204.1120  151.6420 C   0  0  1  0  0  3  0  0  0  0  0  0
  161.5210  201.7760  151.0610 N   0  0  0  0  0  1  0  0  0  0  0  0
  160.4580  203.9380  150.8270 C   0  0  0  0  0  2  0  0  0  0  0  0
  161.4400  208.4740  148.5620 C   0  0  0  0  0  2  0  0  0  0  0  0
  162.3360  207.4450  148.0510 N   0  0  0  0  0  2  0  0  0  0  0  0
  160.2350  205.8450  148.2540 O   0  0  0  0  0  0  0  0  0  0  0  0
  161.3830  206.1820  147.3430 S   0  0  0  0  0  0  0  0  0  0  0  0
  160.8540  206.6260  146.0070 O   0  0  0  0  0  0  0  0  0  0  0  0
  162.4070  204.7380  147.1290 C   0  0  2  0  0  3  0  0  0  0  0  0
  163.3280  204.9560  146.1040 O   0  0  0  0  0  1  0  0  0  0  0  0
  161.5720  203.5370  146.8270 C   0  0  0  0  0  0  0  0  0  0  0  0
  161.2060  202.7620  147.7510 O   0  0  0  0  0  1  0  0  0  0  0  0
  161.2280  203.2530  145.5130 O   0  0  0  0  0  0  0  0  0  0  0  0
  1  5  1  0  0  0  0
  1  6  2  0  0  0  0
  2  8  1  0  0  0  0
  4  2  2  0  0  0  0
  5 11  1  6  0  0  0
  5  4  1  0  0  0  0
  6  7  1  0  0  0  0
  7 18  1  0  0  0  0
  7  8  2  0  0  0  0
  8  3  1  0  0  0  0
  9 14  1  0  0  0  0
 10 15  1  0  0  0  0
 12 17  2  0  0  0  0
 13 12  1  0  0  0  0
 14 15  2  0  0  0  0
 14 12  1  0  0  0  0
 15 16  1  0  0  0  0
 16 11  2  0  0  0  0
 17 11  1  0  0  0  0
 18 19  1  0  0  0  0
 20 22  1  6  0  0  0
 21 20  1  0  0  0  0
 21 19  1  1  0  0  0
 23 21  1  0  0  0  0
 23 20  1  0  0  0  0
 24  1  1  0  0  0  0
 25 24  1  0  0  0  0
 27 25  1  0  0  0  0
 27 26  2  0  0  0  0
 28 27  2  0  0  0  0
 29 30  1  6  0  0  0
 29 27  1  0  0  0  0
 31 29  1  0  0  0  0
 31 32  1  0  0  0  0
 33 31  2  0  0  0  0
M  END
>  <MODEL>
5

>  <REMARK>
 VINA RESULT:      -7.0      4.231      7.456
  Name = 
  9 active torsions:
  status: ('A' for Active; 'I' for Inactive)
    1  A    between atoms: N_1  and  S_10
    2  A    between atoms: N_1  and  C_29
    3  A    between atoms: C_2  and  C_29
    4  A    between atoms: C_7  and  S_10
    5  A    between atoms: C_7  and  C_11
    6  A    between atoms: C_9  and  C_13
    7  A    between atoms: C_15  and  C_23
    8  A    between atoms: C_15  and  C_25
    9  A    between atoms: C_17  and  C_25
                            x       y       z     vdW  Elec       q    Type
                         _______ _______ _______ _____ _____    ______ ____

>  <TORSDO>
F 9

$$$$
=
 OpenBabel11072410183D

 33 35  0  0  1  0  0  0  0  0999 V2000
  161.8050  208.4720  149.8150 C   0  0  0  0  0  0  0  0  0  0  0  0
  162.2460  206.3790  151.9980 C   0  0  0  0  0  3  0  0  0  0  0  0
  160.9690  207.0050  153.9770 O   0  0  0  0  0  1  0  0  0  0  0  0
  162.3260  206.2140  150.6790 C   0  0  0  0  0  3  0  0  0  0  0  0
  161.4950  207.0010  149.7230 C   0  0  2  0  0  3  0  0  0  0  0  0
  161.5320  209.1480  150.9340 C   0  0  0  0  0  3  0  0  0  0  0  0
  161.0480  208.5780  152.2140 C   0  0  0  0  0  0  0  0  0  0  0  0
  161.3910  207.3630  152.7000 C   0  0  0  0  0  0  0  0  0  0  0  0
  161.5820  204.8630  144.0450 Cl  0  0  0  0  0  0  0  0  0  0  0  0
  159.3220  206.2540  145.4210 F   0  0  0  0  0  0  0  0  0  0  0  0
  161.5310  206.4370  148.3300 C   0  0  0  0  0  0  0  0  0  0  0  0
  162.6970  205.3230  146.5130 C   0  0  0  0  0  0  0  0  0  0  0  0
  163.8450  204.7030  146.0320 O   0  0  0  0  0  1  0  0  0  0  0  0
  161.5670  205.4680  145.6950 C   0  0  0  0  0  0  0  0  0  0  0  0
  160.4230  206.1020  146.1990 C   0  0  0  0  0  0  0  0  0  0  0  0
  160.4100  206.5860  147.5100 C   0  0  0  0  0  3  0  0  0  0  0  0
  162.6780  205.8070  147.8240 C   0  0  0  0  0  3  0  0  0  0  0  0
  160.2630  209.5130  153.0770 C   0  0  0  0  0  2  0  0  0  0  0  0
  160.1850  210.8850  152.4330 C   0  0  0  0  0  2  0  0  0  0  0  0
  159.1410  212.9840  153.1900 C   0  0  2  0  0  3  0  0  0  0  0  0
  158.8730  211.5460  152.8020 C   0  0  1  0  0  3  0  0  0  0  0  0
  158.0700  213.4500  154.0520 N   0  0  0  0  0  1  0  0  0  0  0  0
  158.5800  212.6610  151.8220 C   0  0  0  0  0  2  0  0  0  0  0  0
  162.3320  209.2350  148.6360 C   0  0  0  0  0  2  0  0  0  0  0  0
  161.3310  210.1670  148.1330 N   0  0  0  0  0  2  0  0  0  0  0  0
  161.3980  212.4440  149.4830 O   0  0  0  0  0  0  0  0  0  0  0  0
  161.9600  211.7770  148.2590 S   0  0  0  0  0  0  0  0  0  0  0  0
  163.4610  211.7360  148.3490 O   0  0  0  0  0  0  0  0  0  0  0  0
  161.4750  212.7000  146.8130 C   0  0  2  0  0  3  0  0  0  0  0  0
  161.7080  214.0610  147.0170 O   0  0  0  0  0  1  0  0  0  0  0  0
  160.0350  212.4660  146.4920 C   0  0  0  0  0  0  0  0  0  0  0  0
  159.7060  211.8310  145.4550 O   0  0  0  0  0  0  0  0  0  0  0  0
  159.0540  212.9820  147.3250 O   0  0  0  0  0  1  0  0  0  0  0  0
  1  6  2  0  0  0  0
  2  8  1  0  0  0  0
  4  2  2  0  0  0  0
  5 11  1  6  0  0  0
  5  1  1  0  0  0  0
  5  4  1  0  0  0  0
  6  7  1  0  0  0  0
  7  8  2  0  0  0  0
  7 18  1  0  0  0  0
  8  3  1  0  0  0  0
  9 14  1  0  0  0  0
 10 15  1  0  0  0  0
 12 17  2  0  0  0  0
 13 12  1  0  0  0  0
 14 15  2  0  0  0  0
 14 12  1  0  0  0  0
 15 16  1  0  0  0  0
 16 11  2  0  0  0  0
 17 11  1  0  0  0  0
 19 18  1  0  0  0  0
 20 22  1  1  0  0  0
 21 19  1  6  0  0  0
 21 20  1  0  0  0  0
 23 21  1  0  0  0  0
 23 20  1  0  0  0  0
 24  1  1  0  0  0  0
 25 27  1  0  0  0  0
 25 24  1  0  0  0  0
 27 28  2  0  0  0  0
 27 26  2  0  0  0  0
 29 30  1  1  0  0  0
 29 27  1  0  0  0  0
 31 29  1  0  0  0  0
 31 33  1  0  0  0  0
 32 31  2  0  0  0  0
M  END
>  <MODEL>
6

>  <REMARK>
 VINA RESULT:      -7.0      2.537      3.438
  Name = 
  9 active torsions:
  status: ('A' for Active; 'I' for Inactive)
    1  A    between atoms: N_1  and  S_10
    2  A    between atoms: N_1  and  C_29
    3  A    between atoms: C_2  and  C_29
    4  A    between atoms: C_7  and  S_10
    5  A    between atoms: C_7  and  C_11
    6  A    between atoms: C_9  and  C_13
    7  A    between atoms: C_15  and  C_23
    8  A    between atoms: C_15  and  C_25
    9  A    between atoms: C_17  and  C_25
                            x       y       z     vdW  Elec       q    Type
                         _______ _______ _______ _____ _____    ______ ____

>  <TORSDO>
F 9

$$$$
=
 OpenBabel11072410183D

 33 35  0  0  1  0  0  0  0  0999 V2000
  161.6120  207.4740  149.4840 C   0  0  0  0  0  0  0  0  0  0  0  0
  160.3260  204.7020  149.5480 C   0  0  0  0  0  3  0  0  0  0  0  0
  161.5520  203.2160  148.0550 O   0  0  0  0  0  1  0  0  0  0  0  0
  160.3170  205.6300  150.5030 C   0  0  0  0  0  3  0  0  0  0  0  0
  161.4390  206.5930  150.6930 C   0  0  2  0  0  3  0  0  0  0  0  0
  161.9850  206.9460  148.3150 C   0  0  0  0  0  3  0  0  0  0  0  0
  162.1430  205.5050  148.0070 C   0  0  0  0  0  0  0  0  0  0  0  0
  161.3840  204.5140  148.5300 C   0  0  0  0  0  0  0  0  0  0  0  0
  161.1640  209.4540  156.0370 Cl  0  0  0  0  0  0  0  0  0  0  0  0
  160.6360  206.5610  155.5030 F   0  0  0  0  0  0  0  0  0  0  0  0
  161.3500  207.3300  151.9990 C   0  0  0  0  0  0  0  0  0  0  0  0
  161.5740  209.3560  153.3220 C   0  0  0  0  0  0  0  0  0  0  0  0
  161.8580  210.7150  153.3860 O   0  0  0  0  0  1  0  0  0  0  0  0
  161.2370  208.6410  154.4800 C   0  0  0  0  0  0  0  0  0  0  0  0
  160.9600  207.2690  154.3930 C   0  0  0  0  0  0  0  0  0  0  0  0
  161.0210  206.6200  153.1570 C   0  0  0  0  0  3  0  0  0  0  0  0
  161.6310  208.7020  152.0890 C   0  0  0  0  0  3  0  0  0  0  0  0
  163.1050  205.1830  146.9100 C   0  0  0  0  0  2  0  0  0  0  0  0
  162.6470  205.8120  145.6060 C   0  0  0  0  0  2  0  0  0  0  0  0
  160.4980  204.9150  144.8010 C   0  0  2  0  0  3  0  0  0  0  0  0
  162.0020  204.7550  144.7320 C   0  0  1  0  0  3  0  0  0  0  0  0
  159.8710  203.6490  144.4700 N   0  0  0  0  0  1  0  0  0  0  0  0
  161.2600  205.4280  143.5980 C   0  0  0  0  0  2  0  0  0  0  0  0
  161.4670  208.9640  149.5750 C   0  0  0  0  0  2  0  0  0  0  0  0
  161.9530  209.6060  148.3600 N   0  0  0  0  0  2  0  0  0  0  0  0
  161.6230  211.6270  150.0410 O   0  0  0  0  0  0  0  0  0  0  0  0
  161.9810  211.3200  148.6130 S   0  0  0  0  0  0  0  0  0  0  0  0
  163.3510  211.8620  148.3080 O   0  0  0  0  0  0  0  0  0  0  0  0
  160.7850  212.0820  147.5320 C   0  0  2  0  0  3  0  0  0  0  0  0
  161.3940  212.4450  146.3300 O   0  0  0  0  0  1  0  0  0  0  0  0
  160.1700  213.2780  148.1810 C   0  0  0  0  0  0  0  0  0  0  0  0
  158.9520  213.2760  148.5040 O   0  0  0  0  0  1  0  0  0  0  0  0
  160.9380  214.4140  148.3950 O   0  0  0  0  0  0  0  0  0  0  0  0
  1 24  1  0  0  0  0
  1  5  1  0  0  0  0
  2  4  2  0  0  0  0
  3  8  1  0  0  0  0
  4  5  1  0  0  0  0
  5 11  1  1  0  0  0
  6  1  2  0  0  0  0
  7  6  1  0  0  0  0
  7  8  2  0  0  0  0
  8  2  1  0  0  0  0
 11 17  2  0  0  0  0
 11 16  1  0  0  0  0
 12 13  1  0  0  0  0
 12 14  2  0  0  0  0
 14  9  1  0  0  0  0
 15 14  1  0  0  0  0
 15 10  1  0  0  0  0
 16 15  2  0  0  0  0
 17 12  1  0  0  0  0
 18  7  1  0  0  0  0
 19 18  1  0  0  0  0
 20 22  1  6  0  0  0
 21 20  1  0  0  0  0
 21 19  1  1  0  0  0
 23 21  1  0  0  0  0
 23 20  1  0  0  0  0
 25 27  1  0  0  0  0
 25 24  1  0  0  0  0
 27 26  2  0  0  0  0
 28 27  2  0  0  0  0
 29 30  1  6  0  0  0
 29 31  1  0  0  0  0
 29 27  1  0  0  0  0
 31 33  2  0  0  0  0
 31 32  1  0  0  0  0
M  END
>  <MODEL>
7

>  <REMARK>
 VINA RESULT:      -6.4      3.630      7.122
  Name = 
  9 active torsions:
  status: ('A' for Active; 'I' for Inactive)
    1  A    between atoms: N_1  and  S_10
    2  A    between atoms: N_1  and  C_29
    3  A    between atoms: C_2  and  C_29
    4  A    between atoms: C_7  and  S_10
    5  A    between atoms: C_7  and  C_11
    6  A    between atoms: C_9  and  C_13
    7  A    between atoms: C_15  and  C_23
    8  A    between atoms: C_15  and  C_25
    9  A    between atoms: C_17  and  C_25
                            x       y       z     vdW  Elec       q    Type
                         _______ _______ _______ _____ _____    ______ ____

>  <TORSDO>
F 9

$$$$
=
 OpenBabel11072410183D

 33 35  0  0  1  0  0  0  0  0999 V2000
  161.6110  207.4770  149.4870 C   0  0  0  0  0  0  0  0  0  0  0  0
  160.3590  204.6930  149.6310 C   0  0  0  0  0  3  0  0  0  0  0  0
  161.5610  203.1970  148.1290 O   0  0  0  0  0  1  0  0  0  0  0  0
  160.3660  205.6360  150.5720 C   0  0  0  0  0  3  0  0  0  0  0  0
  161.4820  206.6150  150.7150 C   0  0  2  0  0  3  0  0  0  0  0  0
  161.9570  206.9350  148.3170 C   0  0  0  0  0  3  0  0  0  0  0  0
  162.1230  205.4910  148.0280 C   0  0  0  0  0  0  0  0  0  0  0  0
  161.3910  204.5000  148.5880 C   0  0  0  0  0  0  0  0  0  0  0  0
  161.1520  209.7920  155.8730 Cl  0  0  0  0  0  0  0  0  0  0  0  0
  161.9860  210.7910  153.1820 F   0  0  0  0  0  0  0  0  0  0  0  0
  161.4200  207.3730  152.0110 C   0  0  0  0  0  0  0  0  0  0  0  0
  160.9220  207.4940  154.3860 C   0  0  0  0  0  0  0  0  0  0  0  0
  160.5060  206.8630  155.5530 O   0  0  0  0  0  1  0  0  0  0  0  0
  161.2530  208.8570  154.3890 C   0  0  0  0  0  0  0  0  0  0  0  0
  161.6650  209.4730  153.1990 C   0  0  0  0  0  0  0  0  0  0  0  0
  161.7430  208.7330  152.0170 C   0  0  0  0  0  3  0  0  0  0  0  0
  161.0040  206.7580  153.2010 C   0  0  0  0  0  3  0  0  0  0  0  0
  163.0590  205.1620  146.9090 C   0  0  0  0  0  2  0  0  0  0  0  0
  162.5790  205.7980  145.6170 C   0  0  0  0  0  2  0  0  0  0  0  0
  160.4630  204.8380  144.7990 C   0  0  2  0  0  3  0  0  0  0  0  0
  161.9720  204.7360  144.7230 C   0  0  1  0  0  3  0  0  0  0  0  0
  159.8840  203.5550  144.4420 N   0  0  0  0  0  1  0  0  0  0  0  0
  161.2020  205.4030  143.6040 C   0  0  0  0  0  2  0  0  0  0  0  0
  161.4500  208.9670  149.5580 C   0  0  0  0  0  2  0  0  0  0  0  0
  161.9650  209.6010  148.3500 N   0  0  0  0  0  2  0  0  0  0  0  0
  161.6710  211.6290  150.0280 O   0  0  0  0  0  0  0  0  0  0  0  0
  161.9890  211.3160  148.5920 S   0  0  0  0  0  0  0  0  0  0  0  0
  163.3460  211.8650  148.2440 O   0  0  0  0  0  0  0  0  0  0  0  0
  160.7570  212.0640  147.5420 C   0  0  2  0  0  3  0  0  0  0  0  0
  161.3030  212.3330  146.2860 O   0  0  0  0  0  1  0  0  0  0  0  0
  160.2290  213.3200  148.1550 C   0  0  0  0  0  0  0  0  0  0  0  0
  160.9440  214.3560  148.2080 O   0  0  0  0  0  0  0  0  0  0  0  0
  158.9550  213.3340  148.7020 O   0  0  0  0  0  1  0  0  0  0  0  0
  1 24  1  0  0  0  0
  1  5  1  0  0  0  0
  2  4  2  0  0  0  0
  3  8  1  0  0  0  0
  4  5  1  0  0  0  0
  5 11  1  1  0  0  0
  6  1  2  0  0  0  0
  7  6  1  0  0  0  0
  7  8  2  0  0  0  0
  8  2  1  0  0  0  0
 10 15  1  0  0  0  0
 11 16  2  0  0  0  0
 11 17  1  0  0  0  0
 12 14  1  0  0  0  0
 12 13  1  0  0  0  0
 14  9  1  0  0  0  0
 15 14  2  0  0  0  0
 16 15  1  0  0  0  0
 17 12  2  0  0  0  0
 18  7  1  0  0  0  0
 19 18  1  0  0  0  0
 20 22  1  6  0  0  0
 21 20  1  0  0  0  0
 21 19  1  1  0  0  0
 23 21  1  0  0  0  0
 23 20  1  0  0  0  0
 25 27  1  0  0  0  0
 25 24  1  0  0  0  0
 27 26  2  0  0  0  0
 28 27  2  0  0  0  0
 29 30  1  6  0  0  0
 29 31  1  0  0  0  0
 29 27  1  0  0  0  0
 31 32  2  0  0  0  0
 31 33  1  0  0  0  0
M  END
>  <MODEL>
8

>  <REMARK>
 VINA RESULT:      -6.3      3.721      7.232
  Name = 
  9 active torsions:
  status: ('A' for Active; 'I' for Inactive)
    1  A    between atoms: N_1  and  S_10
    2  A    between atoms: N_1  and  C_29
    3  A    between atoms: C_2  and  C_29
    4  A    between atoms: C_7  and  S_10
    5  A    between atoms: C_7  and  C_11
    6  A    between atoms: C_9  and  C_13
    7  A    between atoms: C_15  and  C_23
    8  A    between atoms: C_15  and  C_25
    9  A    between atoms: C_17  and  C_25
                            x       y       z     vdW  Elec       q    Type
                         _______ _______ _______ _____ _____    ______ ____

>  <TORSDO>
F 9

$$$$
=
 OpenBabel11072410183D

 33 35  0  0  1  0  0  0  0  0999 V2000
  161.3840  208.4390  152.0720 C   0  0  0  0  0  0  0  0  0  0  0  0
  161.2200  207.4560  154.9600 C   0  0  0  0  0  3  0  0  0  0  0  0
  159.8850  209.0230  156.2650 O   0  0  0  0  0  1  0  0  0  0  0  0
  161.4010  206.7300  153.8590 C   0  0  0  0  0  3  0  0  0  0  0  0
  160.8260  207.1210  152.5400 C   0  0  2  0  0  3  0  0  0  0  0  0
  161.1260  209.5580  152.7520 C   0  0  0  0  0  3  0  0  0  0  0  0
  160.4220  209.6590  154.0520 C   0  0  0  0  0  0  0  0  0  0  0  0
  160.4910  208.7410  155.0430 C   0  0  0  0  0  0  0  0  0  0  0  0
  161.2200  202.7360  148.3650 Cl  0  0  0  0  0  0  0  0  0  0  0  0
  160.6320  205.6290  147.9010 F   0  0  0  0  0  0  0  0  0  0  0  0
  160.9000  206.0120  151.5280 C   0  0  0  0  0  0  0  0  0  0  0  0
  161.2860  203.6860  150.9420 C   0  0  0  0  0  0  0  0  0  0  0  0
  161.5750  202.3860  151.3390 O   0  0  0  0  0  1  0  0  0  0  0  0
  161.0980  203.9930  149.5860 C   0  0  0  0  0  0  0  0  0  0  0  0
  160.8130  205.3130  149.2070 C   0  0  0  0  0  0  0  0  0  0  0  0
  160.7190  206.3160  150.1760 C   0  0  0  0  0  3  0  0  0  0  0  0
  161.1890  204.6920  151.9060 C   0  0  0  0  0  3  0  0  0  0  0  0
  159.7350  210.9610  154.3120 C   0  0  0  0  0  2  0  0  0  0  0  0
  158.6800  211.2220  153.2510 C   0  0  0  0  0  2  0  0  0  0  0  0
  157.3050  213.2650  153.1960 C   0  0  2  0  0  3  0  0  0  0  0  0
  158.6740  212.6930  152.8920 C   0  0  1  0  0  3  0  0  0  0  0  0
  157.0920  214.4450  152.3770 N   0  0  0  0  0  1  0  0  0  0  0  0
  158.4580  213.5140  154.1450 C   0  0  0  0  0  2  0  0  0  0  0  0
  162.1560  208.5490  150.7900 C   0  0  0  0  0  2  0  0  0  0  0  0
  162.2990  209.9440  150.3910 N   0  0  0  0  0  2  0  0  0  0  0  0
  163.5170  209.8050  148.0440 O   0  0  0  0  0  0  0  0  0  0  0  0
  162.1700  210.0440  148.6660 S   0  0  0  0  0  0  0  0  0  0  0  0
  161.1920  209.0160  148.1650 O   0  0  0  0  0  0  0  0  0  0  0  0
  161.5990  211.6740  148.2240 C   0  0  2  0  0  3  0  0  0  0  0  0
  160.5620  211.5790  147.2950 O   0  0  0  0  0  1  0  0  0  0  0  0
  162.7170  212.4940  147.6670 C   0  0  0  0  0  0  0  0  0  0  0  0
  163.6900  212.8270  148.3950 O   0  0  0  0  0  1  0  0  0  0  0  0
  162.6640  212.9210  146.3490 O   0  0  0  0  0  0  0  0  0  0  0  0
  1  5  1  0  0  0  0
  1  6  2  0  0  0  0
  2  8  1  0  0  0  0
  4  2  2  0  0  0  0
  5 11  1  6  0  0  0
  5  4  1  0  0  0  0
  6  7  1  0  0  0  0
  7 18  1  0  0  0  0
  7  8  2  0  0  0  0
  8  3  1  0  0  0  0
  9 14  1  0  0  0  0
 10 15  1  0  0  0  0
 11 17  1  0  0  0  0
 12 13  1  0  0  0  0
 12 17  2  0  0  0  0
 14 12  1  0  0  0  0
 15 14  2  0  0  0  0
 15 16  1  0  0  0  0
 16 11  2  0  0  0  0
 19 18  1  0  0  0  0
 20 22  1  6  0  0  0
 20 23  1  0  0  0  0
 21 20  1  0  0  0  0
 21 19  1  1  0  0  0
 21 23  1  0  0  0  0
 24  1  1  0  0  0  0
 25 24  1  0  0  0  0
 26 27  2  0  0  0  0
 27 25  1  0  0  0  0
 28 27  2  0  0  0  0
 29 30  1  6  0  0  0
 29 27  1  0  0  0  0
 31 29  1  0  0  0  0
 31 32  1  0  0  0  0
 33 31  2  0  0  0  0
M  END
>  <MODEL>
9

>  <REMARK>
 VINA RESULT:      -6.1      1.738      2.196
  Name = 
  9 active torsions:
  status: ('A' for Active; 'I' for Inactive)
    1  A    between atoms: N_1  and  S_10
    2  A    between atoms: N_1  and  C_29
    3  A    between atoms: C_2  and  C_29
    4  A    between atoms: C_7  and  S_10
    5  A    between atoms: C_7  and  C_11
    6  A    between atoms: C_9  and  C_13
    7  A    between atoms: C_15  and  C_23
    8  A    between atoms: C_15  and  C_25
    9  A    between atoms: C_17  and  C_25
                            x       y       z     vdW  Elec       q    Type
                         _______ _______ _______ _____ _____    ______ ____

>  <TORSDO>
F 9

$$$$
