=
 OpenBabel11072411183D

 28 30  0  0  1  0  0  0  0  0999 V2000
  160.6310  206.5780  154.0710 N   0  0  0  0  0  2  0  0  0  0  0  0
  161.4620  207.7790  154.0220 C   0  0  2  0  0  3  0  0  0  0  0  0
  160.8970  208.7870  154.9030 N   0  0  0  0  0  1  0  0  0  0  0  0
  161.4360  207.4260  151.5200 C   0  0  0  0  0  0  0  0  0  0  0  0
  161.8890  209.6140  152.3910 N   0  0  0  0  0  0  0  0  0  0  0  0
  161.8890  209.2800  150.0260 C   0  0  0  0  0  0  0  0  0  0  0  0
  161.2260  205.5720  153.1960 C   0  0  0  0  0  2  0  0  0  0  0  0
  161.0480  205.9830  151.7320 C   0  0  2  0  0  3  0  0  0  0  0  0
  162.0440  210.1140  151.1350 C   0  0  0  0  0  3  0  0  0  0  0  0
  161.5690  208.3080  152.6120 C   0  0  0  0  0  0  0  0  0  0  0  0
  161.5780  207.9330  150.2230 C   0  0  0  0  0  3  0  0  0  0  0  0
  162.0240  209.8280  148.6450 C   0  0  0  0  0  2  0  0  0  0  0  0
  162.1840  211.3410  148.6710 C   0  0  0  0  0  2  0  0  0  0  0  0
  161.2390  211.9970  147.6800 C   0  0  0  0  0  2  0  0  0  0  0  0
  161.1960  213.0060  145.7180 C   0  0  0  0  0  1  0  0  0  0  0  0
  161.9480  212.9020  146.8890 O   0  0  0  0  0  0  0  0  0  0  0  0
  161.8180  205.1470  150.9190 O   0  0  0  0  0  0  0  0  0  0  0  0
  160.9210  204.1960  150.4280 C   0  0  0  0  0  2  0  0  0  0  0  0
  161.8470  204.8720  146.8830 C   0  0  0  0  0  3  0  0  0  0  0  0
  161.1770  203.9710  148.9740 C   0  0  0  0  0  0  0  0  0  0  0  0
  160.3710  201.7010  149.1580 O   0  0  0  0  0  1  0  0  0  0  0  0
  161.0970  202.5670  146.9870 C   0  0  0  0  0  0  0  0  0  0  0  0
  161.6390  205.0030  148.2180 N   0  0  0  0  0  0  0  0  0  0  0  0
  160.8820  202.7350  148.3760 C   0  0  0  0  0  0  0  0  0  0  0  0
  161.5800  203.6590  146.2480 C   0  0  0  0  0  3  0  0  0  0  0  0
  161.3580  200.0490  146.7300 C   0  0  0  0  0  1  0  0  0  0  0  0
  160.8060  201.3260  146.3040 N   0  0  0  0  0  0  0  0  0  0  0  0
  160.0040  201.3190  145.0900 C   0  0  0  0  0  1  0  0  0  0  0  0
  2  1  1  0  0  0  0
  2  3  1  1  0  0  0
  4  8  1  0  0  0  0
  4 10  1  0  0  0  0
  5 10  2  0  0  0  0
  6 11  1  0  0  0  0
  6  9  2  0  0  0  0
  7  1  1  0  0  0  0
  8 17  1  6  0  0  0
  8  7  1  0  0  0  0
  9  5  1  0  0  0  0
 10  2  1  0  0  0  0
 11  4  2  0  0  0  0
 12 13  1  0  0  0  0
 12  6  1  0  0  0  0
 14 13  1  0  0  0  0
 15 16  1  0  0  0  0
 16 14  1  0  0  0  0
 18 17  1  0  0  0  0
 19 23  1  0  0  0  0
 20 18  1  0  0  0  0
 22 24  2  0  0  0  0
 23 20  2  0  0  0  0
 24 20  1  0  0  0  0
 24 21  1  0  0  0  0
 25 19  2  0  0  0  0
 25 22  1  0  0  0  0
 27 26  1  0  0  0  0
 27 22  1  0  0  0  0
 28 27  1  0  0  0  0
M  END
>  <MODEL>
1

>  <REMARK>
 VINA RESULT:      -7.5      0.000      0.000
  Name = 
  8 active torsions:
  status: ('A' for Active; 'I' for Inactive)
    1  A    between atoms: C_3  and  C_18
    2  A    between atoms: C_7  and  N_8
    3  A    between atoms: O_12  and  C_26
    4  A    between atoms: C_13  and  C_15
    5  A    between atoms: C_13  and  C_16
    6  A    between atoms: C_15  and  C_26
    7  A    between atoms: C_18  and  O_25
    8  A    between atoms: C_23  and  O_25
                            x       y       z     vdW  Elec       q    Type
                         _______ _______ _______ _____ _____    ______ ____

>  <TORSDO>
F 8

$$$$
=
 OpenBabel11072411183D

 28 30  0  0  1  0  0  0  0  0999 V2000
  161.0010  207.0080  146.3250 N   0  0  0  0  0  2  0  0  0  0  0  0
  161.6280  205.8330  145.7230 C   0  0  2  0  0  3  0  0  0  0  0  0
  161.1020  205.6450  144.3810 N   0  0  0  0  0  1  0  0  0  0  0  0
  161.1810  204.7270  147.9510 C   0  0  0  0  0  0  0  0  0  0  0  0
  161.4740  203.3610  146.0010 N   0  0  0  0  0  0  0  0  0  0  0  0
  161.0750  202.3110  148.1090 C   0  0  0  0  0  0  0  0  0  0  0  0
  161.5580  207.1900  147.6630 C   0  0  0  0  0  2  0  0  0  0  0  0
  161.0500  206.0860  148.5930 C   0  0  2  0  0  3  0  0  0  0  0  0
  161.3160  202.2270  146.7360 C   0  0  0  0  0  3  0  0  0  0  0  0
  161.3900  204.6000  146.5620 C   0  0  0  0  0  0  0  0  0  0  0  0
  161.0020  203.5680  148.7140 C   0  0  0  0  0  3  0  0  0  0  0  0
  160.8680  201.0740  148.9160 C   0  0  0  0  0  2  0  0  0  0  0  0
  160.4090  201.4120  150.3270 C   0  0  0  0  0  2  0  0  0  0  0  0
  161.5920  201.4600  151.2780 C   0  0  0  0  0  2  0  0  0  0  0  0
  160.4900  203.1080  152.2460 C   0  0  0  0  0  1  0  0  0  0  0  0
  161.7510  202.7600  151.7600 O   0  0  0  0  0  0  0  0  0  0  0  0
  161.7640  206.1290  149.7940 O   0  0  0  0  0  0  0  0  0  0  0  0
  161.7440  207.4710  150.1790 C   0  0  0  0  0  2  0  0  0  0  0  0
  161.1310  206.4450  153.7070 C   0  0  0  0  0  3  0  0  0  0  0  0
  161.5030  207.5670  151.6490 C   0  0  0  0  0  0  0  0  0  0  0  0
  161.3930  209.9750  151.4990 O   0  0  0  0  0  1  0  0  0  0  0  0
  161.0510  208.8700  153.6560 C   0  0  0  0  0  0  0  0  0  0  0  0
  161.3950  206.4230  152.3760 N   0  0  0  0  0  0  0  0  0  0  0  0
  161.3190  208.8150  152.2670 C   0  0  0  0  0  0  0  0  0  0  0  0
  160.9540  207.6620  154.3650 C   0  0  0  0  0  3  0  0  0  0  0  0
  159.5830  210.8460  154.2990 C   0  0  0  0  0  1  0  0  0  0  0  0
  160.8420  210.1180  154.3540 N   0  0  0  0  0  0  0  0  0  0  0  0
  161.9310  210.7510  155.0810 C   0  0  0  0  0  1  0  0  0  0  0  0
  1  7  1  0  0  0  0
  2  3  1  6  0  0  0
  2  1  1  0  0  0  0
  2 10  1  0  0  0  0
  4  8  1  0  0  0  0
  4 11  1  0  0  0  0
  5 10  1  0  0  0  0
  5  9  2  0  0  0  0
  6 11  2  0  0  0  0
  6 12  1  0  0  0  0
  7  8  1  0  0  0  0
  8 17  1  1  0  0  0
  9  6  1  0  0  0  0
 10  4  2  0  0  0  0
 12 13  1  0  0  0  0
 13 14  1  0  0  0  0
 14 16  1  0  0  0  0
 16 15  1  0  0  0  0
 17 18  1  0  0  0  0
 18 20  1  0  0  0  0
 19 25  1  0  0  0  0
 20 24  2  0  0  0  0
 20 23  1  0  0  0  0
 21 24  1  0  0  0  0
 22 27  1  0  0  0  0
 22 25  2  0  0  0  0
 23 19  2  0  0  0  0
 24 22  1  0  0  0  0
 26 27  1  0  0  0  0
 27 28  1  0  0  0  0
M  END
>  <MODEL>
2

>  <REMARK>
 VINA RESULT:      -7.2      2.527      8.633
  Name = 
  8 active torsions:
  status: ('A' for Active; 'I' for Inactive)
    1  A    between atoms: C_3  and  C_18
    2  A    between atoms: C_7  and  N_8
    3  A    between atoms: O_12  and  C_26
    4  A    between atoms: C_13  and  C_15
    5  A    between atoms: C_13  and  C_16
    6  A    between atoms: C_15  and  C_26
    7  A    between atoms: C_18  and  O_25
    8  A    between atoms: C_23  and  O_25
                            x       y       z     vdW  Elec       q    Type
                         _______ _______ _______ _____ _____    ______ ____

>  <TORSDO>
F 8

$$$$
=
 OpenBabel11072411183D

 28 30  0  0  1  0  0  0  0  0999 V2000
  161.5310  205.2380  153.1750 N   0  0  0  0  0  2  0  0  0  0  0  0
  160.8240  204.4340  152.1800 C   0  0  2  0  0  3  0  0  0  0  0  0
  161.2850  203.0580  152.2610 N   0  0  0  0  0  1  0  0  0  0  0  0
  161.3070  206.3530  150.6090 C   0  0  0  0  0  0  0  0  0  0  0  0
  160.8700  204.1760  149.7010 N   0  0  0  0  0  0  0  0  0  0  0  0
  161.3030  205.9940  148.2120 C   0  0  0  0  0  0  0  0  0  0  0  0
  161.0380  206.6100  153.0890 C   0  0  0  0  0  2  0  0  0  0  0  0
  161.5300  207.2600  151.7940 C   0  0  2  0  0  3  0  0  0  0  0  0
  161.0030  204.6470  148.4320 C   0  0  0  0  0  3  0  0  0  0  0  0
  161.0360  204.9810  150.7880 C   0  0  0  0  0  0  0  0  0  0  0  0
  161.4610  206.8450  149.3080 C   0  0  0  0  0  3  0  0  0  0  0  0
  161.4830  206.5100  146.8240 C   0  0  0  0  0  2  0  0  0  0  0  0
  162.0770  205.4420  145.9170 C   0  0  0  0  0  2  0  0  0  0  0  0
  161.3450  205.4010  144.5870 C   0  0  0  0  0  2  0  0  0  0  0  0
  161.1650  203.2780  145.1620 C   0  0  0  0  0  1  0  0  0  0  0  0
  160.4530  204.3270  144.5790 O   0  0  0  0  0  0  0  0  0  0  0  0
  160.8670  208.4770  151.6080 O   0  0  0  0  0  0  0  0  0  0  0  0
  161.7340  209.4430  152.1260 C   0  0  0  0  0  2  0  0  0  0  0  0
  159.7140  212.5290  152.6480 C   0  0  0  0  0  3  0  0  0  0  0  0
  160.9440  210.5060  152.8140 C   0  0  0  0  0  0  0  0  0  0  0  0
  161.4110  209.4990  154.9590 O   0  0  0  0  0  1  0  0  0  0  0  0
  160.0960  211.5590  154.8390 C   0  0  0  0  0  0  0  0  0  0  0  0
  160.4030  211.5100  152.0730 N   0  0  0  0  0  0  0  0  0  0  0  0
  160.8160  210.5140  154.2120 C   0  0  0  0  0  0  0  0  0  0  0  0
  159.5510  212.5710  154.0320 C   0  0  0  0  0  3  0  0  0  0  0  0
  158.7230  211.1930  156.9490 C   0  0  0  0  0  1  0  0  0  0  0  0
  159.9330  211.6350  156.2730 N   0  0  0  0  0  0  0  0  0  0  0  0
  160.9590  212.2470  157.1040 C   0  0  0  0  0  1  0  0  0  0  0  0
  2  3  1  6  0  0  0
  2  1  1  0  0  0  0
  4 10  1  0  0  0  0
  4  8  1  0  0  0  0
  5 10  2  0  0  0  0
  6  9  2  0  0  0  0
  6 11  1  0  0  0  0
  7  1  1  0  0  0  0
  8 17  1  6  0  0  0
  8  7  1  0  0  0  0
  9  5  1  0  0  0  0
 10  2  1  0  0  0  0
 11  4  2  0  0  0  0
 12  6  1  0  0  0  0
 13 12  1  0  0  0  0
 14 13  1  0  0  0  0
 16 14  1  0  0  0  0
 16 15  1  0  0  0  0
 17 18  1  0  0  0  0
 18 20  1  0  0  0  0
 19 25  1  0  0  0  0
 20 24  2  0  0  0  0
 22 27  1  0  0  0  0
 23 19  2  0  0  0  0
 23 20  1  0  0  0  0
 24 22  1  0  0  0  0
 24 21  1  0  0  0  0
 25 22  2  0  0  0  0
 27 26  1  0  0  0  0
 27 28  1  0  0  0  0
M  END
>  <MODEL>
3

>  <REMARK>
 VINA RESULT:      -7.2      3.087      8.232
  Name = 
  8 active torsions:
  status: ('A' for Active; 'I' for Inactive)
    1  A    between atoms: C_3  and  C_18
    2  A    between atoms: C_7  and  N_8
    3  A    between atoms: O_12  and  C_26
    4  A    between atoms: C_13  and  C_15
    5  A    between atoms: C_13  and  C_16
    6  A    between atoms: C_15  and  C_26
    7  A    between atoms: C_18  and  O_25
    8  A    between atoms: C_23  and  O_25
                            x       y       z     vdW  Elec       q    Type
                         _______ _______ _______ _____ _____    ______ ____

>  <TORSDO>
F 8

$$$$
=
 OpenBabel11072411183D

 28 30  0  0  1  0  0  0  0  0999 V2000
  162.3850  209.7870  150.5280 N   0  0  0  0  0  2  0  0  0  0  0  0
  161.4500  209.4780  151.6080 C   0  0  2  0  0  3  0  0  0  0  0  0
  161.8620  210.1800  152.8130 N   0  0  0  0  0  1  0  0  0  0  0  0
  161.6660  207.0890  150.8150 C   0  0  0  0  0  0  0  0  0  0  0  0
  160.9570  207.5170  153.0650 N   0  0  0  0  0  0  0  0  0  0  0  0
  161.1370  205.2580  152.3110 C   0  0  0  0  0  0  0  0  0  0  0  0
  161.9420  209.0880  149.3250 C   0  0  0  0  0  2  0  0  0  0  0  0
  162.1730  207.5830  149.4820 C   0  0  2  0  0  3  0  0  0  0  0  0
  160.8360  206.1840  153.3110 C   0  0  0  0  0  3  0  0  0  0  0  0
  161.3840  207.9910  151.8610 C   0  0  0  0  0  0  0  0  0  0  0  0
  161.5590  205.7160  151.0610 C   0  0  0  0  0  3  0  0  0  0  0  0
  161.0390  203.7940  152.5830 C   0  0  0  0  0  2  0  0  0  0  0  0
  160.7460  203.0200  151.3060 C   0  0  0  0  0  2  0  0  0  0  0  0
  161.6590  201.8120  151.1910 C   0  0  0  0  0  2  0  0  0  0  0  0
  159.9450  201.5060  149.8360 C   0  0  0  0  0  1  0  0  0  0  0  0
  161.1670  200.9480  150.2120 O   0  0  0  0  0  0  0  0  0  0  0  0
  161.5360  206.9070  148.4370 O   0  0  0  0  0  0  0  0  0  0  0  0
  162.5710  206.3300  147.6970 C   0  0  0  0  0  2  0  0  0  0  0  0
  161.1950  205.4690  144.3440 C   0  0  0  0  0  3  0  0  0  0  0  0
  161.9980  205.5270  146.5770 C   0  0  0  0  0  0  0  0  0  0  0  0
  161.8590  203.5850  148.0070 O   0  0  0  0  0  1  0  0  0  0  0  0
  161.0630  203.4580  145.6960 C   0  0  0  0  0  0  0  0  0  0  0  0
  161.7570  206.1350  145.3840 N   0  0  0  0  0  0  0  0  0  0  0  0
  161.6440  204.1810  146.7650 C   0  0  0  0  0  0  0  0  0  0  0  0
  160.8400  204.1270  144.4820 C   0  0  0  0  0  3  0  0  0  0  0  0
  161.2460  201.1810  146.8140 C   0  0  0  0  0  1  0  0  0  0  0  0
  160.6660  202.0740  145.8230 N   0  0  0  0  0  0  0  0  0  0  0  0
  159.7170  201.4870  144.8910 C   0  0  0  0  0  1  0  0  0  0  0  0
  1  2  1  0  0  0  0
  2 10  1  0  0  0  0
  2  3  1  1  0  0  0
  4 11  2  0  0  0  0
  4 10  1  0  0  0  0
  5  9  1  0  0  0  0
  6 12  1  0  0  0  0
  6  9  2  0  0  0  0
  7  8  1  0  0  0  0
  7  1  1  0  0  0  0
  8 17  1  6  0  0  0
  8  4  1  0  0  0  0
 10  5  2  0  0  0  0
 11  6  1  0  0  0  0
 13 12  1  0  0  0  0
 14 13  1  0  0  0  0
 15 16  1  0  0  0  0
 16 14  1  0  0  0  0
 18 17  1  0  0  0  0
 19 25  2  0  0  0  0
 19 23  1  0  0  0  0
 20 24  1  0  0  0  0
 20 18  1  0  0  0  0
 22 27  1  0  0  0  0
 22 24  2  0  0  0  0
 23 20  2  0  0  0  0
 24 21  1  0  0  0  0
 25 22  1  0  0  0  0
 27 26  1  0  0  0  0
 28 27  1  0  0  0  0
M  END
>  <MODEL>
4

>  <REMARK>
 VINA RESULT:      -7.2      2.234      5.203
  Name = 
  8 active torsions:
  status: ('A' for Active; 'I' for Inactive)
    1  A    between atoms: C_3  and  C_18
    2  A    between atoms: C_7  and  N_8
    3  A    between atoms: O_12  and  C_26
    4  A    between atoms: C_13  and  C_15
    5  A    between atoms: C_13  and  C_16
    6  A    between atoms: C_15  and  C_26
    7  A    between atoms: C_18  and  O_25
    8  A    between atoms: C_23  and  O_25
                            x       y       z     vdW  Elec       q    Type
                         _______ _______ _______ _____ _____    ______ ____

>  <TORSDO>
F 8

$$$$
=
 OpenBabel11072411183D

 28 30  0  0  1  0  0  0  0  0999 V2000
  161.5390  205.5360  153.3120 N   0  0  0  0  0  2  0  0  0  0  0  0
  160.8280  204.6940  152.3520 C   0  0  2  0  0  3  0  0  0  0  0  0
  161.3500  203.3390  152.4250 N   0  0  0  0  0  1  0  0  0  0  0  0
  161.1690  206.6170  150.7480 C   0  0  0  0  0  0  0  0  0  0  0  0
  160.7890  204.4160  149.8750 N   0  0  0  0  0  0  0  0  0  0  0  0
  161.0870  206.2350  148.3570 C   0  0  0  0  0  0  0  0  0  0  0  0
  160.9860  206.8850  153.2360 C   0  0  0  0  0  2  0  0  0  0  0  0
  161.3990  207.5430  151.9170 C   0  0  2  0  0  3  0  0  0  0  0  0
  160.8520  204.8800  148.5980 C   0  0  0  0  0  3  0  0  0  0  0  0
  160.9630  205.2360  150.9490 C   0  0  0  0  0  0  0  0  0  0  0  0
  161.2510  207.1030  149.4390 C   0  0  0  0  0  3  0  0  0  0  0  0
  161.1910  206.7460  146.9590 C   0  0  0  0  0  2  0  0  0  0  0  0
  161.8310  205.7100  146.0460 C   0  0  0  0  0  2  0  0  0  0  0  0
  161.0800  205.6190  144.7290 C   0  0  0  0  0  2  0  0  0  0  0  0
  161.3890  203.5170  145.3250 C   0  0  0  0  0  1  0  0  0  0  0  0
  160.5350  204.3410  144.5910 O   0  0  0  0  0  0  0  0  0  0  0  0
  160.6790  208.7300  151.7470 O   0  0  0  0  0  0  0  0  0  0  0  0
  161.6080  209.7500  151.9680 C   0  0  0  0  0  2  0  0  0  0  0  0
  161.7220  210.9050  155.5080 C   0  0  0  0  0  3  0  0  0  0  0  0
  161.2560  210.4840  153.2190 C   0  0  0  0  0  0  0  0  0  0  0  0
  159.3190  211.4440  152.1400 O   0  0  0  0  0  1  0  0  0  0  0  0
  159.7830  211.9490  154.4900 C   0  0  0  0  0  0  0  0  0  0  0  0
  162.0200  210.3010  154.3300 N   0  0  0  0  0  0  0  0  0  0  0  0
  160.1130  211.2990  153.2760 C   0  0  0  0  0  0  0  0  0  0  0  0
  160.6050  211.7340  155.6080 C   0  0  0  0  0  3  0  0  0  0  0  0
  158.6310  214.2080  154.2770 C   0  0  0  0  0  1  0  0  0  0  0  0
  158.6170  212.7940  154.6210 N   0  0  0  0  0  0  0  0  0  0  0  0
  157.3870  212.2740  155.1970 C   0  0  0  0  0  1  0  0  0  0  0  0
  2  3  1  6  0  0  0
  2  1  1  0  0  0  0
  4 10  1  0  0  0  0
  4  8  1  0  0  0  0
  5 10  2  0  0  0  0
  6  9  2  0  0  0  0
  6 11  1  0  0  0  0
  7  1  1  0  0  0  0
  8 17  1  6  0  0  0
  8  7  1  0  0  0  0
  9  5  1  0  0  0  0
 10  2  1  0  0  0  0
 11  4  2  0  0  0  0
 12  6  1  0  0  0  0
 13 12  1  0  0  0  0
 14 13  1  0  0  0  0
 16 14  1  0  0  0  0
 16 15  1  0  0  0  0
 17 18  1  0  0  0  0
 18 20  1  0  0  0  0
 19 25  1  0  0  0  0
 20 24  2  0  0  0  0
 20 23  1  0  0  0  0
 21 24  1  0  0  0  0
 22 27  1  0  0  0  0
 22 25  2  0  0  0  0
 23 19  2  0  0  0  0
 24 22  1  0  0  0  0
 26 27  1  0  0  0  0
 27 28  1  0  0  0  0
M  END
>  <MODEL>
5

>  <REMARK>
 VINA RESULT:      -7.1      3.233      8.265
  Name = 
  8 active torsions:
  status: ('A' for Active; 'I' for Inactive)
    1  A    between atoms: C_3  and  C_18
    2  A    between atoms: C_7  and  N_8
    3  A    between atoms: O_12  and  C_26
    4  A    between atoms: C_13  and  C_15
    5  A    between atoms: C_13  and  C_16
    6  A    between atoms: C_15  and  C_26
    7  A    between atoms: C_18  and  O_25
    8  A    between atoms: C_23  and  O_25
                            x       y       z     vdW  Elec       q    Type
                         _______ _______ _______ _____ _____    ______ ____

>  <TORSDO>
F 8

$$$$
=
 OpenBabel11072411183D

 28 30  0  0  1  0  0  0  0  0999 V2000
  161.2900  201.9330  151.2630 N   0  0  0  0  0  2  0  0  0  0  0  0
  160.7660  201.9960  149.9000 C   0  0  2  0  0  3  0  0  0  0  0  0
  161.3350  200.9100  149.1180 N   0  0  0  0  0  1  0  0  0  0  0  0
  161.2460  204.4720  150.0660 C   0  0  0  0  0  0  0  0  0  0  0  0
  161.0990  203.4490  147.9020 N   0  0  0  0  0  0  0  0  0  0  0  0
  161.5290  205.7930  148.0550 C   0  0  0  0  0  0  0  0  0  0  0  0
  160.6920  203.0190  152.0350 C   0  0  0  0  0  2  0  0  0  0  0  0
  161.2610  204.3620  151.5720 C   0  0  2  0  0  3  0  0  0  0  0  0
  161.3250  204.6420  147.2900 C   0  0  0  0  0  3  0  0  0  0  0  0
  161.0770  203.3280  149.2590 C   0  0  0  0  0  0  0  0  0  0  0  0
  161.4940  205.7020  149.4480 C   0  0  0  0  0  3  0  0  0  0  0  0
  161.8110  207.1000  147.3920 C   0  0  0  0  0  2  0  0  0  0  0  0
  162.7060  207.9710  148.2620 C   0  0  0  0  0  2  0  0  0  0  0  0
  161.8880  209.0330  148.9770 C   0  0  0  0  0  2  0  0  0  0  0  0
  162.3290  211.1820  149.2070 C   0  0  0  0  0  1  0  0  0  0  0  0
  161.9500  210.2290  148.2610 O   0  0  0  0  0  0  0  0  0  0  0  0
  160.5190  205.4000  152.1430 O   0  0  0  0  0  0  0  0  0  0  0  0
  161.2050  205.7320  153.3140 C   0  0  0  0  0  2  0  0  0  0  0  0
  161.6000  209.3430  152.4860 C   0  0  0  0  0  3  0  0  0  0  0  0
  161.2330  207.2160  153.4730 C   0  0  0  0  0  0  0  0  0  0  0  0
  160.7920  206.9940  155.8380 O   0  0  0  0  0  1  0  0  0  0  0  0
  161.1140  209.2140  154.8600 C   0  0  0  0  0  0  0  0  0  0  0  0
  161.5150  207.9920  152.3920 N   0  0  0  0  0  0  0  0  0  0  0  0
  161.0400  207.8060  154.7330 C   0  0  0  0  0  0  0  0  0  0  0  0
  161.4020  209.9730  153.7140 C   0  0  0  0  0  3  0  0  0  0  0  0
  159.6250  210.2530  156.6420 C   0  0  0  0  0  1  0  0  0  0  0  0
  160.9350  209.8870  156.1270 N   0  0  0  0  0  0  0  0  0  0  0  0
  162.0870  210.3110  156.9090 C   0  0  0  0  0  1  0  0  0  0  0  0
  1  7  1  0  0  0  0
  2  3  1  6  0  0  0
  2  1  1  0  0  0  0
  4  8  1  0  0  0  0
  5 10  1  0  0  0  0
  6 11  2  0  0  0  0
  8  7  1  0  0  0  0
  8 17  1  1  0  0  0
  9  5  2  0  0  0  0
  9  6  1  0  0  0  0
 10  2  1  0  0  0  0
 10  4  2  0  0  0  0
 11  4  1  0  0  0  0
 12  6  1  0  0  0  0
 12 13  1  0  0  0  0
 13 14  1  0  0  0  0
 16 14  1  0  0  0  0
 16 15  1  0  0  0  0
 17 18  1  0  0  0  0
 18 20  1  0  0  0  0
 19 25  1  0  0  0  0
 20 24  2  0  0  0  0
 22 27  1  0  0  0  0
 23 19  2  0  0  0  0
 23 20  1  0  0  0  0
 24 22  1  0  0  0  0
 24 21  1  0  0  0  0
 25 22  2  0  0  0  0
 27 26  1  0  0  0  0
 27 28  1  0  0  0  0
M  END
>  <MODEL>
6

>  <REMARK>
 VINA RESULT:      -7.0      2.260      7.273
  Name = 
  8 active torsions:
  status: ('A' for Active; 'I' for Inactive)
    1  A    between atoms: C_3  and  C_18
    2  A    between atoms: C_7  and  N_8
    3  A    between atoms: O_12  and  C_26
    4  A    between atoms: C_13  and  C_15
    5  A    between atoms: C_13  and  C_16
    6  A    between atoms: C_15  and  C_26
    7  A    between atoms: C_18  and  O_25
    8  A    between atoms: C_23  and  O_25
                            x       y       z     vdW  Elec       q    Type
                         _______ _______ _______ _____ _____    ______ ____

>  <TORSDO>
F 8

$$$$
=
 OpenBabel11072411183D

 28 30  0  0  1  0  0  0  0  0999 V2000
  161.3720  202.4330  150.9790 N   0  0  0  0  0  2  0  0  0  0  0  0
  160.7560  202.8000  149.7050 C   0  0  2  0  0  3  0  0  0  0  0  0
  161.2740  201.9370  148.6570 N   0  0  0  0  0  1  0  0  0  0  0  0
  161.2350  205.1790  150.4110 C   0  0  0  0  0  0  0  0  0  0  0  0
  160.9450  204.6820  148.0820 N   0  0  0  0  0  0  0  0  0  0  0  0
  161.3740  206.9360  148.7480 C   0  0  0  0  0  0  0  0  0  0  0  0
  160.8240  203.2980  152.0190 C   0  0  0  0  0  2  0  0  0  0  0  0
  161.3540  204.7240  151.8450 C   0  0  2  0  0  3  0  0  0  0  0  0
  161.1240  205.9900  147.7510 C   0  0  0  0  0  3  0  0  0  0  0  0
  161.0170  204.2500  149.3730 C   0  0  0  0  0  0  0  0  0  0  0  0
  161.4350  206.5240  150.0810 C   0  0  0  0  0  3  0  0  0  0  0  0
  161.6050  208.3660  148.3900 C   0  0  0  0  0  2  0  0  0  0  0  0
  162.2840  209.1110  149.5300 C   0  0  0  0  0  2  0  0  0  0  0  0
  161.9880  210.5990  149.4490 C   0  0  0  0  0  2  0  0  0  0  0  0
  161.6090  212.1860  147.9640 C   0  0  0  0  0  1  0  0  0  0  0  0
  162.4430  211.0980  148.2280 O   0  0  0  0  0  0  0  0  0  0  0  0
  160.6480  205.5860  152.6900 O   0  0  0  0  0  0  0  0  0  0  0  0
  161.6260  206.2070  153.4700 C   0  0  0  0  0  2  0  0  0  0  0  0
  159.8500  207.5390  156.4620 C   0  0  0  0  0  3  0  0  0  0  0  0
  160.9800  207.1730  154.4060 C   0  0  0  0  0  0  0  0  0  0  0  0
  161.2890  208.9620  152.8140 O   0  0  0  0  0  1  0  0  0  0  0  0
  160.1610  209.4030  154.9400 C   0  0  0  0  0  0  0  0  0  0  0  0
  160.4890  206.7170  155.5900 N   0  0  0  0  0  0  0  0  0  0  0  0
  160.8160  208.5210  154.0480 C   0  0  0  0  0  0  0  0  0  0  0  0
  159.6760  208.8870  156.1530 C   0  0  0  0  0  3  0  0  0  0  0  0
  160.5660  211.8730  155.3950 C   0  0  0  0  0  1  0  0  0  0  0  0
  159.9490  210.7990  154.6310 N   0  0  0  0  0  0  0  0  0  0  0  0
  159.0240  211.1930  153.5790 C   0  0  0  0  0  1  0  0  0  0  0  0
  1  7  1  0  0  0  0
  2  3  1  6  0  0  0
  2  1  1  0  0  0  0
  4  8  1  0  0  0  0
  5 10  1  0  0  0  0
  6 11  2  0  0  0  0
  8  7  1  0  0  0  0
  8 17  1  1  0  0  0
  9  5  2  0  0  0  0
  9  6  1  0  0  0  0
 10  2  1  0  0  0  0
 10  4  2  0  0  0  0
 11  4  1  0  0  0  0
 12  6  1  0  0  0  0
 12 13  1  0  0  0  0
 14 13  1  0  0  0  0
 15 16  1  0  0  0  0
 16 14  1  0  0  0  0
 17 18  1  0  0  0  0
 18 20  1  0  0  0  0
 20 23  1  0  0  0  0
 21 24  1  0  0  0  0
 22 25  2  0  0  0  0
 23 19  2  0  0  0  0
 24 20  2  0  0  0  0
 24 22  1  0  0  0  0
 25 19  1  0  0  0  0
 27 22  1  0  0  0  0
 27 26  1  0  0  0  0
 28 27  1  0  0  0  0
M  END
>  <MODEL>
7

>  <REMARK>
 VINA RESULT:      -7.0      2.287      7.183
  Name = 
  8 active torsions:
  status: ('A' for Active; 'I' for Inactive)
    1  A    between atoms: C_3  and  C_18
    2  A    between atoms: C_7  and  N_8
    3  A    between atoms: O_12  and  C_26
    4  A    between atoms: C_13  and  C_15
    5  A    between atoms: C_13  and  C_16
    6  A    between atoms: C_15  and  C_26
    7  A    between atoms: C_18  and  O_25
    8  A    between atoms: C_23  and  O_25
                            x       y       z     vdW  Elec       q    Type
                         _______ _______ _______ _____ _____    ______ ____

>  <TORSDO>
F 8

$$$$
=
 OpenBabel11072411183D

 28 30  0  0  1  0  0  0  0  0999 V2000
  160.7830  206.4520  154.7360 N   0  0  0  0  0  2  0  0  0  0  0  0
  161.2040  207.7050  155.3590 C   0  0  2  0  0  3  0  0  0  0  0  0
  160.5440  207.8430  156.6470 N   0  0  0  0  0  1  0  0  0  0  0  0
  160.8170  208.7150  153.0760 C   0  0  0  0  0  0  0  0  0  0  0  0
  160.7670  210.1340  155.0090 N   0  0  0  0  0  0  0  0  0  0  0  0
  160.4240  211.0960  152.8500 C   0  0  0  0  0  0  0  0  0  0  0  0
  161.4720  206.3240  153.4550 C   0  0  0  0  0  2  0  0  0  0  0  0
  160.9130  207.3420  152.4580 C   0  0  2  0  0  3  0  0  0  0  0  0
  160.5330  211.2280  154.2360 C   0  0  0  0  0  3  0  0  0  0  0  0
  160.8870  208.8860  154.4740 C   0  0  0  0  0  0  0  0  0  0  0  0
  160.5610  209.8320  152.2720 C   0  0  0  0  0  3  0  0  0  0  0  0
  160.1340  212.2860  151.9990 C   0  0  0  0  0  2  0  0  0  0  0  0
  158.6410  212.5770  151.9580 C   0  0  0  0  0  2  0  0  0  0  0  0
  158.3230  213.8520  152.7200 C   0  0  0  0  0  2  0  0  0  0  0  0
  157.2800  213.1450  154.5310 C   0  0  0  0  0  1  0  0  0  0  0  0
  157.0550  213.7480  153.2930 O   0  0  0  0  0  0  0  0  0  0  0  0
  161.7280  207.3740  151.3230 O   0  0  0  0  0  0  0  0  0  0  0  0
  160.8440  207.3380  150.2420 C   0  0  0  0  0  2  0  0  0  0  0  0
  160.9140  203.6670  149.6090 C   0  0  0  0  0  3  0  0  0  0  0  0
  160.9860  206.0380  149.5220 C   0  0  0  0  0  0  0  0  0  0  0  0
  161.6900  207.1960  147.5210 O   0  0  0  0  0  1  0  0  0  0  0  0
  161.5850  204.7510  147.5440 C   0  0  0  0  0  0  0  0  0  0  0  0
  160.7560  204.8800  150.1970 N   0  0  0  0  0  0  0  0  0  0  0  0
  161.4190  206.0010  148.1860 C   0  0  0  0  0  0  0  0  0  0  0  0
  161.3290  203.5830  148.2810 C   0  0  0  0  0  3  0  0  0  0  0  0
  161.1190  204.6310  145.0460 C   0  0  0  0  0  1  0  0  0  0  0  0
  162.0360  204.6380  146.1750 N   0  0  0  0  0  0  0  0  0  0  0  0
  163.4450  204.4370  145.8740 C   0  0  0  0  0  1  0  0  0  0  0  0
  1  2  1  0  0  0  0
  2  3  1  1  0  0  0
  4 10  1  0  0  0  0
  6  9  2  0  0  0  0
  7  1  1  0  0  0  0
  8 17  1  6  0  0  0
  8  4  1  0  0  0  0
  8  7  1  0  0  0  0
  9  5  1  0  0  0  0
 10  5  2  0  0  0  0
 10  2  1  0  0  0  0
 11  6  1  0  0  0  0
 11  4  2  0  0  0  0
 12  6  1  0  0  0  0
 13 12  1  0  0  0  0
 13 14  1  0  0  0  0
 14 16  1  0  0  0  0
 16 15  1  0  0  0  0
 18 17  1  0  0  0  0
 19 23  1  0  0  0  0
 20 23  2  0  0  0  0
 20 18  1  0  0  0  0
 21 24  1  0  0  0  0
 22 24  2  0  0  0  0
 22 25  1  0  0  0  0
 24 20  1  0  0  0  0
 25 19  2  0  0  0  0
 26 27  1  0  0  0  0
 27 22  1  0  0  0  0
 28 27  1  0  0  0  0
M  END
>  <MODEL>
8

>  <REMARK>
 VINA RESULT:      -6.7      2.978      4.016
  Name = 
  8 active torsions:
  status: ('A' for Active; 'I' for Inactive)
    1  A    between atoms: C_3  and  C_18
    2  A    between atoms: C_7  and  N_8
    3  A    between atoms: O_12  and  C_26
    4  A    between atoms: C_13  and  C_15
    5  A    between atoms: C_13  and  C_16
    6  A    between atoms: C_15  and  C_26
    7  A    between atoms: C_18  and  O_25
    8  A    between atoms: C_23  and  O_25
                            x       y       z     vdW  Elec       q    Type
                         _______ _______ _______ _____ _____    ______ ____

>  <TORSDO>
F 8

$$$$
=
 OpenBabel11072411183D

 28 30  0  0  1  0  0  0  0  0999 V2000
  161.5420  205.1290  153.0180 N   0  0  0  0  0  2  0  0  0  0  0  0
  160.8340  204.2840  152.0580 C   0  0  2  0  0  3  0  0  0  0  0  0
  161.3100  202.9170  152.1830 N   0  0  0  0  0  1  0  0  0  0  0  0
  161.2840  206.1520  150.4170 C   0  0  0  0  0  0  0  0  0  0  0  0
  160.8600  203.9410  149.5900 N   0  0  0  0  0  0  0  0  0  0  0  0
  161.2610  205.7100  148.0350 C   0  0  0  0  0  0  0  0  0  0  0  0
  161.0350  206.4930  152.8900 C   0  0  0  0  0  2  0  0  0  0  0  0
  161.5080  207.1020  151.5680 C   0  0  2  0  0  3  0  0  0  0  0  0
  160.9760  204.3690  148.3040 C   0  0  0  0  0  3  0  0  0  0  0  0
  161.0280  204.7850  150.6470 C   0  0  0  0  0  0  0  0  0  0  0  0
  161.4200  206.6000  149.0980 C   0  0  0  0  0  3  0  0  0  0  0  0
  161.4230  206.1790  146.6280 C   0  0  0  0  0  2  0  0  0  0  0  0
  162.6310  205.5280  145.9710 C   0  0  0  0  0  2  0  0  0  0  0  0
  162.2360  204.2280  145.2920 C   0  0  0  0  0  2  0  0  0  0  0  0
  160.4190  203.0440  144.8860 C   0  0  0  0  0  1  0  0  0  0  0  0
  160.9350  204.3370  144.7970 O   0  0  0  0  0  0  0  0  0  0  0  0
  160.8320  208.3060  151.3460 O   0  0  0  0  0  0  0  0  0  0  0  0
  161.7060  209.2990  151.7940 C   0  0  0  0  0  2  0  0  0  0  0  0
  160.0790  212.6420  151.5600 C   0  0  0  0  0  3  0  0  0  0  0  0
  161.2840  210.6210  151.2460 C   0  0  0  0  0  0  0  0  0  0  0  0
  162.3340  210.1070  149.1320 O   0  0  0  0  0  1  0  0  0  0  0  0
  161.1460  212.2270  149.4200 C   0  0  0  0  0  0  0  0  0  0  0  0
  160.5310  211.4480  152.0200 N   0  0  0  0  0  0  0  0  0  0  0  0
  161.5960  210.9840  149.9250 C   0  0  0  0  0  0  0  0  0  0  0  0
  160.3760  213.0490  150.2600 C   0  0  0  0  0  3  0  0  0  0  0  0
  160.4940  212.4400  146.9700 C   0  0  0  0  0  1  0  0  0  0  0  0
  161.4220  212.6590  148.0690 N   0  0  0  0  0  0  0  0  0  0  0  0
  162.7020  213.2640  147.7320 C   0  0  0  0  0  1  0  0  0  0  0  0
  2  3  1  6  0  0  0
  2  1  1  0  0  0  0
  4 10  1  0  0  0  0
  4  8  1  0  0  0  0
  5 10  2  0  0  0  0
  6  9  2  0  0  0  0
  6 11  1  0  0  0  0
  7  1  1  0  0  0  0
  8 17  1  6  0  0  0
  8  7  1  0  0  0  0
  9  5  1  0  0  0  0
 10  2  1  0  0  0  0
 11  4  2  0  0  0  0
 12  6  1  0  0  0  0
 13 12  1  0  0  0  0
 14 13  1  0  0  0  0
 16 15  1  0  0  0  0
 16 14  1  0  0  0  0
 17 18  1  0  0  0  0
 19 23  1  0  0  0  0
 20 18  1  0  0  0  0
 20 23  2  0  0  0  0
 21 24  1  0  0  0  0
 22 24  2  0  0  0  0
 22 25  1  0  0  0  0
 24 20  1  0  0  0  0
 25 19  2  0  0  0  0
 26 27  1  0  0  0  0
 27 22  1  0  0  0  0
 28 27  1  0  0  0  0
M  END
>  <MODEL>
9

>  <REMARK>
 VINA RESULT:      -6.6      2.392      7.364
  Name = 
  8 active torsions:
  status: ('A' for Active; 'I' for Inactive)
    1  A    between atoms: C_3  and  C_18
    2  A    between atoms: C_7  and  N_8
    3  A    between atoms: O_12  and  C_26
    4  A    between atoms: C_13  and  C_15
    5  A    between atoms: C_13  and  C_16
    6  A    between atoms: C_15  and  C_26
    7  A    between atoms: C_18  and  O_25
    8  A    between atoms: C_23  and  O_25
                            x       y       z     vdW  Elec       q    Type
                         _______ _______ _______ _____ _____    ______ ____

>  <TORSDO>
F 8

$$$$
