=
 OpenBabel11072411493D

 53 58  0  0  1  0  0  0  0  0999 V2000
  161.5140  211.7370  150.1590 N   0  0  0  0  0  0  0  0  0  0  0  0
  162.0260  210.0200  148.7660 N   0  0  0  0  0  0  0  0  0  0  0  0
  161.3010  212.1820  148.8580 N   0  0  0  0  0  0  0  0  0  0  0  0
  161.5720  211.1110  147.9130 C   0  0  0  0  0  3  0  0  0  0  0  0
  161.9510  210.5280  150.0930 C   0  0  0  0  0  0  0  0  0  0  0  0
  162.2640  209.7040  151.2990 C   0  0  0  0  0  2  0  0  0  0  0  0
  160.4990  208.7620  152.7440 C   0  0  0  0  0  3  0  0  0  0  0  0
  161.1850  209.8350  152.3280 C   0  0  0  0  0  0  0  0  0  0  0  0
  161.0030  205.8910  150.2540 C   0  0  1  0  0  3  0  0  0  0  0  0
  160.7730  207.3730  152.2620 C   0  0  2  0  0  3  0  0  0  0  0  0
  161.6580  204.9710  151.2970 C   0  0  0  0  0  2  0  0  0  0  0  0
  161.9710  206.8420  152.9310 N   0  0  0  0  0  2  0  0  0  0  0  0
  162.6290  205.7490  152.1910 C   0  0  0  0  0  2  0  0  0  0  0  0
  160.9130  207.3430  150.7420 C   0  0  0  0  0  2  0  0  0  0  0  0
  161.7440  205.8180  148.9220 C   0  0  2  0  0  3  0  0  0  0  0  0
  162.2550  207.0750  148.5910 O   0  0  0  0  0  1  0  0  0  0  0  0
  160.8430  206.3950  146.8360 C   0  0  0  0  0  1  0  0  0  0  0  0
  160.8380  205.3780  147.8710 N   0  0  0  0  0  2  0  0  0  0  0  0
  160.2380  211.5170  154.0150 C   0  0  0  0  0  0  0  0  0  0  0  0
  160.2160  210.7020  154.9720 O   0  0  0  0  0  0  0  0  0  0  0  0
  160.8290  211.1530  152.7610 N   0  0  0  0  0  2  0  0  0  0  0  0
  159.6780  212.7850  154.1950 O   0  0  0  0  0  0  0  0  0  0  0  0
  158.6150  213.0710  155.1040 C   0  0  1  0  0  3  0  0  0  0  0  0
  157.8740  214.3300  154.6960 C   0  0  0  0  0  1  0  0  0  0  0  0
  157.6470  211.8980  155.2440 C   0  0  0  0  0  2  0  0  0  0  0  0
  156.2270  212.3820  155.4620 C   0  0  0  0  0  2  0  0  0  0  0  0
  155.3320  211.6030  154.7310 O   0  0  0  0  0  0  0  0  0  0  0  0
  155.5330  210.3030  155.1980 C   0  0  0  0  0  1  0  0  0  0  0  0
  160.6560  213.4510  148.5520 C   0  0  0  0  0  2  0  0  0  0  0  0
  159.8600  212.3150  146.4290 C   0  0  0  0  0  2  0  0  0  0  0  0
  159.8300  213.8010  146.1520 C   0  0  1  0  0  3  0  0  0  0  0  0
  159.5080  213.2720  147.5560 C   0  0  2  0  0  3  0  0  0  0  0  0
  161.2010  214.2830  146.0130 N   0  0  0  0  0  2  0  0  0  0  0  0
  161.9670  214.1820  144.8060 C   0  0  0  0  0  0  0  0  0  0  0  0
  163.2130  214.3500  144.8700 O   0  0  0  0  0  0  0  0  0  0  0  0
  158.0540  213.6760  141.4010 C   0  0  0  0  0  0  0  0  0  0  0  0
  161.4410  212.8420  141.3180 C   0  0  0  0  0  0  0  0  0  0  0  0
  162.1160  212.1330  140.4610 C   0  0  0  0  0  0  0  0  0  0  0  0
  162.7930  211.4150  139.6040 C   0  0  0  0  0  3  0  0  0  0  0  0
  159.3840  213.5420  142.0870 C   0  0  1  0  0  3  0  0  0  0  0  0
  156.9870  214.4530  141.5860 C   0  0  0  0  0  2  0  0  0  0  0  0
  158.9270  213.0100  139.9140 S   0  0  0  0  0  0  0  0  0  0  0  0
  160.2580  213.6430  140.9130 C   0  0  2  0  0  3  0  0  0  0  0  0
  159.9390  214.4100  143.2000 C   0  0  0  0  0  2  0  0  0  0  0  0
  161.3480  213.8800  143.4980 C   0  0  0  0  0  0  0  0  0  0  0  0
  161.9940  213.1480  142.6160 N   0  0  0  0  0  0  0  0  0  0  0  0
  161.9790  207.7520  139.8580 C   0  0  0  0  0  0  0  0  0  0  0  0
  162.0200  209.7420  137.8930 C   0  0  0  0  0  3  0  0  0  0  0  0
  161.9510  206.7640  140.8340 O   0  0  0  0  0  1  0  0  0  0  0  0
  161.6130  207.4450  138.5440 C   0  0  0  0  0  3  0  0  0  0  0  0
  162.3890  210.0570  139.2130 C   0  0  0  0  0  0  0  0  0  0  0  0
  162.3670  209.0550  140.1910 C   0  0  0  0  0  3  0  0  0  0  0  0
  161.6340  208.4390  137.5610 C   0  0  0  0  0  3  0  0  0  0  0  0
  2  5  1  0  0  0  0
  3  1  1  0  0  0  0
  4  2  2  0  0  0  0
  4  3  1  0  0  0  0
  5  1  2  0  0  0  0
  5  6  1  0  0  0  0
  6  8  1  0  0  0  0
  8  7  2  0  0  0  0
  8 21  1  0  0  0  0
  9 15  1  6  0  0  0
  9 14  1  0  0  0  0
  9 11  1  0  0  0  0
 10  7  1  1  0  0  0
 10 12  1  0  0  0  0
 11 13  1  0  0  0  0
 13 12  1  0  0  0  0
 14 10  1  0  0  0  0
 15 16  1  6  0  0  0
 17 18  1  0  0  0  0
 18 15  1  0  0  0  0
 19 22  1  0  0  0  0
 19 20  2  0  0  0  0
 21 19  1  0  0  0  0
 22 23  1  0  0  0  0
 23 24  1  6  0  0  0
 23 25  1  0  0  0  0
 25 26  1  0  0  0  0
 27 28  1  0  0  0  0
 27 26  1  0  0  0  0
 29  3  1  0  0  0  0
 30 32  1  0  0  0  0
 31 33  1  1  0  0  0
 31 30  1  0  0  0  0
 31 32  1  0  0  0  0
 32 29  1  1  0  0  0
 34 35  2  0  0  0  0
 34 33  1  0  0  0  0
 36 41  2  0  0  0  0
 36 40  1  0  0  0  0
 37 46  1  0  0  0  0
 38 37  2  0  0  0  0
 39 38  2  0  0  0  0
 40 44  1  1  0  0  0
 42 36  1  0  0  0  0
 43 42  1  6  0  0  0
 43 37  1  0  0  0  0
 43 40  1  0  0  0  0
 44 45  1  0  0  0  0
 45 34  1  0  0  0  0
 46 45  2  0  0  0  0
 47 52  1  0  0  0  0
 47 49  1  0  0  0  0
 48 51  1  0  0  0  0
 50 47  2  0  0  0  0
 51 39  1  0  0  0  0
 51 52  2  0  0  0  0
 53 48  2  0  0  0  0
 53 50  1  0  0  0  0
M  END
>  <MODEL>
1

>  <REMARK>
 VINA RESULT:      -6.7      0.000      0.000
  Name = 
  16 active torsions:
  status: ('A' for Active; 'I' for Inactive)
    1  A    between atoms: C_2  and  C_3
    2  A    between atoms: C_3  and  N_14
    3  A    between atoms: C_4  and  O_30
    4  A    between atoms: C_5  and  C_46
    5  A    between atoms: C_5  and  C_53
    6  A    between atoms: C_7  and  C_50
    7  A    between atoms: C_18  and  C_19
    8  A    between atoms: C_18  and  C_32
    9  A    between atoms: C_19  and  O_30
   10  A    between atoms: C_20  and  N_27
   11  A    between atoms: C_21  and  C_34
   12  A    between atoms: C_23  and  C_25
   13  A    between atoms: C_23  and  N_38
   14  A    between atoms: O_26  and  C_32
   15  A    between atoms: C_42  and  C_45
   16  A    between atoms: N_43  and  C_53
                            x       y       z     vdW  Elec       q    Type
                         _______ _______ _______ _____ _____    ______ ____

>  <TORSDO>
F 16

$$$$
=
 OpenBabel11072411493D

 53 58  0  0  1  0  0  0  0  0999 V2000
  161.5140  211.0290  148.2180 N   0  0  0  0  0  0  0  0  0  0  0  0
  161.2000  212.6860  149.7380 N   0  0  0  0  0  0  0  0  0  0  0  0
  160.7480  212.0160  147.6030 N   0  0  0  0  0  0  0  0  0  0  0  0
  160.5450  213.1300  148.5140 C   0  0  0  0  0  3  0  0  0  0  0  0
  161.7360  211.4040  149.4290 C   0  0  0  0  0  0  0  0  0  0  0  0
  162.5560  210.6120  150.3930 C   0  0  0  0  0  2  0  0  0  0  0  0
  161.3190  208.8120  151.5410 C   0  0  0  0  0  3  0  0  0  0  0  0
  161.7100  210.0930  151.5130 C   0  0  0  0  0  0  0  0  0  0  0  0
  161.6630  205.3890  149.8490 C   0  0  1  0  0  3  0  0  0  0  0  0
  161.7200  207.8060  150.5090 C   0  0  2  0  0  3  0  0  0  0  0  0
  162.0600  205.9900  148.4920 C   0  0  0  0  0  2  0  0  0  0  0  0
  161.3610  208.2960  149.1690 N   0  0  0  0  0  2  0  0  0  0  0  0
  161.2170  207.2260  148.1650 C   0  0  0  0  0  2  0  0  0  0  0  0
  161.0910  206.4470  150.8030 C   0  0  0  0  0  2  0  0  0  0  0  0
  160.6750  204.2400  149.6690 C   0  0  2  0  0  3  0  0  0  0  0  0
  160.7930  203.3390  150.7300 O   0  0  0  0  0  1  0  0  0  0  0  0
  160.5160  202.1660  148.5860 C   0  0  0  0  0  1  0  0  0  0  0  0
  160.9420  203.5440  148.4180 N   0  0  0  0  0  2  0  0  0  0  0  0
  160.0600  210.9080  153.2970 C   0  0  0  0  0  0  0  0  0  0  0  0
  159.4730  209.8010  153.4080 O   0  0  0  0  0  0  0  0  0  0  0  0
  161.2320  211.0330  152.4820 N   0  0  0  0  0  2  0  0  0  0  0  0
  159.5500  212.0140  153.9840 O   0  0  0  0  0  0  0  0  0  0  0  0
  158.3970  212.7500  153.5760 C   0  0  1  0  0  3  0  0  0  0  0  0
  158.4620  213.0870  152.0990 C   0  0  0  0  0  1  0  0  0  0  0  0
  157.1000  212.0140  153.9040 C   0  0  0  0  0  2  0  0  0  0  0  0
  156.9820  211.7470  155.3920 C   0  0  0  0  0  2  0  0  0  0  0  0
  156.9690  212.9490  156.0990 O   0  0  0  0  0  0  0  0  0  0  0  0
  157.6960  212.6830  157.2600 C   0  0  0  0  0  1  0  0  0  0  0  0
  160.4410  212.0060  146.1800 C   0  0  0  0  0  2  0  0  0  0  0  0
  161.2750  214.3990  146.0780 C   0  0  0  0  0  2  0  0  0  0  0  0
  160.4570  214.1810  144.8250 C   0  0  1  0  0  3  0  0  0  0  0  0
  161.2830  213.0310  145.4170 C   0  0  2  0  0  3  0  0  0  0  0  0
  159.0440  214.1270  145.1870 N   0  0  0  0  0  2  0  0  0  0  0  0
  157.9710  214.2040  144.2400 C   0  0  0  0  0  0  0  0  0  0  0  0
  156.8110  214.4460  144.6650 O   0  0  0  0  0  0  0  0  0  0  0  0
  156.5430  213.7780  139.2460 C   0  0  0  0  0  0  0  0  0  0  0  0
  159.5540  213.2890  140.9390 C   0  0  0  0  0  0  0  0  0  0  0  0
  160.6750  212.7660  140.5350 C   0  0  0  0  0  0  0  0  0  0  0  0
  161.7990  212.2360  140.1330 C   0  0  0  0  0  3  0  0  0  0  0  0
  157.3200  213.6830  140.5280 C   0  0  1  0  0  3  0  0  0  0  0  0
  155.4330  214.4180  138.8780 C   0  0  0  0  0  2  0  0  0  0  0  0
  158.1530  213.3990  138.4210 S   0  0  0  0  0  0  0  0  0  0  0  0
  158.6520  214.0200  140.0120 C   0  0  2  0  0  3  0  0  0  0  0  0
  157.0740  214.4460  141.8150 C   0  0  0  0  0  2  0  0  0  0  0  0
  158.1810  214.0190  142.7890 C   0  0  0  0  0  0  0  0  0  0  0  0
  159.2940  213.4740  142.3480 N   0  0  0  0  0  0  0  0  0  0  0  0
  161.8030  208.4930  139.7550 C   0  0  0  0  0  0  0  0  0  0  0  0
  162.0440  210.7490  138.1200 C   0  0  0  0  0  3  0  0  0  0  0  0
  161.6760  207.3720  140.5650 O   0  0  0  0  0  1  0  0  0  0  0  0
  161.9770  208.3420  138.3760 C   0  0  0  0  0  3  0  0  0  0  0  0
  161.8690  210.9080  139.5060 C   0  0  0  0  0  0  0  0  0  0  0  0
  161.7500  209.7740  140.3180 C   0  0  0  0  0  3  0  0  0  0  0  0
  162.0980  209.4690  137.5570 C   0  0  0  0  0  3  0  0  0  0  0  0
  1  5  2  0  0  0  0
  3  1  1  0  0  0  0
  3  4  1  0  0  0  0
  4  2  2  0  0  0  0
  5  2  1  0  0  0  0
  5  6  1  0  0  0  0
  6  8  1  0  0  0  0
  8  7  2  0  0  0  0
  8 21  1  0  0  0  0
  9 15  1  6  0  0  0
  9 14  1  0  0  0  0
 10 14  1  0  0  0  0
 10  7  1  1  0  0  0
 11  9  1  0  0  0  0
 12 10  1  0  0  0  0
 13 11  1  0  0  0  0
 13 12  1  0  0  0  0
 15 16  1  1  0  0  0
 18 17  1  0  0  0  0
 18 15  1  0  0  0  0
 19 20  2  0  0  0  0
 19 22  1  0  0  0  0
 21 19  1  0  0  0  0
 23 24  1  6  0  0  0
 23 25  1  0  0  0  0
 23 22  1  0  0  0  0
 25 26  1  0  0  0  0
 26 27  1  0  0  0  0
 27 28  1  0  0  0  0
 29  3  1  0  0  0  0
 31 33  1  1  0  0  0
 31 32  1  0  0  0  0
 31 30  1  0  0  0  0
 32 30  1  0  0  0  0
 32 29  1  1  0  0  0
 34 35  2  0  0  0  0
 34 33  1  0  0  0  0
 36 40  1  0  0  0  0
 37 46  1  0  0  0  0
 38 37  2  0  0  0  0
 39 38  2  0  0  0  0
 40 44  1  1  0  0  0
 41 36  2  0  0  0  0
 42 36  1  0  0  0  0
 43 42  1  6  0  0  0
 43 40  1  0  0  0  0
 43 37  1  0  0  0  0
 44 45  1  0  0  0  0
 45 34  1  0  0  0  0
 46 45  2  0  0  0  0
 47 52  1  0  0  0  0
 47 49  1  0  0  0  0
 48 51  1  0  0  0  0
 50 47  2  0  0  0  0
 51 39  1  0  0  0  0
 51 52  2  0  0  0  0
 53 48  2  0  0  0  0
 53 50  1  0  0  0  0
M  END
>  <MODEL>
2

>  <REMARK>
 VINA RESULT:      -5.9      1.884      2.490
  Name = 
  16 active torsions:
  status: ('A' for Active; 'I' for Inactive)
    1  A    between atoms: C_2  and  C_3
    2  A    between atoms: C_3  and  N_14
    3  A    between atoms: C_4  and  O_30
    4  A    between atoms: C_5  and  C_46
    5  A    between atoms: C_5  and  C_53
    6  A    between atoms: C_7  and  C_50
    7  A    between atoms: C_18  and  C_19
    8  A    between atoms: C_18  and  C_32
    9  A    between atoms: C_19  and  O_30
   10  A    between atoms: C_20  and  N_27
   11  A    between atoms: C_21  and  C_34
   12  A    between atoms: C_23  and  C_25
   13  A    between atoms: C_23  and  N_38
   14  A    between atoms: O_26  and  C_32
   15  A    between atoms: C_42  and  C_45
   16  A    between atoms: N_43  and  C_53
                            x       y       z     vdW  Elec       q    Type
                         _______ _______ _______ _____ _____    ______ ____

>  <TORSDO>
F 16

$$$$
=
 OpenBabel11072411493D

 53 58  0  0  1  0  0  0  0  0999 V2000
  160.5860  206.9460  152.8780 N   0  0  0  0  0  0  0  0  0  0  0  0
  162.2530  205.8020  151.8470 N   0  0  0  0  0  0  0  0  0  0  0  0
  161.5200  206.6060  153.8520 N   0  0  0  0  0  0  0  0  0  0  0  0
  162.6400  205.9040  153.2480 C   0  0  0  0  0  3  0  0  0  0  0  0
  160.9960  206.4620  151.7570 C   0  0  0  0  0  0  0  0  0  0  0  0
  160.2650  206.6510  150.4690 C   0  0  0  0  0  2  0  0  0  0  0  0
  162.0410  206.9990  148.7920 C   0  0  0  0  0  3  0  0  0  0  0  0
  161.1000  206.2000  149.3110 C   0  0  0  0  0  0  0  0  0  0  0  0
  162.5570  210.7970  148.8150 C   0  0  1  0  0  3  0  0  0  0  0  0
  162.3630  208.3540  149.3370 C   0  0  2  0  0  3  0  0  0  0  0  0
  162.5390  210.8890  150.3490 C   0  0  0  0  0  2  0  0  0  0  0  0
  161.6400  208.5670  150.6010 N   0  0  0  0  0  2  0  0  0  0  0  0
  161.4540  209.9890  150.9460 C   0  0  0  0  0  2  0  0  0  0  0  0
  162.0450  209.4400  148.3130 C   0  0  0  0  0  2  0  0  0  0  0  0
  161.7560  211.9360  148.1910 C   0  0  2  0  0  3  0  0  0  0  0  0
  160.8630  211.4280  147.2440 O   0  0  0  0  0  1  0  0  0  0  0  0
  162.0110  213.3240  146.3190 C   0  0  0  0  0  1  0  0  0  0  0  0
  162.6530  212.8820  147.5440 N   0  0  0  0  0  2  0  0  0  0  0  0
  160.5100  203.7060  149.3710 C   0  0  0  0  0  0  0  0  0  0  0  0
  160.2830  203.6830  150.6070 O   0  0  0  0  0  0  0  0  0  0  0  0
  160.7770  204.9450  148.7020 N   0  0  0  0  0  2  0  0  0  0  0  0
  160.4960  202.5030  148.6590 O   0  0  0  0  0  0  0  0  0  0  0  0
  161.3920  202.1910  147.5930 C   0  0  1  0  0  3  0  0  0  0  0  0
  161.8810  200.7580  147.6950 C   0  0  0  0  0  1  0  0  0  0  0  0
  160.7680  202.4510  146.2230 C   0  0  0  0  0  2  0  0  0  0  0  0
  161.5550  203.4930  145.4520 C   0  0  0  0  0  2  0  0  0  0  0  0
  160.7050  204.2290  144.6270 O   0  0  0  0  0  0  0  0  0  0  0  0
  161.0230  205.5620  144.8920 C   0  0  0  0  0  1  0  0  0  0  0  0
  161.4660  207.1230  155.2120 C   0  0  0  0  0  2  0  0  0  0  0  0
  159.4630  208.6620  154.9890 C   0  0  0  0  0  2  0  0  0  0  0  0
  159.8810  208.7200  156.4400 C   0  0  1  0  0  3  0  0  0  0  0  0
  160.0270  207.4140  155.6460 C   0  0  2  0  0  3  0  0  0  0  0  0
  161.1240  209.4790  156.5440 N   0  0  0  0  0  2  0  0  0  0  0  0
  161.3010  210.8000  156.0190 C   0  0  0  0  0  0  0  0  0  0  0  0
  162.4730  211.2450  155.8960 O   0  0  0  0  0  0  0  0  0  0  0  0
  156.3740  212.4960  156.0780 C   0  0  0  0  0  0  0  0  0  0  0  0
  159.1240  213.1580  154.0360 C   0  0  0  0  0  0  0  0  0  0  0  0
  159.2030  213.8040  152.9090 C   0  0  0  0  0  0  0  0  0  0  0  0
  159.2830  214.4470  151.7740 C   0  0  0  0  0  3  0  0  0  0  0  0
  157.7860  212.2070  155.6540 C   0  0  1  0  0  3  0  0  0  0  0  0
  155.7000  212.3560  157.2200 C   0  0  0  0  0  2  0  0  0  0  0  0
  156.3910  213.7630  154.7320 S   0  0  0  0  0  0  0  0  0  0  0  0
  158.1210  213.5120  155.0720 C   0  0  2  0  0  3  0  0  0  0  0  0
  158.9340  211.7390  156.5260 C   0  0  0  0  0  2  0  0  0  0  0  0
  160.1630  211.6500  155.6120 C   0  0  0  0  0  0  0  0  0  0  0  0
  160.2020  212.3010  154.4690 N   0  0  0  0  0  0  0  0  0  0  0  0
  156.1940  213.8880  149.7010 C   0  0  0  0  0  0  0  0  0  0  0  0
  158.9700  213.7840  149.3690 C   0  0  0  0  0  3  0  0  0  0  0  0
  154.8160  213.9460  149.8630 O   0  0  0  0  0  1  0  0  0  0  0  0
  156.7380  213.5470  148.4590 C   0  0  0  0  0  3  0  0  0  0  0  0
  158.4290  214.1280  150.6210 C   0  0  0  0  0  0  0  0  0  0  0  0
  157.0390  214.1770  150.7790 C   0  0  0  0  0  3  0  0  0  0  0  0
  158.1250  213.4950  148.2910 C   0  0  0  0  0  3  0  0  0  0  0  0
  1  3  1  0  0  0  0
  2  4  2  0  0  0  0
  3 29  1  0  0  0  0
  4  3  1  0  0  0  0
  5  2  1  0  0  0  0
  5  1  2  0  0  0  0
  6  5  1  0  0  0  0
  7  8  2  0  0  0  0
  8  6  1  0  0  0  0
  9 15  1  6  0  0  0
  9 11  1  0  0  0  0
 10  7  1  6  0  0  0
 10 12  1  0  0  0  0
 11 13  1  0  0  0  0
 12 13  1  0  0  0  0
 14  9  1  0  0  0  0
 14 10  1  0  0  0  0
 15 16  1  6  0  0  0
 17 18  1  0  0  0  0
 18 15  1  0  0  0  0
 19 20  2  0  0  0  0
 21  8  1  0  0  0  0
 21 19  1  0  0  0  0
 22 19  1  0  0  0  0
 23 24  1  6  0  0  0
 23 22  1  0  0  0  0
 25 23  1  0  0  0  0
 26 25  1  0  0  0  0
 27 28  1  0  0  0  0
 27 26  1  0  0  0  0
 30 32  1  0  0  0  0
 30 31  1  0  0  0  0
 31 33  1  6  0  0  0
 32 29  1  6  0  0  0
 32 31  1  0  0  0  0
 34 33  1  0  0  0  0
 35 34  2  0  0  0  0
 36 41  2  0  0  0  0
 37 46  1  0  0  0  0
 38 37  2  0  0  0  0
 39 38  2  0  0  0  0
 40 36  1  0  0  0  0
 40 44  1  1  0  0  0
 42 43  1  0  0  0  0
 42 36  1  0  0  0  0
 43 37  1  6  0  0  0
 43 40  1  0  0  0  0
 45 34  1  0  0  0  0
 45 44  1  0  0  0  0
 46 45  2  0  0  0  0
 47 49  1  0  0  0  0
 47 52  1  0  0  0  0
 48 51  1  0  0  0  0
 50 47  2  0  0  0  0
 51 52  2  0  0  0  0
 51 39  1  0  0  0  0
 53 50  1  0  0  0  0
 53 48  2  0  0  0  0
M  END
>  <MODEL>
3

>  <REMARK>
 VINA RESULT:      -5.8      4.390     10.709
  Name = 
  16 active torsions:
  status: ('A' for Active; 'I' for Inactive)
    1  A    between atoms: C_2  and  C_3
    2  A    between atoms: C_3  and  N_14
    3  A    between atoms: C_4  and  O_30
    4  A    between atoms: C_5  and  C_46
    5  A    between atoms: C_5  and  C_53
    6  A    between atoms: C_7  and  C_50
    7  A    between atoms: C_18  and  C_19
    8  A    between atoms: C_18  and  C_32
    9  A    between atoms: C_19  and  O_30
   10  A    between atoms: C_20  and  N_27
   11  A    between atoms: C_21  and  C_34
   12  A    between atoms: C_23  and  C_25
   13  A    between atoms: C_23  and  N_38
   14  A    between atoms: O_26  and  C_32
   15  A    between atoms: C_42  and  C_45
   16  A    between atoms: N_43  and  C_53
                            x       y       z     vdW  Elec       q    Type
                         _______ _______ _______ _____ _____    ______ ____

>  <TORSDO>
F 16

$$$$
=
 OpenBabel11072411493D

 53 58  0  0  1  0  0  0  0  0999 V2000
  161.9830  210.0220  150.4550 N   0  0  0  0  0  0  0  0  0  0  0  0
  162.4330  208.7840  148.6060 N   0  0  0  0  0  0  0  0  0  0  0  0
  162.0200  210.8940  149.3710 N   0  0  0  0  0  0  0  0  0  0  0  0
  162.2640  210.1560  148.1430 C   0  0  0  0  0  3  0  0  0  0  0  0
  162.2470  208.8400  150.0150 C   0  0  0  0  0  0  0  0  0  0  0  0
  162.2670  207.6290  150.8880 C   0  0  0  0  0  2  0  0  0  0  0  0
  160.7540  206.9610  152.7200 C   0  0  0  0  0  3  0  0  0  0  0  0
  161.5550  207.8900  152.1780 C   0  0  0  0  0  0  0  0  0  0  0  0
  160.3920  204.2860  149.9980 C   0  0  1  0  0  3  0  0  0  0  0  0
  160.5450  205.6060  152.1230 C   0  0  2  0  0  3  0  0  0  0  0  0
  160.5750  203.1200  150.9830 C   0  0  0  0  0  2  0  0  0  0  0  0
  161.4050  204.6250  152.8030 N   0  0  0  0  0  2  0  0  0  0  0  0
  161.6810  203.4200  151.9980 C   0  0  0  0  0  2  0  0  0  0  0  0
  160.7950  205.6320  150.6170 C   0  0  0  0  0  2  0  0  0  0  0  0
  161.1670  204.0370  148.7080 C   0  0  2  0  0  3  0  0  0  0  0  0
  160.9270  205.0720  147.8000 O   0  0  0  0  0  1  0  0  0  0  0  0
  161.4750  202.6230  146.8630 C   0  0  0  0  0  1  0  0  0  0  0  0
  160.7530  202.7740  148.1140 N   0  0  0  0  0  2  0  0  0  0  0  0
  161.2970  209.5910  154.0780 C   0  0  0  0  0  0  0  0  0  0  0  0
  161.0870  208.7250  154.9650 O   0  0  0  0  0  0  0  0  0  0  0  0
  161.6580  209.2000  152.7480 N   0  0  0  0  0  2  0  0  0  0  0  0
  161.1730  210.9430  154.4130 O   0  0  0  0  0  0  0  0  0  0  0  0
  160.0360  211.5070  155.0640 C   0  0  1  0  0  3  0  0  0  0  0  0
  160.4120  212.0800  156.4170 C   0  0  0  0  0  1  0  0  0  0  0  0
  159.3470  212.5650  154.2040 C   0  0  0  0  0  2  0  0  0  0  0  0
  158.2970  213.3190  154.9980 C   0  0  0  0  0  2  0  0  0  0  0  0
  157.1310  213.4590  154.2470 O   0  0  0  0  0  0  0  0  0  0  0  0
  156.3560  212.3490  154.5860 C   0  0  0  0  0  1  0  0  0  0  0  0
  161.6130  212.2890  149.4660 C   0  0  0  0  0  2  0  0  0  0  0  0
  160.3500  211.8200  147.3160 C   0  0  0  0  0  2  0  0  0  0  0  0
  160.6300  213.3060  147.3290 C   0  0  1  0  0  3  0  0  0  0  0  0
  160.3520  212.5630  148.6420 C   0  0  2  0  0  3  0  0  0  0  0  0
  162.0500  213.5220  147.0720 N   0  0  0  0  0  2  0  0  0  0  0  0
  162.6630  213.3740  145.7850 C   0  0  0  0  0  0  0  0  0  0  0  0
  163.9180  213.2900  145.7240 O   0  0  0  0  0  0  0  0  0  0  0  0
  158.3600  213.6370  142.8580 C   0  0  0  0  0  0  0  0  0  0  0  0
  161.6320  212.5970  142.2400 C   0  0  0  0  0  0  0  0  0  0  0  0
  162.1420  211.9760  141.2160 C   0  0  0  0  0  0  0  0  0  0  0  0
  162.6540  211.3480  140.1920 C   0  0  0  0  0  3  0  0  0  0  0  0
  159.7430  213.3150  143.3490 C   0  0  1  0  0  3  0  0  0  0  0  0
  157.3900  214.4490  143.2800 C   0  0  0  0  0  2  0  0  0  0  0  0
  158.9980  213.1370  141.1970 S   0  0  0  0  0  0  0  0  0  0  0  0
  160.4830  213.5270  142.0990 C   0  0  2  0  0  3  0  0  0  0  0  0
  160.4930  213.9710  144.4910 C   0  0  0  0  0  2  0  0  0  0  0  0
  161.8770  213.3100  144.5360 C   0  0  0  0  0  0  0  0  0  0  0  0
  162.3540  212.6720  143.4890 N   0  0  0  0  0  0  0  0  0  0  0  0
  160.5120  208.9780  138.2050 C   0  0  0  0  0  0  0  0  0  0  0  0
  162.5710  208.8360  140.0930 C   0  0  0  0  0  3  0  0  0  0  0  0
  159.4940  209.0480  137.2630 O   0  0  0  0  0  1  0  0  0  0  0  0
  160.9900  207.7340  138.6260 C   0  0  0  0  0  3  0  0  0  0  0  0
  162.0950  210.0910  139.6730 C   0  0  0  0  0  0  0  0  0  0  0  0
  161.0630  210.1540  138.7280 C   0  0  0  0  0  3  0  0  0  0  0  0
  162.0200  207.6620  139.5700 C   0  0  0  0  0  3  0  0  0  0  0  0
  2  5  1  0  0  0  0
  3 29  1  0  0  0  0
  3  1  1  0  0  0  0
  4  2  2  0  0  0  0
  4  3  1  0  0  0  0
  5  1  2  0  0  0  0
  5  6  1  0  0  0  0
  6  8  1  0  0  0  0
  8  7  2  0  0  0  0
  8 21  1  0  0  0  0
  9 15  1  6  0  0  0
  9 14  1  0  0  0  0
  9 11  1  0  0  0  0
 10  7  1  1  0  0  0
 10 12  1  0  0  0  0
 11 13  1  0  0  0  0
 13 12  1  0  0  0  0
 14 10  1  0  0  0  0
 15 16  1  6  0  0  0
 17 18  1  0  0  0  0
 18 15  1  0  0  0  0
 19 22  1  0  0  0  0
 19 20  2  0  0  0  0
 21 19  1  0  0  0  0
 22 23  1  0  0  0  0
 23 24  1  1  0  0  0
 25 26  1  0  0  0  0
 25 23  1  0  0  0  0
 27 28  1  0  0  0  0
 27 26  1  0  0  0  0
 30 31  1  0  0  0  0
 30 32  1  0  0  0  0
 31 33  1  1  0  0  0
 31 32  1  0  0  0  0
 32 29  1  1  0  0  0
 34 33  1  0  0  0  0
 35 34  2  0  0  0  0
 36 41  2  0  0  0  0
 36 40  1  0  0  0  0
 37 46  1  0  0  0  0
 38 37  2  0  0  0  0
 39 38  2  0  0  0  0
 40 44  1  1  0  0  0
 42 36  1  0  0  0  0
 43 42  1  6  0  0  0
 43 37  1  0  0  0  0
 43 40  1  0  0  0  0
 44 45  1  0  0  0  0
 45 34  1  0  0  0  0
 46 45  2  0  0  0  0
 47 50  2  0  0  0  0
 47 52  1  0  0  0  0
 49 47  1  0  0  0  0
 50 53  1  0  0  0  0
 51 48  1  0  0  0  0
 51 39  1  0  0  0  0
 52 51  2  0  0  0  0
 53 48  2  0  0  0  0
M  END
>  <MODEL>
4

>  <REMARK>
 VINA RESULT:      -5.7      1.678      2.042
  Name = 
  16 active torsions:
  status: ('A' for Active; 'I' for Inactive)
    1  A    between atoms: C_2  and  C_3
    2  A    between atoms: C_3  and  N_14
    3  A    between atoms: C_4  and  O_30
    4  A    between atoms: C_5  and  C_46
    5  A    between atoms: C_5  and  C_53
    6  A    between atoms: C_7  and  C_50
    7  A    between atoms: C_18  and  C_19
    8  A    between atoms: C_18  and  C_32
    9  A    between atoms: C_19  and  O_30
   10  A    between atoms: C_20  and  N_27
   11  A    between atoms: C_21  and  C_34
   12  A    between atoms: C_23  and  C_25
   13  A    between atoms: C_23  and  N_38
   14  A    between atoms: O_26  and  C_32
   15  A    between atoms: C_42  and  C_45
   16  A    between atoms: N_43  and  C_53
                            x       y       z     vdW  Elec       q    Type
                         _______ _______ _______ _____ _____    ______ ____

>  <TORSDO>
F 16

$$$$
=
 OpenBabel11072411493D

 53 58  0  0  1  0  0  0  0  0999 V2000
  162.0420  210.4320  148.2310 N   0  0  0  0  0  0  0  0  0  0  0  0
  162.1420  210.2580  150.4920 N   0  0  0  0  0  0  0  0  0  0  0  0
  162.1890  209.0820  148.5360 N   0  0  0  0  0  0  0  0  0  0  0  0
  162.2170  208.8960  149.9770 C   0  0  0  0  0  3  0  0  0  0  0  0
  162.0470  211.0870  149.3390 C   0  0  0  0  0  0  0  0  0  0  0  0
  161.8800  212.5690  149.4140 C   0  0  0  0  0  2  0  0  0  0  0  0
  159.5150  213.2560  149.5690 C   0  0  0  0  0  3  0  0  0  0  0  0
  160.5810  212.9900  148.8010 C   0  0  0  0  0  0  0  0  0  0  0  0
  158.6020  214.1550  153.1810 C   0  0  1  0  0  3  0  0  0  0  0  0
  159.5420  213.2010  151.0630 C   0  0  2  0  0  3  0  0  0  0  0  0
  159.2380  212.8820  153.7620 C   0  0  0  0  0  2  0  0  0  0  0  0
  159.4340  211.8050  151.5120 N   0  0  0  0  0  2  0  0  0  0  0  0
  158.9310  211.6610  152.8900 C   0  0  0  0  0  2  0  0  0  0  0  0
  158.4390  214.0740  151.6570 C   0  0  0  0  0  2  0  0  0  0  0  0
  157.2620  214.4490  153.8490 C   0  0  2  0  0  3  0  0  0  0  0  0
  157.2700  213.9740  155.1630 O   0  0  0  0  0  1  0  0  0  0  0  0
  154.9440  214.4480  153.5010 C   0  0  0  0  0  1  0  0  0  0  0  0
  156.1860  213.8030  153.1130 N   0  0  0  0  0  2  0  0  0  0  0  0
  161.3360  213.6550  146.4440 C   0  0  0  0  0  0  0  0  0  0  0  0
  162.4400  214.1260  146.8180 O   0  0  0  0  0  0  0  0  0  0  0  0
  160.4790  212.9800  147.3730 N   0  0  0  0  0  2  0  0  0  0  0  0
  160.9590  213.8010  145.1060 O   0  0  0  0  0  0  0  0  0  0  0  0
  161.0090  212.7510  144.1400 C   0  0  1  0  0  3  0  0  0  0  0  0
  159.7060  211.9750  144.1120 C   0  0  0  0  0  1  0  0  0  0  0  0
  161.3570  213.2690  142.7460 C   0  0  0  0  0  2  0  0  0  0  0  0
  162.3400  212.3480  142.0480 C   0  0  0  0  0  2  0  0  0  0  0  0
  161.7090  211.6620  141.0120 O   0  0  0  0  0  0  0  0  0  0  0  0
  160.4490  212.2550  140.9120 C   0  0  0  0  0  1  0  0  0  0  0  0
  162.0660  208.0290  147.5390 C   0  0  0  0  0  2  0  0  0  0  0  0
  160.3400  206.2440  148.0580 C   0  0  0  0  0  2  0  0  0  0  0  0
  160.4620  206.2900  146.5520 C   0  0  1  0  0  3  0  0  0  0  0  0
  160.6120  207.5750  147.3770 C   0  0  2  0  0  3  0  0  0  0  0  0
  161.7370  205.6970  146.1630 N   0  0  0  0  0  2  0  0  0  0  0  0
  162.6030  204.9960  147.0650 C   0  0  0  0  0  0  0  0  0  0  0  0
  163.7940  204.7860  146.7140 O   0  0  0  0  0  0  0  0  0  0  0  0
  159.7210  202.1970  150.3850 C   0  0  0  0  0  0  0  0  0  0  0  0
  162.0020  204.8060  150.7860 C   0  0  0  0  0  0  0  0  0  0  0  0
  162.2900  205.5230  151.8330 C   0  0  0  0  0  0  0  0  0  0  0  0
  162.5760  206.2480  152.8820 C   0  0  0  0  0  3  0  0  0  0  0  0
  160.6060  203.2600  149.7980 C   0  0  1  0  0  3  0  0  0  0  0  0
  159.2660  201.0220  149.9490 C   0  0  0  0  0  2  0  0  0  0  0  0
  160.2990  202.8340  152.0210 S   0  0  0  0  0  0  0  0  0  0  0  0
  161.5660  203.3910  150.9020 C   0  0  2  0  0  3  0  0  0  0  0  0
  161.3600  203.2120  148.4840 C   0  0  0  0  0  2  0  0  0  0  0  0
  162.1510  204.5230  148.3900 C   0  0  0  0  0  0  0  0  0  0  0  0
  162.4060  205.2340  149.4670 N   0  0  0  0  0  0  0  0  0  0  0  0
  160.2290  207.0900  155.6990 C   0  0  0  0  0  0  0  0  0  0  0  0
  160.9150  208.1110  153.1870 C   0  0  0  0  0  3  0  0  0  0  0  0
  159.8930  206.5870  156.9490 O   0  0  0  0  0  1  0  0  0  0  0  0
  159.6040  208.2450  155.2200 C   0  0  0  0  0  3  0  0  0  0  0  0
  161.5470  206.9490  153.6640 C   0  0  0  0  0  0  0  0  0  0  0  0
  161.1980  206.4430  154.9220 C   0  0  0  0  0  3  0  0  0  0  0  0
  159.9460  208.7560  153.9630 C   0  0  0  0  0  3  0  0  0  0  0  0
  1  3  1  0  0  0  0
  1  5  2  0  0  0  0
  3  4  1  0  0  0  0
  4  2  2  0  0  0  0
  5  6  1  0  0  0  0
  5  2  1  0  0  0  0
  8  6  1  0  0  0  0
  8  7  2  0  0  0  0
  9 11  1  0  0  0  0
  9 15  1  1  0  0  0
 10  7  1  6  0  0  0
 10 12  1  0  0  0  0
 10 14  1  0  0  0  0
 12 13  1  0  0  0  0
 13 11  1  0  0  0  0
 14  9  1  0  0  0  0
 15 16  1  1  0  0  0
 18 17  1  0  0  0  0
 18 15  1  0  0  0  0
 19 20  2  0  0  0  0
 19 21  1  0  0  0  0
 21  8  1  0  0  0  0
 22 19  1  0  0  0  0
 23 24  1  6  0  0  0
 23 22  1  0  0  0  0
 25 23  1  0  0  0  0
 26 25  1  0  0  0  0
 27 26  1  0  0  0  0
 28 27  1  0  0  0  0
 29  3  1  0  0  0  0
 31 33  1  1  0  0  0
 31 32  1  0  0  0  0
 31 30  1  0  0  0  0
 32 29  1  1  0  0  0
 32 30  1  0  0  0  0
 33 34  1  0  0  0  0
 34 45  1  0  0  0  0
 35 34  2  0  0  0  0
 36 42  1  0  0  0  0
 37 38  2  0  0  0  0
 38 39  2  0  0  0  0
 39 51  1  0  0  0  0
 40 44  1  6  0  0  0
 40 36  1  0  0  0  0
 40 43  1  0  0  0  0
 41 36  2  0  0  0  0
 43 37  1  1  0  0  0
 43 42  1  0  0  0  0
 45 44  1  0  0  0  0
 45 46  2  0  0  0  0
 46 37  1  0  0  0  0
 47 49  1  0  0  0  0
 48 51  2  0  0  0  0
 48 53  1  0  0  0  0
 50 47  1  0  0  0  0
 51 52  1  0  0  0  0
 52 47  2  0  0  0  0
 53 50  2  0  0  0  0
M  END
>  <MODEL>
5

>  <REMARK>
 VINA RESULT:      -3.8      3.453     11.045
  Name = 
  16 active torsions:
  status: ('A' for Active; 'I' for Inactive)
    1  A    between atoms: C_2  and  C_3
    2  A    between atoms: C_3  and  N_14
    3  A    between atoms: C_4  and  O_30
    4  A    between atoms: C_5  and  C_46
    5  A    between atoms: C_5  and  C_53
    6  A    between atoms: C_7  and  C_50
    7  A    between atoms: C_18  and  C_19
    8  A    between atoms: C_18  and  C_32
    9  A    between atoms: C_19  and  O_30
   10  A    between atoms: C_20  and  N_27
   11  A    between atoms: C_21  and  C_34
   12  A    between atoms: C_23  and  C_25
   13  A    between atoms: C_23  and  N_38
   14  A    between atoms: O_26  and  C_32
   15  A    between atoms: C_42  and  C_45
   16  A    between atoms: N_43  and  C_53
                            x       y       z     vdW  Elec       q    Type
                         _______ _______ _______ _____ _____    ______ ____

>  <TORSDO>
F 16

$$$$
