=
 OpenBabel11072411263D

 35 39  0  0  1  0  0  0  0  0999 V2000
  161.2150  210.4860  152.1730 C   0  0  1  0  0  0  0  0  0  0  0  0
  160.5150  211.5360  154.2680 C   0  0  0  0  0  3  0  0  0  0  0  0
  162.5640  210.3020  151.6340 N   0  0  0  0  0  2  0  0  0  0  0  0
  161.5230  209.2770  151.4050 C   0  0  1  0  0  3  0  0  0  0  0  0
  161.2090  210.5630  153.6710 C   0  0  0  0  0  3  0  0  0  0  0  0
  159.7970  212.5220  153.5060 N   0  0  0  0  0  0  0  0  0  0  0  0
  160.5120  211.5460  151.4610 N   0  0  0  0  0  2  0  0  0  0  0  0
  159.7920  212.5510  152.2030 C   0  0  0  0  0  0  0  0  0  0  0  0
  161.5840  205.3860  153.3190 C   0  0  0  0  0  3  0  0  0  0  0  0
  161.8130  208.0490  152.2720 C   0  0  2  0  0  3  0  0  0  0  0  0
  162.2690  206.8730  151.3990 C   0  0  1  0  0  3  0  0  0  0  0  0
  160.5820  207.6740  153.1070 C   0  0  0  0  0  2  0  0  0  0  0  0
  160.6880  206.3000  153.7200 C   0  0  0  0  0  3  0  0  0  0  0  0
  162.6370  205.6820  152.2900 C   0  0  0  0  0  2  0  0  0  0  0  0
  161.2260  206.5100  150.4390 N   0  0  0  0  0  2  0  0  0  0  0  0
  161.0950  204.4440  149.1660 C   0  0  0  0  0  2  0  0  0  0  0  0
  161.5880  203.6810  147.9280 C   0  0  2  0  0  3  0  0  0  0  0  0
  162.1280  205.8490  146.7640 C   0  0  0  0  0  2  0  0  0  0  0  0
  161.7300  206.5510  148.0260 C   0  0  0  0  0  0  0  0  0  0  0  0
  161.3830  204.5220  146.6650 C   0  0  0  0  0  2  0  0  0  0  0  0
  161.3700  207.7170  147.9910 O   0  0  0  0  0  0  0  0  0  0  0  0
  161.8210  205.7820  149.3250 C   0  0  1  0  0  3  0  0  0  0  0  0
  160.8810  202.4830  147.8040 O   0  0  0  0  0  0  0  0  0  0  0  0
  160.4410  202.1810  149.0940 C   0  0  0  0  0  1  0  0  0  0  0  0
  159.3690  213.9490  150.2960 C   0  0  0  0  0  0  0  0  0  0  0  0
  159.0090  213.5770  151.4940 C   0  0  0  0  0  0  0  0  0  0  0  0
  159.7440  214.2530  149.0800 C   0  0  0  0  0  3  0  0  0  0  0  0
  157.7080  213.9170  151.9600 N   0  0  0  0  0  1  0  0  0  0  0  0
  157.5440  214.4520  148.0320 C   0  0  0  0  0  3  0  0  0  0  0  0
  156.6220  214.2650  146.8960 C   0  0  0  0  0  3  0  0  0  0  0  0
  159.4300  213.6550  146.6220 C   0  0  0  0  0  2  0  0  0  0  0  0
  158.6690  212.4710  144.6830 O   0  0  0  0  0  0  0  0  0  0  0  0
  158.8400  214.1160  147.9310 C   0  0  0  0  0  0  0  0  0  0  0  0
  158.3670  213.2240  145.6490 C   0  0  0  0  0  0  0  0  0  0  0  0
  157.0180  213.6800  145.8050 N   0  0  0  0  0  0  0  0  0  0  0  0
  1  5  1  1  0  0  0
  3  1  1  0  0  0  0
  4  3  1  1  0  0  0
  4  1  1  0  0  0  0
  4 10  1  0  0  0  0
  5  2  2  0  0  0  0
  6  2  1  0  0  0  0
  7  1  1  0  0  0  0
  7  8  1  0  0  0  0
  8  6  2  0  0  0  0
  9 13  2  0  0  0  0
 10 12  1  6  0  0  0
 11 15  1  6  0  0  0
 11 10  1  0  0  0  0
 11 14  1  0  0  0  0
 12 13  1  0  0  0  0
 14  9  1  0  0  0  0
 16 22  1  0  0  0  0
 17 23  1  6  0  0  0
 17 16  1  0  0  0  0
 18 19  1  0  0  0  0
 19 22  1  0  0  0  0
 20 18  1  0  0  0  0
 20 17  1  0  0  0  0
 21 19  2  0  0  0  0
 22 15  1  1  0  0  0
 23 24  1  0  0  0  0
 25 26  2  0  0  0  0
 26 28  1  0  0  0  0
 26  8  1  0  0  0  0
 27 25  2  0  0  0  0
 30 29  1  0  0  0  0
 31 33  1  0  0  0  0
 32 34  2  0  0  0  0
 33 29  2  0  0  0  0
 33 27  1  0  0  0  0
 34 35  1  0  0  0  0
 34 31  1  0  0  0  0
 35 30  2  0  0  0  0
M  END
>  <MODEL>
1

>  <REMARK>
 VINA RESULT:      -8.0      0.000      0.000
  Name = 
  6 active torsions:
  status: ('A' for Active; 'I' for Inactive)
    1  A    between atoms: C_3  and  O_17
    2  A    between atoms: C_9  and  C_31
    3  A    between atoms: C_11  and  C_24
    4  A    between atoms: C_12  and  C_16
    5  A    between atoms: N_14  and  C_19
    6  A    between atoms: N_14  and  C_35
                            x       y       z     vdW  Elec       q    Type
                         _______ _______ _______ _____ _____    ______ ____

>  <TORSDO>
F 6

$$$$
=
 OpenBabel11072411263D

 35 39  0  0  1  0  0  0  0  0999 V2000
  160.6680  209.9780  153.1490 C   0  0  1  0  0  0  0  0  0  0  0  0
  160.4710  210.3610  155.5570 C   0  0  0  0  0  3  0  0  0  0  0  0
  161.8090  210.2160  152.2620 N   0  0  0  0  0  2  0  0  0  0  0  0
  160.9100  209.0660  152.0280 C   0  0  1  0  0  3  0  0  0  0  0  0
  161.0930  209.7190  154.5630 C   0  0  0  0  0  3  0  0  0  0  0  0
  159.4230  211.3110  155.2950 N   0  0  0  0  0  0  0  0  0  0  0  0
  159.6370  210.9910  152.9510 N   0  0  0  0  0  2  0  0  0  0  0  0
  159.0290  211.6250  154.0930 C   0  0  0  0  0  0  0  0  0  0  0  0
  162.2360  204.9670  152.5350 C   0  0  0  0  0  3  0  0  0  0  0  0
  161.6200  207.7700  152.4270 C   0  0  2  0  0  3  0  0  0  0  0  0
  162.2560  207.1070  151.1980 C   0  0  1  0  0  3  0  0  0  0  0  0
  160.6470  206.8140  153.1300 C   0  0  0  0  0  2  0  0  0  0  0  0
  161.1880  205.4110  153.2460 C   0  0  0  0  0  3  0  0  0  0  0  0
  163.0340  205.8600  151.6290 C   0  0  0  0  0  2  0  0  0  0  0  0
  161.2320  206.7730  150.2070 N   0  0  0  0  0  2  0  0  0  0  0  0
  161.1290  204.6760  148.9830 C   0  0  0  0  0  2  0  0  0  0  0  0
  161.6360  203.8890  147.7650 C   0  0  2  0  0  3  0  0  0  0  0  0
  162.1560  206.0350  146.5520 C   0  0  0  0  0  2  0  0  0  0  0  0
  161.7450  206.7620  147.7960 C   0  0  0  0  0  0  0  0  0  0  0  0
  161.4270  204.6980  146.4820 C   0  0  0  0  0  2  0  0  0  0  0  0
  161.3720  207.9230  147.7310 O   0  0  0  0  0  0  0  0  0  0  0  0
  161.8400  206.0250  149.1120 C   0  0  1  0  0  3  0  0  0  0  0  0
  160.9430  202.6820  147.6670 O   0  0  0  0  0  0  0  0  0  0  0  0
  160.5380  202.3820  148.9690 C   0  0  0  0  0  1  0  0  0  0  0  0
  158.0010  213.4710  152.9510 C   0  0  0  0  0  0  0  0  0  0  0  0
  157.9290  212.5870  153.9090 C   0  0  0  0  0  0  0  0  0  0  0  0
  158.0980  214.3060  151.9480 C   0  0  0  0  0  3  0  0  0  0  0  0
  156.6760  212.3540  154.5400 N   0  0  0  0  0  1  0  0  0  0  0  0
  155.7750  214.4330  151.2010 C   0  0  0  0  0  3  0  0  0  0  0  0
  154.7470  214.4480  150.1430 C   0  0  0  0  0  3  0  0  0  0  0  0
  157.5520  214.4530  149.4630 C   0  0  0  0  0  2  0  0  0  0  0  0
  156.7170  213.8150  147.3110 O   0  0  0  0  0  0  0  0  0  0  0  0
  157.0800  214.3760  150.8930 C   0  0  0  0  0  0  0  0  0  0  0  0
  156.4410  214.1660  148.4890 C   0  0  0  0  0  0  0  0  0  0  0  0
  155.0740  214.3090  148.8920 N   0  0  0  0  0  0  0  0  0  0  0  0
  1  5  1  1  0  0  0
  3  1  1  0  0  0  0
  4  3  1  6  0  0  0
  4 10  1  0  0  0  0
  4  1  1  0  0  0  0
  5  2  2  0  0  0  0
  6  2  1  0  0  0  0
  7  1  1  0  0  0  0
  7  8  1  0  0  0  0
  8  6  2  0  0  0  0
  9 13  2  0  0  0  0
 10 12  1  6  0  0  0
 11 15  1  6  0  0  0
 11 14  1  0  0  0  0
 11 10  1  0  0  0  0
 12 13  1  0  0  0  0
 14  9  1  0  0  0  0
 16 22  1  0  0  0  0
 17 23  1  6  0  0  0
 17 16  1  0  0  0  0
 18 19  1  0  0  0  0
 19 22  1  0  0  0  0
 20 18  1  0  0  0  0
 20 17  1  0  0  0  0
 21 19  2  0  0  0  0
 22 15  1  1  0  0  0
 23 24  1  0  0  0  0
 25 26  2  0  0  0  0
 26  8  1  0  0  0  0
 26 28  1  0  0  0  0
 27 25  2  0  0  0  0
 30 29  1  0  0  0  0
 31 33  1  0  0  0  0
 32 34  2  0  0  0  0
 33 29  2  0  0  0  0
 33 27  1  0  0  0  0
 34 35  1  0  0  0  0
 34 31  1  0  0  0  0
 35 30  2  0  0  0  0
M  END
>  <MODEL>
2

>  <REMARK>
 VINA RESULT:      -7.7      1.695      2.101
  Name = 
  6 active torsions:
  status: ('A' for Active; 'I' for Inactive)
    1  A    between atoms: C_3  and  O_17
    2  A    between atoms: C_9  and  C_31
    3  A    between atoms: C_11  and  C_24
    4  A    between atoms: C_12  and  C_16
    5  A    between atoms: N_14  and  C_19
    6  A    between atoms: N_14  and  C_35
                            x       y       z     vdW  Elec       q    Type
                         _______ _______ _______ _____ _____    ______ ____

>  <TORSDO>
F 6

$$$$
=
 OpenBabel11072411263D

 35 39  0  0  1  0  0  0  0  0999 V2000
  161.1150  208.0730  152.4400 C   0  0  1  0  0  0  0  0  0  0  0  0
  160.9980  208.4800  154.8490 C   0  0  0  0  0  3  0  0  0  0  0  0
  162.2920  207.9700  151.5730 N   0  0  0  0  0  2  0  0  0  0  0  0
  161.0980  207.1380  151.3120 C   0  0  1  0  0  3  0  0  0  0  0  0
  161.4200  207.6900  153.8570 C   0  0  0  0  0  3  0  0  0  0  0  0
  160.2810  209.6990  154.5830 N   0  0  0  0  0  0  0  0  0  0  0  0
  160.4330  209.3460  152.2390 N   0  0  0  0  0  2  0  0  0  0  0  0
  160.0190  210.1240  153.3790 C   0  0  0  0  0  0  0  0  0  0  0  0
  161.1880  202.8230  151.7440 C   0  0  0  0  0  3  0  0  0  0  0  0
  161.3880  205.6870  151.7050 C   0  0  2  0  0  3  0  0  0  0  0  0
  161.9030  204.8970  150.4960 C   0  0  1  0  0  3  0  0  0  0  0  0
  160.1380  205.0300  152.3060 C   0  0  0  0  0  2  0  0  0  0  0  0
  160.2560  203.5290  152.4020 C   0  0  0  0  0  3  0  0  0  0  0  0
  162.2680  203.4730  150.9280 C   0  0  0  0  0  2  0  0  0  0  0  0
  160.9020  204.8820  149.4280 N   0  0  0  0  0  2  0  0  0  0  0  0
  160.8870  203.5620  147.3870 C   0  0  0  0  0  2  0  0  0  0  0  0
  161.4550  203.4090  145.9690 C   0  0  2  0  0  3  0  0  0  0  0  0
  161.9810  205.8720  145.8760 C   0  0  0  0  0  2  0  0  0  0  0  0
  161.5090  205.9600  147.2950 C   0  0  0  0  0  0  0  0  0  0  0  0
  161.2810  204.7100  145.1800 C   0  0  0  0  0  2  0  0  0  0  0  0
  161.1160  207.0250  147.7440 O   0  0  0  0  0  0  0  0  0  0  0  0
  161.5660  204.7080  148.1410 C   0  0  1  0  0  3  0  0  0  0  0  0
  160.7900  202.3760  145.3070 O   0  0  0  0  0  0  0  0  0  0  0  0
  160.7460  201.3210  146.2210 C   0  0  0  0  0  1  0  0  0  0  0  0
  159.5970  212.1960  152.2410 C   0  0  0  0  0  0  0  0  0  0  0  0
  159.2550  211.3680  153.1910 C   0  0  0  0  0  0  0  0  0  0  0  0
  159.9510  212.9690  151.2460 C   0  0  0  0  0  3  0  0  0  0  0  0
  157.9800  211.5130  153.8050 N   0  0  0  0  0  1  0  0  0  0  0  0
  157.6900  213.3650  150.4060 C   0  0  0  0  0  3  0  0  0  0  0  0
  156.7420  213.6860  149.3220 C   0  0  0  0  0  3  0  0  0  0  0  0
  159.5890  213.7640  148.8520 C   0  0  0  0  0  2  0  0  0  0  0  0
  158.9010  213.7250  146.5580 O   0  0  0  0  0  0  0  0  0  0  0  0
  159.0130  213.3420  150.1810 C   0  0  0  0  0  0  0  0  0  0  0  0
  158.5470  213.7740  147.7670 C   0  0  0  0  0  0  0  0  0  0  0  0
  157.1560  213.8580  148.1020 N   0  0  0  0  0  0  0  0  0  0  0  0
  1  5  1  1  0  0  0
  3  1  1  0  0  0  0
  4  3  1  6  0  0  0
  4 10  1  0  0  0  0
  4  1  1  0  0  0  0
  5  2  2  0  0  0  0
  6  2  1  0  0  0  0
  7  1  1  0  0  0  0
  7  8  1  0  0  0  0
  8  6  2  0  0  0  0
  9 13  2  0  0  0  0
 10 12  1  6  0  0  0
 11 15  1  6  0  0  0
 11 14  1  0  0  0  0
 11 10  1  0  0  0  0
 12 13  1  0  0  0  0
 14  9  1  0  0  0  0
 16 22  1  0  0  0  0
 17 23  1  6  0  0  0
 17 16  1  0  0  0  0
 18 19  1  0  0  0  0
 19 21  2  0  0  0  0
 19 22  1  0  0  0  0
 20 18  1  0  0  0  0
 20 17  1  0  0  0  0
 22 15  1  1  0  0  0
 23 24  1  0  0  0  0
 25 26  2  0  0  0  0
 26  8  1  0  0  0  0
 26 28  1  0  0  0  0
 27 25  2  0  0  0  0
 30 29  1  0  0  0  0
 31 33  1  0  0  0  0
 32 34  2  0  0  0  0
 33 29  2  0  0  0  0
 33 27  1  0  0  0  0
 34 35  1  0  0  0  0
 34 31  1  0  0  0  0
 35 30  2  0  0  0  0
M  END
>  <MODEL>
3

>  <REMARK>
 VINA RESULT:      -7.4      1.755      2.418
  Name = 
  6 active torsions:
  status: ('A' for Active; 'I' for Inactive)
    1  A    between atoms: C_3  and  O_17
    2  A    between atoms: C_9  and  C_31
    3  A    between atoms: C_11  and  C_24
    4  A    between atoms: C_12  and  C_16
    5  A    between atoms: N_14  and  C_19
    6  A    between atoms: N_14  and  C_35
                            x       y       z     vdW  Elec       q    Type
                         _______ _______ _______ _____ _____    ______ ____

>  <TORSDO>
F 6

$$$$
=
 OpenBabel11072411263D

 35 39  0  0  1  0  0  0  0  0999 V2000
  161.0110  208.9210  152.3990 C   0  0  1  0  0  0  0  0  0  0  0  0
  161.6520  206.5620  152.4600 C   0  0  0  0  0  3  0  0  0  0  0  0
  159.7060  209.5350  152.6560 N   0  0  0  0  0  2  0  0  0  0  0  0
  160.9480  210.2330  153.0480 C   0  0  1  0  0  3  0  0  0  0  0  0
  161.1790  207.6200  153.1250 C   0  0  0  0  0  3  0  0  0  0  0  0
  161.9790  206.6390  151.0620 N   0  0  0  0  0  0  0  0  0  0  0  0
  161.3100  208.9170  150.9720 N   0  0  0  0  0  2  0  0  0  0  0  0
  161.8170  207.7200  150.3510 C   0  0  0  0  0  0  0  0  0  0  0  0
  161.5380  211.0860  157.2600 C   0  0  0  0  0  3  0  0  0  0  0  0
  161.1080  210.1790  154.5700 C   0  0  2  0  0  3  0  0  0  0  0  0
  160.0100  211.0040  155.2540 C   0  0  1  0  0  3  0  0  0  0  0  0
  162.5040  210.6630  154.9850 C   0  0  0  0  0  2  0  0  0  0  0  0
  162.6080  210.9480  156.4630 C   0  0  0  0  0  3  0  0  0  0  0  0
  160.1340  210.8670  156.7750 C   0  0  0  0  0  2  0  0  0  0  0  0
  160.0890  212.4060  154.8430 N   0  0  0  0  0  2  0  0  0  0  0  0
  157.7590  211.7620  154.5950 C   0  0  0  0  0  2  0  0  0  0  0  0
  156.3060  212.2530  154.5210 C   0  0  2  0  0  3  0  0  0  0  0  0
  156.9100  214.3420  155.7930 C   0  0  0  0  0  2  0  0  0  0  0  0
  158.3330  213.8740  155.7590 C   0  0  0  0  0  0  0  0  0  0  0  0
  155.9780  213.1370  155.7270 C   0  0  0  0  0  2  0  0  0  0  0  0
  159.1280  214.2710  156.5960 O   0  0  0  0  0  0  0  0  0  0  0  0
  158.7430  212.9340  154.6490 C   0  0  1  0  0  3  0  0  0  0  0  0
  155.4420  211.1580  154.5030 O   0  0  0  0  0  0  0  0  0  0  0  0
  155.5850  210.5560  155.7550 C   0  0  0  0  0  1  0  0  0  0  0  0
  162.4840  206.6020  148.3330 C   0  0  0  0  0  0  0  0  0  0  0  0
  162.2030  207.7280  148.9300 C   0  0  0  0  0  0  0  0  0  0  0  0
  162.7110  205.4430  147.7690 C   0  0  0  0  0  3  0  0  0  0  0  0
  161.9570  208.8840  148.1390 N   0  0  0  0  0  1  0  0  0  0  0  0
  161.4030  205.8770  145.7500 C   0  0  0  0  0  3  0  0  0  0  0  0
  160.6020  205.4270  144.5960 C   0  0  0  0  0  3  0  0  0  0  0  0
  161.8980  203.5090  146.3200 C   0  0  0  0  0  2  0  0  0  0  0  0
  160.3840  201.9890  145.2560 O   0  0  0  0  0  0  0  0  0  0  0  0
  161.9610  204.9920  146.5910 C   0  0  0  0  0  0  0  0  0  0  0  0
  160.8310  203.1660  145.3170 C   0  0  0  0  0  0  0  0  0  0  0  0
  160.3350  204.1670  144.4200 N   0  0  0  0  0  0  0  0  0  0  0  0
  1  3  1  0  0  0  0
  1  4  1  0  0  0  0
  1  5  1  1  0  0  0
  2  5  2  0  0  0  0
  4  3  1  1  0  0  0
  4 10  1  0  0  0  0
  6  2  1  0  0  0  0
  7  1  1  0  0  0  0
  8  7  1  0  0  0  0
  8  6  2  0  0  0  0
 10 12  1  6  0  0  0
 10 11  1  0  0  0  0
 11 15  1  1  0  0  0
 11 14  1  0  0  0  0
 12 13  1  0  0  0  0
 13  9  2  0  0  0  0
 14  9  1  0  0  0  0
 16 22  1  0  0  0  0
 17 23  1  1  0  0  0
 17 16  1  0  0  0  0
 17 20  1  0  0  0  0
 19 18  1  0  0  0  0
 19 21  2  0  0  0  0
 20 18  1  0  0  0  0
 22 15  1  1  0  0  0
 22 19  1  0  0  0  0
 23 24  1  0  0  0  0
 25 26  2  0  0  0  0
 26  8  1  0  0  0  0
 27 25  2  0  0  0  0
 28 26  1  0  0  0  0
 29 33  2  0  0  0  0
 30 29  1  0  0  0  0
 31 33  1  0  0  0  0
 32 34  2  0  0  0  0
 33 27  1  0  0  0  0
 34 31  1  0  0  0  0
 35 30  2  0  0  0  0
 35 34  1  0  0  0  0
M  END
>  <MODEL>
4

>  <REMARK>
 VINA RESULT:      -7.0      4.166      8.629
  Name = 
  6 active torsions:
  status: ('A' for Active; 'I' for Inactive)
    1  A    between atoms: C_3  and  O_17
    2  A    between atoms: C_9  and  C_31
    3  A    between atoms: C_11  and  C_24
    4  A    between atoms: C_12  and  C_16
    5  A    between atoms: N_14  and  C_19
    6  A    between atoms: N_14  and  C_35
                            x       y       z     vdW  Elec       q    Type
                         _______ _______ _______ _____ _____    ______ ____

>  <TORSDO>
F 6

$$$$
=
 OpenBabel11072411263D

 35 39  0  0  1  0  0  0  0  0999 V2000
  161.5070  210.7070  151.2670 C   0  0  1  0  0  0  0  0  0  0  0  0
  160.0850  212.0620  152.7250 C   0  0  0  0  0  3  0  0  0  0  0  0
  162.9610  210.5280  151.2960 N   0  0  0  0  0  2  0  0  0  0  0  0
  162.0790  209.4060  150.9090 C   0  0  1  0  0  3  0  0  0  0  0  0
  160.9510  211.0500  152.6170 C   0  0  0  0  0  3  0  0  0  0  0  0
  159.6960  212.8410  151.5800 N   0  0  0  0  0  0  0  0  0  0  0  0
  161.1130  211.5700  150.1600 N   0  0  0  0  0  2  0  0  0  0  0  0
  160.1700  212.6360  150.3840 C   0  0  0  0  0  0  0  0  0  0  0  0
  161.1460  206.1310  153.5950 C   0  0  0  0  0  3  0  0  0  0  0  0
  162.0320  208.3770  152.0420 C   0  0  2  0  0  3  0  0  0  0  0  0
  162.2630  206.9640  151.4910 C   0  0  1  0  0  3  0  0  0  0  0  0
  160.7000  208.4660  152.7990 C   0  0  0  0  0  2  0  0  0  0  0  0
  160.4560  207.2770  153.6950 C   0  0  0  0  0  3  0  0  0  0  0  0
  162.2980  205.9600  152.6480 C   0  0  0  0  0  2  0  0  0  0  0  0
  161.2230  206.6140  150.5220 N   0  0  0  0  0  2  0  0  0  0  0  0
  160.8590  204.3730  149.6550 C   0  0  0  0  0  2  0  0  0  0  0  0
  161.2750  203.3350  148.6030 C   0  0  2  0  0  3  0  0  0  0  0  0
  162.1000  205.1600  147.0750 C   0  0  0  0  0  2  0  0  0  0  0  0
  161.7700  206.1330  148.1670 C   0  0  0  0  0  0  0  0  0  0  0  0
  161.1980  203.9370  147.1970 C   0  0  0  0  0  2  0  0  0  0  0  0
  161.5580  207.3050  147.8980 O   0  0  0  0  0  0  0  0  0  0  0  0
  161.7430  205.6210  149.5880 C   0  0  1  0  0  3  0  0  0  0  0  0
  160.4270  202.2280  148.6770 O   0  0  0  0  0  0  0  0  0  0  0  0
  160.9170  201.3250  147.7310 C   0  0  0  0  0  1  0  0  0  0  0  0
  160.4770  213.6420  148.2240 C   0  0  0  0  0  0  0  0  0  0  0  0
  159.7000  213.4600  149.2570 C   0  0  0  0  0  0  0  0  0  0  0  0
  161.2750  213.7550  147.1930 C   0  0  0  0  0  3  0  0  0  0  0  0
  158.3180  213.7770  149.1440 N   0  0  0  0  0  1  0  0  0  0  0  0
  159.5850  213.0350  145.5810 C   0  0  0  0  0  3  0  0  0  0  0  0
  159.1780  212.5760  144.2390 C   0  0  0  0  0  3  0  0  0  0  0  0
  161.9050  213.3710  144.7530 C   0  0  0  0  0  2  0  0  0  0  0  0
  162.3080  212.2070  142.7000 O   0  0  0  0  0  0  0  0  0  0  0  0
  160.8630  213.3510  145.8440 C   0  0  0  0  0  0  0  0  0  0  0  0
  161.4550  212.6150  143.5330 C   0  0  0  0  0  0  0  0  0  0  0  0
  160.0610  212.3730  143.3070 N   0  0  0  0  0  0  0  0  0  0  0  0
  1  3  1  0  0  0  0
  1  5  1  1  0  0  0
  4  1  1  0  0  0  0
  4  3  1  1  0  0  0
  4 10  1  0  0  0  0
  5  2  2  0  0  0  0
  6  2  1  0  0  0  0
  7  8  1  0  0  0  0
  7  1  1  0  0  0  0
  8  6  2  0  0  0  0
  9 13  2  0  0  0  0
 10 12  1  6  0  0  0
 11 15  1  6  0  0  0
 11 10  1  0  0  0  0
 11 14  1  0  0  0  0
 12 13  1  0  0  0  0
 14  9  1  0  0  0  0
 17 23  1  6  0  0  0
 17 16  1  0  0  0  0
 18 20  1  0  0  0  0
 18 19  1  0  0  0  0
 19 22  1  0  0  0  0
 20 17  1  0  0  0  0
 21 19  2  0  0  0  0
 22 16  1  0  0  0  0
 22 15  1  1  0  0  0
 24 23  1  0  0  0  0
 25 26  2  0  0  0  0
 26  8  1  0  0  0  0
 27 25  2  0  0  0  0
 28 26  1  0  0  0  0
 29 33  2  0  0  0  0
 30 29  1  0  0  0  0
 31 33  1  0  0  0  0
 32 34  2  0  0  0  0
 33 27  1  0  0  0  0
 34 31  1  0  0  0  0
 35 34  1  0  0  0  0
 35 30  2  0  0  0  0
M  END
>  <MODEL>
5

>  <REMARK>
 VINA RESULT:      -7.0      1.679      2.049
  Name = 
  6 active torsions:
  status: ('A' for Active; 'I' for Inactive)
    1  A    between atoms: C_3  and  O_17
    2  A    between atoms: C_9  and  C_31
    3  A    between atoms: C_11  and  C_24
    4  A    between atoms: C_12  and  C_16
    5  A    between atoms: N_14  and  C_19
    6  A    between atoms: N_14  and  C_35
                            x       y       z     vdW  Elec       q    Type
                         _______ _______ _______ _____ _____    ______ ____

>  <TORSDO>
F 6

$$$$
=
 OpenBabel11072411263D

 35 39  0  0  1  0  0  0  0  0999 V2000
  161.8500  209.9670  148.7120 C   0  0  1  0  0  0  0  0  0  0  0  0
  162.0650  212.2100  149.6630 C   0  0  0  0  0  3  0  0  0  0  0  0
  162.8970  209.0350  148.2880 N   0  0  0  0  0  2  0  0  0  0  0  0
  161.6490  208.5270  148.8970 C   0  0  1  0  0  3  0  0  0  0  0  0
  162.3240  210.9040  149.7820 C   0  0  0  0  0  3  0  0  0  0  0  0
  161.3650  212.7350  148.5220 N   0  0  0  0  0  0  0  0  0  0  0  0
  161.1940  210.5700  147.5580 N   0  0  0  0  0  2  0  0  0  0  0  0
  160.9620  211.9920  147.5300 C   0  0  0  0  0  0  0  0  0  0  0  0
  161.6310  206.5730  152.7700 C   0  0  0  0  0  3  0  0  0  0  0  0
  161.9360  208.0410  150.3210 C   0  0  2  0  0  3  0  0  0  0  0  0
  162.2410  206.5370  150.3210 C   0  0  1  0  0  3  0  0  0  0  0  0
  160.7590  208.3670  151.2500 C   0  0  0  0  0  2  0  0  0  0  0  0
  160.8310  207.6300  152.5650 C   0  0  0  0  0  3  0  0  0  0  0  0
  162.6090  206.0870  151.7380 C   0  0  0  0  0  2  0  0  0  0  0  0
  161.0980  205.7800  149.8080 N   0  0  0  0  0  2  0  0  0  0  0  0
  160.8740  203.4070  149.3320 C   0  0  0  0  0  2  0  0  0  0  0  0
  161.2350  202.2650  148.3710 C   0  0  2  0  0  3  0  0  0  0  0  0
  161.5630  203.9050  146.4870 C   0  0  0  0  0  2  0  0  0  0  0  0
  161.3010  204.9970  147.4790 C   0  0  0  0  0  0  0  0  0  0  0  0
  160.8510  202.6330  146.9350 C   0  0  0  0  0  2  0  0  0  0  0  0
  160.9040  206.0870  147.0990 O   0  0  0  0  0  0  0  0  0  0  0  0
  161.5740  204.7110  148.9380 C   0  0  1  0  0  3  0  0  0  0  0  0
  160.5550  201.1060  148.7470 O   0  0  0  0  0  0  0  0  0  0  0  0
  160.4250  201.1880  150.1350 C   0  0  0  0  0  1  0  0  0  0  0  0
  160.8700  212.9490  145.3280 C   0  0  0  0  0  0  0  0  0  0  0  0
  160.2260  212.6020  146.4090 C   0  0  0  0  0  0  0  0  0  0  0  0
  161.5530  213.2360  144.2500 C   0  0  0  0  0  3  0  0  0  0  0  0
  158.8060  212.5130  146.3670 N   0  0  0  0  0  1  0  0  0  0  0  0
  159.9270  212.5740  142.5490 C   0  0  0  0  0  3  0  0  0  0  0  0
  159.5740  211.9600  141.2560 C   0  0  0  0  0  3  0  0  0  0  0  0
  162.3380  212.2830  142.0210 C   0  0  0  0  0  2  0  0  0  0  0  0
  162.6910  210.6950  140.2620 O   0  0  0  0  0  0  0  0  0  0  0  0
  161.2080  212.6750  142.9390 C   0  0  0  0  0  0  0  0  0  0  0  0
  161.8650  211.4130  140.8870 C   0  0  0  0  0  0  0  0  0  0  0  0
  160.4840  211.4140  140.5050 N   0  0  0  0  0  0  0  0  0  0  0  0
  1  4  1  0  0  0  0
  1  5  1  1  0  0  0
  2  5  2  0  0  0  0
  3  1  1  0  0  0  0
  4  3  1  6  0  0  0
  4 10  1  0  0  0  0
  6  2  1  0  0  0  0
  7  1  1  0  0  0  0
  8  7  1  0  0  0  0
  8  6  2  0  0  0  0
 10 11  1  0  0  0  0
 10 12  1  1  0  0  0
 11 15  1  1  0  0  0
 11 14  1  0  0  0  0
 12 13  1  0  0  0  0
 13  9  2  0  0  0  0
 14  9  1  0  0  0  0
 17 23  1  1  0  0  0
 17 16  1  0  0  0  0
 18 20  1  0  0  0  0
 18 19  1  0  0  0  0
 19 22  1  0  0  0  0
 20 17  1  0  0  0  0
 21 19  2  0  0  0  0
 22 16  1  0  0  0  0
 22 15  1  1  0  0  0
 23 24  1  0  0  0  0
 25 26  2  0  0  0  0
 26  8  1  0  0  0  0
 27 25  2  0  0  0  0
 28 26  1  0  0  0  0
 29 33  2  0  0  0  0
 30 29  1  0  0  0  0
 31 33  1  0  0  0  0
 32 34  2  0  0  0  0
 33 27  1  0  0  0  0
 34 31  1  0  0  0  0
 35 34  1  0  0  0  0
 35 30  2  0  0  0  0
M  END
>  <MODEL>
6

>  <REMARK>
 VINA RESULT:      -6.8      3.036      4.036
  Name = 
  6 active torsions:
  status: ('A' for Active; 'I' for Inactive)
    1  A    between atoms: C_3  and  O_17
    2  A    between atoms: C_9  and  C_31
    3  A    between atoms: C_11  and  C_24
    4  A    between atoms: C_12  and  C_16
    5  A    between atoms: N_14  and  C_19
    6  A    between atoms: N_14  and  C_35
                            x       y       z     vdW  Elec       q    Type
                         _______ _______ _______ _____ _____    ______ ____

>  <TORSDO>
F 6

$$$$
=
 OpenBabel11072411263D

 35 39  0  0  1  0  0  0  0  0999 V2000
  161.9200  209.7280  148.8470 C   0  0  1  0  0  0  0  0  0  0  0  0
  162.6100  211.9200  149.6850 C   0  0  0  0  0  3  0  0  0  0  0  0
  162.7410  208.6390  148.3110 N   0  0  0  0  0  2  0  0  0  0  0  0
  161.5300  208.3390  149.1050 C   0  0  1  0  0  3  0  0  0  0  0  0
  162.6800  210.5910  149.8090 C   0  0  0  0  0  3  0  0  0  0  0  0
  161.8420  212.5360  148.6370 N   0  0  0  0  0  0  0  0  0  0  0  0
  161.2060  210.4140  147.7770 N   0  0  0  0  0  2  0  0  0  0  0  0
  161.1930  211.8550  147.7350 C   0  0  0  0  0  0  0  0  0  0  0  0
  161.7220  206.5610  153.0570 C   0  0  0  0  0  3  0  0  0  0  0  0
  161.9390  207.8290  150.4890 C   0  0  2  0  0  3  0  0  0  0  0  0
  161.8320  206.2990  150.5490 C   0  0  1  0  0  3  0  0  0  0  0  0
  161.0850  208.4870  151.5820 C   0  0  0  0  0  2  0  0  0  0  0  0
  161.2050  207.7910  152.9150 C   0  0  0  0  0  3  0  0  0  0  0  0
  162.3260  205.8010  151.9110 C   0  0  0  0  0  2  0  0  0  0  0  0
  160.4550  205.8700  150.2990 N   0  0  0  0  0  2  0  0  0  0  0  0
  161.5450  205.2800  148.2090 C   0  0  0  0  0  2  0  0  0  0  0  0
  161.6640  204.2370  147.0880 C   0  0  2  0  0  3  0  0  0  0  0  0
  160.8370  202.4290  148.6350 C   0  0  0  0  0  2  0  0  0  0  0  0
  160.6430  203.4930  149.6710 C   0  0  0  0  0  0  0  0  0  0  0  0
  161.9440  202.8510  147.6750 C   0  0  0  0  0  2  0  0  0  0  0  0
  160.6310  203.1990  150.8560 O   0  0  0  0  0  0  0  0  0  0  0  0
  160.4350  204.9140  149.1980 C   0  0  1  0  0  3  0  0  0  0  0  0
  162.7030  204.5920  146.2270 O   0  0  0  0  0  0  0  0  0  0  0  0
  162.3330  205.8280  145.6920 C   0  0  0  0  0  1  0  0  0  0  0  0
  160.9830  212.9350  145.6000 C   0  0  0  0  0  0  0  0  0  0  0  0
  160.4060  212.5600  146.7090 C   0  0  0  0  0  0  0  0  0  0  0  0
  161.5960  213.2490  144.4870 C   0  0  0  0  0  3  0  0  0  0  0  0
  158.9850  212.5430  146.7750 N   0  0  0  0  0  1  0  0  0  0  0  0
  161.9670  212.2020  142.3090 C   0  0  0  0  0  3  0  0  0  0  0  0
  161.5070  211.7790  140.9740 C   0  0  0  0  0  3  0  0  0  0  0  0
  159.6510  212.9000  142.8780 C   0  0  0  0  0  2  0  0  0  0  0  0
  158.2810  213.1550  140.9300 O   0  0  0  0  0  0  0  0  0  0  0  0
  161.1230  212.7780  143.1800 C   0  0  0  0  0  0  0  0  0  0  0  0
  159.3610  212.7200  141.4130 C   0  0  0  0  0  0  0  0  0  0  0  0
  160.2990  212.0400  140.5700 N   0  0  0  0  0  0  0  0  0  0  0  0
  1  4  1  0  0  0  0
  1  5  1  1  0  0  0
  2  5  2  0  0  0  0
  3  1  1  0  0  0  0
  4  3  1  6  0  0  0
  4 10  1  0  0  0  0
  6  2  1  0  0  0  0
  7  1  1  0  0  0  0
  8  7  1  0  0  0  0
  8  6  2  0  0  0  0
 10 11  1  0  0  0  0
 10 12  1  1  0  0  0
 11 15  1  1  0  0  0
 11 14  1  0  0  0  0
 12 13  1  0  0  0  0
 13  9  2  0  0  0  0
 14  9  1  0  0  0  0
 16 22  1  0  0  0  0
 17 23  1  6  0  0  0
 17 20  1  0  0  0  0
 17 16  1  0  0  0  0
 18 19  1  0  0  0  0
 19 21  2  0  0  0  0
 20 18  1  0  0  0  0
 22 19  1  0  0  0  0
 22 15  1  1  0  0  0
 24 23  1  0  0  0  0
 25 26  2  0  0  0  0
 26 28  1  0  0  0  0
 26  8  1  0  0  0  0
 27 25  2  0  0  0  0
 29 33  2  0  0  0  0
 30 29  1  0  0  0  0
 31 33  1  0  0  0  0
 32 34  2  0  0  0  0
 33 27  1  0  0  0  0
 34 31  1  0  0  0  0
 35 30  2  0  0  0  0
 35 34  1  0  0  0  0
M  END
>  <MODEL>
7

>  <REMARK>
 VINA RESULT:      -6.4      2.851      4.177
  Name = 
  6 active torsions:
  status: ('A' for Active; 'I' for Inactive)
    1  A    between atoms: C_3  and  O_17
    2  A    between atoms: C_9  and  C_31
    3  A    between atoms: C_11  and  C_24
    4  A    between atoms: C_12  and  C_16
    5  A    between atoms: N_14  and  C_19
    6  A    between atoms: N_14  and  C_35
                            x       y       z     vdW  Elec       q    Type
                         _______ _______ _______ _____ _____    ______ ____

>  <TORSDO>
F 6

$$$$
=
 OpenBabel11072411263D

 35 39  0  0  1  0  0  0  0  0999 V2000
  161.2610  207.4530  152.8170 C   0  0  1  0  0  0  0  0  0  0  0  0
  161.2670  207.5130  155.2620 C   0  0  0  0  0  3  0  0  0  0  0  0
  162.3910  207.3560  151.8890 N   0  0  0  0  0  2  0  0  0  0  0  0
  161.1050  206.7000  151.5690 C   0  0  1  0  0  3  0  0  0  0  0  0
  161.5680  206.8370  154.1490 C   0  0  0  0  0  3  0  0  0  0  0  0
  160.6810  208.8250  155.2070 N   0  0  0  0  0  0  0  0  0  0  0  0
  160.7170  208.8050  152.8320 N   0  0  0  0  0  2  0  0  0  0  0  0
  160.4280  209.4460  154.0900 C   0  0  0  0  0  0  0  0  0  0  0  0
  160.8070  202.3810  151.3020 C   0  0  0  0  0  3  0  0  0  0  0  0
  161.2460  205.1850  151.7380 C   0  0  2  0  0  3  0  0  0  0  0  0
  161.7760  204.5490  150.4470 C   0  0  1  0  0  3  0  0  0  0  0  0
  159.9070  204.5610  152.1550 C   0  0  0  0  0  2  0  0  0  0  0  0
  159.8940  203.0590  152.0140 C   0  0  0  0  0  3  0  0  0  0  0  0
  161.9920  203.0480  150.6630 C   0  0  0  0  0  2  0  0  0  0  0  0
  160.8530  204.7940  149.3370 N   0  0  0  0  0  2  0  0  0  0  0  0
  160.8390  203.7460  147.1440 C   0  0  0  0  0  2  0  0  0  0  0  0
  161.4790  203.7100  145.7490 C   0  0  2  0  0  3  0  0  0  0  0  0
  162.2500  206.0950  146.0030 C   0  0  0  0  0  2  0  0  0  0  0  0
  161.6980  206.0570  147.3960 C   0  0  0  0  0  0  0  0  0  0  0  0
  161.4840  205.1090  145.1270 C   0  0  0  0  0  2  0  0  0  0  0  0
  161.3850  207.0940  147.9590 O   0  0  0  0  0  0  0  0  0  0  0  0
  161.5780  204.7120  148.0740 C   0  0  1  0  0  3  0  0  0  0  0  0
  160.7590  202.8430  144.9260 O   0  0  0  0  0  0  0  0  0  0  0  0
  160.6330  201.6600  145.6580 C   0  0  0  0  0  1  0  0  0  0  0  0
  160.0210  211.6140  153.1390 C   0  0  0  0  0  0  0  0  0  0  0  0
  159.8000  210.7780  154.1170 C   0  0  0  0  0  0  0  0  0  0  0  0
  160.2370  212.3980  152.1130 C   0  0  0  0  0  3  0  0  0  0  0  0
  158.7210  211.0310  155.0090 N   0  0  0  0  0  1  0  0  0  0  0  0
  159.3290  213.2460  150.0090 C   0  0  0  0  0  3  0  0  0  0  0  0
  158.2440  213.8370  149.2040 C   0  0  0  0  0  3  0  0  0  0  0  0
  157.7810  213.0550  151.9430 C   0  0  0  0  0  2  0  0  0  0  0  0
  155.8440  214.4420  151.6900 O   0  0  0  0  0  0  0  0  0  0  0  0
  159.1390  212.9340  151.3000 C   0  0  0  0  0  0  0  0  0  0  0  0
  156.8550  213.9270  151.1400 C   0  0  0  0  0  0  0  0  0  0  0  0
  157.1080  214.1590  149.7490 N   0  0  0  0  0  0  0  0  0  0  0  0
  1  7  1  0  0  0  0
  1  5  1  1  0  0  0
  3  1  1  0  0  0  0
  4 10  1  0  0  0  0
  4  3  1  6  0  0  0
  4  1  1  0  0  0  0
  5  2  2  0  0  0  0
  6  2  1  0  0  0  0
  7  8  1  0  0  0  0
  8 26  1  0  0  0  0
  8  6  2  0  0  0  0
  9 13  2  0  0  0  0
 10 12  1  6  0  0  0
 11 15  1  6  0  0  0
 11 14  1  0  0  0  0
 11 10  1  0  0  0  0
 13 12  1  0  0  0  0
 14  9  1  0  0  0  0
 16 22  1  0  0  0  0
 17 23  1  6  0  0  0
 17 16  1  0  0  0  0
 18 19  1  0  0  0  0
 19 21  2  0  0  0  0
 19 22  1  0  0  0  0
 20 17  1  0  0  0  0
 20 18  1  0  0  0  0
 22 15  1  1  0  0  0
 23 24  1  0  0  0  0
 25 26  2  0  0  0  0
 26 28  1  0  0  0  0
 27 25  2  0  0  0  0
 29 33  2  0  0  0  0
 30 35  2  0  0  0  0
 30 29  1  0  0  0  0
 33 31  1  0  0  0  0
 33 27  1  0  0  0  0
 34 32  2  0  0  0  0
 34 31  1  0  0  0  0
 35 34  1  0  0  0  0
M  END
>  <MODEL>
8

>  <REMARK>
 VINA RESULT:      -6.3      2.283      3.524
  Name = 
  6 active torsions:
  status: ('A' for Active; 'I' for Inactive)
    1  A    between atoms: C_3  and  O_17
    2  A    between atoms: C_9  and  C_31
    3  A    between atoms: C_11  and  C_24
    4  A    between atoms: C_12  and  C_16
    5  A    between atoms: N_14  and  C_19
    6  A    between atoms: N_14  and  C_35
                            x       y       z     vdW  Elec       q    Type
                         _______ _______ _______ _____ _____    ______ ____

>  <TORSDO>
F 6

$$$$
=
 OpenBabel11072411263D

 35 39  0  0  1  0  0  0  0  0999 V2000
  161.2440  209.8040  152.3290 C   0  0  1  0  0  0  0  0  0  0  0  0
  162.3480  209.6290  150.1540 C   0  0  0  0  0  3  0  0  0  0  0  0
  161.7300  210.4130  153.5700 N   0  0  0  0  0  2  0  0  0  0  0  0
  160.2960  210.4830  153.2170 C   0  0  1  0  0  3  0  0  0  0  0  0
  161.8630  210.4240  151.1130 C   0  0  0  0  0  3  0  0  0  0  0  0
  162.3090  208.1970  150.2760 N   0  0  0  0  0  0  0  0  0  0  0  0
  161.2850  208.3490  152.4150 N   0  0  0  0  0  2  0  0  0  0  0  0
  161.8300  207.5840  151.3220 C   0  0  0  0  0  0  0  0  0  0  0  0
  158.3770  214.2680  152.3180 C   0  0  0  0  0  3  0  0  0  0  0  0
  159.9460  211.9070  152.7760 C   0  0  2  0  0  3  0  0  0  0  0  0
  159.5160  212.7510  153.9830 C   0  0  1  0  0  3  0  0  0  0  0  0
  158.8540  211.8850  151.6980 C   0  0  0  0  0  2  0  0  0  0  0  0
  158.2360  213.2420  151.4660 C   0  0  0  0  0  3  0  0  0  0  0  0
  159.2530  214.1920  153.5360 C   0  0  0  0  0  2  0  0  0  0  0  0
  158.3310  212.1720  154.6190 N   0  0  0  0  0  2  0  0  0  0  0  0
  156.2320  213.3650  154.3410 C   0  0  0  0  0  2  0  0  0  0  0  0
  155.2600  214.3860  154.9500 C   0  0  2  0  0  3  0  0  0  0  0  0
  156.1340  213.8910  157.2610 C   0  0  0  0  0  2  0  0  0  0  0  0
  157.1320  212.9770  156.6170 C   0  0  0  0  0  0  0  0  0  0  0  0
  154.8920  213.9850  156.3810 C   0  0  0  0  0  2  0  0  0  0  0  0
  157.6340  212.0690  157.2600 O   0  0  0  0  0  0  0  0  0  0  0  0
  157.5080  213.2390  155.1770 C   0  0  1  0  0  3  0  0  0  0  0  0
  154.1010  214.4480  154.1760 O   0  0  0  0  0  0  0  0  0  0  0  0
  154.5420  214.4430  152.8510 C   0  0  0  0  0  1  0  0  0  0  0  0
  161.0280  205.4620  150.5330 C   0  0  0  0  0  0  0  0  0  0  0  0
  161.8000  206.1120  151.3600 C   0  0  0  0  0  0  0  0  0  0  0  0
  160.2730  204.8570  149.6520 C   0  0  0  0  0  3  0  0  0  0  0  0
  162.8250  205.4030  152.0470 N   0  0  0  0  0  1  0  0  0  0  0  0
  161.2020  204.2630  147.4700 C   0  0  0  0  0  3  0  0  0  0  0  0
  161.6990  203.2780  146.4920 C   0  0  0  0  0  3  0  0  0  0  0  0
  160.9960  202.4610  149.1700 C   0  0  0  0  0  2  0  0  0  0  0  0
  161.0090  200.2800  148.1780 O   0  0  0  0  0  0  0  0  0  0  0  0
  160.8180  203.8830  148.6990 C   0  0  0  0  0  0  0  0  0  0  0  0
  161.2190  201.5130  148.0220 C   0  0  0  0  0  0  0  0  0  0  0  0
  161.6850  202.0050  146.7600 N   0  0  0  0  0  0  0  0  0  0  0  0
  1  5  1  6  0  0  0
  1  7  1  0  0  0  0
  1  4  1  0  0  0  0
  1  3  1  0  0  0  0
  2  6  1  0  0  0  0
  2  5  2  0  0  0  0
  4  3  1  1  0  0  0
  6  8  2  0  0  0  0
  8 26  1  0  0  0  0
  8  7  1  0  0  0  0
  9 14  1  0  0  0  0
 10 12  1  6  0  0  0
 10  4  1  0  0  0  0
 10 11  1  0  0  0  0
 11 15  1  6  0  0  0
 13 12  1  0  0  0  0
 13  9  2  0  0  0  0
 14 11  1  0  0  0  0
 16 17  1  0  0  0  0
 16 22  1  0  0  0  0
 17 23  1  6  0  0  0
 17 20  1  0  0  0  0
 19 21  2  0  0  0  0
 19 18  1  0  0  0  0
 20 18  1  0  0  0  0
 22 15  1  6  0  0  0
 22 19  1  0  0  0  0
 24 23  1  0  0  0  0
 25 26  2  0  0  0  0
 26 28  1  0  0  0  0
 27 25  2  0  0  0  0
 29 33  2  0  0  0  0
 30 35  2  0  0  0  0
 30 29  1  0  0  0  0
 33 31  1  0  0  0  0
 33 27  1  0  0  0  0
 34 32  2  0  0  0  0
 34 31  1  0  0  0  0
 35 34  1  0  0  0  0
M  END
>  <MODEL>
9

>  <REMARK>
 VINA RESULT:      -5.5      3.765      9.820
  Name = 
  6 active torsions:
  status: ('A' for Active; 'I' for Inactive)
    1  A    between atoms: C_3  and  O_17
    2  A    between atoms: C_9  and  C_31
    3  A    between atoms: C_11  and  C_24
    4  A    between atoms: C_12  and  C_16
    5  A    between atoms: N_14  and  C_19
    6  A    between atoms: N_14  and  C_35
                            x       y       z     vdW  Elec       q    Type
                         _______ _______ _______ _____ _____    ______ ____

>  <TORSDO>
F 6

$$$$
