=
 OpenBabel11072412483D

 52 56  0  0  1  0  0  0  0  0999 V2000
  162.3880  211.1070  150.3580 C   0  0  0  0  0  0  0  0  0  0  0  0
  161.7450  210.7190  147.9260 C   0  0  1  0  0  3  0  0  0  0  0  0
  162.0880  209.7080  150.5240 N   0  0  0  0  0  0  0  0  0  0  0  0
  161.2650  209.3810  148.5150 C   0  0  2  0  0  3  0  0  0  0  0  0
  162.7570  211.8160  151.3310 O   0  0  0  0  0  0  0  0  0  0  0  0
  161.1390  212.7430  149.0000 C   0  0  1  0  0  3  0  0  0  0  0  0
  162.2210  208.9140  149.4270 O   0  0  0  0  0  0  0  0  0  0  0  0
  160.7070  211.2960  147.1650 O   0  0  0  0  0  0  0  0  0  0  0  0
  161.6590  214.0150  149.2510 O   0  0  0  0  0  1  0  0  0  0  0  0
  160.5130  212.6220  147.6140 C   0  0  1  0  0  0  0  0  0  0  0  0
  162.2240  211.7180  148.9930 C   0  0  1  0  0  3  0  0  0  0  0  0
  161.5280  209.1550  151.7330 C   0  0  0  0  0  0  0  0  0  0  0  0
  161.5720  207.7700  151.9450 C   0  0  0  0  0  3  0  0  0  0  0  0
  160.9240  209.9690  152.7030 C   0  0  0  0  0  3  0  0  0  0  0  0
  161.0320  207.2000  153.1040 C   0  0  0  0  0  0  0  0  0  0  0  0
  160.4350  208.0300  154.0730 C   0  0  0  0  0  0  0  0  0  0  0  0
  160.3810  209.4100  153.8630 C   0  0  0  0  0  3  0  0  0  0  0  0
  159.8070  207.4690  155.3060 C   0  0  0  0  0  2  0  0  0  0  0  0
  160.7040  207.6320  156.4360 N   0  0  0  0  0  1  0  0  0  0  0  0
  161.0980  205.4160  153.2900 S   0  0  0  0  0  0  0  0  0  0  0  0
  161.8410  205.1620  151.6780 C   0  0  0  0  0  0  0  0  0  0  0  0
  163.0620  205.4310  151.5190 O   0  0  0  0  0  0  0  0  0  0  0  0
  160.1980  205.4360  149.9970 O   0  0  0  0  0  0  0  0  0  0  0  0
  161.0390  204.6770  150.5450 C   0  0  0  0  0  0  0  0  0  0  0  0
  161.2730  203.3010  150.0000 C   0  0  0  0  0  2  0  0  0  0  0  0
  160.0950  202.5460  150.0090 O   0  0  0  0  0  0  0  0  0  0  0  0
  160.5270  201.2230  149.9020 C   0  0  0  0  0  2  0  0  0  0  0  0
  161.2760  200.4270  147.6640 C   0  0  0  0  0  1  0  0  0  0  0  0
  161.6990  201.1290  148.9410 C   0  0  0  0  0  2  0  0  0  0  0  0
  159.0390  212.9000  147.7450 C   0  0  0  0  0  0  0  0  0  0  0  0
  156.8610  212.7710  147.2230 N   0  0  0  0  0  2  0  0  0  0  0  0
  158.1800  212.4550  146.8910 N   0  0  0  0  0  0  0  0  0  0  0  0
  158.4890  213.5870  148.8660 N   0  0  0  0  0  2  0  0  0  0  0  0
  156.7320  213.6900  148.7250 S   0  0  0  0  0  0  0  0  0  0  0  0
  161.0880  208.4000  147.4550 N   0  0  0  0  0  2  0  0  0  0  0  0
  162.6160  206.8770  148.3520 O   0  0  0  0  0  0  0  0  0  0  0  0
  161.7990  207.1600  147.4350 C   0  0  0  0  0  0  0  0  0  0  0  0
  162.7780  205.8860  145.7150 F   0  0  0  0  0  0  0  0  0  0  0  0
  161.5730  206.1790  146.3300 C   0  0  1  0  0  3  0  0  0  0  0  0
  161.0020  205.0030  146.8280 O   0  0  0  0  0  0  0  0  0  0  0  0
  161.9360  204.0010  146.5460 C   0  0  0  0  0  2  0  0  0  0  0  0
  161.6320  203.3790  145.1930 C   0  0  0  0  0  2  0  0  0  0  0  0
  160.2040  202.8670  145.1360 C   0  0  0  0  0  3  0  0  0  0  0  0
  160.2080  201.5230  144.8160 F   0  0  0  0  0  0  0  0  0  0  0  0
  159.4890  203.5660  144.1820 F   0  0  0  0  0  0  0  0  0  0  0  0
  161.1630  213.5960  146.6060 C   0  0  0  0  0  2  0  0  0  0  0  0
  161.2390  213.0430  145.2160 C   0  0  0  0  0  0  0  0  0  0  0  0
  160.1430  212.0210  143.3110 C   0  0  0  0  0  3  0  0  0  0  0  0
  161.3470  212.0510  142.6000 C   0  0  0  0  0  3  0  0  0  0  0  0
  162.4980  212.5810  143.1940 C   0  0  0  0  0  3  0  0  0  0  0  0
  162.4440  213.0770  144.5010 C   0  0  0  0  0  3  0  0  0  0  0  0
  160.0890  212.5190  144.6170 C   0  0  0  0  0  3  0  0  0  0  0  0
  1  3  1  0  0  0  0
  1  5  2  0  0  0  0
  2  8  1  1  0  0  0
  2  4  1  0  0  0  0
  2 11  1  0  0  0  0
  3 12  1  0  0  0  0
  4 35  1  6  0  0  0
  4  7  1  0  0  0  0
  6  9  1  6  0  0  0
  7  3  1  0  0  0  0
  8 10  1  0  0  0  0
 10 46  1  6  0  0  0
 10 30  1  0  0  0  0
 10  6  1  0  0  0  0
 11  6  1  0  0  0  0
 11  1  1  1  0  0  0
 12 13  2  0  0  0  0
 12 14  1  0  0  0  0
 13 15  1  0  0  0  0
 14 17  2  0  0  0  0
 15 20  1  0  0  0  0
 15 16  2  0  0  0  0
 16 18  1  0  0  0  0
 17 16  1  0  0  0  0
 18 19  1  0  0  0  0
 21 20  1  0  0  0  0
 22 21  2  0  0  0  0
 23 24  2  0  0  0  0
 24 21  1  0  0  0  0
 25 26  1  0  0  0  0
 25 24  1  0  0  0  0
 27 26  1  0  0  0  0
 28 29  1  0  0  0  0
 29 27  1  0  0  0  0
 30 33  1  0  0  0  0
 31 34  1  0  0  0  0
 32 31  1  0  0  0  0
 32 30  2  0  0  0  0
 34 33  1  0  0  0  0
 37 35  1  0  0  0  0
 37 36  2  0  0  0  0
 39 38  1  1  0  0  0
 39 40  1  0  0  0  0
 39 37  1  0  0  0  0
 41 40  1  0  0  0  0
 42 41  1  0  0  0  0
 43 42  1  0  0  0  0
 44 43  1  0  0  0  0
 45 43  1  0  0  0  0
 47 46  1  0  0  0  0
 48 52  2  0  0  0  0
 49 50  2  0  0  0  0
 49 48  1  0  0  0  0
 50 51  1  0  0  0  0
 51 47  2  0  0  0  0
 52 47  1  0  0  0  0
M  END
>  <MODEL>
1

>  <REMARK>
 VINA RESULT:      -4.1      0.000      0.000
  Name = 
  18 active torsions:
  status: ('A' for Active; 'I' for Inactive)
    1  A    between atoms: N_1  and  C_21
    2  A    between atoms: C_2  and  C_33
    3  A    between atoms: C_4  and  C_44
    4  A    between atoms: S_5  and  C_12
    5  A    between atoms: S_5  and  C_36
    6  A    between atoms: C_6  and  C_37
    7  A    between atoms: C_7  and  N_19
    8  A    between atoms: O_8  and  C_11
    9  A    between atoms: O_8  and  C_38
   10  A    between atoms: C_11  and  C_28
   11  A    between atoms: C_12  and  C_35
   12  A    between atoms: C_13  and  C_45
   13  A    between atoms: C_24  and  C_33
   14  A    between atoms: C_24  and  O_40
   15  A    between atoms: C_35  and  C_38
   16  A    between atoms: C_37  and  C_45
   17  A    between atoms: O_40  and  C_51
   18  A    between atoms: C_47  and  C_51
                            x       y       z     vdW  Elec       q    Type
                         _______ _______ _______ _____ _____    ______ ____

>  <TORSDO>
F 18

$$$$
=
 OpenBabel11072412483D

 52 56  0  0  1  0  0  0  0  0999 V2000
  162.6070  210.9790  150.2920 C   0  0  0  0  0  0  0  0  0  0  0  0
  161.9820  210.5930  147.8550 C   0  0  1  0  0  3  0  0  0  0  0  0
  162.3380  209.5730  150.4480 N   0  0  0  0  0  0  0  0  0  0  0  0
  161.5300  209.2410  148.4330 C   0  0  2  0  0  3  0  0  0  0  0  0
  162.9560  211.6900  151.2700 O   0  0  0  0  0  0  0  0  0  0  0  0
  161.3250  212.5950  148.9390 C   0  0  1  0  0  3  0  0  0  0  0  0
  162.4930  208.7890  149.3460 O   0  0  0  0  0  0  0  0  0  0  0  0
  160.9330  211.1510  147.0940 O   0  0  0  0  0  0  0  0  0  0  0  0
  161.8160  213.8780  149.2010 O   0  0  0  0  0  1  0  0  0  0  0  0
  160.7070  212.4690  147.5510 C   0  0  1  0  0  0  0  0  0  0  0  0
  162.4340  211.5950  148.9300 C   0  0  1  0  0  3  0  0  0  0  0  0
  161.7870  208.9990  151.6510 C   0  0  0  0  0  0  0  0  0  0  0  0
  161.6720  209.7880  152.8040 C   0  0  0  0  0  3  0  0  0  0  0  0
  161.3720  207.6600  151.7040 C   0  0  0  0  0  3  0  0  0  0  0  0
  161.1480  209.2610  153.9900 C   0  0  0  0  0  0  0  0  0  0  0  0
  160.7290  207.9160  154.0270 C   0  0  0  0  0  0  0  0  0  0  0  0
  160.8490  207.1240  152.8830 C   0  0  0  0  0  3  0  0  0  0  0  0
  160.2020  207.2940  155.2780 C   0  0  0  0  0  2  0  0  0  0  0  0
  161.2000  207.3730  156.3280 N   0  0  0  0  0  1  0  0  0  0  0  0
  161.0620  210.3230  155.4340 S   0  0  0  0  0  0  0  0  0  0  0  0
  159.7040  211.2940  154.7780 C   0  0  0  0  0  0  0  0  0  0  0  0
  159.9600  212.2930  154.0550 O   0  0  0  0  0  0  0  0  0  0  0  0
  158.0490  210.2440  156.1070 O   0  0  0  0  0  0  0  0  0  0  0  0
  158.3090  210.9550  155.1010 C   0  0  0  0  0  0  0  0  0  0  0  0
  157.1950  211.5140  154.2700 C   0  0  0  0  0  2  0  0  0  0  0  0
  156.0030  211.5800  155.0010 O   0  0  0  0  0  0  0  0  0  0  0  0
  155.7180  212.9440  155.0830 C   0  0  0  0  0  2  0  0  0  0  0  0
  157.5210  214.4500  155.9100 C   0  0  0  0  0  1  0  0  0  0  0  0
  156.3730  213.5440  156.3150 C   0  0  0  0  0  2  0  0  0  0  0  0
  159.2280  212.7130  147.6770 C   0  0  0  0  0  0  0  0  0  0  0  0
  157.0510  212.5050  147.1720 N   0  0  0  0  0  2  0  0  0  0  0  0
  158.3770  212.2120  146.8460 N   0  0  0  0  0  0  0  0  0  0  0  0
  158.6640  213.4290  148.7730 N   0  0  0  0  0  2  0  0  0  0  0  0
  156.9030  213.4790  148.6370 S   0  0  0  0  0  0  0  0  0  0  0  0
  161.3790  208.2620  147.3670 N   0  0  0  0  0  2  0  0  0  0  0  0
  160.7330  206.5280  148.7940 O   0  0  0  0  0  0  0  0  0  0  0  0
  160.9750  206.9140  147.6190 C   0  0  0  0  0  0  0  0  0  0  0  0
  162.0190  205.8470  145.7990 F   0  0  0  0  0  0  0  0  0  0  0  0
  160.8230  205.9490  146.4870 C   0  0  1  0  0  3  0  0  0  0  0  0
  160.4480  204.6890  146.9650 O   0  0  0  0  0  0  0  0  0  0  0  0
  161.5260  203.8520  146.6610 C   0  0  0  0  0  2  0  0  0  0  0  0
  161.9540  203.0910  147.9050 C   0  0  0  0  0  2  0  0  0  0  0  0
  160.8290  203.0330  148.9230 C   0  0  0  0  0  3  0  0  0  0  0  0
  161.2080  203.7050  150.0680 F   0  0  0  0  0  0  0  0  0  0  0  0
  160.5420  201.7170  149.2360 F   0  0  0  0  0  0  0  0  0  0  0  0
  161.3390  213.4640  146.5510 C   0  0  0  0  0  2  0  0  0  0  0  0
  161.2790  212.9930  145.1310 C   0  0  0  0  0  0  0  0  0  0  0  0
  162.3920  212.5740  143.0180 C   0  0  0  0  0  3  0  0  0  0  0  0
  161.2010  212.0670  142.4890 C   0  0  0  0  0  3  0  0  0  0  0  0
  160.0480  212.0190  143.2810 C   0  0  0  0  0  3  0  0  0  0  0  0
  160.0870  212.4800  144.6010 C   0  0  0  0  0  3  0  0  0  0  0  0
  162.4310  213.0330  144.3390 C   0  0  0  0  0  3  0  0  0  0  0  0
  1  3  1  0  0  0  0
  1  5  2  0  0  0  0
  2  8  1  1  0  0  0
  2  4  1  0  0  0  0
  2 11  1  0  0  0  0
  3 12  1  0  0  0  0
  4 35  1  6  0  0  0
  4  7  1  0  0  0  0
  6  9  1  6  0  0  0
  7  3  1  0  0  0  0
  8 10  1  0  0  0  0
 10 46  1  6  0  0  0
 10 30  1  0  0  0  0
 10  6  1  0  0  0  0
 11  6  1  0  0  0  0
 11  1  1  1  0  0  0
 12 14  2  0  0  0  0
 12 13  1  0  0  0  0
 13 15  2  0  0  0  0
 14 17  1  0  0  0  0
 15 16  1  0  0  0  0
 15 20  1  0  0  0  0
 16 18  1  0  0  0  0
 17 16  2  0  0  0  0
 18 19  1  0  0  0  0
 21 24  1  0  0  0  0
 21 20  1  0  0  0  0
 22 21  2  0  0  0  0
 24 23  2  0  0  0  0
 25 26  1  0  0  0  0
 25 24  1  0  0  0  0
 26 27  1  0  0  0  0
 27 29  1  0  0  0  0
 28 29  1  0  0  0  0
 30 33  1  0  0  0  0
 31 34  1  0  0  0  0
 32 31  1  0  0  0  0
 32 30  2  0  0  0  0
 34 33  1  0  0  0  0
 35 37  1  0  0  0  0
 37 36  2  0  0  0  0
 39 38  1  1  0  0  0
 39 40  1  0  0  0  0
 39 37  1  0  0  0  0
 41 40  1  0  0  0  0
 41 42  1  0  0  0  0
 42 43  1  0  0  0  0
 43 45  1  0  0  0  0
 43 44  1  0  0  0  0
 47 46  1  0  0  0  0
 48 52  1  0  0  0  0
 49 48  2  0  0  0  0
 49 50  1  0  0  0  0
 50 51  2  0  0  0  0
 51 47  1  0  0  0  0
 52 47  2  0  0  0  0
M  END
>  <MODEL>
2

>  <REMARK>
 VINA RESULT:      -3.5      2.596      5.087
  Name = 
  18 active torsions:
  status: ('A' for Active; 'I' for Inactive)
    1  A    between atoms: N_1  and  C_21
    2  A    between atoms: C_2  and  C_33
    3  A    between atoms: C_4  and  C_44
    4  A    between atoms: S_5  and  C_12
    5  A    between atoms: S_5  and  C_36
    6  A    between atoms: C_6  and  C_37
    7  A    between atoms: C_7  and  N_19
    8  A    between atoms: O_8  and  C_11
    9  A    between atoms: O_8  and  C_38
   10  A    between atoms: C_11  and  C_28
   11  A    between atoms: C_12  and  C_35
   12  A    between atoms: C_13  and  C_45
   13  A    between atoms: C_24  and  C_33
   14  A    between atoms: C_24  and  O_40
   15  A    between atoms: C_35  and  C_38
   16  A    between atoms: C_37  and  C_45
   17  A    between atoms: O_40  and  C_51
   18  A    between atoms: C_47  and  C_51
                            x       y       z     vdW  Elec       q    Type
                         _______ _______ _______ _____ _____    ______ ____

>  <TORSDO>
F 18

$$$$
=
 OpenBabel11072412483D

 52 56  0  0  1  0  0  0  0  0999 V2000
  162.2270  208.1370  151.2880 C   0  0  0  0  0  0  0  0  0  0  0  0
  162.3670  210.6670  151.5260 C   0  0  1  0  0  3  0  0  0  0  0  0
  162.3890  208.3920  149.8800 N   0  0  0  0  0  0  0  0  0  0  0  0
  162.2420  210.5790  149.9950 C   0  0  2  0  0  3  0  0  0  0  0  0
  162.0850  206.9660  151.7290 O   0  0  0  0  0  0  0  0  0  0  0  0
  160.8670  209.4340  152.8850 C   0  0  1  0  0  3  0  0  0  0  0  0
  163.0460  209.5310  149.5300 O   0  0  0  0  0  0  0  0  0  0  0  0
  161.4120  211.5800  152.0230 O   0  0  0  0  0  0  0  0  0  0  0  0
  160.8460  208.7520  154.1040 O   0  0  0  0  0  1  0  0  0  0  0  0
  160.6760  210.9390  153.0440 C   0  0  1  0  0  0  0  0  0  0  0  0
  162.2030  209.3100  152.2300 C   0  0  1  0  0  3  0  0  0  0  0  0
  161.7750  207.5870  148.8530 C   0  0  0  0  0  0  0  0  0  0  0  0
  161.9290  206.1940  148.8790 C   0  0  0  0  0  3  0  0  0  0  0  0
  161.0330  208.1650  147.8110 C   0  0  0  0  0  3  0  0  0  0  0  0
  161.3510  205.3850  147.8950 C   0  0  0  0  0  0  0  0  0  0  0  0
  160.6030  205.9780  146.8580 C   0  0  0  0  0  0  0  0  0  0  0  0
  160.4540  207.3660  146.8220 C   0  0  0  0  0  3  0  0  0  0  0  0
  160.0030  205.1640  145.7600 C   0  0  0  0  0  2  0  0  0  0  0  0
  160.9280  205.0770  144.6460 N   0  0  0  0  0  1  0  0  0  0  0  0
  161.6180  203.6120  147.9790 S   0  0  0  0  0  0  0  0  0  0  0  0
  160.8130  203.4520  149.5730 C   0  0  0  0  0  0  0  0  0  0  0  0
  160.0450  204.3710  149.9650 O   0  0  0  0  0  0  0  0  0  0  0  0
  161.2680  202.4410  151.6650 O   0  0  0  0  0  0  0  0  0  0  0  0
  161.0640  202.2850  150.4320 C   0  0  0  0  0  0  0  0  0  0  0  0
  161.0080  200.9060  149.8510 C   0  0  0  0  0  2  0  0  0  0  0  0
  160.5430  200.9310  148.5310 O   0  0  0  0  0  0  0  0  0  0  0  0
  161.5400  200.2890  147.7970 C   0  0  0  0  0  2  0  0  0  0  0  0
  160.5590  201.2220  145.7060 C   0  0  0  0  0  1  0  0  0  0  0  0
  161.0360  199.9610  146.4020 C   0  0  0  0  0  2  0  0  0  0  0  0
  159.2110  211.2420  152.8780 C   0  0  0  0  0  0  0  0  0  0  0  0
  157.0080  211.0530  153.2610 N   0  0  0  0  0  2  0  0  0  0  0  0
  158.2990  210.5790  153.5060 N   0  0  0  0  0  0  0  0  0  0  0  0
  158.7430  212.3370  152.0950 N   0  0  0  0  0  2  0  0  0  0  0  0
  156.9810  212.4340  152.1620 S   0  0  0  0  0  0  0  0  0  0  0  0
  162.6710  211.8270  149.3820 N   0  0  0  0  0  2  0  0  0  0  0  0
  160.5770  212.3180  148.4690 O   0  0  0  0  0  0  0  0  0  0  0  0
  161.7820  212.6530  148.6270 C   0  0  0  0  0  0  0  0  0  0  0  0
  163.6530  213.9310  147.9880 F   0  0  0  0  0  0  0  0  0  0  0  0
  162.2690  213.9330  148.0260 C   0  0  1  0  0  3  0  0  0  0  0  0
  161.7640  214.0890  146.7310 O   0  0  0  0  0  0  0  0  0  0  0  0
  162.6100  213.3270  145.9190 C   0  0  0  0  0  2  0  0  0  0  0  0
  162.4710  213.7690  144.4720 C   0  0  0  0  0  2  0  0  0  0  0  0
  161.7450  212.7190  143.6480 C   0  0  0  0  0  3  0  0  0  0  0  0
  162.6130  212.1830  142.7170 F   0  0  0  0  0  0  0  0  0  0  0  0
  160.6670  213.2900  142.9980 F   0  0  0  0  0  0  0  0  0  0  0  0
  161.1820  211.4370  154.4180 C   0  0  0  0  0  2  0  0  0  0  0  0
  160.0780  211.8900  155.3240 C   0  0  0  0  0  0  0  0  0  0  0  0
  158.5380  213.6200  156.0390 C   0  0  0  0  0  3  0  0  0  0  0  0
  157.9810  212.7400  156.9720 C   0  0  0  0  0  3  0  0  0  0  0  0
  158.4690  211.4330  157.0810 C   0  0  0  0  0  3  0  0  0  0  0  0
  159.5160  211.0070  156.2570 C   0  0  0  0  0  3  0  0  0  0  0  0
  159.5840  213.1930  155.2130 C   0  0  0  0  0  3  0  0  0  0  0  0
  1  5  2  0  0  0  0
  2  8  1  1  0  0  0
  2 11  1  0  0  0  0
  3  1  1  0  0  0  0
  4 35  1  6  0  0  0
  4  2  1  0  0  0  0
  6 10  1  0  0  0  0
  6  9  1  1  0  0  0
  7  3  1  0  0  0  0
  7  4  1  0  0  0  0
  8 10  1  0  0  0  0
 10 46  1  1  0  0  0
 11  1  1  6  0  0  0
 11  6  1  0  0  0  0
 12 13  1  0  0  0  0
 12  3  1  0  0  0  0
 14 12  2  0  0  0  0
 15 20  1  0  0  0  0
 15 13  2  0  0  0  0
 16 15  1  0  0  0  0
 17 16  2  0  0  0  0
 17 14  1  0  0  0  0
 18 16  1  0  0  0  0
 19 18  1  0  0  0  0
 20 21  1  0  0  0  0
 21 22  2  0  0  0  0
 21 24  1  0  0  0  0
 24 23  2  0  0  0  0
 25 24  1  0  0  0  0
 26 25  1  0  0  0  0
 27 26  1  0  0  0  0
 28 29  1  0  0  0  0
 29 27  1  0  0  0  0
 30 10  1  0  0  0  0
 30 32  2  0  0  0  0
 31 32  1  0  0  0  0
 33 34  1  0  0  0  0
 33 30  1  0  0  0  0
 34 31  1  0  0  0  0
 36 37  2  0  0  0  0
 37 35  1  0  0  0  0
 39 38  1  6  0  0  0
 39 37  1  0  0  0  0
 40 39  1  0  0  0  0
 41 40  1  0  0  0  0
 42 41  1  0  0  0  0
 43 42  1  0  0  0  0
 44 43  1  0  0  0  0
 45 43  1  0  0  0  0
 46 47  1  0  0  0  0
 47 51  1  0  0  0  0
 48 49  2  0  0  0  0
 49 50  1  0  0  0  0
 51 50  2  0  0  0  0
 52 47  2  0  0  0  0
 52 48  1  0  0  0  0
M  END
>  <MODEL>
3

>  <REMARK>
 VINA RESULT:      -1.6      3.186      7.249
  Name = 
  18 active torsions:
  status: ('A' for Active; 'I' for Inactive)
    1  A    between atoms: N_1  and  C_21
    2  A    between atoms: C_2  and  C_33
    3  A    between atoms: C_4  and  C_44
    4  A    between atoms: S_5  and  C_12
    5  A    between atoms: S_5  and  C_36
    6  A    between atoms: C_6  and  C_37
    7  A    between atoms: C_7  and  N_19
    8  A    between atoms: O_8  and  C_11
    9  A    between atoms: O_8  and  C_38
   10  A    between atoms: C_11  and  C_28
   11  A    between atoms: C_12  and  C_35
   12  A    between atoms: C_13  and  C_45
   13  A    between atoms: C_24  and  C_33
   14  A    between atoms: C_24  and  O_40
   15  A    between atoms: C_35  and  C_38
   16  A    between atoms: C_37  and  C_45
   17  A    between atoms: O_40  and  C_51
   18  A    between atoms: C_47  and  C_51
                            x       y       z     vdW  Elec       q    Type
                         _______ _______ _______ _____ _____    ______ ____

>  <TORSDO>
F 18

$$$$
=
 OpenBabel11072412483D

 52 56  0  0  1  0  0  0  0  0999 V2000
  162.5030  207.9170  150.7670 C   0  0  0  0  0  0  0  0  0  0  0  0
  162.6060  210.4440  151.0520 C   0  0  1  0  0  3  0  0  0  0  0  0
  162.5320  208.2060  149.3560 N   0  0  0  0  0  0  0  0  0  0  0  0
  162.3460  210.3870  149.5370 C   0  0  2  0  0  3  0  0  0  0  0  0
  162.4270  206.7340  151.1900 O   0  0  0  0  0  0  0  0  0  0  0  0
  161.2620  209.1450  152.5090 C   0  0  1  0  0  3  0  0  0  0  0  0
  163.1300  209.3690  148.9770 O   0  0  0  0  0  0  0  0  0  0  0  0
  161.6790  211.3220  151.6530 O   0  0  0  0  0  0  0  0  0  0  0  0
  161.3660  208.4360  153.7090 O   0  0  0  0  0  1  0  0  0  0  0  0
  161.0530  210.6410  152.7210 C   0  0  1  0  0  0  0  0  0  0  0  0
  162.5370  209.0680  151.7350 C   0  0  1  0  0  3  0  0  0  0  0  0
  161.8470  207.4090  148.3690 C   0  0  0  0  0  0  0  0  0  0  0  0
  162.1550  206.0480  148.2420 C   0  0  0  0  0  3  0  0  0  0  0  0
  160.8830  207.9660  147.5140 C   0  0  0  0  0  3  0  0  0  0  0  0
  161.5130  205.2480  147.2900 C   0  0  0  0  0  0  0  0  0  0  0  0
  160.5420  205.8180  146.4440 C   0  0  0  0  0  0  0  0  0  0  0  0
  160.2380  207.1770  146.5600 C   0  0  0  0  0  3  0  0  0  0  0  0
  159.8590  205.0190  145.3840 C   0  0  0  0  0  2  0  0  0  0  0  0
  160.7560  204.8190  144.2600 N   0  0  0  0  0  1  0  0  0  0  0  0
  161.9830  203.5200  147.1680 S   0  0  0  0  0  0  0  0  0  0  0  0
  160.9660  203.0280  148.5600 C   0  0  0  0  0  0  0  0  0  0  0  0
  160.2420  203.8910  149.1240 O   0  0  0  0  0  0  0  0  0  0  0  0
  161.2250  200.6920  148.2760 O   0  0  0  0  0  0  0  0  0  0  0  0
  160.9940  201.6460  149.0640 C   0  0  0  0  0  0  0  0  0  0  0  0
  160.8150  201.3820  150.5280 C   0  0  0  0  0  2  0  0  0  0  0  0
  161.7110  202.1390  151.2910 O   0  0  0  0  0  0  0  0  0  0  0  0
  160.8990  202.8760  152.1540 C   0  0  0  0  0  2  0  0  0  0  0  0
  160.9930  204.9870  153.4740 C   0  0  0  0  0  1  0  0  0  0  0  0
  161.3080  204.3390  152.1380 C   0  0  0  0  0  2  0  0  0  0  0  0
  159.5720  210.9100  152.6930 C   0  0  0  0  0  0  0  0  0  0  0  0
  157.4120  210.6250  153.2280 N   0  0  0  0  0  2  0  0  0  0  0  0
  158.7290  210.1720  153.3330 N   0  0  0  0  0  0  0  0  0  0  0  0
  159.0170  212.0490  152.0400 N   0  0  0  0  0  2  0  0  0  0  0  0
  157.2630  212.0870  152.2500 S   0  0  0  0  0  0  0  0  0  0  0  0
  162.6910  211.6580  148.9180 N   0  0  0  0  0  2  0  0  0  0  0  0
  160.7810  211.7360  147.5730 O   0  0  0  0  0  0  0  0  0  0  0  0
  161.8580  212.2800  147.9370 C   0  0  0  0  0  0  0  0  0  0  0  0
  163.2160  214.1930  148.1270 F   0  0  0  0  0  0  0  0  0  0  0  0
  162.2510  213.5930  147.3380 C   0  0  1  0  0  3  0  0  0  0  0  0
  162.7480  213.4130  146.0440 O   0  0  0  0  0  0  0  0  0  0  0  0
  161.7960  213.9990  145.2050 C   0  0  0  0  0  2  0  0  0  0  0  0
  161.1820  212.9420  144.3030 C   0  0  0  0  0  2  0  0  0  0  0  0
  161.9180  212.8620  142.9770 C   0  0  0  0  0  3  0  0  0  0  0  0
  161.5690  211.6950  142.3260 F   0  0  0  0  0  0  0  0  0  0  0  0
  163.2830  212.8790  143.1920 F   0  0  0  0  0  0  0  0  0  0  0  0
  161.6680  211.1200  154.0550 C   0  0  0  0  0  2  0  0  0  0  0  0
  160.6410  211.4260  155.1020 C   0  0  0  0  0  0  0  0  0  0  0  0
  159.0350  212.9640  156.0690 C   0  0  0  0  0  3  0  0  0  0  0  0
  158.6810  212.0000  157.0180 C   0  0  0  0  0  3  0  0  0  0  0  0
  159.3040  210.7470  157.0090 C   0  0  0  0  0  3  0  0  0  0  0  0
  160.2820  210.4590  156.0520 C   0  0  0  0  0  3  0  0  0  0  0  0
  160.0120  212.6750  155.1100 C   0  0  0  0  0  3  0  0  0  0  0  0
  1  5  2  0  0  0  0
  2  8  1  1  0  0  0
  2 11  1  0  0  0  0
  3  1  1  0  0  0  0
  4 35  1  6  0  0  0
  4  2  1  0  0  0  0
  6 10  1  0  0  0  0
  6  9  1  1  0  0  0
  7  3  1  0  0  0  0
  7  4  1  0  0  0  0
  8 10  1  0  0  0  0
 10 46  1  1  0  0  0
 11  1  1  6  0  0  0
 11  6  1  0  0  0  0
 12  3  1  0  0  0  0
 13 12  1  0  0  0  0
 14 12  2  0  0  0  0
 15 13  2  0  0  0  0
 16 17  2  0  0  0  0
 16 15  1  0  0  0  0
 17 14  1  0  0  0  0
 18 16  1  0  0  0  0
 19 18  1  0  0  0  0
 20 15  1  0  0  0  0
 20 21  1  0  0  0  0
 21 24  1  0  0  0  0
 21 22  2  0  0  0  0
 23 24  2  0  0  0  0
 24 25  1  0  0  0  0
 25 26  1  0  0  0  0
 26 27  1  0  0  0  0
 29 27  1  0  0  0  0
 29 28  1  0  0  0  0
 30 10  1  0  0  0  0
 30 32  2  0  0  0  0
 31 32  1  0  0  0  0
 33 34  1  0  0  0  0
 33 30  1  0  0  0  0
 34 31  1  0  0  0  0
 36 37  2  0  0  0  0
 37 35  1  0  0  0  0
 39 37  1  0  0  0  0
 39 38  1  1  0  0  0
 40 39  1  0  0  0  0
 41 40  1  0  0  0  0
 42 41  1  0  0  0  0
 43 45  1  0  0  0  0
 43 42  1  0  0  0  0
 44 43  1  0  0  0  0
 46 47  1  0  0  0  0
 47 52  2  0  0  0  0
 47 51  1  0  0  0  0
 48 49  2  0  0  0  0
 50 49  1  0  0  0  0
 51 50  2  0  0  0  0
 52 48  1  0  0  0  0
M  END
>  <MODEL>
4

>  <REMARK>
 VINA RESULT:      -1.6      3.100      7.364
  Name = 
  18 active torsions:
  status: ('A' for Active; 'I' for Inactive)
    1  A    between atoms: N_1  and  C_21
    2  A    between atoms: C_2  and  C_33
    3  A    between atoms: C_4  and  C_44
    4  A    between atoms: S_5  and  C_12
    5  A    between atoms: S_5  and  C_36
    6  A    between atoms: C_6  and  C_37
    7  A    between atoms: C_7  and  N_19
    8  A    between atoms: O_8  and  C_11
    9  A    between atoms: O_8  and  C_38
   10  A    between atoms: C_11  and  C_28
   11  A    between atoms: C_12  and  C_35
   12  A    between atoms: C_13  and  C_45
   13  A    between atoms: C_24  and  C_33
   14  A    between atoms: C_24  and  O_40
   15  A    between atoms: C_35  and  C_38
   16  A    between atoms: C_37  and  C_45
   17  A    between atoms: O_40  and  C_51
   18  A    between atoms: C_47  and  C_51
                            x       y       z     vdW  Elec       q    Type
                         _______ _______ _______ _____ _____    ______ ____

>  <TORSDO>
F 18

$$$$
