=
 OpenBabel11072410553D

 40 45  0  0  1  0  0  0  0  0999 V2000
  163.1310  210.4750  151.3730 C   0  0  0  0  0  1  0  0  0  0  0  0
  161.4080  208.4070  154.8670 O   0  0  0  0  0  0  0  0  0  0  0  0
  161.5950  210.6290  149.3480 C   0  0  2  0  0  3  0  0  0  0  0  0
  160.7470  206.9530  151.5850 C   0  0  2  0  0  3  0  0  0  0  0  0
  160.9960  205.6350  150.8950 C   0  0  0  0  0  3  0  0  0  0  0  0
  160.7840  209.5160  151.4100 C   0  0  1  0  0  3  0  0  0  0  0  0
  161.6940  210.6300  150.8800 C   0  0  1  0  0  3  0  0  0  0  0  0
  161.3540  204.6040  153.0130 O   0  0  0  0  0  0  0  0  0  0  0  0
  161.1980  208.3180  153.6260 C   0  0  0  0  0  0  0  0  0  0  0  0
  161.0820  208.1730  150.7750 C   0  0  0  0  0  0  0  0  0  0  0  0
  161.2550  204.5400  151.6150 C   0  0  0  0  0  3  0  0  0  0  0  0
  161.6100  208.0940  149.5370 C   0  0  0  0  0  3  0  0  0  0  0  0
  162.0760  209.3000  148.7540 C   0  0  0  0  0  2  0  0  0  0  0  0
  161.4950  207.0230  152.9160 C   0  0  1  0  0  3  0  0  0  0  0  0
  161.0890  205.8050  153.7450 C   0  0  0  0  0  2  0  0  0  0  0  0
  160.7460  209.4740  152.8850 N   0  0  0  0  0  0  0  0  0  0  0  0
  159.0500  211.3460  152.9840 C   0  0  0  0  0  0  0  0  0  0  0  0
  161.2110  211.4990  154.1620 O   0  0  0  0  0  1  0  0  0  0  0  0
  158.9910  210.5090  154.2780 C   0  0  1  0  0  3  0  0  0  0  0  0
  158.5330  212.0420  152.1270 O   0  0  0  0  0  0  0  0  0  0  0  0
  160.2520  210.6480  153.6090 C   0  0  2  0  0  0  0  0  0  0  0  0
  158.8870  211.3730  155.3770 O   0  0  0  0  0  0  0  0  0  0  0  0
  155.6190  212.8520  155.1630 O   0  0  0  0  0  1  0  0  0  0  0  0
  156.9630  212.8820  155.5360 C   0  0  1  0  0  3  0  0  0  0  0  0
  157.1200  212.2370  156.9140 C   0  0  0  0  0  2  0  0  0  0  0  0
  157.5200  211.4770  155.6690 C   0  0  2  0  0  0  0  0  0  0  0  0
  156.6770  210.4430  155.2480 O   0  0  0  0  0  1  0  0  0  0  0  0
  162.3520  211.7910  148.7130 C   0  0  0  0  0  2  0  0  0  0  0  0
  161.4430  212.8690  148.3400 N   0  0  0  0  0  0  0  0  0  0  0  0
  158.9030  212.7780  144.9410 C   0  0  0  0  0  3  0  0  0  0  0  0
  158.4410  212.3570  146.1870 C   0  0  0  0  0  3  0  0  0  0  0  0
  161.1100  213.1910  145.8820 C   0  0  0  0  0  0  0  0  0  0  0  0
  160.2270  213.1900  144.7920 C   0  0  0  0  0  3  0  0  0  0  0  0
  160.6310  212.7890  147.1570 C   0  0  0  0  0  0  0  0  0  0  0  0
  159.2990  212.3660  147.2870 C   0  0  0  0  0  3  0  0  0  0  0  0
  162.5170  213.5650  145.6250 C   0  0  0  0  0  0  0  0  0  0  0  0
  163.0910  214.4500  146.3120 O   0  0  0  0  0  1  0  0  0  0  0  0
  163.2450  212.8950  144.6480 O   0  0  0  0  0  0  0  0  0  0  0  0
  160.2880  213.7830  150.1530 O   0  0  0  0  0  1  0  0  0  0  0  0
  161.3190  214.0060  149.2400 C   0  0  0  0  0  2  0  0  0  0  0  0
  3 28  1  6  0  0  0
  3  7  1  0  0  0  0
  4  5  1  6  0  0  0
  4 14  1  0  0  0  0
  5 11  2  0  0  0  0
  6 10  1  1  0  0  0
  6 16  1  0  0  0  0
  7  1  1  6  0  0  0
  7  6  1  0  0  0  0
  8 15  1  0  0  0  0
  9  2  2  0  0  0  0
 10  4  1  0  0  0  0
 11  8  1  0  0  0  0
 12 10  2  0  0  0  0
 13  3  1  0  0  0  0
 13 12  1  0  0  0  0
 14  9  1  0  0  0  0
 14 15  1  1  0  0  0
 16 21  1  0  0  0  0
 16  9  1  0  0  0  0
 17 21  1  0  0  0  0
 17 19  1  0  0  0  0
 19 22  1  1  0  0  0
 20 17  2  0  0  0  0
 21 18  1  1  0  0  0
 21 19  1  0  0  0  0
 22 26  1  0  0  0  0
 24 23  1  6  0  0  0
 24 26  1  0  0  0  0
 24 25  1  0  0  0  0
 26 27  1  6  0  0  0
 26 25  1  0  0  0  0
 29 28  1  0  0  0  0
 29 40  1  0  0  0  0
 30 31  1  0  0  0  0
 31 35  2  0  0  0  0
 32 34  2  0  0  0  0
 33 30  2  0  0  0  0
 33 32  1  0  0  0  0
 34 35  1  0  0  0  0
 34 29  1  0  0  0  0
 36 32  1  0  0  0  0
 36 37  1  0  0  0  0
 38 36  2  0  0  0  0
 40 39  1  0  0  0  0
M  END
>  <MODEL>
1

>  <REMARK>
 VINA RESULT:      -5.6      0.000      0.000
  Name = 
  8 active torsions:
  status: ('A' for Active; 'I' for Inactive)
    1  A    between atoms: C_3  and  N_7
    2  A    between atoms: C_3  and  C_11
    3  A    between atoms: N_7  and  C_9
    4  A    between atoms: N_7  and  C_27
    5  A    between atoms: C_15  and  C_17
    6  A    between atoms: C_20  and  O_26
    7  A    between atoms: O_26  and  C_32
    8  A    between atoms: N_36  and  C_37
                            x       y       z     vdW  Elec       q    Type
                         _______ _______ _______ _____ _____    ______ ____

>  <TORSDO>
F 8

$$$$
=
 OpenBabel11072410553D

 40 45  0  0  1  0  0  0  0  0999 V2000
  163.1840  209.9540  151.6190 C   0  0  0  0  0  1  0  0  0  0  0  0
  161.6450  207.1940  154.6980 O   0  0  0  0  0  0  0  0  0  0  0  0
  161.5280  210.5450  149.7790 C   0  0  2  0  0  3  0  0  0  0  0  0
  160.7530  206.4790  151.2320 C   0  0  2  0  0  3  0  0  0  0  0  0
  160.9330  205.3390  150.2620 C   0  0  0  0  0  3  0  0  0  0  0  0
  160.8260  209.0210  151.6050 C   0  0  1  0  0  3  0  0  0  0  0  0
  161.7220  210.2180  151.2660 C   0  0  1  0  0  3  0  0  0  0  0  0
  161.4030  203.8770  152.0830 O   0  0  0  0  0  0  0  0  0  0  0  0
  161.3560  207.3740  153.4820 C   0  0  0  0  0  0  0  0  0  0  0  0
  161.0580  207.8430  150.6800 C   0  0  0  0  0  0  0  0  0  0  0  0
  161.2160  204.1140  150.7130 C   0  0  0  0  0  3  0  0  0  0  0  0
  161.5070  208.0280  149.4220 C   0  0  0  0  0  3  0  0  0  0  0  0
  161.9450  209.3720  148.8860 C   0  0  0  0  0  2  0  0  0  0  0  0
  161.5840  206.2600  152.4950 C   0  0  1  0  0  3  0  0  0  0  0  0
  161.2080  204.8950  153.0710 C   0  0  0  0  0  2  0  0  0  0  0  0
  160.8800  208.6650  153.0370 N   0  0  0  0  0  0  0  0  0  0  0  0
  161.5640  210.5330  154.5950 C   0  0  0  0  0  0  0  0  0  0  0  0
  159.4810  209.2600  154.9420 O   0  0  0  0  0  1  0  0  0  0  0  0
  160.4870  211.0320  153.6120 C   0  0  1  0  0  3  0  0  0  0  0  0
  162.5440  210.7080  155.3000 O   0  0  0  0  0  0  0  0  0  0  0  0
  160.4550  209.6580  154.0240 C   0  0  2  0  0  0  0  0  0  0  0  0
  159.5530  211.8080  154.3130 O   0  0  0  0  0  0  0  0  0  0  0  0
  158.1440  214.3950  152.2570 O   0  0  0  0  0  1  0  0  0  0  0  0
  158.4090  213.8150  153.4980 C   0  0  1  0  0  3  0  0  0  0  0  0
  157.3150  212.7990  153.8250 C   0  0  0  0  0  2  0  0  0  0  0  0
  158.6720  212.3280  153.3540 C   0  0  2  0  0  0  0  0  0  0  0  0
  158.7690  211.8480  152.0440 O   0  0  0  0  0  1  0  0  0  0  0  0
  162.2640  211.8120  149.3580 C   0  0  0  0  0  2  0  0  0  0  0  0
  161.3550  212.7670  148.7350 N   0  0  0  0  0  0  0  0  0  0  0  0
  161.6750  213.4470  144.5580 C   0  0  0  0  0  3  0  0  0  0  0  0
  162.8160  213.3320  145.3500 C   0  0  0  0  0  3  0  0  0  0  0  0
  160.2640  213.2100  146.5280 C   0  0  0  0  0  0  0  0  0  0  0  0
  160.4110  213.3880  145.1440 C   0  0  0  0  0  3  0  0  0  0  0  0
  161.4270  213.0630  147.3310 C   0  0  0  0  0  0  0  0  0  0  0  0
  162.6910  213.1380  146.7260 C   0  0  0  0  0  3  0  0  0  0  0  0
  158.8940  213.2370  147.0820 C   0  0  0  0  0  0  0  0  0  0  0  0
  158.1770  212.2030  147.0970 O   0  0  0  0  0  0  0  0  0  0  0  0
  158.4010  214.4060  147.6520 O   0  0  0  0  0  1  0  0  0  0  0  0
  160.8510  214.3760  150.3520 O   0  0  0  0  0  1  0  0  0  0  0  0
  160.3130  213.3630  149.5590 C   0  0  0  0  0  2  0  0  0  0  0  0
  3 28  1  6  0  0  0
  3  7  1  0  0  0  0
  4  5  1  6  0  0  0
  4 14  1  0  0  0  0
  5 11  2  0  0  0  0
  6 10  1  6  0  0  0
  6 16  1  0  0  0  0
  7  6  1  0  0  0  0
  7  1  1  6  0  0  0
  8 15  1  0  0  0  0
  9  2  2  0  0  0  0
 10  4  1  0  0  0  0
 11  8  1  0  0  0  0
 12 10  2  0  0  0  0
 13 12  1  0  0  0  0
 13  3  1  0  0  0  0
 14 15  1  1  0  0  0
 14  9  1  0  0  0  0
 16  9  1  0  0  0  0
 16 21  1  0  0  0  0
 17 20  2  0  0  0  0
 19 21  1  0  0  0  0
 19 22  1  1  0  0  0
 19 17  1  0  0  0  0
 21 17  1  0  0  0  0
 21 18  1  1  0  0  0
 24 23  1  6  0  0  0
 24 25  1  0  0  0  0
 26 27  1  6  0  0  0
 26 24  1  0  0  0  0
 26 25  1  0  0  0  0
 26 22  1  0  0  0  0
 29 28  1  0  0  0  0
 29 40  1  0  0  0  0
 30 33  2  0  0  0  0
 30 31  1  0  0  0  0
 31 35  2  0  0  0  0
 32 36  1  0  0  0  0
 32 34  2  0  0  0  0
 33 32  1  0  0  0  0
 34 29  1  0  0  0  0
 35 34  1  0  0  0  0
 36 37  2  0  0  0  0
 36 38  1  0  0  0  0
 40 39  1  0  0  0  0
M  END
>  <MODEL>
2

>  <REMARK>
 VINA RESULT:      -5.4      1.784      2.482
  Name = 
  8 active torsions:
  status: ('A' for Active; 'I' for Inactive)
    1  A    between atoms: C_3  and  N_7
    2  A    between atoms: C_3  and  C_11
    3  A    between atoms: N_7  and  C_9
    4  A    between atoms: N_7  and  C_27
    5  A    between atoms: C_15  and  C_17
    6  A    between atoms: C_20  and  O_26
    7  A    between atoms: O_26  and  C_32
    8  A    between atoms: N_36  and  C_37
                            x       y       z     vdW  Elec       q    Type
                         _______ _______ _______ _____ _____    ______ ____

>  <TORSDO>
F 8

$$$$
=
 OpenBabel11072410553D

 40 45  0  0  1  0  0  0  0  0999 V2000
  163.1980  209.8740  151.7690 C   0  0  0  0  0  1  0  0  0  0  0  0
  161.6770  206.7720  154.5110 O   0  0  0  0  0  0  0  0  0  0  0  0
  161.5340  210.6670  150.0120 C   0  0  2  0  0  3  0  0  0  0  0  0
  160.7780  206.4580  150.9880 C   0  0  2  0  0  3  0  0  0  0  0  0
  160.9600  205.4380  149.8930 C   0  0  0  0  0  3  0  0  0  0  0  0
  160.8440  208.9400  151.6520 C   0  0  1  0  0  3  0  0  0  0  0  0
  161.7340  210.1710  151.4510 C   0  0  1  0  0  3  0  0  0  0  0  0
  161.4400  203.7770  151.5330 O   0  0  0  0  0  0  0  0  0  0  0  0
  161.3840  207.0900  153.3250 C   0  0  0  0  0  0  0  0  0  0  0  0
  161.0770  207.8780  150.5960 C   0  0  0  0  0  0  0  0  0  0  0  0
  161.2490  204.1700  150.1990 C   0  0  0  0  0  3  0  0  0  0  0  0
  161.5220  208.2080  149.3670 C   0  0  0  0  0  3  0  0  0  0  0  0
  161.9530  209.6060  148.9890 C   0  0  0  0  0  2  0  0  0  0  0  0
  161.6130  206.0980  152.2160 C   0  0  1  0  0  3  0  0  0  0  0  0
  161.2440  204.6740  152.6310 C   0  0  0  0  0  2  0  0  0  0  0  0
  160.9020  208.4210  153.0320 N   0  0  0  0  0  0  0  0  0  0  0  0
  161.4890  210.3450  154.5630 C   0  0  0  0  0  0  0  0  0  0  0  0
  159.7580  208.6960  155.1680 O   0  0  0  0  0  1  0  0  0  0  0  0
  160.1890  210.6580  153.7940 C   0  0  1  0  0  3  0  0  0  0  0  0
  162.5250  210.6840  155.1100 O   0  0  0  0  0  0  0  0  0  0  0  0
  160.4760  209.2930  154.1290 C   0  0  2  0  0  0  0  0  0  0  0  0
  159.2620  211.2270  154.6770 O   0  0  0  0  0  0  0  0  0  0  0  0
  156.9590  213.6400  153.3400 O   0  0  0  0  0  1  0  0  0  0  0  0
  157.5040  212.9100  154.3980 C   0  0  1  0  0  3  0  0  0  0  0  0
  156.7950  211.5590  154.4990 C   0  0  0  0  0  2  0  0  0  0  0  0
  158.1780  211.6480  153.8940 C   0  0  2  0  0  0  0  0  0  0  0  0
  158.2820  211.5240  152.5050 O   0  0  0  0  0  1  0  0  0  0  0  0
  162.2650  211.9770  149.7390 C   0  0  0  0  0  2  0  0  0  0  0  0
  161.5960  212.7450  148.6950 N   0  0  0  0  0  0  0  0  0  0  0  0
  157.7090  214.3550  149.2630 C   0  0  0  0  0  3  0  0  0  0  0  0
  158.5850  214.2120  150.3380 C   0  0  0  0  0  3  0  0  0  0  0  0
  159.3480  213.3430  147.7730 C   0  0  0  0  0  0  0  0  0  0  0  0
  158.0890  213.9220  147.9930 C   0  0  0  0  0  3  0  0  0  0  0  0
  160.2510  213.2240  148.8640 C   0  0  0  0  0  0  0  0  0  0  0  0
  159.8480  213.6540  150.1380 C   0  0  0  0  0  3  0  0  0  0  0  0
  159.6440  212.8370  146.4160 C   0  0  0  0  0  0  0  0  0  0  0  0
  159.7290  211.6030  146.1860 O   0  0  0  0  0  1  0  0  0  0  0  0
  159.7750  213.7300  145.3580 O   0  0  0  0  0  0  0  0  0  0  0  0
  163.5540  212.3780  147.4760 O   0  0  0  0  0  1  0  0  0  0  0  0
  162.3520  213.0860  147.4990 C   0  0  0  0  0  2  0  0  0  0  0  0
  3 28  1  6  0  0  0
  3  7  1  0  0  0  0
  4  5  1  6  0  0  0
  4 14  1  0  0  0  0
  5 11  2  0  0  0  0
  6 10  1  6  0  0  0
  6 16  1  0  0  0  0
  7  6  1  0  0  0  0
  7  1  1  6  0  0  0
  8 15  1  0  0  0  0
  9  2  2  0  0  0  0
 10  4  1  0  0  0  0
 11  8  1  0  0  0  0
 12 10  2  0  0  0  0
 13 12  1  0  0  0  0
 13  3  1  0  0  0  0
 14 15  1  1  0  0  0
 14  9  1  0  0  0  0
 16  9  1  0  0  0  0
 16 21  1  0  0  0  0
 17 20  2  0  0  0  0
 19 21  1  0  0  0  0
 19 17  1  0  0  0  0
 19 22  1  1  0  0  0
 21 17  1  0  0  0  0
 21 18  1  1  0  0  0
 24 23  1  6  0  0  0
 24 25  1  0  0  0  0
 26 27  1  6  0  0  0
 26 24  1  0  0  0  0
 26 25  1  0  0  0  0
 26 22  1  0  0  0  0
 29 34  1  0  0  0  0
 29 28  1  0  0  0  0
 30 31  1  0  0  0  0
 32 33  1  0  0  0  0
 32 34  2  0  0  0  0
 33 30  2  0  0  0  0
 34 35  1  0  0  0  0
 35 31  2  0  0  0  0
 36 32  1  0  0  0  0
 37 36  1  0  0  0  0
 38 36  2  0  0  0  0
 39 40  1  0  0  0  0
 40 29  1  0  0  0  0
M  END
>  <MODEL>
3

>  <REMARK>
 VINA RESULT:      -5.2      1.642      2.477
  Name = 
  8 active torsions:
  status: ('A' for Active; 'I' for Inactive)
    1  A    between atoms: C_3  and  N_7
    2  A    between atoms: C_3  and  C_11
    3  A    between atoms: N_7  and  C_9
    4  A    between atoms: N_7  and  C_27
    5  A    between atoms: C_15  and  C_17
    6  A    between atoms: C_20  and  O_26
    7  A    between atoms: O_26  and  C_32
    8  A    between atoms: N_36  and  C_37
                            x       y       z     vdW  Elec       q    Type
                         _______ _______ _______ _____ _____    ______ ____

>  <TORSDO>
F 8

$$$$
=
 OpenBabel11072410553D

 40 45  0  0  1  0  0  0  0  0999 V2000
  163.4530  206.7370  151.8010 C   0  0  0  0  0  1  0  0  0  0  0  0
  162.8180  210.4390  154.1140 O   0  0  0  0  0  0  0  0  0  0  0  0
  161.3430  205.7100  150.8150 C   0  0  2  0  0  3  0  0  0  0  0  0
  160.3870  207.7570  154.5740 C   0  0  2  0  0  3  0  0  0  0  0  0
  159.8730  206.9220  155.7200 C   0  0  0  0  0  3  0  0  0  0  0  0
  161.1770  207.8060  152.1300 C   0  0  1  0  0  3  0  0  0  0  0  0
  162.0800  207.0040  151.1860 C   0  0  1  0  0  3  0  0  0  0  0  0
  160.7440  208.5170  157.2610 O   0  0  0  0  0  0  0  0  0  0  0  0
  162.0820  209.4450  153.8640 C   0  0  0  0  0  0  0  0  0  0  0  0
  160.7200  206.9930  153.3240 C   0  0  0  0  0  0  0  0  0  0  0  0
  160.0430  207.3350  156.9790 C   0  0  0  0  0  3  0  0  0  0  0  0
  160.6110  205.6510  153.2490 C   0  0  0  0  0  3  0  0  0  0  0  0
  161.0620  204.8480  152.0510 C   0  0  0  0  0  2  0  0  0  0  0  0
  161.6090  208.5720  154.9960 C   0  0  1  0  0  3  0  0  0  0  0  0
  161.2240  209.3870  156.2300 C   0  0  0  0  0  2  0  0  0  0  0  0
  161.7610  209.1110  152.4940 N   0  0  0  0  0  0  0  0  0  0  0  0
  161.5750  209.6720  150.0370 C   0  0  0  0  0  0  0  0  0  0  0  0
  163.2640  210.7420  151.4810 O   0  0  0  0  0  1  0  0  0  0  0  0
  160.9050  210.7720  150.8830 C   0  0  1  0  0  3  0  0  0  0  0  0
  161.6710  209.0000  149.0240 O   0  0  0  0  0  0  0  0  0  0  0  0
  162.0350  210.0800  151.4310 C   0  0  2  0  0  0  0  0  0  0  0  0
  161.2620  212.0260  150.3670 O   0  0  0  0  0  0  0  0  0  0  0  0
  158.1630  213.8320  150.1570 O   0  0  0  0  0  1  0  0  0  0  0  0
  159.4490  213.5330  149.7030 C   0  0  1  0  0  3  0  0  0  0  0  0
  160.4640  214.3890  150.4610 C   0  0  0  0  0  2  0  0  0  0  0  0
  160.2880  212.9290  150.8140 C   0  0  2  0  0  0  0  0  0  0  0  0
  159.6080  212.6310  151.9990 O   0  0  0  0  0  1  0  0  0  0  0  0
  162.0880  204.8930  149.7640 C   0  0  0  0  0  2  0  0  0  0  0  0
  161.2580  204.6690  148.5860 N   0  0  0  0  0  0  0  0  0  0  0  0
  160.7980  200.8430  146.8060 C   0  0  0  0  0  3  0  0  0  0  0  0
  160.6110  201.0190  148.1760 C   0  0  0  0  0  3  0  0  0  0  0  0
  161.3940  203.1930  146.5710 C   0  0  0  0  0  0  0  0  0  0  0  0
  161.1870  201.9230  146.0130 C   0  0  0  0  0  3  0  0  0  0  0  0
  161.1750  203.3770  147.9630 C   0  0  0  0  0  0  0  0  0  0  0  0
  160.7950  202.2780  148.7490 C   0  0  0  0  0  3  0  0  0  0  0  0
  161.8830  204.2650  145.6780 C   0  0  0  0  0  0  0  0  0  0  0  0
  161.1380  204.7670  144.7970 O   0  0  0  0  0  0  0  0  0  0  0  0
  163.1660  204.7730  145.8450 O   0  0  0  0  0  1  0  0  0  0  0  0
  161.2590  206.7220  147.4710 O   0  0  0  0  0  1  0  0  0  0  0  0
  160.4480  205.7740  148.0960 C   0  0  0  0  0  2  0  0  0  0  0  0
  3 28  1  6  0  0  0
  3  7  1  0  0  0  0
  3 13  1  0  0  0  0
  4 14  1  0  0  0  0
  4  5  1  1  0  0  0
  5 11  2  0  0  0  0
  6 16  1  0  0  0  0
  6 10  1  1  0  0  0
  7  1  1  1  0  0  0
  7  6  1  0  0  0  0
  9  2  2  0  0  0  0
  9 14  1  0  0  0  0
 10  4  1  0  0  0  0
 11  8  1  0  0  0  0
 12 10  2  0  0  0  0
 13 12  1  0  0  0  0
 14 15  1  1  0  0  0
 15  8  1  0  0  0  0
 16  9  1  0  0  0  0
 17 19  1  0  0  0  0
 17 21  1  0  0  0  0
 19 22  1  6  0  0  0
 19 21  1  0  0  0  0
 20 17  2  0  0  0  0
 21 18  1  1  0  0  0
 21 16  1  0  0  0  0
 22 26  1  0  0  0  0
 24 23  1  1  0  0  0
 24 25  1  0  0  0  0
 24 26  1  0  0  0  0
 25 26  1  0  0  0  0
 26 27  1  1  0  0  0
 29 28  1  0  0  0  0
 30 31  1  0  0  0  0
 31 35  2  0  0  0  0
 32 34  2  0  0  0  0
 33 32  1  0  0  0  0
 33 30  2  0  0  0  0
 34 29  1  0  0  0  0
 34 35  1  0  0  0  0
 36 38  1  0  0  0  0
 36 32  1  0  0  0  0
 37 36  2  0  0  0  0
 39 40  1  0  0  0  0
 40 29  1  0  0  0  0
M  END
>  <MODEL>
4

>  <REMARK>
 VINA RESULT:      -4.2      3.567      6.658
  Name = 
  8 active torsions:
  status: ('A' for Active; 'I' for Inactive)
    1  A    between atoms: C_3  and  N_7
    2  A    between atoms: C_3  and  C_11
    3  A    between atoms: N_7  and  C_9
    4  A    between atoms: N_7  and  C_27
    5  A    between atoms: C_15  and  C_17
    6  A    between atoms: C_20  and  O_26
    7  A    between atoms: O_26  and  C_32
    8  A    between atoms: N_36  and  C_37
                            x       y       z     vdW  Elec       q    Type
                         _______ _______ _______ _____ _____    ______ ____

>  <TORSDO>
F 8

$$$$
=
 OpenBabel11072410553D

 40 45  0  0  1  0  0  0  0  0999 V2000
  162.7000  209.7430  151.0920 C   0  0  0  0  0  1  0  0  0  0  0  0
  160.8580  212.1210  154.3190 O   0  0  0  0  0  0  0  0  0  0  0  0
  161.3520  207.7170  150.3440 C   0  0  2  0  0  3  0  0  0  0  0  0
  160.6450  208.4880  154.6050 C   0  0  2  0  0  3  0  0  0  0  0  0
  161.0790  207.4350  155.5920 C   0  0  0  0  0  3  0  0  0  0  0  0
  160.4590  209.1800  152.1370 C   0  0  1  0  0  3  0  0  0  0  0  0
  161.3060  209.1620  150.8600 C   0  0  1  0  0  3  0  0  0  0  0  0
  161.3320  209.1170  157.2610 O   0  0  0  0  0  0  0  0  0  0  0  0
  160.7740  210.9050  153.9920 C   0  0  0  0  0  0  0  0  0  0  0  0
  160.9390  208.1750  153.1640 C   0  0  0  0  0  0  0  0  0  0  0  0
  161.3710  207.7750  156.8500 C   0  0  0  0  0  3  0  0  0  0  0  0
  161.5860  207.0530  152.7880 C   0  0  0  0  0  3  0  0  0  0  0  0
  162.0070  206.7780  151.3630 C   0  0  0  0  0  2  0  0  0  0  0  0
  161.2560  209.8460  154.9490 C   0  0  1  0  0  3  0  0  0  0  0  0
  160.8900  210.1690  156.3970 C   0  0  0  0  0  2  0  0  0  0  0  0
  160.2880  210.5420  152.6800 N   0  0  0  0  0  0  0  0  0  0  0  0
  159.7380  212.9860  152.3470 C   0  0  0  0  0  0  0  0  0  0  0  0
  158.3790  211.2050  151.3160 O   0  0  0  0  0  1  0  0  0  0  0  0
  160.4680  212.4350  151.1070 C   0  0  1  0  0  3  0  0  0  0  0  0
  159.4580  213.8860  153.1210 O   0  0  0  0  0  0  0  0  0  0  0  0
  159.6210  211.5500  151.8530 C   0  0  2  0  0  0  0  0  0  0  0  0
  159.8340  212.9130  149.9520 O   0  0  0  0  0  0  0  0  0  0  0  0
  161.1610  213.4690  146.6600 O   0  0  0  0  0  1  0  0  0  0  0  0
  160.5490  212.6650  147.6230 C   0  0  1  0  0  3  0  0  0  0  0  0
  161.6230  211.9910  148.4770 C   0  0  0  0  0  2  0  0  0  0  0  0
  160.8490  213.1710  149.0210 C   0  0  2  0  0  0  0  0  0  0  0  0
  161.5150  214.3990  149.0970 O   0  0  0  0  0  1  0  0  0  0  0  0
  162.0530  207.5990  148.9960 C   0  0  0  0  0  2  0  0  0  0  0  0
  161.3810  206.6310  148.1370 N   0  0  0  0  0  0  0  0  0  0  0  0
  160.7130  202.6060  149.3080 C   0  0  0  0  0  3  0  0  0  0  0  0
  160.3480  203.6610  150.1430 C   0  0  0  0  0  3  0  0  0  0  0  0
  161.6280  204.1810  147.6930 C   0  0  0  0  0  0  0  0  0  0  0  0
  161.3490  202.8670  148.0950 C   0  0  0  0  0  3  0  0  0  0  0  0
  161.2300  205.2570  148.5310 C   0  0  0  0  0  0  0  0  0  0  0  0
  160.6020  204.9770  149.7540 C   0  0  0  0  0  3  0  0  0  0  0  0
  162.3750  204.3700  146.4310 C   0  0  0  0  0  0  0  0  0  0  0  0
  163.4330  205.0500  146.3970 O   0  0  0  0  0  1  0  0  0  0  0  0
  161.9420  203.7410  145.2690 O   0  0  0  0  0  0  0  0  0  0  0  0
  159.9540  206.1300  146.3560 O   0  0  0  0  0  1  0  0  0  0  0  0
  160.7930  207.1070  146.8930 C   0  0  0  0  0  2  0  0  0  0  0  0
  3 28  1  6  0  0  0
  3  7  1  0  0  0  0
  3 13  1  0  0  0  0
  4 14  1  0  0  0  0
  4  5  1  1  0  0  0
  5 11  2  0  0  0  0
  6 16  1  0  0  0  0
  6 10  1  1  0  0  0
  7  1  1  1  0  0  0
  7  6  1  0  0  0  0
  9  2  2  0  0  0  0
  9 14  1  0  0  0  0
 10  4  1  0  0  0  0
 11  8  1  0  0  0  0
 12 10  2  0  0  0  0
 13 12  1  0  0  0  0
 14 15  1  1  0  0  0
 15  8  1  0  0  0  0
 16  9  1  0  0  0  0
 17 20  2  0  0  0  0
 19 22  1  6  0  0  0
 19 21  1  0  0  0  0
 19 17  1  0  0  0  0
 21 18  1  6  0  0  0
 21 17  1  0  0  0  0
 21 16  1  0  0  0  0
 24 23  1  6  0  0  0
 24 25  1  0  0  0  0
 24 26  1  0  0  0  0
 25 26  1  0  0  0  0
 26 27  1  1  0  0  0
 26 22  1  0  0  0  0
 29 34  1  0  0  0  0
 29 28  1  0  0  0  0
 30 31  1  0  0  0  0
 32 33  1  0  0  0  0
 32 34  2  0  0  0  0
 33 30  2  0  0  0  0
 34 35  1  0  0  0  0
 35 31  2  0  0  0  0
 36 32  1  0  0  0  0
 37 36  1  0  0  0  0
 38 36  2  0  0  0  0
 39 40  1  0  0  0  0
 40 29  1  0  0  0  0
M  END
>  <MODEL>
5

>  <REMARK>
 VINA RESULT:      -4.0      2.914      6.500
  Name = 
  8 active torsions:
  status: ('A' for Active; 'I' for Inactive)
    1  A    between atoms: C_3  and  N_7
    2  A    between atoms: C_3  and  C_11
    3  A    between atoms: N_7  and  C_9
    4  A    between atoms: N_7  and  C_27
    5  A    between atoms: C_15  and  C_17
    6  A    between atoms: C_20  and  O_26
    7  A    between atoms: O_26  and  C_32
    8  A    between atoms: N_36  and  C_37
                            x       y       z     vdW  Elec       q    Type
                         _______ _______ _______ _____ _____    ______ ____

>  <TORSDO>
F 8

$$$$
=
 OpenBabel11072410553D

 40 45  0  0  1  0  0  0  0  0999 V2000
  160.4250  208.1410  151.5850 C   0  0  0  0  0  1  0  0  0  0  0  0
  159.7350  212.1190  153.3620 O   0  0  0  0  0  0  0  0  0  0  0  0
  162.7060  207.8280  150.4990 C   0  0  2  0  0  3  0  0  0  0  0  0
  161.4450  212.0140  150.1400 C   0  0  2  0  0  3  0  0  0  0  0  0
  161.2170  212.5640  148.7540 C   0  0  0  0  0  3  0  0  0  0  0  0
  162.1520  209.9970  151.5660 C   0  0  1  0  0  3  0  0  0  0  0  0
  161.9120  208.4850  151.6370 C   0  0  1  0  0  3  0  0  0  0  0  0
  159.6670  214.1390  149.6460 O   0  0  0  0  0  0  0  0  0  0  0  0
  160.4660  211.7150  152.4160 C   0  0  0  0  0  0  0  0  0  0  0  0
  161.8500  210.5680  150.1950 C   0  0  0  0  0  0  0  0  0  0  0  0
  160.3830  213.5910  148.5700 C   0  0  0  0  0  3  0  0  0  0  0  0
  161.9560  209.8060  149.0880 C   0  0  0  0  0  3  0  0  0  0  0  0
  162.2340  208.3210  149.1260 C   0  0  0  0  0  2  0  0  0  0  0  0
  160.2120  212.2160  151.0190 C   0  0  1  0  0  3  0  0  0  0  0  0
  159.8590  213.7030  150.9950 C   0  0  0  0  0  2  0  0  0  0  0  0
  161.4890  210.7240  152.6660 N   0  0  0  0  0  0  0  0  0  0  0  0
  161.0400  211.0920  155.1260 C   0  0  0  0  0  0  0  0  0  0  0  0
  163.2400  210.3280  154.3160 O   0  0  0  0  0  1  0  0  0  0  0  0
  160.9720  209.5880  154.7950 C   0  0  1  0  0  3  0  0  0  0  0  0
  160.6980  212.0700  155.7700 O   0  0  0  0  0  0  0  0  0  0  0  0
  161.8730  210.4150  154.0450 C   0  0  2  0  0  0  0  0  0  0  0  0
  161.6380  208.8690  155.7980 O   0  0  0  0  0  0  0  0  0  0  0  0
  158.8690  206.5820  155.8870 O   0  0  0  0  0  1  0  0  0  0  0  0
  159.6520  207.5910  156.4490 C   0  0  1  0  0  3  0  0  0  0  0  0
  160.8310  206.9630  157.1920 C   0  0  0  0  0  2  0  0  0  0  0  0
  161.0400  207.6010  155.8380 C   0  0  2  0  0  0  0  0  0  0  0  0
  161.2340  206.7480  154.7460 O   0  0  0  0  0  1  0  0  0  0  0  0
  162.6570  206.3050  150.5550 C   0  0  0  0  0  2  0  0  0  0  0  0
  161.7560  205.7700  149.5400 N   0  0  0  0  0  0  0  0  0  0  0  0
  160.8370  201.6360  149.2660 C   0  0  0  0  0  3  0  0  0  0  0  0
  160.8200  202.2900  150.4970 C   0  0  0  0  0  3  0  0  0  0  0  0
  161.5610  203.6860  148.1700 C   0  0  0  0  0  0  0  0  0  0  0  0
  161.2060  202.3300  148.1140 C   0  0  0  0  0  3  0  0  0  0  0  0
  161.5150  204.3580  149.4210 C   0  0  0  0  0  0  0  0  0  0  0  0
  161.1540  203.6420  150.5720 C   0  0  0  0  0  3  0  0  0  0  0  0
  162.0170  204.3290  146.9190 C   0  0  0  0  0  0  0  0  0  0  0  0
  163.2100  204.7030  146.7780 O   0  0  0  0  0  1  0  0  0  0  0  0
  161.1350  204.4740  145.8550 O   0  0  0  0  0  0  0  0  0  0  0  0
  159.7060  206.3270  148.5680 O   0  0  0  0  0  1  0  0  0  0  0  0
  161.0410  206.7110  148.6900 C   0  0  0  0  0  2  0  0  0  0  0  0
  3 28  1  6  0  0  0
  3  7  1  0  0  0  0
  4  5  1  6  0  0  0
  4 10  1  0  0  0  0
  4 14  1  0  0  0  0
  6 10  1  6  0  0  0
  6  7  1  0  0  0  0
  6 16  1  0  0  0  0
  7  1  1  6  0  0  0
  8 15  1  0  0  0  0
  9 16  1  0  0  0  0
  9  2  2  0  0  0  0
 11  5  2  0  0  0  0
 11  8  1  0  0  0  0
 12 13  1  0  0  0  0
 12 10  2  0  0  0  0
 13  3  1  0  0  0  0
 14 15  1  1  0  0  0
 14  9  1  0  0  0  0
 16 21  1  0  0  0  0
 17 20  2  0  0  0  0
 19 17  1  0  0  0  0
 19 22  1  1  0  0  0
 21 18  1  1  0  0  0
 21 19  1  0  0  0  0
 21 17  1  0  0  0  0
 22 26  1  0  0  0  0
 24 23  1  6  0  0  0
 24 25  1  0  0  0  0
 26 27  1  6  0  0  0
 26 24  1  0  0  0  0
 26 25  1  0  0  0  0
 29 28  1  0  0  0  0
 30 31  1  0  0  0  0
 31 35  2  0  0  0  0
 32 34  2  0  0  0  0
 33 32  1  0  0  0  0
 33 30  2  0  0  0  0
 34 29  1  0  0  0  0
 34 35  1  0  0  0  0
 36 32  1  0  0  0  0
 37 36  1  0  0  0  0
 38 36  2  0  0  0  0
 39 40  1  0  0  0  0
 40 29  1  0  0  0  0
M  END
>  <MODEL>
6

>  <REMARK>
 VINA RESULT:      -3.7      2.824      6.753
  Name = 
  8 active torsions:
  status: ('A' for Active; 'I' for Inactive)
    1  A    between atoms: C_3  and  N_7
    2  A    between atoms: C_3  and  C_11
    3  A    between atoms: N_7  and  C_9
    4  A    between atoms: N_7  and  C_27
    5  A    between atoms: C_15  and  C_17
    6  A    between atoms: C_20  and  O_26
    7  A    between atoms: O_26  and  C_32
    8  A    between atoms: N_36  and  C_37
                            x       y       z     vdW  Elec       q    Type
                         _______ _______ _______ _____ _____    ______ ____

>  <TORSDO>
F 8

$$$$
=
 OpenBabel11072410553D

 40 45  0  0  1  0  0  0  0  0999 V2000
  163.4200  206.5520  151.8710 C   0  0  0  0  0  1  0  0  0  0  0  0
  162.9450  210.3810  154.0090 O   0  0  0  0  0  0  0  0  0  0  0  0
  161.2640  205.5590  150.9510 C   0  0  2  0  0  3  0  0  0  0  0  0
  160.4200  207.8170  154.6160 C   0  0  2  0  0  3  0  0  0  0  0  0
  159.8870  207.0570  155.8040 C   0  0  0  0  0  3  0  0  0  0  0  0
  161.1880  207.7200  152.1660 C   0  0  1  0  0  3  0  0  0  0  0  0
  162.0520  206.8400  151.2550 C   0  0  1  0  0  3  0  0  0  0  0  0
  160.8310  208.6900  157.2600 O   0  0  0  0  0  0  0  0  0  0  0  0
  162.1700  209.4050  153.8120 C   0  0  0  0  0  0  0  0  0  0  0  0
  160.7130  206.9820  153.4010 C   0  0  0  0  0  0  0  0  0  0  0  0
  160.0840  207.5220  157.0410 C   0  0  0  0  0  3  0  0  0  0  0  0
  160.5540  205.6430  153.3910 C   0  0  0  0  0  3  0  0  0  0  0  0
  160.9630  204.7680  152.2290 C   0  0  0  0  0  2  0  0  0  0  0  0
  161.6750  208.6040  154.9880 C   0  0  1  0  0  3  0  0  0  0  0  0
  161.3340  209.4910  156.1860 C   0  0  0  0  0  2  0  0  0  0  0  0
  161.8240  209.0180  152.4630 N   0  0  0  0  0  0  0  0  0  0  0  0
  161.5850  209.4970  149.9930 C   0  0  0  0  0  0  0  0  0  0  0  0
  163.3950  210.5000  151.3330 O   0  0  0  0  0  1  0  0  0  0  0  0
  161.0240  210.6730  150.8160 C   0  0  1  0  0  3  0  0  0  0  0  0
  161.5960  208.7820  149.0050 O   0  0  0  0  0  0  0  0  0  0  0  0
  162.1230  209.9250  151.3520 C   0  0  2  0  0  0  0  0  0  0  0  0
  161.4460  211.8780  150.2380 O   0  0  0  0  0  0  0  0  0  0  0  0
  158.4520  213.6990  149.4500 O   0  0  0  0  0  1  0  0  0  0  0  0
  159.7880  213.3670  149.2230 C   0  0  1  0  0  3  0  0  0  0  0  0
  160.6830  214.2500  150.0930 C   0  0  0  0  0  2  0  0  0  0  0  0
  160.4280  212.8110  150.4800 C   0  0  2  0  0  0  0  0  0  0  0  0
  159.5630  212.5760  151.5540 O   0  0  0  0  0  1  0  0  0  0  0  0
  161.9680  204.6660  149.9350 C   0  0  0  0  0  2  0  0  0  0  0  0
  161.0600  203.6550  149.4050 N   0  0  0  0  0  0  0  0  0  0  0  0
  160.9110  202.4800  145.3290 C   0  0  0  0  0  3  0  0  0  0  0  0
  160.8170  201.5330  146.3480 C   0  0  0  0  0  3  0  0  0  0  0  0
  161.2050  204.2470  146.9790 C   0  0  0  0  0  0  0  0  0  0  0  0
  161.1050  203.8250  145.6450 C   0  0  0  0  0  3  0  0  0  0  0  0
  161.0800  203.2840  148.0170 C   0  0  0  0  0  0  0  0  0  0  0  0
  160.8980  201.9340  147.6820 C   0  0  0  0  0  3  0  0  0  0  0  0
  161.4890  205.6760  147.2270 C   0  0  0  0  0  0  0  0  0  0  0  0
  162.6630  206.1260  147.1640 O   0  0  0  0  0  0  0  0  0  0  0  0
  160.4440  206.5570  147.4780 O   0  0  0  0  0  1  0  0  0  0  0  0
  160.8270  201.8630  150.8860 O   0  0  0  0  0  1  0  0  0  0  0  0
  160.1770  202.9680  150.3360 C   0  0  0  0  0  2  0  0  0  0  0  0
  3 28  1  6  0  0  0
  3  7  1  0  0  0  0
  3 13  1  0  0  0  0
  4 14  1  0  0  0  0
  4  5  1  1  0  0  0
  5 11  2  0  0  0  0
  6 16  1  0  0  0  0
  6 10  1  1  0  0  0
  7  1  1  1  0  0  0
  7  6  1  0  0  0  0
  9  2  2  0  0  0  0
  9 14  1  0  0  0  0
 10  4  1  0  0  0  0
 11  8  1  0  0  0  0
 12 10  2  0  0  0  0
 13 12  1  0  0  0  0
 14 15  1  1  0  0  0
 15  8  1  0  0  0  0
 16  9  1  0  0  0  0
 17 19  1  0  0  0  0
 17 21  1  0  0  0  0
 19 22  1  6  0  0  0
 19 21  1  0  0  0  0
 20 17  2  0  0  0  0
 21 18  1  1  0  0  0
 21 16  1  0  0  0  0
 22 26  1  0  0  0  0
 24 23  1  1  0  0  0
 24 25  1  0  0  0  0
 24 26  1  0  0  0  0
 25 26  1  0  0  0  0
 26 27  1  1  0  0  0
 29 28  1  0  0  0  0
 29 40  1  0  0  0  0
 30 33  2  0  0  0  0
 30 31  1  0  0  0  0
 31 35  2  0  0  0  0
 32 36  1  0  0  0  0
 32 34  2  0  0  0  0
 33 32  1  0  0  0  0
 34 29  1  0  0  0  0
 35 34  1  0  0  0  0
 36 38  1  0  0  0  0
 37 36  2  0  0  0  0
 40 39  1  0  0  0  0
M  END
>  <MODEL>
7

>  <REMARK>
 VINA RESULT:      -3.5      3.291      6.741
  Name = 
  8 active torsions:
  status: ('A' for Active; 'I' for Inactive)
    1  A    between atoms: C_3  and  N_7
    2  A    between atoms: C_3  and  C_11
    3  A    between atoms: N_7  and  C_9
    4  A    between atoms: N_7  and  C_27
    5  A    between atoms: C_15  and  C_17
    6  A    between atoms: C_20  and  O_26
    7  A    between atoms: O_26  and  C_32
    8  A    between atoms: N_36  and  C_37
                            x       y       z     vdW  Elec       q    Type
                         _______ _______ _______ _____ _____    ______ ____

>  <TORSDO>
F 8

$$$$
=
 OpenBabel11072410553D

 40 45  0  0  1  0  0  0  0  0999 V2000
  163.3650  205.8970  151.4650 C   0  0  0  0  0  1  0  0  0  0  0  0
  163.1500  210.2870  151.8380 O   0  0  0  0  0  0  0  0  0  0  0  0
  161.1270  204.7360  151.1140 C   0  0  2  0  0  3  0  0  0  0  0  0
  160.5680  208.3490  153.5380 C   0  0  2  0  0  3  0  0  0  0  0  0
  160.0720  208.1780  154.9520 C   0  0  0  0  0  3  0  0  0  0  0  0
  161.1980  207.2060  151.3240 C   0  0  1  0  0  3  0  0  0  0  0  0
  161.9780  205.9820  150.8320 C   0  0  1  0  0  3  0  0  0  0  0  0
  161.1540  210.2100  155.5670 O   0  0  0  0  0  0  0  0  0  0  0  0
  162.3300  209.3620  152.0900 C   0  0  0  0  0  0  0  0  0  0  0  0
  160.7630  207.0720  152.7700 C   0  0  0  0  0  0  0  0  0  0  0  0
  160.3530  209.1010  155.8770 C   0  0  0  0  0  3  0  0  0  0  0  0
  160.5540  205.8590  153.3210 C   0  0  0  0  0  3  0  0  0  0  0  0
  160.8670  204.5610  152.6140 C   0  0  0  0  0  2  0  0  0  0  0  0
  161.8700  209.1480  153.5080 C   0  0  1  0  0  3  0  0  0  0  0  0
  161.6270  210.4670  154.2400 C   0  0  0  0  0  2  0  0  0  0  0  0
  161.8970  208.4740  151.0350 N   0  0  0  0  0  0  0  0  0  0  0  0
  161.0830  208.4380  148.6420 C   0  0  0  0  0  0  0  0  0  0  0  0
  163.4790  208.6450  149.1880 O   0  0  0  0  0  1  0  0  0  0  0  0
  161.3890  209.8860  149.0760 C   0  0  1  0  0  3  0  0  0  0  0  0
  160.4590  207.6170  147.9910 O   0  0  0  0  0  0  0  0  0  0  0  0
  162.1700  208.8220  149.6390 C   0  0  2  0  0  0  0  0  0  0  0  0
  162.0690  210.5390  148.0390 O   0  0  0  0  0  0  0  0  0  0  0  0
  162.0790  214.0860  147.4710 O   0  0  0  0  0  1  0  0  0  0  0  0
  162.4240  212.9560  148.2130 C   0  0  1  0  0  3  0  0  0  0  0  0
  161.2870  212.6170  149.1770 C   0  0  0  0  0  2  0  0  0  0  0  0
  161.4810  211.8050  147.9170 C   0  0  2  0  0  0  0  0  0  0  0  0
  160.5750  212.0120  146.8710 O   0  0  0  0  0  1  0  0  0  0  0  0
  161.7410  203.4660  150.5370 C   0  0  0  0  0  2  0  0  0  0  0  0
  161.0680  203.0680  149.3050 N   0  0  0  0  0  0  0  0  0  0  0  0
  162.4490  204.6610  145.6210 C   0  0  0  0  0  3  0  0  0  0  0  0
  162.4580  205.4360  146.7800 C   0  0  0  0  0  3  0  0  0  0  0  0
  161.4300  202.8180  146.8430 C   0  0  0  0  0  0  0  0  0  0  0  0
  161.9380  203.3640  145.6540 C   0  0  0  0  0  3  0  0  0  0  0  0
  161.4660  203.5980  148.0300 C   0  0  0  0  0  0  0  0  0  0  0  0
  161.9720  204.9050  147.9760 C   0  0  0  0  0  3  0  0  0  0  0  0
  160.8330  201.4670  146.7770 C   0  0  0  0  0  0  0  0  0  0  0  0
  159.6790  201.2870  146.3080 O   0  0  0  0  0  0  0  0  0  0  0  0
  161.5730  200.3620  147.1840 O   0  0  0  0  0  1  0  0  0  0  0  0
  160.4630  200.9790  150.1560 O   0  0  0  0  0  1  0  0  0  0  0  0
  160.0250  202.0570  149.3870 C   0  0  0  0  0  2  0  0  0  0  0  0
  2  9  2  0  0  0  0
  3 28  1  1  0  0  0
  3 13  1  0  0  0  0
  4  5  1  1  0  0  0
  5 11  2  0  0  0  0
  6 10  1  1  0  0  0
  7  3  1  0  0  0  0
  7  6  1  0  0  0  0
  7  1  1  1  0  0  0
  8 11  1  0  0  0  0
  9 14  1  0  0  0  0
 10 12  2  0  0  0  0
 10  4  1  0  0  0  0
 13 12  1  0  0  0  0
 14  4  1  0  0  0  0
 14 15  1  6  0  0  0
 15  8  1  0  0  0  0
 16  6  1  0  0  0  0
 16  9  1  0  0  0  0
 17 19  1  0  0  0  0
 17 21  1  0  0  0  0
 19 22  1  6  0  0  0
 19 21  1  0  0  0  0
 20 17  2  0  0  0  0
 21 18  1  6  0  0  0
 21 16  1  0  0  0  0
 24 23  1  6  0  0  0
 24 25  1  0  0  0  0
 26 27  1  6  0  0  0
 26 22  1  0  0  0  0
 26 24  1  0  0  0  0
 26 25  1  0  0  0  0
 29 40  1  0  0  0  0
 29 28  1  0  0  0  0
 30 33  2  0  0  0  0
 30 31  1  0  0  0  0
 31 35  2  0  0  0  0
 32 34  2  0  0  0  0
 33 32  1  0  0  0  0
 34 29  1  0  0  0  0
 35 34  1  0  0  0  0
 36 32  1  0  0  0  0
 36 38  1  0  0  0  0
 37 36  2  0  0  0  0
 40 39  1  0  0  0  0
M  END
>  <MODEL>
8

>  <REMARK>
 VINA RESULT:      -3.5      3.592      7.828
  Name = 
  8 active torsions:
  status: ('A' for Active; 'I' for Inactive)
    1  A    between atoms: C_3  and  N_7
    2  A    between atoms: C_3  and  C_11
    3  A    between atoms: N_7  and  C_9
    4  A    between atoms: N_7  and  C_27
    5  A    between atoms: C_15  and  C_17
    6  A    between atoms: C_20  and  O_26
    7  A    between atoms: O_26  and  C_32
    8  A    between atoms: N_36  and  C_37
                            x       y       z     vdW  Elec       q    Type
                         _______ _______ _______ _____ _____    ______ ____

>  <TORSDO>
F 8

$$$$
=
 OpenBabel11072410553D

 40 45  0  0  1  0  0  0  0  0999 V2000
  163.4110  206.5950  151.7920 C   0  0  0  0  0  1  0  0  0  0  0  0
  162.9500  210.3540  154.0560 O   0  0  0  0  0  0  0  0  0  0  0  0
  161.2500  205.6340  150.8510 C   0  0  2  0  0  3  0  0  0  0  0  0
  160.4250  207.7730  154.5910 C   0  0  2  0  0  3  0  0  0  0  0  0
  159.8970  206.9750  155.7560 C   0  0  0  0  0  3  0  0  0  0  0  0
  161.1820  207.7550  152.1350 C   0  0  1  0  0  3  0  0  0  0  0  0
  162.0410  206.9050  151.1920 C   0  0  1  0  0  3  0  0  0  0  0  0
  160.8490  208.5600  157.2600 O   0  0  0  0  0  0  0  0  0  0  0  0
  162.1730  209.3850  153.8310 C   0  0  0  0  0  0  0  0  0  0  0  0
  160.7110  206.9780  153.3480 C   0  0  0  0  0  0  0  0  0  0  0  0
  160.1000  207.4010  157.0060 C   0  0  0  0  0  3  0  0  0  0  0  0
  160.5510  205.6400  153.2960 C   0  0  0  0  0  3  0  0  0  0  0  0
  160.9540  204.8020  152.1040 C   0  0  0  0  0  2  0  0  0  0  0  0
  161.6830  208.5470  154.9830 C   0  0  1  0  0  3  0  0  0  0  0  0
  161.3480  209.3950  156.2100 C   0  0  0  0  0  2  0  0  0  0  0  0
  161.8210  209.0420  152.4720 N   0  0  0  0  0  0  0  0  0  0  0  0
  161.5810  209.5940  150.0170 C   0  0  0  0  0  0  0  0  0  0  0  0
  163.3850  210.5680  151.3890 O   0  0  0  0  0  1  0  0  0  0  0  0
  161.0120  210.7420  150.8750 C   0  0  1  0  0  3  0  0  0  0  0  0
  161.5980  208.9100  149.0070 O   0  0  0  0  0  0  0  0  0  0  0  0
  162.1160  209.9840  151.3890 C   0  0  2  0  0  0  0  0  0  0  0  0
  161.4280  211.9660  150.3340 O   0  0  0  0  0  0  0  0  0  0  0  0
  158.4250  213.7850  149.5730 O   0  0  0  0  0  1  0  0  0  0  0  0
  159.7660  213.4710  149.3480 C   0  0  1  0  0  3  0  0  0  0  0  0
  160.6460  214.3350  150.2520 C   0  0  0  0  0  2  0  0  0  0  0  0
  160.4000  212.8830  150.5950 C   0  0  2  0  0  0  0  0  0  0  0  0
  159.5280  212.6090  151.6530 O   0  0  0  0  0  1  0  0  0  0  0  0
  161.9480  204.7740  149.8040 C   0  0  0  0  0  2  0  0  0  0  0  0
  161.1720  204.7120  148.5710 N   0  0  0  0  0  0  0  0  0  0  0  0
  161.0590  201.1540  146.2590 C   0  0  0  0  0  3  0  0  0  0  0  0
  161.2020  202.3980  145.6460 C   0  0  0  0  0  3  0  0  0  0  0  0
  160.8890  202.2310  148.4360 C   0  0  0  0  0  0  0  0  0  0  0  0
  160.9020  201.0740  147.6420 C   0  0  0  0  0  3  0  0  0  0  0  0
  161.0630  203.4960  147.8140 C   0  0  0  0  0  0  0  0  0  0  0  0
  161.2070  203.5600  146.4190 C   0  0  0  0  0  3  0  0  0  0  0  0
  160.6380  202.0660  149.8840 C   0  0  0  0  0  0  0  0  0  0  0  0
  159.5240  202.3630  150.3890 O   0  0  0  0  0  0  0  0  0  0  0  0
  161.6230  201.5220  150.7000 O   0  0  0  0  0  1  0  0  0  0  0  0
  161.0920  206.5200  147.0930 O   0  0  0  0  0  1  0  0  0  0  0  0
  160.4400  205.9010  148.1590 C   0  0  0  0  0  2  0  0  0  0  0  0
  3 28  1  6  0  0  0
  3  7  1  0  0  0  0
  3 13  1  0  0  0  0
  4 14  1  0  0  0  0
  4  5  1  1  0  0  0
  5 11  2  0  0  0  0
  6 16  1  0  0  0  0
  6 10  1  1  0  0  0
  7  1  1  1  0  0  0
  7  6  1  0  0  0  0
  9  2  2  0  0  0  0
  9 14  1  0  0  0  0
 10  4  1  0  0  0  0
 11  8  1  0  0  0  0
 12 10  2  0  0  0  0
 13 12  1  0  0  0  0
 14 15  1  1  0  0  0
 15  8  1  0  0  0  0
 16  9  1  0  0  0  0
 17 19  1  0  0  0  0
 17 21  1  0  0  0  0
 19 22  1  6  0  0  0
 19 21  1  0  0  0  0
 20 17  2  0  0  0  0
 21 18  1  1  0  0  0
 21 16  1  0  0  0  0
 22 26  1  0  0  0  0
 24 23  1  1  0  0  0
 24 25  1  0  0  0  0
 24 26  1  0  0  0  0
 25 26  1  0  0  0  0
 26 27  1  1  0  0  0
 29 28  1  0  0  0  0
 30 33  1  0  0  0  0
 31 30  2  0  0  0  0
 31 35  1  0  0  0  0
 32 36  1  0  0  0  0
 33 32  2  0  0  0  0
 34 32  1  0  0  0  0
 34 29  1  0  0  0  0
 35 34  2  0  0  0  0
 36 37  2  0  0  0  0
 36 38  1  0  0  0  0
 39 40  1  0  0  0  0
 40 29  1  0  0  0  0
M  END
>  <MODEL>
9

>  <REMARK>
 VINA RESULT:      -3.5      3.246      7.141
  Name = 
  8 active torsions:
  status: ('A' for Active; 'I' for Inactive)
    1  A    between atoms: C_3  and  N_7
    2  A    between atoms: C_3  and  C_11
    3  A    between atoms: N_7  and  C_9
    4  A    between atoms: N_7  and  C_27
    5  A    between atoms: C_15  and  C_17
    6  A    between atoms: C_20  and  O_26
    7  A    between atoms: O_26  and  C_32
    8  A    between atoms: N_36  and  C_37
                            x       y       z     vdW  Elec       q    Type
                         _______ _______ _______ _____ _____    ______ ____

>  <TORSDO>
F 8

$$$$
