=
 OpenBabel11072410383D

 50 55  0  0  1  0  0  0  0  0999 V2000
  160.6100  206.9310  154.8650 C   0  0  0  0  0  3  0  0  0  0  0  0
  161.1740  207.6110  153.7810 C   0  0  0  0  0  0  0  0  0  0  0  0
  160.2220  207.6170  155.9750 N   0  0  0  0  0  0  0  0  0  0  0  0
  160.9230  209.6920  155.0050 C   0  0  0  0  0  0  0  0  0  0  0  0
  161.3220  208.9930  153.8570 C   0  0  0  0  0  3  0  0  0  0  0  0
  160.3650  208.9680  156.0710 C   0  0  0  0  0  0  0  0  0  0  0  0
  159.9400  209.6310  157.2590 N   0  0  0  0  0  1  0  0  0  0  0  0
  158.7510  213.6520  153.9720 N   0  0  0  0  0  0  0  0  0  0  0  0
  157.9210  213.9170  152.8820 N   0  0  0  0  0  0  0  0  0  0  0  0
  158.3730  213.2500  151.8620 C   0  0  0  0  0  0  0  0  0  0  0  0
  161.0890  211.1560  155.0910 C   0  0  0  0  0  3  0  0  0  0  0  0
  159.7440  212.7500  153.5220 C   0  0  0  0  0  0  0  0  0  0  0  0
  159.5170  212.4340  152.1570 N   0  0  0  0  0  2  0  0  0  0  0  0
  160.4270  211.9720  154.3150 C   0  0  0  0  0  0  0  0  0  0  0  0
  158.6190  213.6810  149.4140 C   0  0  0  0  0  2  0  0  0  0  0  0
  155.8260  214.4530  149.4790 C   0  0  0  0  0  3  0  0  0  0  0  0
  156.4350  214.0700  150.6060 C   0  0  0  0  0  3  0  0  0  0  0  0
  157.9140  214.2450  148.1600 C   0  0  0  0  0  2  0  0  0  0  0  0
  157.6720  213.2100  150.5390 C   0  0  2  0  0  0  0  0  0  0  0  0
  156.3990  214.0260  148.1610 C   0  0  0  0  0  2  0  0  0  0  0  0
  157.2900  211.9060  150.2660 F   0  0  0  0  0  0  0  0  0  0  0  0
  158.5370  214.1570  155.3240 C   0  0  0  0  0  2  0  0  0  0  0  0
  155.6860  211.8090  155.7860 N   0  0  0  0  0  2  0  0  0  0  0  0
  156.9760  212.1650  155.2310 C   0  0  0  0  0  2  0  0  0  0  0  0
  155.1670  212.8220  156.6240 C   0  0  0  0  0  0  0  0  0  0  0  0
  154.0930  212.6660  157.2600 O   0  0  0  0  0  0  0  0  0  0  0  0
  156.1790  214.2680  156.8080 S   0  0  0  0  0  0  0  0  0  0  0  0
  157.5510  213.2870  156.0980 C   0  0  2  0  0  3  0  0  0  0  0  0
  161.5850  206.9300  152.5950 N   0  0  0  0  0  2  0  0  0  0  0  0
  160.6680  206.4260  151.5820 C   0  0  1  0  0  3  0  0  0  0  0  0
  161.0510  206.9580  150.1920 C   0  0  0  0  0  2  0  0  0  0  0  0
  161.7900  210.2110  148.4740 C   0  0  0  0  0  2  0  0  0  0  0  0
  162.1230  211.1090  149.6680 C   0  0  0  0  0  2  0  0  0  0  0  0
  161.8170  210.4150  151.0050 C   0  0  0  0  0  2  0  0  0  0  0  0
  161.7380  208.3280  150.1730 C   0  0  2  0  0  3  0  0  0  0  0  0
  160.9660  209.3110  150.8230 O   0  0  0  0  0  0  0  0  0  0  0  0
  162.1480  208.7500  148.7500 C   0  0  0  0  0  2  0  0  0  0  0  0
  160.6630  205.0250  151.5990 O   0  0  0  0  0  0  0  0  0  0  0  0
  160.0200  202.7060  150.2150 O   0  0  0  0  0  0  0  0  0  0  0  0
  160.9020  203.4730  149.7430 C   0  0  0  0  0  0  0  0  0  0  0  0
  161.2870  204.6490  150.4550 N   0  0  0  0  0  2  0  0  0  0  0  0
  161.5650  203.1560  148.4370 C   0  0  2  0  0  3  0  0  0  0  0  0
  162.4090  204.2200  145.2070 C   0  0  0  0  0  2  0  0  0  0  0  0
  162.8760  205.0000  147.3310 C   0  0  0  0  0  2  0  0  0  0  0  0
  161.5160  204.3320  147.4480 C   0  0  1  0  0  3  0  0  0  0  0  0
  161.2140  203.8340  146.0480 C   0  0  0  0  0  2  0  0  0  0  0  0
  163.5050  204.5240  146.1090 N   0  0  0  0  0  2  0  0  0  0  0  0
  159.7540  201.9020  147.0880 C   0  0  0  0  0  1  0  0  0  0  0  0
  161.0290  201.8730  147.8570 C   0  0  0  0  0  0  0  0  0  0  0  0
  161.6850  200.7190  147.9890 C   0  0  0  0  0  2  0  0  0  0  0  0
  1  3  1  0  0  0  0
  2  5  1  0  0  0  0
  2  1  2  0  0  0  0
  3  6  2  0  0  0  0
  4 11  1  0  0  0  0
  4  6  1  0  0  0  0
  5  4  2  0  0  0  0
  6  7  1  0  0  0  0
  8 22  1  0  0  0  0
  9  8  1  0  0  0  0
 10 13  1  0  0  0  0
 10  9  2  0  0  0  0
 12  8  1  0  0  0  0
 12 14  2  0  0  0  0
 13 12  1  0  0  0  0
 14 11  2  0  0  0  0
 15 19  1  0  0  0  0
 16 17  2  0  0  0  0
 18 20  1  0  0  0  0
 18 15  1  0  0  0  0
 19 21  1  6  0  0  0
 19 17  1  0  0  0  0
 19 10  1  0  0  0  0
 20 16  1  0  0  0  0
 23 25  1  0  0  0  0
 24 23  1  0  0  0  0
 24 28  1  0  0  0  0
 25 27  1  0  0  0  0
 25 26  2  0  0  0  0
 28 22  1  6  0  0  0
 28 27  1  0  0  0  0
 29  2  1  0  0  0  0
 30 31  1  6  0  0  0
 30 38  1  0  0  0  0
 30 29  1  0  0  0  0
 32 37  1  0  0  0  0
 32 33  1  0  0  0  0
 33 34  1  0  0  0  0
 35 31  1  6  0  0  0
 35 36  1  0  0  0  0
 36 34  1  0  0  0  0
 37 35  1  0  0  0  0
 40 39  2  0  0  0  0
 40 41  1  0  0  0  0
 41 38  1  0  0  0  0
 42 49  1  6  0  0  0
 42 40  1  0  0  0  0
 43 46  1  0  0  0  0
 43 47  1  0  0  0  0
 44 45  1  0  0  0  0
 45 42  1  1  0  0  0
 46 45  1  0  0  0  0
 47 44  1  0  0  0  0
 48 49  1  0  0  0  0
 49 50  2  0  0  0  0
M  END
>  <MODEL>
1

>  <REMARK>
 VINA RESULT:      -6.2      0.000      0.000
  Name = 
  13 active torsions:
  status: ('A' for Active; 'I' for Inactive)
    1  A    between atoms: C_5  and  N_20
    2  A    between atoms: C_7  and  C_17
    3  A    between atoms: C_7  and  C_38
    4  A    between atoms: C_12  and  C_34
    5  A    between atoms: N_13  and  C_14
    6  A    between atoms: C_14  and  C_45
    7  A    between atoms: N_20  and  C_38
    8  A    between atoms: O_23  and  N_26
    9  A    between atoms: O_23  and  C_38
   10  A    between atoms: C_25  and  C_44
   11  A    between atoms: C_28  and  C_30
   12  A    between atoms: C_32  and  C_34
   13  A    between atoms: C_34  and  C_39
                            x       y       z     vdW  Elec       q    Type
                         _______ _______ _______ _____ _____    ______ ____

>  <TORSDO>
F 13

$$$$
=
 OpenBabel11072410383D

 50 55  0  0  1  0  0  0  0  0999 V2000
  158.5400  213.6910  145.1310 C   0  0  0  0  0  3  0  0  0  0  0  0
  159.4980  212.7760  144.6840 C   0  0  0  0  0  0  0  0  0  0  0  0
  158.6250  214.2130  146.3830 N   0  0  0  0  0  0  0  0  0  0  0  0
  160.6160  212.9590  146.8300 C   0  0  0  0  0  0  0  0  0  0  0  0
  160.5370  212.4190  145.5390 C   0  0  0  0  0  3  0  0  0  0  0  0
  159.6300  213.8720  147.2370 C   0  0  0  0  0  0  0  0  0  0  0  0
  159.6670  214.4530  148.5390 N   0  0  0  0  0  1  0  0  0  0  0  0
  161.3950  210.7390  150.8220 N   0  0  0  0  0  0  0  0  0  0  0  0
  160.5800  210.6970  151.9540 N   0  0  0  0  0  0  0  0  0  0  0  0
  159.9880  211.8480  152.0660 C   0  0  0  0  0  0  0  0  0  0  0  0
  161.7120  212.5740  147.7420 C   0  0  0  0  0  3  0  0  0  0  0  0
  161.2340  212.0230  150.2480 C   0  0  0  0  0  0  0  0  0  0  0  0
  160.2980  212.7700  151.0100 N   0  0  0  0  0  2  0  0  0  0  0  0
  161.4950  212.2950  149.0000 C   0  0  0  0  0  0  0  0  0  0  0  0
  158.0260  213.2800  152.6510 C   0  0  0  0  0  2  0  0  0  0  0  0
  158.9600  213.0790  155.3890 C   0  0  0  0  0  3  0  0  0  0  0  0
  159.6430  212.4780  154.4090 C   0  0  0  0  0  3  0  0  0  0  0  0
  157.3360  214.0600  153.7930 C   0  0  0  0  0  2  0  0  0  0  0  0
  158.9550  212.1350  153.1120 C   0  0  2  0  0  0  0  0  0  0  0  0
  157.5150  213.4130  155.1690 C   0  0  0  0  0  2  0  0  0  0  0  0
  158.1810  211.0030  153.3080 F   0  0  0  0  0  0  0  0  0  0  0  0
  162.1730  209.6150  150.3130 C   0  0  0  0  0  2  0  0  0  0  0  0
  161.7280  206.0340  151.2250 N   0  0  0  0  0  2  0  0  0  0  0  0
  162.0690  207.4060  151.5450 C   0  0  0  0  0  2  0  0  0  0  0  0
  161.3170  205.8850  149.8810 C   0  0  0  0  0  0  0  0  0  0  0  0
  160.9070  204.7840  149.4340 O   0  0  0  0  0  0  0  0  0  0  0  0
  161.3100  207.3680  148.9050 S   0  0  0  0  0  0  0  0  0  0  0  0
  161.4270  208.2950  150.4790 C   0  0  2  0  0  3  0  0  0  0  0  0
  159.4500  212.2110  143.3730 N   0  0  0  0  0  2  0  0  0  0  0  0
  160.0550  212.8210  142.1980 C   0  0  1  0  0  3  0  0  0  0  0  0
  160.3310  211.7620  141.1190 C   0  0  0  0  0  2  0  0  0  0  0  0
  163.4790  211.3340  139.1220 C   0  0  0  0  0  2  0  0  0  0  0  0
  163.0850  211.9970  137.8000 C   0  0  0  0  0  2  0  0  0  0  0  0
  161.5880  212.3400  137.7590 C   0  0  0  0  0  2  0  0  0  0  0  0
  161.2560  212.2040  139.9790 C   0  0  2  0  0  3  0  0  0  0  0  0
  160.8760  211.6360  138.7470 O   0  0  0  0  0  0  0  0  0  0  0  0
  162.7390  211.9560  140.3080 C   0  0  0  0  0  2  0  0  0  0  0  0
  159.2220  213.8340  141.7050 O   0  0  0  0  0  0  0  0  0  0  0  0
  157.7750  214.4520  139.4170 O   0  0  0  0  0  0  0  0  0  0  0  0
  157.3640  213.5260  140.1680 C   0  0  0  0  0  0  0  0  0  0  0  0
  158.0600  213.2170  141.3750 N   0  0  0  0  0  2  0  0  0  0  0  0
  156.1340  212.7470  139.8110 C   0  0  2  0  0  3  0  0  0  0  0  0
  155.9970  209.5010  138.4980 C   0  0  0  0  0  2  0  0  0  0  0  0
  157.6320  211.1310  138.5930 C   0  0  0  0  0  2  0  0  0  0  0  0
  156.3190  211.8950  138.5460 C   0  0  1  0  0  3  0  0  0  0  0  0
  155.2540  210.8180  138.4720 C   0  0  0  0  0  2  0  0  0  0  0  0
  157.3390  209.7610  138.9850 N   0  0  0  0  0  2  0  0  0  0  0  0
  154.5100  214.2080  138.4320 C   0  0  0  0  0  1  0  0  0  0  0  0
  154.9260  213.6460  139.7470 C   0  0  0  0  0  0  0  0  0  0  0  0
  154.2030  213.9240  140.8330 C   0  0  0  0  0  2  0  0  0  0  0  0
  1  3  1  0  0  0  0
  2  1  2  0  0  0  0
  2  5  1  0  0  0  0
  3  6  2  0  0  0  0
  4  6  1  0  0  0  0
  4 11  1  0  0  0  0
  5  4  2  0  0  0  0
  6  7  1  0  0  0  0
  8  9  1  0  0  0  0
  9 10  2  0  0  0  0
 10 19  1  0  0  0  0
 11 14  2  0  0  0  0
 12  8  1  0  0  0  0
 12 13  1  0  0  0  0
 13 10  1  0  0  0  0
 14 12  2  0  0  0  0
 15 19  1  0  0  0  0
 15 18  1  0  0  0  0
 17 16  2  0  0  0  0
 18 20  1  0  0  0  0
 19 21  1  1  0  0  0
 19 17  1  0  0  0  0
 20 16  1  0  0  0  0
 22  8  1  0  0  0  0
 23 24  1  0  0  0  0
 25 23  1  0  0  0  0
 26 25  2  0  0  0  0
 27 25  1  0  0  0  0
 27 28  1  0  0  0  0
 28 22  1  6  0  0  0
 28 24  1  0  0  0  0
 29  2  1  0  0  0  0
 30 31  1  6  0  0  0
 30 29  1  0  0  0  0
 32 37  1  0  0  0  0
 33 32  1  0  0  0  0
 34 33  1  0  0  0  0
 34 36  1  0  0  0  0
 35 37  1  0  0  0  0
 35 31  1  1  0  0  0
 36 35  1  0  0  0  0
 38 30  1  0  0  0  0
 39 40  2  0  0  0  0
 40 41  1  0  0  0  0
 41 38  1  0  0  0  0
 42 49  1  6  0  0  0
 42 40  1  0  0  0  0
 43 47  1  0  0  0  0
 44 47  1  0  0  0  0
 45 44  1  0  0  0  0
 45 42  1  1  0  0  0
 46 43  1  0  0  0  0
 46 45  1  0  0  0  0
 48 49  1  0  0  0  0
 49 50  2  0  0  0  0
M  END
>  <MODEL>
2

>  <REMARK>
 VINA RESULT:      -5.7      6.929     10.384
  Name = 
  13 active torsions:
  status: ('A' for Active; 'I' for Inactive)
    1  A    between atoms: C_5  and  N_20
    2  A    between atoms: C_7  and  C_17
    3  A    between atoms: C_7  and  C_38
    4  A    between atoms: C_12  and  C_34
    5  A    between atoms: N_13  and  C_14
    6  A    between atoms: C_14  and  C_45
    7  A    between atoms: N_20  and  C_38
    8  A    between atoms: O_23  and  N_26
    9  A    between atoms: O_23  and  C_38
   10  A    between atoms: C_25  and  C_44
   11  A    between atoms: C_28  and  C_30
   12  A    between atoms: C_32  and  C_34
   13  A    between atoms: C_34  and  C_39
                            x       y       z     vdW  Elec       q    Type
                         _______ _______ _______ _____ _____    ______ ____

>  <TORSDO>
F 13

$$$$
=
 OpenBabel11072410383D

 50 55  0  0  1  0  0  0  0  0999 V2000
  160.7530  207.4160  153.9520 C   0  0  0  0  0  3  0  0  0  0  0  0
  160.5930  208.2760  152.8610 C   0  0  0  0  0  0  0  0  0  0  0  0
  160.8780  207.9220  155.2080 N   0  0  0  0  0  0  0  0  0  0  0  0
  160.6900  210.1630  154.3840 C   0  0  0  0  0  0  0  0  0  0  0  0
  160.5570  209.6490  153.0860 C   0  0  0  0  0  3  0  0  0  0  0  0
  160.8520  209.2620  155.4490 C   0  0  0  0  0  0  0  0  0  0  0  0
  160.9890  209.7340  156.7880 N   0  0  0  0  0  1  0  0  0  0  0  0
  158.1710  213.9410  153.4620 N   0  0  0  0  0  0  0  0  0  0  0  0
  157.4400  214.2240  152.3070 N   0  0  0  0  0  0  0  0  0  0  0  0
  158.0800  213.7230  151.2940 C   0  0  0  0  0  0  0  0  0  0  0  0
  160.6630  211.6190  154.6230 C   0  0  0  0  0  3  0  0  0  0  0  0
  159.3110  213.2090  153.0550 C   0  0  0  0  0  0  0  0  0  0  0  0
  159.2760  213.0150  151.6500 N   0  0  0  0  0  2  0  0  0  0  0  0
  159.9940  212.4330  153.8510 C   0  0  0  0  0  0  0  0  0  0  0  0
  157.2560  212.3090  149.4060 C   0  0  0  0  0  2  0  0  0  0  0  0
  158.4250  214.3120  147.6670 C   0  0  0  0  0  3  0  0  0  0  0  0
  158.5230  214.4470  148.9950 C   0  0  0  0  0  3  0  0  0  0  0  0
  157.2720  212.1280  147.8720 C   0  0  0  0  0  2  0  0  0  0  0  0
  157.5390  213.7450  149.8970 C   0  0  2  0  0  0  0  0  0  0  0  0
  157.3370  213.4500  147.1020 C   0  0  0  0  0  2  0  0  0  0  0  0
  156.3460  214.4500  149.8830 F   0  0  0  0  0  0  0  0  0  0  0  0
  157.7490  214.2740  154.8180 C   0  0  0  0  0  2  0  0  0  0  0  0
  156.6900  211.0340  156.3140 N   0  0  0  0  0  2  0  0  0  0  0  0
  157.4570  212.2630  156.3300 C   0  0  0  0  0  2  0  0  0  0  0  0
  155.8610  210.9350  155.1730 C   0  0  0  0  0  0  0  0  0  0  0  0
  155.0620  209.9770  155.0190 O   0  0  0  0  0  0  0  0  0  0  0  0
  155.9410  212.2990  154.0390 S   0  0  0  0  0  0  0  0  0  0  0  0
  156.7730  213.2390  155.3710 C   0  0  2  0  0  3  0  0  0  0  0  0
  160.4490  207.7850  151.5280 N   0  0  0  0  0  2  0  0  0  0  0  0
  161.4300  207.9880  150.4720 C   0  0  1  0  0  3  0  0  0  0  0  0
  162.0600  209.3870  150.5790 C   0  0  0  0  0  2  0  0  0  0  0  0
  162.5180  212.6010  148.6990 C   0  0  0  0  0  2  0  0  0  0  0  0
  161.6370  212.3560  147.4720 C   0  0  0  0  0  2  0  0  0  0  0  0
  161.1410  210.9030  147.4080 C   0  0  0  0  0  2  0  0  0  0  0  0
  161.5560  210.4190  149.5640 C   0  0  2  0  0  3  0  0  0  0  0  0
  161.9030  210.0670  148.2440 O   0  0  0  0  0  0  0  0  0  0  0  0
  161.9980  211.8490  149.9260 C   0  0  0  0  0  2  0  0  0  0  0  0
  162.4120  206.9900  150.5350 O   0  0  0  0  0  0  0  0  0  0  0  0
  160.3460  205.1730  150.1700 O   0  0  0  0  0  0  0  0  0  0  0  0
  161.1590  205.3690  149.2270 C   0  0  0  0  0  0  0  0  0  0  0  0
  162.2590  206.2620  149.4010 N   0  0  0  0  0  2  0  0  0  0  0  0
  160.9920  204.6590  147.9170 C   0  0  2  0  0  3  0  0  0  0  0  0
  160.4950  201.2030  147.6270 C   0  0  0  0  0  2  0  0  0  0  0  0
  161.4900  202.5580  149.2120 C   0  0  0  0  0  2  0  0  0  0  0  0
  161.6850  203.2880  147.8930 C   0  0  1  0  0  3  0  0  0  0  0  0
  161.0400  202.3860  146.8590 C   0  0  0  0  0  2  0  0  0  0  0  0
  160.4320  201.5770  149.0290 N   0  0  0  0  0  2  0  0  0  0  0  0
  162.7830  205.4490  146.2310 C   0  0  0  0  0  1  0  0  0  0  0  0
  161.3970  205.5470  146.7690 C   0  0  0  0  0  0  0  0  0  0  0  0
  160.5360  206.3930  146.2010 C   0  0  0  0  0  2  0  0  0  0  0  0
  1  3  1  0  0  0  0
  2  5  1  0  0  0  0
  2  1  2  0  0  0  0
  3  6  2  0  0  0  0
  4 11  1  0  0  0  0
  4  6  1  0  0  0  0
  5  4  2  0  0  0  0
  6  7  1  0  0  0  0
  8 22  1  0  0  0  0
  9  8  1  0  0  0  0
 10 13  1  0  0  0  0
 10  9  2  0  0  0  0
 12  8  1  0  0  0  0
 12 14  2  0  0  0  0
 13 12  1  0  0  0  0
 14 11  2  0  0  0  0
 15 19  1  0  0  0  0
 16 17  2  0  0  0  0
 17 19  1  0  0  0  0
 18 15  1  0  0  0  0
 19 21  1  6  0  0  0
 19 10  1  0  0  0  0
 20 16  1  0  0  0  0
 20 18  1  0  0  0  0
 23 24  1  0  0  0  0
 25 23  1  0  0  0  0
 26 25  2  0  0  0  0
 27 25  1  0  0  0  0
 27 28  1  0  0  0  0
 28 22  1  6  0  0  0
 28 24  1  0  0  0  0
 29  2  1  0  0  0  0
 30 38  1  0  0  0  0
 30 31  1  1  0  0  0
 30 29  1  0  0  0  0
 32 37  1  0  0  0  0
 33 32  1  0  0  0  0
 34 33  1  0  0  0  0
 34 36  1  0  0  0  0
 35 37  1  0  0  0  0
 35 31  1  1  0  0  0
 36 35  1  0  0  0  0
 40 41  1  0  0  0  0
 40 39  2  0  0  0  0
 41 38  1  0  0  0  0
 42 49  1  6  0  0  0
 42 40  1  0  0  0  0
 43 47  1  0  0  0  0
 45 42  1  1  0  0  0
 45 44  1  0  0  0  0
 46 43  1  0  0  0  0
 46 45  1  0  0  0  0
 47 44  1  0  0  0  0
 48 49  1  0  0  0  0
 50 49  2  0  0  0  0
M  END
>  <MODEL>
3

>  <REMARK>
 VINA RESULT:      -5.4      1.617      2.493
  Name = 
  13 active torsions:
  status: ('A' for Active; 'I' for Inactive)
    1  A    between atoms: C_5  and  N_20
    2  A    between atoms: C_7  and  C_17
    3  A    between atoms: C_7  and  C_38
    4  A    between atoms: C_12  and  C_34
    5  A    between atoms: N_13  and  C_14
    6  A    between atoms: C_14  and  C_45
    7  A    between atoms: N_20  and  C_38
    8  A    between atoms: O_23  and  N_26
    9  A    between atoms: O_23  and  C_38
   10  A    between atoms: C_25  and  C_44
   11  A    between atoms: C_28  and  C_30
   12  A    between atoms: C_32  and  C_34
   13  A    between atoms: C_34  and  C_39
                            x       y       z     vdW  Elec       q    Type
                         _______ _______ _______ _____ _____    ______ ____

>  <TORSDO>
F 13

$$$$
=
 OpenBabel11072410383D

 50 55  0  0  1  0  0  0  0  0999 V2000
  158.7440  214.2060  145.2870 C   0  0  0  0  0  3  0  0  0  0  0  0
  159.6190  213.3410  144.6220 C   0  0  0  0  0  0  0  0  0  0  0  0
  158.9050  214.4530  146.6140 N   0  0  0  0  0  0  0  0  0  0  0  0
  160.8110  213.0060  146.7090 C   0  0  0  0  0  0  0  0  0  0  0  0
  160.6540  212.7490  145.3400 C   0  0  0  0  0  3  0  0  0  0  0  0
  159.9070  213.8790  147.3360 C   0  0  0  0  0  0  0  0  0  0  0  0
  160.0250  214.1750  148.7260 N   0  0  0  0  0  1  0  0  0  0  0  0
  161.5520  210.3310  150.4200 N   0  0  0  0  0  0  0  0  0  0  0  0
  160.8410  210.3140  151.6200 N   0  0  0  0  0  0  0  0  0  0  0  0
  160.4600  211.5290  151.8790 C   0  0  0  0  0  0  0  0  0  0  0  0
  161.9010  212.3700  147.4740 C   0  0  0  0  0  3  0  0  0  0  0  0
  161.5560  211.6710  149.9660 C   0  0  0  0  0  0  0  0  0  0  0  0
  160.8260  212.4840  150.8720 N   0  0  0  0  0  2  0  0  0  0  0  0
  161.7510  212.0140  148.7220 C   0  0  0  0  0  0  0  0  0  0  0  0
  159.0160  213.3050  152.8810 C   0  0  0  0  0  2  0  0  0  0  0  0
  159.9210  212.3030  155.4470 C   0  0  0  0  0  3  0  0  0  0  0  0
  160.3740  211.7440  154.3190 C   0  0  0  0  0  3  0  0  0  0  0  0
  158.6130  214.0000  154.2010 C   0  0  0  0  0  2  0  0  0  0  0  0
  159.5820  211.8770  153.0420 C   0  0  2  0  0  0  0  0  0  0  0  0
  158.6300  213.0650  155.4130 C   0  0  0  0  0  2  0  0  0  0  0  0
  158.5170  210.9920  153.0890 F   0  0  0  0  0  0  0  0  0  0  0  0
  162.0860  209.1510  149.7500 C   0  0  0  0  0  2  0  0  0  0  0  0
  161.9340  205.7290  151.2080 N   0  0  0  0  0  2  0  0  0  0  0  0
  162.3090  207.1280  151.2570 C   0  0  0  0  0  2  0  0  0  0  0  0
  161.2350  205.4040  150.0230 C   0  0  0  0  0  0  0  0  0  0  0  0
  160.7580  204.2560  149.8310 O   0  0  0  0  0  0  0  0  0  0  0  0
  160.9760  206.7420  148.8860 S   0  0  0  0  0  0  0  0  0  0  0  0
  161.4240  207.8720  150.2550 C   0  0  2  0  0  3  0  0  0  0  0  0
  159.4900  213.0620  143.2270 N   0  0  0  0  0  2  0  0  0  0  0  0
  159.1650  214.0630  142.2210 C   0  0  1  0  0  3  0  0  0  0  0  0
  159.9430  213.7980  140.9220 C   0  0  0  0  0  2  0  0  0  0  0  0
  160.8820  210.3230  139.8610 C   0  0  0  0  0  2  0  0  0  0  0  0
  162.4010  210.3570  140.0430 C   0  0  0  0  0  2  0  0  0  0  0  0
  162.9070  211.7760  140.3480 C   0  0  0  0  0  2  0  0  0  0  0  0
  160.9110  212.6090  140.9610 C   0  0  2  0  0  3  0  0  0  0  0  0
  161.9430  212.7430  140.0120 O   0  0  0  0  0  0  0  0  0  0  0  0
  160.1760  211.2620  140.8410 C   0  0  0  0  0  2  0  0  0  0  0  0
  157.7840  214.0710  141.9850 O   0  0  0  0  0  0  0  0  0  0  0  0
  155.3980  214.3020  140.5840 O   0  0  0  0  0  0  0  0  0  0  0  0
  156.4070  213.8270  139.9960 C   0  0  0  0  0  0  0  0  0  0  0  0
  157.6350  213.6530  140.7030 N   0  0  0  0  0  2  0  0  0  0  0  0
  156.3290  213.4290  138.5530 C   0  0  2  0  0  3  0  0  0  0  0  0
  152.9630  212.4740  138.3630 C   0  0  0  0  0  2  0  0  0  0  0  0
  154.7670  211.7690  139.6230 C   0  0  0  0  0  2  0  0  0  0  0  0
  155.3680  212.2540  138.3140 C   0  0  1  0  0  3  0  0  0  0  0  0
  154.1770  212.7030  137.4910 C   0  0  0  0  0  2  0  0  0  0  0  0
  153.4250  212.3190  139.7310 N   0  0  0  0  0  2  0  0  0  0  0  0
  158.5230  214.3630  137.5580 C   0  0  0  0  0  1  0  0  0  0  0  0
  157.7040  213.1940  137.9850 C   0  0  0  0  0  0  0  0  0  0  0  0
  158.2200  211.9670  137.8860 C   0  0  0  0  0  2  0  0  0  0  0  0
  1  3  1  0  0  0  0
  2  1  2  0  0  0  0
  2  5  1  0  0  0  0
  3  6  2  0  0  0  0
  4  6  1  0  0  0  0
  4 11  1  0  0  0  0
  5  4  2  0  0  0  0
  6  7  1  0  0  0  0
  8  9  1  0  0  0  0
  9 10  2  0  0  0  0
 10 19  1  0  0  0  0
 11 14  2  0  0  0  0
 12  8  1  0  0  0  0
 12 13  1  0  0  0  0
 13 10  1  0  0  0  0
 14 12  2  0  0  0  0
 15 19  1  0  0  0  0
 15 18  1  0  0  0  0
 17 16  2  0  0  0  0
 18 20  1  0  0  0  0
 19 21  1  1  0  0  0
 19 17  1  0  0  0  0
 20 16  1  0  0  0  0
 22  8  1  0  0  0  0
 23 24  1  0  0  0  0
 25 23  1  0  0  0  0
 26 25  2  0  0  0  0
 27 25  1  0  0  0  0
 27 28  1  0  0  0  0
 28 22  1  6  0  0  0
 28 24  1  0  0  0  0
 29  2  1  0  0  0  0
 30 31  1  6  0  0  0
 30 29  1  0  0  0  0
 32 33  1  0  0  0  0
 32 37  1  0  0  0  0
 33 34  1  0  0  0  0
 35 31  1  6  0  0  0
 36 34  1  0  0  0  0
 36 35  1  0  0  0  0
 37 35  1  0  0  0  0
 38 30  1  0  0  0  0
 40 39  2  0  0  0  0
 40 41  1  0  0  0  0
 41 38  1  0  0  0  0
 42 49  1  1  0  0  0
 42 40  1  0  0  0  0
 43 47  1  0  0  0  0
 44 47  1  0  0  0  0
 45 42  1  1  0  0  0
 45 44  1  0  0  0  0
 46 45  1  0  0  0  0
 46 43  1  0  0  0  0
 48 49  1  0  0  0  0
 50 49  2  0  0  0  0
M  END
>  <MODEL>
4

>  <REMARK>
 VINA RESULT:      -4.5      6.992     10.667
  Name = 
  13 active torsions:
  status: ('A' for Active; 'I' for Inactive)
    1  A    between atoms: C_5  and  N_20
    2  A    between atoms: C_7  and  C_17
    3  A    between atoms: C_7  and  C_38
    4  A    between atoms: C_12  and  C_34
    5  A    between atoms: N_13  and  C_14
    6  A    between atoms: C_14  and  C_45
    7  A    between atoms: N_20  and  C_38
    8  A    between atoms: O_23  and  N_26
    9  A    between atoms: O_23  and  C_38
   10  A    between atoms: C_25  and  C_44
   11  A    between atoms: C_28  and  C_30
   12  A    between atoms: C_32  and  C_34
   13  A    between atoms: C_34  and  C_39
                            x       y       z     vdW  Elec       q    Type
                         _______ _______ _______ _____ _____    ______ ____

>  <TORSDO>
F 13

$$$$
=
 OpenBabel11072410383D

 50 55  0  0  1  0  0  0  0  0999 V2000
  158.8330  213.9700  146.9260 C   0  0  0  0  0  3  0  0  0  0  0  0
  159.3260  213.1740  145.8870 C   0  0  0  0  0  0  0  0  0  0  0  0
  159.4380  213.9550  148.1440 N   0  0  0  0  0  0  0  0  0  0  0  0
  161.0620  212.3680  147.3810 C   0  0  0  0  0  0  0  0  0  0  0  0
  160.4450  212.3800  146.1210 C   0  0  0  0  0  3  0  0  0  0  0  0
  160.5300  213.1800  148.3960 C   0  0  0  0  0  0  0  0  0  0  0  0
  161.1210  213.2070  149.6920 N   0  0  0  0  0  1  0  0  0  0  0  0
  162.3130  208.4490  149.5130 N   0  0  0  0  0  0  0  0  0  0  0  0
  161.8090  207.9200  150.7010 N   0  0  0  0  0  0  0  0  0  0  0  0
  161.5140  208.9100  151.4890 C   0  0  0  0  0  0  0  0  0  0  0  0
  162.2410  211.5180  147.6340 C   0  0  0  0  0  3  0  0  0  0  0  0
  162.2870  209.8570  149.6470 C   0  0  0  0  0  0  0  0  0  0  0  0
  161.7410  210.2050  150.9110 N   0  0  0  0  0  2  0  0  0  0  0  0
  162.2860  210.6810  148.6360 C   0  0  0  0  0  0  0  0  0  0  0  0
  161.4530  209.6910  153.8610 C   0  0  0  0  0  2  0  0  0  0  0  0
  160.7850  206.9500  154.5290 C   0  0  0  0  0  3  0  0  0  0  0  0
  161.0030  207.2880  153.2530 C   0  0  0  0  0  3  0  0  0  0  0  0
  161.3160  209.2350  155.3310 C   0  0  0  0  0  2  0  0  0  0  0  0
  160.8500  208.7240  152.8190 C   0  0  2  0  0  0  0  0  0  0  0  0
  160.4030  208.0180  155.5090 C   0  0  0  0  0  2  0  0  0  0  0  0
  159.5000  209.0080  152.6960 F   0  0  0  0  0  0  0  0  0  0  0  0
  162.6920  207.6620  148.3440 C   0  0  0  0  0  2  0  0  0  0  0  0
  161.1710  204.2950  148.7960 N   0  0  0  0  0  2  0  0  0  0  0  0
  161.5910  205.5890  149.2950 C   0  0  0  0  0  2  0  0  0  0  0  0
  161.4080  204.1540  147.4100 C   0  0  0  0  0  0  0  0  0  0  0  0
  161.0410  203.1300  146.7780 O   0  0  0  0  0  0  0  0  0  0  0  0
  162.1490  205.5510  146.6050 S   0  0  0  0  0  0  0  0  0  0  0  0
  161.7070  206.5250  148.0900 C   0  0  2  0  0  3  0  0  0  0  0  0
  158.7260  213.1670  144.5920 N   0  0  0  0  0  2  0  0  0  0  0  0
  158.4600  214.3650  143.8080 C   0  0  1  0  0  3  0  0  0  0  0  0
  159.3330  214.3900  142.5430 C   0  0  0  0  0  2  0  0  0  0  0  0
  161.4410  211.8260  140.7930 C   0  0  0  0  0  2  0  0  0  0  0  0
  162.7630  211.9590  141.5530 C   0  0  0  0  0  2  0  0  0  0  0  0
  162.7530  213.1650  142.5050 C   0  0  0  0  0  2  0  0  0  0  0  0
  160.5200  213.4190  142.5390 C   0  0  2  0  0  3  0  0  0  0  0  0
  161.7210  214.0630  142.1800 O   0  0  0  0  0  0  0  0  0  0  0  0
  160.2430  212.1720  141.6800 C   0  0  0  0  0  2  0  0  0  0  0  0
  157.0990  214.4270  143.4790 O   0  0  0  0  0  0  0  0  0  0  0  0
  154.8360  213.6750  142.0580 O   0  0  0  0  0  0  0  0  0  0  0  0
  155.8600  214.0430  141.4220 C   0  0  0  0  0  0  0  0  0  0  0  0
  157.0540  214.3910  142.1230 N   0  0  0  0  0  2  0  0  0  0  0  0
  155.8440  214.1100  139.9250 C   0  0  2  0  0  3  0  0  0  0  0  0
  154.1370  211.8400  137.8730 C   0  0  0  0  0  2  0  0  0  0  0  0
  154.3940  214.1360  137.8670 C   0  0  0  0  0  2  0  0  0  0  0  0
  154.4770  213.7360  139.3300 C   0  0  1  0  0  3  0  0  0  0  0  0
  154.2960  212.2310  139.3250 C   0  0  0  0  0  2  0  0  0  0  0  0
  154.6180  212.9440  137.0630 N   0  0  0  0  0  2  0  0  0  0  0  0
  157.3350  212.0000  139.9440 C   0  0  0  0  0  1  0  0  0  0  0  0
  156.9820  213.3140  139.3390 C   0  0  0  0  0  0  0  0  0  0  0  0
  157.6580  213.7430  138.2710 C   0  0  0  0  0  2  0  0  0  0  0  0
  1  3  1  0  0  0  0
  2  5  1  0  0  0  0
  2  1  2  0  0  0  0
  3  6  2  0  0  0  0
  4 11  1  0  0  0  0
  4  6  1  0  0  0  0
  5  4  2  0  0  0  0
  6  7  1  0  0  0  0
  8 12  1  0  0  0  0
  8  9  1  0  0  0  0
  9 10  2  0  0  0  0
 10 19  1  0  0  0  0
 11 14  2  0  0  0  0
 12 13  1  0  0  0  0
 13 10  1  0  0  0  0
 14 12  2  0  0  0  0
 15 18  1  0  0  0  0
 16 20  1  0  0  0  0
 17 16  2  0  0  0  0
 18 20  1  0  0  0  0
 19 21  1  6  0  0  0
 19 17  1  0  0  0  0
 19 15  1  0  0  0  0
 22  8  1  0  0  0  0
 23 24  1  0  0  0  0
 25 23  1  0  0  0  0
 26 25  2  0  0  0  0
 27 25  1  0  0  0  0
 27 28  1  0  0  0  0
 28 22  1  1  0  0  0
 28 24  1  0  0  0  0
 29  2  1  0  0  0  0
 30 31  1  6  0  0  0
 30 29  1  0  0  0  0
 32 33  1  0  0  0  0
 32 37  1  0  0  0  0
 33 34  1  0  0  0  0
 35 31  1  6  0  0  0
 36 34  1  0  0  0  0
 36 35  1  0  0  0  0
 37 35  1  0  0  0  0
 38 30  1  0  0  0  0
 40 39  2  0  0  0  0
 40 41  1  0  0  0  0
 41 38  1  0  0  0  0
 42 49  1  6  0  0  0
 42 40  1  0  0  0  0
 43 46  1  0  0  0  0
 44 45  1  0  0  0  0
 45 42  1  6  0  0  0
 46 45  1  0  0  0  0
 47 44  1  0  0  0  0
 47 43  1  0  0  0  0
 49 48  1  0  0  0  0
 50 49  2  0  0  0  0
M  END
>  <MODEL>
5

>  <REMARK>
 VINA RESULT:      -4.4      6.553     10.936
  Name = 
  13 active torsions:
  status: ('A' for Active; 'I' for Inactive)
    1  A    between atoms: C_5  and  N_20
    2  A    between atoms: C_7  and  C_17
    3  A    between atoms: C_7  and  C_38
    4  A    between atoms: C_12  and  C_34
    5  A    between atoms: N_13  and  C_14
    6  A    between atoms: C_14  and  C_45
    7  A    between atoms: N_20  and  C_38
    8  A    between atoms: O_23  and  N_26
    9  A    between atoms: O_23  and  C_38
   10  A    between atoms: C_25  and  C_44
   11  A    between atoms: C_28  and  C_30
   12  A    between atoms: C_32  and  C_34
   13  A    between atoms: C_34  and  C_39
                            x       y       z     vdW  Elec       q    Type
                         _______ _______ _______ _____ _____    ______ ____

>  <TORSDO>
F 13

$$$$
=
 OpenBabel11072410383D

 50 55  0  0  1  0  0  0  0  0999 V2000
  162.3020  207.5260  149.8620 C   0  0  0  0  0  3  0  0  0  0  0  0
  162.2250  208.2550  148.6720 C   0  0  0  0  0  0  0  0  0  0  0  0
  162.1580  208.1540  151.0600 N   0  0  0  0  0  0  0  0  0  0  0  0
  161.8480  210.2670  149.9750 C   0  0  0  0  0  0  0  0  0  0  0  0
  161.9920  209.6260  148.7370 C   0  0  0  0  0  3  0  0  0  0  0  0
  161.9360  209.4950  151.1450 C   0  0  0  0  0  0  0  0  0  0  0  0
  161.7930  210.0990  152.4290 N   0  0  0  0  0  1  0  0  0  0  0  0
  159.7050  213.7050  147.7250 N   0  0  0  0  0  0  0  0  0  0  0  0
  159.5290  213.8500  146.3480 N   0  0  0  0  0  0  0  0  0  0  0  0
  160.5810  213.3700  145.7560 C   0  0  0  0  0  0  0  0  0  0  0  0
  161.6110  211.7230  150.0470 C   0  0  0  0  0  3  0  0  0  0  0  0
  160.9600  213.0780  147.9140 C   0  0  0  0  0  0  0  0  0  0  0  0
  161.5530  212.8110  146.6520 N   0  0  0  0  0  2  0  0  0  0  0  0
  161.2860  212.4200  148.9920 C   0  0  0  0  0  0  0  0  0  0  0  0
  160.0740  211.9440  143.7680 C   0  0  0  0  0  2  0  0  0  0  0  0
  162.5450  212.9760  142.6570 C   0  0  0  0  0  3  0  0  0  0  0  0
  162.1540  213.3620  143.8770 C   0  0  0  0  0  3  0  0  0  0  0  0
  160.6230  211.4300  142.4180 C   0  0  0  0  0  2  0  0  0  0  0  0
  160.7000  213.2640  144.2660 C   0  0  2  0  0  0  0  0  0  0  0  0
  161.5230  212.4400  141.7000 C   0  0  0  0  0  2  0  0  0  0  0  0
  160.0140  214.3160  143.6800 F   0  0  0  0  0  0  0  0  0  0  0  0
  158.7130  214.0580  148.7340 C   0  0  0  0  0  2  0  0  0  0  0  0
  157.8500  212.5630  152.0320 N   0  0  0  0  0  2  0  0  0  0  0  0
  157.6920  212.6780  150.5970 C   0  0  0  0  0  2  0  0  0  0  0  0
  158.8570  213.4210  152.5300 C   0  0  0  0  0  0  0  0  0  0  0  0
  159.1960  213.4090  153.7410 O   0  0  0  0  0  0  0  0  0  0  0  0
  159.6830  214.4260  151.3220 S   0  0  0  0  0  0  0  0  0  0  0  0
  158.9660  213.3250  150.0490 C   0  0  2  0  0  3  0  0  0  0  0  0
  162.3620  207.6320  147.3940 N   0  0  0  0  0  2  0  0  0  0  0  0
  161.5470  206.5150  146.9390 C   0  0  1  0  0  3  0  0  0  0  0  0
  161.3340  206.5840  145.4180 C   0  0  0  0  0  2  0  0  0  0  0  0
  160.9990  202.8480  145.3090 C   0  0  0  0  0  2  0  0  0  0  0  0
  159.6690  202.6910  144.5690 C   0  0  0  0  0  2  0  0  0  0  0  0
  158.9540  204.0390  144.3890 C   0  0  0  0  0  2  0  0  0  0  0  0
  160.7640  205.3160  144.7710 C   0  0  2  0  0  3  0  0  0  0  0  0
  159.4770  205.0130  145.2580 O   0  0  0  0  0  0  0  0  0  0  0  0
  161.7310  204.1240  144.8870 C   0  0  0  0  0  2  0  0  0  0  0  0
  162.1500  205.3040  147.3060 O   0  0  0  0  0  0  0  0  0  0  0  0
  162.2160  202.6420  148.0920 O   0  0  0  0  0  0  0  0  0  0  0  0
  161.4730  203.4440  148.7180 C   0  0  0  0  0  0  0  0  0  0  0  0
  161.3820  204.8090  148.3090 N   0  0  0  0  0  2  0  0  0  0  0  0
  160.6670  202.9770  149.8930 C   0  0  2  0  0  3  0  0  0  0  0  0
  160.6130  204.3580  153.1120 C   0  0  0  0  0  2  0  0  0  0  0  0
  162.0950  204.4590  151.3430 C   0  0  0  0  0  2  0  0  0  0  0  0
  161.4310  203.0980  151.2210 C   0  0  1  0  0  3  0  0  0  0  0  0
  160.4690  203.0360  152.3910 C   0  0  0  0  0  2  0  0  0  0  0  0
  161.2680  205.2860  152.2080 N   0  0  0  0  0  2  0  0  0  0  0  0
  158.6670  201.4360  149.3450 C   0  0  0  0  0  1  0  0  0  0  0  0
  160.1160  201.5960  149.6510 C   0  0  0  0  0  0  0  0  0  0  0  0
  160.9000  200.5160  149.6730 C   0  0  0  0  0  2  0  0  0  0  0  0
  1  3  1  0  0  0  0
  2  5  1  0  0  0  0
  2  1  2  0  0  0  0
  3  6  2  0  0  0  0
  4 11  1  0  0  0  0
  4  6  1  0  0  0  0
  5  4  2  0  0  0  0
  6  7  1  0  0  0  0
  8 12  1  0  0  0  0
  8 22  1  0  0  0  0
  9  8  1  0  0  0  0
 10  9  2  0  0  0  0
 10 13  1  0  0  0  0
 12 14  2  0  0  0  0
 13 12  1  0  0  0  0
 14 11  2  0  0  0  0
 15 19  1  0  0  0  0
 16 17  2  0  0  0  0
 17 19  1  0  0  0  0
 18 15  1  0  0  0  0
 19 21  1  6  0  0  0
 19 10  1  0  0  0  0
 20 18  1  0  0  0  0
 20 16  1  0  0  0  0
 23 25  1  0  0  0  0
 24 23  1  0  0  0  0
 25 26  2  0  0  0  0
 27 25  1  0  0  0  0
 28 22  1  6  0  0  0
 28 24  1  0  0  0  0
 28 27  1  0  0  0  0
 29  2  1  0  0  0  0
 30 31  1  6  0  0  0
 30 38  1  0  0  0  0
 30 29  1  0  0  0  0
 33 32  1  0  0  0  0
 34 33  1  0  0  0  0
 34 36  1  0  0  0  0
 35 37  1  0  0  0  0
 35 36  1  0  0  0  0
 35 31  1  1  0  0  0
 37 32  1  0  0  0  0
 38 41  1  0  0  0  0
 39 40  2  0  0  0  0
 41 40  1  0  0  0  0
 42 40  1  6  0  0  0
 44 47  1  0  0  0  0
 45 42  1  6  0  0  0
 45 44  1  0  0  0  0
 45 46  1  0  0  0  0
 46 43  1  0  0  0  0
 47 43  1  0  0  0  0
 48 49  1  0  0  0  0
 49 50  2  0  0  0  0
 49 42  1  0  0  0  0
M  END
>  <MODEL>
6

>  <REMARK>
 VINA RESULT:      -4.1      3.548      6.013
  Name = 
  13 active torsions:
  status: ('A' for Active; 'I' for Inactive)
    1  A    between atoms: C_5  and  N_20
    2  A    between atoms: C_7  and  C_17
    3  A    between atoms: C_7  and  C_38
    4  A    between atoms: C_12  and  C_34
    5  A    between atoms: N_13  and  C_14
    6  A    between atoms: C_14  and  C_45
    7  A    between atoms: N_20  and  C_38
    8  A    between atoms: O_23  and  N_26
    9  A    between atoms: O_23  and  C_38
   10  A    between atoms: C_25  and  C_44
   11  A    between atoms: C_28  and  C_30
   12  A    between atoms: C_32  and  C_34
   13  A    between atoms: C_34  and  C_39
                            x       y       z     vdW  Elec       q    Type
                         _______ _______ _______ _____ _____    ______ ____

>  <TORSDO>
F 13

$$$$
=
 OpenBabel11072410383D

 50 55  0  0  1  0  0  0  0  0999 V2000
  160.7580  207.1930  153.6250 C   0  0  0  0  0  3  0  0  0  0  0  0
  160.6620  207.9880  152.4790 C   0  0  0  0  0  0  0  0  0  0  0  0
  160.7770  207.7700  154.8570 N   0  0  0  0  0  0  0  0  0  0  0  0
  160.6050  209.9570  153.8950 C   0  0  0  0  0  0  0  0  0  0  0  0
  160.5810  209.3700  152.6230 C   0  0  0  0  0  3  0  0  0  0  0  0
  160.7050  209.1210  155.0190 C   0  0  0  0  0  0  0  0  0  0  0  0
  160.7300  209.6680  156.3350 N   0  0  0  0  0  1  0  0  0  0  0  0
  158.8820  213.7340  151.8350 N   0  0  0  0  0  0  0  0  0  0  0  0
  158.7400  213.9760  150.4690 N   0  0  0  0  0  0  0  0  0  0  0  0
  159.7400  213.4170  149.8550 C   0  0  0  0  0  0  0  0  0  0  0  0
  160.5290  211.4230  154.0500 C   0  0  0  0  0  3  0  0  0  0  0  0
  160.0580  212.9630  151.9950 C   0  0  0  0  0  0  0  0  0  0  0  0
  160.6340  212.7040  150.7240 N   0  0  0  0  0  2  0  0  0  0  0  0
  160.2960  212.2120  153.0350 C   0  0  0  0  0  0  0  0  0  0  0  0
  158.4920  213.6260  147.7010 C   0  0  0  0  0  2  0  0  0  0  0  0
  160.3590  211.6630  146.6690 C   0  0  0  0  0  3  0  0  0  0  0  0
  160.4490  212.0580  147.9430 C   0  0  0  0  0  3  0  0  0  0  0  0
  158.3450  213.0530  146.2740 C   0  0  0  0  0  2  0  0  0  0  0  0
  159.8660  213.3840  148.3630 C   0  0  2  0  0  0  0  0  0  0  0  0
  159.6630  212.5490  145.6800 C   0  0  0  0  0  2  0  0  0  0  0  0
  160.7250  214.3930  147.9570 F   0  0  0  0  0  0  0  0  0  0  0  0
  157.9220  214.1360  152.8570 C   0  0  0  0  0  2  0  0  0  0  0  0
  156.0360  211.7210  154.9710 N   0  0  0  0  0  2  0  0  0  0  0  0
  156.4390  212.2590  153.6860 C   0  0  0  0  0  2  0  0  0  0  0  0
  156.6510  212.3960  156.0490 C   0  0  0  0  0  0  0  0  0  0  0  0
  156.4870  212.0250  157.2400 O   0  0  0  0  0  0  0  0  0  0  0  0
  157.7480  213.7200  155.6090 S   0  0  0  0  0  0  0  0  0  0  0  0
  157.7320  213.0460  153.9080 C   0  0  2  0  0  3  0  0  0  0  0  0
  160.6300  207.4210  151.1680 N   0  0  0  0  0  2  0  0  0  0  0  0
  161.7940  207.2970  150.3030 C   0  0  1  0  0  3  0  0  0  0  0  0
  162.2480  205.8310  150.2110 C   0  0  0  0  0  2  0  0  0  0  0  0
  160.9030  202.3370  150.4680 C   0  0  0  0  0  2  0  0  0  0  0  0
  160.4160  202.3120  151.9180 C   0  0  0  0  0  2  0  0  0  0  0  0
  160.8540  203.5680  152.6880 C   0  0  0  0  0  2  0  0  0  0  0  0
  161.3160  204.8080  150.8710 C   0  0  2  0  0  3  0  0  0  0  0  0
  161.8950  204.2370  152.0210 O   0  0  0  0  0  0  0  0  0  0  0  0
  160.8260  203.7440  149.8710 C   0  0  0  0  0  2  0  0  0  0  0  0
  161.5020  207.8120  149.0330 O   0  0  0  0  0  0  0  0  0  0  0  0
  160.4300  207.1570  146.5570 O   0  0  0  0  0  0  0  0  0  0  0  0
  161.5610  206.6990  146.8720 C   0  0  0  0  0  0  0  0  0  0  0  0
  162.1180  206.9790  148.1560 N   0  0  0  0  0  2  0  0  0  0  0  0
  162.3310  205.8440  145.9100 C   0  0  2  0  0  3  0  0  0  0  0  0
  159.4030  204.3160  144.7420 C   0  0  0  0  0  2  0  0  0  0  0  0
  161.6550  204.0030  144.3320 C   0  0  0  0  0  2  0  0  0  0  0  0
  161.5170  205.4810  144.6590 C   0  0  1  0  0  3  0  0  0  0  0  0
  160.0360  205.6780  144.9150 C   0  0  0  0  0  2  0  0  0  0  0  0
  160.4620  203.3250  144.8110 N   0  0  0  0  0  2  0  0  0  0  0  0
  162.0170  203.7570  147.3990 C   0  0  0  0  0  1  0  0  0  0  0  0
  162.9150  204.6420  146.6060 C   0  0  0  0  0  0  0  0  0  0  0  0
  164.2090  204.3330  146.5030 C   0  0  0  0  0  2  0  0  0  0  0  0
  1  3  1  0  0  0  0
  2  5  1  0  0  0  0
  2  1  2  0  0  0  0
  3  6  2  0  0  0  0
  4 11  1  0  0  0  0
  4  6  1  0  0  0  0
  5  4  2  0  0  0  0
  6  7  1  0  0  0  0
  8 12  1  0  0  0  0
  8 22  1  0  0  0  0
  9  8  1  0  0  0  0
 10  9  2  0  0  0  0
 10 13  1  0  0  0  0
 12 14  2  0  0  0  0
 13 12  1  0  0  0  0
 14 11  2  0  0  0  0
 15 19  1  0  0  0  0
 16 17  2  0  0  0  0
 17 19  1  0  0  0  0
 18 15  1  0  0  0  0
 19 21  1  6  0  0  0
 19 10  1  0  0  0  0
 20 18  1  0  0  0  0
 20 16  1  0  0  0  0
 23 25  1  0  0  0  0
 24 28  1  0  0  0  0
 24 23  1  0  0  0  0
 25 26  2  0  0  0  0
 27 25  1  0  0  0  0
 28 22  1  6  0  0  0
 28 27  1  0  0  0  0
 29  2  1  0  0  0  0
 30 31  1  6  0  0  0
 30 29  1  0  0  0  0
 32 33  1  0  0  0  0
 33 34  1  0  0  0  0
 35 31  1  6  0  0  0
 35 36  1  0  0  0  0
 36 34  1  0  0  0  0
 37 32  1  0  0  0  0
 37 35  1  0  0  0  0
 38 30  1  0  0  0  0
 39 40  2  0  0  0  0
 40 41  1  0  0  0  0
 41 38  1  0  0  0  0
 42 49  1  1  0  0  0
 42 40  1  0  0  0  0
 43 47  1  0  0  0  0
 43 46  1  0  0  0  0
 44 45  1  0  0  0  0
 44 47  1  0  0  0  0
 45 46  1  0  0  0  0
 45 42  1  1  0  0  0
 49 48  1  0  0  0  0
 50 49  2  0  0  0  0
M  END
>  <MODEL>
7

>  <REMARK>
 VINA RESULT:      -3.9      2.059      3.619
  Name = 
  13 active torsions:
  status: ('A' for Active; 'I' for Inactive)
    1  A    between atoms: C_5  and  N_20
    2  A    between atoms: C_7  and  C_17
    3  A    between atoms: C_7  and  C_38
    4  A    between atoms: C_12  and  C_34
    5  A    between atoms: N_13  and  C_14
    6  A    between atoms: C_14  and  C_45
    7  A    between atoms: N_20  and  C_38
    8  A    between atoms: O_23  and  N_26
    9  A    between atoms: O_23  and  C_38
   10  A    between atoms: C_25  and  C_44
   11  A    between atoms: C_28  and  C_30
   12  A    between atoms: C_32  and  C_34
   13  A    between atoms: C_34  and  C_39
                            x       y       z     vdW  Elec       q    Type
                         _______ _______ _______ _____ _____    ______ ____

>  <TORSDO>
F 13

$$$$
=
 OpenBabel11072410383D

 50 55  0  0  1  0  0  0  0  0999 V2000
  160.5000  212.4870  151.2300 C   0  0  0  0  0  3  0  0  0  0  0  0
  161.1650  211.3790  151.7640 C   0  0  0  0  0  0  0  0  0  0  0  0
  160.5250  212.7190  149.8900 N   0  0  0  0  0  0  0  0  0  0  0  0
  161.8670  210.7700  149.5210 C   0  0  0  0  0  0  0  0  0  0  0  0
  161.8420  210.5210  150.9010 C   0  0  0  0  0  3  0  0  0  0  0  0
  161.1870  211.8970  149.0300 C   0  0  0  0  0  0  0  0  0  0  0  0
  161.1790  212.1920  147.6360 N   0  0  0  0  0  1  0  0  0  0  0  0
  161.6290  206.5310  147.6640 N   0  0  0  0  0  0  0  0  0  0  0  0
  161.1310  205.3660  148.2480 N   0  0  0  0  0  0  0  0  0  0  0  0
  161.4090  205.4010  149.5160 C   0  0  0  0  0  0  0  0  0  0  0  0
  162.5940  209.8680  148.6060 C   0  0  0  0  0  3  0  0  0  0  0  0
  162.2270  207.2860  148.7020 C   0  0  0  0  0  0  0  0  0  0  0  0
  162.0780  206.6000  149.9360 N   0  0  0  0  0  2  0  0  0  0  0  0
  162.4260  208.5730  148.6380 C   0  0  0  0  0  0  0  0  0  0  0  0
  161.9160  204.2450  151.6730 C   0  0  0  0  0  2  0  0  0  0  0  0
  160.7050  201.9050  150.4640 C   0  0  0  0  0  3  0  0  0  0  0  0
  160.7960  203.0410  149.7640 C   0  0  0  0  0  3  0  0  0  0  0  0
  161.9020  202.8820  152.4010 C   0  0  0  0  0  2  0  0  0  0  0  0
  160.9370  204.3580  150.4840 C   0  0  2  0  0  0  0  0  0  0  0  0
  160.7570  201.9660  151.9610 C   0  0  0  0  0  2  0  0  0  0  0  0
  159.6970  204.7270  150.9790 F   0  0  0  0  0  0  0  0  0  0  0  0
  161.4550  206.9020  146.2650 C   0  0  0  0  0  2  0  0  0  0  0  0
  159.7680  204.0240  144.6150 N   0  0  0  0  0  2  0  0  0  0  0  0
  159.9020  205.4380  144.9030 C   0  0  0  0  0  2  0  0  0  0  0  0
  160.7830  203.2550  145.2270 C   0  0  0  0  0  0  0  0  0  0  0  0
  160.8820  202.0160  145.0320 O   0  0  0  0  0  0  0  0  0  0  0  0
  161.9670  204.1620  146.1900 S   0  0  0  0  0  0  0  0  0  0  0  0
  161.3400  205.6730  145.3680 C   0  0  2  0  0  3  0  0  0  0  0  0
  161.1550  211.0930  153.1630 N   0  0  0  0  0  2  0  0  0  0  0  0
  160.1400  211.5760  154.0880 C   0  0  1  0  0  3  0  0  0  0  0  0
  160.5920  211.3740  155.5430 C   0  0  0  0  0  2  0  0  0  0  0  0
  160.4380  207.6970  154.8140 C   0  0  0  0  0  2  0  0  0  0  0  0
  161.2610  207.1290  155.9730 C   0  0  0  0  0  2  0  0  0  0  0  0
  161.9550  208.2400  156.7750 C   0  0  0  0  0  2  0  0  0  0  0  0
  160.6660  209.9180  156.0170 C   0  0  2  0  0  3  0  0  0  0  0  0
  161.9920  209.4450  156.0520 O   0  0  0  0  0  0  0  0  0  0  0  0
  159.7350  208.9980  155.2060 C   0  0  0  0  0  2  0  0  0  0  0  0
  159.8630  212.9260  153.8310 O   0  0  0  0  0  0  0  0  0  0  0  0
  158.6600  214.4420  155.8220 O   0  0  0  0  0  0  0  0  0  0  0  0
  157.9320  213.8720  154.9650 C   0  0  0  0  0  0  0  0  0  0  0  0
  158.5180  213.0480  153.9570 N   0  0  0  0  0  2  0  0  0  0  0  0
  156.4430  214.0420  154.9970 C   0  0  2  0  0  3  0  0  0  0  0  0
  156.8150  210.8760  156.4520 C   0  0  0  0  0  2  0  0  0  0  0  0
  155.3510  211.7750  154.9080 C   0  0  0  0  0  2  0  0  0  0  0  0
  155.7390  212.9390  155.8040 C   0  0  1  0  0  3  0  0  0  0  0  0
  156.6900  212.3370  156.8200 C   0  0  0  0  0  2  0  0  0  0  0  0
  156.3360  210.7200  155.0910 N   0  0  0  0  0  2  0  0  0  0  0  0
  154.4150  214.3130  153.4200 C   0  0  0  0  0  1  0  0  0  0  0  0
  155.8890  214.2020  153.6060 C   0  0  0  0  0  0  0  0  0  0  0  0
  156.6870  214.2790  152.5390 C   0  0  0  0  0  2  0  0  0  0  0  0
  1  2  1  0  0  0  0
  2 29  1  0  0  0  0
  3  1  2  0  0  0  0
  4  5  1  0  0  0  0
  5  2  2  0  0  0  0
  6  4  2  0  0  0  0
  6  3  1  0  0  0  0
  7  6  1  0  0  0  0
  8  9  1  0  0  0  0
  8 12  1  0  0  0  0
  9 10  2  0  0  0  0
 10 13  1  0  0  0  0
 10 19  1  0  0  0  0
 11 14  2  0  0  0  0
 11  4  1  0  0  0  0
 12 13  1  0  0  0  0
 14 12  2  0  0  0  0
 15 18  1  0  0  0  0
 16 20  1  0  0  0  0
 17 16  2  0  0  0  0
 17 19  1  0  0  0  0
 19 21  1  1  0  0  0
 19 15  1  0  0  0  0
 20 18  1  0  0  0  0
 22  8  1  0  0  0  0
 23 24  1  0  0  0  0
 23 25  1  0  0  0  0
 24 28  1  0  0  0  0
 25 27  1  0  0  0  0
 26 25  2  0  0  0  0
 28 27  1  0  0  0  0
 28 22  1  1  0  0  0
 29 30  1  0  0  0  0
 30 31  1  1  0  0  0
 32 37  1  0  0  0  0
 32 33  1  0  0  0  0
 33 34  1  0  0  0  0
 35 31  1  6  0  0  0
 35 36  1  0  0  0  0
 36 34  1  0  0  0  0
 37 35  1  0  0  0  0
 38 41  1  0  0  0  0
 38 30  1  0  0  0  0
 40 42  1  0  0  0  0
 40 39  2  0  0  0  0
 41 40  1  0  0  0  0
 42 49  1  6  0  0  0
 43 46  1  0  0  0  0
 44 47  1  0  0  0  0
 44 45  1  0  0  0  0
 45 42  1  6  0  0  0
 45 46  1  0  0  0  0
 47 43  1  0  0  0  0
 48 49  1  0  0  0  0
 50 49  2  0  0  0  0
M  END
>  <MODEL>
8

>  <REMARK>
 VINA RESULT:      -3.6      3.558     10.796
  Name = 
  13 active torsions:
  status: ('A' for Active; 'I' for Inactive)
    1  A    between atoms: C_5  and  N_20
    2  A    between atoms: C_7  and  C_17
    3  A    between atoms: C_7  and  C_38
    4  A    between atoms: C_12  and  C_34
    5  A    between atoms: N_13  and  C_14
    6  A    between atoms: C_14  and  C_45
    7  A    between atoms: N_20  and  C_38
    8  A    between atoms: O_23  and  N_26
    9  A    between atoms: O_23  and  C_38
   10  A    between atoms: C_25  and  C_44
   11  A    between atoms: C_28  and  C_30
   12  A    between atoms: C_32  and  C_34
   13  A    between atoms: C_34  and  C_39
                            x       y       z     vdW  Elec       q    Type
                         _______ _______ _______ _____ _____    ______ ____

>  <TORSDO>
F 13

$$$$
