=
 OpenBabel11072414423D

 60 63  0  0  1  0  0  0  0  0999 V2000
  162.6550  210.1310  147.8740 C   0  0  0  0  0  2  0  0  0  0  0  0
  164.1670  212.1520  146.5040 C   0  0  0  0  0  1  0  0  0  0  0  0
  163.0200  206.9550  151.9160 O   0  0  0  0  0  0  0  0  0  0  0  0
  158.7710  212.2410  150.7640 C   0  0  0  0  0  3  0  0  0  0  0  0
  162.9130  212.3490  147.3460 C   0  0  1  0  0  3  0  0  0  0  0  0
  158.3300  212.1550  151.9950 C   0  0  0  0  0  0  0  0  0  0  0  0
  161.8450  208.1340  154.8550 C   0  0  2  0  0  3  0  0  0  0  0  0
  162.0310  211.2460  147.2830 O   0  0  0  0  0  0  0  0  0  0  0  0
  157.8960  212.0690  153.2260 C   0  0  0  0  0  0  0  0  0  0  0  0
  161.0460  210.3830  155.8790 C   0  0  1  0  0  3  0  0  0  0  0  0
  161.4220  208.0960  150.7030 O   0  0  0  0  0  0  0  0  0  0  0  0
  159.6050  210.5600  156.3310 C   0  0  0  0  0  2  0  0  0  0  0  0
  161.6370  209.3160  148.6450 C   0  0  1  0  0  3  0  0  0  0  0  0
  161.8750  211.2290  156.5950 F   0  0  0  0  0  0  0  0  0  0  0  0
  160.6610  208.0560  153.8880 C   0  0  0  0  0  2  0  0  0  0  0  0
  161.4810  208.9590  156.0490 C   0  0  0  0  0  0  0  0  0  0  0  0
  161.0590  208.3840  147.7860 O   0  0  0  0  0  1  0  0  0  0  0  0
  162.1080  213.5550  149.3910 C   0  0  0  0  0  2  0  0  0  0  0  0
  161.8180  207.3230  151.7910 C   0  0  0  0  0  0  0  0  0  0  0  0
  159.7350  213.2920  150.2810 C   0  0  2  0  0  0  0  0  0  0  0  0
  161.5610  208.4680  157.1650 O   0  0  0  0  0  0  0  0  0  0  0  0
  162.9520  208.7010  154.2230 O   0  0  0  0  0  1  0  0  0  0  0  0
  161.0630  212.6010  149.9620 C   0  0  0  0  0  2  0  0  0  0  0  0
  158.4960  211.0350  154.1290 C   0  0  1  0  0  3  0  0  0  0  0  0
  162.3580  208.5790  149.7530 C   0  0  0  0  0  2  0  0  0  0  0  0
  159.9570  214.3990  151.3120 C   0  0  0  0  0  1  0  0  0  0  0  0
  158.9100  211.6140  155.4830 C   0  0  0  0  0  2  0  0  0  0  0  0
  163.2570  212.7810  148.7720 C   0  0  0  0  0  2  0  0  0  0  0  0
  160.8070  206.9610  152.8310 C   0  0  1  0  0  3  0  0  0  0  0  0
  159.1760  213.8910  149.0330 C   0  0  0  0  0  0  0  0  0  0  0  0
  158.1130  214.4520  148.3710 O   0  0  0  0  0  0  0  0  0  0  0  0
  159.3260  214.2960  147.7470 C   0  0  0  0  0  0  0  0  0  0  0  0
  159.2960  212.5420  145.5480 O   0  0  0  0  0  0  0  0  0  0  0  0
  160.1390  214.4530  146.5880 N   0  0  0  0  0  2  0  0  0  0  0  0
  160.0570  213.5440  145.4890 C   0  0  0  0  0  0  0  0  0  0  0  0
  160.8530  213.7730  144.3270 N   0  0  0  0  0  2  0  0  0  0  0  0
  160.8490  213.6660  141.9090 C   0  0  0  0  0  2  0  0  0  0  0  0
  159.5550  213.0680  142.4110 C   0  0  0  0  0  2  0  0  0  0  0  0
  160.8320  212.8630  143.1940 C   0  0  0  0  0  3  0  0  0  0  0  0
  157.6690  209.8970  154.2490 O   0  0  0  0  0  0  0  0  0  0  0  0
  156.5820  210.2740  154.8960 O   0  0  0  0  0  1  0  0  0  0  0  0
  161.0930  205.7210  153.4170 O   0  0  0  0  0  0  0  0  0  0  0  0
  159.5140  204.0920  153.5370 F   0  0  0  0  0  0  0  0  0  0  0  0
  160.3480  204.7910  152.6780 C   0  0  2  0  0  3  0  0  0  0  0  0
  161.0030  202.5360  152.3920 F   0  0  0  0  0  0  0  0  0  0  0  0
  161.2670  203.8170  151.9390 C   0  0  0  0  0  0  0  0  0  0  0  0
  162.5920  204.1200  152.2110 F   0  0  0  0  0  0  0  0  0  0  0  0
  160.0580  202.9370  150.0620 F   0  0  0  0  0  0  0  0  0  0  0  0
  161.0180  203.8580  150.4310 C   0  0  0  0  0  3  0  0  0  0  0  0
  160.5960  205.1200  150.0590 F   0  0  0  0  0  0  0  0  0  0  0  0
  156.8800  212.9050  153.7120 O   0  0  0  0  0  0  0  0  0  0  0  0
  156.3630  214.2030  157.2140 C   0  0  0  0  0  2  0  0  0  0  0  0
  156.4150  212.9020  155.0620 C   0  0  1  0  0  3  0  0  0  0  0  0
  156.8550  214.1910  155.7660 C   0  0  2  0  0  3  0  0  0  0  0  0
  154.8420  214.0620  157.2610 C   0  0  0  0  0  2  0  0  0  0  0  0
  154.4050  212.7830  156.5530 C   0  0  0  0  0  2  0  0  0  0  0  0
  154.8890  212.7950  155.1060 C   0  0  0  0  0  2  0  0  0  0  0  0
  159.0530  214.4510  156.9080 O   0  0  0  0  0  1  0  0  0  0  0  0
  158.3400  214.3650  155.7180 C   0  0  0  0  0  0  0  0  0  0  0  0
  158.9470  214.4520  154.6160 O   0  0  0  0  0  0  0  0  0  0  0  0
  1 13  1  0  0  0  0
  4  6  2  0  0  0  0
  5  2  1  1  0  0  0
  5 28  1  0  0  0  0
  6  9  2  0  0  0  0
  7 22  1  6  0  0  0
  7 16  1  0  0  0  0
  8  5  1  0  0  0  0
  8  1  1  0  0  0  0
  9 51  1  0  0  0  0
  9 24  1  0  0  0  0
 10 16  1  0  0  0  0
 10 12  1  0  0  0  0
 10 14  1  1  0  0  0
 11 19  1  0  0  0  0
 13 17  1  6  0  0  0
 13 25  1  0  0  0  0
 15  7  1  0  0  0  0
 16 21  2  0  0  0  0
 18 23  1  0  0  0  0
 19  3  2  0  0  0  0
 19 29  1  0  0  0  0
 20  4  1  0  0  0  0
 20 26  1  1  0  0  0
 23 20  1  0  0  0  0
 24 40  1  1  0  0  0
 24 27  1  0  0  0  0
 25 11  1  0  0  0  0
 27 12  1  0  0  0  0
 28 18  1  0  0  0  0
 29 42  1  1  0  0  0
 29 15  1  0  0  0  0
 30 20  1  0  0  0  0
 31 30  1  0  0  0  0
 32 31  1  0  0  0  0
 32 30  2  0  0  0  0
 34 32  1  0  0  0  0
 35 33  2  0  0  0  0
 35 34  1  0  0  0  0
 36 35  1  0  0  0  0
 37 38  1  0  0  0  0
 37 39  1  0  0  0  0
 38 39  1  0  0  0  0
 39 36  1  0  0  0  0
 40 41  1  0  0  0  0
 44 42  1  0  0  0  0
 44 43  1  1  0  0  0
 46 47  1  0  0  0  0
 46 45  1  0  0  0  0
 46 44  1  0  0  0  0
 48 49  1  0  0  0  0
 49 46  1  0  0  0  0
 50 49  1  0  0  0  0
 52 55  1  0  0  0  0
 53 51  1  6  0  0  0
 53 57  1  0  0  0  0
 53 54  1  0  0  0  0
 54 59  1  1  0  0  0
 54 52  1  0  0  0  0
 56 55  1  0  0  0  0
 57 56  1  0  0  0  0
 59 58  1  0  0  0  0
 60 59  2  0  0  0  0
M  END
>  <MODEL>
1

>  <REMARK>
 VINA RESULT:       2.9      0.000      0.000
  Name = 
  11 active torsions:
  status: ('A' for Active; 'I' for Inactive)
    1  A    between atoms: C_6  and  O_39
    2  A    between atoms: C_13  and  O_39
    3  A    between atoms: O_17  and  C_48
    4  A    between atoms: C_20  and  C_44
    5  A    between atoms: C_21  and  C_34
    6  A    between atoms: O_25  and  C_28
    7  A    between atoms: O_25  and  C_60
    8  A    between atoms: C_28  and  C_34
    9  A    between atoms: C_33  and  C_38
   10  A    between atoms: N_40  and  C_57
   11  A    between atoms: C_53  and  N_55
                            x       y       z     vdW  Elec       q    Type
                         _______ _______ _______ _____ _____    ______ ____

>  <TORSDO>
F 11

$$$$
=
 OpenBabel11072414423D

 60 63  0  0  1  0  0  0  0  0999 V2000
  158.9980  210.6820  154.7490 C   0  0  0  0  0  2  0  0  0  0  0  0
  160.1770  209.9370  157.2590 C   0  0  0  0  0  1  0  0  0  0  0  0
  159.2070  214.4350  151.2220 O   0  0  0  0  0  0  0  0  0  0  0  0
  160.9140  207.7860  150.7700 C   0  0  0  0  0  3  0  0  0  0  0  0
  160.3890  209.2710  155.9050 C   0  0  1  0  0  3  0  0  0  0  0  0
  161.4310  208.0000  149.5850 C   0  0  0  0  0  0  0  0  0  0  0  0
  161.4050  213.9910  148.6960 C   0  0  2  0  0  3  0  0  0  0  0  0
  159.2450  209.3360  155.0760 O   0  0  0  0  0  0  0  0  0  0  0  0
  161.9490  208.2170  148.4040 C   0  0  0  0  0  0  0  0  0  0  0  0
  163.3760  212.4190  148.0740 C   0  0  1  0  0  3  0  0  0  0  0  0
  158.7690  212.1740  151.3740 O   0  0  0  0  0  0  0  0  0  0  0  0
  163.2780  211.4930  146.8730 C   0  0  0  0  0  2  0  0  0  0  0  0
  158.5120  210.7860  153.3180 C   0  0  1  0  0  3  0  0  0  0  0  0
  164.7010  212.7240  148.3320 F   0  0  0  0  0  0  0  0  0  0  0  0
  160.3690  212.8700  148.6020 C   0  0  0  0  0  2  0  0  0  0  0  0
  162.5890  213.6720  147.8390 C   0  0  0  0  0  0  0  0  0  0  0  0
  157.1250  210.6540  153.3000 O   0  0  0  0  0  1  0  0  0  0  0  0
  162.2030  208.7300  154.2630 C   0  0  0  0  0  2  0  0  0  0  0  0
  158.9880  213.3360  150.6380 C   0  0  0  0  0  0  0  0  0  0  0  0
  161.7250  207.6060  152.0260 C   0  0  2  0  0  0  0  0  0  0  0  0
  162.9200  214.4520  146.9580 O   0  0  0  0  0  0  0  0  0  0  0  0
  161.8230  214.1560  150.0170 O   0  0  0  0  0  1  0  0  0  0  0  0
  161.4890  208.8270  152.9180 C   0  0  0  0  0  2  0  0  0  0  0  0
  161.9370  209.6130  147.8600 C   0  0  1  0  0  3  0  0  0  0  0  0
  158.8810  212.1560  152.7880 C   0  0  0  0  0  2  0  0  0  0  0  0
  163.2190  207.4490  151.7410 C   0  0  0  0  0  1  0  0  0  0  0  0
  163.3030  210.0390  147.3210 C   0  0  0  0  0  2  0  0  0  0  0  0
  161.6670  209.7690  155.2300 C   0  0  0  0  0  2  0  0  0  0  0  0
  158.9940  213.2600  149.1460 C   0  0  1  0  0  3  0  0  0  0  0  0
  161.2280  206.3820  152.7230 C   0  0  0  0  0  0  0  0  0  0  0  0
  160.8980  205.7470  153.8940 O   0  0  0  0  0  0  0  0  0  0  0  0
  160.7600  205.1090  152.6850 C   0  0  0  0  0  0  0  0  0  0  0  0
  161.5370  204.6210  150.0250 O   0  0  0  0  0  0  0  0  0  0  0  0
  160.3900  203.9510  151.9440 N   0  0  0  0  0  2  0  0  0  0  0  0
  160.8410  203.7440  150.6040 C   0  0  0  0  0  0  0  0  0  0  0  0
  160.4880  202.5420  149.9220 N   0  0  0  0  0  2  0  0  0  0  0  0
  160.1140  201.1160  148.0020 C   0  0  0  0  0  2  0  0  0  0  0  0
  161.5460  200.9350  148.4540 C   0  0  0  0  0  2  0  0  0  0  0  0
  160.8930  202.2960  148.5470 C   0  0  0  0  0  3  0  0  0  0  0  0
  160.8960  209.8060  146.9270 O   0  0  0  0  0  0  0  0  0  0  0  0
  160.4970  211.0600  147.0440 O   0  0  0  0  0  1  0  0  0  0  0  0
  158.5370  214.4530  148.5690 O   0  0  0  0  0  0  0  0  0  0  0  0
  156.5130  213.6470  149.2110 F   0  0  0  0  0  0  0  0  0  0  0  0
  157.2300  214.1730  148.1470 C   0  0  2  0  0  3  0  0  0  0  0  0
  157.1100  211.9020  147.4940 F   0  0  0  0  0  0  0  0  0  0  0  0
  157.2300  213.1820  146.9820 C   0  0  0  0  0  0  0  0  0  0  0  0
  158.4260  213.2730  146.2870 F   0  0  0  0  0  0  0  0  0  0  0  0
  156.3440  214.4530  145.1480 F   0  0  0  0  0  0  0  0  0  0  0  0
  156.0550  213.4380  146.0380 C   0  0  0  0  0  3  0  0  0  0  0  0
  155.7640  212.2880  145.3290 F   0  0  0  0  0  0  0  0  0  0  0  0
  162.4970  207.1810  147.6340 O   0  0  0  0  0  0  0  0  0  0  0  0
  161.4450  204.3440  145.3840 C   0  0  0  0  0  2  0  0  0  0  0  0
  161.8220  206.5400  146.5520 C   0  0  1  0  0  3  0  0  0  0  0  0
  162.1620  205.0450  146.5400 C   0  0  2  0  0  3  0  0  0  0  0  0
  159.9340  204.5470  145.4930 C   0  0  0  0  0  2  0  0  0  0  0  0
  159.5990  206.0360  145.5120 C   0  0  0  0  0  2  0  0  0  0  0  0
  160.3080  206.7160  146.6790 C   0  0  0  0  0  2  0  0  0  0  0  0
  164.1750  204.2800  145.2910 O   0  0  0  0  0  0  0  0  0  0  0  0
  163.6370  204.8150  146.4540 C   0  0  0  0  0  0  0  0  0  0  0  0
  164.3920  205.0850  147.4280 O   0  0  0  0  0  1  0  0  0  0  0  0
  1  8  1  0  0  0  0
  4 20  1  0  0  0  0
  5  2  1  1  0  0  0
  6  4  2  0  0  0  0
  7 22  1  1  0  0  0
  8  5  1  0  0  0  0
  9  6  2  0  0  0  0
 10 14  1  6  0  0  0
 11 25  1  0  0  0  0
 12 27  1  0  0  0  0
 12 10  1  0  0  0  0
 13 17  1  1  0  0  0
 13  1  1  0  0  0  0
 15  7  1  0  0  0  0
 15 29  1  0  0  0  0
 16 10  1  0  0  0  0
 16  7  1  0  0  0  0
 18 28  1  0  0  0  0
 19  3  2  0  0  0  0
 19 11  1  0  0  0  0
 20 26  1  6  0  0  0
 20 30  1  0  0  0  0
 20 23  1  0  0  0  0
 21 16  2  0  0  0  0
 23 18  1  0  0  0  0
 24 40  1  6  0  0  0
 24  9  1  0  0  0  0
 25 13  1  0  0  0  0
 27 24  1  0  0  0  0
 28  5  1  0  0  0  0
 29 42  1  6  0  0  0
 29 19  1  0  0  0  0
 30 31  1  0  0  0  0
 32 30  2  0  0  0  0
 32 31  1  0  0  0  0
 33 35  2  0  0  0  0
 34 32  1  0  0  0  0
 35 34  1  0  0  0  0
 36 35  1  0  0  0  0
 37 38  1  0  0  0  0
 37 39  1  0  0  0  0
 38 39  1  0  0  0  0
 39 36  1  0  0  0  0
 40 41  1  0  0  0  0
 44 42  1  0  0  0  0
 44 43  1  1  0  0  0
 46 45  1  0  0  0  0
 46 44  1  0  0  0  0
 47 46  1  0  0  0  0
 48 49  1  0  0  0  0
 49 46  1  0  0  0  0
 50 49  1  0  0  0  0
 51  9  1  0  0  0  0
 52 55  1  0  0  0  0
 52 54  1  0  0  0  0
 53 57  1  0  0  0  0
 53 51  1  1  0  0  0
 54 59  1  6  0  0  0
 54 53  1  0  0  0  0
 55 56  1  0  0  0  0
 56 57  1  0  0  0  0
 58 59  2  0  0  0  0
 59 60  1  0  0  0  0
M  END
>  <MODEL>
2

>  <REMARK>
 VINA RESULT:       3.1      4.546     10.284
  Name = 
  11 active torsions:
  status: ('A' for Active; 'I' for Inactive)
    1  A    between atoms: C_6  and  O_39
    2  A    between atoms: C_13  and  O_39
    3  A    between atoms: O_17  and  C_48
    4  A    between atoms: C_20  and  C_44
    5  A    between atoms: C_21  and  C_34
    6  A    between atoms: O_25  and  C_28
    7  A    between atoms: O_25  and  C_60
    8  A    between atoms: C_28  and  C_34
    9  A    between atoms: C_33  and  C_38
   10  A    between atoms: N_40  and  C_57
   11  A    between atoms: C_53  and  N_55
                            x       y       z     vdW  Elec       q    Type
                         _______ _______ _______ _____ _____    ______ ____

>  <TORSDO>
F 11

$$$$
