=
 OpenBabel11072413403D

 67 74  0  0  1  0  0  0  0  0999 V2000
  161.4060  210.3050  150.7280 C   0  0  2  0  0  3  0  0  0  0  0  0
  160.1590  211.1930  150.8070 C   0  0  2  0  0  3  0  0  0  0  0  0
  161.4110  211.7180  150.1060 C   0  0  2  0  0  3  0  0  0  0  0  0
  156.6640  212.7760  153.2890 C   0  0  0  0  0  2  0  0  0  0  0  0
  158.6780  211.5110  152.8060 N   0  0  0  0  0  2  0  0  0  0  0  0
  159.9370  211.9340  152.1600 C   0  0  2  0  0  0  0  0  0  0  0  0
  158.6790  213.9390  152.8300 C   0  0  2  0  0  3  0  0  0  0  0  0
  158.1690  212.6840  153.5290 C   0  0  1  0  0  3  0  0  0  0  0  0
  160.6060  214.1410  151.4630 O   0  0  0  0  0  0  0  0  0  0  0  0
  156.5510  213.5030  151.9600 C   0  0  2  0  0  3  0  0  0  0  0  0
  157.6440  214.4530  151.8970 N   0  0  0  0  0  2  0  0  0  0  0  0
  159.8290  213.4110  152.0820 C   0  0  0  0  0  0  0  0  0  0  0  0
  155.2190  214.2190  151.9160 C   0  0  0  0  0  3  0  0  0  0  0  0
  154.5260  214.0850  150.9040 O   0  0  0  0  0  0  0  0  0  0  0  0
  161.0700  211.5860  153.0280 N   0  0  0  0  0  2  0  0  0  0  0  0
  161.0680  208.7450  153.6410 C   0  0  0  0  0  1  0  0  0  0  0  0
  161.1010  209.7880  154.7040 C   0  0  0  0  0  0  0  0  0  0  0  0
  160.5910  212.0410  155.4050 C   0  0  0  0  0  3  0  0  0  0  0  0
  161.0480  209.3910  156.0040 N   0  0  0  0  0  0  0  0  0  0  0  0
  160.8520  210.2870  157.0050 C   0  0  0  0  0  3  0  0  0  0  0  0
  160.5350  211.6190  156.7180 C   0  0  0  0  0  3  0  0  0  0  0  0
  160.9260  211.1390  154.3790 C   0  0  0  0  0  0  0  0  0  0  0  0
  161.0670  211.8150  148.6380 C   0  0  0  0  0  2  0  0  0  0  0  0
  163.1550  213.6540  146.6340 C   0  0  2  0  0  3  0  0  0  0  0  0
  161.8600  213.7590  145.9400 C   0  0  0  0  0  0  0  0  0  0  0  0
  161.7390  214.1320  144.7880 O   0  0  0  0  0  0  0  0  0  0  0  0
  161.4610  213.2150  148.1500 C   0  0  2  0  0  3  0  0  0  0  0  0
  164.0620  212.6980  145.9800 N   0  0  0  0  0  1  0  0  0  0  0  0
  160.7570  213.6750  146.8830 C   0  0  2  0  0  3  0  0  0  0  0  0
  162.8800  213.2750  147.9690 O   0  0  0  0  0  0  0  0  0  0  0  0
  155.8520  214.4520  147.4600 N   0  0  0  0  0  0  0  0  0  0  0  0
  159.6780  211.8890  145.6070 O   0  0  0  0  0  0  0  0  0  0  0  0
  157.0850  212.9560  145.9810 C   0  0  0  0  0  2  0  0  0  0  0  0
  158.0640  213.8510  148.1080 C   0  0  0  0  0  3  0  0  0  0  0  0
  156.9040  214.4120  148.4410 C   0  0  0  0  0  3  0  0  0  0  0  0
  159.5520  212.8900  146.3810 C   0  0  0  0  0  0  0  0  0  0  0  0
  158.2510  213.2940  146.7970 N   0  0  0  0  0  0  0  0  0  0  0  0
  155.8970  213.8300  146.3320 C   0  0  0  0  0  3  0  0  0  0  0  0
  161.4840  209.2850  149.6220 C   0  0  0  0  0  2  0  0  0  0  0  0
  162.0460  207.9180  150.0670 C   0  0  0  0  0  2  0  0  0  0  0  0
  161.1640  206.7570  149.5680 C   0  0  2  0  0  3  0  0  0  0  0  0
  161.5350  205.4750  150.3440 C   0  0  0  0  0  2  0  0  0  0  0  0
  162.7100  205.6990  151.2870 C   0  0  0  0  0  2  0  0  0  0  0  0
  161.0240  204.5550  152.6310 C   0  0  0  0  0  2  0  0  0  0  0  0
  161.1400  205.9350  153.2540 C   0  0  0  0  0  2  0  0  0  0  0  0
  162.3820  205.2310  152.6990 C   0  0  0  0  0  3  0  0  0  0  0  0
  161.3570  206.4770  148.0730 C   0  0  0  0  0  2  0  0  0  0  0  0
  162.6500  205.9360  147.7990 O   0  0  0  0  0  0  0  0  0  0  0  0
  163.9750  204.7220  146.3790 O   0  0  0  0  0  0  0  0  0  0  0  0
  162.9270  205.4030  146.5430 C   0  0  0  0  0  0  0  0  0  0  0  0
  161.9270  205.5720  145.4400 C   0  0  0  0  0  2  0  0  0  0  0  0
  160.9120  204.4200  145.4290 C   0  0  1  0  0  3  0  0  0  0  0  0
  159.1890  205.8830  145.0010 O   0  0  0  0  0  0  0  0  0  0  0  0
  158.6590  203.7780  144.1720 C   0  0  0  0  0  1  0  0  0  0  0  0
  159.5520  204.7190  144.9110 C   0  0  0  0  0  0  0  0  0  0  0  0
  161.5000  203.0300  145.1610 C   0  0  0  0  0  2  0  0  0  0  0  0
  161.0940  202.1310  146.3210 C   0  0  2  0  0  0  0  0  0  0  0  0
  161.2290  202.7460  147.6760 C   0  0  2  0  0  3  0  0  0  0  0  0
  162.1280  201.7800  147.2320 O   0  0  0  0  0  0  0  0  0  0  0  0
  160.1990  202.2060  148.5520 N   0  0  0  0  0  2  0  0  0  0  0  0
  161.1700  200.5150  149.9330 N   0  0  0  0  0  1  0  0  0  0  0  0
  160.8250  201.9420  149.8530 C   0  0  2  0  0  3  0  0  0  0  0  0
  159.8430  202.2450  151.0130 C   0  0  0  0  0  1  0  0  0  0  0  0
  160.1770  200.9300  145.9570 C   0  0  0  0  0  2  0  0  0  0  0  0
  160.7050  199.5260  146.3200 C   0  0  0  0  0  2  0  0  0  0  0  0
  161.4470  198.0360  144.8650 C   0  0  0  0  0  1  0  0  0  0  0  0
  161.7980  199.2300  145.5210 O   0  0  0  0  0  0  0  0  0  0  0  0
  1 39  1  6  0  0  0
  1  2  1  0  0  0  0
  2  6  1  1  0  0  0
  3 23  1  6  0  0  0
  3  1  1  0  0  0  0
  3  2  1  0  0  0  0
  5  8  1  0  0  0  0
  6  5  1  0  0  0  0
  6 15  1  1  0  0  0
  7 11  1  6  0  0  0
  7  8  1  0  0  0  0
  8  4  1  6  0  0  0
  9 12  2  0  0  0  0
 10 13  1  1  0  0  0
 10  4  1  0  0  0  0
 11 10  1  0  0  0  0
 12  6  1  0  0  0  0
 12  7  1  0  0  0  0
 14 13  2  0  0  0  0
 15 22  1  0  0  0  0
 16 17  1  0  0  0  0
 17 19  1  0  0  0  0
 18 21  2  0  0  0  0
 19 20  2  0  0  0  0
 21 20  1  0  0  0  0
 22 17  2  0  0  0  0
 22 18  1  0  0  0  0
 24 28  1  6  0  0  0
 24 30  1  0  0  0  0
 25 24  1  0  0  0  0
 25 29  1  0  0  0  0
 26 25  2  0  0  0  0
 27 23  1  6  0  0  0
 29 36  1  6  0  0  0
 29 27  1  0  0  0  0
 30 27  1  0  0  0  0
 31 35  1  0  0  0  0
 32 36  2  0  0  0  0
 33 38  1  0  0  0  0
 33 37  1  0  0  0  0
 34 35  2  0  0  0  0
 36 37  1  0  0  0  0
 37 34  1  0  0  0  0
 38 31  2  0  0  0  0
 39 40  1  0  0  0  0
 41 47  1  6  0  0  0
 41 40  1  0  0  0  0
 41 42  1  0  0  0  0
 42 43  1  0  0  0  0
 43 46  1  0  0  0  0
 44 46  1  0  0  0  0
 44 45  1  0  0  0  0
 46 45  1  0  0  0  0
 48 47  1  0  0  0  0
 49 50  2  0  0  0  0
 50 48  1  0  0  0  0
 51 50  1  0  0  0  0
 52 56  1  6  0  0  0
 52 51  1  0  0  0  0
 54 55  1  0  0  0  0
 55 53  2  0  0  0  0
 55 52  1  0  0  0  0
 57 56  1  6  0  0  0
 57 59  1  0  0  0  0
 57 58  1  0  0  0  0
 58 60  1  1  0  0  0
 59 58  1  0  0  0  0
 60 62  1  0  0  0  0
 62 61  1  0  0  0  0
 62 63  1  1  0  0  0
 64 65  1  0  0  0  0
 64 57  1  0  0  0  0
 66 67  1  0  0  0  0
 67 65  1  0  0  0  0
M  END
>  <MODEL>
1

>  <REMARK>
 VINA RESULT:      -1.0      0.000      0.000
  Name = 
  26 active torsions:
  status: ('A' for Active; 'I' for Inactive)
    1  A    between atoms: C_2  and  C_52
    2  A    between atoms: C_2  and  C_54
    3  A    between atoms: C_6  and  C_54
    4  A    between atoms: C_6  and  O_67
    5  A    between atoms: C_7  and  C_36
    6  A    between atoms: C_7  and  C_63
    7  A    between atoms: N_10  and  C_21
    8  A    between atoms: N_10  and  C_47
    9  A    between atoms: C_14  and  N_33
   10  A    between atoms: C_15  and  O_29
   11  A    between atoms: C_15  and  C_51
   12  A    between atoms: C_19  and  C_30
   13  A    between atoms: C_19  and  C_61
   14  A    between atoms: C_21  and  C_41
   15  A    between atoms: C_22  and  N_33
   16  A    between atoms: C_23  and  C_51
   17  A    between atoms: C_23  and  C_53
   18  A    between atoms: C_26  and  CA_49
   19  A    between atoms: O_29  and  C_66
   20  A    between atoms: C_31  and  C_32
   21  A    between atoms: C_31  and  C_52
   22  A    between atoms: C_31  and  C_60
   23  A    between atoms: C_32  and  C_66
   24  A    between atoms: C_42  and  C_48
   25  A    between atoms: C_51  and  C_63
   26  A    between atoms: C_53  and  C_59
                            x       y       z     vdW  Elec       q    Type
                         _______ _______ _______ _____ _____    ______ ____

>  <TORSDO>
F 26

$$$$
=
 OpenBabel11072413403D

 67 74  0  0  1  0  0  0  0  0999 V2000
  161.0320  210.5660  153.0040 C   0  0  2  0  0  3  0  0  0  0  0  0
  159.5790  210.6110  153.4900 C   0  0  2  0  0  3  0  0  0  0  0  0
  160.2300  211.8850  152.9540 C   0  0  2  0  0  3  0  0  0  0  0  0
  161.8930  212.0970  157.1380 C   0  0  0  0  0  2  0  0  0  0  0  0
  160.0340  211.9040  155.5900 N   0  0  0  0  0  2  0  0  0  0  0  0
  159.3800  210.7030  155.0330 C   0  0  2  0  0  0  0  0  0  0  0  0
  160.7310  210.0370  156.9770 C   0  0  2  0  0  3  0  0  0  0  0  0
  160.4860  211.5410  156.9400 C   0  0  1  0  0  3  0  0  0  0  0  0
  159.7680  208.3870  155.5730 O   0  0  0  0  0  0  0  0  0  0  0  0
  162.7930  211.0430  156.5170 C   0  0  2  0  0  3  0  0  0  0  0  0
  162.1720  209.7550  156.7580 N   0  0  0  0  0  2  0  0  0  0  0  0
  159.9370  209.5810  155.8270 C   0  0  0  0  0  0  0  0  0  0  0  0
  164.1490  211.1150  157.1840 C   0  0  0  0  0  3  0  0  0  0  0  0
  164.9720  211.9130  156.7310 O   0  0  0  0  0  0  0  0  0  0  0  0
  157.9330  210.7820  155.2730 N   0  0  0  0  0  2  0  0  0  0  0  0
  155.1750  210.7850  156.1910 C   0  0  0  0  0  1  0  0  0  0  0  0
  155.9540  212.0420  156.0080 C   0  0  0  0  0  0  0  0  0  0  0  0
  157.7540  213.2150  154.9090 C   0  0  0  0  0  3  0  0  0  0  0  0
  155.3220  213.2300  156.2020 N   0  0  0  0  0  0  0  0  0  0  0  0
  155.9040  214.4030  155.8410 C   0  0  0  0  0  3  0  0  0  0  0  0
  157.0960  214.4110  155.1090 C   0  0  0  0  0  3  0  0  0  0  0  0
  157.2160  212.0130  155.4020 C   0  0  0  0  0  0  0  0  0  0  0  0
  159.5310  212.2060  151.6540 C   0  0  0  0  0  2  0  0  0  0  0  0
  162.0000  212.8530  149.3640 C   0  0  2  0  0  3  0  0  0  0  0  0
  160.7810  213.2810  148.6580 C   0  0  0  0  0  0  0  0  0  0  0  0
  160.7270  213.4770  147.4590 O   0  0  0  0  0  0  0  0  0  0  0  0
  160.3490  213.2830  150.9280 C   0  0  2  0  0  3  0  0  0  0  0  0
  162.4880  211.5470  148.8910 N   0  0  0  0  0  1  0  0  0  0  0  0
  159.7710  213.7410  149.5990 C   0  0  2  0  0  3  0  0  0  0  0  0
  161.6900  212.8180  150.7440 O   0  0  0  0  0  0  0  0  0  0  0  0
  157.4980  213.3100  145.1680 N   0  0  0  0  0  0  0  0  0  0  0  0
  157.5110  212.9670  150.1200 O   0  0  0  0  0  0  0  0  0  0  0  0
  156.8300  212.5910  147.4000 C   0  0  0  0  0  2  0  0  0  0  0  0
  158.4850  214.4340  147.0210 C   0  0  0  0  0  3  0  0  0  0  0  0
  158.2740  214.3950  145.7080 C   0  0  0  0  0  3  0  0  0  0  0  0
  158.3440  213.3480  149.2390 C   0  0  0  0  0  0  0  0  0  0  0  0
  157.9400  213.4160  147.8750 N   0  0  0  0  0  0  0  0  0  0  0  0
  156.8480  212.4620  145.8890 C   0  0  0  0  0  3  0  0  0  0  0  0
  161.2970  210.1040  151.5940 C   0  0  0  0  0  2  0  0  0  0  0  0
  162.4230  209.0550  151.4800 C   0  0  0  0  0  2  0  0  0  0  0  0
  161.8980  207.6330  151.7570 C   0  0  2  0  0  3  0  0  0  0  0  0
  162.9850  206.6110  151.3620 C   0  0  0  0  0  2  0  0  0  0  0  0
  162.6270  205.1970  151.8020 C   0  0  0  0  0  2  0  0  0  0  0  0
  160.9600  204.6440  153.4970 C   0  0  0  0  0  2  0  0  0  0  0  0
  160.7460  203.6180  152.3990 C   0  0  0  0  0  2  0  0  0  0  0  0
  161.1300  205.0580  152.0470 C   0  0  0  0  0  3  0  0  0  0  0  0
  160.6320  207.3110  150.9550 C   0  0  0  0  0  2  0  0  0  0  0  0
  160.7670  207.6800  149.5820 O   0  0  0  0  0  0  0  0  0  0  0  0
  162.2110  206.9590  147.9580 O   0  0  0  0  0  0  0  0  0  0  0  0
  161.1800  206.7350  148.6460 C   0  0  0  0  0  0  0  0  0  0  0  0
  160.4430  205.4350  148.5470 C   0  0  0  0  0  2  0  0  0  0  0  0
  161.4150  204.2460  148.5150 C   0  0  1  0  0  3  0  0  0  0  0  0
  159.7190  202.8410  149.1800 O   0  0  0  0  0  0  0  0  0  0  0  0
  161.7660  201.7630  149.3980 C   0  0  0  0  0  1  0  0  0  0  0  0
  160.9320  202.9600  149.0800 C   0  0  0  0  0  0  0  0  0  0  0  0
  162.3540  204.1990  147.3040 C   0  0  0  0  0  2  0  0  0  0  0  0
  161.6050  203.5070  146.1730 C   0  0  2  0  0  0  0  0  0  0  0  0
  161.4810  202.0240  146.3090 C   0  0  2  0  0  3  0  0  0  0  0  0
  162.3600  202.5900  145.3910 O   0  0  0  0  0  0  0  0  0  0  0  0
  160.2280  201.5910  145.7060 N   0  0  0  0  0  2  0  0  0  0  0  0
  161.5160  199.5840  145.8670 N   0  0  0  0  0  1  0  0  0  0  0  0
  160.1520  200.1330  145.8560 C   0  0  2  0  0  3  0  0  0  0  0  0
  159.4060  199.4910  144.6580 C   0  0  0  0  0  1  0  0  0  0  0  0
  160.6850  204.4190  145.3130 C   0  0  0  0  0  2  0  0  0  0  0  0
  161.3460  205.1240  144.1100 C   0  0  0  0  0  2  0  0  0  0  0  0
  160.1550  206.6230  145.2150 C   0  0  0  0  0  1  0  0  0  0  0  0
  161.1170  206.4880  144.1970 O   0  0  0  0  0  0  0  0  0  0  0  0
  1 39  1  6  0  0  0
  1  2  1  0  0  0  0
  2  6  1  1  0  0  0
  3 23  1  6  0  0  0
  3  1  1  0  0  0  0
  3  2  1  0  0  0  0
  5  8  1  0  0  0  0
  6 15  1  1  0  0  0
  6  5  1  0  0  0  0
  6 12  1  0  0  0  0
  7 12  1  6  0  0  0
  8  7  1  0  0  0  0
  8  4  1  6  0  0  0
  9 12  2  0  0  0  0
 10 11  1  0  0  0  0
 10  4  1  0  0  0  0
 10 13  1  1  0  0  0
 11  7  1  0  0  0  0
 14 13  2  0  0  0  0
 15 22  1  0  0  0  0
 17 16  1  0  0  0  0
 17 19  1  0  0  0  0
 18 21  2  0  0  0  0
 18 22  1  0  0  0  0
 20 19  2  0  0  0  0
 21 20  1  0  0  0  0
 22 17  2  0  0  0  0
 24 28  1  6  0  0  0
 24 30  1  0  0  0  0
 25 24  1  0  0  0  0
 25 29  1  0  0  0  0
 26 25  2  0  0  0  0
 27 23  1  6  0  0  0
 29 36  1  6  0  0  0
 29 27  1  0  0  0  0
 30 27  1  0  0  0  0
 31 35  1  0  0  0  0
 31 38  2  0  0  0  0
 33 37  1  0  0  0  0
 34 37  1  0  0  0  0
 35 34  2  0  0  0  0
 36 32  2  0  0  0  0
 37 36  1  0  0  0  0
 38 33  1  0  0  0  0
 40 39  1  0  0  0  0
 40 41  1  0  0  0  0
 41 47  1  6  0  0  0
 42 41  1  0  0  0  0
 42 43  1  0  0  0  0
 43 46  1  0  0  0  0
 45 44  1  0  0  0  0
 46 45  1  0  0  0  0
 46 44  1  0  0  0  0
 48 47  1  0  0  0  0
 49 50  2  0  0  0  0
 50 48  1  0  0  0  0
 51 50  1  0  0  0  0
 52 56  1  6  0  0  0
 52 51  1  0  0  0  0
 52 55  1  0  0  0  0
 55 53  2  0  0  0  0
 55 54  1  0  0  0  0
 57 64  1  6  0  0  0
 57 58  1  0  0  0  0
 57 56  1  0  0  0  0
 58 60  1  6  0  0  0
 59 57  1  0  0  0  0
 59 58  1  0  0  0  0
 60 62  1  0  0  0  0
 62 63  1  6  0  0  0
 62 61  1  0  0  0  0
 65 67  1  0  0  0  0
 65 64  1  0  0  0  0
 67 66  1  0  0  0  0
M  END
>  <MODEL>
2

>  <REMARK>
 VINA RESULT:      -0.6      2.343      4.664
  Name = 
  26 active torsions:
  status: ('A' for Active; 'I' for Inactive)
    1  A    between atoms: C_2  and  C_52
    2  A    between atoms: C_2  and  C_54
    3  A    between atoms: C_6  and  C_54
    4  A    between atoms: C_6  and  O_67
    5  A    between atoms: C_7  and  C_36
    6  A    between atoms: C_7  and  C_63
    7  A    between atoms: N_10  and  C_21
    8  A    between atoms: N_10  and  C_47
    9  A    between atoms: C_14  and  N_33
   10  A    between atoms: C_15  and  O_29
   11  A    between atoms: C_15  and  C_51
   12  A    between atoms: C_19  and  C_30
   13  A    between atoms: C_19  and  C_61
   14  A    between atoms: C_21  and  C_41
   15  A    between atoms: C_22  and  N_33
   16  A    between atoms: C_23  and  C_51
   17  A    between atoms: C_23  and  C_53
   18  A    between atoms: C_26  and  CA_49
   19  A    between atoms: O_29  and  C_66
   20  A    between atoms: C_31  and  C_32
   21  A    between atoms: C_31  and  C_52
   22  A    between atoms: C_31  and  C_60
   23  A    between atoms: C_32  and  C_66
   24  A    between atoms: C_42  and  C_48
   25  A    between atoms: C_51  and  C_63
   26  A    between atoms: C_53  and  C_59
                            x       y       z     vdW  Elec       q    Type
                         _______ _______ _______ _____ _____    ______ ____

>  <TORSDO>
F 26

$$$$
=
 OpenBabel11072413403D

 67 74  0  0  1  0  0  0  0  0999 V2000
  161.0590  210.3870  152.9610 C   0  0  2  0  0  3  0  0  0  0  0  0
  159.6080  210.4340  153.4530 C   0  0  2  0  0  3  0  0  0  0  0  0
  160.2380  211.6900  152.8540 C   0  0  2  0  0  3  0  0  0  0  0  0
  161.9050  212.1570  157.0070 C   0  0  0  0  0  2  0  0  0  0  0  0
  160.0420  211.8390  155.4840 N   0  0  0  0  0  2  0  0  0  0  0  0
  159.4160  210.5960  154.9910 C   0  0  2  0  0  0  0  0  0  0  0  0
  160.7970  210.0610  156.9550 C   0  0  2  0  0  3  0  0  0  0  0  0
  160.5110  211.5540  156.8470 C   0  0  1  0  0  3  0  0  0  0  0  0
  159.8690  208.3200  155.6400 O   0  0  0  0  0  0  0  0  0  0  0  0
  162.8280  211.0970  156.4320 C   0  0  2  0  0  3  0  0  0  0  0  0
  162.2430  209.8070  156.7390 N   0  0  0  0  0  2  0  0  0  0  0  0
  160.0080  209.5290  155.8350 C   0  0  0  0  0  0  0  0  0  0  0  0
  164.1860  211.2370  157.0840 C   0  0  0  0  0  3  0  0  0  0  0  0
  165.1010  211.7180  156.4130 O   0  0  0  0  0  0  0  0  0  0  0  0
  157.9700  210.6490  155.2380 N   0  0  0  0  0  2  0  0  0  0  0  0
  155.2370  210.4610  156.2130 C   0  0  0  0  0  1  0  0  0  0  0  0
  156.0400  211.7110  156.3310 C   0  0  0  0  0  0  0  0  0  0  0  0
  157.8370  213.0970  155.5090 C   0  0  0  0  0  3  0  0  0  0  0  0
  155.4410  212.8210  156.8400 N   0  0  0  0  0  0  0  0  0  0  0  0
  156.0400  214.0370  156.7700 C   0  0  0  0  0  3  0  0  0  0  0  0
  157.2120  214.2130  156.0270 C   0  0  0  0  0  3  0  0  0  0  0  0
  157.2850  211.8170  155.6980 C   0  0  0  0  0  0  0  0  0  0  0  0
  159.5280  211.9400  151.5440 C   0  0  0  0  0  2  0  0  0  0  0  0
  161.9100  212.2840  149.1020 C   0  0  2  0  0  3  0  0  0  0  0  0
  160.6880  212.7640  148.4350 C   0  0  0  0  0  0  0  0  0  0  0  0
  160.5840  212.9010  147.2310 O   0  0  0  0  0  0  0  0  0  0  0  0
  160.3800  212.9140  150.7200 C   0  0  2  0  0  3  0  0  0  0  0  0
  162.2790  210.9230  148.6780 N   0  0  0  0  0  1  0  0  0  0  0  0
  159.7650  213.3450  149.3980 C   0  0  2  0  0  3  0  0  0  0  0  0
  161.6730  212.3440  150.4950 O   0  0  0  0  0  0  0  0  0  0  0  0
  155.6510  214.4500  152.0130 N   0  0  0  0  0  0  0  0  0  0  0  0
  157.9110  212.4810  148.0560 O   0  0  0  0  0  0  0  0  0  0  0  0
  155.9420  213.6160  149.7410 C   0  0  0  0  0  2  0  0  0  0  0  0
  157.6900  213.3250  151.5130 C   0  0  0  0  0  3  0  0  0  0  0  0
  156.8800  213.8320  152.4380 C   0  0  0  0  0  3  0  0  0  0  0  0
  158.2960  213.0390  149.1320 C   0  0  0  0  0  0  0  0  0  0  0  0
  157.3360  213.3910  150.1220 N   0  0  0  0  0  0  0  0  0  0  0  0
  155.1990  214.3970  150.8080 C   0  0  0  0  0  3  0  0  0  0  0  0
  161.3230  209.8620  151.5730 C   0  0  0  0  0  2  0  0  0  0  0  0
  162.2840  208.6550  151.5310 C   0  0  0  0  0  2  0  0  0  0  0  0
  161.5500  207.3390  151.8500 C   0  0  2  0  0  3  0  0  0  0  0  0
  162.5730  206.1830  151.8600 C   0  0  0  0  0  2  0  0  0  0  0  0
  161.9810  204.8910  151.3130 C   0  0  0  0  0  2  0  0  0  0  0  0
  161.5830  202.5400  151.8350 C   0  0  0  0  0  2  0  0  0  0  0  0
  160.2750  203.2340  152.1680 C   0  0  0  0  0  2  0  0  0  0  0  0
  161.6110  203.9330  152.4370 C   0  0  0  0  0  3  0  0  0  0  0  0
  160.4720  207.0050  150.8130 C   0  0  0  0  0  2  0  0  0  0  0  0
  160.8050  207.5120  149.5200 O   0  0  0  0  0  0  0  0  0  0  0  0
  162.4600  206.9960  148.0230 O   0  0  0  0  0  0  0  0  0  0  0  0
  161.3720  206.6680  148.5680 C   0  0  0  0  0  0  0  0  0  0  0  0
  160.7250  205.3480  148.2840 C   0  0  0  0  0  2  0  0  0  0  0  0
  161.7690  204.2280  148.1760 C   0  0  1  0  0  3  0  0  0  0  0  0
  160.1410  202.7120  148.7590 O   0  0  0  0  0  0  0  0  0  0  0  0
  162.0290  201.5880  148.0040 C   0  0  0  0  0  1  0  0  0  0  0  0
  161.2930  202.8350  148.3710 C   0  0  0  0  0  0  0  0  0  0  0  0
  162.8920  204.4750  147.1610 C   0  0  0  0  0  2  0  0  0  0  0  0
  162.2510  204.5570  145.7830 C   0  0  2  0  0  0  0  0  0  0  0  0
  161.4680  203.3520  145.3760 C   0  0  2  0  0  3  0  0  0  0  0  0
  162.7160  203.6190  144.8200 O   0  0  0  0  0  0  0  0  0  0  0  0
  160.3640  203.7640  144.5210 N   0  0  0  0  0  2  0  0  0  0  0  0
  158.1690  202.9550  144.0310 N   0  0  0  0  0  1  0  0  0  0  0  0
  159.5750  202.5650  144.2170 C   0  0  2  0  0  3  0  0  0  0  0  0
  159.6220  201.5560  145.3930 C   0  0  0  0  0  1  0  0  0  0  0  0
  162.0840  205.9880  145.1980 C   0  0  0  0  0  2  0  0  0  0  0  0
  160.9050  206.2010  144.2260 C   0  0  0  0  0  2  0  0  0  0  0  0
  161.9040  206.2550  142.2540 C   0  0  0  0  0  1  0  0  0  0  0  0
  161.1120  205.4410  143.0850 O   0  0  0  0  0  0  0  0  0  0  0  0
  1 39  1  6  0  0  0
  1  2  1  0  0  0  0
  2  6  1  1  0  0  0
  3 23  1  6  0  0  0
  3  1  1  0  0  0  0
  3  2  1  0  0  0  0
  5  8  1  0  0  0  0
  6 15  1  1  0  0  0
  6  5  1  0  0  0  0
  6 12  1  0  0  0  0
  7 12  1  6  0  0  0
  8  7  1  0  0  0  0
  8  4  1  6  0  0  0
  9 12  2  0  0  0  0
 10 11  1  0  0  0  0
 10  4  1  0  0  0  0
 10 13  1  1  0  0  0
 11  7  1  0  0  0  0
 14 13  2  0  0  0  0
 15 22  1  0  0  0  0
 16 17  1  0  0  0  0
 17 19  1  0  0  0  0
 18 22  1  0  0  0  0
 18 21  2  0  0  0  0
 20 19  2  0  0  0  0
 21 20  1  0  0  0  0
 22 17  2  0  0  0  0
 24 28  1  6  0  0  0
 24 30  1  0  0  0  0
 25 24  1  0  0  0  0
 25 29  1  0  0  0  0
 26 25  2  0  0  0  0
 27 23  1  6  0  0  0
 29 36  1  6  0  0  0
 29 27  1  0  0  0  0
 30 27  1  0  0  0  0
 31 35  1  0  0  0  0
 32 36  2  0  0  0  0
 33 37  1  0  0  0  0
 33 38  1  0  0  0  0
 34 35  2  0  0  0  0
 36 37  1  0  0  0  0
 37 34  1  0  0  0  0
 38 31  2  0  0  0  0
 40 39  1  0  0  0  0
 40 41  1  0  0  0  0
 41 47  1  6  0  0  0
 41 42  1  0  0  0  0
 43 42  1  0  0  0  0
 43 46  1  0  0  0  0
 44 45  1  0  0  0  0
 44 46  1  0  0  0  0
 45 46  1  0  0  0  0
 48 47  1  0  0  0  0
 49 50  2  0  0  0  0
 50 48  1  0  0  0  0
 51 50  1  0  0  0  0
 52 56  1  6  0  0  0
 52 51  1  0  0  0  0
 52 55  1  0  0  0  0
 54 55  1  0  0  0  0
 55 53  2  0  0  0  0
 57 64  1  6  0  0  0
 57 56  1  0  0  0  0
 58 60  1  6  0  0  0
 58 57  1  0  0  0  0
 59 58  1  0  0  0  0
 59 57  1  0  0  0  0
 61 62  1  0  0  0  0
 62 60  1  0  0  0  0
 62 63  1  1  0  0  0
 65 64  1  0  0  0  0
 66 67  1  0  0  0  0
 67 65  1  0  0  0  0
M  END
>  <MODEL>
3

>  <REMARK>
 VINA RESULT:      -0.2      2.496      4.803
  Name = 
  26 active torsions:
  status: ('A' for Active; 'I' for Inactive)
    1  A    between atoms: C_2  and  C_52
    2  A    between atoms: C_2  and  C_54
    3  A    between atoms: C_6  and  C_54
    4  A    between atoms: C_6  and  O_67
    5  A    between atoms: C_7  and  C_36
    6  A    between atoms: C_7  and  C_63
    7  A    between atoms: N_10  and  C_21
    8  A    between atoms: N_10  and  C_47
    9  A    between atoms: C_14  and  N_33
   10  A    between atoms: C_15  and  O_29
   11  A    between atoms: C_15  and  C_51
   12  A    between atoms: C_19  and  C_30
   13  A    between atoms: C_19  and  C_61
   14  A    between atoms: C_21  and  C_41
   15  A    between atoms: C_22  and  N_33
   16  A    between atoms: C_23  and  C_51
   17  A    between atoms: C_23  and  C_53
   18  A    between atoms: C_26  and  CA_49
   19  A    between atoms: O_29  and  C_66
   20  A    between atoms: C_31  and  C_32
   21  A    between atoms: C_31  and  C_52
   22  A    between atoms: C_31  and  C_60
   23  A    between atoms: C_32  and  C_66
   24  A    between atoms: C_42  and  C_48
   25  A    between atoms: C_51  and  C_63
   26  A    between atoms: C_53  and  C_59
                            x       y       z     vdW  Elec       q    Type
                         _______ _______ _______ _____ _____    ______ ____

>  <TORSDO>
F 26

$$$$
=
 OpenBabel11072413403D

 67 74  0  0  1  0  0  0  0  0999 V2000
  161.5880  208.5120  149.7220 C   0  0  2  0  0  3  0  0  0  0  0  0
  162.3590  207.8190  148.5940 C   0  0  2  0  0  3  0  0  0  0  0  0
  161.1640  208.7070  148.2510 C   0  0  2  0  0  3  0  0  0  0  0  0
  162.5170  204.7870  145.1800 C   0  0  0  0  0  2  0  0  0  0  0  0
  162.9400  205.6980  147.3890 N   0  0  0  0  0  2  0  0  0  0  0  0
  162.0140  206.3180  148.3570 C   0  0  2  0  0  0  0  0  0  0  0  0
  160.6980  205.1080  146.6670 C   0  0  2  0  0  3  0  0  0  0  0  0
  162.1630  204.6860  146.6610 C   0  0  1  0  0  3  0  0  0  0  0  0
  159.6170  206.5280  148.2270 O   0  0  0  0  0  0  0  0  0  0  0  0
  161.6170  205.8970  144.6640 C   0  0  2  0  0  3  0  0  0  0  0  0
  160.3720  205.8160  145.4030 N   0  0  0  0  0  2  0  0  0  0  0  0
  160.6660  206.0410  147.8020 C   0  0  0  0  0  0  0  0  0  0  0  0
  161.3770  205.6750  143.1880 C   0  0  0  0  0  3  0  0  0  0  0  0
  161.7310  206.5610  142.4070 O   0  0  0  0  0  0  0  0  0  0  0  0
  162.1410  205.6410  149.6540 N   0  0  0  0  0  2  0  0  0  0  0  0
  161.3800  204.9960  152.3840 C   0  0  0  0  0  1  0  0  0  0  0  0
  161.0030  204.1350  151.2280 C   0  0  0  0  0  0  0  0  0  0  0  0
  161.4670  203.3640  148.9890 C   0  0  0  0  0  3  0  0  0  0  0  0
  160.3510  202.9670  151.4760 N   0  0  0  0  0  0  0  0  0  0  0  0
  160.1770  202.0390  150.5000 C   0  0  0  0  0  3  0  0  0  0  0  0
  160.8060  202.1820  149.2590 C   0  0  0  0  0  3  0  0  0  0  0  0
  161.5320  204.3830  149.9560 C   0  0  0  0  0  0  0  0  0  0  0  0
  161.7220  209.9160  147.5370 C   0  0  0  0  0  2  0  0  0  0  0  0
  162.9960  212.9590  148.4720 C   0  0  2  0  0  3  0  0  0  0  0  0
  161.7460  213.3260  147.7850 C   0  0  0  0  0  0  0  0  0  0  0  0
  161.4910  214.4510  147.4000 O   0  0  0  0  0  0  0  0  0  0  0  0
  161.5830  211.1250  148.4710 C   0  0  2  0  0  3  0  0  0  0  0  0
  164.1830  213.1950  147.6340 N   0  0  0  0  0  1  0  0  0  0  0  0
  160.7520  212.2720  147.9170 C   0  0  2  0  0  3  0  0  0  0  0  0
  162.8840  211.5960  148.8370 O   0  0  0  0  0  0  0  0  0  0  0  0
  156.5090  214.4140  146.3720 N   0  0  0  0  0  0  0  0  0  0  0  0
  160.2770  211.2430  145.7500 O   0  0  0  0  0  0  0  0  0  0  0  0
  158.0970  212.9670  145.2200 C   0  0  0  0  0  2  0  0  0  0  0  0
  157.8920  213.0180  147.7170 C   0  0  0  0  0  3  0  0  0  0  0  0
  156.8400  213.8290  147.6440 C   0  0  0  0  0  3  0  0  0  0  0  0
  159.9080  212.0370  146.6710 C   0  0  0  0  0  0  0  0  0  0  0  0
  158.6700  212.7310  146.5450 N   0  0  0  0  0  0  0  0  0  0  0  0
  157.0600  214.0720  145.2580 C   0  0  0  0  0  3  0  0  0  0  0  0
  162.1230  209.8180  150.2510 C   0  0  0  0  0  2  0  0  0  0  0  0
  162.8040  209.7040  151.6320 C   0  0  0  0  0  2  0  0  0  0  0  0
  161.7900  209.8900  152.7770 C   0  0  2  0  0  3  0  0  0  0  0  0
  160.4900  210.4930  152.2040 C   0  0  0  0  0  2  0  0  0  0  0  0
  160.4010  211.9940  152.4480 C   0  0  0  0  0  2  0  0  0  0  0  0
  160.0980  213.7620  150.7930 C   0  0  0  0  0  2  0  0  0  0  0  0
  159.1230  214.1060  151.9040 C   0  0  0  0  0  2  0  0  0  0  0  0
  159.3790  212.6440  151.5250 C   0  0  0  0  0  3  0  0  0  0  0  0
  162.3070  210.8340  153.8690 C   0  0  0  0  0  2  0  0  0  0  0  0
  161.2750  211.2040  154.7820 O   0  0  0  0  0  0  0  0  0  0  0  0
  162.1290  210.2260  156.6680 O   0  0  0  0  0  0  0  0  0  0  0  0
  161.5250  211.2040  156.1520 C   0  0  0  0  0  0  0  0  0  0  0  0
  161.1560  212.4080  156.9630 C   0  0  0  0  0  2  0  0  0  0  0  0
  159.6340  212.5240  157.1250 C   0  0  1  0  0  3  0  0  0  0  0  0
  158.0460  214.1850  157.0190 O   0  0  0  0  0  0  0  0  0  0  0  0
  159.3750  214.2430  155.1140 C   0  0  0  0  0  1  0  0  0  0  0  0
  158.9580  213.6390  156.4150 C   0  0  0  0  0  0  0  0  0  0  0  0
  158.8860  211.1920  157.2610 C   0  0  0  0  0  2  0  0  0  0  0  0
  158.0390  211.0150  156.0080 C   0  0  2  0  0  0  0  0  0  0  0  0
  156.8730  211.9430  155.8960 C   0  0  2  0  0  3  0  0  0  0  0  0
  156.6950  210.6000  156.2160 O   0  0  0  0  0  0  0  0  0  0  0  0
  156.6240  212.2330  154.4910 N   0  0  0  0  0  2  0  0  0  0  0  0
  156.0540  214.4010  153.6650 N   0  0  0  0  0  1  0  0  0  0  0  0
  155.5660  213.2470  154.4340 C   0  0  2  0  0  3  0  0  0  0  0  0
  155.2100  213.7580  155.8540 C   0  0  0  0  0  1  0  0  0  0  0  0
  158.7240  210.2730  154.8260 C   0  0  0  0  0  2  0  0  0  0  0  0
  158.9200  208.7510  154.9910 C   0  0  0  0  0  2  0  0  0  0  0  0
  160.4190  207.5150  156.0460 C   0  0  0  0  0  1  0  0  0  0  0  0
  159.4280  208.4910  156.2540 O   0  0  0  0  0  0  0  0  0  0  0  0
  1 39  1  6  0  0  0
  2  6  1  1  0  0  0
  2  1  1  0  0  0  0
  3 23  1  6  0  0  0
  3  2  1  0  0  0  0
  3  1  1  0  0  0  0
  5  6  1  0  0  0  0
  6 15  1  1  0  0  0
  7 11  1  6  0  0  0
  7 12  1  0  0  0  0
  8  4  1  6  0  0  0
  8  7  1  0  0  0  0
  8  5  1  0  0  0  0
 10 13  1  6  0  0  0
 10  4  1  0  0  0  0
 10 11  1  0  0  0  0
 12  9  2  0  0  0  0
 12  6  1  0  0  0  0
 14 13  2  0  0  0  0
 15 22  1  0  0  0  0
 17 19  1  0  0  0  0
 17 16  1  0  0  0  0
 18 21  2  0  0  0  0
 18 22  1  0  0  0  0
 20 19  2  0  0  0  0
 21 20  1  0  0  0  0
 22 17  2  0  0  0  0
 24 28  1  6  0  0  0
 24 30  1  0  0  0  0
 25 29  1  0  0  0  0
 25 24  1  0  0  0  0
 26 25  2  0  0  0  0
 27 23  1  6  0  0  0
 27 30  1  0  0  0  0
 29 36  1  6  0  0  0
 29 27  1  0  0  0  0
 31 35  1  0  0  0  0
 32 36  2  0  0  0  0
 33 38  1  0  0  0  0
 33 37  1  0  0  0  0
 35 34  2  0  0  0  0
 37 36  1  0  0  0  0
 37 34  1  0  0  0  0
 38 31  2  0  0  0  0
 39 40  1  0  0  0  0
 41 40  1  6  0  0  0
 41 47  1  0  0  0  0
 42 43  1  0  0  0  0
 42 41  1  0  0  0  0
 44 46  1  0  0  0  0
 44 45  1  0  0  0  0
 46 45  1  0  0  0  0
 46 43  1  0  0  0  0
 47 48  1  0  0  0  0
 48 50  1  0  0  0  0
 50 49  2  0  0  0  0
 50 51  1  0  0  0  0
 52 51  1  6  0  0  0
 52 56  1  0  0  0  0
 54 55  1  0  0  0  0
 55 53  2  0  0  0  0
 55 52  1  0  0  0  0
 57 64  1  6  0  0  0
 57 59  1  0  0  0  0
 57 56  1  0  0  0  0
 58 60  1  6  0  0  0
 58 57  1  0  0  0  0
 58 59  1  0  0  0  0
 61 62  1  0  0  0  0
 62 60  1  0  0  0  0
 62 63  1  1  0  0  0
 64 65  1  0  0  0  0
 65 67  1  0  0  0  0
 66 67  1  0  0  0  0
M  END
>  <MODEL>
4

>  <REMARK>
 VINA RESULT:       1.3      2.665      9.483
  Name = 
  26 active torsions:
  status: ('A' for Active; 'I' for Inactive)
    1  A    between atoms: C_2  and  C_52
    2  A    between atoms: C_2  and  C_54
    3  A    between atoms: C_6  and  C_54
    4  A    between atoms: C_6  and  O_67
    5  A    between atoms: C_7  and  C_36
    6  A    between atoms: C_7  and  C_63
    7  A    between atoms: N_10  and  C_21
    8  A    between atoms: N_10  and  C_47
    9  A    between atoms: C_14  and  N_33
   10  A    between atoms: C_15  and  O_29
   11  A    between atoms: C_15  and  C_51
   12  A    between atoms: C_19  and  C_30
   13  A    between atoms: C_19  and  C_61
   14  A    between atoms: C_21  and  C_41
   15  A    between atoms: C_22  and  N_33
   16  A    between atoms: C_23  and  C_51
   17  A    between atoms: C_23  and  C_53
   18  A    between atoms: C_26  and  CA_49
   19  A    between atoms: O_29  and  C_66
   20  A    between atoms: C_31  and  C_32
   21  A    between atoms: C_31  and  C_52
   22  A    between atoms: C_31  and  C_60
   23  A    between atoms: C_32  and  C_66
   24  A    between atoms: C_42  and  C_48
   25  A    between atoms: C_51  and  C_63
   26  A    between atoms: C_53  and  C_59
                            x       y       z     vdW  Elec       q    Type
                         _______ _______ _______ _____ _____    ______ ____

>  <TORSDO>
F 26

$$$$
=
 OpenBabel11072413403D

 67 74  0  0  1  0  0  0  0  0999 V2000
  161.3580  209.9590  153.1400 C   0  0  2  0  0  3  0  0  0  0  0  0
  159.9050  210.2400  153.5380 C   0  0  2  0  0  3  0  0  0  0  0  0
  160.7560  211.3690  152.9590 C   0  0  2  0  0  3  0  0  0  0  0  0
  161.9510  212.3070  157.0610 C   0  0  0  0  0  2  0  0  0  0  0  0
  160.1700  211.7780  155.5010 N   0  0  0  0  0  2  0  0  0  0  0  0
  159.6490  210.4700  155.0580 C   0  0  2  0  0  0  0  0  0  0  0  0
  160.9920  210.1390  157.0910 C   0  0  2  0  0  3  0  0  0  0  0  0
  160.6090  211.6000  156.8910 C   0  0  1  0  0  3  0  0  0  0  0  0
  160.2330  208.2690  155.8460 O   0  0  0  0  0  0  0  0  0  0  0  0
  162.9650  211.2850  156.5750 C   0  0  2  0  0  3  0  0  0  0  0  0
  162.4600  209.9750  156.9350 N   0  0  0  0  0  2  0  0  0  0  0  0
  160.2810  209.4940  155.9780 C   0  0  0  0  0  0  0  0  0  0  0  0
  164.2860  211.5550  157.2610 C   0  0  0  0  0  3  0  0  0  0  0  0
  165.3200  211.3530  156.6200 O   0  0  0  0  0  0  0  0  0  0  0  0
  158.1940  210.4340  155.2550 N   0  0  0  0  0  2  0  0  0  0  0  0
  155.3120  210.1010  155.4410 C   0  0  0  0  0  1  0  0  0  0  0  0
  155.9440  211.4200  155.1570 C   0  0  0  0  0  0  0  0  0  0  0  0
  157.8150  212.6690  154.2830 C   0  0  0  0  0  3  0  0  0  0  0  0
  155.1350  212.4830  154.8970 N   0  0  0  0  0  0  0  0  0  0  0  0
  155.6410  213.6490  154.4180 C   0  0  0  0  0  3  0  0  0  0  0  0
  156.9790  213.7360  154.0210 C   0  0  0  0  0  3  0  0  0  0  0  0
  157.3180  211.5090  154.9040 C   0  0  0  0  0  0  0  0  0  0  0  0
  160.1720  211.6900  151.6030 C   0  0  0  0  0  2  0  0  0  0  0  0
  162.0350  211.4620  148.7330 C   0  0  2  0  0  3  0  0  0  0  0  0
  161.1490  212.6050  148.4570 C   0  0  0  0  0  0  0  0  0  0  0  0
  160.9650  213.0650  147.3450 O   0  0  0  0  0  0  0  0  0  0  0  0
  161.2790  212.3190  150.7460 C   0  0  2  0  0  3  0  0  0  0  0  0
  161.5970  210.2380  148.0430 N   0  0  0  0  0  1  0  0  0  0  0  0
  160.7940  213.2960  149.6870 C   0  0  2  0  0  3  0  0  0  0  0  0
  162.0560  211.2830  150.1360 O   0  0  0  0  0  0  0  0  0  0  0  0
  157.4160  213.9940  146.0690 N   0  0  0  0  0  0  0  0  0  0  0  0
  158.7670  214.0260  150.8450 O   0  0  0  0  0  0  0  0  0  0  0  0
  157.1930  213.9470  148.4960 C   0  0  0  0  0  2  0  0  0  0  0  0
  159.3690  214.4430  147.3560 C   0  0  0  0  0  3  0  0  0  0  0  0
  158.7770  214.4510  146.1640 C   0  0  0  0  0  3  0  0  0  0  0  0
  159.3540  213.7910  149.7420 C   0  0  0  0  0  0  0  0  0  0  0  0
  158.6550  213.9940  148.5190 N   0  0  0  0  0  0  0  0  0  0  0  0
  156.6710  213.7360  147.0880 C   0  0  0  0  0  3  0  0  0  0  0  0
  161.6210  209.3640  151.7800 C   0  0  0  0  0  2  0  0  0  0  0  0
  160.6900  208.1870  151.4200 C   0  0  0  0  0  2  0  0  0  0  0  0
  161.3940  207.1740  150.4970 C   0  0  2  0  0  3  0  0  0  0  0  0
  160.3310  206.2570  149.8550 C   0  0  0  0  0  2  0  0  0  0  0  0
  160.4720  206.1950  148.3390 C   0  0  0  0  0  2  0  0  0  0  0  0
  162.0840  206.4710  146.5270 C   0  0  0  0  0  2  0  0  0  0  0  0
  162.9330  206.2390  147.7640 C   0  0  0  0  0  2  0  0  0  0  0  0
  161.6370  207.0500  147.8570 C   0  0  0  0  0  3  0  0  0  0  0  0
  162.3880  206.2860  151.2550 C   0  0  0  0  0  2  0  0  0  0  0  0
  162.1090  204.8980  151.0660 O   0  0  0  0  0  0  0  0  0  0  0  0
  160.8220  204.5210  152.9220 O   0  0  0  0  0  0  0  0  0  0  0  0
  161.0090  204.3190  151.6920 C   0  0  0  0  0  0  0  0  0  0  0  0
  160.0230  203.5470  150.8700 C   0  0  0  0  0  2  0  0  0  0  0  0
  160.6520  202.2650  150.3060 C   0  0  1  0  0  3  0  0  0  0  0  0
  160.9160  200.5050  151.7620 O   0  0  0  0  0  0  0  0  0  0  0  0
  162.9490  201.5890  151.4610 C   0  0  0  0  0  1  0  0  0  0  0  0
  161.4800  201.4510  151.2320 C   0  0  0  0  0  0  0  0  0  0  0  0
  159.8140  201.5350  149.2490 C   0  0  0  0  0  2  0  0  0  0  0  0
  160.6460  201.4670  147.9750 C   0  0  2  0  0  0  0  0  0  0  0  0
  161.0820  200.0950  147.5750 C   0  0  2  0  0  3  0  0  0  0  0  0
  161.9820  201.0030  148.1240 O   0  0  0  0  0  0  0  0  0  0  0  0
  161.1600  200.0210  146.1230 N   0  0  0  0  0  2  0  0  0  0  0  0
  162.7400  198.2290  146.0730 N   0  0  0  0  0  1  0  0  0  0  0  0
  161.3540  198.6110  145.7670 C   0  0  2  0  0  3  0  0  0  0  0  0
  161.1390  198.3880  144.2480 C   0  0  0  0  0  1  0  0  0  0  0  0
  160.5360  202.6960  147.0290 C   0  0  0  0  0  2  0  0  0  0  0  0
  159.8410  202.4590  145.6720 C   0  0  0  0  0  2  0  0  0  0  0  0
  161.5480  203.6360  144.9040 C   0  0  0  0  0  1  0  0  0  0  0  0
  160.7920  202.4740  144.6630 O   0  0  0  0  0  0  0  0  0  0  0  0
  1 39  1  6  0  0  0
  1  2  1  0  0  0  0
  2  6  1  1  0  0  0
  3 23  1  6  0  0  0
  3  1  1  0  0  0  0
  3  2  1  0  0  0  0
  5  8  1  0  0  0  0
  6 15  1  1  0  0  0
  6  5  1  0  0  0  0
  6 12  1  0  0  0  0
  7 12  1  6  0  0  0
  8  4  1  6  0  0  0
  8  7  1  0  0  0  0
  9 12  2  0  0  0  0
 10 11  1  0  0  0  0
 10  4  1  0  0  0  0
 10 13  1  1  0  0  0
 11  7  1  0  0  0  0
 14 13  2  0  0  0  0
 17 16  1  0  0  0  0
 18 22  2  0  0  0  0
 19 17  2  0  0  0  0
 20 19  1  0  0  0  0
 21 18  1  0  0  0  0
 21 20  2  0  0  0  0
 22 17  1  0  0  0  0
 22 15  1  0  0  0  0
 24 28  1  6  0  0  0
 24 30  1  0  0  0  0
 25 24  1  0  0  0  0
 25 29  1  0  0  0  0
 26 25  2  0  0  0  0
 27 23  1  6  0  0  0
 29 36  1  6  0  0  0
 29 27  1  0  0  0  0
 30 27  1  0  0  0  0
 31 35  1  0  0  0  0
 31 38  2  0  0  0  0
 33 37  1  0  0  0  0
 34 37  1  0  0  0  0
 35 34  2  0  0  0  0
 36 32  2  0  0  0  0
 37 36  1  0  0  0  0
 38 33  1  0  0  0  0
 40 39  1  0  0  0  0
 41 42  1  1  0  0  0
 41 47  1  0  0  0  0
 41 40  1  0  0  0  0
 43 42  1  0  0  0  0
 44 45  1  0  0  0  0
 44 46  1  0  0  0  0
 45 46  1  0  0  0  0
 46 43  1  0  0  0  0
 48 47  1  0  0  0  0
 48 50  1  0  0  0  0
 50 49  2  0  0  0  0
 51 50  1  0  0  0  0
 52 56  1  1  0  0  0
 52 51  1  0  0  0  0
 52 55  1  0  0  0  0
 55 54  1  0  0  0  0
 55 53  2  0  0  0  0
 57 64  1  6  0  0  0
 57 59  1  0  0  0  0
 57 56  1  0  0  0  0
 58 60  1  6  0  0  0
 58 57  1  0  0  0  0
 58 59  1  0  0  0  0
 62 63  1  6  0  0  0
 62 61  1  0  0  0  0
 62 60  1  0  0  0  0
 65 64  1  0  0  0  0
 67 66  1  0  0  0  0
 67 65  1  0  0  0  0
M  END
>  <MODEL>
5

>  <REMARK>
 VINA RESULT:       1.6      2.480      5.088
  Name = 
  26 active torsions:
  status: ('A' for Active; 'I' for Inactive)
    1  A    between atoms: C_2  and  C_52
    2  A    between atoms: C_2  and  C_54
    3  A    between atoms: C_6  and  C_54
    4  A    between atoms: C_6  and  O_67
    5  A    between atoms: C_7  and  C_36
    6  A    between atoms: C_7  and  C_63
    7  A    between atoms: N_10  and  C_21
    8  A    between atoms: N_10  and  C_47
    9  A    between atoms: C_14  and  N_33
   10  A    between atoms: C_15  and  O_29
   11  A    between atoms: C_15  and  C_51
   12  A    between atoms: C_19  and  C_30
   13  A    between atoms: C_19  and  C_61
   14  A    between atoms: C_21  and  C_41
   15  A    between atoms: C_22  and  N_33
   16  A    between atoms: C_23  and  C_51
   17  A    between atoms: C_23  and  C_53
   18  A    between atoms: C_26  and  CA_49
   19  A    between atoms: O_29  and  C_66
   20  A    between atoms: C_31  and  C_32
   21  A    between atoms: C_31  and  C_52
   22  A    between atoms: C_31  and  C_60
   23  A    between atoms: C_32  and  C_66
   24  A    between atoms: C_42  and  C_48
   25  A    between atoms: C_51  and  C_63
   26  A    between atoms: C_53  and  C_59
                            x       y       z     vdW  Elec       q    Type
                         _______ _______ _______ _____ _____    ______ ____

>  <TORSDO>
F 26

$$$$
=
 OpenBabel11072413403D

 67 74  0  0  1  0  0  0  0  0999 V2000
  161.0800  210.4750  152.6510 C   0  0  2  0  0  3  0  0  0  0  0  0
  159.6100  210.7170  153.0100 C   0  0  2  0  0  3  0  0  0  0  0  0
  160.4820  211.8960  152.5810 C   0  0  2  0  0  3  0  0  0  0  0  0
  161.5140  212.3950  156.8090 C   0  0  0  0  0  2  0  0  0  0  0  0
  159.8000  212.0500  155.1260 N   0  0  0  0  0  2  0  0  0  0  0  0
  159.2860  210.8000  154.5320 C   0  0  2  0  0  0  0  0  0  0  0  0
  160.5310  210.2490  156.5810 C   0  0  2  0  0  3  0  0  0  0  0  0
  160.1740  211.7290  156.5100 C   0  0  1  0  0  3  0  0  0  0  0  0
  159.8100  208.5240  155.1240 O   0  0  0  0  0  0  0  0  0  0  0  0
  162.5380  211.4110  156.2700 C   0  0  2  0  0  3  0  0  0  0  0  0
  162.0020  210.0800  156.4750 N   0  0  0  0  0  2  0  0  0  0  0  0
  159.8660  209.7280  155.3790 C   0  0  0  0  0  0  0  0  0  0  0  0
  163.8290  211.5920  157.0380 C   0  0  0  0  0  3  0  0  0  0  0  0
  164.8550  211.8230  156.3940 O   0  0  0  0  0  0  0  0  0  0  0  0
  157.8230  210.7670  154.6600 N   0  0  0  0  0  2  0  0  0  0  0  0
  155.8510  210.7270  156.7950 C   0  0  0  0  0  1  0  0  0  0  0  0
  156.2010  211.9740  156.0590 C   0  0  0  0  0  0  0  0  0  0  0  0
  157.0330  213.0220  154.0500 C   0  0  0  0  0  3  0  0  0  0  0  0
  155.5120  213.1110  156.3460 N   0  0  0  0  0  0  0  0  0  0  0  0
  155.6260  214.2170  155.5650 C   0  0  0  0  0  3  0  0  0  0  0  0
  156.3230  214.1660  154.3530 C   0  0  0  0  0  3  0  0  0  0  0  0
  157.0240  211.9220  154.9260 C   0  0  0  0  0  0  0  0  0  0  0  0
  159.9570  212.3470  151.2370 C   0  0  0  0  0  2  0  0  0  0  0  0
  162.4720  212.4200  148.9080 C   0  0  2  0  0  3  0  0  0  0  0  0
  161.4240  213.2430  148.2820 C   0  0  0  0  0  0  0  0  0  0  0  0
  161.4120  213.5410  147.1020 O   0  0  0  0  0  0  0  0  0  0  0  0
  161.0460  213.1900  150.5610 C   0  0  2  0  0  3  0  0  0  0  0  0
  162.5450  211.0710  148.3240 N   0  0  0  0  0  1  0  0  0  0  0  0
  160.6100  213.9020  149.2910 C   0  0  2  0  0  3  0  0  0  0  0  0
  162.1870  212.3680  150.2930 O   0  0  0  0  0  0  0  0  0  0  0  0
  158.1590  213.1310  145.0030 N   0  0  0  0  0  0  0  0  0  0  0  0
  158.2460  214.1840  149.8530 O   0  0  0  0  0  0  0  0  0  0  0  0
  157.3640  213.3510  147.2970 C   0  0  0  0  0  2  0  0  0  0  0  0
  159.5660  214.2790  146.5430 C   0  0  0  0  0  3  0  0  0  0  0  0
  159.3020  213.9610  145.2790 C   0  0  0  0  0  3  0  0  0  0  0  0
  159.1250  213.9760  148.9580 C   0  0  0  0  0  0  0  0  0  0  0  0
  158.7190  213.8090  147.6030 N   0  0  0  0  0  0  0  0  0  0  0  0
  157.2720  212.8140  145.8820 C   0  0  0  0  0  3  0  0  0  0  0  0
  161.4040  210.0130  151.2540 C   0  0  0  0  0  2  0  0  0  0  0  0
  162.2290  208.7100  151.1990 C   0  0  0  0  0  2  0  0  0  0  0  0
  161.3190  207.4660  151.2190 C   0  0  2  0  0  3  0  0  0  0  0  0
  162.1970  206.2000  151.1290 C   0  0  0  0  0  2  0  0  0  0  0  0
  161.8680  205.1980  152.2290 C   0  0  0  0  0  2  0  0  0  0  0  0
  160.5780  203.2460  152.9230 C   0  0  0  0  0  2  0  0  0  0  0  0
  161.2770  202.8110  151.6470 C   0  0  0  0  0  2  0  0  0  0  0  0
  160.7620  204.2450  151.7950 C   0  0  0  0  0  3  0  0  0  0  0  0
  160.3350  207.4430  150.0430 C   0  0  0  0  0  2  0  0  0  0  0  0
  160.9440  207.9010  148.8350 O   0  0  0  0  0  0  0  0  0  0  0  0
  162.5590  207.2360  147.3540 O   0  0  0  0  0  0  0  0  0  0  0  0
  161.4670  206.9810  147.9300 C   0  0  0  0  0  0  0  0  0  0  0  0
  160.7700  205.6710  147.7330 C   0  0  0  0  0  2  0  0  0  0  0  0
  161.7510  204.5810  147.2770 C   0  0  1  0  0  3  0  0  0  0  0  0
  161.9040  202.3360  146.8020 O   0  0  0  0  0  0  0  0  0  0  0  0
  160.4560  202.6650  148.5890 C   0  0  0  0  0  1  0  0  0  0  0  0
  161.3500  203.1690  147.5040 C   0  0  0  0  0  0  0  0  0  0  0  0
  162.5580  204.9120  146.0160 C   0  0  0  0  0  2  0  0  0  0  0  0
  161.5640  205.1350  144.8840 C   0  0  2  0  0  0  0  0  0  0  0  0
  161.9740  206.1540  143.8720 C   0  0  2  0  0  3  0  0  0  0  0  0
  160.9820  206.4310  144.8080 O   0  0  0  0  0  0  0  0  0  0  0  0
  161.4410  205.7790  142.5700 N   0  0  0  0  0  2  0  0  0  0  0  0
  161.1110  207.9910  141.7290 N   0  0  0  0  0  1  0  0  0  0  0  0
  161.9190  206.7690  141.5990 C   0  0  2  0  0  3  0  0  0  0  0  0
  161.7440  206.2530  140.1480 C   0  0  0  0  0  1  0  0  0  0  0  0
  160.5310  203.9950  144.6570 C   0  0  0  0  0  2  0  0  0  0  0  0
  159.0450  204.4100  144.6230 C   0  0  0  0  0  2  0  0  0  0  0  0
  159.1520  202.2040  144.7220 C   0  0  0  0  0  1  0  0  0  0  0  0
  158.2550  203.2740  144.5470 O   0  0  0  0  0  0  0  0  0  0  0  0
  1 39  1  6  0  0  0
  1  2  1  0  0  0  0
  2  6  1  1  0  0  0
  3 23  1  6  0  0  0
  3  1  1  0  0  0  0
  3  2  1  0  0  0  0
  5  8  1  0  0  0  0
  6 15  1  1  0  0  0
  6  5  1  0  0  0  0
  6 12  1  0  0  0  0
  7 12  1  6  0  0  0
  8  7  1  0  0  0  0
  8  4  1  6  0  0  0
  9 12  2  0  0  0  0
 10 11  1  0  0  0  0
 10  4  1  0  0  0  0
 10 13  1  1  0  0  0
 11  7  1  0  0  0  0
 14 13  2  0  0  0  0
 15 22  1  0  0  0  0
 17 19  1  0  0  0  0
 17 16  1  0  0  0  0
 18 21  2  0  0  0  0
 18 22  1  0  0  0  0
 20 19  2  0  0  0  0
 21 20  1  0  0  0  0
 22 17  2  0  0  0  0
 24 28  1  6  0  0  0
 24 30  1  0  0  0  0
 25 24  1  0  0  0  0
 25 29  1  0  0  0  0
 26 25  2  0  0  0  0
 27 23  1  6  0  0  0
 29 36  1  6  0  0  0
 29 27  1  0  0  0  0
 30 27  1  0  0  0  0
 31 35  1  0  0  0  0
 31 38  2  0  0  0  0
 33 37  1  0  0  0  0
 34 37  1  0  0  0  0
 35 34  2  0  0  0  0
 36 32  2  0  0  0  0
 37 36  1  0  0  0  0
 38 33  1  0  0  0  0
 40 41  1  0  0  0  0
 40 39  1  0  0  0  0
 41 47  1  6  0  0  0
 42 41  1  0  0  0  0
 42 43  1  0  0  0  0
 45 46  1  0  0  0  0
 45 44  1  0  0  0  0
 46 43  1  0  0  0  0
 46 44  1  0  0  0  0
 48 47  1  0  0  0  0
 49 50  2  0  0  0  0
 50 48  1  0  0  0  0
 51 50  1  0  0  0  0
 52 56  1  6  0  0  0
 52 55  1  0  0  0  0
 52 51  1  0  0  0  0
 53 55  2  0  0  0  0
 55 54  1  0  0  0  0
 57 64  1  6  0  0  0
 57 56  1  0  0  0  0
 58 60  1  6  0  0  0
 58 59  1  0  0  0  0
 58 57  1  0  0  0  0
 59 57  1  0  0  0  0
 62 63  1  6  0  0  0
 62 61  1  0  0  0  0
 62 60  1  0  0  0  0
 65 64  1  0  0  0  0
 67 65  1  0  0  0  0
 67 66  1  0  0  0  0
M  END
>  <MODEL>
6

>  <REMARK>
 VINA RESULT:       1.6      2.566      4.908
  Name = 
  26 active torsions:
  status: ('A' for Active; 'I' for Inactive)
    1  A    between atoms: C_2  and  C_52
    2  A    between atoms: C_2  and  C_54
    3  A    between atoms: C_6  and  C_54
    4  A    between atoms: C_6  and  O_67
    5  A    between atoms: C_7  and  C_36
    6  A    between atoms: C_7  and  C_63
    7  A    between atoms: N_10  and  C_21
    8  A    between atoms: N_10  and  C_47
    9  A    between atoms: C_14  and  N_33
   10  A    between atoms: C_15  and  O_29
   11  A    between atoms: C_15  and  C_51
   12  A    between atoms: C_19  and  C_30
   13  A    between atoms: C_19  and  C_61
   14  A    between atoms: C_21  and  C_41
   15  A    between atoms: C_22  and  N_33
   16  A    between atoms: C_23  and  C_51
   17  A    between atoms: C_23  and  C_53
   18  A    between atoms: C_26  and  CA_49
   19  A    between atoms: O_29  and  C_66
   20  A    between atoms: C_31  and  C_32
   21  A    between atoms: C_31  and  C_52
   22  A    between atoms: C_31  and  C_60
   23  A    between atoms: C_32  and  C_66
   24  A    between atoms: C_42  and  C_48
   25  A    between atoms: C_51  and  C_63
   26  A    between atoms: C_53  and  C_59
                            x       y       z     vdW  Elec       q    Type
                         _______ _______ _______ _____ _____    ______ ____

>  <TORSDO>
F 26

$$$$
