=
 OpenBabel11072413073D

 35 35  0  0  1  0  0  0  0  0999 V2000
  161.6770  209.6400  151.5640 C   0  0  0  0  0  0  0  0  0  0  0  0
  162.0820  209.9940  150.3780 N   0  0  0  0  0  0  0  0  0  0  0  0
  161.6710  207.8340  149.4000 C   0  0  0  0  0  3  0  0  0  0  0  0
  161.9720  209.1250  149.2390 C   0  0  0  0  0  3  0  0  0  0  0  0
  160.9630  208.3240  151.7400 C   0  0  0  0  0  2  0  0  0  0  0  0
  161.8100  210.5730  152.6480 N   0  0  0  0  0  2  0  0  0  0  0  0
  161.5380  207.2760  150.7880 C   0  0  1  0  0  3  0  0  0  0  0  0
  161.5120  210.3540  154.0340 C   0  0  0  0  0  3  0  0  0  0  0  0
  160.3620  210.7200  154.5990 C   0  0  0  0  0  3  0  0  0  0  0  0
  161.2040  210.9620  156.9550 C   0  0  0  0  0  1  0  0  0  0  0  0
  160.0380  210.5010  156.0600 C   0  0  1  0  0  0  0  0  0  0  0  0
  158.7980  211.3550  156.3970 C   0  0  1  0  0  3  0  0  0  0  0  0
  159.1770  212.6480  156.7690 O   0  0  0  0  0  1  0  0  0  0  0  0
  157.7770  211.4340  155.2670 C   0  0  0  0  0  2  0  0  0  0  0  0
  157.3900  212.8800  155.0280 C   0  0  0  0  0  2  0  0  0  0  0  0
  157.4760  213.1850  153.5990 C   0  0  0  0  0  0  0  0  0  0  0  0
  157.5460  213.4230  152.4690 N   0  0  0  0  0  0  0  0  0  0  0  0
  160.5740  208.5390  157.2060 C   0  0  0  0  0  1  0  0  0  0  0  0
  159.6800  209.1470  156.3040 O   0  0  0  0  0  0  0  0  0  0  0  0
  160.7230  206.1420  150.7780 O   0  0  0  0  0  0  0  0  0  0  0  0
  162.8240  204.8390  151.6550 O   0  0  0  0  0  0  0  0  0  0  0  0
  161.1800  205.9610  153.8850 S   0  0  0  0  0  1  0  0  0  0  0  0
  161.3620  205.0980  151.9560 P   0  0  1  0  0  0  0  0  0  0  0  0
  160.4980  203.6390  151.8970 O   0  0  0  0  0  0  0  0  0  0  0  0
  161.1500  202.8480  150.9460 C   0  0  0  0  0  2  0  0  0  0  0  0
  160.4440  202.9600  149.6050 C   0  0  0  0  0  2  0  0  0  0  0  0
  161.3780  202.5830  148.4640 C   0  0  2  0  0  3  0  0  0  0  0  0
  161.6890  203.8250  147.6260 C   0  0  2  0  0  3  0  0  0  0  0  0
  160.8350  204.8820  147.9550 O   0  0  0  0  0  1  0  0  0  0  0  0
  161.6100  203.5180  146.1370 C   0  0  0  0  0  2  0  0  0  0  0  0
  162.6180  205.6980  145.4710 O   0  0  0  0  0  1  0  0  0  0  0  0
  161.5880  204.7780  145.3420 C   0  0  0  0  0  0  0  0  0  0  0  0
  160.6500  204.9930  144.5290 O   0  0  0  0  0  0  0  0  0  0  0  0
  161.4780  200.2720  147.8300 O   0  0  0  0  0  1  0  0  0  0  0  0
  160.7650  201.4550  147.6350 C   0  0  0  0  0  2  0  0  0  0  0  0
  1  5  1  0  0  0  0
  1  6  1  0  0  0  0
  2  1  2  0  0  0  0
  3  7  1  0  0  0  0
  4  3  2  0  0  0  0
  4  2  1  0  0  0  0
  6  8  1  0  0  0  0
  7 20  1  6  0  0  0
  7  5  1  0  0  0  0
  8  9  2  0  0  0  0
  9 11  1  0  0  0  0
 11 19  1  0  0  0  0
 11 12  1  0  0  0  0
 11 10  1  1  0  0  0
 12 13  1  6  0  0  0
 14 12  1  0  0  0  0
 15 14  1  0  0  0  0
 16 15  1  0  0  0  0
 17 16  3  0  0  0  0
 19 18  1  0  0  0  0
 20 23  1  0  0  0  0
 23 21  2  6  0  0  0
 23 22  1  0  0  0  0
 24 23  1  0  0  0  0
 25 24  1  0  0  0  0
 26 25  1  0  0  0  0
 27 35  1  6  0  0  0
 27 26  1  0  0  0  0
 28 29  1  1  0  0  0
 28 27  1  0  0  0  0
 30 28  1  0  0  0  0
 32 31  1  0  0  0  0
 32 30  1  0  0  0  0
 33 32  2  0  0  0  0
 35 34  1  0  0  0  0
M  END
>  <MODEL>
1

>  <REMARK>
 VINA RESULT:      -6.0      0.000      0.000
  Name = 
  17 active torsions:
  status: ('A' for Active; 'I' for Inactive)
    1  A    between atoms: C_3  and  C_4
    2  A    between atoms: C_3  and  C_21
    3  A    between atoms: C_3  and  C_31
    4  A    between atoms: C_4  and  C_27
    5  A    between atoms: C_5  and  N_30
    6  A    between atoms: C_7  and  C_10
    7  A    between atoms: C_8  and  C_15
    8  A    between atoms: C_10  and  C_19
    9  A    between atoms: C_12  and  C_15
   10  A    between atoms: C_12  and  C_19
   11  A    between atoms: C_15  and  O_33
   12  A    between atoms: O_16  and  P_22
   13  A    between atoms: O_16  and  C_35
   14  A    between atoms: C_18  and  C_21
   15  A    between atoms: C_18  and  C_26
   16  A    between atoms: P_22  and  O_32
   17  A    between atoms: C_27  and  O_32
                            x       y       z     vdW  Elec       q    Type
                         _______ _______ _______ _____ _____    ______ ____

>  <TORSDO>
F 17

$$$$
=
 OpenBabel11072413073D

 35 35  0  0  1  0  0  0  0  0999 V2000
  161.2340  205.9970  153.5660 C   0  0  0  0  0  0  0  0  0  0  0  0
  160.9040  204.7820  153.2320 N   0  0  0  0  0  0  0  0  0  0  0  0
  161.7070  204.9950  150.9730 C   0  0  0  0  0  3  0  0  0  0  0  0
  161.2470  204.2170  151.9560 C   0  0  0  0  0  3  0  0  0  0  0  0
  162.1030  206.8080  152.6380 C   0  0  0  0  0  2  0  0  0  0  0  0
  160.8650  206.4820  154.8660 N   0  0  0  0  0  2  0  0  0  0  0  0
  161.7770  206.4800  151.1810 C   0  0  1  0  0  3  0  0  0  0  0  0
  161.0510  207.8040  155.3930 C   0  0  0  0  0  3  0  0  0  0  0  0
  160.5600  208.8970  154.8100 C   0  0  0  0  0  3  0  0  0  0  0  0
  162.0120  210.9470  154.7520 C   0  0  0  0  0  1  0  0  0  0  0  0
  160.7530  210.2950  155.3520 C   0  0  1  0  0  0  0  0  0  0  0  0
  159.5250  211.1320  154.9340 C   0  0  1  0  0  3  0  0  0  0  0  0
  159.2890  211.0080  153.5630 O   0  0  0  0  0  1  0  0  0  0  0  0
  158.2510  210.7850  155.7000 C   0  0  0  0  0  2  0  0  0  0  0  0
  157.0730  211.5150  155.0880 C   0  0  0  0  0  2  0  0  0  0  0  0
  155.8710  210.6880  155.1910 C   0  0  0  0  0  0  0  0  0  0  0  0
  154.9220  210.0310  155.2740 N   0  0  0  0  0  0  0  0  0  0  0  0
  162.0230  210.7370  157.2610 C   0  0  0  0  0  1  0  0  0  0  0  0
  160.7790  210.2910  156.7740 O   0  0  0  0  0  0  0  0  0  0  0  0
  162.7390  207.0430  150.3400 O   0  0  0  0  0  0  0  0  0  0  0  0
  160.4200  207.3700  149.1570 O   0  0  0  0  0  0  0  0  0  0  0  0
  162.0400  209.8810  149.1760 S   0  0  0  0  0  1  0  0  0  0  0  0
  161.8780  207.7690  149.0680 P   0  0  1  0  0  0  0  0  0  0  0  0
  162.5330  207.2180  147.6020 O   0  0  0  0  0  0  0  0  0  0  0  0
  161.4780  206.6020  146.9220 C   0  0  0  0  0  2  0  0  0  0  0  0
  161.3460  205.1560  147.3710 C   0  0  0  0  0  2  0  0  0  0  0  0
  161.4930  204.2030  146.1920 C   0  0  2  0  0  3  0  0  0  0  0  0
  161.4760  202.7590  146.6970 C   0  0  2  0  0  3  0  0  0  0  0  0
  160.5530  201.9870  145.9850 O   0  0  0  0  0  1  0  0  0  0  0  0
  161.1820  202.7020  148.1890 C   0  0  0  0  0  2  0  0  0  0  0  0
  159.7510  201.0860  149.4360 O   0  0  0  0  0  1  0  0  0  0  0  0
  160.8380  201.3130  148.6030 C   0  0  0  0  0  0  0  0  0  0  0  0
  161.5140  200.3420  148.1730 O   0  0  0  0  0  0  0  0  0  0  0  0
  163.8770  204.4550  146.2340 O   0  0  0  0  0  1  0  0  0  0  0  0
  162.7590  204.5350  145.4040 C   0  0  0  0  0  2  0  0  0  0  0  0
  1  6  1  0  0  0  0
  2  1  2  0  0  0  0
  3  7  1  0  0  0  0
  3  4  2  0  0  0  0
  4  2  1  0  0  0  0
  5  1  1  0  0  0  0
  6  8  1  0  0  0  0
  7 20  1  6  0  0  0
  7  5  1  0  0  0  0
  9 11  1  0  0  0  0
  9  8  2  0  0  0  0
 11 10  1  6  0  0  0
 11 19  1  0  0  0  0
 12 13  1  6  0  0  0
 12 11  1  0  0  0  0
 12 14  1  0  0  0  0
 15 16  1  0  0  0  0
 15 14  1  0  0  0  0
 16 17  3  0  0  0  0
 19 18  1  0  0  0  0
 23 21  2  1  0  0  0
 23 22  1  0  0  0  0
 23 20  1  0  0  0  0
 24 23  1  0  0  0  0
 25 26  1  0  0  0  0
 25 24  1  0  0  0  0
 27 35  1  1  0  0  0
 27 28  1  0  0  0  0
 27 26  1  0  0  0  0
 28 29  1  6  0  0  0
 28 30  1  0  0  0  0
 30 32  1  0  0  0  0
 32 31  1  0  0  0  0
 33 32  2  0  0  0  0
 35 34  1  0  0  0  0
M  END
>  <MODEL>
2

>  <REMARK>
 VINA RESULT:      -5.8      2.681      3.922
  Name = 
  17 active torsions:
  status: ('A' for Active; 'I' for Inactive)
    1  A    between atoms: C_3  and  C_4
    2  A    between atoms: C_3  and  C_21
    3  A    between atoms: C_3  and  C_31
    4  A    between atoms: C_4  and  C_27
    5  A    between atoms: C_5  and  N_30
    6  A    between atoms: C_7  and  C_10
    7  A    between atoms: C_8  and  C_15
    8  A    between atoms: C_10  and  C_19
    9  A    between atoms: C_12  and  C_15
   10  A    between atoms: C_12  and  C_19
   11  A    between atoms: C_15  and  O_33
   12  A    between atoms: O_16  and  P_22
   13  A    between atoms: O_16  and  C_35
   14  A    between atoms: C_18  and  C_21
   15  A    between atoms: C_18  and  C_26
   16  A    between atoms: P_22  and  O_32
   17  A    between atoms: C_27  and  O_32
                            x       y       z     vdW  Elec       q    Type
                         _______ _______ _______ _____ _____    ______ ____

>  <TORSDO>
F 17

$$$$
=
 OpenBabel11072413073D

 35 35  0  0  1  0  0  0  0  0999 V2000
  161.8860  209.0030  150.6680 C   0  0  0  0  0  0  0  0  0  0  0  0
  162.3180  210.1220  151.1770 N   0  0  0  0  0  0  0  0  0  0  0  0
  161.7800  209.5050  153.4400 C   0  0  0  0  0  3  0  0  0  0  0  0
  162.3830  210.3450  152.5950 C   0  0  0  0  0  3  0  0  0  0  0  0
  161.5480  207.8550  151.5860 C   0  0  0  0  0  2  0  0  0  0  0  0
  161.8640  208.8540  149.2410 N   0  0  0  0  0  2  0  0  0  0  0  0
  160.9540  208.3770  152.8940 C   0  0  1  0  0  3  0  0  0  0  0  0
  161.3490  207.7510  148.4820 C   0  0  0  0  0  3  0  0  0  0  0  0
  162.1240  206.8070  147.9500 C   0  0  0  0  0  3  0  0  0  0  0  0
  162.7080  205.0220  146.2790 C   0  0  0  0  0  1  0  0  0  0  0  0
  161.5950  205.6420  147.1440 C   0  0  1  0  0  0  0  0  0  0  0  0
  161.0980  204.5720  148.1390 C   0  0  1  0  0  3  0  0  0  0  0  0
  161.6600  203.3270  147.8450 O   0  0  0  0  0  1  0  0  0  0  0  0
  161.3690  204.9160  149.6010 C   0  0  0  0  0  2  0  0  0  0  0  0
  160.8940  203.7830  150.4880 C   0  0  0  0  0  2  0  0  0  0  0  0
  161.0300  204.1660  151.8940 C   0  0  0  0  0  0  0  0  0  0  0  0
  161.1350  204.4710  153.0050 N   0  0  0  0  0  0  0  0  0  0  0  0
  160.6840  205.7790  144.9990 C   0  0  0  0  0  1  0  0  0  0  0  0
  160.4690  206.0310  146.3680 O   0  0  0  0  0  0  0  0  0  0  0  0
  160.8720  207.3410  153.8270 O   0  0  0  0  0  0  0  0  0  0  0  0
  159.2420  207.1470  155.8740 O   0  0  0  0  0  0  0  0  0  0  0  0
  161.8800  208.3230  156.6400 S   0  0  0  0  0  1  0  0  0  0  0  0
  160.2940  208.0470  155.2590 P   0  0  1  0  0  0  0  0  0  0  0  0
  159.6050  209.5490  154.8700 O   0  0  0  0  0  0  0  0  0  0  0  0
  159.2070  210.1110  156.0860 C   0  0  0  0  0  2  0  0  0  0  0  0
  158.6000  211.4840  155.8480 C   0  0  0  0  0  2  0  0  0  0  0  0
  157.5650  211.4380  154.7320 C   0  0  2  0  0  3  0  0  0  0  0  0
  157.8600  212.5430  153.7150 C   0  0  2  0  0  3  0  0  0  0  0  0
  156.6820  213.1670  153.2930 O   0  0  0  0  0  1  0  0  0  0  0  0
  158.6340  212.0000  152.5230 C   0  0  0  0  0  2  0  0  0  0  0  0
  160.1850  212.8060  150.7450 O   0  0  0  0  0  0  0  0  0  0  0  0
  159.3940  213.0910  151.8500 C   0  0  0  0  0  0  0  0  0  0  0  0
  159.2950  214.2750  152.2640 O   0  0  0  0  0  1  0  0  0  0  0  0
  155.3870  210.4520  154.9080 O   0  0  0  0  0  1  0  0  0  0  0  0
  156.1580  211.5400  155.3170 C   0  0  0  0  0  2  0  0  0  0  0  0
  1  2  2  0  0  0  0
  1  5  1  0  0  0  0
  2  4  1  0  0  0  0
  4  3  2  0  0  0  0
  5  7  1  0  0  0  0
  6  1  1  0  0  0  0
  7  3  1  0  0  0  0
  7 20  1  1  0  0  0
  8  6  1  0  0  0  0
  9  8  2  0  0  0  0
 11 10  1  6  0  0  0
 11  9  1  0  0  0  0
 11 12  1  0  0  0  0
 12 13  1  6  0  0  0
 12 14  1  0  0  0  0
 14 15  1  0  0  0  0
 15 16  1  0  0  0  0
 16 17  3  0  0  0  0
 18 19  1  0  0  0  0
 19 11  1  0  0  0  0
 20 23  1  0  0  0  0
 23 21  2  1  0  0  0
 23 22  1  0  0  0  0
 24 23  1  0  0  0  0
 24 25  1  0  0  0  0
 26 25  1  0  0  0  0
 27 35  1  1  0  0  0
 27 26  1  0  0  0  0
 28 29  1  6  0  0  0
 28 27  1  0  0  0  0
 30 28  1  0  0  0  0
 31 32  2  0  0  0  0
 32 33  1  0  0  0  0
 32 30  1  0  0  0  0
 34 35  1  0  0  0  0
M  END
>  <MODEL>
3

>  <REMARK>
 VINA RESULT:      -5.7      2.642      9.110
  Name = 
  17 active torsions:
  status: ('A' for Active; 'I' for Inactive)
    1  A    between atoms: C_3  and  C_4
    2  A    between atoms: C_3  and  C_21
    3  A    between atoms: C_3  and  C_31
    4  A    between atoms: C_4  and  C_27
    5  A    between atoms: C_5  and  N_30
    6  A    between atoms: C_7  and  C_10
    7  A    between atoms: C_8  and  C_15
    8  A    between atoms: C_10  and  C_19
    9  A    between atoms: C_12  and  C_15
   10  A    between atoms: C_12  and  C_19
   11  A    between atoms: C_15  and  O_33
   12  A    between atoms: O_16  and  P_22
   13  A    between atoms: O_16  and  C_35
   14  A    between atoms: C_18  and  C_21
   15  A    between atoms: C_18  and  C_26
   16  A    between atoms: P_22  and  O_32
   17  A    between atoms: C_27  and  O_32
                            x       y       z     vdW  Elec       q    Type
                         _______ _______ _______ _____ _____    ______ ____

>  <TORSDO>
F 17

$$$$
=
 OpenBabel11072413073D

 35 35  0  0  1  0  0  0  0  0999 V2000
  161.3080  210.2310  151.0550 C   0  0  0  0  0  0  0  0  0  0  0  0
  161.9640  210.2860  149.9300 N   0  0  0  0  0  0  0  0  0  0  0  0
  161.8950  207.9070  149.5700 C   0  0  0  0  0  3  0  0  0  0  0  0
  162.1650  209.1280  149.1020 C   0  0  0  0  0  3  0  0  0  0  0  0
  160.6350  208.9430  151.4560 C   0  0  0  0  0  2  0  0  0  0  0  0
  161.1400  211.4360  151.8170 N   0  0  0  0  0  2  0  0  0  0  0  0
  161.4660  207.7440  151.0000 C   0  0  1  0  0  3  0  0  0  0  0  0
  160.5360  211.5780  153.1110 C   0  0  0  0  0  3  0  0  0  0  0  0
  159.2230  211.7220  153.2910 C   0  0  0  0  0  3  0  0  0  0  0  0
  157.5730  210.7370  154.9110 C   0  0  0  0  0  1  0  0  0  0  0  0
  158.5750  211.8770  154.6480 C   0  0  1  0  0  0  0  0  0  0  0  0
  159.6910  211.7990  155.7110 C   0  0  1  0  0  3  0  0  0  0  0  0
  159.5950  212.8680  156.6060 O   0  0  0  0  0  1  0  0  0  0  0  0
  159.7110  210.4880  156.4910 C   0  0  0  0  0  2  0  0  0  0  0  0
  161.0110  210.3710  157.2610 C   0  0  0  0  0  2  0  0  0  0  0  0
  162.1420  210.5380  156.3480 C   0  0  0  0  0  0  0  0  0  0  0  0
  163.0390  210.6700  155.6290 N   0  0  0  0  0  0  0  0  0  0  0  0
  157.1500  213.4500  153.6760 C   0  0  0  0  0  1  0  0  0  0  0  0
  157.9740  213.1590  154.7810 O   0  0  0  0  0  0  0  0  0  0  0  0
  160.7300  206.5680  151.1540 O   0  0  0  0  0  0  0  0  0  0  0  0
  162.9660  205.8040  152.2940 O   0  0  0  0  0  0  0  0  0  0  0  0
  160.8800  206.5600  154.2960 S   0  0  0  0  0  1  0  0  0  0  0  0
  161.4600  205.7240  152.4350 P   0  0  1  0  0  0  0  0  0  0  0  0
  160.9630  204.1030  152.3550 O   0  0  0  0  0  0  0  0  0  0  0  0
  161.6560  203.5460  151.2760 C   0  0  0  0  0  2  0  0  0  0  0  0
  160.8110  203.6340  150.0160 C   0  0  0  0  0  2  0  0  0  0  0  0
  161.3950  202.7710  148.9060 C   0  0  2  0  0  3  0  0  0  0  0  0
  161.1540  203.4440  147.5530 C   0  0  2  0  0  3  0  0  0  0  0  0
  161.0220  202.4970  146.5340 O   0  0  0  0  0  1  0  0  0  0  0  0
  162.2650  204.4310  147.2240 C   0  0  0  0  0  2  0  0  0  0  0  0
  162.4790  205.9520  145.2620 O   0  0  0  0  0  0  0  0  0  0  0  0
  161.7510  205.5350  146.3670 C   0  0  0  0  0  0  0  0  0  0  0  0
  160.6410  206.0680  146.6270 O   0  0  0  0  0  1  0  0  0  0  0  0
  159.6710  201.3530  149.7820 O   0  0  0  0  0  1  0  0  0  0  0  0
  160.8060  201.3620  148.9730 C   0  0  0  0  0  2  0  0  0  0  0  0
  1  5  1  0  0  0  0
  1  6  1  0  0  0  0
  2  1  2  0  0  0  0
  3  7  1  0  0  0  0
  4  3  2  0  0  0  0
  4  2  1  0  0  0  0
  6  8  1  0  0  0  0
  7 20  1  6  0  0  0
  7  5  1  0  0  0  0
  8  9  2  0  0  0  0
  9 11  1  0  0  0  0
 11 19  1  0  0  0  0
 11 10  1  1  0  0  0
 11 12  1  0  0  0  0
 12 14  1  0  0  0  0
 12 13  1  1  0  0  0
 14 15  1  0  0  0  0
 16 15  1  0  0  0  0
 17 16  3  0  0  0  0
 18 19  1  0  0  0  0
 20 23  1  0  0  0  0
 23 21  2  6  0  0  0
 23 22  1  0  0  0  0
 24 23  1  0  0  0  0
 25 24  1  0  0  0  0
 26 25  1  0  0  0  0
 27 35  1  6  0  0  0
 27 26  1  0  0  0  0
 28 29  1  6  0  0  0
 28 27  1  0  0  0  0
 30 28  1  0  0  0  0
 31 32  2  0  0  0  0
 32 33  1  0  0  0  0
 32 30  1  0  0  0  0
 35 34  1  0  0  0  0
M  END
>  <MODEL>
4

>  <REMARK>
 VINA RESULT:      -5.4      1.482      2.694
  Name = 
  17 active torsions:
  status: ('A' for Active; 'I' for Inactive)
    1  A    between atoms: C_3  and  C_4
    2  A    between atoms: C_3  and  C_21
    3  A    between atoms: C_3  and  C_31
    4  A    between atoms: C_4  and  C_27
    5  A    between atoms: C_5  and  N_30
    6  A    between atoms: C_7  and  C_10
    7  A    between atoms: C_8  and  C_15
    8  A    between atoms: C_10  and  C_19
    9  A    between atoms: C_12  and  C_15
   10  A    between atoms: C_12  and  C_19
   11  A    between atoms: C_15  and  O_33
   12  A    between atoms: O_16  and  P_22
   13  A    between atoms: O_16  and  C_35
   14  A    between atoms: C_18  and  C_21
   15  A    between atoms: C_18  and  C_26
   16  A    between atoms: P_22  and  O_32
   17  A    between atoms: C_27  and  O_32
                            x       y       z     vdW  Elec       q    Type
                         _______ _______ _______ _____ _____    ______ ____

>  <TORSDO>
F 17

$$$$
=
 OpenBabel11072413073D

 35 35  0  0  1  0  0  0  0  0999 V2000
  161.8680  209.4880  151.4230 C   0  0  0  0  0  0  0  0  0  0  0  0
  162.2000  209.7910  150.2000 N   0  0  0  0  0  0  0  0  0  0  0  0
  161.5140  207.6660  149.3010 C   0  0  0  0  0  3  0  0  0  0  0  0
  161.9150  208.9220  149.0910 C   0  0  0  0  0  3  0  0  0  0  0  0
  161.0560  208.2440  151.6830 C   0  0  0  0  0  2  0  0  0  0  0  0
  162.1760  210.4160  152.4740 N   0  0  0  0  0  2  0  0  0  0  0  0
  161.4510  207.1380  150.7050 C   0  0  1  0  0  3  0  0  0  0  0  0
  161.9800  210.2410  153.8850 C   0  0  0  0  0  3  0  0  0  0  0  0
  161.2220  211.0510  154.6220 C   0  0  0  0  0  3  0  0  0  0  0  0
  162.3090  211.1830  156.8840 C   0  0  0  0  0  1  0  0  0  0  0  0
  161.0120  210.8810  156.1100 C   0  0  1  0  0  0  0  0  0  0  0  0
  159.9350  211.8940  156.5490 C   0  0  1  0  0  3  0  0  0  0  0  0
  159.9470  213.0180  155.7180 O   0  0  0  0  0  1  0  0  0  0  0  0
  158.5240  211.3150  156.5940 C   0  0  0  0  0  2  0  0  0  0  0  0
  157.8210  211.5790  155.2770 C   0  0  0  0  0  2  0  0  0  0  0  0
  156.4580  211.0510  155.3290 C   0  0  0  0  0  0  0  0  0  0  0  0
  155.3810  210.6300  155.3720 N   0  0  0  0  0  0  0  0  0  0  0  0
  161.3700  208.8810  157.2610 C   0  0  0  0  0  1  0  0  0  0  0  0
  160.5010  209.5870  156.4060 O   0  0  0  0  0  0  0  0  0  0  0  0
  160.5390  206.0830  150.7860 O   0  0  0  0  0  0  0  0  0  0  0  0
  162.6930  204.9680  151.7870 O   0  0  0  0  0  0  0  0  0  0  0  0
  160.3350  203.1320  151.8560 S   0  0  0  0  0  1  0  0  0  0  0  0
  161.4720  204.6720  150.9410 P   0  0  1  0  0  0  0  0  0  0  0  0
  161.9550  204.1820  149.3900 O   0  0  0  0  0  0  0  0  0  0  0  0
  160.7870  203.7800  148.7360 C   0  0  0  0  0  2  0  0  0  0  0  0
  160.8580  202.2960  148.4140 C   0  0  0  0  0  2  0  0  0  0  0  0
  161.4830  202.0640  147.0450 C   0  0  2  0  0  3  0  0  0  0  0  0
  161.0330  203.1660  146.0830 C   0  0  2  0  0  3  0  0  0  0  0  0
  160.3330  202.6310  144.9970 O   0  0  0  0  0  1  0  0  0  0  0  0
  162.2160  203.9930  145.6010 C   0  0  0  0  0  2  0  0  0  0  0  0
  161.4840  205.7100  143.9500 O   0  0  0  0  0  0  0  0  0  0  0  0
  161.7850  205.3780  145.2630 C   0  0  0  0  0  0  0  0  0  0  0  0
  161.6650  206.2390  146.1730 O   0  0  0  0  0  1  0  0  0  0  0  0
  161.5150  199.7060  147.4780 O   0  0  0  0  0  1  0  0  0  0  0  0
  161.1350  200.6650  146.5400 C   0  0  0  0  0  2  0  0  0  0  0  0
  1  5  1  0  0  0  0
  1  6  1  0  0  0  0
  2  1  2  0  0  0  0
  3  7  1  0  0  0  0
  4  3  2  0  0  0  0
  4  2  1  0  0  0  0
  6  8  1  0  0  0  0
  7 20  1  6  0  0  0
  7  5  1  0  0  0  0
  8  9  2  0  0  0  0
  9 11  1  0  0  0  0
 11 19  1  0  0  0  0
 11 12  1  0  0  0  0
 11 10  1  1  0  0  0
 12 13  1  6  0  0  0
 12 14  1  0  0  0  0
 15 16  1  0  0  0  0
 15 14  1  0  0  0  0
 16 17  3  0  0  0  0
 19 18  1  0  0  0  0
 20 23  1  0  0  0  0
 23 21  2  1  0  0  0
 23 22  1  0  0  0  0
 24 23  1  0  0  0  0
 25 24  1  0  0  0  0
 26 25  1  0  0  0  0
 27 35  1  6  0  0  0
 27 26  1  0  0  0  0
 28 29  1  6  0  0  0
 28 27  1  0  0  0  0
 30 28  1  0  0  0  0
 31 32  2  0  0  0  0
 32 30  1  0  0  0  0
 32 33  1  0  0  0  0
 35 34  1  0  0  0  0
M  END
>  <MODEL>
5

>  <REMARK>
 VINA RESULT:      -5.2      1.470      1.739
  Name = 
  17 active torsions:
  status: ('A' for Active; 'I' for Inactive)
    1  A    between atoms: C_3  and  C_4
    2  A    between atoms: C_3  and  C_21
    3  A    between atoms: C_3  and  C_31
    4  A    between atoms: C_4  and  C_27
    5  A    between atoms: C_5  and  N_30
    6  A    between atoms: C_7  and  C_10
    7  A    between atoms: C_8  and  C_15
    8  A    between atoms: C_10  and  C_19
    9  A    between atoms: C_12  and  C_15
   10  A    between atoms: C_12  and  C_19
   11  A    between atoms: C_15  and  O_33
   12  A    between atoms: O_16  and  P_22
   13  A    between atoms: O_16  and  C_35
   14  A    between atoms: C_18  and  C_21
   15  A    between atoms: C_18  and  C_26
   16  A    between atoms: P_22  and  O_32
   17  A    between atoms: C_27  and  O_32
                            x       y       z     vdW  Elec       q    Type
                         _______ _______ _______ _____ _____    ______ ____

>  <TORSDO>
F 17

$$$$
=
 OpenBabel11072413073D

 35 35  0  0  1  0  0  0  0  0999 V2000
  159.7130  212.8570  143.5350 C   0  0  0  0  0  0  0  0  0  0  0  0
  158.6740  213.3870  144.1160 N   0  0  0  0  0  0  0  0  0  0  0  0
  159.8620  213.9310  146.1380 C   0  0  0  0  0  3  0  0  0  0  0  0
  158.7620  214.0460  145.3910 C   0  0  0  0  0  3  0  0  0  0  0  0
  161.0770  213.0340  144.1540 C   0  0  0  0  0  2  0  0  0  0  0  0
  159.5440  212.2280  142.2550 N   0  0  0  0  0  2  0  0  0  0  0  0
  160.9740  213.0320  145.6780 C   0  0  1  0  0  3  0  0  0  0  0  0
  160.5280  211.5140  141.4930 C   0  0  0  0  0  3  0  0  0  0  0  0
  160.6100  211.5810  140.1650 C   0  0  0  0  0  3  0  0  0  0  0  0
  162.8780  210.4980  140.2010 C   0  0  0  0  0  1  0  0  0  0  0  0
  161.6380  210.8290  139.3490 C   0  0  1  0  0  0  0  0  0  0  0  0
  160.9930  209.5040  138.8930 C   0  0  1  0  0  3  0  0  0  0  0  0
  159.6360  209.6850  138.6170 O   0  0  0  0  0  1  0  0  0  0  0  0
  161.6740  208.8710  137.6820 C   0  0  0  0  0  2  0  0  0  0  0  0
  161.7370  207.3670  137.8600 C   0  0  0  0  0  2  0  0  0  0  0  0
  162.0800  207.0480  139.2460 C   0  0  0  0  0  0  0  0  0  0  0  0
  162.3510  206.7920  140.3420 N   0  0  0  0  0  0  0  0  0  0  0  0
  163.0100  212.4710  138.4160 C   0  0  0  0  0  1  0  0  0  0  0  0
  161.9760  211.5470  138.1700 O   0  0  0  0  0  0  0  0  0  0  0  0
  162.1870  213.4370  146.2380 O   0  0  0  0  0  0  0  0  0  0  0  0
  163.6270  212.5640  148.2500 O   0  0  0  0  0  0  0  0  0  0  0  0
  161.3010  214.2070  149.1570 S   0  0  0  0  0  1  0  0  0  0  0  0
  162.1980  212.8230  147.8220 P   0  0  1  0  0  0  0  0  0  0  0  0
  161.3250  211.3680  147.8330 O   0  0  0  0  0  0  0  0  0  0  0  0
  161.9820  210.5370  148.7440 C   0  0  0  0  0  2  0  0  0  0  0  0
  161.9270  209.0960  148.2650 C   0  0  0  0  0  2  0  0  0  0  0  0
  162.1950  208.1290  149.4110 C   0  0  2  0  0  3  0  0  0  0  0  0
  161.8720  206.7020  148.9620 C   0  0  2  0  0  3  0  0  0  0  0  0
  161.7220  206.6320  147.5740 O   0  0  0  0  0  1  0  0  0  0  0  0
  160.6280  206.1740  149.6610 C   0  0  0  0  0  2  0  0  0  0  0  0
  161.1220  204.8910  151.7400 O   0  0  0  0  0  1  0  0  0  0  0  0
  160.9240  204.8960  150.3670 C   0  0  0  0  0  0  0  0  0  0  0  0
  160.9630  203.8160  149.7210 O   0  0  0  0  0  0  0  0  0  0  0  0
  162.1900  208.4190  151.7910 O   0  0  0  0  0  1  0  0  0  0  0  0
  161.4030  208.5490  150.6480 C   0  0  0  0  0  2  0  0  0  0  0  0
  1  2  2  0  0  0  0
  1  5  1  0  0  0  0
  2  4  1  0  0  0  0
  4  3  2  0  0  0  0
  5  7  1  0  0  0  0
  6  1  1  0  0  0  0
  7  3  1  0  0  0  0
  7 20  1  1  0  0  0
  8  6  1  0  0  0  0
  9  8  2  0  0  0  0
 11  9  1  0  0  0  0
 11 10  1  1  0  0  0
 12 13  1  6  0  0  0
 12 11  1  0  0  0  0
 14 15  1  0  0  0  0
 14 12  1  0  0  0  0
 15 16  1  0  0  0  0
 16 17  3  0  0  0  0
 19 18  1  0  0  0  0
 19 11  1  0  0  0  0
 20 23  1  0  0  0  0
 23 24  1  0  0  0  0
 23 21  2  1  0  0  0
 23 22  1  0  0  0  0
 24 25  1  0  0  0  0
 26 25  1  0  0  0  0
 27 26  1  6  0  0  0
 27 35  1  0  0  0  0
 28 29  1  6  0  0  0
 28 27  1  0  0  0  0
 28 30  1  0  0  0  0
 30 32  1  0  0  0  0
 32 31  1  0  0  0  0
 33 32  2  0  0  0  0
 35 34  1  0  0  0  0
M  END
>  <MODEL>
6

>  <REMARK>
 VINA RESULT:      -5.2      6.718     11.658
  Name = 
  17 active torsions:
  status: ('A' for Active; 'I' for Inactive)
    1  A    between atoms: C_3  and  C_4
    2  A    between atoms: C_3  and  C_21
    3  A    between atoms: C_3  and  C_31
    4  A    between atoms: C_4  and  C_27
    5  A    between atoms: C_5  and  N_30
    6  A    between atoms: C_7  and  C_10
    7  A    between atoms: C_8  and  C_15
    8  A    between atoms: C_10  and  C_19
    9  A    between atoms: C_12  and  C_15
   10  A    between atoms: C_12  and  C_19
   11  A    between atoms: C_15  and  O_33
   12  A    between atoms: O_16  and  P_22
   13  A    between atoms: O_16  and  C_35
   14  A    between atoms: C_18  and  C_21
   15  A    between atoms: C_18  and  C_26
   16  A    between atoms: P_22  and  O_32
   17  A    between atoms: C_27  and  O_32
                            x       y       z     vdW  Elec       q    Type
                         _______ _______ _______ _____ _____    ______ ____

>  <TORSDO>
F 17

$$$$
=
 OpenBabel11072413073D

 35 35  0  0  1  0  0  0  0  0999 V2000
  161.0450  204.9950  151.1500 C   0  0  0  0  0  0  0  0  0  0  0  0
  161.3060  204.5950  152.3610 N   0  0  0  0  0  0  0  0  0  0  0  0
  161.0830  206.7900  153.3240 C   0  0  0  0  0  3  0  0  0  0  0  0
  161.2110  205.4720  153.4960 C   0  0  0  0  0  3  0  0  0  0  0  0
  160.5130  206.3890  150.9300 C   0  0  0  0  0  2  0  0  0  0  0  0
  161.1510  204.0530  150.0710 N   0  0  0  0  0  2  0  0  0  0  0  0
  161.1320  207.3590  151.9350 C   0  0  1  0  0  3  0  0  0  0  0  0
  160.9960  204.3060  148.6670 C   0  0  0  0  0  3  0  0  0  0  0  0
  162.0150  204.6150  147.8660 C   0  0  0  0  0  3  0  0  0  0  0  0
  163.2090  204.7100  145.6560 C   0  0  0  0  0  1  0  0  0  0  0  0
  161.8650  204.8900  146.3870 C   0  0  1  0  0  0  0  0  0  0  0  0
  160.8620  203.8630  145.8200 C   0  0  1  0  0  3  0  0  0  0  0  0
  160.3820  204.2770  144.5750 O   0  0  0  0  0  1  0  0  0  0  0  0
  161.4260  202.4500  145.7000 C   0  0  0  0  0  2  0  0  0  0  0  0
  160.4360  201.4540  146.2680 C   0  0  0  0  0  2  0  0  0  0  0  0
  160.9000  200.9870  147.5750 C   0  0  0  0  0  0  0  0  0  0  0  0
  161.2670  200.6200  148.6090 N   0  0  0  0  0  0  0  0  0  0  0  0
  161.7950  207.1150  147.0900 C   0  0  0  0  0  1  0  0  0  0  0  0
  161.3030  206.1770  146.1620 O   0  0  0  0  0  0  0  0  0  0  0  0
  160.4630  208.5840  151.8900 O   0  0  0  0  0  0  0  0  0  0  0  0
  162.9380  209.2010  151.2770 O   0  0  0  0  0  0  0  0  0  0  0  0
  161.0480  211.4520  150.7360 S   0  0  0  0  0  1  0  0  0  0  0  0
  161.6730  209.7760  151.8770 P   0  0  1  0  0  0  0  0  0  0  0  0
  161.9650  210.2520  153.4800 O   0  0  0  0  0  0  0  0  0  0  0  0
  160.8240  210.9500  153.8840 C   0  0  0  0  0  2  0  0  0  0  0  0
  159.8810  210.0180  154.6270 C   0  0  0  0  0  2  0  0  0  0  0  0
  159.0660  210.7790  155.6640 C   0  0  2  0  0  3  0  0  0  0  0  0
  158.8520  212.2180  155.1910 C   0  0  2  0  0  3  0  0  0  0  0  0
  159.1440  213.1320  156.2080 O   0  0  0  0  0  1  0  0  0  0  0  0
  157.4340  212.4240  154.6800 C   0  0  0  0  0  2  0  0  0  0  0  0
  156.1460  212.0720  156.7840 O   0  0  0  0  0  1  0  0  0  0  0  0
  156.4610  211.6500  155.5010 C   0  0  0  0  0  0  0  0  0  0  0  0
  155.9030  210.6290  155.0190 O   0  0  0  0  0  0  0  0  0  0  0  0
  160.2200  209.4120  157.2610 O   0  0  0  0  0  1  0  0  0  0  0  0
  159.7510  210.7040  157.0270 C   0  0  0  0  0  2  0  0  0  0  0  0
  1  2  2  0  0  0  0
  2  4  1  0  0  0  0
  3  4  2  0  0  0  0
  5  1  1  0  0  0  0
  5  7  1  0  0  0  0
  6  1  1  0  0  0  0
  7 20  1  1  0  0  0
  7  3  1  0  0  0  0
  8  6  1  0  0  0  0
  9  8  2  0  0  0  0
 11 10  1  6  0  0  0
 11  9  1  0  0  0  0
 12 13  1  6  0  0  0
 12 11  1  0  0  0  0
 14 12  1  0  0  0  0
 14 15  1  0  0  0  0
 15 16  1  0  0  0  0
 16 17  3  0  0  0  0
 19 11  1  0  0  0  0
 19 18  1  0  0  0  0
 21 23  2  0  0  0  0
 23 22  1  6  0  0  0
 23 20  1  0  0  0  0
 23 24  1  0  0  0  0
 24 25  1  0  0  0  0
 25 26  1  0  0  0  0
 27 26  1  6  0  0  0
 27 35  1  0  0  0  0
 28 27  1  0  0  0  0
 28 29  1  1  0  0  0
 30 28  1  0  0  0  0
 30 32  1  0  0  0  0
 32 31  1  0  0  0  0
 33 32  2  0  0  0  0
 35 34  1  0  0  0  0
M  END
>  <MODEL>
7

>  <REMARK>
 VINA RESULT:      -5.1      3.224     10.379
  Name = 
  17 active torsions:
  status: ('A' for Active; 'I' for Inactive)
    1  A    between atoms: C_3  and  C_4
    2  A    between atoms: C_3  and  C_21
    3  A    between atoms: C_3  and  C_31
    4  A    between atoms: C_4  and  C_27
    5  A    between atoms: C_5  and  N_30
    6  A    between atoms: C_7  and  C_10
    7  A    between atoms: C_8  and  C_15
    8  A    between atoms: C_10  and  C_19
    9  A    between atoms: C_12  and  C_15
   10  A    between atoms: C_12  and  C_19
   11  A    between atoms: C_15  and  O_33
   12  A    between atoms: O_16  and  P_22
   13  A    between atoms: O_16  and  C_35
   14  A    between atoms: C_18  and  C_21
   15  A    between atoms: C_18  and  C_26
   16  A    between atoms: P_22  and  O_32
   17  A    between atoms: C_27  and  O_32
                            x       y       z     vdW  Elec       q    Type
                         _______ _______ _______ _____ _____    ______ ____

>  <TORSDO>
F 17

$$$$
=
 OpenBabel11072413073D

 35 35  0  0  1  0  0  0  0  0999 V2000
  160.7350  203.1910  151.1670 C   0  0  0  0  0  0  0  0  0  0  0  0
  161.0930  203.3470  152.4090 N   0  0  0  0  0  0  0  0  0  0  0  0
  161.2030  205.7470  152.2610 C   0  0  0  0  0  3  0  0  0  0  0  0
  161.2170  204.6450  153.0150 C   0  0  0  0  0  3  0  0  0  0  0  0
  160.3230  204.3960  150.3590 C   0  0  0  0  0  2  0  0  0  0  0  0
  160.6210  201.8600  150.6410 N   0  0  0  0  0  2  0  0  0  0  0  0
  161.1490  205.6170  150.7660 C   0  0  1  0  0  3  0  0  0  0  0  0
  160.3310  201.4730  149.2900 C   0  0  0  0  0  3  0  0  0  0  0  0
  161.1410  201.7380  148.2660 C   0  0  0  0  0  3  0  0  0  0  0  0
  159.3300  201.1710  146.6190 C   0  0  0  0  0  1  0  0  0  0  0  0
  160.8450  201.3410  146.8370 C   0  0  1  0  0  0  0  0  0  0  0  0
  161.3440  202.4790  145.9230 C   0  0  1  0  0  3  0  0  0  0  0  0
  160.4350  202.7150  144.8880 O   0  0  0  0  0  1  0  0  0  0  0  0
  161.6200  203.7870  146.6600 C   0  0  0  0  0  2  0  0  0  0  0  0
  162.5630  204.6460  145.8410 C   0  0  0  0  0  2  0  0  0  0  0  0
  161.8130  205.3500  144.8010 C   0  0  0  0  0  0  0  0  0  0  0  0
  161.2200  205.9050  143.9770 N   0  0  0  0  0  0  0  0  0  0  0  0
  160.8350  199.3760  145.5770 C   0  0  0  0  0  1  0  0  0  0  0  0
  161.5720  200.1750  146.4720 O   0  0  0  0  0  0  0  0  0  0  0  0
  160.6050  206.7710  150.1980 O   0  0  0  0  0  0  0  0  0  0  0  0
  163.1300  207.3320  150.6340 O   0  0  0  0  0  0  0  0  0  0  0  0
  162.3750  207.6820  147.7630 S   0  0  0  0  0  1  0  0  0  0  0  0
  161.9230  207.7770  149.8340 P   0  0  1  0  0  0  0  0  0  0  0  0
  161.5100  209.3670  150.2580 O   0  0  0  0  0  0  0  0  0  0  0  0
  161.9630  209.5410  151.5690 C   0  0  0  0  0  2  0  0  0  0  0  0
  160.7790  209.6570  152.5150 C   0  0  0  0  0  2  0  0  0  0  0  0
  161.0780  210.6330  153.6450 C   0  0  2  0  0  3  0  0  0  0  0  0
  161.1660  209.8710  154.9690 C   0  0  2  0  0  3  0  0  0  0  0  0
  162.4280  210.0180  155.5530 O   0  0  0  0  0  1  0  0  0  0  0  0
  160.8350  208.3970  154.7780 C   0  0  0  0  0  2  0  0  0  0  0  0
  160.8880  208.1290  157.2560 O   0  0  0  0  0  1  0  0  0  0  0  0
  160.3010  207.8110  156.0400 C   0  0  0  0  0  0  0  0  0  0  0  0
  159.2980  207.0510  156.0050 O   0  0  0  0  0  0  0  0  0  0  0  0
  158.7820  211.2120  154.0260 O   0  0  0  0  0  1  0  0  0  0  0  0
  160.0240  211.7390  153.6740 C   0  0  0  0  0  2  0  0  0  0  0  0
  1  2  2  0  0  0  0
  2  4  1  0  0  0  0
  3  4  2  0  0  0  0
  5  7  1  0  0  0  0
  5  1  1  0  0  0  0
  6  1  1  0  0  0  0
  7 20  1  6  0  0  0
  7  3  1  0  0  0  0
  8  6  1  0  0  0  0
  9  8  2  0  0  0  0
 11 10  1  6  0  0  0
 11  9  1  0  0  0  0
 12 13  1  6  0  0  0
 12 14  1  0  0  0  0
 12 11  1  0  0  0  0
 15 14  1  0  0  0  0
 16 15  1  0  0  0  0
 17 16  3  0  0  0  0
 18 19  1  0  0  0  0
 19 11  1  0  0  0  0
 23 22  1  6  0  0  0
 23 20  1  0  0  0  0
 23 24  1  0  0  0  0
 23 21  2  0  0  0  0
 24 25  1  0  0  0  0
 25 26  1  0  0  0  0
 27 26  1  6  0  0  0
 27 35  1  0  0  0  0
 27 28  1  0  0  0  0
 28 29  1  6  0  0  0
 30 28  1  0  0  0  0
 30 32  1  0  0  0  0
 32 31  1  0  0  0  0
 33 32  2  0  0  0  0
 35 34  1  0  0  0  0
M  END
>  <MODEL>
8

>  <REMARK>
 VINA RESULT:      -5.1      3.403     10.126
  Name = 
  17 active torsions:
  status: ('A' for Active; 'I' for Inactive)
    1  A    between atoms: C_3  and  C_4
    2  A    between atoms: C_3  and  C_21
    3  A    between atoms: C_3  and  C_31
    4  A    between atoms: C_4  and  C_27
    5  A    between atoms: C_5  and  N_30
    6  A    between atoms: C_7  and  C_10
    7  A    between atoms: C_8  and  C_15
    8  A    between atoms: C_10  and  C_19
    9  A    between atoms: C_12  and  C_15
   10  A    between atoms: C_12  and  C_19
   11  A    between atoms: C_15  and  O_33
   12  A    between atoms: O_16  and  P_22
   13  A    between atoms: O_16  and  C_35
   14  A    between atoms: C_18  and  C_21
   15  A    between atoms: C_18  and  C_26
   16  A    between atoms: P_22  and  O_32
   17  A    between atoms: C_27  and  O_32
                            x       y       z     vdW  Elec       q    Type
                         _______ _______ _______ _____ _____    ______ ____

>  <TORSDO>
F 17

$$$$
=
 OpenBabel11072413073D

 35 35  0  0  1  0  0  0  0  0999 V2000
  162.1340  208.8820  150.0040 C   0  0  0  0  0  0  0  0  0  0  0  0
  161.9650  210.1410  150.2900 N   0  0  0  0  0  0  0  0  0  0  0  0
  161.6040  209.7420  152.6360 C   0  0  0  0  0  3  0  0  0  0  0  0
  161.8150  210.6080  151.6410 C   0  0  0  0  0  3  0  0  0  0  0  0
  162.2940  207.8840  151.1230 C   0  0  0  0  0  2  0  0  0  0  0  0
  162.2890  208.4990  148.6280 N   0  0  0  0  0  2  0  0  0  0  0  0
  161.4320  208.2840  152.3200 C   0  0  1  0  0  3  0  0  0  0  0  0
  162.3960  207.1710  148.0950 C   0  0  0  0  0  3  0  0  0  0  0  0
  161.3610  206.5070  147.5830 C   0  0  0  0  0  3  0  0  0  0  0  0
  162.9280  204.7140  146.7800 C   0  0  0  0  0  1  0  0  0  0  0  0
  161.4580  205.1050  147.0230 C   0  0  1  0  0  0  0  0  0  0  0  0
  160.8640  204.1410  148.0710 C   0  0  1  0  0  3  0  0  0  0  0  0
  161.5300  202.9120  148.0430 O   0  0  0  0  0  1  0  0  0  0  0  0
  160.8780  204.6910  149.4940 C   0  0  0  0  0  2  0  0  0  0  0  0
  160.8190  203.5450  150.4850 C   0  0  0  0  0  2  0  0  0  0  0  0
  161.0220  204.0550  151.8420 C   0  0  0  0  0  0  0  0  0  0  0  0
  161.1850  204.4580  152.9140 N   0  0  0  0  0  0  0  0  0  0  0  0
  161.1770  205.7600  144.8000 C   0  0  0  0  0  1  0  0  0  0  0  0
  160.6680  204.9700  145.8490 O   0  0  0  0  0  0  0  0  0  0  0  0
  161.7650  207.5050  153.4290 O   0  0  0  0  0  0  0  0  0  0  0  0
  159.8910  206.9440  155.1770 O   0  0  0  0  0  0  0  0  0  0  0  0
  161.9960  208.7340  156.3160 S   0  0  0  0  0  1  0  0  0  0  0  0
  160.7920  208.0660  154.7030 P   0  0  1  0  0  0  0  0  0  0  0  0
  159.8470  209.3510  154.1230 O   0  0  0  0  0  0  0  0  0  0  0  0
  159.3230  209.9800  155.2550 C   0  0  0  0  0  2  0  0  0  0  0  0
  159.5480  211.4800  155.1660 C   0  0  0  0  0  2  0  0  0  0  0  0
  158.3060  212.2450  155.6030 C   0  0  2  0  0  3  0  0  0  0  0  0
  157.3410  212.3710  154.4220 C   0  0  2  0  0  3  0  0  0  0  0  0
  157.6320  213.5010  153.6510 O   0  0  0  0  0  1  0  0  0  0  0  0
  155.8950  212.4050  154.8940 C   0  0  0  0  0  2  0  0  0  0  0  0
  155.4480  211.4600  157.1570 O   0  0  0  0  0  1  0  0  0  0  0  0
  155.6090  211.2530  155.7940 C   0  0  0  0  0  0  0  0  0  0  0  0
  155.4820  210.0960  155.3140 O   0  0  0  0  0  0  0  0  0  0  0  0
  160.0900  213.6940  156.2850 O   0  0  0  0  0  1  0  0  0  0  0  0
  158.7020  213.6010  156.1840 C   0  0  0  0  0  2  0  0  0  0  0  0
  1  2  2  0  0  0  0
  1  5  1  0  0  0  0
  2  4  1  0  0  0  0
  4  3  2  0  0  0  0
  5  7  1  0  0  0  0
  6  1  1  0  0  0  0
  7  3  1  0  0  0  0
  7 20  1  1  0  0  0
  8  6  1  0  0  0  0
  9  8  2  0  0  0  0
 11 10  1  6  0  0  0
 11  9  1  0  0  0  0
 11 12  1  0  0  0  0
 12 13  1  1  0  0  0
 12 14  1  0  0  0  0
 14 15  1  0  0  0  0
 15 16  1  0  0  0  0
 16 17  3  0  0  0  0
 18 19  1  0  0  0  0
 19 11  1  0  0  0  0
 20 23  1  0  0  0  0
 23 21  2  1  0  0  0
 23 22  1  0  0  0  0
 24 23  1  0  0  0  0
 24 25  1  0  0  0  0
 26 25  1  0  0  0  0
 27 26  1  6  0  0  0
 27 35  1  0  0  0  0
 28 29  1  1  0  0  0
 28 30  1  0  0  0  0
 28 27  1  0  0  0  0
 30 32  1  0  0  0  0
 32 31  1  0  0  0  0
 33 32  2  0  0  0  0
 35 34  1  0  0  0  0
M  END
>  <MODEL>
9

>  <REMARK>
 VINA RESULT:      -5.1      2.348      9.785
  Name = 
  17 active torsions:
  status: ('A' for Active; 'I' for Inactive)
    1  A    between atoms: C_3  and  C_4
    2  A    between atoms: C_3  and  C_21
    3  A    between atoms: C_3  and  C_31
    4  A    between atoms: C_4  and  C_27
    5  A    between atoms: C_5  and  N_30
    6  A    between atoms: C_7  and  C_10
    7  A    between atoms: C_8  and  C_15
    8  A    between atoms: C_10  and  C_19
    9  A    between atoms: C_12  and  C_15
   10  A    between atoms: C_12  and  C_19
   11  A    between atoms: C_15  and  O_33
   12  A    between atoms: O_16  and  P_22
   13  A    between atoms: O_16  and  C_35
   14  A    between atoms: C_18  and  C_21
   15  A    between atoms: C_18  and  C_26
   16  A    between atoms: P_22  and  O_32
   17  A    between atoms: C_27  and  O_32
                            x       y       z     vdW  Elec       q    Type
                         _______ _______ _______ _____ _____    ______ ____

>  <TORSDO>
F 17

$$$$
