=
 OpenBabel11072410333D

 54 61  0  0  1  0  0  0  0  0999 V2000
  160.9790  212.6090  150.6110 C   0  0  0  0  0  0  0  0  0  0  0  0
  160.0270  213.1730  151.3120 C   0  0  0  0  0  0  0  0  0  0  0  0
  159.0330  213.6260  152.0260 C   0  0  0  0  0  0  0  0  0  0  0  0
  161.5000  210.1180  148.8440 C   0  0  0  0  0  0  0  0  0  0  0  0
  161.4680  211.2790  151.0320 C   0  0  0  0  0  0  0  0  0  0  0  0
  163.9240  209.2380  151.2880 O   0  0  0  0  0  0  0  0  0  0  0  0
  161.1850  210.8510  152.1850 O   0  0  0  0  0  0  0  0  0  0  0  0
  161.3500  207.6900  149.4620 C   0  0  0  0  0  0  0  0  0  0  0  0
  161.4600  212.4580  148.1150 N   0  0  0  0  0  2  0  0  0  0  0  0
  162.2840  210.4410  150.0890 C   0  0  1  0  0  3  0  0  0  0  0  0
  161.3930  213.2140  149.3330 C   0  0  0  0  0  0  0  0  0  0  0  0
  161.0820  208.7780  148.5750 N   0  0  0  0  0  2  0  0  0  0  0  0
  160.9940  206.5280  149.1360 O   0  0  0  0  0  0  0  0  0  0  0  0
  162.0370  207.9170  150.7740 C   0  0  1  0  0  3  0  0  0  0  0  0
  161.6230  214.4530  149.2890 O   0  0  0  0  0  0  0  0  0  0  0  0
  159.3560  214.4370  153.2400 C   0  0  0  0  0  1  0  0  0  0  0  0
  162.8360  209.1930  150.7350 C   0  0  0  0  0  0  0  0  0  0  0  0
  161.1970  211.0590  147.9480 C   0  0  0  0  0  3  0  0  0  0  0  0
  156.7330  213.4920  152.8180 N   0  0  2  0  0  0  0  0  0  0  0  0
  155.6400  214.0760  150.7720 C   0  0  0  0  0  2  0  0  0  0  0  0
  155.6710  213.1350  154.9890 C   0  0  0  0  0  2  0  0  0  0  0  0
  153.6610  214.4390  155.1660 O   0  0  0  0  0  0  0  0  0  0  0  0
  155.4370  213.5200  152.1610 C   0  0  2  0  0  3  0  0  0  0  0  0
  157.6550  213.0540  151.7730 C   0  0  1  0  0  3  0  0  0  0  0  0
  157.0080  213.5550  150.5190 C   0  0  0  0  0  0  0  0  0  0  0  0
  157.5080  213.4850  149.4080 O   0  0  0  0  0  0  0  0  0  0  0  0
  154.5380  213.9550  154.4030 C   0  0  0  0  0  0  0  0  0  0  0  0
  156.5910  212.5330  153.9080 C   0  0  0  0  0  2  0  0  0  0  0  0
  154.4970  214.2420  152.9960 N   0  0  0  0  0  2  0  0  0  0  0  0
  161.0190  207.9680  151.9100 C   0  0  2  0  0  3  0  0  0  0  0  0
  161.4110  207.0260  153.0250 C   0  0  1  0  0  0  0  0  0  0  0  0
  160.8120  207.4750  154.3400 C   0  0  0  0  0  1  0  0  0  0  0  0
  160.2900  206.6600  152.1090 C   0  0  2  0  0  3  0  0  0  0  0  0
  161.0850  205.6140  152.7690 N   0  0  0  0  0  0  0  0  0  0  0  0
  162.0450  205.0730  151.8140 C   0  0  0  0  0  2  0  0  0  0  0  0
  162.0230  203.1050  150.2450 N   0  0  0  0  0  2  0  0  0  0  0  0
  161.1020  202.9550  152.3820 O   0  0  0  0  0  0  0  0  0  0  0  0
  161.7090  203.6500  151.5260 C   0  0  0  0  0  0  0  0  0  0  0  0
  161.3860  201.9500  149.7670 N   0  0  0  0  0  2  0  0  0  0  0  0
  160.4540  202.4040  145.5060 O   0  0  0  0  0  1  0  0  0  0  0  0
  160.2190  204.1770  148.8650 S   0  0  0  0  0  0  0  0  0  0  0  0
  160.7810  204.0080  147.1810 N   0  0  0  0  0  0  0  0  0  0  0  0
  160.0030  201.7810  147.7520 C   0  0  2  0  0  3  0  0  0  0  0  0
  160.8800  202.5880  146.8230 C   0  0  1  0  0  3  0  0  0  0  0  0
  160.1510  202.3870  149.1280 C   0  0  1  0  0  3  0  0  0  0  0  0
  163.2790  203.7500  146.9340 C   0  0  0  0  0  1  0  0  0  0  0  0
  162.0780  204.6940  147.0610 C   0  0  1  0  0  3  0  0  0  0  0  0
  162.0550  205.7250  145.9740 C   0  0  0  0  0  0  0  0  0  0  0  0
  162.8250  205.5340  144.8350 O   0  0  0  0  0  0  0  0  0  0  0  0
  161.3670  206.7760  146.0940 O   0  0  0  0  0  1  0  0  0  0  0  0
  160.3740  200.4330  147.7390 O   0  0  0  0  0  0  0  0  0  0  0  0
  161.3400  199.1090  146.0550 C   0  0  0  0  0  2  0  0  0  0  0  0
  162.2330  199.2520  147.1290 O   0  0  0  0  0  0  0  0  0  0  0  0
  161.4300  200.3670  146.8270 C   0  0  2  0  0  3  0  0  0  0  0  0
  1  5  1  0  0  0  0
  1  2  2  0  0  0  0
  2  3  2  0  0  0  0
  3 16  1  0  0  0  0
  5  7  2  0  0  0  0
  9 11  1  0  0  0  0
 10  4  1  6  0  0  0
 10 17  1  0  0  0  0
 10  5  1  0  0  0  0
 11  1  1  0  0  0  0
 12  4  1  0  0  0  0
 12  8  1  0  0  0  0
 13  8  2  0  0  0  0
 14  8  1  6  0  0  0
 15 11  2  0  0  0  0
 17 14  1  0  0  0  0
 17  6  2  0  0  0  0
 18  9  1  0  0  0  0
 18  4  2  0  0  0  0
 19 28  1  1  0  0  0
 23 20  1  6  0  0  0
 23 19  1  0  0  0  0
 23 29  1  0  0  0  0
 24  3  1  1  0  0  0
 24 19  1  0  0  0  0
 25 20  1  0  0  0  0
 25 24  1  0  0  0  0
 26 25  2  0  0  0  0
 27 21  1  0  0  0  0
 27 22  2  0  0  0  0
 28 21  1  0  0  0  0
 29 27  1  0  0  0  0
 30 14  1  6  0  0  0
 30 33  1  0  0  0  0
 30 31  1  0  0  0  0
 31 32  1  1  0  0  0
 33 34  1  6  0  0  0
 33 31  1  0  0  0  0
 34 31  1  0  0  0  0
 35 34  1  0  0  0  0
 36 38  1  0  0  0  0
 38 35  1  0  0  0  0
 38 37  2  0  0  0  0
 39 36  1  0  0  0  0
 41 45  1  0  0  0  0
 42 41  1  0  0  0  0
 43 51  1  1  0  0  0
 43 45  1  0  0  0  0
 44 40  1  6  0  0  0
 44 42  1  0  0  0  0
 44 43  1  0  0  0  0
 45 39  1  6  0  0  0
 47 46  1  6  0  0  0
 47 42  1  0  0  0  0
 48 50  1  0  0  0  0
 48 47  1  0  0  0  0
 49 48  2  0  0  0  0
 52 54  1  0  0  0  0
 52 53  1  0  0  0  0
 54 53  1  0  0  0  0
 54 51  1  1  0  0  0
M  END
>  <MODEL>
1

>  <REMARK>
 VINA RESULT:       3.1      0.000      0.000
  Name = 
  10 active torsions:
  status: ('A' for Active; 'I' for Inactive)
    1  A    between atoms: N_3  and  N_30
    2  A    between atoms: C_6  and  C_28
    3  A    between atoms: O_10  and  C_17
    4  A    between atoms: O_10  and  C_37
    5  A    between atoms: N_16  and  C_54
    6  A    between atoms: C_26  and  N_30
    7  A    between atoms: C_27  and  C_54
    8  A    between atoms: C_36  and  C_46
    9  A    between atoms: C_38  and  C_40
   10  A    between atoms: C_40  and  N_52
                            x       y       z     vdW  Elec       q    Type
                         _______ _______ _______ _____ _____    ______ ____

>  <TORSDO>
F 10

$$$$
=
 OpenBabel11072410333D

 54 61  0  0  1  0  0  0  0  0999 V2000
  157.4530  211.4780  155.1910 C   0  0  0  0  0  0  0  0  0  0  0  0
  156.6470  212.0280  154.3170 C   0  0  0  0  0  0  0  0  0  0  0  0
  155.9360  212.5760  153.3700 C   0  0  0  0  0  0  0  0  0  0  0  0
  160.4570  211.3590  155.9370 C   0  0  0  0  0  0  0  0  0  0  0  0
  158.4760  210.5280  154.7060 C   0  0  0  0  0  0  0  0  0  0  0  0
  160.2060  207.8860  155.2370 O   0  0  0  0  0  0  0  0  0  0  0  0
  158.3720  210.0480  153.5430 O   0  0  0  0  0  0  0  0  0  0  0  0
  162.3920  210.5530  154.5560 C   0  0  0  0  0  0  0  0  0  0  0  0
  158.6510  212.3580  157.2600 N   0  0  0  0  0  2  0  0  0  0  0  0
  159.6330  210.1490  155.5850 C   0  0  1  0  0  3  0  0  0  0  0  0
  157.4490  211.9630  156.5830 C   0  0  0  0  0  0  0  0  0  0  0  0
  161.7870  211.5060  155.4310 N   0  0  0  0  0  0  0  0  0  0  0  0
  163.5840  210.7230  154.1890 O   0  0  0  0  0  0  0  0  0  0  0  0
  161.6250  209.3620  154.0650 C   0  0  1  0  0  3  0  0  0  0  0  0
  156.3460  212.1070  157.1770 O   0  0  0  0  0  0  0  0  0  0  0  0
  154.6840  211.8790  152.9420 C   0  0  0  0  0  1  0  0  0  0  0  0
  160.4860  209.0500  154.9980 C   0  0  0  0  0  0  0  0  0  0  0  0
  159.9890  212.3110  156.7470 C   0  0  0  0  0  2  0  0  0  0  0  0
  157.8230  213.2300  151.9750 N   0  0  2  0  0  0  0  0  0  0  0  0
  156.5850  214.0980  150.1220 C   0  0  0  0  0  2  0  0  0  0  0  0
  160.2480  212.9640  152.1130 C   0  0  0  0  0  2  0  0  0  0  0  0
  161.1830  212.6190  149.9260 O   0  0  0  0  0  0  0  0  0  0  0  0
  157.9540  214.0060  150.7530 C   0  0  2  0  0  3  0  0  0  0  0  0
  156.5650  213.6870  152.5590 C   0  0  1  0  0  3  0  0  0  0  0  0
  155.7650  214.0960  151.3600 C   0  0  0  0  0  0  0  0  0  0  0  0
  154.5990  214.4520  151.3970 O   0  0  0  0  0  0  0  0  0  0  0  0
  160.1900  213.0070  150.5990 C   0  0  0  0  0  0  0  0  0  0  0  0
  158.9940  213.5710  152.7740 C   0  0  0  0  0  2  0  0  0  0  0  0
  158.9900  213.4190  149.9250 N   0  0  0  0  0  2  0  0  0  0  0  0
  161.0990  209.6090  152.6540 C   0  0  2  0  0  3  0  0  0  0  0  0
  160.7810  208.3020  151.9650 C   0  0  1  0  0  0  0  0  0  0  0  0
  159.7460  208.5080  150.8800 C   0  0  0  0  0  1  0  0  0  0  0  0
  162.0080  209.0600  151.5800 C   0  0  2  0  0  3  0  0  0  0  0  0
  161.9550  207.5990  151.4250 N   0  0  0  0  0  0  0  0  0  0  0  0
  162.6820  206.9780  152.5250 C   0  0  0  0  0  2  0  0  0  0  0  0
  162.4050  204.9400  151.0740 N   0  0  0  0  0  2  0  0  0  0  0  0
  162.8000  204.7450  153.3630 O   0  0  0  0  0  0  0  0  0  0  0  0
  162.6580  205.4970  152.3630 C   0  0  0  0  0  0  0  0  0  0  0  0
  161.9640  203.6170  150.9220 N   0  0  0  0  0  2  0  0  0  0  0  0
  160.9570  203.1020  146.6850 O   0  0  0  0  0  1  0  0  0  0  0  0
  160.3760  205.3730  149.6830 S   0  0  0  0  0  0  0  0  0  0  0  0
  160.9590  205.0160  148.0360 N   0  0  0  0  0  0  0  0  0  0  0  0
  160.6400  202.8200  149.0210 C   0  0  2  0  0  3  0  0  0  0  0  0
  161.3390  203.6010  147.9320 C   0  0  1  0  0  3  0  0  0  0  0  0
  160.6660  203.6820  150.2610 C   0  0  1  0  0  3  0  0  0  0  0  0
  163.2090  205.2610  146.9200 C   0  0  0  0  0  1  0  0  0  0  0  0
  162.0940  205.9090  147.7490 C   0  0  1  0  0  3  0  0  0  0  0  0
  161.6350  207.2060  147.1600 C   0  0  0  0  0  0  0  0  0  0  0  0
  161.8670  208.3890  147.8480 O   0  0  0  0  0  1  0  0  0  0  0  0
  161.0150  207.2350  146.0610 O   0  0  0  0  0  0  0  0  0  0  0  0
  161.2720  201.5910  149.2330 O   0  0  0  0  0  0  0  0  0  0  0  0
  161.5350  199.6880  147.8800 C   0  0  0  0  0  2  0  0  0  0  0  0
  161.1120  200.7790  147.1020 O   0  0  0  0  0  0  0  0  0  0  0  0
  160.5900  200.6960  148.4060 C   0  0  2  0  0  3  0  0  0  0  0  0
  1 11  1  0  0  0  0
  2  1  2  0  0  0  0
  3  2  2  0  0  0  0
  4 18  1  0  0  0  0
  5  1  1  0  0  0  0
  7  5  2  0  0  0  0
  8 12  1  0  0  0  0
 10  5  1  6  0  0  0
 10  4  1  0  0  0  0
 11 15  2  0  0  0  0
 11  9  1  0  0  0  0
 12  4  2  0  0  0  0
 13  8  2  0  0  0  0
 14  8  1  1  0  0  0
 14 17  1  0  0  0  0
 16  3  1  0  0  0  0
 17  6  2  0  0  0  0
 17 10  1  0  0  0  0
 18  9  1  0  0  0  0
 19 24  1  0  0  0  0
 19 28  1  1  0  0  0
 20 25  1  0  0  0  0
 21 28  1  0  0  0  0
 22 27  2  0  0  0  0
 23 20  1  6  0  0  0
 23 19  1  0  0  0  0
 24  3  1  6  0  0  0
 25 26  2  0  0  0  0
 25 24  1  0  0  0  0
 27 21  1  0  0  0  0
 29 27  1  0  0  0  0
 29 23  1  0  0  0  0
 30 14  1  1  0  0  0
 31 32  1  6  0  0  0
 31 30  1  0  0  0  0
 33 34  1  1  0  0  0
 33 31  1  0  0  0  0
 33 30  1  0  0  0  0
 34 31  1  0  0  0  0
 34 35  1  0  0  0  0
 36 38  1  0  0  0  0
 38 35  1  0  0  0  0
 38 37  2  0  0  0  0
 39 36  1  0  0  0  0
 41 45  1  0  0  0  0
 42 41  1  0  0  0  0
 43 51  1  1  0  0  0
 43 45  1  0  0  0  0
 44 40  1  6  0  0  0
 44 42  1  0  0  0  0
 44 43  1  0  0  0  0
 45 39  1  6  0  0  0
 47 46  1  6  0  0  0
 47 42  1  0  0  0  0
 48 47  1  0  0  0  0
 48 49  1  0  0  0  0
 50 48  2  0  0  0  0
 52 54  1  0  0  0  0
 53 52  1  0  0  0  0
 53 54  1  0  0  0  0
 54 51  1  1  0  0  0
M  END
>  <MODEL>
2

>  <REMARK>
 VINA RESULT:       4.1      2.370      4.547
  Name = 
  10 active torsions:
  status: ('A' for Active; 'I' for Inactive)
    1  A    between atoms: N_3  and  N_30
    2  A    between atoms: C_6  and  C_28
    3  A    between atoms: O_10  and  C_17
    4  A    between atoms: O_10  and  C_37
    5  A    between atoms: N_16  and  C_54
    6  A    between atoms: C_26  and  N_30
    7  A    between atoms: C_27  and  C_54
    8  A    between atoms: C_36  and  C_46
    9  A    between atoms: C_38  and  C_40
   10  A    between atoms: C_40  and  N_52
                            x       y       z     vdW  Elec       q    Type
                         _______ _______ _______ _____ _____    ______ ____

>  <TORSDO>
F 10

$$$$
=
 OpenBabel11072410333D

 54 61  0  0  1  0  0  0  0  0999 V2000
  161.1750  212.1960  150.5120 C   0  0  0  0  0  0  0  0  0  0  0  0
  160.2880  212.8730  151.1980 C   0  0  0  0  0  0  0  0  0  0  0  0
  159.3490  213.4450  151.9020 C   0  0  0  0  0  0  0  0  0  0  0  0
  161.4350  209.6100  148.8260 C   0  0  0  0  0  0  0  0  0  0  0  0
  161.5340  210.8390  150.9740 C   0  0  0  0  0  0  0  0  0  0  0  0
  163.7790  208.5750  151.2860 O   0  0  0  0  0  0  0  0  0  0  0  0
  161.2190  210.4780  152.1420 O   0  0  0  0  0  0  0  0  0  0  0  0
  161.0520  207.2300  149.5230 C   0  0  0  0  0  0  0  0  0  0  0  0
  161.6190  211.9180  148.0200 N   0  0  0  0  0  2  0  0  0  0  0  0
  162.2570  209.8940  150.0560 C   0  0  1  0  0  3  0  0  0  0  0  0
  161.6350  212.7150  149.2120 C   0  0  0  0  0  0  0  0  0  0  0  0
  160.8860  208.3090  148.6020 N   0  0  0  0  0  2  0  0  0  0  0  0
  160.5820  206.0980  149.2380 O   0  0  0  0  0  0  0  0  0  0  0  0
  161.7680  207.4300  150.8250 C   0  0  1  0  0  3  0  0  0  0  0  0
  161.9860  213.9230  149.1270 O   0  0  0  0  0  0  0  0  0  0  0  0
  159.7590  214.2580  153.0870 C   0  0  0  0  0  1  0  0  0  0  0  0
  162.6880  208.6190  150.7400 C   0  0  0  0  0  0  0  0  0  0  0  0
  161.2190  210.5470  147.9000 C   0  0  0  0  0  3  0  0  0  0  0  0
  157.0790  213.4360  152.7870 N   0  0  2  0  0  0  0  0  0  0  0  0
  155.9570  214.2500  150.8380 C   0  0  0  0  0  2  0  0  0  0  0  0
  156.0800  213.0100  154.9760 C   0  0  0  0  0  2  0  0  0  0  0  0
  154.1930  214.4530  155.3340 O   0  0  0  0  0  0  0  0  0  0  0  0
  155.7640  213.6140  152.1950 C   0  0  2  0  0  3  0  0  0  0  0  0
  157.9200  213.0030  151.6740 C   0  0  1  0  0  3  0  0  0  0  0  0
  157.2650  213.6410  150.4880 C   0  0  0  0  0  0  0  0  0  0  0  0
  157.7130  213.6120  149.3530 O   0  0  0  0  0  0  0  0  0  0  0  0
  154.9960  213.9570  154.5000 C   0  0  0  0  0  0  0  0  0  0  0  0
  156.9030  212.4160  153.8150 C   0  0  0  0  0  2  0  0  0  0  0  0
  154.9210  214.3460  153.1190 N   0  0  0  0  0  2  0  0  0  0  0  0
  160.7690  207.6180  151.9620 C   0  0  2  0  0  3  0  0  0  0  0  0
  161.1810  206.8160  153.1760 C   0  0  1  0  0  0  0  0  0  0  0  0
  160.6030  207.4200  154.4370 C   0  0  0  0  0  1  0  0  0  0  0  0
  160.0450  206.3430  152.3290 C   0  0  2  0  0  3  0  0  0  0  0  0
  160.8530  205.3840  153.0970 N   0  0  0  0  0  0  0  0  0  0  0  0
  161.7970  204.7310  152.1980 C   0  0  0  0  0  2  0  0  0  0  0  0
  161.7600  203.5680  149.9660 N   0  0  0  0  0  2  0  0  0  0  0  0
  159.7980  203.9230  151.1750 O   0  0  0  0  0  0  0  0  0  0  0  0
  161.0500  204.0390  151.1110 C   0  0  0  0  0  0  0  0  0  0  0  0
  161.1000  203.2950  148.7590 N   0  0  0  0  0  2  0  0  0  0  0  0
  160.6030  203.4010  144.4030 O   0  0  0  0  0  1  0  0  0  0  0  0
  162.5200  201.6610  147.1920 S   0  0  0  0  0  0  0  0  0  0  0  0
  161.3910  201.7040  145.8130 N   0  0  0  0  0  0  0  0  0  0  0  0
  161.5810  204.0330  146.4720 C   0  0  2  0  0  3  0  0  0  0  0  0
  160.7370  203.0160  145.7390 C   0  0  1  0  0  3  0  0  0  0  0  0
  162.1110  203.3470  147.7090 C   0  0  1  0  0  3  0  0  0  0  0  0
  159.3540  200.5420  144.8830 C   0  0  0  0  0  1  0  0  0  0  0  0
  160.4150  200.6150  145.9860 C   0  0  1  0  0  3  0  0  0  0  0  0
  161.0950  199.2990  146.2030 C   0  0  0  0  0  0  0  0  0  0  0  0
  161.6370  199.0070  147.4470 O   0  0  0  0  0  1  0  0  0  0  0  0
  161.2070  198.4660  145.2620 O   0  0  0  0  0  0  0  0  0  0  0  0
  160.8260  205.1660  146.7920 O   0  0  0  0  0  0  0  0  0  0  0  0
  160.3710  207.3310  146.0010 C   0  0  0  0  0  2  0  0  0  0  0  0
  160.1410  206.3870  144.9850 O   0  0  0  0  0  0  0  0  0  0  0  0
  161.2160  206.1250  145.8560 C   0  0  2  0  0  3  0  0  0  0  0  0
  1  5  1  0  0  0  0
  1  2  2  0  0  0  0
  2  3  2  0  0  0  0
  3 16  1  0  0  0  0
  5  7  2  0  0  0  0
  9 11  1  0  0  0  0
 10  4  1  6  0  0  0
 10 17  1  0  0  0  0
 10  5  1  0  0  0  0
 11  1  1  0  0  0  0
 12  4  1  0  0  0  0
 12  8  1  0  0  0  0
 13  8  2  0  0  0  0
 14  8  1  6  0  0  0
 15 11  2  0  0  0  0
 17 14  1  0  0  0  0
 17  6  2  0  0  0  0
 18  9  1  0  0  0  0
 18  4  2  0  0  0  0
 19 28  1  1  0  0  0
 23 20  1  6  0  0  0
 23 19  1  0  0  0  0
 23 29  1  0  0  0  0
 24  3  1  1  0  0  0
 24 19  1  0  0  0  0
 25 20  1  0  0  0  0
 25 24  1  0  0  0  0
 26 25  2  0  0  0  0
 27 21  1  0  0  0  0
 27 22  2  0  0  0  0
 28 21  1  0  0  0  0
 29 27  1  0  0  0  0
 30 14  1  6  0  0  0
 30 33  1  0  0  0  0
 30 31  1  0  0  0  0
 31 32  1  1  0  0  0
 33 34  1  6  0  0  0
 33 31  1  0  0  0  0
 34 31  1  0  0  0  0
 35 34  1  0  0  0  0
 36 38  1  0  0  0  0
 38 37  2  0  0  0  0
 38 35  1  0  0  0  0
 39 36  1  0  0  0  0
 41 45  1  0  0  0  0
 42 47  1  0  0  0  0
 42 41  1  0  0  0  0
 43 51  1  1  0  0  0
 43 45  1  0  0  0  0
 44 40  1  6  0  0  0
 44 42  1  0  0  0  0
 44 43  1  0  0  0  0
 45 39  1  1  0  0  0
 47 46  1  6  0  0  0
 47 48  1  0  0  0  0
 48 49  1  0  0  0  0
 50 48  2  0  0  0  0
 53 54  1  0  0  0  0
 53 52  1  0  0  0  0
 54 52  1  0  0  0  0
 54 51  1  1  0  0  0
M  END
>  <MODEL>
3

>  <REMARK>
 VINA RESULT:       5.6      1.156      2.909
  Name = 
  10 active torsions:
  status: ('A' for Active; 'I' for Inactive)
    1  A    between atoms: N_3  and  N_30
    2  A    between atoms: C_6  and  C_28
    3  A    between atoms: O_10  and  C_17
    4  A    between atoms: O_10  and  C_37
    5  A    between atoms: N_16  and  C_54
    6  A    between atoms: C_26  and  N_30
    7  A    between atoms: C_27  and  C_54
    8  A    between atoms: C_36  and  C_46
    9  A    between atoms: C_38  and  C_40
   10  A    between atoms: C_40  and  N_52
                            x       y       z     vdW  Elec       q    Type
                         _______ _______ _______ _____ _____    ______ ____

>  <TORSDO>
F 10

$$$$
