=
 OpenBabel11072413583D

 29 32  0  0  1  0  0  0  0  0999 V2000
  160.9100  207.5500  150.4440 C   0  0  0  0  0  2  0  0  0  0  0  0
  162.4770  208.6130  149.0100 O   0  0  0  0  0  0  0  0  0  0  0  0
  161.8590  208.6560  150.1050 C   0  0  0  0  0  0  0  0  0  0  0  0
  162.1420  209.7180  151.0230 N   0  0  0  0  0  2  0  0  0  0  0  0
  160.1160  211.7850  156.1890 S   0  0  0  0  0  0  0  0  0  0  0  0
  161.5070  209.2940  153.3050 C   0  0  0  0  0  2  0  0  0  0  0  0
  160.5580  209.6500  154.4230 C   0  0  2  0  0  3  0  0  0  0  0  0
  160.8940  211.1450  154.6560 C   0  0  2  0  0  0  0  0  0  0  0  0
  160.4670  211.2320  152.2530 C   0  0  0  0  0  3  0  0  0  0  0  0
  160.8720  210.1600  155.7790 C   0  0  1  0  0  0  0  0  0  0  0  0
  160.1440  211.7190  153.4720 C   0  0  0  0  0  3  0  0  0  0  0  0
  161.3820  210.0450  152.1910 C   0  0  1  0  0  3  0  0  0  0  0  0
  162.5610  209.0880  157.1450 O   0  0  0  0  0  1  0  0  0  0  0  0
  162.2720  209.9810  156.3030 C   0  0  0  0  0  0  0  0  0  0  0  0
  163.2750  210.8070  155.8190 O   0  0  0  0  0  0  0  0  0  0  0  0
  161.6570  206.2640  150.7960 C   0  0  0  0  0  2  0  0  0  0  0  0
  160.4750  202.9290  149.9050 O   0  0  0  0  0  0  0  0  0  0  0  0
  161.5260  203.5890  151.8240 O   0  0  0  0  0  1  0  0  0  0  0  0
  161.0560  203.8460  150.5430 C   0  0  0  0  0  0  0  0  0  0  0  0
  161.2120  205.1500  149.9650 N   0  0  0  0  0  0  0  0  0  0  0  0
  160.7430  205.4320  148.6130 C   0  0  0  0  0  2  0  0  0  0  0  0
  161.0420  204.2760  145.1040 C   0  0  1  0  0  3  0  0  0  0  0  0
  161.5030  206.3620  146.4110 C   0  0  0  0  0  2  0  0  0  0  0  0
  160.4790  205.6230  145.5500 C   0  0  0  0  0  2  0  0  0  0  0  0
  162.4140  204.1530  147.2010 C   0  0  0  0  0  2  0  0  0  0  0  0
  161.9060  205.5320  147.6320 C   0  0  2  0  0  3  0  0  0  0  0  0
  161.3920  203.4280  146.3240 C   0  0  0  0  0  2  0  0  0  0  0  0
  160.0300  202.3210  144.8780 C   0  0  0  0  0  1  0  0  0  0  0  0
  160.0920  203.6050  144.3330 O   0  0  0  0  0  0  0  0  0  0  0  0
  1 16  1  0  0  0  0
  2  3  2  0  0  0  0
  3  1  1  0  0  0  0
  3  4  1  0  0  0  0
  7  6  1  6  0  0  0
  7  8  1  0  0  0  0
  7 10  1  0  0  0  0
  8 11  1  6  0  0  0
  8 10  1  0  0  0  0
  8  5  1  0  0  0  0
  9 11  2  0  0  0  0
 10  5  1  0  0  0  0
 10 14  1  1  0  0  0
 12  4  1  1  0  0  0
 12  9  1  0  0  0  0
 12  6  1  0  0  0  0
 14 13  1  0  0  0  0
 15 14  2  0  0  0  0
 17 19  2  0  0  0  0
 19 18  1  0  0  0  0
 20 19  1  0  0  0  0
 20 16  1  0  0  0  0
 21 20  1  0  0  0  0
 22 29  1  6  0  0  0
 22 24  1  0  0  0  0
 22 27  1  0  0  0  0
 23 26  1  0  0  0  0
 24 23  1  0  0  0  0
 25 26  1  0  0  0  0
 26 21  1  1  0  0  0
 27 25  1  0  0  0  0
 29 28  1  0  0  0  0
M  END
>  <MODEL>
1

>  <REMARK>
 VINA RESULT:      -7.4      0.000      0.000
  Name = 
  8 active torsions:
  status: ('A' for Active; 'I' for Inactive)
    1  A    between atoms: C_2  and  O_27
    2  A    between atoms: C_11  and  C_21
    3  A    between atoms: C_11  and  N_28
    4  A    between atoms: C_13  and  C_21
    5  A    between atoms: C_14  and  C_19
    6  A    between atoms: C_15  and  C_22
    7  A    between atoms: C_15  and  N_28
    8  A    between atoms: N_24  and  C_25
                            x       y       z     vdW  Elec       q    Type
                         _______ _______ _______ _____ _____    ______ ____

>  <TORSDO>
F 8

$$$$
=
 OpenBabel11072413583D

 29 32  0  0  1  0  0  0  0  0999 V2000
  161.1200  207.4880  151.9610 C   0  0  0  0  0  2  0  0  0  0  0  0
  161.4830  205.3420  152.9100 O   0  0  0  0  0  0  0  0  0  0  0  0
  161.1960  206.5480  153.1230 C   0  0  0  0  0  0  0  0  0  0  0  0
  160.8760  206.9640  154.4550 N   0  0  0  0  0  0  0  0  0  0  0  0
  159.1500  212.4860  155.7170 S   0  0  0  0  0  0  0  0  0  0  0  0
  161.1170  209.3310  154.0950 C   0  0  0  0  0  2  0  0  0  0  0  0
  161.0740  210.7000  154.7270 C   0  0  2  0  0  3  0  0  0  0  0  0
  159.5960  210.7870  155.1880 C   0  0  2  0  0  0  0  0  0  0  0  0
  160.1920  208.6710  156.2520 C   0  0  0  0  0  3  0  0  0  0  0  0
  160.2280  211.8630  154.3650 C   0  0  1  0  0  0  0  0  0  0  0  0
  159.7080  209.9210  156.4250 C   0  0  0  0  0  3  0  0  0  0  0  0
  160.7550  208.3170  154.9080 C   0  0  0  0  0  0  0  0  0  0  0  0
  158.6450  211.1000  152.6970 O   0  0  0  0  0  1  0  0  0  0  0  0
  159.5850  211.8830  153.0040 C   0  0  0  0  0  0  0  0  0  0  0  0
  160.0240  212.8130  152.0730 O   0  0  0  0  0  0  0  0  0  0  0  0
  162.4470  207.5490  151.2050 C   0  0  0  0  0  2  0  0  0  0  0  0
  162.1230  210.0500  148.5690 O   0  0  0  0  0  0  0  0  0  0  0  0
  161.8250  210.3220  150.8190 O   0  0  0  0  0  1  0  0  0  0  0  0
  162.0660  209.5210  149.7090 C   0  0  0  0  0  0  0  0  0  0  0  0
  162.2680  208.1100  149.8690 N   0  0  0  0  0  0  0  0  0  0  0  0
  162.5010  207.2500  148.7150 C   0  0  0  0  0  2  0  0  0  0  0  0
  161.0530  203.9270  147.9400 C   0  0  1  0  0  3  0  0  0  0  0  0
  160.3010  206.0760  148.9840 C   0  0  0  0  0  2  0  0  0  0  0  0
  160.8790  204.6870  149.2530 C   0  0  0  0  0  2  0  0  0  0  0  0
  161.4260  206.0940  146.7330 C   0  0  0  0  0  2  0  0  0  0  0  0
  161.1920  206.8740  148.0290 C   0  0  2  0  0  3  0  0  0  0  0  0
  161.9870  204.6990  147.0120 C   0  0  0  0  0  2  0  0  0  0  0  0
  160.6780  202.0500  149.0490 C   0  0  0  0  0  1  0  0  0  0  0  0
  161.5970  202.6670  148.1990 O   0  0  0  0  0  0  0  0  0  0  0  0
  1  3  1  0  0  0  0
  2  3  2  0  0  0  0
  3  4  1  0  0  0  0
  4 12  2  0  0  0  0
  6 12  1  0  0  0  0
  7  6  1  6  0  0  0
  7  8  1  0  0  0  0
  8  5  1  0  0  0  0
  8 11  1  6  0  0  0
  9 11  2  0  0  0  0
 10 14  1  6  0  0  0
 10  7  1  0  0  0  0
 10  8  1  0  0  0  0
 10  5  1  0  0  0  0
 12  9  1  0  0  0  0
 13 14  1  0  0  0  0
 15 14  2  0  0  0  0
 16  1  1  0  0  0  0
 17 19  2  0  0  0  0
 19 20  1  0  0  0  0
 19 18  1  0  0  0  0
 20 16  1  0  0  0  0
 21 20  1  0  0  0  0
 22 29  1  1  0  0  0
 22 24  1  0  0  0  0
 23 24  1  0  0  0  0
 25 27  1  0  0  0  0
 25 26  1  0  0  0  0
 26 21  1  1  0  0  0
 26 23  1  0  0  0  0
 27 22  1  0  0  0  0
 29 28  1  0  0  0  0
M  END
>  <MODEL>
2

>  <REMARK>
 VINA RESULT:      -7.2      2.291      3.903
  Name = 
  8 active torsions:
  status: ('A' for Active; 'I' for Inactive)
    1  A    between atoms: C_2  and  O_27
    2  A    between atoms: C_11  and  C_21
    3  A    between atoms: C_11  and  N_28
    4  A    between atoms: C_13  and  C_21
    5  A    between atoms: C_14  and  C_19
    6  A    between atoms: C_15  and  C_22
    7  A    between atoms: C_15  and  N_28
    8  A    between atoms: N_24  and  C_25
                            x       y       z     vdW  Elec       q    Type
                         _______ _______ _______ _____ _____    ______ ____

>  <TORSDO>
F 8

$$$$
=
 OpenBabel11072413583D

 29 32  0  0  1  0  0  0  0  0999 V2000
  161.0800  207.5430  152.1230 C   0  0  0  0  0  2  0  0  0  0  0  0
  161.3740  205.5160  153.3260 O   0  0  0  0  0  0  0  0  0  0  0  0
  161.2110  206.7620  153.3930 C   0  0  0  0  0  0  0  0  0  0  0  0
  161.0790  207.3800  154.6780 N   0  0  0  0  0  2  0  0  0  0  0  0
  160.1040  212.9330  156.4880 S   0  0  0  0  0  0  0  0  0  0  0  0
  160.4450  209.6380  154.1450 C   0  0  0  0  0  2  0  0  0  0  0  0
  160.6710  211.1000  154.4390 C   0  0  2  0  0  3  0  0  0  0  0  0
  160.2430  211.1910  155.9270 C   0  0  2  0  0  0  0  0  0  0  0  0
  161.8530  209.3650  156.1160 C   0  0  0  0  0  3  0  0  0  0  0  0
  159.6920  212.1180  154.8920 C   0  0  1  0  0  0  0  0  0  0  0  0
  161.4900  210.5950  156.5440 C   0  0  0  0  0  3  0  0  0  0  0  0
  161.1190  208.7850  154.9440 C   0  0  1  0  0  3  0  0  0  0  0  0
  157.5270  212.4490  153.8570 O   0  0  0  0  0  0  0  0  0  0  0  0
  158.2260  211.8320  154.7050 C   0  0  0  0  0  0  0  0  0  0  0  0
  157.6390  210.8360  155.4720 O   0  0  0  0  0  1  0  0  0  0  0  0
  162.4000  207.5840  151.3550 C   0  0  0  0  0  2  0  0  0  0  0  0
  162.0860  210.0330  148.6680 O   0  0  0  0  0  0  0  0  0  0  0  0
  161.8290  210.3600  150.9160 O   0  0  0  0  0  1  0  0  0  0  0  0
  162.0360  209.5300  149.8220 C   0  0  0  0  0  0  0  0  0  0  0  0
  162.2120  208.1190  150.0100 N   0  0  0  0  0  0  0  0  0  0  0  0
  162.4090  207.2290  148.8720 C   0  0  0  0  0  2  0  0  0  0  0  0
  161.0420  203.8680  148.1170 C   0  0  1  0  0  3  0  0  0  0  0  0
  160.2710  205.9700  149.2400 C   0  0  0  0  0  2  0  0  0  0  0  0
  160.9140  204.5990  149.4510 C   0  0  0  0  0  2  0  0  0  0  0  0
  161.2660  206.0670  146.9310 C   0  0  0  0  0  2  0  0  0  0  0  0
  161.0770  206.8160  148.2530 C   0  0  2  0  0  3  0  0  0  0  0  0
  161.8930  204.6890  147.1520 C   0  0  0  0  0  2  0  0  0  0  0  0
  160.8840  201.7310  147.5650 C   0  0  0  0  0  1  0  0  0  0  0  0
  161.6440  202.6250  148.3210 O   0  0  0  0  0  0  0  0  0  0  0  0
  1  3  1  0  0  0  0
  2  3  2  0  0  0  0
  3  4  1  0  0  0  0
  6 12  1  0  0  0  0
  7  6  1  6  0  0  0
  7 10  1  0  0  0  0
  7  8  1  0  0  0  0
  8  5  1  0  0  0  0
  8 11  1  1  0  0  0
  9 11  2  0  0  0  0
 10 14  1  6  0  0  0
 10  8  1  0  0  0  0
 10  5  1  0  0  0  0
 12  4  1  1  0  0  0
 12  9  1  0  0  0  0
 13 14  2  0  0  0  0
 14 15  1  0  0  0  0
 16  1  1  0  0  0  0
 17 19  2  0  0  0  0
 19 20  1  0  0  0  0
 19 18  1  0  0  0  0
 20 16  1  0  0  0  0
 21 20  1  0  0  0  0
 22 29  1  1  0  0  0
 22 24  1  0  0  0  0
 23 24  1  0  0  0  0
 25 27  1  0  0  0  0
 25 26  1  0  0  0  0
 26 21  1  1  0  0  0
 26 23  1  0  0  0  0
 27 22  1  0  0  0  0
 28 29  1  0  0  0  0
M  END
>  <MODEL>
3

>  <REMARK>
 VINA RESULT:      -7.0      2.318      3.945
  Name = 
  8 active torsions:
  status: ('A' for Active; 'I' for Inactive)
    1  A    between atoms: C_2  and  O_27
    2  A    between atoms: C_11  and  C_21
    3  A    between atoms: C_11  and  N_28
    4  A    between atoms: C_13  and  C_21
    5  A    between atoms: C_14  and  C_19
    6  A    between atoms: C_15  and  C_22
    7  A    between atoms: C_15  and  N_28
    8  A    between atoms: N_24  and  C_25
                            x       y       z     vdW  Elec       q    Type
                         _______ _______ _______ _____ _____    ______ ____

>  <TORSDO>
F 8

$$$$
=
 OpenBabel11072413583D

 29 32  0  0  1  0  0  0  0  0999 V2000
  161.3510  206.5790  151.1270 C   0  0  0  0  0  2  0  0  0  0  0  0
  161.7670  205.4440  153.1720 O   0  0  0  0  0  0  0  0  0  0  0  0
  161.5650  205.3370  151.9350 C   0  0  0  0  0  0  0  0  0  0  0  0
  161.6240  204.0410  151.3280 N   0  0  0  0  0  2  0  0  0  0  0  0
  161.2030  202.4550  145.6390 S   0  0  0  0  0  0  0  0  0  0  0  0
  161.2060  204.6630  149.0420 C   0  0  0  0  0  2  0  0  0  0  0  0
  160.6110  204.2380  147.7220 C   0  0  2  0  0  3  0  0  0  0  0  0
  161.4830  203.0070  147.3660 C   0  0  2  0  0  0  0  0  0  0  0  0
  160.7830  202.3290  149.6050 C   0  0  0  0  0  3  0  0  0  0  0  0
  161.2710  204.1270  146.3990 C   0  0  1  0  0  0  0  0  0  0  0  0
  160.8270  202.0060  148.2930 C   0  0  0  0  0  3  0  0  0  0  0  0
  161.2000  203.7140  150.0010 C   0  0  1  0  0  3  0  0  0  0  0  0
  163.6250  204.5260  146.8080 O   0  0  0  0  0  1  0  0  0  0  0  0
  162.5750  204.8490  146.1890 C   0  0  0  0  0  0  0  0  0  0  0  0
  162.6240  205.8800  145.2620 O   0  0  0  0  0  0  0  0  0  0  0  0
  162.6260  207.4180  151.0490 C   0  0  0  0  0  2  0  0  0  0  0  0
  161.5880  210.4820  149.3610 O   0  0  0  0  0  1  0  0  0  0  0  0
  162.3160  208.5290  148.4220 O   0  0  0  0  0  0  0  0  0  0  0  0
  162.0610  209.3280  149.5300 C   0  0  0  0  0  0  0  0  0  0  0  0
  162.3160  208.8310  150.8520 N   0  0  0  0  0  0  0  0  0  0  0  0
  162.0750  209.6630  152.0240 C   0  0  0  0  0  2  0  0  0  0  0  0
  160.5170  210.9280  155.1410 C   0  0  1  0  0  3  0  0  0  0  0  0
  159.8820  210.6530  152.7330 C   0  0  0  0  0  2  0  0  0  0  0  0
  160.4560  211.6110  153.7770 C   0  0  0  0  0  2  0  0  0  0  0  0
  160.8320  208.7080  154.0160 C   0  0  0  0  0  2  0  0  0  0  0  0
  160.7110  209.3700  152.6410 C   0  0  2  0  0  3  0  0  0  0  0  0
  161.3900  209.6790  155.0590 C   0  0  0  0  0  2  0  0  0  0  0  0
  160.0780  212.7870  156.2570 C   0  0  0  0  0  1  0  0  0  0  0  0
  161.0570  211.8080  156.0800 O   0  0  0  0  0  0  0  0  0  0  0  0
  1  3  1  0  0  0  0
  3  2  2  0  0  0  0
  4  3  1  0  0  0  0
  5 10  1  0  0  0  0
  5  8  1  0  0  0  0
  6 12  1  0  0  0  0
  7  6  1  1  0  0  0
  8  7  1  0  0  0  0
  8 11  1  1  0  0  0
  9 12  1  0  0  0  0
 10 14  1  6  0  0  0
 10  8  1  0  0  0  0
 10  7  1  0  0  0  0
 11  9  2  0  0  0  0
 12  4  1  6  0  0  0
 14 13  1  0  0  0  0
 15 14  2  0  0  0  0
 16  1  1  0  0  0  0
 17 19  1  0  0  0  0
 18 19  2  0  0  0  0
 19 20  1  0  0  0  0
 20 16  1  0  0  0  0
 20 21  1  0  0  0  0
 22 29  1  1  0  0  0
 23 24  1  0  0  0  0
 24 22  1  0  0  0  0
 25 27  1  0  0  0  0
 26 21  1  1  0  0  0
 26 23  1  0  0  0  0
 26 25  1  0  0  0  0
 27 22  1  0  0  0  0
 29 28  1  0  0  0  0
M  END
>  <MODEL>
4

>  <REMARK>
 VINA RESULT:      -6.7      3.163      9.170
  Name = 
  8 active torsions:
  status: ('A' for Active; 'I' for Inactive)
    1  A    between atoms: C_2  and  O_27
    2  A    between atoms: C_11  and  C_21
    3  A    between atoms: C_11  and  N_28
    4  A    between atoms: C_13  and  C_21
    5  A    between atoms: C_14  and  C_19
    6  A    between atoms: C_15  and  C_22
    7  A    between atoms: C_15  and  N_28
    8  A    between atoms: N_24  and  C_25
                            x       y       z     vdW  Elec       q    Type
                         _______ _______ _______ _____ _____    ______ ____

>  <TORSDO>
F 8

$$$$
=
 OpenBabel11072413583D

 29 32  0  0  1  0  0  0  0  0999 V2000
  160.7560  206.2670  148.8620 C   0  0  0  0  0  2  0  0  0  0  0  0
  162.2340  208.1020  148.5600 O   0  0  0  0  0  0  0  0  0  0  0  0
  161.7270  207.0690  148.0520 C   0  0  0  0  0  0  0  0  0  0  0  0
  162.0330  206.7380  146.6930 N   0  0  0  0  0  2  0  0  0  0  0  0
  159.7540  201.5800  144.8870 S   0  0  0  0  0  0  0  0  0  0  0  0
  162.2210  204.3450  146.5380 C   0  0  0  0  0  3  0  0  0  0  0  0
  161.9540  203.1240  145.6930 C   0  0  2  0  0  3  0  0  0  0  0  0
  160.4070  203.1400  145.5980 C   0  0  2  0  0  0  0  0  0  0  0  0
  160.8480  205.4170  144.8330 C   0  0  0  0  0  3  0  0  0  0  0  0
  161.1560  201.9200  146.0270 C   0  0  1  0  0  0  0  0  0  0  0  0
  160.2690  204.2280  144.5530 C   0  0  0  0  0  3  0  0  0  0  0  0
  161.7330  205.5000  146.0410 C   0  0  0  0  0  0  0  0  0  0  0  0
  160.0810  202.3750  148.1500 O   0  0  0  0  0  1  0  0  0  0  0  0
  160.8540  201.6430  147.4760 C   0  0  0  0  0  0  0  0  0  0  0  0
  161.4250  200.5280  148.0740 O   0  0  0  0  0  0  0  0  0  0  0  0
  161.4660  205.1760  149.6610 C   0  0  0  0  0  2  0  0  0  0  0  0
  160.5790  203.6490  152.8540 O   0  0  0  0  0  1  0  0  0  0  0  0
  161.2110  202.6100  150.9190 O   0  0  0  0  0  0  0  0  0  0  0  0
  160.8740  203.7520  151.6350 C   0  0  0  0  0  0  0  0  0  0  0  0
  160.8860  205.0350  150.9940 N   0  0  0  0  0  0  0  0  0  0  0  0
  160.5160  206.2420  151.7240 C   0  0  0  0  0  2  0  0  0  0  0  0
  160.7740  209.2280  153.9040 C   0  0  1  0  0  3  0  0  0  0  0  0
  161.5800  206.8570  153.9110 C   0  0  0  0  0  2  0  0  0  0  0  0
  160.4770  207.8070  154.3770 C   0  0  0  0  0  2  0  0  0  0  0  0
  161.9660  208.3140  151.8950 C   0  0  0  0  0  2  0  0  0  0  0  0
  161.7300  206.8830  152.3880 C   0  0  2  0  0  3  0  0  0  0  0  0
  160.8680  209.2620  152.3810 C   0  0  0  0  0  2  0  0  0  0  0  0
  159.3440  210.7450  153.1640 C   0  0  0  0  0  1  0  0  0  0  0  0
  159.7520  210.0820  154.3230 O   0  0  0  0  0  0  0  0  0  0  0  0
  1 16  1  0  0  0  0
  3  2  2  0  0  0  0
  3  1  1  0  0  0  0
  4  3  1  0  0  0  0
  5  8  1  0  0  0  0
  5 10  1  0  0  0  0
  7 10  1  0  0  0  0
  7  6  1  1  0  0  0
  8 11  1  1  0  0  0
  8  7  1  0  0  0  0
  8 10  1  0  0  0  0
  9 12  1  0  0  0  0
 10 14  1  1  0  0  0
 11  9  2  0  0  0  0
 12  6  2  0  0  0  0
 12  4  1  0  0  0  0
 14 15  2  0  0  0  0
 14 13  1  0  0  0  0
 16 20  1  0  0  0  0
 18 19  2  0  0  0  0
 19 17  1  0  0  0  0
 20 19  1  0  0  0  0
 20 21  1  0  0  0  0
 22 29  1  6  0  0  0
 22 24  1  0  0  0  0
 23 24  1  0  0  0  0
 25 27  1  0  0  0  0
 25 26  1  0  0  0  0
 26 21  1  6  0  0  0
 26 23  1  0  0  0  0
 27 22  1  0  0  0  0
 28 29  1  0  0  0  0
M  END
>  <MODEL>
5

>  <REMARK>
 VINA RESULT:      -6.7      3.480      8.691
  Name = 
  8 active torsions:
  status: ('A' for Active; 'I' for Inactive)
    1  A    between atoms: C_2  and  O_27
    2  A    between atoms: C_11  and  C_21
    3  A    between atoms: C_11  and  N_28
    4  A    between atoms: C_13  and  C_21
    5  A    between atoms: C_14  and  C_19
    6  A    between atoms: C_15  and  C_22
    7  A    between atoms: C_15  and  N_28
    8  A    between atoms: N_24  and  C_25
                            x       y       z     vdW  Elec       q    Type
                         _______ _______ _______ _____ _____    ______ ____

>  <TORSDO>
F 8

$$$$
=
 OpenBabel11072413583D

 29 32  0  0  1  0  0  0  0  0999 V2000
  160.4570  210.9540  152.1140 C   0  0  0  0  0  2  0  0  0  0  0  0
  159.4820  211.9600  154.0310 O   0  0  0  0  0  0  0  0  0  0  0  0
  159.6410  212.0140  152.7850 C   0  0  0  0  0  0  0  0  0  0  0  0
  158.9720  213.0390  152.0400 N   0  0  0  0  0  2  0  0  0  0  0  0
  160.1930  213.1090  146.2460 S   0  0  0  0  0  0  0  0  0  0  0  0
  160.4800  213.6270  150.2600 C   0  0  0  0  0  2  0  0  0  0  0  0
  160.6010  214.1100  148.8360 C   0  0  2  0  0  3  0  0  0  0  0  0
  159.9180  212.9590  148.0540 C   0  0  2  0  0  0  0  0  0  0  0  0
  158.1280  213.4400  149.6450 C   0  0  0  0  0  3  0  0  0  0  0  0
  161.2780  213.4580  147.6890 C   0  0  1  0  0  0  0  0  0  0  0  0
  158.4780  213.3310  148.3440 C   0  0  0  0  0  3  0  0  0  0  0  0
  159.2190  213.3820  150.6730 C   0  0  1  0  0  3  0  0  0  0  0  0
  163.5300  212.5870  147.8830 O   0  0  0  0  0  0  0  0  0  0  0  0
  162.2900  212.3810  147.9750 C   0  0  0  0  0  0  0  0  0  0  0  0
  161.8380  211.1330  148.3810 O   0  0  0  0  0  1  0  0  0  0  0  0
  161.4460  210.3130  153.0860 C   0  0  0  0  0  2  0  0  0  0  0  0
  160.5060  207.2370  154.8090 O   0  0  0  0  0  0  0  0  0  0  0  0
  161.2980  209.1800  155.7170 O   0  0  0  0  0  1  0  0  0  0  0  0
  160.9720  208.3910  154.6210 C   0  0  0  0  0  0  0  0  0  0  0  0
  161.1440  208.8990  153.2900 N   0  0  0  0  0  0  0  0  0  0  0  0
  160.8270  208.0790  152.1280 C   0  0  0  0  0  2  0  0  0  0  0  0
  161.3650  206.1620  149.0010 C   0  0  1  0  0  3  0  0  0  0  0  0
  162.5420  207.9510  150.3010 C   0  0  0  0  0  2  0  0  0  0  0  0
  161.5600  207.6680  149.1640 C   0  0  0  0  0  2  0  0  0  0  0  0
  161.7990  205.8390  151.4500 C   0  0  0  0  0  2  0  0  0  0  0  0
  162.0590  207.3380  151.6180 C   0  0  2  0  0  3  0  0  0  0  0  0
  160.8310  205.5630  150.2980 C   0  0  0  0  0  2  0  0  0  0  0  0
  161.1580  206.2020  146.7980 C   0  0  0  0  0  1  0  0  0  0  0  0
  160.4550  205.9180  147.9700 O   0  0  0  0  0  0  0  0  0  0  0  0
  1  3  1  0  0  0  0
  1 16  1  0  0  0  0
  3  2  2  0  0  0  0
  4  3  1  0  0  0  0
  5 10  1  0  0  0  0
  5  8  1  0  0  0  0
  6 12  1  0  0  0  0
  7  6  1  1  0  0  0
  8 11  1  1  0  0  0
  8  7  1  0  0  0  0
  9 12  1  0  0  0  0
 10 14  1  1  0  0  0
 10  8  1  0  0  0  0
 10  7  1  0  0  0  0
 11  9  2  0  0  0  0
 12  4  1  6  0  0  0
 13 14  2  0  0  0  0
 14 15  1  0  0  0  0
 16 20  1  0  0  0  0
 19 17  2  0  0  0  0
 19 18  1  0  0  0  0
 20 19  1  0  0  0  0
 21 20  1  0  0  0  0
 22 29  1  6  0  0  0
 22 24  1  0  0  0  0
 22 27  1  0  0  0  0
 23 26  1  0  0  0  0
 24 23  1  0  0  0  0
 25 26  1  0  0  0  0
 26 21  1  6  0  0  0
 27 25  1  0  0  0  0
 28 29  1  0  0  0  0
M  END
>  <MODEL>
6

>  <REMARK>
 VINA RESULT:      -6.6      3.538      6.039
  Name = 
  8 active torsions:
  status: ('A' for Active; 'I' for Inactive)
    1  A    between atoms: C_2  and  O_27
    2  A    between atoms: C_11  and  C_21
    3  A    between atoms: C_11  and  N_28
    4  A    between atoms: C_13  and  C_21
    5  A    between atoms: C_14  and  C_19
    6  A    between atoms: C_15  and  C_22
    7  A    between atoms: C_15  and  N_28
    8  A    between atoms: N_24  and  C_25
                            x       y       z     vdW  Elec       q    Type
                         _______ _______ _______ _____ _____    ______ ____

>  <TORSDO>
F 8

$$$$
=
 OpenBabel11072413583D

 29 32  0  0  1  0  0  0  0  0999 V2000
  160.7360  206.7060  150.0320 C   0  0  0  0  0  2  0  0  0  0  0  0
  161.9210  207.8570  148.3250 O   0  0  0  0  0  0  0  0  0  0  0  0
  161.6510  207.7880  149.5520 C   0  0  0  0  0  0  0  0  0  0  0  0
  162.2890  208.6960  150.4570 N   0  0  0  0  0  2  0  0  0  0  0  0
  159.5420  209.6300  155.6190 S   0  0  0  0  0  0  0  0  0  0  0  0
  161.8220  210.1630  152.3060 C   0  0  0  0  0  2  0  0  0  0  0  0
  161.5760  210.2590  153.7920 C   0  0  2  0  0  3  0  0  0  0  0  0
  160.2750  209.4310  153.9490 C   0  0  2  0  0  0  0  0  0  0  0  0
  161.6260  207.7770  152.7650 C   0  0  0  0  0  3  0  0  0  0  0  0
  160.3990  210.8130  154.5040 C   0  0  1  0  0  0  0  0  0  0  0  0
  160.8910  208.0500  153.8650 C   0  0  0  0  0  3  0  0  0  0  0  0
  161.9320  208.9070  151.8270 C   0  0  1  0  0  3  0  0  0  0  0  0
  159.4140  212.9660  153.9920 O   0  0  0  0  0  1  0  0  0  0  0  0
  159.4750  211.7310  153.7490 C   0  0  0  0  0  0  0  0  0  0  0  0
  158.6900  211.1990  152.7360 O   0  0  0  0  0  0  0  0  0  0  0  0
  161.5210  205.5060  150.5580 C   0  0  0  0  0  2  0  0  0  0  0  0
  160.2840  202.1060  150.0840 O   0  0  0  0  0  0  0  0  0  0  0  0
  161.0970  203.0600  151.9960 O   0  0  0  0  0  1  0  0  0  0  0  0
  160.8230  203.1020  150.6340 C   0  0  0  0  0  0  0  0  0  0  0  0
  161.1320  204.2770  149.8720 N   0  0  0  0  0  0  0  0  0  0  0  0
  160.8710  204.3320  148.4390 C   0  0  0  0  0  2  0  0  0  0  0  0
  161.8790  204.5620  144.8790 C   0  0  1  0  0  3  0  0  0  0  0  0
  162.9970  204.5020  147.1190 C   0  0  0  0  0  2  0  0  0  0  0  0
  162.4440  205.4060  146.0180 C   0  0  0  0  0  2  0  0  0  0  0  0
  161.3020  202.7450  146.5100 C   0  0  0  0  0  2  0  0  0  0  0  0
  161.9220  203.5540  147.6530 C   0  0  2  0  0  3  0  0  0  0  0  0
  160.7680  203.6560  145.4040 C   0  0  0  0  0  2  0  0  0  0  0  0
  160.4720  206.2390  144.5590 C   0  0  0  0  0  1  0  0  0  0  0  0
  161.3630  205.3990  143.8880 O   0  0  0  0  0  0  0  0  0  0  0  0
  1 16  1  0  0  0  0
  2  3  2  0  0  0  0
  3  1  1  0  0  0  0
  3  4  1  0  0  0  0
  7  6  1  6  0  0  0
  7  8  1  0  0  0  0
  7 10  1  0  0  0  0
  8 11  1  6  0  0  0
  8 10  1  0  0  0  0
  8  5  1  0  0  0  0
  9 11  2  0  0  0  0
 10 14  1  6  0  0  0
 10  5  1  0  0  0  0
 12  4  1  6  0  0  0
 12  6  1  0  0  0  0
 12  9  1  0  0  0  0
 14 13  1  0  0  0  0
 15 14  2  0  0  0  0
 17 19  2  0  0  0  0
 19 18  1  0  0  0  0
 20 16  1  0  0  0  0
 20 19  1  0  0  0  0
 21 20  1  0  0  0  0
 22 29  1  6  0  0  0
 22 27  1  0  0  0  0
 22 24  1  0  0  0  0
 23 26  1  0  0  0  0
 24 23  1  0  0  0  0
 25 26  1  0  0  0  0
 26 21  1  6  0  0  0
 27 25  1  0  0  0  0
 29 28  1  0  0  0  0
M  END
>  <MODEL>
7

>  <REMARK>
 VINA RESULT:      -6.6      1.877      2.474
  Name = 
  8 active torsions:
  status: ('A' for Active; 'I' for Inactive)
    1  A    between atoms: C_2  and  O_27
    2  A    between atoms: C_11  and  C_21
    3  A    between atoms: C_11  and  N_28
    4  A    between atoms: C_13  and  C_21
    5  A    between atoms: C_14  and  C_19
    6  A    between atoms: C_15  and  C_22
    7  A    between atoms: C_15  and  N_28
    8  A    between atoms: N_24  and  C_25
                            x       y       z     vdW  Elec       q    Type
                         _______ _______ _______ _____ _____    ______ ____

>  <TORSDO>
F 8

$$$$
=
 OpenBabel11072413583D

 29 32  0  0  1  0  0  0  0  0999 V2000
  160.9340  208.8820  152.2770 C   0  0  0  0  0  2  0  0  0  0  0  0
  162.7060  210.2340  151.4570 O   0  0  0  0  0  0  0  0  0  0  0  0
  161.9740  209.2300  151.2600 C   0  0  0  0  0  0  0  0  0  0  0  0
  162.1080  208.5010  150.0340 N   0  0  0  0  0  2  0  0  0  0  0  0
  161.0140  202.8610  148.5980 S   0  0  0  0  0  0  0  0  0  0  0  0
  161.1780  206.9140  148.4840 C   0  0  0  0  0  2  0  0  0  0  0  0
  160.4560  205.5980  148.3270 C   0  0  2  0  0  3  0  0  0  0  0  0
  161.4780  204.6040  148.9360 C   0  0  2  0  0  0  0  0  0  0  0  0
  161.3320  206.1730  150.8020 C   0  0  0  0  0  3  0  0  0  0  0  0
  160.8810  204.3890  147.5830 C   0  0  1  0  0  0  0  0  0  0  0  0
  161.2070  204.8890  150.3980 C   0  0  0  0  0  3  0  0  0  0  0  0
  161.5290  207.2230  149.7490 C   0  0  1  0  0  3  0  0  0  0  0  0
  163.0780  205.0510  146.8050 O   0  0  0  0  0  1  0  0  0  0  0  0
  161.9580  204.5330  146.5410 C   0  0  0  0  0  0  0  0  0  0  0  0
  161.7170  204.0530  145.2620 O   0  0  0  0  0  0  0  0  0  0  0  0
  161.3720  209.2880  153.6840 C   0  0  0  0  0  2  0  0  0  0  0  0
  159.8160  207.0070  156.0700 O   0  0  0  0  0  1  0  0  0  0  0  0
  161.2020  206.4970  154.3250 O   0  0  0  0  0  0  0  0  0  0  0  0
  160.4570  207.4080  155.0630 C   0  0  0  0  0  0  0  0  0  0  0  0
  160.4380  208.7940  154.6910 N   0  0  0  0  0  0  0  0  0  0  0  0
  159.6450  209.7600  155.4410 C   0  0  0  0  0  2  0  0  0  0  0  0
  157.4480  212.7130  155.8800 C   0  0  1  0  0  3  0  0  0  0  0  0
  159.9040  212.2190  155.8650 C   0  0  0  0  0  2  0  0  0  0  0  0
  158.6610  212.3730  156.7420 C   0  0  0  0  0  2  0  0  0  0  0  0
  158.4500  211.4380  153.9650 C   0  0  0  0  0  2  0  0  0  0  0  0
  159.7010  211.1420  154.7980 C   0  0  2  0  0  3  0  0  0  0  0  0
  157.2150  211.6100  154.8520 C   0  0  0  0  0  2  0  0  0  0  0  0
  155.6280  211.6340  156.5250 C   0  0  0  0  0  1  0  0  0  0  0  0
  156.3180  212.8350  156.6910 O   0  0  0  0  0  0  0  0  0  0  0  0
  1 16  1  0  0  0  0
  3  2  2  0  0  0  0
  3  1  1  0  0  0  0
  4  3  1  0  0  0  0
  5  8  1  0  0  0  0
  6 12  1  0  0  0  0
  7  6  1  6  0  0  0
  7  8  1  0  0  0  0
  8 11  1  1  0  0  0
 10 14  1  6  0  0  0
 10  7  1  0  0  0  0
 10  5  1  0  0  0  0
 10  8  1  0  0  0  0
 11  9  2  0  0  0  0
 12  4  1  6  0  0  0
 12  9  1  0  0  0  0
 14 13  1  0  0  0  0
 15 14  2  0  0  0  0
 16 20  1  0  0  0  0
 18 19  2  0  0  0  0
 19 17  1  0  0  0  0
 20 19  1  0  0  0  0
 20 21  1  0  0  0  0
 22 29  1  1  0  0  0
 22 24  1  0  0  0  0
 23 24  1  0  0  0  0
 25 26  1  0  0  0  0
 25 27  1  0  0  0  0
 26 21  1  1  0  0  0
 26 23  1  0  0  0  0
 27 22  1  0  0  0  0
 28 29  1  0  0  0  0
M  END
>  <MODEL>
8

>  <REMARK>
 VINA RESULT:      -6.5      3.529      9.285
  Name = 
  8 active torsions:
  status: ('A' for Active; 'I' for Inactive)
    1  A    between atoms: C_2  and  O_27
    2  A    between atoms: C_11  and  C_21
    3  A    between atoms: C_11  and  N_28
    4  A    between atoms: C_13  and  C_21
    5  A    between atoms: C_14  and  C_19
    6  A    between atoms: C_15  and  C_22
    7  A    between atoms: C_15  and  N_28
    8  A    between atoms: N_24  and  C_25
                            x       y       z     vdW  Elec       q    Type
                         _______ _______ _______ _____ _____    ______ ____

>  <TORSDO>
F 8

$$$$
=
 OpenBabel11072413583D

 29 32  0  0  1  0  0  0  0  0999 V2000
  161.1280  207.7820  151.1890 C   0  0  0  0  0  2  0  0  0  0  0  0
  162.1000  209.3680  149.7120 O   0  0  0  0  0  0  0  0  0  0  0  0
  161.5870  209.1640  150.8420 C   0  0  0  0  0  0  0  0  0  0  0  0
  161.5300  210.2390  151.7860 N   0  0  0  0  0  2  0  0  0  0  0  0
  159.2510  211.3400  157.1400 S   0  0  0  0  0  0  0  0  0  0  0  0
  161.2560  209.5790  154.0830 C   0  0  0  0  0  2  0  0  0  0  0  0
  160.3230  209.5440  155.2690 C   0  0  2  0  0  3  0  0  0  0  0  0
  160.1020  211.0550  155.5390 C   0  0  2  0  0  0  0  0  0  0  0  0
  159.5060  211.0110  153.1710 C   0  0  0  0  0  3  0  0  0  0  0  0
  160.5210  210.1150  156.6230 C   0  0  1  0  0  0  0  0  0  0  0  0
  159.1130  211.3270  154.4250 C   0  0  0  0  0  3  0  0  0  0  0  0
  160.7860  210.2460  153.0090 C   0  0  1  0  0  3  0  0  0  0  0  0
  162.8070  209.5750  157.2150 O   0  0  0  0  0  0  0  0  0  0  0  0
  161.9220  210.4580  157.0550 C   0  0  0  0  0  0  0  0  0  0  0  0
  162.2500  211.7910  157.2530 O   0  0  0  0  0  1  0  0  0  0  0  0
  162.2940  206.9050  151.6410 C   0  0  0  0  0  2  0  0  0  0  0  0
  160.8350  203.6480  152.3970 O   0  0  0  0  0  0  0  0  0  0  0  0
  161.1610  205.4130  153.8130 O   0  0  0  0  0  1  0  0  0  0  0  0
  161.3080  204.8010  152.5740 C   0  0  0  0  0  0  0  0  0  0  0  0
  161.9730  205.4880  151.5050 N   0  0  0  0  0  0  0  0  0  0  0  0
  162.1560  204.8540  150.2050 C   0  0  0  0  0  2  0  0  0  0  0  0
  161.3570  204.7190  146.5880 C   0  0  1  0  0  3  0  0  0  0  0  0
  160.8510  203.3840  148.6460 C   0  0  0  0  0  2  0  0  0  0  0  0
  161.7870  203.5320  147.4470 C   0  0  0  0  0  2  0  0  0  0  0  0
  160.4530  205.8690  148.6260 C   0  0  0  0  0  2  0  0  0  0  0  0
  160.8220  204.6600  149.4900 C   0  0  2  0  0  3  0  0  0  0  0  0
  161.3830  205.9990  147.4180 C   0  0  0  0  0  2  0  0  0  0  0  0
  161.4150  205.2230  144.4340 C   0  0  0  0  0  1  0  0  0  0  0  0
  162.2290  204.8530  145.5060 O   0  0  0  0  0  0  0  0  0  0  0  0
  1 16  1  0  0  0  0
  2  3  2  0  0  0  0
  3  1  1  0  0  0  0
  3  4  1  0  0  0  0
  7  6  1  6  0  0  0
  7  8  1  0  0  0  0
  7 10  1  0  0  0  0
  8 11  1  6  0  0  0
  8 10  1  0  0  0  0
  8  5  1  0  0  0  0
  9 11  2  0  0  0  0
 10 14  1  1  0  0  0
 10  5  1  0  0  0  0
 12  4  1  1  0  0  0
 12  9  1  0  0  0  0
 12  6  1  0  0  0  0
 14 13  2  0  0  0  0
 14 15  1  0  0  0  0
 17 19  2  0  0  0  0
 19 18  1  0  0  0  0
 20 16  1  0  0  0  0
 20 19  1  0  0  0  0
 21 20  1  0  0  0  0
 22 29  1  6  0  0  0
 22 27  1  0  0  0  0
 22 24  1  0  0  0  0
 23 26  1  0  0  0  0
 24 23  1  0  0  0  0
 25 26  1  0  0  0  0
 26 21  1  6  0  0  0
 27 25  1  0  0  0  0
 28 29  1  0  0  0  0
M  END
>  <MODEL>
9

>  <REMARK>
 VINA RESULT:      -6.4      1.415      1.994
  Name = 
  8 active torsions:
  status: ('A' for Active; 'I' for Inactive)
    1  A    between atoms: C_2  and  O_27
    2  A    between atoms: C_11  and  C_21
    3  A    between atoms: C_11  and  N_28
    4  A    between atoms: C_13  and  C_21
    5  A    between atoms: C_14  and  C_19
    6  A    between atoms: C_15  and  C_22
    7  A    between atoms: C_15  and  N_28
    8  A    between atoms: N_24  and  C_25
                            x       y       z     vdW  Elec       q    Type
                         _______ _______ _______ _____ _____    ______ ____

>  <TORSDO>
F 8

$$$$
