=
 OpenBabel11072414153D

 34 38  0  0  1  0  0  0  0  0999 V2000
  160.1360  209.9550  153.3640 C   0  0  0  0  0  0  0  0  0  0  0  0
  161.5050  211.6510  150.6220 C   0  0  2  0  0  3  0  0  0  0  0  0
  162.0150  210.2850  150.4980 N   0  0  0  0  0  2  0  0  0  0  0  0
  159.6910  209.8570  155.6890 C   0  0  0  0  0  3  0  0  0  0  0  0
  162.8440  209.9790  151.6580 C   0  0  0  0  0  2  0  0  0  0  0  0
  159.3570  210.2590  154.4360 N   0  0  0  0  0  0  0  0  0  0  0  0
  161.3280  209.2220  153.5570 C   0  0  0  0  0  0  0  0  0  0  0  0
  162.2630  208.8010  152.4500 C   0  0  1  0  0  3  0  0  0  0  0  0
  160.4570  211.7730  151.7420 C   0  0  0  0  0  2  0  0  0  0  0  0
  159.7210  210.4690  152.0240 C   0  0  0  0  0  2  0  0  0  0  0  0
  161.6410  208.8200  154.8570 C   0  0  0  0  0  3  0  0  0  0  0  0
  160.8270  209.1410  155.8920 N   0  0  0  0  0  0  0  0  0  0  0  0
  161.7030  207.7520  151.5890 N   0  0  0  0  0  0  0  0  0  0  0  0
  160.1670  206.5670  150.3870 C   0  0  0  0  0  3  0  0  0  0  0  0
  160.4190  207.7370  150.9750 C   0  0  0  0  0  3  0  0  0  0  0  0
  160.8330  204.3990  151.3420 C   0  0  0  0  0  1  0  0  0  0  0  0
  163.3290  206.0660  151.8940 O   0  0  0  0  0  0  0  0  0  0  0  0
  162.2380  206.4540  151.3970 C   0  0  0  0  0  0  0  0  0  0  0  0
  161.3240  205.6130  150.5620 C   0  0  2  0  0  0  0  0  0  0  0  0
  162.1580  204.6870  146.4300 C   0  0  2  0  0  3  0  0  0  0  0  0
  161.2430  203.9300  145.4870 C   0  0  0  0  0  2  0  0  0  0  0  0
  161.8730  206.3610  148.3040 C   0  0  0  0  0  2  0  0  0  0  0  0
  162.0120  203.5620  147.4570 C   0  0  2  0  0  3  0  0  0  0  0  0
  161.0810  202.8250  146.5170 C   0  0  0  0  0  2  0  0  0  0  0  0
  161.2610  204.0200  148.7060 C   0  0  0  0  0  2  0  0  0  0  0  0
  161.4710  205.9810  146.8710 C   0  0  0  0  0  2  0  0  0  0  0  0
  161.9100  205.2230  149.2550 N   0  0  2  0  0  0  0  0  0  0  0  0
  160.9280  212.1210  149.2780 C   0  0  1  0  0  3  0  0  0  0  0  0
  159.0600  213.7820  149.0090 O   0  0  0  0  0  0  0  0  0  0  0  0
  160.3760  213.5160  149.3690 C   0  0  0  0  0  0  0  0  0  0  0  0
  161.1100  214.4500  149.7860 O   0  0  0  0  0  1  0  0  0  0  0  0
  161.9560  211.9880  148.1440 C   0  0  2  0  0  3  0  0  0  0  0  0
  163.1770  212.5670  148.4950 O   0  0  0  0  0  1  0  0  0  0  0  0
  161.4420  212.6040  146.8550 C   0  0  0  0  0  1  0  0  0  0  0  0
  1  7  2  0  0  0  0
  1  6  1  0  0  0  0
  2 28  1  6  0  0  0
  2  9  1  0  0  0  0
  3  2  1  0  0  0  0
  3  5  1  0  0  0  0
  4 12  1  0  0  0  0
  5  8  1  0  0  0  0
  6  4  2  0  0  0  0
  7 11  1  0  0  0  0
  8 13  1  6  0  0  0
  8  7  1  0  0  0  0
  9 10  1  0  0  0  0
 10  1  1  0  0  0  0
 11 12  2  0  0  0  0
 14 19  1  0  0  0  0
 14 15  2  0  0  0  0
 15 13  1  0  0  0  0
 18 13  1  0  0  0  0
 18 17  2  0  0  0  0
 19 16  1  1  0  0  0
 19 18  1  0  0  0  0
 20 21  1  6  0  0  0
 20 26  1  0  0  0  0
 20 23  1  0  0  0  0
 21 24  1  0  0  0  0
 23 24  1  6  0  0  0
 23 25  1  0  0  0  0
 25 27  1  0  0  0  0
 26 22  1  0  0  0  0
 27 22  1  6  0  0  0
 27 19  1  0  0  0  0
 28 30  1  1  0  0  0
 29 30  2  0  0  0  0
 30 31  1  0  0  0  0
 32 34  1  6  0  0  0
 32 33  1  0  0  0  0
 32 28  1  0  0  0  0
M  END
>  <MODEL>
1

>  <REMARK>
 VINA RESULT:      -4.6      0.000      0.000
  Name = 
  5 active torsions:
  status: ('A' for Active; 'I' for Inactive)
    1  A    between atoms: N_2  and  C_22
    2  A    between atoms: C_5  and  C_15
    3  A    between atoms: C_7  and  C_15
    4  A    between atoms: C_13  and  C_15
    5  A    between atoms: C_33  and  N_34
                            x       y       z     vdW  Elec       q    Type
                         _______ _______ _______ _____ _____    ______ ____

>  <TORSDO>
F 5

$$$$
=
 OpenBabel11072414153D

 34 38  0  0  1  0  0  0  0  0999 V2000
  157.0230  212.2340  154.7220 C   0  0  0  0  0  0  0  0  0  0  0  0
  159.2470  213.1780  152.1870 C   0  0  2  0  0  3  0  0  0  0  0  0
  160.0600  212.3840  153.1080 N   0  0  0  0  0  2  0  0  0  0  0  0
  155.3490  212.8210  156.2930 C   0  0  0  0  0  3  0  0  0  0  0  0
  160.1010  213.0510  154.4050 C   0  0  0  0  0  2  0  0  0  0  0  0
  155.7190  212.4560  155.0390 N   0  0  0  0  0  0  0  0  0  0  0  0
  158.0160  212.4030  155.7120 C   0  0  0  0  0  0  0  0  0  0  0  0
  159.4900  212.1630  155.4960 C   0  0  1  0  0  3  0  0  0  0  0  0
  157.7540  213.1390  152.5580 C   0  0  0  0  0  2  0  0  0  0  0  0
  157.3530  211.8760  153.3100 C   0  0  0  0  0  2  0  0  0  0  0  0
  157.6020  212.7740  156.9930 C   0  0  0  0  0  3  0  0  0  0  0  0
  156.2880  212.9760  157.2610 N   0  0  0  0  0  0  0  0  0  0  0  0
  159.8260  210.7430  155.3350 N   0  0  0  0  0  0  0  0  0  0  0  0
  159.5850  208.4740  155.3570 C   0  0  0  0  0  3  0  0  0  0  0  0
  158.9330  209.6350  155.3850 C   0  0  0  0  0  3  0  0  0  0  0  0
  161.7110  208.0840  156.5340 C   0  0  0  0  0  1  0  0  0  0  0  0
  162.1840  210.8760  155.3950 O   0  0  0  0  0  0  0  0  0  0  0  0
  161.1290  210.1870  155.3350 C   0  0  0  0  0  0  0  0  0  0  0  0
  161.0780  208.6920  155.2880 C   0  0  2  0  0  0  0  0  0  0  0  0
  161.8430  206.9430  151.4170 C   0  0  2  0  0  3  0  0  0  0  0  0
  161.0840  205.7850  150.8000 C   0  0  0  0  0  2  0  0  0  0  0  0
  161.2750  208.9360  152.8670 C   0  0  0  0  0  2  0  0  0  0  0  0
  162.0480  206.1190  152.6890 C   0  0  2  0  0  3  0  0  0  0  0  0
  161.2690  204.9750  152.0730 C   0  0  0  0  0  2  0  0  0  0  0  0
  161.2900  206.7020  153.8800 C   0  0  0  0  0  2  0  0  0  0  0  0
  160.8870  208.1210  151.6250 C   0  0  0  0  0  2  0  0  0  0  0  0
  161.6550  208.1200  154.0460 N   0  0  2  0  0  0  0  0  0  0  0  0
  159.4660  212.6980  150.7440 C   0  0  1  0  0  3  0  0  0  0  0  0
  158.4150  212.9610  148.4760 O   0  0  0  0  0  0  0  0  0  0  0  0
  158.5730  213.4230  149.7770 C   0  0  0  0  0  0  0  0  0  0  0  0
  157.9520  214.4520  150.1530 O   0  0  0  0  0  1  0  0  0  0  0  0
  160.9440  212.7940  150.3350 C   0  0  2  0  0  3  0  0  0  0  0  0
  161.1460  213.8060  149.3950 O   0  0  0  0  0  1  0  0  0  0  0  0
  161.4550  211.4720  149.7910 C   0  0  0  0  0  1  0  0  0  0  0  0
  1  6  2  0  0  0  0
  1  7  1  0  0  0  0
  2 28  1  6  0  0  0
  2  9  1  0  0  0  0
  2  3  1  0  0  0  0
  3  5  1  0  0  0  0
  4 12  2  0  0  0  0
  6  4  1  0  0  0  0
  7 11  2  0  0  0  0
  8  5  1  6  0  0  0
  8  7  1  0  0  0  0
  9 10  1  0  0  0  0
 10  1  1  0  0  0  0
 11 12  1  0  0  0  0
 13 15  1  0  0  0  0
 13  8  1  0  0  0  0
 14 15  2  0  0  0  0
 18 13  1  0  0  0  0
 18 17  2  0  0  0  0
 19 18  1  0  0  0  0
 19 14  1  0  0  0  0
 19 16  1  1  0  0  0
 20 21  1  6  0  0  0
 20 26  1  0  0  0  0
 20 23  1  0  0  0  0
 21 24  1  0  0  0  0
 23 24  1  6  0  0  0
 23 25  1  0  0  0  0
 25 27  1  0  0  0  0
 26 22  1  0  0  0  0
 27 22  1  6  0  0  0
 27 19  1  0  0  0  0
 28 30  1  6  0  0  0
 29 30  2  0  0  0  0
 30 31  1  0  0  0  0
 32 34  1  6  0  0  0
 32 28  1  0  0  0  0
 33 32  1  0  0  0  0
M  END
>  <MODEL>
2

>  <REMARK>
 VINA RESULT:      -4.5      2.817      4.773
  Name = 
  5 active torsions:
  status: ('A' for Active; 'I' for Inactive)
    1  A    between atoms: N_2  and  C_22
    2  A    between atoms: C_5  and  C_15
    3  A    between atoms: C_7  and  C_15
    4  A    between atoms: C_13  and  C_15
    5  A    between atoms: C_33  and  N_34
                            x       y       z     vdW  Elec       q    Type
                         _______ _______ _______ _____ _____    ______ ____

>  <TORSDO>
F 5

$$$$
=
 OpenBabel11072414153D

 34 38  0  0  1  0  0  0  0  0999 V2000
  161.3970  210.7600  155.8280 C   0  0  0  0  0  0  0  0  0  0  0  0
  158.7920  212.0940  153.9040 C   0  0  2  0  0  3  0  0  0  0  0  0
  159.4390  211.1250  153.0200 N   0  0  0  0  0  2  0  0  0  0  0  0
  163.2580  211.0930  157.2560 C   0  0  0  0  0  3  0  0  0  0  0  0
  160.8160  211.5430  152.7800 C   0  0  0  0  0  2  0  0  0  0  0  0
  161.9210  210.9540  157.0680 N   0  0  0  0  0  0  0  0  0  0  0  0
  162.2580  210.7200  154.7100 C   0  0  0  0  0  0  0  0  0  0  0  0
  161.8050  210.4860  153.2900 C   0  0  1  0  0  3  0  0  0  0  0  0
  159.3490  212.0260  155.3380 C   0  0  0  0  0  2  0  0  0  0  0  0
  159.9120  210.6570  155.7000 C   0  0  0  0  0  2  0  0  0  0  0  0
  163.6280  210.8620  154.9370 C   0  0  0  0  0  3  0  0  0  0  0  0
  164.1020  211.0460  156.1940 N   0  0  0  0  0  0  0  0  0  0  0  0
  161.3510  209.1110  153.0470 N   0  0  0  0  0  0  0  0  0  0  0  0
  160.2650  207.1300  153.3720 C   0  0  0  0  0  3  0  0  0  0  0  0
  160.3180  208.4120  153.7340 C   0  0  0  0  0  3  0  0  0  0  0  0
  162.2630  205.7620  152.9320 C   0  0  0  0  0  1  0  0  0  0  0  0
  163.0420  208.3800  151.5690 O   0  0  0  0  0  0  0  0  0  0  0  0
  162.0060  208.1430  152.2470 C   0  0  0  0  0  0  0  0  0  0  0  0
  161.3270  206.8130  152.3460 C   0  0  2  0  0  0  0  0  0  0  0  0
  160.4620  205.1650  148.4520 C   0  0  2  0  0  3  0  0  0  0  0  0
  161.3450  205.2760  147.2240 C   0  0  0  0  0  2  0  0  0  0  0  0
  160.8170  204.8840  150.9400 C   0  0  0  0  0  2  0  0  0  0  0  0
  160.5560  206.6800  148.6440 C   0  0  2  0  0  3  0  0  0  0  0  0
  161.4560  206.7780  147.4290 C   0  0  0  0  0  2  0  0  0  0  0  0
  161.3240  207.0520  149.9110 C   0  0  0  0  0  2  0  0  0  0  0  0
  161.2050  204.3860  149.5400 C   0  0  0  0  0  2  0  0  0  0  0  0
  160.7280  206.3590  151.0660 N   0  0  2  0  0  0  0  0  0  0  0  0
  157.2710  211.8800  153.8960 C   0  0  1  0  0  3  0  0  0  0  0  0
  156.2570  210.1590  155.4230 O   0  0  0  0  0  0  0  0  0  0  0  0
  156.7660  211.4400  155.2420 C   0  0  0  0  0  0  0  0  0  0  0  0
  156.8150  212.2350  156.2160 O   0  0  0  0  0  1  0  0  0  0  0  0
  156.5280  213.1250  153.3890 C   0  0  2  0  0  3  0  0  0  0  0  0
  156.9380  214.2740  154.0670 O   0  0  0  0  0  1  0  0  0  0  0  0
  155.0240  212.9610  153.5120 C   0  0  0  0  0  1  0  0  0  0  0  0
  1  6  1  0  0  0  0
  2 28  1  1  0  0  0
  2  9  1  0  0  0  0
  3  2  1  0  0  0  0
  5  3  1  0  0  0  0
  6  4  2  0  0  0  0
  7 11  1  0  0  0  0
  7  1  2  0  0  0  0
  8  5  1  1  0  0  0
  8  7  1  0  0  0  0
  9 10  1  0  0  0  0
 10  1  1  0  0  0  0
 11 12  2  0  0  0  0
 12  4  1  0  0  0  0
 13  8  1  0  0  0  0
 13 15  1  0  0  0  0
 14 15  2  0  0  0  0
 17 18  2  0  0  0  0
 18 19  1  0  0  0  0
 18 13  1  0  0  0  0
 19 16  1  1  0  0  0
 19 14  1  0  0  0  0
 20 21  1  6  0  0  0
 20 23  1  0  0  0  0
 20 26  1  0  0  0  0
 21 24  1  0  0  0  0
 22 27  1  0  0  0  0
 23 24  1  6  0  0  0
 23 25  1  0  0  0  0
 26 22  1  0  0  0  0
 27 25  1  6  0  0  0
 27 19  1  0  0  0  0
 28 30  1  1  0  0  0
 30 29  2  0  0  0  0
 30 31  1  0  0  0  0
 32 34  1  1  0  0  0
 32 28  1  0  0  0  0
 32 33  1  0  0  0  0
M  END
>  <MODEL>
3

>  <REMARK>
 VINA RESULT:      -3.0      3.097      4.498
  Name = 
  5 active torsions:
  status: ('A' for Active; 'I' for Inactive)
    1  A    between atoms: N_2  and  C_22
    2  A    between atoms: C_5  and  C_15
    3  A    between atoms: C_7  and  C_15
    4  A    between atoms: C_13  and  C_15
    5  A    between atoms: C_33  and  N_34
                            x       y       z     vdW  Elec       q    Type
                         _______ _______ _______ _____ _____    ______ ____

>  <TORSDO>
F 5

$$$$
=
 OpenBabel11072414153D

 34 38  0  0  1  0  0  0  0  0999 V2000
  160.2730  209.6910  153.1960 C   0  0  0  0  0  0  0  0  0  0  0  0
  161.2820  211.9750  150.7390 C   0  0  2  0  0  3  0  0  0  0  0  0
  161.9450  210.7240  150.3700 N   0  0  0  0  0  2  0  0  0  0  0  0
  159.9650  209.1560  155.4830 C   0  0  0  0  0  3  0  0  0  0  0  0
  162.8650  210.3390  151.4350 C   0  0  0  0  0  2  0  0  0  0  0  0
  159.5200  209.7130  154.3280 N   0  0  0  0  0  0  0  0  0  0  0  0
  161.5520  209.0940  153.2240 C   0  0  0  0  0  0  0  0  0  0  0  0
  162.4710  208.9820  152.0330 C   0  0  1  0  0  3  0  0  0  0  0  0
  160.2870  211.7770  151.8970 C   0  0  0  0  0  2  0  0  0  0  0  0
  159.7290  210.3610  151.9760 C   0  0  0  0  0  2  0  0  0  0  0  0
  161.9790  208.5260  154.4260 C   0  0  0  0  0  3  0  0  0  0  0  0
  161.1870  208.5670  155.5270 N   0  0  0  0  0  0  0  0  0  0  0  0
  161.9970  208.0270  151.0250 N   0  0  0  0  0  0  0  0  0  0  0  0
  161.3320  207.2100  149.0000 C   0  0  0  0  0  3  0  0  0  0  0  0
  161.9660  208.2090  149.6130 C   0  0  0  0  0  3  0  0  0  0  0  0
  159.3130  206.1290  149.9020 C   0  0  0  0  0  1  0  0  0  0  0  0
  160.9980  206.4140  152.4320 O   0  0  0  0  0  0  0  0  0  0  0  0
  161.2660  206.8390  151.2760 C   0  0  0  0  0  0  0  0  0  0  0  0
  160.8340  206.1920  149.9980 C   0  0  2  0  0  0  0  0  0  0  0  0
  161.8600  202.1750  148.7990 C   0  0  2  0  0  3  0  0  0  0  0  0
  160.9060  200.9990  148.7220 C   0  0  0  0  0  2  0  0  0  0  0  0
  161.7450  204.6580  148.3320 C   0  0  0  0  0  2  0  0  0  0  0  0
  161.3840  202.4550  150.2260 C   0  0  2  0  0  3  0  0  0  0  0  0
  160.4170  201.2920  150.1310 C   0  0  0  0  0  2  0  0  0  0  0  0
  160.6250  203.7760  150.3280 C   0  0  0  0  0  2  0  0  0  0  0  0
  161.4160  203.2530  147.8070 C   0  0  0  0  0  2  0  0  0  0  0  0
  161.4510  204.8610  149.7720 N   0  0  2  0  0  0  0  0  0  0  0  0
  160.5830  212.5820  149.5140 C   0  0  1  0  0  3  0  0  0  0  0  0
  158.6040  214.0870  149.1430 O   0  0  0  0  0  0  0  0  0  0  0  0
  159.7300  213.7610  149.8900 C   0  0  0  0  0  0  0  0  0  0  0  0
  160.0330  214.4530  150.8970 O   0  0  0  0  0  1  0  0  0  0  0  0
  161.5890  212.9360  148.4080 C   0  0  2  0  0  3  0  0  0  0  0  0
  162.1870  214.1760  148.6430 O   0  0  0  0  0  1  0  0  0  0  0  0
  160.9320  212.9300  147.0390 C   0  0  0  0  0  1  0  0  0  0  0  0
  1  7  2  0  0  0  0
  1  6  1  0  0  0  0
  2 28  1  6  0  0  0
  2  9  1  0  0  0  0
  3  2  1  0  0  0  0
  3  5  1  0  0  0  0
  4 12  1  0  0  0  0
  5  8  1  0  0  0  0
  6  4  2  0  0  0  0
  7 11  1  0  0  0  0
  8 13  1  6  0  0  0
  8  7  1  0  0  0  0
  9 10  1  0  0  0  0
 10  1  1  0  0  0  0
 11 12  2  0  0  0  0
 13 18  1  0  0  0  0
 14 15  2  0  0  0  0
 14 19  1  0  0  0  0
 15 13  1  0  0  0  0
 18 17  2  0  0  0  0
 19 16  1  6  0  0  0
 19 18  1  0  0  0  0
 20 26  1  6  0  0  0
 20 23  1  0  0  0  0
 21 20  1  0  0  0  0
 21 24  1  0  0  0  0
 23 24  1  6  0  0  0
 23 25  1  0  0  0  0
 26 22  1  0  0  0  0
 27 22  1  6  0  0  0
 27 19  1  0  0  0  0
 27 25  1  0  0  0  0
 28 30  1  1  0  0  0
 29 30  2  0  0  0  0
 30 31  1  0  0  0  0
 32 34  1  6  0  0  0
 32 33  1  0  0  0  0
 32 28  1  0  0  0  0
M  END
>  <MODEL>
4

>  <REMARK>
 VINA RESULT:      -2.1      1.291      1.776
  Name = 
  5 active torsions:
  status: ('A' for Active; 'I' for Inactive)
    1  A    between atoms: N_2  and  C_22
    2  A    between atoms: C_5  and  C_15
    3  A    between atoms: C_7  and  C_15
    4  A    between atoms: C_13  and  C_15
    5  A    between atoms: C_33  and  N_34
                            x       y       z     vdW  Elec       q    Type
                         _______ _______ _______ _____ _____    ______ ____

>  <TORSDO>
F 5

$$$$
=
 OpenBabel11072414153D

 34 38  0  0  1  0  0  0  0  0999 V2000
  161.7820  210.4890  155.0720 C   0  0  0  0  0  0  0  0  0  0  0  0
  160.9460  207.5650  153.3350 C   0  0  2  0  0  3  0  0  0  0  0  0
  160.0880  208.5950  152.7500 N   0  0  0  0  0  2  0  0  0  0  0  0
  162.1630  211.6060  157.1260 C   0  0  0  0  0  3  0  0  0  0  0  0
  159.1970  209.1160  153.7800 C   0  0  0  0  0  2  0  0  0  0  0  0
  162.6050  210.8400  156.0960 N   0  0  0  0  0  0  0  0  0  0  0  0
  160.4360  210.9150  155.0860 C   0  0  0  0  0  0  0  0  0  0  0  0
  159.4320  210.6160  154.0000 C   0  0  1  0  0  3  0  0  0  0  0  0
  161.9780  208.1620  154.3090 C   0  0  0  0  0  2  0  0  0  0  0  0
  162.3330  209.6110  153.9960 C   0  0  0  0  0  2  0  0  0  0  0  0
  160.0130  211.7040  156.1570 C   0  0  0  0  0  3  0  0  0  0  0  0
  160.8750  212.0340  157.1520 N   0  0  0  0  0  0  0  0  0  0  0  0
  159.6970  211.3440  152.7530 N   0  0  0  0  0  0  0  0  0  0  0  0
  160.8620  212.2380  151.0060 C   0  0  0  0  0  3  0  0  0  0  0  0
  160.9050  211.3510  152.0000 C   0  0  0  0  0  3  0  0  0  0  0  0
  159.8090  214.4530  151.2100 C   0  0  0  0  0  1  0  0  0  0  0  0
  157.7700  212.7070  152.6620 O   0  0  0  0  0  0  0  0  0  0  0  0
  158.8840  212.3580  152.1880 C   0  0  0  0  0  0  0  0  0  0  0  0
  159.5400  212.9680  150.9890 C   0  0  2  0  0  0  0  0  0  0  0  0
  157.6380  213.1690  147.1200 C   0  0  2  0  0  3  0  0  0  0  0  0
  156.8270  214.3350  146.5880 C   0  0  0  0  0  2  0  0  0  0  0  0
  159.7010  212.8800  148.5550 C   0  0  0  0  0  2  0  0  0  0  0  0
  156.7930  213.1760  148.3960 C   0  0  2  0  0  3  0  0  0  0  0  0
  156.0030  214.3550  147.8650 C   0  0  0  0  0  2  0  0  0  0  0  0
  157.6070  213.5850  149.6220 C   0  0  0  0  0  2  0  0  0  0  0  0
  159.0790  213.6260  147.3660 C   0  0  0  0  0  2  0  0  0  0  0  0
  158.8010  212.7280  149.7250 N   0  0  2  0  0  0  0  0  0  0  0  0
  161.6400  206.7640  152.2240 C   0  0  1  0  0  3  0  0  0  0  0  0
  160.9520  204.7850  153.6120 O   0  0  0  0  0  1  0  0  0  0  0  0
  161.6620  205.2930  152.5310 C   0  0  0  0  0  0  0  0  0  0  0  0
  162.3200  204.5120  151.7950 O   0  0  0  0  0  0  0  0  0  0  0  0
  161.0180  207.0490  150.8490 C   0  0  2  0  0  3  0  0  0  0  0  0
  160.5250  205.8820  150.2620 O   0  0  0  0  0  1  0  0  0  0  0  0
  162.0140  207.7160  149.9160 C   0  0  0  0  0  1  0  0  0  0  0  0
  1  7  2  0  0  0  0
  1  6  1  0  0  0  0
  2 28  1  6  0  0  0
  2  9  1  0  0  0  0
  3  2  1  0  0  0  0
  3  5  1  0  0  0  0
  4 12  1  0  0  0  0
  5  8  1  0  0  0  0
  6  4  2  0  0  0  0
  7 11  1  0  0  0  0
  8 13  1  6  0  0  0
  8  7  1  0  0  0  0
 10  9  1  0  0  0  0
 10  1  1  0  0  0  0
 11 12  2  0  0  0  0
 14 15  2  0  0  0  0
 15 13  1  0  0  0  0
 18 17  2  0  0  0  0
 18 13  1  0  0  0  0
 19 14  1  0  0  0  0
 19 16  1  1  0  0  0
 19 18  1  0  0  0  0
 20 21  1  6  0  0  0
 20 26  1  0  0  0  0
 20 23  1  0  0  0  0
 21 24  1  0  0  0  0
 23 24  1  6  0  0  0
 23 25  1  0  0  0  0
 25 27  1  0  0  0  0
 26 22  1  0  0  0  0
 27 22  1  6  0  0  0
 27 19  1  0  0  0  0
 28 30  1  1  0  0  0
 30 29  1  0  0  0  0
 31 30  2  0  0  0  0
 32 34  1  6  0  0  0
 32 28  1  0  0  0  0
 33 32  1  0  0  0  0
M  END
>  <MODEL>
5

>  <REMARK>
 VINA RESULT:      -1.7      3.119      7.161
  Name = 
  5 active torsions:
  status: ('A' for Active; 'I' for Inactive)
    1  A    between atoms: N_2  and  C_22
    2  A    between atoms: C_5  and  C_15
    3  A    between atoms: C_7  and  C_15
    4  A    between atoms: C_13  and  C_15
    5  A    between atoms: C_33  and  N_34
                            x       y       z     vdW  Elec       q    Type
                         _______ _______ _______ _____ _____    ______ ____

>  <TORSDO>
F 5

$$$$
