=
 OpenBabel11072414373D

 26 28  0  0  1  0  0  0  0  0999 V2000
  161.5370  203.4840  148.0810 C   0  0  1  0  0  3  0  0  0  0  0  0
  162.0930  205.4090  146.9850 C   0  0  0  0  0  2  0  0  0  0  0  0
  162.1210  203.9340  146.7660 C   0  0  2  0  0  3  0  0  0  0  0  0
  161.0740  205.6660  148.0030 N   0  0  1  0  0  0  0  0  0  0  0  0
  160.6170  204.4650  148.4840 O   0  0  0  0  0  0  0  0  0  0  0  0
  160.7710  206.5830  150.1720 O   0  0  0  0  0  0  0  0  0  0  0  0
  161.8410  208.5670  149.7960 C   0  0  0  0  0  0  0  0  0  0  0  0
  162.1610  209.7720  149.9730 O   0  0  0  0  0  0  0  0  0  0  0  0
  162.1910  207.7730  148.6300 C   0  0  0  0  0  2  0  0  0  0  0  0
  161.6980  206.3990  149.1080 C   0  0  2  0  0  3  0  0  0  0  0  0
  161.0940  207.7900  150.7060 N   0  0  0  0  0  0  0  0  0  0  0  0
  160.5640  209.5280  153.9940 C   0  0  0  0  0  3  0  0  0  0  0  0
  161.0870  207.2000  154.4010 C   0  0  0  0  0  3  0  0  0  0  0  0
  160.7730  208.4720  154.8860 C   0  0  0  0  0  3  0  0  0  0  0  0
  161.1920  206.9830  153.0240 C   0  0  0  0  0  3  0  0  0  0  0  0
  160.6700  209.3100  152.6170 C   0  0  0  0  0  3  0  0  0  0  0  0
  160.9870  208.0360  152.1190 C   0  0  0  0  0  0  0  0  0  0  0  0
  161.1550  204.7600  144.6160 C   0  0  0  0  0  1  0  0  0  0  0  0
  161.2170  203.5930  145.5830 C   0  0  0  0  0  2  0  0  0  0  0  0
  160.9050  202.0840  148.0680 C   0  0  2  0  0  3  0  0  0  0  0  0
  160.1540  201.8210  149.3370 C   0  0  0  0  0  0  0  0  0  0  0  0
  158.9730  201.3840  149.3060 O   0  0  0  0  0  0  0  0  0  0  0  0
  160.7650  202.0680  150.5590 O   0  0  0  0  0  1  0  0  0  0  0  0
  161.9700  201.0140  147.8570 C   0  0  0  0  0  2  0  0  0  0  0  0
  161.3680  199.7860  147.5840 O   0  0  0  0  0  0  0  0  0  0  0  0
  161.2690  199.7470  146.1930 C   0  0  0  0  0  1  0  0  0  0  0  0
  1 20  1  6  0  0  0
  1  5  1  0  0  0  0
  3 19  1  6  0  0  0
  3  2  1  0  0  0  0
  3  1  1  0  0  0  0
  4  2  1  6  0  0  0
  4  5  1  0  0  0  0
  4 10  1  0  0  0  0
  6 11  1  0  0  0  0
  7  8  2  0  0  0  0
  7 11  1  0  0  0  0
  9  7  1  0  0  0  0
 10  9  1  6  0  0  0
 10  6  1  0  0  0  0
 11 17  1  0  0  0  0
 12 14  1  0  0  0  0
 13 14  2  0  0  0  0
 15 13  1  0  0  0  0
 16 12  2  0  0  0  0
 17 16  1  0  0  0  0
 17 15  2  0  0  0  0
 18 19  1  0  0  0  0
 20 24  1  1  0  0  0
 20 21  1  0  0  0  0
 21 23  1  0  0  0  0
 22 21  2  0  0  0  0
 25 24  1  0  0  0  0
 26 25  1  0  0  0  0
M  END
>  <MODEL>
1

>  <REMARK>
 VINA RESULT:      -7.6      0.000      0.000
  Name = 
  7 active torsions:
  status: ('A' for Active; 'I' for Inactive)
    1  A    between atoms: O_3  and  C_9
    2  A    between atoms: C_4  and  C_26
    3  A    between atoms: C_9  and  C_26
    4  A    between atoms: C_12  and  C_25
    5  A    between atoms: N_13  and  C_20
    6  A    between atoms: C_15  and  C_26
    7  A    between atoms: N_22  and  C_24
                            x       y       z     vdW  Elec       q    Type
                         _______ _______ _______ _____ _____    ______ ____

>  <TORSDO>
F 7

$$$$
=
 OpenBabel11072414373D

 26 28  0  0  1  0  0  0  0  0999 V2000
  161.3310  204.4910  148.6090 C   0  0  1  0  0  3  0  0  0  0  0  0
  161.8880  206.6460  148.1000 C   0  0  0  0  0  2  0  0  0  0  0  0
  161.9150  205.2920  147.4740 C   0  0  2  0  0  3  0  0  0  0  0  0
  160.8700  206.6060  149.1500 N   0  0  1  0  0  0  0  0  0  0  0  0
  160.4120  205.3190  149.2730 O   0  0  0  0  0  0  0  0  0  0  0  0
  160.5040  207.2480  151.4060 O   0  0  0  0  0  0  0  0  0  0  0  0
  162.0350  208.9430  151.4740 C   0  0  0  0  0  0  0  0  0  0  0  0
  162.5940  209.9950  151.8820 O   0  0  0  0  0  0  0  0  0  0  0  0
  162.3440  208.2640  150.2270 C   0  0  0  0  0  2  0  0  0  0  0  0
  161.4950  206.9980  150.4160 C   0  0  2  0  0  3  0  0  0  0  0  0
  161.0200  208.2500  152.1660 N   0  0  0  0  0  0  0  0  0  0  0  0
  160.3170  209.5640  155.6140 C   0  0  0  0  0  3  0  0  0  0  0  0
  160.5660  207.1590  155.7160 C   0  0  0  0  0  3  0  0  0  0  0  0
  160.3280  208.3790  156.3550 C   0  0  0  0  0  3  0  0  0  0  0  0
  160.7940  207.1240  154.3370 C   0  0  0  0  0  3  0  0  0  0  0  0
  160.5460  209.5280  154.2350 C   0  0  0  0  0  3  0  0  0  0  0  0
  160.7890  208.3080  153.5840 C   0  0  0  0  0  0  0  0  0  0  0  0
  161.8410  205.4250  144.9800 C   0  0  0  0  0  1  0  0  0  0  0  0
  161.0100  205.3000  146.2430 C   0  0  0  0  0  2  0  0  0  0  0  0
  160.6970  203.1520  148.2030 C   0  0  2  0  0  3  0  0  0  0  0  0
  160.3890  202.3150  149.4060 C   0  0  0  0  0  0  0  0  0  0  0  0
  159.4500  201.4740  149.3810 O   0  0  0  0  0  0  0  0  0  0  0  0
  161.1410  202.4720  150.5610 O   0  0  0  0  0  1  0  0  0  0  0  0
  161.6130  202.3890  147.2530 C   0  0  0  0  0  2  0  0  0  0  0  0
  160.9360  201.2980  146.7070 O   0  0  0  0  0  0  0  0  0  0  0  0
  160.4420  201.7680  145.4900 C   0  0  0  0  0  1  0  0  0  0  0  0
  1 20  1  6  0  0  0
  1  5  1  0  0  0  0
  3 19  1  6  0  0  0
  3  2  1  0  0  0  0
  3  1  1  0  0  0  0
  4  2  1  6  0  0  0
  4  5  1  0  0  0  0
  4 10  1  0  0  0  0
  6 11  1  0  0  0  0
  7  8  2  0  0  0  0
  7 11  1  0  0  0  0
  9  7  1  0  0  0  0
 10  9  1  6  0  0  0
 10  6  1  0  0  0  0
 11 17  1  0  0  0  0
 12 14  1  0  0  0  0
 13 14  2  0  0  0  0
 15 13  1  0  0  0  0
 16 12  2  0  0  0  0
 17 16  1  0  0  0  0
 17 15  2  0  0  0  0
 18 19  1  0  0  0  0
 20 24  1  6  0  0  0
 20 21  1  0  0  0  0
 21 23  1  0  0  0  0
 22 21  2  0  0  0  0
 25 24  1  0  0  0  0
 26 25  1  0  0  0  0
M  END
>  <MODEL>
2

>  <REMARK>
 VINA RESULT:      -7.3      1.300      1.489
  Name = 
  7 active torsions:
  status: ('A' for Active; 'I' for Inactive)
    1  A    between atoms: O_3  and  C_9
    2  A    between atoms: C_4  and  C_26
    3  A    between atoms: C_9  and  C_26
    4  A    between atoms: C_12  and  C_25
    5  A    between atoms: N_13  and  C_20
    6  A    between atoms: C_15  and  C_26
    7  A    between atoms: N_22  and  C_24
                            x       y       z     vdW  Elec       q    Type
                         _______ _______ _______ _____ _____    ______ ____

>  <TORSDO>
F 7

$$$$
=
 OpenBabel11072414373D

 26 28  0  0  1  0  0  0  0  0999 V2000
  161.4510  208.2580  153.0900 C   0  0  1  0  0  3  0  0  0  0  0  0
  161.1520  206.0540  153.6130 C   0  0  0  0  0  2  0  0  0  0  0  0
  161.4460  207.3490  154.2930 C   0  0  2  0  0  3  0  0  0  0  0  0
  160.4980  206.3820  152.3450 N   0  0  1  0  0  0  0  0  0  0  0  0
  160.5170  207.7430  152.1760 O   0  0  0  0  0  0  0  0  0  0  0  0
  160.7460  206.1690  149.9940 O   0  0  0  0  0  0  0  0  0  0  0  0
  161.1070  203.9130  149.9470 C   0  0  0  0  0  0  0  0  0  0  0  0
  161.1650  202.7500  149.4670 O   0  0  0  0  0  0  0  0  0  0  0  0
  161.2160  204.2380  151.3590 C   0  0  0  0  0  2  0  0  0  0  0  0
  161.2670  205.7700  151.2580 C   0  0  2  0  0  3  0  0  0  0  0  0
  160.9300  205.0890  149.1890 N   0  0  0  0  0  0  0  0  0  0  0  0
  162.6670  204.7410  145.8770 C   0  0  0  0  0  3  0  0  0  0  0  0
  160.7560  206.2030  145.6220 C   0  0  0  0  0  3  0  0  0  0  0  0
  161.8610  205.5500  145.0710 C   0  0  0  0  0  3  0  0  0  0  0  0
  160.4560  206.0480  146.9780 C   0  0  0  0  0  3  0  0  0  0  0  0
  162.3670  204.5870  147.2330 C   0  0  0  0  0  3  0  0  0  0  0  0
  161.2590  205.2410  147.7970 C   0  0  0  0  0  0  0  0  0  0  0  0
  160.7080  207.3300  156.6800 C   0  0  0  0  0  1  0  0  0  0  0  0
  160.3050  207.6710  155.2570 C   0  0  0  0  0  2  0  0  0  0  0  0
  161.1920  209.7410  153.3920 C   0  0  2  0  0  3  0  0  0  0  0  0
  161.0250  210.5260  152.1280 C   0  0  0  0  0  0  0  0  0  0  0  0
  160.0920  211.3650  152.0110 O   0  0  0  0  0  1  0  0  0  0  0  0
  161.9040  210.3230  151.0730 O   0  0  0  0  0  0  0  0  0  0  0  0
  162.3240  210.3260  154.2280 C   0  0  0  0  0  2  0  0  0  0  0  0
  161.8140  210.8880  155.3990 O   0  0  0  0  0  0  0  0  0  0  0  0
  162.7100  210.4930  156.3940 C   0  0  0  0  0  1  0  0  0  0  0  0
  1 20  1  1  0  0  0
  1  3  1  0  0  0  0
  2  3  1  0  0  0  0
  3 19  1  1  0  0  0
  4  2  1  1  0  0  0
  5  4  1  0  0  0  0
  5  1  1  0  0  0  0
  6 10  1  0  0  0  0
  7  9  1  0  0  0  0
  8  7  2  0  0  0  0
 10  9  1  1  0  0  0
 10  4  1  0  0  0  0
 11  7  1  0  0  0  0
 11  6  1  0  0  0  0
 12 16  1  0  0  0  0
 13 15  2  0  0  0  0
 14 13  1  0  0  0  0
 14 12  2  0  0  0  0
 15 17  1  0  0  0  0
 16 17  2  0  0  0  0
 17 11  1  0  0  0  0
 19 18  1  0  0  0  0
 20 24  1  6  0  0  0
 21 20  1  0  0  0  0
 22 21  1  0  0  0  0
 23 21  2  0  0  0  0
 24 25  1  0  0  0  0
 25 26  1  0  0  0  0
M  END
>  <MODEL>
3

>  <REMARK>
 VINA RESULT:      -7.1      2.156      8.451
  Name = 
  7 active torsions:
  status: ('A' for Active; 'I' for Inactive)
    1  A    between atoms: O_3  and  C_9
    2  A    between atoms: C_4  and  C_26
    3  A    between atoms: C_9  and  C_26
    4  A    between atoms: C_12  and  C_25
    5  A    between atoms: N_13  and  C_20
    6  A    between atoms: C_15  and  C_26
    7  A    between atoms: N_22  and  C_24
                            x       y       z     vdW  Elec       q    Type
                         _______ _______ _______ _____ _____    ______ ____

>  <TORSDO>
F 7

$$$$
=
 OpenBabel11072414373D

 26 28  0  0  1  0  0  0  0  0999 V2000
  161.0640  204.2030  148.4270 C   0  0  1  0  0  3  0  0  0  0  0  0
  160.4710  203.1200  150.3490 C   0  0  0  0  0  2  0  0  0  0  0  0
  160.4440  202.9030  148.8730 C   0  0  2  0  0  3  0  0  0  0  0  0
  161.5150  204.1110  150.6110 N   0  0  1  0  0  0  0  0  0  0  0  0
  161.9890  204.5820  149.4130 O   0  0  0  0  0  0  0  0  0  0  0  0
  161.4730  206.4660  150.9080 O   0  0  0  0  0  0  0  0  0  0  0  0
  161.4100  206.4650  153.1920 C   0  0  0  0  0  0  0  0  0  0  0  0
  161.5370  206.9100  154.3640 O   0  0  0  0  0  0  0  0  0  0  0  0
  161.1530  205.0760  152.8520 C   0  0  0  0  0  2  0  0  0  0  0  0
  160.9150  205.2310  151.3420 C   0  0  2  0  0  3  0  0  0  0  0  0
  161.4900  207.2460  152.0210 N   0  0  0  0  0  0  0  0  0  0  0  0
  161.7340  210.8570  151.0110 C   0  0  0  0  0  3  0  0  0  0  0  0
  160.0000  210.6140  152.6820 C   0  0  0  0  0  3  0  0  0  0  0  0
  160.7400  211.4220  151.8160 C   0  0  0  0  0  3  0  0  0  0  0  0
  160.2530  209.2410  152.7460 C   0  0  0  0  0  3  0  0  0  0  0  0
  161.9860  209.4830  151.0760 C   0  0  0  0  0  3  0  0  0  0  0  0
  161.2500  208.6630  151.9450 C   0  0  0  0  0  0  0  0  0  0  0  0
  161.1690  200.6240  149.5970 C   0  0  0  0  0  1  0  0  0  0  0  0
  161.3190  201.6970  148.5350 C   0  0  0  0  0  2  0  0  0  0  0  0
  161.7020  204.1750  147.0300 C   0  0  2  0  0  3  0  0  0  0  0  0
  162.2120  205.5290  146.6450 C   0  0  0  0  0  0  0  0  0  0  0  0
  162.6840  205.7350  145.4950 O   0  0  0  0  0  0  0  0  0  0  0  0
  162.1690  206.5660  147.5660 O   0  0  0  0  0  1  0  0  0  0  0  0
  160.7040  203.6740  145.9920 C   0  0  0  0  0  2  0  0  0  0  0  0
  161.2060  202.5410  145.3520 O   0  0  0  0  0  0  0  0  0  0  0  0
  160.0810  201.7560  145.0980 C   0  0  0  0  0  1  0  0  0  0  0  0
  1 20  1  6  0  0  0
  1  3  1  0  0  0  0
  1  5  1  0  0  0  0
  3 19  1  1  0  0  0
  3  2  1  0  0  0  0
  4  2  1  6  0  0  0
  4 10  1  0  0  0  0
  5  4  1  0  0  0  0
  6 10  1  0  0  0  0
  6 11  1  0  0  0  0
  7  8  2  0  0  0  0
  9  7  1  0  0  0  0
 10  9  1  1  0  0  0
 11  7  1  0  0  0  0
 12 16  2  0  0  0  0
 12 14  1  0  0  0  0
 13 15  1  0  0  0  0
 14 13  2  0  0  0  0
 16 17  1  0  0  0  0
 17 11  1  0  0  0  0
 17 15  2  0  0  0  0
 19 18  1  0  0  0  0
 20 24  1  6  0  0  0
 21 20  1  0  0  0  0
 21 23  1  0  0  0  0
 22 21  2  0  0  0  0
 25 24  1  0  0  0  0
 26 25  1  0  0  0  0
M  END
>  <MODEL>
4

>  <REMARK>
 VINA RESULT:      -6.4      2.068      3.787
  Name = 
  7 active torsions:
  status: ('A' for Active; 'I' for Inactive)
    1  A    between atoms: O_3  and  C_9
    2  A    between atoms: C_4  and  C_26
    3  A    between atoms: C_9  and  C_26
    4  A    between atoms: C_12  and  C_25
    5  A    between atoms: N_13  and  C_20
    6  A    between atoms: C_15  and  C_26
    7  A    between atoms: N_22  and  C_24
                            x       y       z     vdW  Elec       q    Type
                         _______ _______ _______ _____ _____    ______ ____

>  <TORSDO>
F 7

$$$$
=
 OpenBabel11072414373D

 26 28  0  0  1  0  0  0  0  0999 V2000
  161.1330  206.1800  151.2000 C   0  0  1  0  0  3  0  0  0  0  0  0
  160.8810  205.2570  153.2740 C   0  0  0  0  0  2  0  0  0  0  0  0
  160.8550  204.8440  151.8410 C   0  0  2  0  0  3  0  0  0  0  0  0
  161.6690  206.4890  153.3440 N   0  0  1  0  0  0  0  0  0  0  0  0
  161.9760  206.8910  152.0690 O   0  0  0  0  0  0  0  0  0  0  0  0
  160.7470  208.6650  153.1210 O   0  0  0  0  0  0  0  0  0  0  0  0
  161.1980  209.3860  155.2410 C   0  0  0  0  0  0  0  0  0  0  0  0
  161.3920  210.2040  156.1800 O   0  0  0  0  0  0  0  0  0  0  0  0
  161.4560  207.9590  155.3140 C   0  0  0  0  0  2  0  0  0  0  0  0
  160.8470  207.5280  153.9710 C   0  0  2  0  0  3  0  0  0  0  0  0
  160.6940  209.7260  153.9690 N   0  0  0  0  0  0  0  0  0  0  0  0
  157.9610  212.2990  154.0980 C   0  0  0  0  0  3  0  0  0  0  0  0
  159.5220  212.8860  152.3440 C   0  0  0  0  0  3  0  0  0  0  0  0
  158.3600  213.1590  153.0700 C   0  0  0  0  0  3  0  0  0  0  0  0
  160.2850  211.7540  152.6450 C   0  0  0  0  0  3  0  0  0  0  0  0
  158.7240  211.1670  154.3970 C   0  0  0  0  0  3  0  0  0  0  0  0
  159.8920  210.8820  153.6710 C   0  0  0  0  0  0  0  0  0  0  0  0
  161.4050  202.4470  151.4030 C   0  0  0  0  0  1  0  0  0  0  0  0
  161.9780  203.8380  151.5960 C   0  0  0  0  0  2  0  0  0  0  0  0
  161.7100  206.1130  149.7780 C   0  0  2  0  0  3  0  0  0  0  0  0
  162.0360  207.4810  149.2650 C   0  0  0  0  0  0  0  0  0  0  0  0
  162.7950  207.6310  148.2700 O   0  0  0  0  0  0  0  0  0  0  0  0
  161.5020  208.5960  149.8960 O   0  0  0  0  0  1  0  0  0  0  0  0
  160.7370  205.4160  148.8340 C   0  0  0  0  0  2  0  0  0  0  0  0
  161.3350  204.2860  148.2780 O   0  0  0  0  0  0  0  0  0  0  0  0
  161.5260  204.6170  146.9360 C   0  0  0  0  0  1  0  0  0  0  0  0
  1 20  1  6  0  0  0
  1  3  1  0  0  0  0
  1  5  1  0  0  0  0
  3 19  1  1  0  0  0
  3  2  1  0  0  0  0
  4  2  1  6  0  0  0
  4 10  1  0  0  0  0
  5  4  1  0  0  0  0
  6 11  1  0  0  0  0
  6 10  1  0  0  0  0
  7  9  1  0  0  0  0
  7  8  2  0  0  0  0
 10  9  1  1  0  0  0
 11  7  1  0  0  0  0
 12 16  1  0  0  0  0
 13 15  2  0  0  0  0
 13 14  1  0  0  0  0
 14 12  2  0  0  0  0
 15 17  1  0  0  0  0
 17 11  1  0  0  0  0
 17 16  2  0  0  0  0
 18 19  1  0  0  0  0
 20 24  1  6  0  0  0
 21 20  1  0  0  0  0
 21 23  1  0  0  0  0
 22 21  2  0  0  0  0
 25 24  1  0  0  0  0
 26 25  1  0  0  0  0
M  END
>  <MODEL>
5

>  <REMARK>
 VINA RESULT:      -6.4      2.716      5.351
  Name = 
  7 active torsions:
  status: ('A' for Active; 'I' for Inactive)
    1  A    between atoms: O_3  and  C_9
    2  A    between atoms: C_4  and  C_26
    3  A    between atoms: C_9  and  C_26
    4  A    between atoms: C_12  and  C_25
    5  A    between atoms: N_13  and  C_20
    6  A    between atoms: C_15  and  C_26
    7  A    between atoms: N_22  and  C_24
                            x       y       z     vdW  Elec       q    Type
                         _______ _______ _______ _____ _____    ______ ____

>  <TORSDO>
F 7

$$$$
=
 OpenBabel11072414373D

 26 28  0  0  1  0  0  0  0  0999 V2000
  160.1510  211.1130  154.3790 C   0  0  1  0  0  3  0  0  0  0  0  0
  161.9180  209.6700  154.4870 C   0  0  0  0  0  2  0  0  0  0  0  0
  161.5800  211.0740  154.8580 C   0  0  2  0  0  3  0  0  0  0  0  0
  160.6530  208.9390  154.4040 N   0  0  1  0  0  0  0  0  0  0  0  0
  159.6190  209.8260  154.5570 O   0  0  0  0  0  0  0  0  0  0  0  0
  160.8250  206.9410  153.1330 O   0  0  0  0  0  0  0  0  0  0  0  0
  161.9780  207.8230  151.3680 C   0  0  0  0  0  0  0  0  0  0  0  0
  162.7140  207.8400  150.3460 O   0  0  0  0  0  0  0  0  0  0  0  0
  161.5510  208.9980  152.1080 C   0  0  0  0  0  2  0  0  0  0  0  0
  160.5540  208.3370  153.0720 C   0  0  2  0  0  3  0  0  0  0  0  0
  161.4440  206.6580  151.9570 N   0  0  0  0  0  0  0  0  0  0  0  0
  160.8250  204.1240  149.2530 C   0  0  0  0  0  3  0  0  0  0  0  0
  161.0370  202.9840  151.3770 C   0  0  0  0  0  3  0  0  0  0  0  0
  160.8310  202.9400  149.9960 C   0  0  0  0  0  3  0  0  0  0  0  0
  161.2370  204.2110  152.0160 C   0  0  0  0  0  3  0  0  0  0  0  0
  161.0250  205.3500  149.8930 C   0  0  0  0  0  3  0  0  0  0  0  0
  161.2300  205.4060  151.2810 C   0  0  0  0  0  0  0  0  0  0  0  0
  163.0100  210.6660  156.8660 C   0  0  0  0  0  1  0  0  0  0  0  0
  161.6870  211.2240  156.3750 C   0  0  0  0  0  2  0  0  0  0  0  0
  159.2720  212.1860  155.0370 C   0  0  2  0  0  3  0  0  0  0  0  0
  157.9990  211.5940  155.5580 C   0  0  0  0  0  0  0  0  0  0  0  0
  157.0420  211.3390  154.7780 O   0  0  0  0  0  0  0  0  0  0  0  0
  157.8700  211.3300  156.9140 O   0  0  0  0  0  1  0  0  0  0  0  0
  158.9650  213.3090  154.0520 C   0  0  0  0  0  2  0  0  0  0  0  0
  159.3250  212.9260  152.7610 O   0  0  0  0  0  0  0  0  0  0  0  0
  158.2300  213.2810  151.9730 C   0  0  0  0  0  1  0  0  0  0  0  0
  1  5  1  0  0  0  0
  1  3  1  0  0  0  0
  1 20  1  1  0  0  0
  2  3  1  0  0  0  0
  3 19  1  1  0  0  0
  4  2  1  6  0  0  0
  4  5  1  0  0  0  0
  7 11  1  0  0  0  0
  7  9  1  0  0  0  0
  8  7  2  0  0  0  0
 10  9  1  6  0  0  0
 10  6  1  0  0  0  0
 10  4  1  0  0  0  0
 11  6  1  0  0  0  0
 12 16  2  0  0  0  0
 12 14  1  0  0  0  0
 13 15  1  0  0  0  0
 14 13  2  0  0  0  0
 16 17  1  0  0  0  0
 17 11  1  0  0  0  0
 17 15  2  0  0  0  0
 19 18  1  0  0  0  0
 20 24  1  6  0  0  0
 20 21  1  0  0  0  0
 21 23  1  0  0  0  0
 22 21  2  0  0  0  0
 25 24  1  0  0  0  0
 26 25  1  0  0  0  0
M  END
>  <MODEL>
6

>  <REMARK>
 VINA RESULT:      -6.2      3.568      9.171
  Name = 
  7 active torsions:
  status: ('A' for Active; 'I' for Inactive)
    1  A    between atoms: O_3  and  C_9
    2  A    between atoms: C_4  and  C_26
    3  A    between atoms: C_9  and  C_26
    4  A    between atoms: C_12  and  C_25
    5  A    between atoms: N_13  and  C_20
    6  A    between atoms: C_15  and  C_26
    7  A    between atoms: N_22  and  C_24
                            x       y       z     vdW  Elec       q    Type
                         _______ _______ _______ _____ _____    ______ ____

>  <TORSDO>
F 7

$$$$
=
 OpenBabel11072414373D

 26 28  0  0  1  0  0  0  0  0999 V2000
  160.9640  205.9050  149.6450 C   0  0  1  0  0  3  0  0  0  0  0  0
  160.5920  204.4390  151.3570 C   0  0  0  0  0  2  0  0  0  0  0  0
  160.5380  204.4760  149.8670 C   0  0  2  0  0  3  0  0  0  0  0  0
  161.5060  205.5040  151.7730 N   0  0  1  0  0  0  0  0  0  0  0  0
  161.8690  206.2320  150.6680 O   0  0  0  0  0  0  0  0  0  0  0  0
  161.0760  207.7530  152.3980 O   0  0  0  0  0  0  0  0  0  0  0  0
  161.2430  207.4590  154.6580 C   0  0  0  0  0  0  0  0  0  0  0  0
  161.4060  207.7730  155.8670 O   0  0  0  0  0  0  0  0  0  0  0  0
  161.2060  206.1000  154.1470 C   0  0  0  0  0  2  0  0  0  0  0  0
  160.7930  206.3910  152.6960 C   0  0  2  0  0  3  0  0  0  0  0  0
  161.0660  208.3800  153.6040 N   0  0  0  0  0  0  0  0  0  0  0  0
  160.4470  211.8280  154.9580 C   0  0  0  0  0  3  0  0  0  0  0  0
  159.2310  211.5600  152.8830 C   0  0  0  0  0  3  0  0  0  0  0  0
  159.5950  212.3470  153.9790 C   0  0  0  0  0  3  0  0  0  0  0  0
  159.7180  210.2550  152.7670 C   0  0  0  0  0  3  0  0  0  0  0  0
  160.9330  210.5230  154.8420 C   0  0  0  0  0  3  0  0  0  0  0  0
  160.5710  209.7230  153.7460 C   0  0  0  0  0  0  0  0  0  0  0  0
  160.8320  202.3210  148.6370 C   0  0  0  0  0  1  0  0  0  0  0  0
  161.5490  203.4750  149.3110 C   0  0  0  0  0  2  0  0  0  0  0  0
  161.5470  206.2020  148.2560 C   0  0  2  0  0  3  0  0  0  0  0  0
  162.2730  207.5120  148.2460 C   0  0  0  0  0  0  0  0  0  0  0  0
  163.5310  207.5500  148.1880 O   0  0  0  0  0  0  0  0  0  0  0  0
  161.5510  208.6960  148.3070 O   0  0  0  0  0  1  0  0  0  0  0  0
  160.4480  206.2030  147.1990 C   0  0  0  0  0  2  0  0  0  0  0  0
  161.0090  206.1660  145.9230 O   0  0  0  0  0  0  0  0  0  0  0  0
  161.5920  204.9020  145.8340 C   0  0  0  0  0  1  0  0  0  0  0  0
  1 20  1  6  0  0  0
  1  3  1  0  0  0  0
  1  5  1  0  0  0  0
  3 19  1  6  0  0  0
  3  2  1  0  0  0  0
  4  2  1  6  0  0  0
  4 10  1  0  0  0  0
  5  4  1  0  0  0  0
  6 10  1  0  0  0  0
  6 11  1  0  0  0  0
  7  8  2  0  0  0  0
  9  7  1  0  0  0  0
 10  9  1  1  0  0  0
 11 17  1  0  0  0  0
 11  7  1  0  0  0  0
 13 14  1  0  0  0  0
 14 12  2  0  0  0  0
 15 13  2  0  0  0  0
 15 17  1  0  0  0  0
 16 12  1  0  0  0  0
 17 16  2  0  0  0  0
 18 19  1  0  0  0  0
 20 24  1  6  0  0  0
 21 20  1  0  0  0  0
 21 23  1  0  0  0  0
 22 21  2  0  0  0  0
 25 24  1  0  0  0  0
 26 25  1  0  0  0  0
M  END
>  <MODEL>
7

>  <REMARK>
 VINA RESULT:      -6.2      2.562      4.681
  Name = 
  7 active torsions:
  status: ('A' for Active; 'I' for Inactive)
    1  A    between atoms: O_3  and  C_9
    2  A    between atoms: C_4  and  C_26
    3  A    between atoms: C_9  and  C_26
    4  A    between atoms: C_12  and  C_25
    5  A    between atoms: N_13  and  C_20
    6  A    between atoms: C_15  and  C_26
    7  A    between atoms: N_22  and  C_24
                            x       y       z     vdW  Elec       q    Type
                         _______ _______ _______ _____ _____    ______ ____

>  <TORSDO>
F 7

$$$$
=
 OpenBabel11072414373D

 26 28  0  0  1  0  0  0  0  0999 V2000
  161.0780  205.4010  147.8390 C   0  0  1  0  0  3  0  0  0  0  0  0
  160.9110  205.4810  150.1160 C   0  0  0  0  0  2  0  0  0  0  0  0
  160.6590  204.5290  148.9960 C   0  0  2  0  0  3  0  0  0  0  0  0
  161.8920  206.4530  149.6310 N   0  0  1  0  0  0  0  0  0  0  0  0
  162.1170  206.2270  148.2980 O   0  0  0  0  0  0  0  0  0  0  0  0
  162.1030  208.7500  149.0690 O   0  0  0  0  0  0  0  0  0  0  0  0
  161.6510  209.5950  151.1430 C   0  0  0  0  0  0  0  0  0  0  0  0
  161.6320  210.4330  152.0840 O   0  0  0  0  0  0  0  0  0  0  0  0
  161.2800  208.1960  151.2660 C   0  0  0  0  0  2  0  0  0  0  0  0
  161.3250  207.7960  149.7840 C   0  0  2  0  0  3  0  0  0  0  0  0
  162.0300  209.8830  149.8160 N   0  0  0  0  0  0  0  0  0  0  0  0
  160.9750  213.3770  148.9270 C   0  0  0  0  0  3  0  0  0  0  0  0
  162.9510  212.7970  147.6570 C   0  0  0  0  0  3  0  0  0  0  0  0
  161.9540  213.7170  147.9890 C   0  0  0  0  0  3  0  0  0  0  0  0
  162.9690  211.5370  148.2610 C   0  0  0  0  0  3  0  0  0  0  0  0
  160.9930  212.1160  149.5300 C   0  0  0  0  0  3  0  0  0  0  0  0
  161.9900  211.1830  149.2010 C   0  0  0  0  0  0  0  0  0  0  0  0
  160.7740  202.1290  149.6810 C   0  0  0  0  0  1  0  0  0  0  0  0
  161.5700  203.3140  149.1650 C   0  0  0  0  0  2  0  0  0  0  0  0
  161.4750  204.6450  146.5630 C   0  0  2  0  0  3  0  0  0  0  0  0
  162.7290  205.2100  145.9710 C   0  0  0  0  0  0  0  0  0  0  0  0
  162.6780  206.1630  145.1470 O   0  0  0  0  0  0  0  0  0  0  0  0
  163.9590  204.6750  146.3290 O   0  0  0  0  0  1  0  0  0  0  0  0
  160.3460  204.6850  145.5400 C   0  0  0  0  0  2  0  0  0  0  0  0
  160.5470  203.7070  144.5660 O   0  0  0  0  0  0  0  0  0  0  0  0
  160.5520  202.5050  145.2740 C   0  0  0  0  0  1  0  0  0  0  0  0
  1 20  1  6  0  0  0
  1  5  1  0  0  0  0
  1  3  1  0  0  0  0
  3 19  1  1  0  0  0
  3  2  1  0  0  0  0
  4 10  1  0  0  0  0
  4  2  1  6  0  0  0
  5  4  1  0  0  0  0
  6 10  1  0  0  0  0
  6 11  1  0  0  0  0
  7  9  1  0  0  0  0
  7  8  2  0  0  0  0
 10  9  1  1  0  0  0
 11  7  1  0  0  0  0
 12 16  1  0  0  0  0
 13 14  1  0  0  0  0
 13 15  2  0  0  0  0
 14 12  2  0  0  0  0
 15 17  1  0  0  0  0
 17 16  2  0  0  0  0
 17 11  1  0  0  0  0
 19 18  1  0  0  0  0
 20 24  1  6  0  0  0
 21 23  1  0  0  0  0
 21 20  1  0  0  0  0
 22 21  2  0  0  0  0
 25 26  1  0  0  0  0
 25 24  1  0  0  0  0
M  END
>  <MODEL>
8

>  <REMARK>
 VINA RESULT:      -6.2      2.790      4.698
  Name = 
  7 active torsions:
  status: ('A' for Active; 'I' for Inactive)
    1  A    between atoms: O_3  and  C_9
    2  A    between atoms: C_4  and  C_26
    3  A    between atoms: C_9  and  C_26
    4  A    between atoms: C_12  and  C_25
    5  A    between atoms: N_13  and  C_20
    6  A    between atoms: C_15  and  C_26
    7  A    between atoms: N_22  and  C_24
                            x       y       z     vdW  Elec       q    Type
                         _______ _______ _______ _____ _____    ______ ____

>  <TORSDO>
F 7

$$$$
=
 OpenBabel11072414373D

 26 28  0  0  1  0  0  0  0  0999 V2000
  161.5140  207.6940  152.0530 C   0  0  1  0  0  3  0  0  0  0  0  0
  161.5620  205.8500  153.4010 C   0  0  0  0  0  2  0  0  0  0  0  0
  161.8200  207.3180  153.4800 C   0  0  2  0  0  3  0  0  0  0  0  0
  160.6660  205.6410  152.2630 N   0  0  1  0  0  0  0  0  0  0  0  0
  160.5000  206.8320  151.6040 O   0  0  0  0  0  0  0  0  0  0  0  0
  160.6710  204.7340  150.0690 O   0  0  0  0  0  0  0  0  0  0  0  0
  160.9400  202.5450  150.6640 C   0  0  0  0  0  0  0  0  0  0  0  0
  160.9070  201.2910  150.5480 O   0  0  0  0  0  0  0  0  0  0  0  0
  161.2020  203.2600  151.9010 C   0  0  0  0  0  2  0  0  0  0  0  0
  161.2990  204.6890  151.3460 C   0  0  2  0  0  3  0  0  0  0  0  0
  160.7330  203.4570  149.6090 N   0  0  0  0  0  0  0  0  0  0  0  0
  161.6500  203.8390  145.9860 C   0  0  0  0  0  3  0  0  0  0  0  0
  160.7790  201.6120  146.3540 C   0  0  0  0  0  3  0  0  0  0  0  0
  161.3080  202.5770  145.4930 C   0  0  0  0  0  3  0  0  0  0  0  0
  160.5910  201.9090  147.7070 C   0  0  0  0  0  3  0  0  0  0  0  0
  161.4610  204.1350  147.3390 C   0  0  0  0  0  3  0  0  0  0  0  0
  160.9280  203.1740  148.2120 C   0  0  0  0  0  0  0  0  0  0  0  0
  160.4790  206.9410  155.5550 C   0  0  0  0  0  1  0  0  0  0  0  0
  160.8340  207.9390  154.4680 C   0  0  0  0  0  2  0  0  0  0  0  0
  161.1430  209.1680  151.8330 C   0  0  2  0  0  3  0  0  0  0  0  0
  161.7730  209.7010  150.5840 C   0  0  0  0  0  0  0  0  0  0  0  0
  162.0050  210.9330  150.4540 O   0  0  0  0  0  1  0  0  0  0  0  0
  162.1000  208.8280  149.5550 O   0  0  0  0  0  0  0  0  0  0  0  0
  161.5600  210.0130  153.0320 C   0  0  0  0  0  2  0  0  0  0  0  0
  160.6570  211.0590  153.2190 O   0  0  0  0  0  0  0  0  0  0  0  0
  160.8330  211.4390  154.5500 C   0  0  0  0  0  1  0  0  0  0  0  0
  1 20  1  1  0  0  0
  1  3  1  0  0  0  0
  2  3  1  0  0  0  0
  3 19  1  1  0  0  0
  4  2  1  1  0  0  0
  5  1  1  0  0  0  0
  5  4  1  0  0  0  0
  6 10  1  0  0  0  0
  7  9  1  0  0  0  0
  8  7  2  0  0  0  0
 10  9  1  1  0  0  0
 10  4  1  0  0  0  0
 11  6  1  0  0  0  0
 11  7  1  0  0  0  0
 12 16  1  0  0  0  0
 13 15  2  0  0  0  0
 14 12  2  0  0  0  0
 14 13  1  0  0  0  0
 15 17  1  0  0  0  0
 16 17  2  0  0  0  0
 17 11  1  0  0  0  0
 19 18  1  0  0  0  0
 20 24  1  1  0  0  0
 21 20  1  0  0  0  0
 22 21  1  0  0  0  0
 23 21  2  0  0  0  0
 24 25  1  0  0  0  0
 25 26  1  0  0  0  0
M  END
>  <MODEL>
9

>  <REMARK>
 VINA RESULT:      -6.1      1.726      8.284
  Name = 
  7 active torsions:
  status: ('A' for Active; 'I' for Inactive)
    1  A    between atoms: O_3  and  C_9
    2  A    between atoms: C_4  and  C_26
    3  A    between atoms: C_9  and  C_26
    4  A    between atoms: C_12  and  C_25
    5  A    between atoms: N_13  and  C_20
    6  A    between atoms: C_15  and  C_26
    7  A    between atoms: N_22  and  C_24
                            x       y       z     vdW  Elec       q    Type
                         _______ _______ _______ _____ _____    ______ ____

>  <TORSDO>
F 7

$$$$
