=
 OpenBabel11072413323D

 36 40  0  0  1  0  0  0  0  0999 V2000
  159.6170  212.5620  152.9250 N   0  0  0  0  0  2  0  0  0  0  0  0
  161.3050  208.6660  154.6360 C   0  0  2  0  0  3  0  0  0  0  0  0
  160.4640  210.2620  152.8090 C   0  0  1  0  0  3  0  0  0  0  0  0
  161.5630  209.0470  156.1070 C   0  0  0  0  0  3  0  0  0  0  0  0
  159.2690  211.1840  152.5250 C   0  0  1  0  0  3  0  0  0  0  0  0
  159.9100  210.4310  155.1960 C   0  0  0  0  0  0  0  0  0  0  0  0
  160.5160  210.0870  156.4960 C   0  0  0  0  0  3  0  0  0  0  0  0
  159.1480  211.4590  155.0100 N   0  0  0  0  0  0  0  0  0  0  0  0
  158.6010  211.8200  153.6960 C   0  0  1  0  0  3  0  0  0  0  0  0
  160.3530  209.6390  154.1250 N   0  0  0  0  0  0  0  0  0  0  0  0
  160.2230  206.6390  155.7850 C   0  0  0  0  0  1  0  0  0  0  0  0
  160.7340  207.2460  154.4840 C   0  0  2  0  0  3  0  0  0  0  0  0
  161.6520  206.2880  153.7260 C   0  0  0  0  0  2  0  0  0  0  0  0
  160.8980  205.1120  153.1040 C   0  0  0  0  0  2  0  0  0  0  0  0
  161.1820  201.4210  150.2220 O   0  0  0  0  0  1  0  0  0  0  0  0
  160.3240  203.6680  149.8470 C   0  0  2  0  0  3  0  0  0  0  0  0
  160.5260  204.9720  150.6000 C   0  0  0  0  0  2  0  0  0  0  0  0
  162.6680  205.3500  151.5490 F   0  0  0  0  0  0  0  0  0  0  0  0
  161.4780  204.6760  151.7580 C   0  0  1  0  0  0  0  0  0  0  0  0
  160.6990  202.5750  150.8440 C   0  0  2  0  0  3  0  0  0  0  0  0
  161.7500  203.1770  151.7500 C   0  0  0  0  0  2  0  0  0  0  0  0
  161.4230  202.5980  148.0300 O   0  0  0  0  0  0  0  0  0  0  0  0
  161.1690  203.6550  148.5920 C   0  0  0  0  0  0  0  0  0  0  0  0
  161.7110  204.9200  148.0150 C   0  0  0  0  0  2  0  0  0  0  0  0
  162.3870  204.6790  146.8130 O   0  0  0  0  0  1  0  0  0  0  0  0
  160.5410  209.2080  151.7090 C   0  0  0  0  0  2  0  0  0  0  0  0
  161.4350  209.7060  148.4820 O   0  0  0  0  0  0  0  0  0  0  0  0
  162.0730  208.0270  150.0770 C   0  0  0  0  0  2  0  0  0  0  0  0
  162.1650  210.8830  148.7060 C   0  0  2  0  0  3  0  0  0  0  0  0
  162.7540  210.3270  151.0930 C   0  0  0  0  0  2  0  0  0  0  0  0
  162.3400  208.6710  148.7200 C   0  0  0  0  0  2  0  0  0  0  0  0
  162.0420  211.3120  150.1670 C   0  0  0  0  0  2  0  0  0  0  0  0
  161.9860  209.0040  151.2620 C   0  0  1  0  0  3  0  0  0  0  0  0
  160.4620  211.8340  147.1410 O   0  0  0  0  0  0  0  0  0  0  0  0
  162.3260  213.0360  147.7050 O   0  0  0  0  0  1  0  0  0  0  0  0
  161.6640  211.9720  147.8190 C   0  0  0  0  0  0  0  0  0  0  0  0
  2 12  1  1  0  0  0
  2  4  1  0  0  0  0
  3 26  1  6  0  0  0
  3 10  1  0  0  0  0
  4  7  2  0  0  0  0
  5  3  1  0  0  0  0
  5  1  1  6  0  0  0
  5  9  1  0  0  0  0
  6  7  1  0  0  0  0
  8  6  2  0  0  0  0
  9  1  1  6  0  0  0
  9  8  1  0  0  0  0
 10  2  1  0  0  0  0
 10  6  1  0  0  0  0
 12 11  1  1  0  0  0
 13 12  1  0  0  0  0
 14 13  1  0  0  0  0
 16 23  1  6  0  0  0
 16 17  1  0  0  0  0
 16 20  1  0  0  0  0
 17 19  1  0  0  0  0
 19 18  1  6  0  0  0
 19 14  1  0  0  0  0
 20 15  1  6  0  0  0
 20 21  1  0  0  0  0
 21 19  1  0  0  0  0
 22 23  2  0  0  0  0
 24 23  1  0  0  0  0
 25 24  1  0  0  0  0
 27 29  1  0  0  0  0
 27 31  1  0  0  0  0
 28 33  1  0  0  0  0
 29 36  1  6  0  0  0
 29 32  1  0  0  0  0
 30 33  1  0  0  0  0
 31 28  1  0  0  0  0
 32 30  1  0  0  0  0
 33 26  1  6  0  0  0
 34 36  2  0  0  0  0
 35 36  1  0  0  0  0
M  END
>  <MODEL>
1

>  <REMARK>
 VINA RESULT:      -7.7      0.000      0.000
  Name = 
  9 active torsions:
  status: ('A' for Active; 'I' for Inactive)
    1  A    between atoms: C_3  and  C_14
    2  A    between atoms: C_3  and  C_33
    3  A    between atoms: C_4  and  C_10
    4  A    between atoms: C_4  and  C_36
    5  A    between atoms: C_8  and  C_20
    6  A    between atoms: C_18  and  C_30
    7  A    between atoms: C_19  and  C_31
    8  A    between atoms: C_20  and  C_22
    9  A    between atoms: C_31  and  C_36
                            x       y       z     vdW  Elec       q    Type
                         _______ _______ _______ _____ _____    ______ ____

>  <TORSDO>
F 9

$$$$
=
 OpenBabel11072413323D

 36 40  0  0  1  0  0  0  0  0999 V2000
  158.2390  214.3360  153.0920 N   0  0  0  0  0  2  0  0  0  0  0  0
  161.2330  210.8750  152.9640 C   0  0  2  0  0  3  0  0  0  0  0  0
  159.6950  212.6900  151.9990 C   0  0  1  0  0  3  0  0  0  0  0  0
  161.5870  210.7030  154.4540 C   0  0  0  0  0  3  0  0  0  0  0  0
  158.2540  213.1990  152.1490 C   0  0  1  0  0  3  0  0  0  0  0  0
  159.4840  211.7050  154.2400 C   0  0  0  0  0  0  0  0  0  0  0  0
  160.3540  211.0950  155.2620 C   0  0  0  0  0  3  0  0  0  0  0  0
  158.4350  212.4100  154.5180 N   0  0  0  0  0  0  0  0  0  0  0  0
  157.6140  213.0600  153.4890 C   0  0  1  0  0  3  0  0  0  0  0  0
  159.9710  211.5970  152.9280 N   0  0  0  0  0  0  0  0  0  0  0  0
  160.7960  208.3500  153.1510 C   0  0  0  0  0  1  0  0  0  0  0  0
  161.0870  209.5300  152.2320 C   0  0  2  0  0  3  0  0  0  0  0  0
  162.2230  209.2300  151.2550 C   0  0  0  0  0  2  0  0  0  0  0  0
  161.7260  208.9340  149.8400 C   0  0  0  0  0  2  0  0  0  0  0  0
  161.9870  204.5480  151.4850 O   0  0  0  0  0  1  0  0  0  0  0  0
  160.6150  205.5030  149.7150 C   0  0  2  0  0  3  0  0  0  0  0  0
  160.7360  206.7900  148.9160 C   0  0  0  0  0  2  0  0  0  0  0  0
  162.9280  207.5180  148.3700 F   0  0  0  0  0  0  0  0  0  0  0  0
  162.0030  207.4960  149.3990 C   0  0  1  0  0  0  0  0  0  0  0  0
  161.4590  205.7330  150.9640 C   0  0  2  0  0  3  0  0  0  0  0  0
  162.5660  206.6790  150.5540 C   0  0  0  0  0  2  0  0  0  0  0  0
  160.8510  203.1830  149.2500 O   0  0  0  0  0  0  0  0  0  0  0  0
  161.0780  204.3280  148.8830 C   0  0  0  0  0  0  0  0  0  0  0  0
  161.8210  204.5330  147.6040 C   0  0  0  0  0  2  0  0  0  0  0  0
  161.4800  203.5610  146.6580 O   0  0  0  0  0  1  0  0  0  0  0  0
  159.9090  212.2490  150.5550 C   0  0  0  0  0  2  0  0  0  0  0  0
  160.2910  212.0050  147.2000 O   0  0  0  0  0  0  0  0  0  0  0  0
  161.8150  212.6540  148.9400 C   0  0  0  0  0  2  0  0  0  0  0  0
  159.4500  213.0800  146.8730 C   0  0  2  0  0  3  0  0  0  0  0  0
  159.8050  214.3070  149.0450 C   0  0  0  0  0  2  0  0  0  0  0  0
  161.5370  212.5850  147.4410 C   0  0  0  0  0  2  0  0  0  0  0  0
  158.7830  213.6330  148.1310 C   0  0  0  0  0  2  0  0  0  0  0  0
  160.7030  213.2990  149.7840 C   0  0  1  0  0  3  0  0  0  0  0  0
  157.1410  212.2760  146.3440 O   0  0  0  0  0  1  0  0  0  0  0  0
  158.6700  212.6120  144.6740 O   0  0  0  0  0  0  0  0  0  0  0  0
  158.4070  212.6360  145.9040 C   0  0  0  0  0  0  0  0  0  0  0  0
  2 12  1  1  0  0  0
  2  4  1  0  0  0  0
  3 26  1  6  0  0  0
  3  5  1  0  0  0  0
  3 10  1  0  0  0  0
  4  7  2  0  0  0  0
  5  1  1  1  0  0  0
  5  9  1  0  0  0  0
  6  8  2  0  0  0  0
  6  7  1  0  0  0  0
  9  1  1  1  0  0  0
  9  8  1  0  0  0  0
 10  2  1  0  0  0  0
 10  6  1  0  0  0  0
 12 11  1  1  0  0  0
 13 12  1  0  0  0  0
 14 13  1  0  0  0  0
 16 23  1  6  0  0  0
 16 20  1  0  0  0  0
 17 19  1  0  0  0  0
 17 16  1  0  0  0  0
 19 18  1  6  0  0  0
 19 14  1  0  0  0  0
 19 21  1  0  0  0  0
 20 15  1  6  0  0  0
 21 20  1  0  0  0  0
 23 22  2  0  0  0  0
 24 23  1  0  0  0  0
 25 24  1  0  0  0  0
 27 31  1  0  0  0  0
 28 33  1  0  0  0  0
 29 36  1  6  0  0  0
 29 27  1  0  0  0  0
 29 32  1  0  0  0  0
 30 33  1  0  0  0  0
 31 28  1  0  0  0  0
 32 30  1  0  0  0  0
 33 26  1  6  0  0  0
 35 36  2  0  0  0  0
 36 34  1  0  0  0  0
M  END
>  <MODEL>
2

>  <REMARK>
 VINA RESULT:      -7.5      2.035      3.263
  Name = 
  9 active torsions:
  status: ('A' for Active; 'I' for Inactive)
    1  A    between atoms: C_3  and  C_14
    2  A    between atoms: C_3  and  C_33
    3  A    between atoms: C_4  and  C_10
    4  A    between atoms: C_4  and  C_36
    5  A    between atoms: C_8  and  C_20
    6  A    between atoms: C_18  and  C_30
    7  A    between atoms: C_19  and  C_31
    8  A    between atoms: C_20  and  C_22
    9  A    between atoms: C_31  and  C_36
                            x       y       z     vdW  Elec       q    Type
                         _______ _______ _______ _____ _____    ______ ____

>  <TORSDO>
F 9

$$$$
=
 OpenBabel11072413323D

 36 40  0  0  1  0  0  0  0  0999 V2000
  161.1610  208.3930  155.7820 N   0  0  0  0  0  2  0  0  0  0  0  0
  161.9090  207.5490  151.3460 C   0  0  2  0  0  3  0  0  0  0  0  0
  161.0020  208.8360  153.3740 C   0  0  1  0  0  3  0  0  0  0  0  0
  162.8800  206.3530  151.4060 C   0  0  0  0  0  3  0  0  0  0  0  0
  160.2130  208.5730  154.6650 C   0  0  1  0  0  3  0  0  0  0  0  0
  161.6080  206.4550  153.3680 C   0  0  0  0  0  0  0  0  0  0  0  0
  162.5400  205.5560  152.6620 C   0  0  0  0  0  3  0  0  0  0  0  0
  161.2590  206.2990  154.6040 N   0  0  0  0  0  0  0  0  0  0  0  0
  160.3760  207.2370  155.3080 C   0  0  1  0  0  3  0  0  0  0  0  0
  161.2440  207.5970  152.6380 N   0  0  0  0  0  0  0  0  0  0  0  0
  160.2580  206.0120  150.1140 C   0  0  0  0  0  1  0  0  0  0  0  0
  160.8640  207.4060  150.2250 C   0  0  2  0  0  3  0  0  0  0  0  0
  161.3330  207.9370  148.8720 C   0  0  0  0  0  2  0  0  0  0  0  0
  162.3550  207.0200  148.1960 C   0  0  0  0  0  2  0  0  0  0  0  0
  163.4740  204.0430  144.7470 O   0  0  0  0  0  1  0  0  0  0  0  0
  162.1450  203.7160  146.7600 C   0  0  2  0  0  3  0  0  0  0  0  0
  161.4660  204.6970  147.7020 C   0  0  0  0  0  2  0  0  0  0  0  0
  160.5300  206.6500  146.7330 F   0  0  0  0  0  0  0  0  0  0  0  0
  161.7280  206.0980  147.1490 C   0  0  1  0  0  0  0  0  0  0  0  0
  163.1970  204.5390  146.0240 C   0  0  2  0  0  3  0  0  0  0  0  0
  162.6490  205.9480  145.9460 C   0  0  0  0  0  2  0  0  0  0  0  0
  160.6470  203.7240  144.9140 O   0  0  0  0  0  0  0  0  0  0  0  0
  161.1230  203.0840  145.8410 C   0  0  0  0  0  0  0  0  0  0  0  0
  160.6710  201.6760  146.0430 C   0  0  0  0  0  2  0  0  0  0  0  0
  160.0370  201.1780  144.8990 O   0  0  0  0  0  1  0  0  0  0  0  0
  160.2280  209.8370  152.5230 C   0  0  0  0  0  2  0  0  0  0  0  0
  158.1780  212.5070  152.1690 O   0  0  0  0  0  0  0  0  0  0  0  0
  160.4690  212.1560  151.5390 C   0  0  0  0  0  2  0  0  0  0  0  0
  158.0980  212.8190  153.5350 C   0  0  2  0  0  3  0  0  0  0  0  0
  160.3390  211.8280  154.1200 C   0  0  0  0  0  2  0  0  0  0  0  0
  159.3290  213.1540  151.7190 C   0  0  0  0  0  2  0  0  0  0  0  0
  158.8320  211.7660  154.3630 C   0  0  0  0  0  2  0  0  0  0  0  0
  160.7490  211.2520  152.7520 C   0  0  1  0  0  3  0  0  0  0  0  0
  155.8810  213.9750  153.6180 O   0  0  0  0  0  0  0  0  0  0  0  0
  156.1700  211.9350  154.6150 O   0  0  0  0  0  1  0  0  0  0  0  0
  156.6700  212.8870  153.9610 C   0  0  0  0  0  0  0  0  0  0  0  0
  2 12  1  6  0  0  0
  2  4  1  0  0  0  0
  2 10  1  0  0  0  0
  3 26  1  6  0  0  0
  3  5  1  0  0  0  0
  4  7  2  0  0  0  0
  5  9  1  0  0  0  0
  5  1  1  1  0  0  0
  6  8  2  0  0  0  0
  7  6  1  0  0  0  0
  9  8  1  6  0  0  0
  9  1  1  0  0  0  0
 10  6  1  0  0  0  0
 10  3  1  0  0  0  0
 12 11  1  6  0  0  0
 13 12  1  0  0  0  0
 14 13  1  0  0  0  0
 16 23  1  6  0  0  0
 16 17  1  0  0  0  0
 19 18  1  6  0  0  0
 19 17  1  0  0  0  0
 19 14  1  0  0  0  0
 20 15  1  6  0  0  0
 20 16  1  0  0  0  0
 21 20  1  0  0  0  0
 21 19  1  0  0  0  0
 22 23  2  0  0  0  0
 23 24  1  0  0  0  0
 25 24  1  0  0  0  0
 27 29  1  0  0  0  0
 28 31  1  0  0  0  0
 28 33  1  0  0  0  0
 29 36  1  1  0  0  0
 29 32  1  0  0  0  0
 30 32  1  0  0  0  0
 31 27  1  0  0  0  0
 33 26  1  6  0  0  0
 33 30  1  0  0  0  0
 34 36  2  0  0  0  0
 36 35  1  0  0  0  0
M  END
>  <MODEL>
3

>  <REMARK>
 VINA RESULT:      -6.4      3.011      5.211
  Name = 
  9 active torsions:
  status: ('A' for Active; 'I' for Inactive)
    1  A    between atoms: C_3  and  C_14
    2  A    between atoms: C_3  and  C_33
    3  A    between atoms: C_4  and  C_10
    4  A    between atoms: C_4  and  C_36
    5  A    between atoms: C_8  and  C_20
    6  A    between atoms: C_18  and  C_30
    7  A    between atoms: C_19  and  C_31
    8  A    between atoms: C_20  and  C_22
    9  A    between atoms: C_31  and  C_36
                            x       y       z     vdW  Elec       q    Type
                         _______ _______ _______ _____ _____    ______ ____

>  <TORSDO>
F 9

$$$$
=
 OpenBabel11072413323D

 36 40  0  0  1  0  0  0  0  0999 V2000
  160.8320  201.0650  145.1870 N   0  0  0  0  0  2  0  0  0  0  0  0
  162.2170  205.1900  146.6080 C   0  0  2  0  0  3  0  0  0  0  0  0
  161.6530  202.6950  146.8270 C   0  0  1  0  0  3  0  0  0  0  0  0
  162.2800  205.9800  145.2860 C   0  0  0  0  0  3  0  0  0  0  0  0
  160.5210  201.7200  146.4740 C   0  0  1  0  0  3  0  0  0  0  0  0
  160.7860  204.1920  145.0820 C   0  0  0  0  0  0  0  0  0  0  0  0
  161.2070  205.4090  144.3640 C   0  0  0  0  0  3  0  0  0  0  0  0
  160.0710  203.2550  144.5480 N   0  0  0  0  0  0  0  0  0  0  0  0
  159.7110  202.0220  145.2580 C   0  0  1  0  0  3  0  0  0  0  0  0
  161.3560  204.0460  146.3560 N   0  0  0  0  0  0  0  0  0  0  0  0
  160.2400  206.5520  147.5270 C   0  0  0  0  0  1  0  0  0  0  0  0
  161.6500  206.0260  147.7690 C   0  0  2  0  0  3  0  0  0  0  0  0
  162.5940  207.1230  148.2600 C   0  0  0  0  0  2  0  0  0  0  0  0
  161.8560  208.2880  148.9220 C   0  0  0  0  0  2  0  0  0  0  0  0
  161.4120  211.1460  152.6160 O   0  0  0  0  0  1  0  0  0  0  0  0
  160.4540  208.9500  152.1800 C   0  0  2  0  0  3  0  0  0  0  0  0
  160.8320  207.8520  151.2000 C   0  0  0  0  0  2  0  0  0  0  0  0
  163.1440  207.5430  150.7650 F   0  0  0  0  0  0  0  0  0  0  0  0
  162.0620  208.3410  150.4370 C   0  0  1  0  0  0  0  0  0  0  0  0
  161.0960  210.2160  151.6210 C   0  0  2  0  0  3  0  0  0  0  0  0
  162.3430  209.7670  150.8910 C   0  0  0  0  0  2  0  0  0  0  0  0
  161.9820  207.9840  153.7240 O   0  0  0  0  0  0  0  0  0  0  0  0
  160.9330  208.5950  153.5700 C   0  0  0  0  0  0  0  0  0  0  0  0
  160.1440  208.9750  154.7790 C   0  0  0  0  0  2  0  0  0  0  0  0
  159.9440  207.8750  155.6200 O   0  0  0  0  0  1  0  0  0  0  0  0
  161.8610  202.6760  148.3380 C   0  0  0  0  0  2  0  0  0  0  0  0
  161.7080  202.6140  151.7190 O   0  0  0  0  0  0  0  0  0  0  0  0
  160.8520  201.1120  150.0520 C   0  0  0  0  0  2  0  0  0  0  0  0
  160.8530  203.7190  151.8530 C   0  0  2  0  0  3  0  0  0  0  0  0
  159.7710  203.4370  149.5950 C   0  0  0  0  0  2  0  0  0  0  0  0
  160.8580  201.5250  151.5210 C   0  0  0  0  0  2  0  0  0  0  0  0
  160.5970  204.3590  150.4900 C   0  0  0  0  0  2  0  0  0  0  0  0
  160.5820  202.2470  149.0510 C   0  0  1  0  0  3  0  0  0  0  0  0
  162.6930  205.2900  152.4900 O   0  0  0  0  0  0  0  0  0  0  0  0
  160.8320  205.0800  153.8060 O   0  0  0  0  0  1  0  0  0  0  0  0
  161.4590  204.7240  152.7740 C   0  0  0  0  0  0  0  0  0  0  0  0
  1  9  1  0  0  0  0
  2 12  1  1  0  0  0
  3 26  1  1  0  0  0
  4  2  1  0  0  0  0
  5  1  1  6  0  0  0
  5  3  1  0  0  0  0
  6 10  1  0  0  0  0
  7  6  1  0  0  0  0
  7  4  2  0  0  0  0
  8  6  2  0  0  0  0
  9  8  1  6  0  0  0
  9  5  1  0  0  0  0
 10  2  1  0  0  0  0
 10  3  1  0  0  0  0
 12 11  1  6  0  0  0
 12 13  1  0  0  0  0
 13 14  1  0  0  0  0
 14 19  1  0  0  0  0
 16 23  1  1  0  0  0
 17 16  1  0  0  0  0
 19 18  1  1  0  0  0
 19 21  1  0  0  0  0
 19 17  1  0  0  0  0
 20 16  1  0  0  0  0
 20 15  1  1  0  0  0
 21 20  1  0  0  0  0
 23 22  2  0  0  0  0
 23 24  1  0  0  0  0
 24 25  1  0  0  0  0
 27 29  1  0  0  0  0
 28 31  1  0  0  0  0
 29 36  1  1  0  0  0
 30 32  1  0  0  0  0
 31 27  1  0  0  0  0
 32 29  1  0  0  0  0
 33 26  1  1  0  0  0
 33 30  1  0  0  0  0
 33 28  1  0  0  0  0
 34 36  2  0  0  0  0
 36 35  1  0  0  0  0
M  END
>  <MODEL>
4

>  <REMARK>
 VINA RESULT:      -6.3      4.200      8.804
  Name = 
  9 active torsions:
  status: ('A' for Active; 'I' for Inactive)
    1  A    between atoms: C_3  and  C_14
    2  A    between atoms: C_3  and  C_33
    3  A    between atoms: C_4  and  C_10
    4  A    between atoms: C_4  and  C_36
    5  A    between atoms: C_8  and  C_20
    6  A    between atoms: C_18  and  C_30
    7  A    between atoms: C_19  and  C_31
    8  A    between atoms: C_20  and  C_22
    9  A    between atoms: C_31  and  C_36
                            x       y       z     vdW  Elec       q    Type
                         _______ _______ _______ _____ _____    ______ ____

>  <TORSDO>
F 9

$$$$
=
 OpenBabel11072413323D

 36 40  0  0  1  0  0  0  0  0999 V2000
  158.7340  212.9670  156.5910 N   0  0  0  0  0  2  0  0  0  0  0  0
  161.4240  210.0310  154.3340 C   0  0  2  0  0  3  0  0  0  0  0  0
  159.6270  211.8460  154.6000 C   0  0  1  0  0  3  0  0  0  0  0  0
  162.3470  209.5160  155.4550 C   0  0  0  0  0  3  0  0  0  0  0  0
  158.3680  212.1280  155.4330 C   0  0  1  0  0  3  0  0  0  0  0  0
  160.3360  210.2900  156.3650 C   0  0  0  0  0  0  0  0  0  0  0  0
  161.5430  209.5370  156.7520 C   0  0  0  0  0  3  0  0  0  0  0  0
  159.4870  210.7710  157.2150 N   0  0  0  0  0  0  0  0  0  0  0  0
  158.3210  211.5690  156.8150 C   0  0  1  0  0  3  0  0  0  0  0  0
  160.2540  210.5870  154.9950 N   0  0  0  0  0  0  0  0  0  0  0  0
  160.9820  207.5240  153.9800 C   0  0  0  0  0  1  0  0  0  0  0  0
  160.9960  208.9170  153.3630 C   0  0  2  0  0  3  0  0  0  0  0  0
  161.7350  208.9450  152.0260 C   0  0  0  0  0  2  0  0  0  0  0  0
  160.8860  208.4170  150.8680 C   0  0  0  0  0  2  0  0  0  0  0  0
  160.7180  203.9280  149.5160 O   0  0  0  0  0  1  0  0  0  0  0  0
  160.7400  205.9820  148.2090 C   0  0  2  0  0  3  0  0  0  0  0  0
  161.1430  207.4050  148.5570 C   0  0  0  0  0  2  0  0  0  0  0  0
  162.9770  207.6740  150.0390 F   0  0  0  0  0  0  0  0  0  0  0  0
  161.6230  207.3890  150.0080 C   0  0  1  0  0  0  0  0  0  0  0  0
  160.4820  205.3050  149.5520 C   0  0  2  0  0  3  0  0  0  0  0  0
  161.4010  205.9820  150.5460 C   0  0  0  0  0  2  0  0  0  0  0  0
  162.9660  205.7650  147.4040 O   0  0  0  0  0  0  0  0  0  0  0  0
  161.8280  205.3160  147.3970 C   0  0  0  0  0  0  0  0  0  0  0  0
  161.5420  204.1060  146.5710 C   0  0  0  0  0  2  0  0  0  0  0  0
  162.4530  203.9870  145.5150 O   0  0  0  0  0  1  0  0  0  0  0  0
  159.2430  211.8260  153.1240 C   0  0  0  0  0  2  0  0  0  0  0  0
  157.6080  213.0640  150.4310 O   0  0  0  0  0  0  0  0  0  0  0  0
  159.9500  212.8460  150.9180 C   0  0  0  0  0  2  0  0  0  0  0  0
  157.0870  214.1960  151.0770 C   0  0  2  0  0  3  0  0  0  0  0  0
  158.9280  214.3400  152.7910 C   0  0  0  0  0  2  0  0  0  0  0  0
  158.8820  213.4460  150.0090 C   0  0  0  0  0  2  0  0  0  0  0  0
  157.4280  214.1600  152.5660 C   0  0  0  0  0  2  0  0  0  0  0  0
  159.7420  213.0860  152.4230 C   0  0  1  0  0  3  0  0  0  0  0  0
  155.0500  214.4380  149.6450 O   0  0  0  0  0  0  0  0  0  0  0  0
  154.8560  214.0920  151.9000 O   0  0  0  0  0  1  0  0  0  0  0  0
  155.6070  214.2480  150.9010 C   0  0  0  0  0  0  0  0  0  0  0  0
  2 12  1  6  0  0  0
  2 10  1  0  0  0  0
  2  4  1  0  0  0  0
  3 26  1  6  0  0  0
  3 10  1  0  0  0  0
  3  5  1  0  0  0  0
  4  7  2  0  0  0  0
  5  1  1  1  0  0  0
  5  9  1  0  0  0  0
  6  7  1  0  0  0  0
  6  8  2  0  0  0  0
  9  1  1  1  0  0  0
  9  8  1  0  0  0  0
 10  6  1  0  0  0  0
 12 11  1  1  0  0  0
 13 12  1  0  0  0  0
 14 13  1  0  0  0  0
 16 23  1  1  0  0  0
 16 17  1  0  0  0  0
 16 20  1  0  0  0  0
 17 19  1  0  0  0  0
 19 18  1  1  0  0  0
 19 21  1  0  0  0  0
 19 14  1  0  0  0  0
 20 15  1  6  0  0  0
 20 21  1  0  0  0  0
 23 22  2  0  0  0  0
 24 23  1  0  0  0  0
 25 24  1  0  0  0  0
 27 29  1  0  0  0  0
 28 33  1  0  0  0  0
 29 36  1  1  0  0  0
 29 32  1  0  0  0  0
 31 27  1  0  0  0  0
 31 28  1  0  0  0  0
 32 30  1  0  0  0  0
 33 30  1  0  0  0  0
 33 26  1  6  0  0  0
 34 36  2  0  0  0  0
 36 35  1  0  0  0  0
M  END
>  <MODEL>
5

>  <REMARK>
 VINA RESULT:      -6.3      2.672      4.018
  Name = 
  9 active torsions:
  status: ('A' for Active; 'I' for Inactive)
    1  A    between atoms: C_3  and  C_14
    2  A    between atoms: C_3  and  C_33
    3  A    between atoms: C_4  and  C_10
    4  A    between atoms: C_4  and  C_36
    5  A    between atoms: C_8  and  C_20
    6  A    between atoms: C_18  and  C_30
    7  A    between atoms: C_19  and  C_31
    8  A    between atoms: C_20  and  C_22
    9  A    between atoms: C_31  and  C_36
                            x       y       z     vdW  Elec       q    Type
                         _______ _______ _______ _____ _____    ______ ____

>  <TORSDO>
F 9

$$$$
=
 OpenBabel11072413323D

 36 40  0  0  1  0  0  0  0  0999 V2000
  161.1610  206.0640  146.0300 N   0  0  0  0  0  2  0  0  0  0  0  0
  160.4740  204.5180  150.2830 C   0  0  2  0  0  3  0  0  0  0  0  0
  160.7910  206.2830  148.4460 C   0  0  1  0  0  3  0  0  0  0  0  0
  160.2890  203.0060  150.0490 C   0  0  0  0  0  3  0  0  0  0  0  0
  161.7400  206.5950  147.2800 C   0  0  1  0  0  3  0  0  0  0  0  0
  161.5290  203.9440  148.3010 C   0  0  0  0  0  0  0  0  0  0  0  0
  161.1360  202.6280  148.8370 C   0  0  0  0  0  3  0  0  0  0  0  0
  162.0450  204.1150  147.1270 N   0  0  0  0  0  0  0  0  0  0  0  0
  162.3760  205.4390  146.5860 C   0  0  1  0  0  3  0  0  0  0  0  0
  161.1550  205.0310  149.1060 N   0  0  0  0  0  0  0  0  0  0  0  0
  161.5160  203.6220  152.4550 C   0  0  0  0  0  1  0  0  0  0  0  0
  161.3040  204.8240  151.5420 C   0  0  2  0  0  3  0  0  0  0  0  0
  160.8260  206.0530  152.3150 C   0  0  0  0  0  2  0  0  0  0  0  0
  161.3970  206.1210  153.7320 C   0  0  0  0  0  2  0  0  0  0  0  0
  162.0510  209.2450  157.1700 O   0  0  0  0  0  1  0  0  0  0  0  0
  161.0320  209.4900  154.9720 C   0  0  2  0  0  3  0  0  0  0  0  0
  160.4830  208.4720  153.9870 C   0  0  0  0  0  2  0  0  0  0  0  0
  159.3850  206.5750  154.8960 F   0  0  0  0  0  0  0  0  0  0  0  0
  160.6390  207.0970  154.6340 C   0  0  1  0  0  0  0  0  0  0  0  0
  161.9540  208.6930  155.8900 C   0  0  2  0  0  3  0  0  0  0  0  0
  161.3790  207.2950  155.9510 C   0  0  0  0  0  2  0  0  0  0  0  0
  158.8990  209.5420  156.0200 O   0  0  0  0  0  0  0  0  0  0  0  0
  159.8980  210.1730  155.7030 C   0  0  0  0  0  0  0  0  0  0  0  0
  159.9680  211.6230  156.0520 C   0  0  0  0  0  2  0  0  0  0  0  0
  158.7200  212.2400  155.9050 O   0  0  0  0  0  1  0  0  0  0  0  0
  160.8220  207.4490  149.4280 C   0  0  0  0  0  2  0  0  0  0  0  0
  161.1640  210.8150  149.3100 O   0  0  0  0  0  0  0  0  0  0  0  0
  162.4050  209.0430  148.2640 C   0  0  0  0  0  2  0  0  0  0  0  0
  161.5820  210.9720  150.6410 C   0  0  2  0  0  3  0  0  0  0  0  0
  162.5750  208.6640  150.8350 C   0  0  0  0  0  2  0  0  0  0  0  0
  162.3310  210.5300  148.5990 C   0  0  0  0  0  2  0  0  0  0  0  0
  161.5260  209.6340  151.3750 C   0  0  0  0  0  2  0  0  0  0  0  0
  162.2060  208.0910  149.4540 C   0  0  1  0  0  3  0  0  0  0  0  0
  160.1520  213.0240  150.6380 O   0  0  0  0  0  0  0  0  0  0  0  0
  160.4620  211.8220  152.5610 O   0  0  0  0  0  1  0  0  0  0  0  0
  160.7110  211.9640  151.3350 C   0  0  0  0  0  0  0  0  0  0  0  0
  2 12  1  1  0  0  0
  3 10  1  0  0  0  0
  3 26  1  1  0  0  0
  4  2  1  0  0  0  0
  5  1  1  6  0  0  0
  5  3  1  0  0  0  0
  6  7  1  0  0  0  0
  6 10  1  0  0  0  0
  7  4  2  0  0  0  0
  8  6  2  0  0  0  0
  9  1  1  6  0  0  0
  9  8  1  0  0  0  0
  9  5  1  0  0  0  0
 10  2  1  0  0  0  0
 12 13  1  0  0  0  0
 12 11  1  1  0  0  0
 13 14  1  0  0  0  0
 14 19  1  0  0  0  0
 16 23  1  1  0  0  0
 16 20  1  0  0  0  0
 17 19  1  0  0  0  0
 17 16  1  0  0  0  0
 19 18  1  1  0  0  0
 19 21  1  0  0  0  0
 20 21  1  0  0  0  0
 20 15  1  1  0  0  0
 23 22  2  0  0  0  0
 23 24  1  0  0  0  0
 25 24  1  0  0  0  0
 27 29  1  0  0  0  0
 28 31  1  0  0  0  0
 28 33  1  0  0  0  0
 29 36  1  1  0  0  0
 29 32  1  0  0  0  0
 30 32  1  0  0  0  0
 31 27  1  0  0  0  0
 33 26  1  1  0  0  0
 33 30  1  0  0  0  0
 34 36  2  0  0  0  0
 36 35  1  0  0  0  0
M  END
>  <MODEL>
6

>  <REMARK>
 VINA RESULT:      -6.0      3.751      6.910
  Name = 
  9 active torsions:
  status: ('A' for Active; 'I' for Inactive)
    1  A    between atoms: C_3  and  C_14
    2  A    between atoms: C_3  and  C_33
    3  A    between atoms: C_4  and  C_10
    4  A    between atoms: C_4  and  C_36
    5  A    between atoms: C_8  and  C_20
    6  A    between atoms: C_18  and  C_30
    7  A    between atoms: C_19  and  C_31
    8  A    between atoms: C_20  and  C_22
    9  A    between atoms: C_31  and  C_36
                            x       y       z     vdW  Elec       q    Type
                         _______ _______ _______ _____ _____    ______ ____

>  <TORSDO>
F 9

$$$$
=
 OpenBabel11072413323D

 36 40  0  0  1  0  0  0  0  0999 V2000
  160.8400  200.9530  145.3210 N   0  0  0  0  0  2  0  0  0  0  0  0
  162.3110  205.1400  146.4430 C   0  0  2  0  0  3  0  0  0  0  0  0
  161.7260  202.6710  146.8320 C   0  0  1  0  0  3  0  0  0  0  0  0
  162.3450  205.8460  145.0730 C   0  0  0  0  0  3  0  0  0  0  0  0
  160.5730  201.6900  146.5720 C   0  0  1  0  0  3  0  0  0  0  0  0
  160.8260  204.0670  145.0230 C   0  0  0  0  0  0  0  0  0  0  0  0
  161.2390  205.2320  144.2190 C   0  0  0  0  0  3  0  0  0  0  0  0
  160.0850  203.1090  144.5680 N   0  0  0  0  0  0  0  0  0  0  0  0
  159.7320  201.9270  145.3640 C   0  0  1  0  0  3  0  0  0  0  0  0
  161.4310  203.9930  146.2870 N   0  0  0  0  0  0  0  0  0  0  0  0
  160.2830  206.2870  147.5260 C   0  0  0  0  0  1  0  0  0  0  0  0
  161.7880  206.0530  147.5650 C   0  0  2  0  0  3  0  0  0  0  0  0
  162.5680  207.3590  147.7140 C   0  0  0  0  0  2  0  0  0  0  0  0
  162.9180  207.6770  149.1690 C   0  0  0  0  0  2  0  0  0  0  0  0
  160.0840  208.2810  152.8580 O   0  0  0  0  0  1  0  0  0  0  0  0
  161.9840  209.5910  152.0820 C   0  0  2  0  0  3  0  0  0  0  0  0
  162.6960  209.6540  150.7410 C   0  0  0  0  0  2  0  0  0  0  0  0
  161.3560  209.4180  148.7960 F   0  0  0  0  0  0  0  0  0  0  0  0
  161.9660  208.6920  149.8040 C   0  0  1  0  0  0  0  0  0  0  0  0
  161.2390  208.2600  152.0700 C   0  0  2  0  0  3  0  0  0  0  0  0
  160.8950  207.9840  150.6230 C   0  0  0  0  0  2  0  0  0  0  0  0
  160.5330  211.2910  151.2710 O   0  0  0  0  0  0  0  0  0  0  0  0
  161.0760  210.7890  152.2460 C   0  0  0  0  0  0  0  0  0  0  0  0
  160.8220  211.3860  153.5910 C   0  0  0  0  0  2  0  0  0  0  0  0
  159.4730  211.2800  153.9460 O   0  0  0  0  0  1  0  0  0  0  0  0
  161.9780  202.7420  148.3350 C   0  0  0  0  0  2  0  0  0  0  0  0
  161.9360  202.8390  151.7190 O   0  0  0  0  0  0  0  0  0  0  0  0
  161.0140  201.2690  150.1530 C   0  0  0  0  0  2  0  0  0  0  0  0
  161.0950  203.9580  151.8280 C   0  0  2  0  0  3  0  0  0  0  0  0
  159.9360  203.5800  149.6230 C   0  0  0  0  0  2  0  0  0  0  0  0
  161.0720  201.7510  151.6000 C   0  0  0  0  0  2  0  0  0  0  0  0
  160.7990  204.5350  150.4450 C   0  0  0  0  0  2  0  0  0  0  0  0
  160.7200  202.3590  149.1090 C   0  0  1  0  0  3  0  0  0  0  0  0
  161.1590  205.3910  153.8780 O   0  0  0  0  0  1  0  0  0  0  0  0
  162.8320  205.5080  152.3210 O   0  0  0  0  0  0  0  0  0  0  0  0
  161.7390  204.9990  152.6810 C   0  0  0  0  0  0  0  0  0  0  0  0
  1  9  1  0  0  0  0
  2 12  1  1  0  0  0
  3 26  1  1  0  0  0
  4  2  1  0  0  0  0
  5  1  1  6  0  0  0
  5  3  1  0  0  0  0
  6 10  1  0  0  0  0
  7  6  1  0  0  0  0
  7  4  2  0  0  0  0
  8  6  2  0  0  0  0
  9  8  1  6  0  0  0
  9  5  1  0  0  0  0
 10  2  1  0  0  0  0
 10  3  1  0  0  0  0
 12 11  1  6  0  0  0
 12 13  1  0  0  0  0
 13 14  1  0  0  0  0
 14 19  1  0  0  0  0
 16 23  1  6  0  0  0
 17 16  1  0  0  0  0
 19 18  1  6  0  0  0
 19 21  1  0  0  0  0
 19 17  1  0  0  0  0
 20 16  1  0  0  0  0
 20 15  1  1  0  0  0
 21 20  1  0  0  0  0
 22 23  2  0  0  0  0
 23 24  1  0  0  0  0
 24 25  1  0  0  0  0
 27 29  1  0  0  0  0
 28 31  1  0  0  0  0
 29 36  1  1  0  0  0
 30 32  1  0  0  0  0
 31 27  1  0  0  0  0
 32 29  1  0  0  0  0
 33 26  1  1  0  0  0
 33 30  1  0  0  0  0
 33 28  1  0  0  0  0
 35 36  2  0  0  0  0
 36 34  1  0  0  0  0
M  END
>  <MODEL>
7

>  <REMARK>
 VINA RESULT:      -5.7      4.181      8.820
  Name = 
  9 active torsions:
  status: ('A' for Active; 'I' for Inactive)
    1  A    between atoms: C_3  and  C_14
    2  A    between atoms: C_3  and  C_33
    3  A    between atoms: C_4  and  C_10
    4  A    between atoms: C_4  and  C_36
    5  A    between atoms: C_8  and  C_20
    6  A    between atoms: C_18  and  C_30
    7  A    between atoms: C_19  and  C_31
    8  A    between atoms: C_20  and  C_22
    9  A    between atoms: C_31  and  C_36
                            x       y       z     vdW  Elec       q    Type
                         _______ _______ _______ _____ _____    ______ ____

>  <TORSDO>
F 9

$$$$
=
 OpenBabel11072413323D

 36 40  0  0  1  0  0  0  0  0999 V2000
  160.9670  205.0650  153.1900 N   0  0  0  0  0  2  0  0  0  0  0  0
  161.0780  209.1230  151.0750 C   0  0  2  0  0  3  0  0  0  0  0  0
  161.4750  206.6010  151.3460 C   0  0  1  0  0  3  0  0  0  0  0  0
  160.2550  210.0070  152.0330 C   0  0  0  0  0  3  0  0  0  0  0  0
  162.0620  205.6150  152.3670 C   0  0  1  0  0  3  0  0  0  0  0  0
  161.1590  208.1870  153.1950 C   0  0  0  0  0  0  0  0  0  0  0  0
  160.4690  209.4660  153.4450 C   0  0  0  0  0  3  0  0  0  0  0  0
  161.3110  207.2670  154.0910 N   0  0  0  0  0  0  0  0  0  0  0  0
  161.9490  205.9750  153.8100 C   0  0  1  0  0  3  0  0  0  0  0  0
  161.5060  207.9710  151.8520 N   0  0  0  0  0  0  0  0  0  0  0  0
  163.0540  210.7030  151.5230 C   0  0  0  0  0  1  0  0  0  0  0  0
  162.3050  209.8540  150.5040 C   0  0  2  0  0  3  0  0  0  0  0  0
  162.0220  210.6230  149.2140 C   0  0  0  0  0  2  0  0  0  0  0  0
  162.2460  212.1290  149.3610 C   0  0  0  0  0  2  0  0  0  0  0  0
  162.4050  214.3510  145.2320 O   0  0  0  0  0  1  0  0  0  0  0  0
  160.9430  212.5740  146.0250 C   0  0  2  0  0  3  0  0  0  0  0  0
  160.6120  212.0760  147.4220 C   0  0  0  0  0  2  0  0  0  0  0  0
  160.4890  213.7030  149.1450 F   0  0  0  0  0  0  0  0  0  0  0  0
  161.3860  212.9560  148.4030 C   0  0  1  0  0  0  0  0  0  0  0  0
  162.2580  213.3320  146.1780 C   0  0  2  0  0  3  0  0  0  0  0  0
  162.2550  213.8990  147.5810 C   0  0  0  0  0  2  0  0  0  0  0  0
  159.3090  214.2920  146.1980 O   0  0  0  0  0  0  0  0  0  0  0  0
  159.8120  213.4270  145.4950 C   0  0  0  0  0  0  0  0  0  0  0  0
  159.2850  213.2350  144.1120 C   0  0  0  0  0  2  0  0  0  0  0  0
  159.9790  212.2230  143.4400 O   0  0  0  0  0  1  0  0  0  0  0  0
  162.2600  206.4810  150.0440 C   0  0  0  0  0  2  0  0  0  0  0  0
  162.2610  203.9500  147.7950 O   0  0  0  0  0  0  0  0  0  0  0  0
  162.0860  206.3300  147.5240 C   0  0  0  0  0  2  0  0  0  0  0  0
  161.0170  203.4170  148.1670 C   0  0  2  0  0  3  0  0  0  0  0  0
  160.0900  205.5960  149.0270 C   0  0  0  0  0  2  0  0  0  0  0  0
  161.9600  204.9550  146.8750 C   0  0  0  0  0  2  0  0  0  0  0  0
  160.4640  204.1590  149.3820 C   0  0  0  0  0  2  0  0  0  0  0  0
  161.3180  206.5070  148.8440 C   0  0  1  0  0  3  0  0  0  0  0  0
  161.2070  201.5320  149.8000 O   0  0  0  0  0  1  0  0  0  0  0  0
  161.2050  201.1260  147.5470 O   0  0  0  0  0  0  0  0  0  0  0  0
  161.1570  201.9660  148.4840 C   0  0  0  0  0  0  0  0  0  0  0  0
  2 12  1  1  0  0  0
  2 10  1  0  0  0  0
  2  4  1  0  0  0  0
  3 26  1  6  0  0  0
  3 10  1  0  0  0  0
  3  5  1  0  0  0  0
  4  7  2  0  0  0  0
  5  1  1  1  0  0  0
  5  9  1  0  0  0  0
  6  7  1  0  0  0  0
  6  8  2  0  0  0  0
  9  1  1  1  0  0  0
  9  8  1  0  0  0  0
 10  6  1  0  0  0  0
 12 11  1  1  0  0  0
 13 14  1  0  0  0  0
 13 12  1  0  0  0  0
 16 23  1  1  0  0  0
 16 20  1  0  0  0  0
 16 17  1  0  0  0  0
 17 19  1  0  0  0  0
 19 18  1  1  0  0  0
 19 14  1  0  0  0  0
 20 15  1  6  0  0  0
 20 21  1  0  0  0  0
 21 19  1  0  0  0  0
 23 22  2  0  0  0  0
 24 23  1  0  0  0  0
 25 24  1  0  0  0  0
 27 29  1  0  0  0  0
 28 33  1  0  0  0  0
 29 36  1  1  0  0  0
 29 32  1  0  0  0  0
 30 32  1  0  0  0  0
 31 28  1  0  0  0  0
 31 27  1  0  0  0  0
 33 30  1  0  0  0  0
 33 26  1  1  0  0  0
 35 36  2  0  0  0  0
 36 34  1  0  0  0  0
M  END
>  <MODEL>
8

>  <REMARK>
 VINA RESULT:      -5.4      2.711      7.822
  Name = 
  9 active torsions:
  status: ('A' for Active; 'I' for Inactive)
    1  A    between atoms: C_3  and  C_14
    2  A    between atoms: C_3  and  C_33
    3  A    between atoms: C_4  and  C_10
    4  A    between atoms: C_4  and  C_36
    5  A    between atoms: C_8  and  C_20
    6  A    between atoms: C_18  and  C_30
    7  A    between atoms: C_19  and  C_31
    8  A    between atoms: C_20  and  C_22
    9  A    between atoms: C_31  and  C_36
                            x       y       z     vdW  Elec       q    Type
                         _______ _______ _______ _____ _____    ______ ____

>  <TORSDO>
F 9

$$$$
=
 OpenBabel11072413323D

 36 40  0  0  1  0  0  0  0  0999 V2000
  159.9240  201.3880  150.2530 N   0  0  0  0  0  2  0  0  0  0  0  0
  160.8190  205.7910  151.1250 C   0  0  2  0  0  3  0  0  0  0  0  0
  160.4700  203.7070  149.6670 C   0  0  1  0  0  3  0  0  0  0  0  0
  160.5350  205.8830  152.6370 C   0  0  0  0  0  3  0  0  0  0  0  0
  160.9300  202.2430  149.5950 C   0  0  1  0  0  3  0  0  0  0  0  0
  161.0630  203.6800  152.0510 C   0  0  0  0  0  0  0  0  0  0  0  0
  160.8710  204.5240  153.2450 C   0  0  0  0  0  3  0  0  0  0  0  0
  161.1140  202.3880  152.0870 N   0  0  0  0  0  0  0  0  0  0  0  0
  161.2470  201.5600  150.8820 C   0  0  1  0  0  3  0  0  0  0  0  0
  161.0290  204.3820  150.8360 N   0  0  0  0  0  0  0  0  0  0  0  0
  163.2550  206.4330  151.6360 C   0  0  0  0  0  1  0  0  0  0  0  0
  162.0590  206.6010  150.7070 C   0  0  2  0  0  3  0  0  0  0  0  0
  161.7660  208.0710  150.4090 C   0  0  0  0  0  2  0  0  0  0  0  0
  162.2010  209.0030  151.5410 C   0  0  0  0  0  2  0  0  0  0  0  0
  161.1970  210.3270  155.9290 O   0  0  0  0  0  1  0  0  0  0  0  0
  160.8430  211.4640  153.8050 C   0  0  2  0  0  3  0  0  0  0  0  0
  160.8160  210.9570  152.3730 C   0  0  0  0  0  2  0  0  0  0  0  0
  159.8880  208.8040  152.0080 F   0  0  0  0  0  0  0  0  0  0  0  0
  161.0380  209.4460  152.4300 C   0  0  1  0  0  0  0  0  0  0  0  0
  161.5910  210.3890  154.5890 C   0  0  2  0  0  3  0  0  0  0  0  0
  161.3040  209.0810  153.8840 C   0  0  0  0  0  2  0  0  0  0  0  0
  158.5650  210.8610  154.1180 O   0  0  0  0  0  0  0  0  0  0  0  0
  159.4350  211.7020  154.3010 C   0  0  0  0  0  0  0  0  0  0  0  0
  159.0720  212.9600  155.0180 C   0  0  0  0  0  2  0  0  0  0  0  0
  158.4150  213.8570  154.1690 O   0  0  0  0  0  1  0  0  0  0  0  0
  160.8810  204.4130  148.3790 C   0  0  0  0  0  2  0  0  0  0  0  0
  160.4780  204.0570  145.0370 O   0  0  0  0  0  0  0  0  0  0  0  0
  161.0720  202.4850  146.7520 C   0  0  0  0  0  2  0  0  0  0  0  0
  161.6020  204.8120  144.6670 C   0  0  2  0  0  3  0  0  0  0  0  0
  162.8810  204.3590  146.7900 C   0  0  0  0  0  2  0  0  0  0  0  0
  160.9660  202.7690  145.2570 C   0  0  0  0  0  2  0  0  0  0  0  0
  162.2540  205.4310  145.9020 C   0  0  0  0  0  2  0  0  0  0  0  0
  161.8350  203.5400  147.5700 C   0  0  1  0  0  3  0  0  0  0  0  0
  161.6110  205.8480  142.3910 O   0  0  0  0  0  0  0  0  0  0  0  0
  160.4680  206.8310  144.1140 O   0  0  0  0  0  1  0  0  0  0  0  0
  161.2030  205.8890  143.7160 C   0  0  0  0  0  0  0  0  0  0  0  0
  2 12  1  1  0  0  0
  2  4  1  0  0  0  0
  3 26  1  6  0  0  0
  3 10  1  0  0  0  0
  4  7  2  0  0  0  0
  5  3  1  0  0  0  0
  5  1  1  1  0  0  0
  5  9  1  0  0  0  0
  6  8  2  0  0  0  0
  6  7  1  0  0  0  0
  9  1  1  1  0  0  0
  9  8  1  0  0  0  0
 10  2  1  0  0  0  0
 10  6  1  0  0  0  0
 12 11  1  1  0  0  0
 13 12  1  0  0  0  0
 13 14  1  0  0  0  0
 14 19  1  0  0  0  0
 16 23  1  1  0  0  0
 16 20  1  0  0  0  0
 17 19  1  0  0  0  0
 17 16  1  0  0  0  0
 19 18  1  6  0  0  0
 19 21  1  0  0  0  0
 20 15  1  1  0  0  0
 21 20  1  0  0  0  0
 22 23  2  0  0  0  0
 23 24  1  0  0  0  0
 25 24  1  0  0  0  0
 27 31  1  0  0  0  0
 28 33  1  0  0  0  0
 29 36  1  6  0  0  0
 29 27  1  0  0  0  0
 29 32  1  0  0  0  0
 30 33  1  0  0  0  0
 31 28  1  0  0  0  0
 32 30  1  0  0  0  0
 33 26  1  6  0  0  0
 34 36  2  0  0  0  0
 36 35  1  0  0  0  0
M  END
>  <MODEL>
9

>  <REMARK>
 VINA RESULT:      -5.2      3.668      7.758
  Name = 
  9 active torsions:
  status: ('A' for Active; 'I' for Inactive)
    1  A    between atoms: C_3  and  C_14
    2  A    between atoms: C_3  and  C_33
    3  A    between atoms: C_4  and  C_10
    4  A    between atoms: C_4  and  C_36
    5  A    between atoms: C_8  and  C_20
    6  A    between atoms: C_18  and  C_30
    7  A    between atoms: C_19  and  C_31
    8  A    between atoms: C_20  and  C_22
    9  A    between atoms: C_31  and  C_36
                            x       y       z     vdW  Elec       q    Type
                         _______ _______ _______ _____ _____    ______ ____

>  <TORSDO>
F 9

$$$$
