=
 OpenBabel11072411203D

 42 45  0  0  1  0  0  0  0  0999 V2000
  161.4760  208.1620  153.1270 C   0  0  2  0  0  3  0  0  0  0  0  0
  160.5760  209.2980  153.6550 C   0  0  1  0  0  3  0  0  0  0  0  0
  157.9890  212.4370  154.9950 C   0  0  0  0  0  3  0  0  0  0  0  0
  158.7540  211.2350  154.4960 C   0  0  1  0  0  3  0  0  0  0  0  0
  158.1510  212.9540  156.2220 C   0  0  0  0  0  3  0  0  0  0  0  0
  160.3360  209.2860  155.1740 C   0  0  2  0  0  3  0  0  0  0  0  0
  159.7080  211.6570  153.3610 C   0  0  1  0  0  3  0  0  0  0  0  0
  160.8730  210.6920  153.1100 C   0  0  0  0  0  2  0  0  0  0  0  0
  159.4590  210.4730  155.6420 C   0  0  1  0  0  3  0  0  0  0  0  0
  160.1180  211.4230  156.6530 C   0  0  1  0  0  3  0  0  0  0  0  0
  161.1180  212.1890  156.0490 O   0  0  0  0  0  1  0  0  0  0  0  0
  159.0480  212.3280  157.2600 C   0  0  0  0  0  2  0  0  0  0  0  0
  158.9530  211.8380  152.1300 N   0  0  0  0  0  2  0  0  0  0  0  0
  159.1420  214.1670  152.1640 O   0  0  0  0  0  0  0  0  0  0  0  0
  158.7050  213.1360  151.5860 C   0  0  0  0  0  0  0  0  0  0  0  0
  157.8900  213.2720  150.3460 C   0  0  0  0  0  2  0  0  0  0  0  0
  158.2890  214.2380  148.2040 O   0  0  0  0  0  0  0  0  0  0  0  0
  160.1090  213.2660  149.2060 O   0  0  0  0  0  1  0  0  0  0  0  0
  158.7680  213.6280  149.1950 C   0  0  0  0  0  0  0  0  0  0  0  0
  161.5370  209.2110  155.8900 O   0  0  0  0  0  0  0  0  0  0  0  0
  161.2680  208.3500  156.9560 C   0  0  0  0  0  1  0  0  0  0  0  0
  161.9580  208.3410  151.6700 C   0  0  2  0  0  3  0  0  0  0  0  0
  162.3200  209.7950  151.4010 C   0  0  0  0  0  1  0  0  0  0  0  0
  160.8900  207.9260  150.6720 C   0  0  0  0  0  2  0  0  0  0  0  0
  161.0410  204.4760  149.5090 C   0  0  2  0  0  3  0  0  0  0  0  0
  161.3450  206.7240  149.8590 C   0  0  1  0  0  3  0  0  0  0  0  0
  160.6330  206.1300  146.0640 C   0  0  0  0  0  2  0  0  0  0  0  0
  162.5080  206.2160  144.6390 O   0  0  0  0  0  0  0  0  0  0  0  0
  162.3750  204.3370  147.5840 C   0  0  0  0  0  2  0  0  0  0  0  0
  161.9370  205.6250  145.5410 C   0  0  0  0  0  0  0  0  0  0  0  0
  161.6220  208.0450  147.8950 O   0  0  0  0  0  0  0  0  0  0  0  0
  160.5460  205.9340  147.5860 C   0  0  1  0  0  3  0  0  0  0  0  0
  161.0000  204.5920  148.0310 N   0  0  2  0  0  0  0  0  0  0  0  0
  160.2490  203.2550  149.9360 C   0  0  0  0  0  1  0  0  0  0  0  0
  160.5320  205.6150  150.1810 O   0  0  0  0  0  0  0  0  0  0  0  0
  161.2030  207.0130  148.3970 C   0  0  0  0  0  0  0  0  0  0  0  0
  162.4760  204.3380  146.0620 C   0  0  0  0  0  2  0  0  0  0  0  0
  160.7710  206.8050  153.3050 C   0  0  2  0  0  3  0  0  0  0  0  0
  160.1520  206.7320  154.5600 O   0  0  0  0  0  1  0  0  0  0  0  0
  161.1780  204.4300  153.1160 N   0  0  0  0  0  1  0  0  0  0  0  0
  163.0370  205.7990  152.7070 N   0  0  0  0  0  2  0  0  0  0  0  0
  161.6770  205.6210  153.1010 C   0  0  0  0  0  0  0  0  0  0  0  0
  1 22  1  6  0  0  0
  1 38  1  0  0  0  0
  2  1  1  1  0  0  0
  2  6  1  0  0  0  0
  3  5  2  0  0  0  0
  4  3  1  1  0  0  0
  4  9  1  0  0  0  0
  5 12  1  0  0  0  0
  6  9  1  0  0  0  0
  6 20  1  1  0  0  0
  7 13  1  6  0  0  0
  7  4  1  0  0  0  0
  8  7  1  0  0  0  0
  8  2  1  0  0  0  0
  9 10  1  0  0  0  0
 10 12  1  0  0  0  0
 11 10  1  0  0  0  0
 15 13  1  0  0  0  0
 15 14  2  0  0  0  0
 16 15  1  0  0  0  0
 17 19  2  0  0  0  0
 19 18  1  0  0  0  0
 19 16  1  0  0  0  0
 20 21  1  0  0  0  0
 23 22  1  0  0  0  0
 24 22  1  0  0  0  0
 25 34  1  0  0  0  0
 25 35  1  0  0  0  0
 26 35  1  0  0  0  0
 26 24  1  0  0  0  0
 27 32  1  0  0  0  0
 28 30  2  0  0  0  0
 29 33  1  0  0  0  0
 30 37  1  0  0  0  0
 30 27  1  0  0  0  0
 31 36  2  0  0  0  0
 32 33  1  0  0  0  0
 32 36  1  0  0  0  0
 33 25  1  0  0  0  0
 36 26  1  0  0  0  0
 37 29  1  0  0  0  0
 38 39  1  0  0  0  0
 41 42  2  0  0  0  0
 42 40  1  0  0  0  0
 42 38  1  0  0  0  0
M  END
>  <MODEL>
1

>  <REMARK>
 VINA RESULT:      -6.9      0.000      0.000
  Name = 
  10 active torsions:
  status: ('A' for Active; 'I' for Inactive)
    1  A    between atoms: C_3  and  C_23
    2  A    between atoms: C_4  and  C_13
    3  A    between atoms: C_4  and  C_23
    4  A    between atoms: C_5  and  C_13
    5  A    between atoms: N_9  and  C_24
    6  A    between atoms: C_11  and  C_16
    7  A    between atoms: C_11  and  C_33
    8  A    between atoms: C_13  and  C_35
    9  A    between atoms: O_19  and  C_22
   10  A    between atoms: C_29  and  C_35
                            x       y       z     vdW  Elec       q    Type
                         _______ _______ _______ _____ _____    ______ ____

>  <TORSDO>
F 10

$$$$
=
 OpenBabel11072411203D

 42 45  0  0  1  0  0  0  0  0999 V2000
  160.9770  208.7630  151.3640 C   0  0  2  0  0  3  0  0  0  0  0  0
  160.2410  209.5760  152.4490 C   0  0  1  0  0  3  0  0  0  0  0  0
  158.0850  211.8640  155.3570 C   0  0  0  0  0  3  0  0  0  0  0  0
  158.6920  210.9720  154.3010 C   0  0  1  0  0  3  0  0  0  0  0  0
  158.5070  211.8910  156.6300 C   0  0  0  0  0  3  0  0  0  0  0  0
  160.3120  208.9850  153.8660 C   0  0  2  0  0  3  0  0  0  0  0  0
  159.4120  211.8320  153.2430 C   0  0  1  0  0  3  0  0  0  0  0  0
  160.4690  211.0850  152.4210 C   0  0  0  0  0  2  0  0  0  0  0  0
  159.5880  209.8700  154.9120 C   0  0  1  0  0  3  0  0  0  0  0  0
  160.4680  210.4000  156.0520 C   0  0  1  0  0  3  0  0  0  0  0  0
  161.3510  211.3810  155.5950 O   0  0  0  0  0  1  0  0  0  0  0  0
  159.5740  210.9620  157.1540 C   0  0  0  0  0  2  0  0  0  0  0  0
  158.4320  212.4270  152.3470 N   0  0  0  0  0  2  0  0  0  0  0  0
  159.7700  214.2760  151.8460 O   0  0  0  0  0  0  0  0  0  0  0  0
  158.6800  213.6650  151.6780 C   0  0  0  0  0  0  0  0  0  0  0  0
  157.6280  214.2550  150.8040 C   0  0  0  0  0  2  0  0  0  0  0  0
  156.6760  212.9720  149.0360 O   0  0  0  0  0  1  0  0  0  0  0  0
  158.8090  213.7300  148.6710 O   0  0  0  0  0  0  0  0  0  0  0  0
  157.6680  213.6220  149.4550 C   0  0  0  0  0  0  0  0  0  0  0  0
  161.6280  208.7020  154.2470 O   0  0  0  0  0  0  0  0  0  0  0  0
  161.5380  207.5460  155.0270 C   0  0  0  0  0  1  0  0  0  0  0  0
  161.2090  207.2760  151.7140 C   0  0  2  0  0  3  0  0  0  0  0  0
  162.6360  206.8640  151.3800 C   0  0  0  0  0  1  0  0  0  0  0  0
  160.2610  206.3670  150.9500 C   0  0  0  0  0  2  0  0  0  0  0  0
  161.3030  203.3460  149.1990 C   0  0  2  0  0  3  0  0  0  0  0  0
  161.0230  205.4900  149.9680 C   0  0  1  0  0  3  0  0  0  0  0  0
  160.5750  205.4810  146.0880 C   0  0  0  0  0  2  0  0  0  0  0  0
  162.4010  206.2910  144.8390 O   0  0  0  0  0  0  0  0  0  0  0  0
  162.6760  203.9070  147.3800 C   0  0  0  0  0  2  0  0  0  0  0  0
  161.9760  205.4180  145.5760 C   0  0  0  0  0  0  0  0  0  0  0  0
  161.0060  207.1900  148.2990 O   0  0  0  0  0  0  0  0  0  0  0  0
  160.5030  204.9810  147.5400 C   0  0  1  0  0  3  0  0  0  0  0  0
  161.2700  203.7290  147.7680 N   0  0  2  0  0  0  0  0  0  0  0  0
  160.8350  201.9110  149.3430 C   0  0  0  0  0  1  0  0  0  0  0  0
  160.5080  204.1770  150.0280 O   0  0  0  0  0  0  0  0  0  0  0  0
  160.8480  206.0110  148.5760 C   0  0  0  0  0  0  0  0  0  0  0  0
  162.8100  204.2240  145.8950 C   0  0  0  0  0  2  0  0  0  0  0  0
  162.3060  209.4520  151.0010 C   0  0  2  0  0  3  0  0  0  0  0  0
  162.7320  210.2830  152.0450 O   0  0  0  0  0  1  0  0  0  0  0  0
  162.2760  209.5810  148.5880 N   0  0  0  0  0  2  0  0  0  0  0  0
  161.9890  211.6240  149.7020 N   0  0  0  0  0  1  0  0  0  0  0  0
  162.2530  210.2220  149.7090 C   0  0  0  0  0  0  0  0  0  0  0  0
  1 38  1  1  0  0  0
  1 22  1  0  0  0  0
  2  1  1  6  0  0  0
  2  6  1  0  0  0  0
  3  5  2  0  0  0  0
  4  9  1  0  0  0  0
  4  3  1  1  0  0  0
  5 12  1  0  0  0  0
  6 20  1  1  0  0  0
  6  9  1  0  0  0  0
  7 13  1  6  0  0  0
  7  4  1  0  0  0  0
  8  2  1  0  0  0  0
  8  7  1  0  0  0  0
  9 10  1  0  0  0  0
 10 12  1  0  0  0  0
 11 10  1  0  0  0  0
 15 14  2  0  0  0  0
 15 13  1  0  0  0  0
 16 15  1  0  0  0  0
 17 19  1  0  0  0  0
 18 19  2  0  0  0  0
 19 16  1  0  0  0  0
 20 21  1  0  0  0  0
 23 22  1  0  0  0  0
 24 22  1  0  0  0  0
 25 34  1  0  0  0  0
 25 35  1  0  0  0  0
 26 35  1  0  0  0  0
 26 24  1  0  0  0  0
 27 32  1  0  0  0  0
 28 30  2  0  0  0  0
 29 33  1  0  0  0  0
 30 37  1  0  0  0  0
 30 27  1  0  0  0  0
 31 36  2  0  0  0  0
 32 33  1  0  0  0  0
 32 36  1  0  0  0  0
 33 25  1  0  0  0  0
 36 26  1  0  0  0  0
 37 29  1  0  0  0  0
 38 39  1  0  0  0  0
 40 42  2  0  0  0  0
 41 42  1  0  0  0  0
 42 38  1  0  0  0  0
M  END
>  <MODEL>
2

>  <REMARK>
 VINA RESULT:      -6.3      1.645      2.319
  Name = 
  10 active torsions:
  status: ('A' for Active; 'I' for Inactive)
    1  A    between atoms: C_3  and  C_23
    2  A    between atoms: C_4  and  C_13
    3  A    between atoms: C_4  and  C_23
    4  A    between atoms: C_5  and  C_13
    5  A    between atoms: N_9  and  C_24
    6  A    between atoms: C_11  and  C_16
    7  A    between atoms: C_11  and  C_33
    8  A    between atoms: C_13  and  C_35
    9  A    between atoms: O_19  and  C_22
   10  A    between atoms: C_29  and  C_35
                            x       y       z     vdW  Elec       q    Type
                         _______ _______ _______ _____ _____    ______ ____

>  <TORSDO>
F 10

$$$$
=
 OpenBabel11072411203D

 42 45  0  0  1  0  0  0  0  0999 V2000
  161.1510  209.5040  153.7370 C   0  0  2  0  0  3  0  0  0  0  0  0
  160.1550  210.5780  153.2510 C   0  0  1  0  0  3  0  0  0  0  0  0
  157.3980  213.4960  151.7610 C   0  0  0  0  0  3  0  0  0  0  0  0
  158.2670  212.3450  152.2080 C   0  0  1  0  0  3  0  0  0  0  0  0
  156.7840  214.3290  152.6150 C   0  0  0  0  0  3  0  0  0  0  0  0
  159.0290  210.9160  154.2420 C   0  0  2  0  0  3  0  0  0  0  0  0
  159.7320  212.6110  151.8060 C   0  0  1  0  0  3  0  0  0  0  0  0
  160.7710  211.8150  152.6040 C   0  0  0  0  0  2  0  0  0  0  0  0
  158.0890  212.0260  153.7100 C   0  0  1  0  0  3  0  0  0  0  0  0
  158.0140  213.2960  154.5700 C   0  0  1  0  0  3  0  0  0  0  0  0
  159.1980  214.0330  154.4870 O   0  0  0  0  0  1  0  0  0  0  0  0
  156.8290  214.1420  154.1110 C   0  0  0  0  0  2  0  0  0  0  0  0
  159.9050  212.3480  150.3850 N   0  0  0  0  0  2  0  0  0  0  0  0
  160.8180  214.4520  149.9390 O   0  0  0  0  0  0  0  0  0  0  0  0
  160.4580  213.3260  149.5020 C   0  0  0  0  0  0  0  0  0  0  0  0
  160.5750  213.0240  148.0480 C   0  0  0  0  0  2  0  0  0  0  0  0
  162.3830  213.7580  146.6790 O   0  0  0  0  0  0  0  0  0  0  0  0
  162.9250  212.2270  148.2980 O   0  0  0  0  0  1  0  0  0  0  0  0
  162.0080  213.0340  147.6380 C   0  0  0  0  0  0  0  0  0  0  0  0
  159.5280  211.2210  155.5130 O   0  0  0  0  0  0  0  0  0  0  0  0
  158.4150  211.1830  156.3570 C   0  0  0  0  0  1  0  0  0  0  0  0
  161.0470  208.1460  153.0080 C   0  0  2  0  0  3  0  0  0  0  0  0
  162.3090  207.3230  153.2280 C   0  0  0  0  0  1  0  0  0  0  0  0
  160.8540  208.3270  151.5110 C   0  0  0  0  0  2  0  0  0  0  0  0
  160.9890  204.8100  150.5690 C   0  0  2  0  0  3  0  0  0  0  0  0
  161.2800  207.0790  150.7540 C   0  0  1  0  0  3  0  0  0  0  0  0
  160.3660  206.2280  147.0530 C   0  0  0  0  0  2  0  0  0  0  0  0
  162.1570  206.2400  145.5220 O   0  0  0  0  0  0  0  0  0  0  0  0
  162.2160  204.5580  148.5850 C   0  0  0  0  0  2  0  0  0  0  0  0
  161.6460  205.7040  146.4900 C   0  0  0  0  0  0  0  0  0  0  0  0
  161.4280  208.2700  148.6960 O   0  0  0  0  0  0  0  0  0  0  0  0
  160.3670  206.1320  148.5870 C   0  0  1  0  0  3  0  0  0  0  0  0
  160.8640  204.8270  149.0920 N   0  0  2  0  0  0  0  0  0  0  0  0
  160.2400  203.6110  151.1190 C   0  0  0  0  0  1  0  0  0  0  0  0
  160.5020  205.9860  151.1940 O   0  0  0  0  0  0  0  0  0  0  0  0
  161.0530  207.2690  149.2870 C   0  0  0  0  0  0  0  0  0  0  0  0
  162.2320  204.4590  147.0630 C   0  0  0  0  0  2  0  0  0  0  0  0
  161.0240  209.3180  155.2600 C   0  0  2  0  0  3  0  0  0  0  0  0
  162.2530  209.5540  155.8900 O   0  0  0  0  0  1  0  0  0  0  0  0
  161.0630  207.3120  156.6060 N   0  0  0  0  0  1  0  0  0  0  0  0
  159.2390  207.4990  155.1460 N   0  0  0  0  0  2  0  0  0  0  0  0
  160.4830  207.9710  155.6600 C   0  0  0  0  0  0  0  0  0  0  0  0
  1 22  1  6  0  0  0
  1 38  1  0  0  0  0
  2  1  1  1  0  0  0
  2  6  1  0  0  0  0
  3  5  2  0  0  0  0
  4  3  1  1  0  0  0
  4  9  1  0  0  0  0
  5 12  1  0  0  0  0
  6 20  1  1  0  0  0
  7 13  1  6  0  0  0
  7  4  1  0  0  0  0
  7  8  1  0  0  0  0
  8  2  1  0  0  0  0
  9  6  1  0  0  0  0
  9 10  1  0  0  0  0
 11 10  1  0  0  0  0
 12 10  1  0  0  0  0
 15 14  2  0  0  0  0
 15 13  1  0  0  0  0
 16 15  1  0  0  0  0
 17 19  2  0  0  0  0
 19 16  1  0  0  0  0
 19 18  1  0  0  0  0
 20 21  1  0  0  0  0
 22 23  1  0  0  0  0
 24 22  1  0  0  0  0
 25 34  1  0  0  0  0
 25 35  1  0  0  0  0
 26 35  1  0  0  0  0
 26 24  1  0  0  0  0
 27 32  1  0  0  0  0
 28 30  2  0  0  0  0
 29 33  1  0  0  0  0
 30 27  1  0  0  0  0
 30 37  1  0  0  0  0
 31 36  2  0  0  0  0
 32 33  1  0  0  0  0
 32 36  1  0  0  0  0
 33 25  1  0  0  0  0
 36 26  1  0  0  0  0
 37 29  1  0  0  0  0
 38 42  1  0  0  0  0
 38 39  1  0  0  0  0
 41 42  2  0  0  0  0
 42 40  1  0  0  0  0
M  END
>  <MODEL>
3

>  <REMARK>
 VINA RESULT:      -6.0      1.808      2.696
  Name = 
  10 active torsions:
  status: ('A' for Active; 'I' for Inactive)
    1  A    between atoms: C_3  and  C_23
    2  A    between atoms: C_4  and  C_13
    3  A    between atoms: C_4  and  C_23
    4  A    between atoms: C_5  and  C_13
    5  A    between atoms: N_9  and  C_24
    6  A    between atoms: C_11  and  C_16
    7  A    between atoms: C_11  and  C_33
    8  A    between atoms: C_13  and  C_35
    9  A    between atoms: O_19  and  C_22
   10  A    between atoms: C_29  and  C_35
                            x       y       z     vdW  Elec       q    Type
                         _______ _______ _______ _____ _____    ______ ____

>  <TORSDO>
F 10

$$$$
=
 OpenBabel11072411203D

 42 45  0  0  1  0  0  0  0  0999 V2000
  160.9490  208.2050  152.8760 C   0  0  2  0  0  3  0  0  0  0  0  0
  161.4340  207.8520  151.4540 C   0  0  1  0  0  3  0  0  0  0  0  0
  162.8900  206.9830  147.5210 C   0  0  0  0  0  3  0  0  0  0  0  0
  162.5460  207.2790  148.9620 C   0  0  1  0  0  3  0  0  0  0  0  0
  162.4090  205.9250  146.8530 C   0  0  0  0  0  3  0  0  0  0  0  0
  161.4240  206.3520  151.1170 C   0  0  2  0  0  3  0  0  0  0  0  0
  161.7090  208.5710  149.0440 C   0  0  1  0  0  3  0  0  0  0  0  0
  160.8830  208.7200  150.3270 C   0  0  0  0  0  2  0  0  0  0  0  0
  161.8840  206.0710  149.6650 C   0  0  1  0  0  3  0  0  0  0  0  0
  160.8530  205.3690  148.7690 C   0  0  1  0  0  3  0  0  0  0  0  0
  159.8000  206.2280  148.4420 O   0  0  0  0  0  1  0  0  0  0  0  0
  161.5460  204.8720  147.5030 C   0  0  0  0  0  2  0  0  0  0  0  0
  162.5780  209.7270  148.8880 N   0  0  0  0  0  2  0  0  0  0  0  0
  160.9220  211.0450  147.8980 O   0  0  0  0  0  0  0  0  0  0  0  0
  162.1130  210.9430  148.2990 C   0  0  0  0  0  0  0  0  0  0  0  0
  163.0540  212.0840  148.1220 C   0  0  0  0  0  2  0  0  0  0  0  0
  161.7830  214.0940  147.9570 O   0  0  0  0  0  1  0  0  0  0  0  0
  162.4340  213.1680  145.9630 O   0  0  0  0  0  0  0  0  0  0  0  0
  162.3940  213.1760  147.3510 C   0  0  0  0  0  0  0  0  0  0  0  0
  160.1840  205.7640  151.3930 O   0  0  0  0  0  0  0  0  0  0  0  0
  160.4520  204.3990  151.5180 C   0  0  0  0  0  1  0  0  0  0  0  0
  160.8440  209.7180  153.1680 C   0  0  2  0  0  3  0  0  0  0  0  0
  162.2290  210.3270  153.3410 C   0  0  0  0  0  1  0  0  0  0  0  0
  160.0450  209.9900  154.4320 C   0  0  0  0  0  2  0  0  0  0  0  0
  158.4120  212.8560  152.8840 C   0  0  2  0  0  3  0  0  0  0  0  0
  159.3050  211.3150  154.3310 C   0  0  1  0  0  3  0  0  0  0  0  0
  155.5710  211.9270  155.2990 C   0  0  0  0  0  2  0  0  0  0  0  0
  155.2060  213.3050  157.1750 O   0  0  0  0  0  0  0  0  0  0  0  0
  157.3220  214.1380  154.5200 C   0  0  0  0  0  2  0  0  0  0  0  0
  155.6090  213.2300  156.0260 C   0  0  0  0  0  0  0  0  0  0  0  0
  157.9940  210.8310  156.2600 O   0  0  0  0  0  0  0  0  0  0  0  0
  156.8120  211.7660  154.4060 C   0  0  1  0  0  3  0  0  0  0  0  0
  157.1350  212.9880  153.6260 N   0  0  2  0  0  0  0  0  0  0  0  0
  158.1770  213.1890  151.4230 C   0  0  0  0  0  1  0  0  0  0  0  0
  158.9920  211.5670  152.9770 O   0  0  0  0  0  0  0  0  0  0  0  0
  158.0310  211.2500  155.1130 C   0  0  0  0  0  0  0  0  0  0  0  0
  156.0480  214.4530  155.2970 C   0  0  0  0  0  2  0  0  0  0  0  0
  161.8350  207.5070  153.9240 C   0  0  2  0  0  3  0  0  0  0  0  0
  162.2500  206.2510  153.4600 O   0  0  0  0  0  1  0  0  0  0  0  0
  160.1540  206.6090  155.4090 N   0  0  0  0  0  2  0  0  0  0  0  0
  161.7950  207.9300  156.4380 N   0  0  0  0  0  1  0  0  0  0  0  0
  161.1840  207.3750  155.2740 C   0  0  0  0  0  0  0  0  0  0  0  0
  1 22  1  1  0  0  0
  1 38  1  0  0  0  0
  2  1  1  1  0  0  0
  4  3  1  6  0  0  0
  4  7  1  0  0  0  0
  4  9  1  0  0  0  0
  5 12  1  0  0  0  0
  5  3  2  0  0  0  0
  6 20  1  6  0  0  0
  6  2  1  0  0  0  0
  7 13  1  1  0  0  0
  7  8  1  0  0  0  0
  8  2  1  0  0  0  0
  9  6  1  0  0  0  0
 10  9  1  0  0  0  0
 11 10  1  0  0  0  0
 12 10  1  0  0  0  0
 14 15  2  0  0  0  0
 15 13  1  0  0  0  0
 16 15  1  0  0  0  0
 18 19  2  0  0  0  0
 19 17  1  0  0  0  0
 19 16  1  0  0  0  0
 20 21  1  0  0  0  0
 22 23  1  0  0  0  0
 22 24  1  0  0  0  0
 25 35  1  0  0  0  0
 25 33  1  0  0  0  0
 26 24  1  0  0  0  0
 26 36  1  0  0  0  0
 27 30  1  0  0  0  0
 29 37  1  0  0  0  0
 30 28  2  0  0  0  0
 32 36  1  0  0  0  0
 32 27  1  0  0  0  0
 33 32  1  0  0  0  0
 33 29  1  0  0  0  0
 34 25  1  0  0  0  0
 35 26  1  0  0  0  0
 36 31  2  0  0  0  0
 37 30  1  0  0  0  0
 38 42  1  0  0  0  0
 39 38  1  0  0  0  0
 42 40  2  0  0  0  0
 42 41  1  0  0  0  0
M  END
>  <MODEL>
4

>  <REMARK>
 VINA RESULT:      -5.8      2.516      8.176
  Name = 
  10 active torsions:
  status: ('A' for Active; 'I' for Inactive)
    1  A    between atoms: C_3  and  C_23
    2  A    between atoms: C_4  and  C_13
    3  A    between atoms: C_4  and  C_23
    4  A    between atoms: C_5  and  C_13
    5  A    between atoms: N_9  and  C_24
    6  A    between atoms: C_11  and  C_16
    7  A    between atoms: C_11  and  C_33
    8  A    between atoms: C_13  and  C_35
    9  A    between atoms: O_19  and  C_22
   10  A    between atoms: C_29  and  C_35
                            x       y       z     vdW  Elec       q    Type
                         _______ _______ _______ _____ _____    ______ ____

>  <TORSDO>
F 10

$$$$
=
 OpenBabel11072411203D

 42 45  0  0  1  0  0  0  0  0999 V2000
  160.9940  208.8130  150.9280 C   0  0  2  0  0  3  0  0  0  0  0  0
  160.4840  209.2730  152.3100 C   0  0  1  0  0  3  0  0  0  0  0  0
  158.9510  210.6170  156.0760 C   0  0  0  0  0  3  0  0  0  0  0  0
  159.3280  210.0840  154.7150 C   0  0  1  0  0  3  0  0  0  0  0  0
  159.5170  210.1920  157.2150 C   0  0  0  0  0  3  0  0  0  0  0  0
  160.6490  208.2430  153.4400 C   0  0  2  0  0  3  0  0  0  0  0  0
  160.0150  211.1910  153.8920 C   0  0  1  0  0  3  0  0  0  0  0  0
  160.8790  210.6860  152.7300 C   0  0  0  0  0  2  0  0  0  0  0  0
  160.1550  208.7810  154.8050 C   0  0  1  0  0  3  0  0  0  0  0  0
  161.2150  208.8410  155.9150 C   0  0  1  0  0  3  0  0  0  0  0  0
  162.1470  209.8530  155.6690 O   0  0  0  0  0  1  0  0  0  0  0  0
  160.5230  209.0690  157.2560 C   0  0  0  0  0  2  0  0  0  0  0  0
  159.0130  212.1170  153.3850 N   0  0  0  0  0  2  0  0  0  0  0  0
  159.4720  213.7510  154.9910 O   0  0  0  0  0  0  0  0  0  0  0  0
  158.7930  213.3920  153.9920 C   0  0  0  0  0  0  0  0  0  0  0  0
  157.7250  214.2860  153.4620 C   0  0  0  0  0  2  0  0  0  0  0  0
  156.2870  214.3140  155.3630 O   0  0  0  0  0  1  0  0  0  0  0  0
  155.4010  213.3800  153.4650 O   0  0  0  0  0  0  0  0  0  0  0  0
  156.4340  214.0040  154.1520 C   0  0  0  0  0  0  0  0  0  0  0  0
  161.9600  207.7570  153.5150 O   0  0  0  0  0  0  0  0  0  0  0  0
  161.8240  206.3920  153.7770 C   0  0  0  0  0  1  0  0  0  0  0  0
  161.2900  207.3010  150.8160 C   0  0  2  0  0  3  0  0  0  0  0  0
  162.7170  207.0690  150.3390 C   0  0  0  0  0  1  0  0  0  0  0  0
  160.3460  206.6180  149.8390 C   0  0  0  0  0  2  0  0  0  0  0  0
  161.5360  203.4850  148.4080 C   0  0  2  0  0  3  0  0  0  0  0  0
  161.1090  205.6830  148.9130 C   0  0  1  0  0  3  0  0  0  0  0  0
  160.3460  205.0950  145.1270 C   0  0  0  0  0  2  0  0  0  0  0  0
  161.9740  205.8800  143.6150 O   0  0  0  0  0  0  0  0  0  0  0  0
  162.6920  203.9050  146.4090 C   0  0  0  0  0  2  0  0  0  0  0  0
  161.7000  205.0840  144.4980 C   0  0  0  0  0  0  0  0  0  0  0  0
  160.7860  207.1260  147.0450 O   0  0  0  0  0  0  0  0  0  0  0  0
  160.4440  204.7970  146.6320 C   0  0  1  0  0  3  0  0  0  0  0  0
  161.3470  203.6620  146.9480 N   0  0  2  0  0  0  0  0  0  0  0  0
  161.2250  202.0480  148.7810 C   0  0  0  0  0  1  0  0  0  0  0  0
  160.7330  204.3500  149.1920 O   0  0  0  0  0  0  0  0  0  0  0  0
  160.7690  205.9880  147.4870 C   0  0  0  0  0  0  0  0  0  0  0  0
  162.6710  204.0230  144.8890 C   0  0  0  0  0  2  0  0  0  0  0  0
  162.2260  209.6420  150.5190 C   0  0  2  0  0  3  0  0  0  0  0  0
  162.7730  210.2940  151.6320 O   0  0  0  0  0  1  0  0  0  0  0  0
  161.6370  210.1980  148.2420 N   0  0  0  0  0  2  0  0  0  0  0  0
  161.8440  212.0260  149.6960 N   0  0  0  0  0  1  0  0  0  0  0  0
  161.9500  210.6310  149.4180 C   0  0  0  0  0  0  0  0  0  0  0  0
  1 38  1  1  0  0  0
  2  1  1  6  0  0  0
  2  8  1  0  0  0  0
  2  6  1  0  0  0  0
  3  5  2  0  0  0  0
  4  9  1  0  0  0  0
  4  3  1  1  0  0  0
  5 12  1  0  0  0  0
  6 20  1  1  0  0  0
  6  9  1  0  0  0  0
  7 13  1  6  0  0  0
  7  4  1  0  0  0  0
  8  7  1  0  0  0  0
  9 10  1  0  0  0  0
 10 12  1  0  0  0  0
 11 10  1  0  0  0  0
 13 15  1  0  0  0  0
 15 14  2  0  0  0  0
 16 15  1  0  0  0  0
 16 19  1  0  0  0  0
 18 19  2  0  0  0  0
 19 17  1  0  0  0  0
 20 21  1  0  0  0  0
 22  1  1  0  0  0  0
 23 22  1  0  0  0  0
 24 22  1  0  0  0  0
 25 34  1  0  0  0  0
 25 35  1  0  0  0  0
 26 35  1  0  0  0  0
 26 24  1  0  0  0  0
 27 32  1  0  0  0  0
 28 30  2  0  0  0  0
 29 33  1  0  0  0  0
 30 37  1  0  0  0  0
 30 27  1  0  0  0  0
 31 36  2  0  0  0  0
 32 33  1  0  0  0  0
 32 36  1  0  0  0  0
 33 25  1  0  0  0  0
 36 26  1  0  0  0  0
 37 29  1  0  0  0  0
 38 39  1  0  0  0  0
 40 42  2  0  0  0  0
 42 41  1  0  0  0  0
 42 38  1  0  0  0  0
M  END
>  <MODEL>
5

>  <REMARK>
 VINA RESULT:      -5.7      2.417      3.341
  Name = 
  10 active torsions:
  status: ('A' for Active; 'I' for Inactive)
    1  A    between atoms: C_3  and  C_23
    2  A    between atoms: C_4  and  C_13
    3  A    between atoms: C_4  and  C_23
    4  A    between atoms: C_5  and  C_13
    5  A    between atoms: N_9  and  C_24
    6  A    between atoms: C_11  and  C_16
    7  A    between atoms: C_11  and  C_33
    8  A    between atoms: C_13  and  C_35
    9  A    between atoms: O_19  and  C_22
   10  A    between atoms: C_29  and  C_35
                            x       y       z     vdW  Elec       q    Type
                         _______ _______ _______ _____ _____    ______ ____

>  <TORSDO>
F 10

$$$$
=
 OpenBabel11072411203D

 42 45  0  0  1  0  0  0  0  0999 V2000
  161.4320  208.3960  153.6220 C   0  0  2  0  0  3  0  0  0  0  0  0
  160.7250  209.7680  153.6280 C   0  0  1  0  0  3  0  0  0  0  0  0
  158.7440  213.5610  153.7980 C   0  0  0  0  0  3  0  0  0  0  0  0
  159.5430  212.2810  153.8730 C   0  0  1  0  0  3  0  0  0  0  0  0
  158.7040  214.3390  152.7070 C   0  0  0  0  0  3  0  0  0  0  0  0
  161.3390  210.8200  152.6900 C   0  0  2  0  0  3  0  0  0  0  0  0
  158.5890  211.0760  153.9820 C   0  0  1  0  0  3  0  0  0  0  0  0
  159.2010  209.7330  153.5680 C   0  0  0  0  0  2  0  0  0  0  0  0
  160.5600  212.1580  152.7140 C   0  0  1  0  0  3  0  0  0  0  0  0
  159.9670  212.6030  151.3700 C   0  0  1  0  0  3  0  0  0  0  0  0
  158.8880  211.7950  151.0010 O   0  0  0  0  0  1  0  0  0  0  0  0
  159.5270  214.0610  151.4750 C   0  0  0  0  0  2  0  0  0  0  0  0
  158.0780  210.9780  155.3420 N   0  0  0  0  0  2  0  0  0  0  0  0
  156.0710  212.0650  154.8420 O   0  0  0  0  0  0  0  0  0  0  0  0
  156.7990  211.5020  155.7030 C   0  0  0  0  0  0  0  0  0  0  0  0
  156.3400  211.4160  157.1180 C   0  0  0  0  0  2  0  0  0  0  0  0
  154.2670  212.5840  157.2510 O   0  0  0  0  0  1  0  0  0  0  0  0
  154.1100  210.2980  157.1700 O   0  0  0  0  0  0  0  0  0  0  0  0
  154.8510  211.4730  157.1760 C   0  0  0  0  0  0  0  0  0  0  0  0
  161.4920  210.3300  151.3870 O   0  0  0  0  0  0  0  0  0  0  0  0
  162.7490  210.7820  150.9770 C   0  0  0  0  0  1  0  0  0  0  0  0
  160.8270  207.3590  152.6490 C   0  0  2  0  0  3  0  0  0  0  0  0
  161.4800  205.9980  152.8430 C   0  0  0  0  0  1  0  0  0  0  0  0
  161.0170  207.7750  151.1990 C   0  0  0  0  0  2  0  0  0  0  0  0
  160.9070  204.3690  149.9090 C   0  0  2  0  0  3  0  0  0  0  0  0
  161.3720  206.5760  150.3330 C   0  0  1  0  0  3  0  0  0  0  0  0
  160.5500  206.1750  146.5360 C   0  0  0  0  0  2  0  0  0  0  0  0
  162.3990  206.1860  145.0750 O   0  0  0  0  0  0  0  0  0  0  0  0
  162.1920  204.2110  147.9520 C   0  0  0  0  0  2  0  0  0  0  0  0
  161.8050  205.6030  145.9670 C   0  0  0  0  0  0  0  0  0  0  0  0
  161.7030  207.9470  148.4140 O   0  0  0  0  0  0  0  0  0  0  0  0
  160.4780  205.9280  148.0520 C   0  0  1  0  0  3  0  0  0  0  0  0
  160.8460  204.5420  148.4380 N   0  0  2  0  0  0  0  0  0  0  0  0
  160.0410  203.1890  150.3080 C   0  0  0  0  0  1  0  0  0  0  0  0
  160.4910  205.5140  150.6330 O   0  0  0  0  0  0  0  0  0  0  0  0
  161.2230  206.9280  148.8870 C   0  0  0  0  0  0  0  0  0  0  0  0
  162.2640  204.2620  146.4290 C   0  0  0  0  0  2  0  0  0  0  0  0
  161.4950  207.8290  155.0520 C   0  0  2  0  0  3  0  0  0  0  0  0
  160.3630  207.0510  155.3250 O   0  0  0  0  0  1  0  0  0  0  0  0
  161.0910  208.7350  157.2560 N   0  0  0  0  0  1  0  0  0  0  0  0
  162.6140  209.9410  155.9430 N   0  0  0  0  0  2  0  0  0  0  0  0
  161.6720  208.8830  156.1120 C   0  0  0  0  0  0  0  0  0  0  0  0
  1 22  1  6  0  0  0
  1 38  1  0  0  0  0
  2  1  1  6  0  0  0
  4  3  1  6  0  0  0
  4  7  1  0  0  0  0
  5  3  2  0  0  0  0
  6 20  1  6  0  0  0
  6  9  1  0  0  0  0
  6  2  1  0  0  0  0
  7 13  1  1  0  0  0
  8  2  1  0  0  0  0
  8  7  1  0  0  0  0
  9  4  1  0  0  0  0
 10 12  1  0  0  0  0
 10  9  1  0  0  0  0
 11 10  1  0  0  0  0
 12  5  1  0  0  0  0
 13 15  1  0  0  0  0
 14 15  2  0  0  0  0
 15 16  1  0  0  0  0
 16 19  1  0  0  0  0
 18 19  2  0  0  0  0
 19 17  1  0  0  0  0
 21 20  1  0  0  0  0
 22 23  1  0  0  0  0
 24 22  1  0  0  0  0
 25 34  1  0  0  0  0
 25 35  1  0  0  0  0
 26 35  1  0  0  0  0
 26 24  1  0  0  0  0
 27 32  1  0  0  0  0
 28 30  2  0  0  0  0
 29 33  1  0  0  0  0
 30 37  1  0  0  0  0
 30 27  1  0  0  0  0
 31 36  2  0  0  0  0
 32 33  1  0  0  0  0
 32 36  1  0  0  0  0
 33 25  1  0  0  0  0
 36 26  1  0  0  0  0
 37 29  1  0  0  0  0
 38 39  1  0  0  0  0
 38 42  1  0  0  0  0
 41 42  2  0  0  0  0
 42 40  1  0  0  0  0
M  END
>  <MODEL>
6

>  <REMARK>
 VINA RESULT:      -5.2      2.523      4.149
  Name = 
  10 active torsions:
  status: ('A' for Active; 'I' for Inactive)
    1  A    between atoms: C_3  and  C_23
    2  A    between atoms: C_4  and  C_13
    3  A    between atoms: C_4  and  C_23
    4  A    between atoms: C_5  and  C_13
    5  A    between atoms: N_9  and  C_24
    6  A    between atoms: C_11  and  C_16
    7  A    between atoms: C_11  and  C_33
    8  A    between atoms: C_13  and  C_35
    9  A    between atoms: O_19  and  C_22
   10  A    between atoms: C_29  and  C_35
                            x       y       z     vdW  Elec       q    Type
                         _______ _______ _______ _____ _____    ______ ____

>  <TORSDO>
F 10

$$$$
=
 OpenBabel11072411203D

 42 45  0  0  1  0  0  0  0  0999 V2000
  160.8460  208.3640  153.6520 C   0  0  2  0  0  3  0  0  0  0  0  0
  161.3180  208.0560  152.2160 C   0  0  1  0  0  3  0  0  0  0  0  0
  162.7300  207.3170  148.2410 C   0  0  0  0  0  3  0  0  0  0  0  0
  162.4020  207.5770  149.6920 C   0  0  1  0  0  3  0  0  0  0  0  0
  162.2980  206.2390  147.5710 C   0  0  0  0  0  3  0  0  0  0  0  0
  161.3900  206.5620  151.8610 C   0  0  2  0  0  3  0  0  0  0  0  0
  161.4910  208.8150  149.8080 C   0  0  1  0  0  3  0  0  0  0  0  0
  160.6880  208.9000  151.1120 C   0  0  0  0  0  2  0  0  0  0  0  0
  161.8320  206.3240  150.3960 C   0  0  1  0  0  3  0  0  0  0  0  0
  160.8250  205.5700  149.5160 C   0  0  1  0  0  3  0  0  0  0  0  0
  159.7150  206.3660  149.2230 O   0  0  0  0  0  1  0  0  0  0  0  0
  161.5170  205.1290  148.2290 C   0  0  0  0  0  2  0  0  0  0  0  0
  162.2850  210.0240  149.6470 N   0  0  0  0  0  2  0  0  0  0  0  0
  161.0190  210.8110  147.8470 O   0  0  0  0  0  0  0  0  0  0  0  0
  161.9890  210.9860  148.6330 C   0  0  0  0  0  0  0  0  0  0  0  0
  162.8580  212.1860  148.4800 C   0  0  0  0  0  2  0  0  0  0  0  0
  161.0840  213.6880  149.0080 O   0  0  0  0  0  1  0  0  0  0  0  0
  162.2610  214.1790  147.1030 O   0  0  0  0  0  0  0  0  0  0  0  0
  162.0210  213.3930  148.2220 C   0  0  0  0  0  0  0  0  0  0  0  0
  160.1960  205.8970  152.1590 O   0  0  0  0  0  0  0  0  0  0  0  0
  160.5760  204.5850  152.4520 C   0  0  0  0  0  1  0  0  0  0  0  0
  160.5640  209.8560  153.9360 C   0  0  2  0  0  3  0  0  0  0  0  0
  161.8540  210.5870  154.2840 C   0  0  0  0  0  1  0  0  0  0  0  0
  159.5930  210.0320  155.0920 C   0  0  0  0  0  2  0  0  0  0  0  0
  157.9340  213.2460  155.5350 C   0  0  2  0  0  3  0  0  0  0  0  0
  158.6310  211.1790  154.8220 C   0  0  1  0  0  3  0  0  0  0  0  0
  158.8370  213.6760  151.8250 C   0  0  0  0  0  2  0  0  0  0  0  0
  157.1090  213.5150  150.2310 O   0  0  0  0  0  0  0  0  0  0  0  0
  156.5740  213.7090  153.6790 C   0  0  0  0  0  2  0  0  0  0  0  0
  157.4180  213.7980  151.3760 C   0  0  0  0  0  0  0  0  0  0  0  0
  158.8460  210.9210  152.4630 O   0  0  0  0  0  0  0  0  0  0  0  0
  158.9070  213.1680  153.2740 C   0  0  1  0  0  3  0  0  0  0  0  0
  157.9470  213.8490  154.1810 N   0  0  2  0  0  0  0  0  0  0  0  0
  158.1500  214.3350  156.5680 C   0  0  0  0  0  1  0  0  0  0  0  0
  158.9110  212.2350  155.7170 O   0  0  0  0  0  0  0  0  0  0  0  0
  158.8110  211.6780  153.4220 C   0  0  0  0  0  0  0  0  0  0  0  0
  156.4090  214.3660  152.3130 C   0  0  0  0  0  2  0  0  0  0  0  0
  161.8500  207.7940  154.6710 C   0  0  2  0  0  3  0  0  0  0  0  0
  162.3080  206.5350  154.2600 O   0  0  0  0  0  1  0  0  0  0  0  0
  160.2890  206.9740  156.3230 N   0  0  0  0  0  2  0  0  0  0  0  0
  162.0220  208.3110  157.1630 N   0  0  0  0  0  1  0  0  0  0  0  0
  161.3120  207.7210  156.0740 C   0  0  0  0  0  0  0  0  0  0  0  0
  1 22  1  6  0  0  0
  1 38  1  0  0  0  0
  2  1  1  1  0  0  0
  4  3  1  6  0  0  0
  4  7  1  0  0  0  0
  4  9  1  0  0  0  0
  5 12  1  0  0  0  0
  5  3  2  0  0  0  0
  6 20  1  6  0  0  0
  6  2  1  0  0  0  0
  7 13  1  1  0  0  0
  7  8  1  0  0  0  0
  8  2  1  0  0  0  0
  9  6  1  0  0  0  0
 10  9  1  0  0  0  0
 11 10  1  0  0  0  0
 12 10  1  0  0  0  0
 14 15  2  0  0  0  0
 15 13  1  0  0  0  0
 16 15  1  0  0  0  0
 18 19  2  0  0  0  0
 19 16  1  0  0  0  0
 19 17  1  0  0  0  0
 20 21  1  0  0  0  0
 22 23  1  0  0  0  0
 22 24  1  0  0  0  0
 25 35  1  0  0  0  0
 25 34  1  0  0  0  0
 26 24  1  0  0  0  0
 26 35  1  0  0  0  0
 27 32  1  0  0  0  0
 28 30  2  0  0  0  0
 29 33  1  0  0  0  0
 30 27  1  0  0  0  0
 30 37  1  0  0  0  0
 31 36  2  0  0  0  0
 32 36  1  0  0  0  0
 32 33  1  0  0  0  0
 33 25  1  0  0  0  0
 36 26  1  0  0  0  0
 37 29  1  0  0  0  0
 38 42  1  0  0  0  0
 39 38  1  0  0  0  0
 42 40  2  0  0  0  0
 42 41  1  0  0  0  0
M  END
>  <MODEL>
7

>  <REMARK>
 VINA RESULT:      -5.2      2.307      7.561
  Name = 
  10 active torsions:
  status: ('A' for Active; 'I' for Inactive)
    1  A    between atoms: C_3  and  C_23
    2  A    between atoms: C_4  and  C_13
    3  A    between atoms: C_4  and  C_23
    4  A    between atoms: C_5  and  C_13
    5  A    between atoms: N_9  and  C_24
    6  A    between atoms: C_11  and  C_16
    7  A    between atoms: C_11  and  C_33
    8  A    between atoms: C_13  and  C_35
    9  A    between atoms: O_19  and  C_22
   10  A    between atoms: C_29  and  C_35
                            x       y       z     vdW  Elec       q    Type
                         _______ _______ _______ _____ _____    ______ ____

>  <TORSDO>
F 10

$$$$
=
 OpenBabel11072411203D

 42 45  0  0  1  0  0  0  0  0999 V2000
  160.6940  211.5230  150.7800 C   0  0  2  0  0  3  0  0  0  0  0  0
  160.1010  212.0170  152.1160 C   0  0  1  0  0  3  0  0  0  0  0  0
  158.5970  213.3890  155.8840 C   0  0  0  0  0  3  0  0  0  0  0  0
  159.2460  213.0360  154.5670 C   0  0  1  0  0  3  0  0  0  0  0  0
  157.3090  213.7420  155.9980 C   0  0  0  0  0  3  0  0  0  0  0  0
  158.9580  213.0370  151.9830 C   0  0  2  0  0  3  0  0  0  0  0  0
  159.6270  211.5420  154.5560 C   0  0  1  0  0  3  0  0  0  0  0  0
  159.8190  210.9400  153.1600 C   0  0  0  0  0  2  0  0  0  0  0  0
  158.3820  213.4600  153.3570 C   0  0  1  0  0  3  0  0  0  0  0  0
  156.8930  213.1580  153.5720 C   0  0  1  0  0  3  0  0  0  0  0  0
  156.6720  211.7860  153.7200 O   0  0  0  0  0  1  0  0  0  0  0  0
  156.4010  213.9110  154.8050 C   0  0  0  0  0  2  0  0  0  0  0  0
  160.8350  211.3400  155.3430 N   0  0  0  0  0  2  0  0  0  0  0  0
  159.9400  209.5560  156.5590 O   0  0  0  0  0  0  0  0  0  0  0  0
  160.9190  210.3180  156.3380 C   0  0  0  0  0  0  0  0  0  0  0  0
  162.1620  210.1780  157.1470 C   0  0  0  0  0  2  0  0  0  0  0  0
  163.6240  210.7160  155.3430 O   0  0  0  0  0  0  0  0  0  0  0  0
  163.9200  211.9450  157.2560 O   0  0  0  0  0  1  0  0  0  0  0  0
  163.2680  210.9610  156.5250 C   0  0  0  0  0  0  0  0  0  0  0  0
  157.9560  212.5870  151.1160 O   0  0  0  0  0  0  0  0  0  0  0  0
  157.5460  213.7240  150.4160 C   0  0  0  0  0  1  0  0  0  0  0  0
  161.8020  210.4560  150.9180 C   0  0  2  0  0  3  0  0  0  0  0  0
  163.1650  211.0570  150.6030 C   0  0  0  0  0  1  0  0  0  0  0  0
  161.5720  209.2850  149.9770 C   0  0  0  0  0  2  0  0  0  0  0  0
  161.5350  206.7980  152.6400 C   0  0  2  0  0  3  0  0  0  0  0  0
  161.8270  207.9630  150.6850 C   0  0  1  0  0  3  0  0  0  0  0  0
  160.0850  204.5620  149.8720 C   0  0  0  0  0  2  0  0  0  0  0  0
  161.4670  202.8920  148.9480 O   0  0  0  0  0  0  0  0  0  0  0  0
  162.2670  204.7270  151.8140 C   0  0  0  0  0  2  0  0  0  0  0  0
  161.2050  203.5770  149.9230 C   0  0  0  0  0  0  0  0  0  0  0  0
  161.4720  206.7210  148.6830 O   0  0  0  0  0  0  0  0  0  0  0  0
  160.4460  205.8370  150.6510 C   0  0  1  0  0  3  0  0  0  0  0  0
  161.0670  205.5600  151.9720 N   0  0  2  0  0  0  0  0  0  0  0  0
  160.9530  206.8590  154.0400 C   0  0  0  0  0  1  0  0  0  0  0  0
  161.1900  207.9840  151.9450 O   0  0  0  0  0  0  0  0  0  0  0  0
  161.2600  206.8350  149.8800 C   0  0  0  0  0  0  0  0  0  0  0  0
  161.9280  203.3690  151.2100 C   0  0  0  0  0  2  0  0  0  0  0  0
  161.1890  212.7210  149.9490 C   0  0  2  0  0  3  0  0  0  0  0  0
  160.8380  213.9280  150.5670 O   0  0  0  0  0  1  0  0  0  0  0  0
  159.8280  213.5680  148.1410 N   0  0  0  0  0  1  0  0  0  0  0  0
  161.3460  211.8840  147.5440 N   0  0  0  0  0  2  0  0  0  0  0  0
  160.7100  212.7060  148.5220 C   0  0  0  0  0  0  0  0  0  0  0  0
  1 38  1  1  0  0  0
  1 22  1  0  0  0  0
  2  1  1  6  0  0  0
  2  8  1  0  0  0  0
  3  5  2  0  0  0  0
  4  3  1  1  0  0  0
  6 20  1  6  0  0  0
  6  2  1  0  0  0  0
  6  9  1  0  0  0  0
  7  4  1  0  0  0  0
  7 13  1  1  0  0  0
  8  7  1  0  0  0  0
  9 10  1  0  0  0  0
  9  4  1  0  0  0  0
 10 11  1  0  0  0  0
 10 12  1  0  0  0  0
 12  5  1  0  0  0  0
 13 15  1  0  0  0  0
 15 14  2  0  0  0  0
 15 16  1  0  0  0  0
 17 19  2  0  0  0  0
 19 16  1  0  0  0  0
 19 18  1  0  0  0  0
 21 20  1  0  0  0  0
 23 22  1  0  0  0  0
 24 26  1  0  0  0  0
 24 22  1  0  0  0  0
 25 34  1  0  0  0  0
 26 35  1  0  0  0  0
 27 30  1  0  0  0  0
 27 32  1  0  0  0  0
 28 30  2  0  0  0  0
 29 33  1  0  0  0  0
 30 37  1  0  0  0  0
 31 36  2  0  0  0  0
 32 33  1  0  0  0  0
 33 25  1  0  0  0  0
 35 25  1  0  0  0  0
 36 32  1  0  0  0  0
 36 26  1  0  0  0  0
 37 29  1  0  0  0  0
 38 39  1  0  0  0  0
 40 42  1  0  0  0  0
 41 42  2  0  0  0  0
 42 38  1  0  0  0  0
M  END
>  <MODEL>
8

>  <REMARK>
 VINA RESULT:      -5.0      2.225      5.506
  Name = 
  10 active torsions:
  status: ('A' for Active; 'I' for Inactive)
    1  A    between atoms: C_3  and  C_23
    2  A    between atoms: C_4  and  C_13
    3  A    between atoms: C_4  and  C_23
    4  A    between atoms: C_5  and  C_13
    5  A    between atoms: N_9  and  C_24
    6  A    between atoms: C_11  and  C_16
    7  A    between atoms: C_11  and  C_33
    8  A    between atoms: C_13  and  C_35
    9  A    between atoms: O_19  and  C_22
   10  A    between atoms: C_29  and  C_35
                            x       y       z     vdW  Elec       q    Type
                         _______ _______ _______ _____ _____    ______ ____

>  <TORSDO>
F 10

$$$$
=
 OpenBabel11072411203D

 42 45  0  0  1  0  0  0  0  0999 V2000
  161.2860  206.9230  150.4840 C   0  0  2  0  0  3  0  0  0  0  0  0
  161.4350  205.5370  149.8220 C   0  0  1  0  0  3  0  0  0  0  0  0
  161.9500  201.7520  147.8850 C   0  0  0  0  0  3  0  0  0  0  0  0
  161.9460  203.0950  148.5750 C   0  0  1  0  0  3  0  0  0  0  0  0
  161.3870  200.6540  148.4100 C   0  0  0  0  0  3  0  0  0  0  0  0
  161.4340  204.3470  150.7960 C   0  0  2  0  0  3  0  0  0  0  0  0
  161.0770  204.0880  147.7780 C   0  0  1  0  0  3  0  0  0  0  0  0
  160.5770  205.2930  148.5830 C   0  0  0  0  0  2  0  0  0  0  0  0
  161.5470  202.9860  150.0650 C   0  0  1  0  0  3  0  0  0  0  0  0
  160.3750  202.0190  150.2850 C   0  0  1  0  0  3  0  0  0  0  0  0
  159.2250  202.4610  149.6270 O   0  0  0  0  0  1  0  0  0  0  0  0
  160.7720  200.6310  149.7870 C   0  0  0  0  0  2  0  0  0  0  0  0
  161.8120  204.5550  146.6120 N   0  0  0  0  0  2  0  0  0  0  0  0
  160.4220  203.4520  145.0910 O   0  0  0  0  0  0  0  0  0  0  0  0
  161.4240  204.1920  145.2860 C   0  0  0  0  0  0  0  0  0  0  0  0
  162.2350  204.6590  144.1260 C   0  0  0  0  0  2  0  0  0  0  0  0
  160.7850  206.5510  144.1380 O   0  0  0  0  0  1  0  0  0  0  0  0
  161.8040  206.0970  142.1340 O   0  0  0  0  0  0  0  0  0  0  0  0
  161.5710  205.8250  143.4760 C   0  0  0  0  0  0  0  0  0  0  0  0
  160.3350  204.3830  151.6620 O   0  0  0  0  0  0  0  0  0  0  0  0
  160.6810  203.5380  152.7190 C   0  0  0  0  0  1  0  0  0  0  0  0
  161.4740  208.1210  149.5280 C   0  0  2  0  0  3  0  0  0  0  0  0
  162.4640  207.7750  148.4240 C   0  0  0  0  0  1  0  0  0  0  0  0
  161.9910  209.3470  150.2620 C   0  0  0  0  0  2  0  0  0  0  0  0
  159.9790  212.2870  151.0270 C   0  0  2  0  0  3  0  0  0  0  0  0
  161.0860  210.5460  150.0220 C   0  0  1  0  0  3  0  0  0  0  0  0
  162.1190  213.8740  148.2580 C   0  0  0  0  0  2  0  0  0  0  0  0
  161.1120  214.2870  146.1680 O   0  0  0  0  0  0  0  0  0  0  0  0
  159.3470  213.3650  149.0400 C   0  0  0  0  0  2  0  0  0  0  0  0
  160.9560  214.1740  147.3720 C   0  0  0  0  0  0  0  0  0  0  0  0
  162.1660  211.0620  147.9620 O   0  0  0  0  0  0  0  0  0  0  0  0
  161.7080  212.9210  149.3920 C   0  0  1  0  0  3  0  0  0  0  0  0
  160.4240  213.2960  150.0360 N   0  0  2  0  0  0  0  0  0  0  0  0
  159.6990  212.9750  152.3490 C   0  0  0  0  0  1  0  0  0  0  0  0
  160.9180  211.2460  151.2370 O   0  0  0  0  0  0  0  0  0  0  0  0
  161.7110  211.4660  149.0210 C   0  0  0  0  0  0  0  0  0  0  0  0
  159.6250  214.4340  147.9900 C   0  0  0  0  0  2  0  0  0  0  0  0
  162.2340  207.0340  151.6920 C   0  0  2  0  0  3  0  0  0  0  0  0
  163.0840  205.9220  151.7560 O   0  0  0  0  0  1  0  0  0  0  0  0
  161.6790  206.3490  153.9420 N   0  0  0  0  0  1  0  0  0  0  0  0
  160.8300  208.4360  153.2950 N   0  0  0  0  0  2  0  0  0  0  0  0
  161.5220  207.2220  153.0040 C   0  0  0  0  0  0  0  0  0  0  0  0
  1 22  1  6  0  0  0
  1 38  1  0  0  0  0
  2  1  1  1  0  0  0
  2  6  1  0  0  0  0
  3  5  2  0  0  0  0
  4  3  1  6  0  0  0
  4  9  1  0  0  0  0
  5 12  1  0  0  0  0
  6 20  1  6  0  0  0
  7 13  1  6  0  0  0
  7  4  1  0  0  0  0
  7  8  1  0  0  0  0
  8  2  1  0  0  0  0
  9 10  1  0  0  0  0
  9  6  1  0  0  0  0
 11 10  1  0  0  0  0
 12 10  1  0  0  0  0
 14 15  2  0  0  0  0
 15 13  1  0  0  0  0
 16 15  1  0  0  0  0
 18 19  2  0  0  0  0
 19 16  1  0  0  0  0
 19 17  1  0  0  0  0
 20 21  1  0  0  0  0
 22 24  1  0  0  0  0
 23 22  1  0  0  0  0
 25 35  1  0  0  0  0
 25 34  1  0  0  0  0
 26 24  1  0  0  0  0
 26 35  1  0  0  0  0
 27 32  1  0  0  0  0
 28 30  2  0  0  0  0
 29 33  1  0  0  0  0
 30 37  1  0  0  0  0
 30 27  1  0  0  0  0
 31 36  2  0  0  0  0
 32 33  1  0  0  0  0
 33 25  1  0  0  0  0
 36 32  1  0  0  0  0
 36 26  1  0  0  0  0
 37 29  1  0  0  0  0
 38 39  1  0  0  0  0
 38 42  1  0  0  0  0
 42 41  2  0  0  0  0
 42 40  1  0  0  0  0
M  END
>  <MODEL>
9

>  <REMARK>
 VINA RESULT:      -4.7      2.712      8.509
  Name = 
  10 active torsions:
  status: ('A' for Active; 'I' for Inactive)
    1  A    between atoms: C_3  and  C_23
    2  A    between atoms: C_4  and  C_13
    3  A    between atoms: C_4  and  C_23
    4  A    between atoms: C_5  and  C_13
    5  A    between atoms: N_9  and  C_24
    6  A    between atoms: C_11  and  C_16
    7  A    between atoms: C_11  and  C_33
    8  A    between atoms: C_13  and  C_35
    9  A    between atoms: O_19  and  C_22
   10  A    between atoms: C_29  and  C_35
                            x       y       z     vdW  Elec       q    Type
                         _______ _______ _______ _____ _____    ______ ____

>  <TORSDO>
F 10

$$$$
