=
 OpenBabel11072413563D

 46 50  0  0  1  0  0  0  0  0999 V2000
  160.6830  207.5330  154.3980 C   0  0  1  0  0  3  0  0  0  0  0  0
  160.3780  208.3080  153.0950 C   0  0  2  0  0  3  0  0  0  0  0  0
  163.0360  206.3520  150.6300 S   0  0  0  0  0  0  0  0  0  0  0  0
  159.4560  207.4780  155.2880 C   0  0  0  0  0  1  0  0  0  0  0  0
  161.3720  208.5600  150.5980 C   0  0  2  0  0  3  0  0  0  0  0  0
  161.1760  207.7700  151.8810 C   0  0  1  0  0  3  0  0  0  0  0  0
  162.0540  205.8870  153.1440 C   0  0  0  0  0  3  0  0  0  0  0  0
  162.1260  207.6220  149.6620 C   0  0  2  0  0  3  0  0  0  0  0  0
  161.2160  206.1380  154.1630 C   0  0  0  0  0  3  0  0  0  0  0  0
  162.4280  206.9980  152.2120 C   0  0  1  0  0  3  0  0  0  0  0  0
  162.2290  209.7980  150.8060 C   0  0  0  0  0  1  0  0  0  0  0  0
  160.5150  209.7810  153.3220 C   0  0  0  0  0  0  0  0  0  0  0  0
  159.5170  210.6820  152.8330 N   0  0  0  0  0  2  0  0  0  0  0  0
  161.5200  210.2150  153.9480 O   0  0  0  0  0  0  0  0  0  0  0  0
  159.6500  212.1270  152.9520 C   0  0  2  0  0  3  0  0  0  0  0  0
  157.7940  211.8670  154.5820 N   0  0  0  0  0  0  0  0  0  0  0  0
  157.2070  213.6120  156.1000 C   0  0  0  0  0  3  0  0  0  0  0  0
  158.9890  213.8990  154.5400 N   0  0  0  0  0  0  0  0  0  0  0  0
  158.7800  212.6430  154.0540 C   0  0  0  0  0  0  0  0  0  0  0  0
  158.2240  214.3930  155.5480 C   0  0  0  0  0  3  0  0  0  0  0  0
  155.9270  211.4690  156.1470 C   0  0  0  0  0  1  0  0  0  0  0  0
  157.0110  212.3270  155.5940 C   0  0  0  0  0  0  0  0  0  0  0  0
  160.0810  213.6950  149.5090 C   0  0  0  0  0  3  0  0  0  0  0  0
  160.3770  213.0560  150.7150 C   0  0  0  0  0  3  0  0  0  0  0  0
  157.7470  213.8290  150.1510 C   0  0  0  0  0  3  0  0  0  0  0  0
  158.0410  213.1900  151.3580 C   0  0  0  0  0  3  0  0  0  0  0  0
  158.7660  214.0830  149.2280 C   0  0  0  0  0  3  0  0  0  0  0  0
  159.3560  212.8000  151.6450 C   0  0  0  0  0  0  0  0  0  0  0  0
  161.1550  206.9410  148.7110 C   0  0  0  0  0  2  0  0  0  0  0  0
  161.8430  206.6710  147.3840 C   0  0  0  0  0  2  0  0  0  0  0  0
  160.8740  204.3820  148.9710 O   0  0  0  0  0  0  0  0  0  0  0  0
  161.1100  204.2540  147.7380 C   0  0  0  0  0  0  0  0  0  0  0  0
  163.3150  204.9030  145.3130 C   0  0  0  0  0  1  0  0  0  0  0  0
  161.8170  204.8260  145.5740 C   0  0  2  0  0  0  0  0  0  0  0  0
  161.5220  205.3270  146.9120 N   0  0  0  0  0  0  0  0  0  0  0  0
  161.3860  203.3500  145.5770 C   0  0  0  0  0  3  0  0  0  0  0  0
  161.0230  202.9700  147.0180 C   0  0  0  0  0  3  0  0  0  0  0  0
  160.0020  206.2100  144.8270 O   0  0  0  0  0  0  0  0  0  0  0  0
  161.0480  205.5740  144.5180 C   0  0  0  0  0  0  0  0  0  0  0  0
  161.4570  205.4940  143.1800 O   0  0  0  0  0  0  0  0  0  0  0  0
  162.0380  206.5980  142.4930 C   0  0  0  0  0  2  0  0  0  0  0  0
  161.7600  206.5120  140.9920 C   0  0  2  0  0  3  0  0  0  0  0  0
  162.9460  205.9070  140.2610 C   0  0  0  0  0  1  0  0  0  0  0  0
  160.9440  207.7610  139.0970 O   0  0  0  0  0  1  0  0  0  0  0  0
  161.4150  207.8770  140.4050 C   0  0  0  0  0  3  0  0  0  0  0  0
  162.5320  208.7090  140.4260 O   0  0  0  0  0  1  0  0  0  0  0  0
  1  4  1  1  0  0  0
  2 12  1  1  0  0  0
  2  1  1  0  0  0  0
  3 10  1  0  0  0  0
  5 11  1  1  0  0  0
  5  6  1  0  0  0  0
  6 10  1  0  0  0  0
  6  2  1  0  0  0  0
  7  9  2  0  0  0  0
  8  5  1  0  0  0  0
  8  3  1  0  0  0  0
  9  1  1  0  0  0  0
 10  7  1  0  0  0  0
 12 14  2  0  0  0  0
 13 15  1  0  0  0  0
 13 12  1  0  0  0  0
 15 19  1  0  0  0  0
 16 22  1  0  0  0  0
 18 20  2  0  0  0  0
 19 18  1  0  0  0  0
 19 16  2  0  0  0  0
 20 17  1  0  0  0  0
 22 17  2  0  0  0  0
 22 21  1  0  0  0  0
 23 24  1  0  0  0  0
 24 28  2  0  0  0  0
 25 26  2  0  0  0  0
 26 28  1  0  0  0  0
 27 23  2  0  0  0  0
 27 25  1  0  0  0  0
 28 15  1  0  0  0  0
 29  8  1  0  0  0  0
 30 29  1  0  0  0  0
 32 31  2  0  0  0  0
 33 34  1  0  0  0  0
 34 36  1  0  0  0  0
 34 35  1  0  0  0  0
 35 30  1  0  0  0  0
 35 32  1  0  0  0  0
 36 37  2  0  0  0  0
 37 32  1  0  0  0  0
 39 38  2  0  0  0  0
 39 34  1  0  0  0  0
 40 39  1  0  0  0  0
 41 40  1  0  0  0  0
 42 41  1  0  0  0  0
 43 42  1  0  0  0  0
 44 45  1  0  0  0  0
 45 46  1  0  0  0  0
 45 42  1  0  0  0  0
M  END
>  <MODEL>
1

>  <REMARK>
 VINA RESULT:      -5.5      0.000      0.000
  Name = 
  12 active torsions:
  status: ('A' for Active; 'I' for Inactive)
    1  A    between atoms: C_7  and  C_14
    2  A    between atoms: C_9  and  C_12
    3  A    between atoms: C_9  and  C_28
    4  A    between atoms: C_10  and  C_26
    5  A    between atoms: C_10  and  O_38
    6  A    between atoms: C_12  and  N_29
    7  A    between atoms: C_16  and  C_46
    8  A    between atoms: C_22  and  C_26
    9  A    between atoms: N_23  and  C_46
   10  A    between atoms: C_24  and  C_39
   11  A    between atoms: O_38  and  C_39
   12  A    between atoms: C_43  and  C_46
                            x       y       z     vdW  Elec       q    Type
                         _______ _______ _______ _____ _____    ______ ____

>  <TORSDO>
F 12

$$$$
=
 OpenBabel11072413563D

 46 50  0  0  1  0  0  0  0  0999 V2000
  160.8040  207.4960  154.4960 C   0  0  1  0  0  3  0  0  0  0  0  0
  160.3780  208.2630  153.2210 C   0  0  2  0  0  3  0  0  0  0  0  0
  162.6340  206.1460  150.5010 S   0  0  0  0  0  0  0  0  0  0  0  0
  159.6910  207.5120  155.5260 C   0  0  0  0  0  1  0  0  0  0  0  0
  161.0770  208.4280  150.6180 C   0  0  2  0  0  3  0  0  0  0  0  0
  161.0010  207.6690  151.9330 C   0  0  1  0  0  3  0  0  0  0  0  0
  161.9400  205.7690  153.1230 C   0  0  0  0  0  3  0  0  0  0  0  0
  161.6710  207.4410  149.6200 C   0  0  2  0  0  3  0  0  0  0  0  0
  161.2430  206.0740  154.2280 C   0  0  0  0  0  3  0  0  0  0  0  0
  162.2480  206.8450  152.1290 C   0  0  1  0  0  3  0  0  0  0  0  0
  162.0060  209.6290  150.6970 C   0  0  0  0  0  1  0  0  0  0  0  0
  160.6070  209.7320  153.3980 C   0  0  0  0  0  0  0  0  0  0  0  0
  159.5700  210.6660  153.0850 N   0  0  0  0  0  2  0  0  0  0  0  0
  161.7230  210.1330  153.8260 O   0  0  0  0  0  0  0  0  0  0  0  0
  159.7730  212.1060  153.1560 C   0  0  2  0  0  3  0  0  0  0  0  0
  157.9210  212.0230  154.8110 N   0  0  0  0  0  0  0  0  0  0  0  0
  157.5760  213.7760  156.3920 C   0  0  0  0  0  3  0  0  0  0  0  0
  159.3580  213.8910  154.8100 N   0  0  0  0  0  0  0  0  0  0  0  0
  158.9890  212.6880  154.2900 C   0  0  0  0  0  0  0  0  0  0  0  0
  158.6730  214.4430  155.8460 C   0  0  0  0  0  3  0  0  0  0  0  0
  156.0410  211.8070  156.3950 C   0  0  0  0  0  1  0  0  0  0  0  0
  157.2150  212.5420  155.8500 C   0  0  0  0  0  0  0  0  0  0  0  0
  160.0940  213.6160  149.6760 C   0  0  0  0  0  3  0  0  0  0  0  0
  160.4270  212.9940  150.8820 C   0  0  0  0  0  3  0  0  0  0  0  0
  157.7840  213.7710  150.3940 C   0  0  0  0  0  3  0  0  0  0  0  0
  158.1160  213.1500  151.6000 C   0  0  0  0  0  3  0  0  0  0  0  0
  158.7720  214.0050  149.4330 C   0  0  0  0  0  3  0  0  0  0  0  0
  159.4370  212.7590  151.8500 C   0  0  0  0  0  0  0  0  0  0  0  0
  160.5650  206.7910  148.8070 C   0  0  0  0  0  2  0  0  0  0  0  0
  160.9130  205.3360  148.5400 C   0  0  0  0  0  2  0  0  0  0  0  0
  163.1010  206.9570  147.4090 O   0  0  0  0  0  0  0  0  0  0  0  0
  162.5570  206.0470  146.7240 C   0  0  0  0  0  0  0  0  0  0  0  0
  159.6300  204.7350  145.7870 C   0  0  0  0  0  1  0  0  0  0  0  0
  161.0520  204.3370  146.1600 C   0  0  2  0  0  0  0  0  0  0  0  0
  161.5430  205.1990  147.2300 N   0  0  0  0  0  0  0  0  0  0  0  0
  161.9750  204.5960  144.9590 C   0  0  0  0  0  3  0  0  0  0  0  0
  162.8820  205.7810  145.3110 C   0  0  0  0  0  3  0  0  0  0  0  0
  160.7330  201.9950  145.7330 O   0  0  0  0  0  0  0  0  0  0  0  0
  161.1190  202.8820  146.5440 C   0  0  0  0  0  0  0  0  0  0  0  0
  161.5370  202.5270  147.8330 O   0  0  0  0  0  0  0  0  0  0  0  0
  161.3230  201.2260  148.3730 C   0  0  0  0  0  2  0  0  0  0  0  0
  160.6610  201.3100  149.7490 C   0  0  2  0  0  3  0  0  0  0  0  0
  159.1500  201.4000  149.6120 C   0  0  0  0  0  1  0  0  0  0  0  0
  161.8530  202.0570  151.7070 O   0  0  0  0  0  1  0  0  0  0  0  0
  161.1920  202.4890  150.5580 C   0  0  0  0  0  3  0  0  0  0  0  0
  160.1490  203.3420  150.9120 O   0  0  0  0  0  1  0  0  0  0  0  0
  1  4  1  1  0  0  0
  2 12  1  1  0  0  0
  2  1  1  0  0  0  0
  3 10  1  0  0  0  0
  5 11  1  1  0  0  0
  5  6  1  0  0  0  0
  6 10  1  0  0  0  0
  6  2  1  0  0  0  0
  7  9  2  0  0  0  0
  8  3  1  0  0  0  0
  8  5  1  0  0  0  0
  9  1  1  0  0  0  0
 10  7  1  0  0  0  0
 12 14  2  0  0  0  0
 13 15  1  0  0  0  0
 13 12  1  0  0  0  0
 15 19  1  0  0  0  0
 16 22  1  0  0  0  0
 18 20  2  0  0  0  0
 19 18  1  0  0  0  0
 19 16  2  0  0  0  0
 20 17  1  0  0  0  0
 22 17  2  0  0  0  0
 22 21  1  0  0  0  0
 23 24  1  0  0  0  0
 24 28  2  0  0  0  0
 25 26  2  0  0  0  0
 26 28  1  0  0  0  0
 27 23  2  0  0  0  0
 27 25  1  0  0  0  0
 28 15  1  0  0  0  0
 29  8  1  0  0  0  0
 30 29  1  0  0  0  0
 32 35  1  0  0  0  0
 32 31  2  0  0  0  0
 33 34  1  0  0  0  0
 34 39  1  0  0  0  0
 34 35  1  0  0  0  0
 35 30  1  0  0  0  0
 36 37  2  0  0  0  0
 36 34  1  0  0  0  0
 37 32  1  0  0  0  0
 38 39  2  0  0  0  0
 39 40  1  0  0  0  0
 40 41  1  0  0  0  0
 41 42  1  0  0  0  0
 42 45  1  0  0  0  0
 43 42  1  0  0  0  0
 45 46  1  0  0  0  0
 45 44  1  0  0  0  0
M  END
>  <MODEL>
2

>  <REMARK>
 VINA RESULT:      -5.5      2.392      4.374
  Name = 
  12 active torsions:
  status: ('A' for Active; 'I' for Inactive)
    1  A    between atoms: C_7  and  C_14
    2  A    between atoms: C_9  and  C_12
    3  A    between atoms: C_9  and  C_28
    4  A    between atoms: C_10  and  C_26
    5  A    between atoms: C_10  and  O_38
    6  A    between atoms: C_12  and  N_29
    7  A    between atoms: C_16  and  C_46
    8  A    between atoms: C_22  and  C_26
    9  A    between atoms: N_23  and  C_46
   10  A    between atoms: C_24  and  C_39
   11  A    between atoms: O_38  and  C_39
   12  A    between atoms: C_43  and  C_46
                            x       y       z     vdW  Elec       q    Type
                         _______ _______ _______ _____ _____    ______ ____

>  <TORSDO>
F 12

$$$$
=
 OpenBabel11072413563D

 46 50  0  0  1  0  0  0  0  0999 V2000
  161.9340  209.8840  148.7220 C   0  0  1  0  0  3  0  0  0  0  0  0
  161.3720  208.6900  149.5300 C   0  0  2  0  0  3  0  0  0  0  0  0
  162.2740  210.0770  153.3020 S   0  0  0  0  0  0  0  0  0  0  0  0
  161.1710  210.0580  147.4230 C   0  0  0  0  0  1  0  0  0  0  0  0
  161.3700  207.7730  152.0690 C   0  0  2  0  0  3  0  0  0  0  0  0
  161.4750  208.9050  151.0600 C   0  0  1  0  0  3  0  0  0  0  0  0
  162.2370  211.1990  150.8040 C   0  0  0  0  0  3  0  0  0  0  0  0
  161.4340  208.4460  153.4350 C   0  0  2  0  0  3  0  0  0  0  0  0
  161.9480  211.1840  149.4940 C   0  0  0  0  0  3  0  0  0  0  0  0
  162.5070  209.9070  151.5120 C   0  0  1  0  0  3  0  0  0  0  0  0
  162.5350  206.8020  151.9730 C   0  0  0  0  0  1  0  0  0  0  0  0
  161.9690  207.4060  149.0440 C   0  0  0  0  0  0  0  0  0  0  0  0
  161.1400  206.2600  148.8320 N   0  0  0  0  0  2  0  0  0  0  0  0
  163.2090  207.3500  148.8230 O   0  0  0  0  0  0  0  0  0  0  0  0
  161.6860  204.9660  148.4450 C   0  0  2  0  0  3  0  0  0  0  0  0
  160.9820  203.3330  146.7100 N   0  0  0  0  0  0  0  0  0  0  0  0
  160.4870  204.0150  144.4780 C   0  0  0  0  0  3  0  0  0  0  0  0
  161.1700  205.6080  146.1180 N   0  0  0  0  0  0  0  0  0  0  0  0
  161.2710  204.6200  147.0500 C   0  0  0  0  0  0  0  0  0  0  0  0
  160.7850  205.3280  144.8450 C   0  0  0  0  0  3  0  0  0  0  0  0
  160.2960  201.6030  145.0900 C   0  0  0  0  0  1  0  0  0  0  0  0
  160.5910  203.0170  145.4470 C   0  0  0  0  0  0  0  0  0  0  0  0
  160.8400  203.1770  151.6970 C   0  0  0  0  0  3  0  0  0  0  0  0
  161.1970  204.1850  150.8000 C   0  0  0  0  0  3  0  0  0  0  0  0
  160.6700  201.6020  149.8620 C   0  0  0  0  0  3  0  0  0  0  0  0
  161.0270  202.6100  148.9630 C   0  0  0  0  0  3  0  0  0  0  0  0
  160.5770  201.8840  151.2280 C   0  0  0  0  0  3  0  0  0  0  0  0
  161.2920  203.9040  149.4270 C   0  0  0  0  0  0  0  0  0  0  0  0
  160.0320  208.6380  153.9900 C   0  0  0  0  0  2  0  0  0  0  0  0
  160.0810  208.6590  155.5080 C   0  0  0  0  0  2  0  0  0  0  0  0
  162.6210  209.5450  156.7140 O   0  0  0  0  0  0  0  0  0  0  0  0
  161.6500  210.3440  156.6050 C   0  0  0  0  0  0  0  0  0  0  0  0
  158.3620  210.7010  157.0760 C   0  0  0  0  0  1  0  0  0  0  0  0
  159.4810  211.0970  156.1220 C   0  0  2  0  0  0  0  0  0  0  0  0
  160.4270  209.9950  155.9850 N   0  0  0  0  0  0  0  0  0  0  0  0
  160.2780  212.2560  156.7400 C   0  0  0  0  0  3  0  0  0  0  0  0
  161.6570  211.7170  157.1400 C   0  0  0  0  0  3  0  0  0  0  0  0
  157.7720  211.1460  154.4350 O   0  0  0  0  0  0  0  0  0  0  0  0
  158.9240  211.5220  154.7880 C   0  0  0  0  0  0  0  0  0  0  0  0
  159.7240  212.2680  153.9140 O   0  0  0  0  0  0  0  0  0  0  0  0
  159.3470  212.5210  152.5630 C   0  0  0  0  0  2  0  0  0  0  0  0
  158.9700  213.9910  152.3690 C   0  0  2  0  0  3  0  0  0  0  0  0
  157.5550  214.2500  152.8560 C   0  0  0  0  0  1  0  0  0  0  0  0
  158.3740  213.6000  150.0660 O   0  0  0  0  0  1  0  0  0  0  0  0
  159.1180  214.4210  150.9130 C   0  0  0  0  0  3  0  0  0  0  0  0
  160.4580  214.3920  150.5340 O   0  0  0  0  0  1  0  0  0  0  0  0
  1  4  1  6  0  0  0
  1  9  1  0  0  0  0
  1  2  1  0  0  0  0
  2 12  1  6  0  0  0
  2  6  1  0  0  0  0
  3  8  1  0  0  0  0
  5 11  1  6  0  0  0
  5  8  1  0  0  0  0
  6 10  1  0  0  0  0
  6  5  1  0  0  0  0
  7 10  1  0  0  0  0
  8 29  1  0  0  0  0
  9  7  2  0  0  0  0
 10  3  1  0  0  0  0
 13 12  1  0  0  0  0
 14 12  2  0  0  0  0
 15 13  1  0  0  0  0
 15 28  1  0  0  0  0
 16 19  2  0  0  0  0
 17 20  1  0  0  0  0
 17 22  2  0  0  0  0
 18 19  1  0  0  0  0
 19 15  1  0  0  0  0
 20 18  2  0  0  0  0
 21 22  1  0  0  0  0
 22 16  1  0  0  0  0
 24 23  2  0  0  0  0
 25 27  2  0  0  0  0
 26 28  2  0  0  0  0
 26 25  1  0  0  0  0
 27 23  1  0  0  0  0
 28 24  1  0  0  0  0
 29 30  1  0  0  0  0
 30 35  1  0  0  0  0
 32 31  2  0  0  0  0
 32 37  1  0  0  0  0
 34 36  1  0  0  0  0
 34 33  1  0  0  0  0
 35 34  1  0  0  0  0
 35 32  1  0  0  0  0
 36 37  2  0  0  0  0
 38 39  2  0  0  0  0
 39 34  1  0  0  0  0
 40 39  1  0  0  0  0
 41 40  1  0  0  0  0
 42 41  1  0  0  0  0
 42 43  1  0  0  0  0
 44 45  1  0  0  0  0
 45 42  1  0  0  0  0
 46 45  1  0  0  0  0
M  END
>  <MODEL>
3

>  <REMARK>
 VINA RESULT:      -5.1      3.249     10.526
  Name = 
  12 active torsions:
  status: ('A' for Active; 'I' for Inactive)
    1  A    between atoms: C_7  and  C_14
    2  A    between atoms: C_9  and  C_12
    3  A    between atoms: C_9  and  C_28
    4  A    between atoms: C_10  and  C_26
    5  A    between atoms: C_10  and  O_38
    6  A    between atoms: C_12  and  N_29
    7  A    between atoms: C_16  and  C_46
    8  A    between atoms: C_22  and  C_26
    9  A    between atoms: N_23  and  C_46
   10  A    between atoms: C_24  and  C_39
   11  A    between atoms: O_38  and  C_39
   12  A    between atoms: C_43  and  C_46
                            x       y       z     vdW  Elec       q    Type
                         _______ _______ _______ _____ _____    ______ ____

>  <TORSDO>
F 12

$$$$
=
 OpenBabel11072413563D

 46 50  0  0  1  0  0  0  0  0999 V2000
  161.9640  209.8680  148.7320 C   0  0  1  0  0  3  0  0  0  0  0  0
  161.3820  208.6810  149.5340 C   0  0  2  0  0  3  0  0  0  0  0  0
  162.2620  210.0610  153.3150 S   0  0  0  0  0  0  0  0  0  0  0  0
  161.2150  210.0500  147.4250 C   0  0  0  0  0  1  0  0  0  0  0  0
  161.3450  207.7660  152.0740 C   0  0  2  0  0  3  0  0  0  0  0  0
  161.4730  208.8960  151.0660 C   0  0  1  0  0  3  0  0  0  0  0  0
  162.2620  211.1820  150.8160 C   0  0  0  0  0  3  0  0  0  0  0  0
  161.4040  208.4400  153.4400 C   0  0  2  0  0  3  0  0  0  0  0  0
  161.9860  211.1690  149.5030 C   0  0  0  0  0  3  0  0  0  0  0  0
  162.5110  209.8880  151.5260 C   0  0  1  0  0  3  0  0  0  0  0  0
  162.5010  206.7820  151.9900 C   0  0  0  0  0  1  0  0  0  0  0  0
  161.9690  207.3910  149.0550 C   0  0  0  0  0  0  0  0  0  0  0  0
  161.1270  206.2610  148.8130 N   0  0  0  0  0  2  0  0  0  0  0  0
  163.2140  207.3150  148.8670 O   0  0  0  0  0  0  0  0  0  0  0  0
  161.6610  204.9600  148.4320 C   0  0  2  0  0  3  0  0  0  0  0  0
  160.9780  203.3130  146.7020 N   0  0  0  0  0  0  0  0  0  0  0  0
  160.4200  203.9870  144.4820 C   0  0  0  0  0  3  0  0  0  0  0  0
  161.0810  205.5940  146.1170 N   0  0  0  0  0  0  0  0  0  0  0  0
  161.2310  204.6070  147.0430 C   0  0  0  0  0  0  0  0  0  0  0  0
  160.6820  205.3080  144.8500 C   0  0  0  0  0  3  0  0  0  0  0  0
  160.3190  201.5670  145.0870 C   0  0  0  0  0  1  0  0  0  0  0  0
  160.5740  202.9890  145.4450 C   0  0  0  0  0  0  0  0  0  0  0  0
  160.7070  201.6120  149.9710 C   0  0  0  0  0  3  0  0  0  0  0  0
  161.0850  202.5720  149.0310 C   0  0  0  0  0  3  0  0  0  0  0  0
  160.6890  203.3100  151.7010 C   0  0  0  0  0  3  0  0  0  0  0  0
  161.0680  204.2720  150.7620 C   0  0  0  0  0  3  0  0  0  0  0  0
  160.5080  201.9810  151.3060 C   0  0  0  0  0  3  0  0  0  0  0  0
  161.2680  203.9090  149.4240 C   0  0  0  0  0  0  0  0  0  0  0  0
  159.9990  208.6470  153.9810 C   0  0  0  0  0  2  0  0  0  0  0  0
  160.0270  208.6270  155.5000 C   0  0  0  0  0  2  0  0  0  0  0  0
  162.5780  209.2120  156.8570 O   0  0  0  0  0  0  0  0  0  0  0  0
  161.7100  210.1160  156.7060 C   0  0  0  0  0  0  0  0  0  0  0  0
  158.4610  210.8370  156.9990 C   0  0  0  0  0  1  0  0  0  0  0  0
  159.6700  211.1120  156.1150 C   0  0  2  0  0  0  0  0  0  0  0  0
  160.4930  209.9120  156.0140 N   0  0  0  0  0  0  0  0  0  0  0  0
  160.5550  212.1690  156.7930 C   0  0  0  0  0  3  0  0  0  0  0  0
  161.8400  211.4760  157.2610 C   0  0  0  0  0  3  0  0  0  0  0  0
  160.1000  212.0450  153.9440 O   0  0  0  0  0  0  0  0  0  0  0  0
  159.2400  211.6080  154.7590 C   0  0  0  0  0  0  0  0  0  0  0  0
  157.8770  211.6530  154.4410 O   0  0  0  0  0  0  0  0  0  0  0  0
  157.2400  212.8430  153.9840 C   0  0  0  0  0  2  0  0  0  0  0  0
  155.7730  212.8750  154.4150 C   0  0  2  0  0  3  0  0  0  0  0  0
  154.9560  213.7400  153.4690 C   0  0  0  0  0  1  0  0  0  0  0  0
  156.7650  214.0380  156.2800 O   0  0  0  0  0  1  0  0  0  0  0  0
  155.6200  213.3670  155.8500 C   0  0  0  0  0  3  0  0  0  0  0  0
  155.3580  212.2980  156.7030 O   0  0  0  0  0  1  0  0  0  0  0  0
  1  4  1  6  0  0  0
  1  9  1  0  0  0  0
  1  2  1  0  0  0  0
  2 12  1  1  0  0  0
  2  6  1  0  0  0  0
  3  8  1  0  0  0  0
  5 11  1  1  0  0  0
  5  8  1  0  0  0  0
  6 10  1  0  0  0  0
  6  5  1  0  0  0  0
  7 10  1  0  0  0  0
  8 29  1  0  0  0  0
  9  7  2  0  0  0  0
 10  3  1  0  0  0  0
 13 12  1  0  0  0  0
 14 12  2  0  0  0  0
 15 13  1  0  0  0  0
 15 28  1  0  0  0  0
 16 19  2  0  0  0  0
 17 20  1  0  0  0  0
 17 22  2  0  0  0  0
 18 19  1  0  0  0  0
 19 15  1  0  0  0  0
 20 18  2  0  0  0  0
 21 22  1  0  0  0  0
 22 16  1  0  0  0  0
 23 27  1  0  0  0  0
 24 28  1  0  0  0  0
 24 23  2  0  0  0  0
 26 25  1  0  0  0  0
 27 25  2  0  0  0  0
 28 26  2  0  0  0  0
 29 30  1  0  0  0  0
 30 35  1  0  0  0  0
 32 31  2  0  0  0  0
 32 37  1  0  0  0  0
 34 36  1  0  0  0  0
 34 33  1  0  0  0  0
 35 34  1  0  0  0  0
 35 32  1  0  0  0  0
 36 37  2  0  0  0  0
 38 39  2  0  0  0  0
 39 34  1  0  0  0  0
 40 39  1  0  0  0  0
 41 42  1  0  0  0  0
 41 40  1  0  0  0  0
 42 45  1  0  0  0  0
 43 42  1  0  0  0  0
 45 44  1  0  0  0  0
 45 46  1  0  0  0  0
M  END
>  <MODEL>
4

>  <REMARK>
 VINA RESULT:      -5.1      3.403     11.199
  Name = 
  12 active torsions:
  status: ('A' for Active; 'I' for Inactive)
    1  A    between atoms: C_7  and  C_14
    2  A    between atoms: C_9  and  C_12
    3  A    between atoms: C_9  and  C_28
    4  A    between atoms: C_10  and  C_26
    5  A    between atoms: C_10  and  O_38
    6  A    between atoms: C_12  and  N_29
    7  A    between atoms: C_16  and  C_46
    8  A    between atoms: C_22  and  C_26
    9  A    between atoms: N_23  and  C_46
   10  A    between atoms: C_24  and  C_39
   11  A    between atoms: O_38  and  C_39
   12  A    between atoms: C_43  and  C_46
                            x       y       z     vdW  Elec       q    Type
                         _______ _______ _______ _____ _____    ______ ____

>  <TORSDO>
F 12

$$$$
=
 OpenBabel11072413563D

 46 50  0  0  1  0  0  0  0  0999 V2000
  157.4310  212.1090  155.0490 C   0  0  1  0  0  3  0  0  0  0  0  0
  158.2370  211.5540  153.8500 C   0  0  2  0  0  3  0  0  0  0  0  0
  161.2050  209.6560  155.9840 S   0  0  0  0  0  0  0  0  0  0  0  0
  155.9610  212.2300  154.6960 C   0  0  0  0  0  1  0  0  0  0  0  0
  160.6030  210.3440  153.3750 C   0  0  2  0  0  3  0  0  0  0  0  0
  159.4400  210.6840  154.2920 C   0  0  1  0  0  3  0  0  0  0  0  0
  158.7810  210.7550  156.6310 C   0  0  0  0  0  3  0  0  0  0  0  0
  161.4910  209.4070  154.1860 C   0  0  2  0  0  3  0  0  0  0  0  0
  157.5960  211.2990  156.3160 C   0  0  0  0  0  3  0  0  0  0  0  0
  159.9380  210.9210  155.6950 C   0  0  1  0  0  3  0  0  0  0  0  0
  161.4270  211.5670  153.0070 C   0  0  0  0  0  1  0  0  0  0  0  0
  158.5880  212.6600  152.9040 C   0  0  0  0  0  0  0  0  0  0  0  0
  158.5960  212.4260  151.4930 N   0  0  0  0  0  2  0  0  0  0  0  0
  158.8750  213.7970  153.3680 O   0  0  0  0  0  0  0  0  0  0  0  0
  159.0160  213.4440  150.5390 C   0  0  2  0  0  3  0  0  0  0  0  0
  158.0830  213.8420  148.2710 N   0  0  0  0  0  0  0  0  0  0  0  0
  155.7900  214.4160  147.9440 C   0  0  0  0  0  3  0  0  0  0  0  0
  156.6570  214.0500  150.1370 N   0  0  0  0  0  0  0  0  0  0  0  0
  157.8900  213.7920  149.6180 C   0  0  0  0  0  0  0  0  0  0  0  0
  155.6100  214.3590  149.3270 C   0  0  0  0  0  3  0  0  0  0  0  0
  157.2940  214.2100  145.9620 C   0  0  0  0  0  1  0  0  0  0  0  0
  157.0580  214.1440  147.4300 C   0  0  0  0  0  0  0  0  0  0  0  0
  161.9560  211.3570  149.3170 C   0  0  0  0  0  3  0  0  0  0  0  0
  160.8120  211.7420  150.0180 C   0  0  0  0  0  3  0  0  0  0  0  0
  161.9600  213.4840  148.1530 C   0  0  0  0  0  3  0  0  0  0  0  0
  160.8150  213.8700  148.8540 C   0  0  0  0  0  3  0  0  0  0  0  0
  162.5310  212.2290  148.3840 C   0  0  0  0  0  3  0  0  0  0  0  0
  160.2360  213.0020  149.7890 C   0  0  0  0  0  0  0  0  0  0  0  0
  161.2000  207.9620  153.8180 C   0  0  0  0  0  2  0  0  0  0  0  0
  160.8250  207.8730  152.3480 C   0  0  0  0  0  2  0  0  0  0  0  0
  160.4340  205.3180  153.7660 O   0  0  0  0  0  0  0  0  0  0  0  0
  160.9100  205.3370  152.5970 C   0  0  0  0  0  0  0  0  0  0  0  0
  163.1460  206.8090  150.5990 C   0  0  0  0  0  1  0  0  0  0  0  0
  161.7430  206.2180  150.5880 C   0  0  2  0  0  0  0  0  0  0  0  0
  161.0680  206.5240  151.8440 N   0  0  0  0  0  0  0  0  0  0  0  0
  161.8470  204.6860  150.5330 C   0  0  0  0  0  3  0  0  0  0  0  0
  161.3920  204.1350  151.8910 C   0  0  0  0  0  3  0  0  0  0  0  0
  160.8330  207.9540  149.2000 O   0  0  0  0  0  0  0  0  0  0  0  0
  160.9610  206.7140  149.4010 C   0  0  0  0  0  0  0  0  0  0  0  0
  160.3110  205.7920  148.5690 O   0  0  0  0  0  0  0  0  0  0  0  0
  161.0240  204.8570  147.7650 C   0  0  0  0  0  2  0  0  0  0  0  0
  161.3430  205.4500  146.3920 C   0  0  2  0  0  3  0  0  0  0  0  0
  160.2800  206.4560  145.9830 C   0  0  0  0  0  1  0  0  0  0  0  0
  160.3530  204.3040  144.5160 O   0  0  0  0  0  1  0  0  0  0  0  0
  161.4840  204.3650  145.3300 C   0  0  0  0  0  3  0  0  0  0  0  0
  161.6960  203.1250  145.9300 O   0  0  0  0  0  1  0  0  0  0  0  0
  1  4  1  6  0  0  0
  1  9  1  0  0  0  0
  2 12  1  1  0  0  0
  2  6  1  0  0  0  0
  2  1  1  0  0  0  0
  5 11  1  1  0  0  0
  5  8  1  0  0  0  0
  5  6  1  0  0  0  0
  6 10  1  0  0  0  0
  8  3  1  0  0  0  0
  9  7  2  0  0  0  0
 10  3  1  0  0  0  0
 10  7  1  0  0  0  0
 12 14  2  0  0  0  0
 13 12  1  0  0  0  0
 15 13  1  0  0  0  0
 16 19  2  0  0  0  0
 17 20  1  0  0  0  0
 19 18  1  0  0  0  0
 19 15  1  0  0  0  0
 20 18  2  0  0  0  0
 21 22  1  0  0  0  0
 22 17  2  0  0  0  0
 22 16  1  0  0  0  0
 23 24  1  0  0  0  0
 25 27  1  0  0  0  0
 25 26  2  0  0  0  0
 26 28  1  0  0  0  0
 27 23  2  0  0  0  0
 28 24  2  0  0  0  0
 28 15  1  0  0  0  0
 29  8  1  0  0  0  0
 30 29  1  0  0  0  0
 32 31  2  0  0  0  0
 34 33  1  0  0  0  0
 34 35  1  0  0  0  0
 35 30  1  0  0  0  0
 35 32  1  0  0  0  0
 36 34  1  0  0  0  0
 36 37  2  0  0  0  0
 37 32  1  0  0  0  0
 38 39  2  0  0  0  0
 39 34  1  0  0  0  0
 40 39  1  0  0  0  0
 41 40  1  0  0  0  0
 42 41  1  0  0  0  0
 43 42  1  0  0  0  0
 44 45  1  0  0  0  0
 45 46  1  0  0  0  0
 45 42  1  0  0  0  0
M  END
>  <MODEL>
5

>  <REMARK>
 VINA RESULT:      -5.0      2.857      5.472
  Name = 
  12 active torsions:
  status: ('A' for Active; 'I' for Inactive)
    1  A    between atoms: C_7  and  C_14
    2  A    between atoms: C_9  and  C_12
    3  A    between atoms: C_9  and  C_28
    4  A    between atoms: C_10  and  C_26
    5  A    between atoms: C_10  and  O_38
    6  A    between atoms: C_12  and  N_29
    7  A    between atoms: C_16  and  C_46
    8  A    between atoms: C_22  and  C_26
    9  A    between atoms: N_23  and  C_46
   10  A    between atoms: C_24  and  C_39
   11  A    between atoms: O_38  and  C_39
   12  A    between atoms: C_43  and  C_46
                            x       y       z     vdW  Elec       q    Type
                         _______ _______ _______ _____ _____    ______ ____

>  <TORSDO>
F 12

$$$$
=
 OpenBabel11072413563D

 46 50  0  0  1  0  0  0  0  0999 V2000
  161.1510  212.3860  146.8710 C   0  0  1  0  0  3  0  0  0  0  0  0
  160.7440  211.4780  148.0560 C   0  0  2  0  0  3  0  0  0  0  0  0
  160.6450  214.3720  150.9850 S   0  0  0  0  0  0  0  0  0  0  0  0
  160.6040  211.8400  145.5660 C   0  0  0  0  0  1  0  0  0  0  0  0
  160.5130  211.6210  150.7420 C   0  0  2  0  0  3  0  0  0  0  0  0
  160.5310  212.2720  149.3690 C   0  0  1  0  0  3  0  0  0  0  0  0
  160.7850  214.4160  148.2500 C   0  0  0  0  0  3  0  0  0  0  0  0
  160.1870  212.7480  151.7150 C   0  0  2  0  0  3  0  0  0  0  0  0
  160.7370  213.8300  147.0440 C   0  0  0  0  0  3  0  0  0  0  0  0
  161.2150  213.6140  149.4390 C   0  0  1  0  0  3  0  0  0  0  0  0
  161.8670  211.0490  151.1280 C   0  0  0  0  0  1  0  0  0  0  0  0
  161.6920  210.3250  148.1770 C   0  0  0  0  0  0  0  0  0  0  0  0
  161.1960  208.9840  148.2020 N   0  0  0  0  0  2  0  0  0  0  0  0
  162.9300  210.5530  148.2550 O   0  0  0  0  0  0  0  0  0  0  0  0
  162.0690  207.8360  148.4070 C   0  0  2  0  0  3  0  0  0  0  0  0
  162.8760  205.9550  146.9980 N   0  0  0  0  0  0  0  0  0  0  0  0
  161.5140  204.9970  145.2900 C   0  0  0  0  0  3  0  0  0  0  0  0
  160.7120  206.8100  146.6180 N   0  0  0  0  0  0  0  0  0  0  0  0
  161.8860  206.8390  147.3070 C   0  0  0  0  0  0  0  0  0  0  0  0
  160.5100  205.9090  145.6210 C   0  0  0  0  0  3  0  0  0  0  0  0
  163.8080  204.0920  145.6760 C   0  0  0  0  0  1  0  0  0  0  0  0
  162.7080  205.0380  146.0090 C   0  0  0  0  0  0  0  0  0  0  0  0
  160.8430  205.5370  151.1830 C   0  0  0  0  0  3  0  0  0  0  0  0
  161.0490  206.0800  149.9130 C   0  0  0  0  0  3  0  0  0  0  0  0
  162.2200  207.2810  152.1520 C   0  0  0  0  0  3  0  0  0  0  0  0
  162.4280  207.8240  150.8820 C   0  0  0  0  0  3  0  0  0  0  0  0
  161.4280  206.1380  152.3030 C   0  0  0  0  0  3  0  0  0  0  0  0
  161.8440  207.2270  149.7580 C   0  0  0  0  0  0  0  0  0  0  0  0
  158.7040  212.7380  152.0480 C   0  0  0  0  0  2  0  0  0  0  0  0
  158.4380  213.6550  153.2290 C   0  0  0  0  0  2  0  0  0  0  0  0
  156.1630  214.4500  151.5330 O   0  0  0  0  0  0  0  0  0  0  0  0
  155.9760  214.0880  152.7260 C   0  0  0  0  0  0  0  0  0  0  0  0
  157.0390  214.4530  155.8730 C   0  0  0  0  0  1  0  0  0  0  0  0
  156.4930  213.4060  154.9120 C   0  0  2  0  0  0  0  0  0  0  0  0
  157.0190  213.6410  153.5720 N   0  0  0  0  0  0  0  0  0  0  0  0
  154.9700  213.5800  154.7980 C   0  0  0  0  0  3  0  0  0  0  0  0
  154.6630  214.1200  153.3960 C   0  0  0  0  0  3  0  0  0  0  0  0
  155.9580  211.0910  155.2630 O   0  0  0  0  0  0  0  0  0  0  0  0
  156.8070  212.0150  155.3980 C   0  0  0  0  0  0  0  0  0  0  0  0
  158.0130  211.7760  156.0690 O   0  0  0  0  0  0  0  0  0  0  0  0
  158.7550  210.5720  155.8980 C   0  0  0  0  0  2  0  0  0  0  0  0
  159.8770  210.7630  154.8780 C   0  0  2  0  0  3  0  0  0  0  0  0
  160.0020  209.5400  153.9840 C   0  0  0  0  0  1  0  0  0  0  0  0
  161.9380  209.8930  155.7780 O   0  0  0  0  0  1  0  0  0  0  0  0
  161.2100  211.0620  155.5570 C   0  0  0  0  0  3  0  0  0  0  0  0
  160.9990  211.7170  156.7690 O   0  0  0  0  0  1  0  0  0  0  0  0
  1  4  1  6  0  0  0
  1  9  1  0  0  0  0
  1  2  1  0  0  0  0
  2 12  1  1  0  0  0
  2  6  1  0  0  0  0
  3  8  1  0  0  0  0
  5 11  1  1  0  0  0
  5  8  1  0  0  0  0
  6 10  1  0  0  0  0
  6  5  1  0  0  0  0
  7 10  1  0  0  0  0
  8 29  1  0  0  0  0
  9  7  2  0  0  0  0
 10  3  1  0  0  0  0
 12 13  1  0  0  0  0
 12 14  2  0  0  0  0
 13 15  1  0  0  0  0
 15 28  1  0  0  0  0
 16 19  2  0  0  0  0
 17 20  1  0  0  0  0
 17 22  2  0  0  0  0
 18 19  1  0  0  0  0
 19 15  1  0  0  0  0
 20 18  2  0  0  0  0
 21 22  1  0  0  0  0
 22 16  1  0  0  0  0
 23 27  1  0  0  0  0
 24 23  2  0  0  0  0
 25 27  2  0  0  0  0
 26 25  1  0  0  0  0
 28 24  1  0  0  0  0
 28 26  2  0  0  0  0
 29 30  1  0  0  0  0
 30 35  1  0  0  0  0
 31 32  2  0  0  0  0
 32 37  1  0  0  0  0
 32 35  1  0  0  0  0
 34 39  1  0  0  0  0
 34 33  1  0  0  0  0
 35 34  1  0  0  0  0
 36 34  1  0  0  0  0
 37 36  2  0  0  0  0
 38 39  2  0  0  0  0
 39 40  1  0  0  0  0
 41 40  1  0  0  0  0
 42 45  1  0  0  0  0
 42 41  1  0  0  0  0
 43 42  1  0  0  0  0
 45 44  1  0  0  0  0
 45 46  1  0  0  0  0
M  END
>  <MODEL>
6

>  <REMARK>
 VINA RESULT:      -4.6      3.477     11.073
  Name = 
  12 active torsions:
  status: ('A' for Active; 'I' for Inactive)
    1  A    between atoms: C_7  and  C_14
    2  A    between atoms: C_9  and  C_12
    3  A    between atoms: C_9  and  C_28
    4  A    between atoms: C_10  and  C_26
    5  A    between atoms: C_10  and  O_38
    6  A    between atoms: C_12  and  N_29
    7  A    between atoms: C_16  and  C_46
    8  A    between atoms: C_22  and  C_26
    9  A    between atoms: N_23  and  C_46
   10  A    between atoms: C_24  and  C_39
   11  A    between atoms: O_38  and  C_39
   12  A    between atoms: C_43  and  C_46
                            x       y       z     vdW  Elec       q    Type
                         _______ _______ _______ _____ _____    ______ ____

>  <TORSDO>
F 12

$$$$
=
 OpenBabel11072413563D

 46 50  0  0  1  0  0  0  0  0999 V2000
  157.6210  214.0280  146.3750 C   0  0  1  0  0  3  0  0  0  0  0  0
  158.6820  213.0270  145.8620 C   0  0  2  0  0  3  0  0  0  0  0  0
  160.8700  212.6820  149.3350 S   0  0  0  0  0  0  0  0  0  0  0  0
  156.3060  213.8350  145.6450 C   0  0  0  0  0  1  0  0  0  0  0  0
  161.0180  211.9440  146.6750 C   0  0  2  0  0  3  0  0  0  0  0  0
  159.6750  212.5920  146.9680 C   0  0  1  0  0  3  0  0  0  0  0  0
  158.4260  213.7470  148.7050 C   0  0  0  0  0  3  0  0  0  0  0  0
  161.6070  211.6060  148.0400 C   0  0  2  0  0  3  0  0  0  0  0  0
  157.3990  213.9630  147.8690 C   0  0  0  0  0  3  0  0  0  0  0  0
  159.7970  213.5290  148.1430 C   0  0  1  0  0  3  0  0  0  0  0  0
  161.9770  212.8930  145.9750 C   0  0  0  0  0  1  0  0  0  0  0  0
  159.3320  213.5490  144.6190 C   0  0  0  0  0  0  0  0  0  0  0  0
  158.9640  213.0290  143.3390 N   0  0  0  0  0  2  0  0  0  0  0  0
  160.2070  214.4530  144.7160 O   0  0  0  0  0  0  0  0  0  0  0  0
  159.6290  213.4420  142.1110 C   0  0  2  0  0  3  0  0  0  0  0  0
  158.9600  213.8190  139.7480 N   0  0  0  0  0  0  0  0  0  0  0  0
  156.7350  214.4530  139.1630 C   0  0  0  0  0  3  0  0  0  0  0  0
  157.3470  214.1090  141.4430 N   0  0  0  0  0  0  0  0  0  0  0  0
  158.6200  213.8040  141.0670 C   0  0  0  0  0  0  0  0  0  0  0  0
  156.4050  214.4310  140.5180 C   0  0  0  0  0  3  0  0  0  0  0  0
  158.4370  214.1590  137.3600 C   0  0  0  0  0  1  0  0  0  0  0  0
  158.0420  214.1330  138.7950 C   0  0  0  0  0  0  0  0  0  0  0  0
  162.8280  211.5510  141.2830 C   0  0  0  0  0  3  0  0  0  0  0  0
  161.9650  212.5460  141.7470 C   0  0  0  0  0  3  0  0  0  0  0  0
  160.9220  210.2230  140.5870 C   0  0  0  0  0  3  0  0  0  0  0  0
  160.0580  211.2180  141.0510 C   0  0  0  0  0  3  0  0  0  0  0  0
  162.3060  210.3890  140.7020 C   0  0  0  0  0  3  0  0  0  0  0  0
  160.5750  212.3830  141.6320 C   0  0  0  0  0  0  0  0  0  0  0  0
  161.3430  210.1480  148.3760 C   0  0  0  0  0  2  0  0  0  0  0  0
  162.3690  209.6620  149.3860 C   0  0  0  0  0  2  0  0  0  0  0  0
  161.2360  210.8030  151.8570 O   0  0  0  0  0  0  0  0  0  0  0  0
  161.2310  209.5560  151.6660 C   0  0  0  0  0  0  0  0  0  0  0  0
  163.0850  206.9500  150.6960 C   0  0  0  0  0  1  0  0  0  0  0  0
  161.6670  207.5010  150.6190 C   0  0  2  0  0  0  0  0  0  0  0  0
  161.7070  208.9530  150.4780 N   0  0  0  0  0  0  0  0  0  0  0  0
  160.9530  207.2320  151.9520 C   0  0  0  0  0  3  0  0  0  0  0  0
  160.7670  208.5770  152.6660 C   0  0  0  0  0  3  0  0  0  0  0  0
  160.0620  205.9440  149.7430 O   0  0  0  0  0  0  0  0  0  0  0  0
  160.9010  206.8540  149.4950 C   0  0  0  0  0  0  0  0  0  0  0  0
  161.1830  207.2140  148.1710 O   0  0  0  0  0  0  0  0  0  0  0  0
  160.8080  206.4000  147.0630 C   0  0  0  0  0  2  0  0  0  0  0  0
  161.6560  205.1290  147.0080 C   0  0  2  0  0  3  0  0  0  0  0  0
  163.0870  205.4570  146.6180 C   0  0  0  0  0  1  0  0  0  0  0  0
  161.5640  202.8240  146.3080 O   0  0  0  0  0  1  0  0  0  0  0  0
  161.0660  204.1010  146.0490 C   0  0  0  0  0  3  0  0  0  0  0  0
  161.3460  204.4530  144.7300 O   0  0  0  0  0  1  0  0  0  0  0  0
  1  4  1  6  0  0  0
  1  9  1  0  0  0  0
  2 12  1  6  0  0  0
  2  1  1  0  0  0  0
  2  6  1  0  0  0  0
  5 11  1  1  0  0  0
  5  6  1  0  0  0  0
  5  8  1  0  0  0  0
  6 10  1  0  0  0  0
  8 29  1  0  0  0  0
  8  3  1  0  0  0  0
  9  7  2  0  0  0  0
 10  7  1  0  0  0  0
 10  3  1  0  0  0  0
 12 14  2  0  0  0  0
 13 12  1  0  0  0  0
 15 13  1  0  0  0  0
 16 19  2  0  0  0  0
 17 20  1  0  0  0  0
 19 18  1  0  0  0  0
 19 15  1  0  0  0  0
 20 18  2  0  0  0  0
 21 22  1  0  0  0  0
 22 17  2  0  0  0  0
 22 16  1  0  0  0  0
 23 24  1  0  0  0  0
 25 27  1  0  0  0  0
 25 26  2  0  0  0  0
 26 28  1  0  0  0  0
 27 23  2  0  0  0  0
 28 24  2  0  0  0  0
 28 15  1  0  0  0  0
 29 30  1  0  0  0  0
 30 35  1  0  0  0  0
 32 31  2  0  0  0  0
 32 37  1  0  0  0  0
 34 33  1  0  0  0  0
 34 36  1  0  0  0  0
 35 34  1  0  0  0  0
 35 32  1  0  0  0  0
 36 37  2  0  0  0  0
 39 38  2  0  0  0  0
 39 34  1  0  0  0  0
 40 39  1  0  0  0  0
 41 40  1  0  0  0  0
 42 41  1  0  0  0  0
 43 42  1  0  0  0  0
 45 44  1  0  0  0  0
 45 42  1  0  0  0  0
 46 45  1  0  0  0  0
M  END
>  <MODEL>
7

>  <REMARK>
 VINA RESULT:      -4.5      4.735      9.555
  Name = 
  12 active torsions:
  status: ('A' for Active; 'I' for Inactive)
    1  A    between atoms: C_7  and  C_14
    2  A    between atoms: C_9  and  C_12
    3  A    between atoms: C_9  and  C_28
    4  A    between atoms: C_10  and  C_26
    5  A    between atoms: C_10  and  O_38
    6  A    between atoms: C_12  and  N_29
    7  A    between atoms: C_16  and  C_46
    8  A    between atoms: C_22  and  C_26
    9  A    between atoms: N_23  and  C_46
   10  A    between atoms: C_24  and  C_39
   11  A    between atoms: O_38  and  C_39
   12  A    between atoms: C_43  and  C_46
                            x       y       z     vdW  Elec       q    Type
                         _______ _______ _______ _____ _____    ______ ____

>  <TORSDO>
F 12

$$$$
=
 OpenBabel11072413563D

 46 50  0  0  1  0  0  0  0  0999 V2000
  157.5310  213.9160  145.6900 C   0  0  1  0  0  3  0  0  0  0  0  0
  158.6830  212.9560  145.3130 C   0  0  2  0  0  3  0  0  0  0  0  0
  160.6580  212.9830  148.9280 S   0  0  0  0  0  0  0  0  0  0  0  0
  156.2800  213.5890  144.8970 C   0  0  0  0  0  1  0  0  0  0  0  0
  161.0240  212.0850  146.3380 C   0  0  2  0  0  3  0  0  0  0  0  0
  159.6270  212.6600  146.5050 C   0  0  1  0  0  3  0  0  0  0  0  0
  158.1980  213.8400  148.0790 C   0  0  0  0  0  3  0  0  0  0  0  0
  161.5430  211.8760  147.7560 C   0  0  2  0  0  3  0  0  0  0  0  0
  157.2160  213.9330  147.1690 C   0  0  0  0  0  3  0  0  0  0  0  0
  159.6140  213.6770  147.6170 C   0  0  1  0  0  3  0  0  0  0  0  0
  161.9660  213.0490  145.6350 C   0  0  0  0  0  1  0  0  0  0  0  0
  159.3790  213.4390  144.0790 C   0  0  0  0  0  0  0  0  0  0  0  0
  159.0990  212.8390  142.8110 N   0  0  0  0  0  2  0  0  0  0  0  0
  160.2130  214.3800  144.1720 O   0  0  0  0  0  0  0  0  0  0  0  0
  159.8130  213.2140  141.5980 C   0  0  2  0  0  3  0  0  0  0  0  0
  157.5290  213.8100  140.8210 N   0  0  0  0  0  0  0  0  0  0  0  0
  157.1020  214.4400  138.5600 C   0  0  0  0  0  3  0  0  0  0  0  0
  159.3050  213.8630  139.2710 N   0  0  0  0  0  0  0  0  0  0  0  0
  158.8500  213.6370  140.5350 C   0  0  0  0  0  0  0  0  0  0  0  0
  158.4580  214.2590  138.2850 C   0  0  0  0  0  3  0  0  0  0  0  0
  155.2120  214.3770  140.1900 C   0  0  0  0  0  1  0  0  0  0  0  0
  156.6540  214.2090  139.8610 C   0  0  0  0  0  0  0  0  0  0  0  0
  162.8540  210.9760  141.1100 C   0  0  0  0  0  3  0  0  0  0  0  0
  162.0390  212.0150  141.5630 C   0  0  0  0  0  3  0  0  0  0  0  0
  161.0100  210.1000  139.8010 C   0  0  0  0  0  3  0  0  0  0  0  0
  160.1940  211.1390  140.2540 C   0  0  0  0  0  3  0  0  0  0  0  0
  162.3390  210.0180  140.2280 C   0  0  0  0  0  3  0  0  0  0  0  0
  160.7030  212.1000  141.1360 C   0  0  0  0  0  0  0  0  0  0  0  0
  161.3480  210.4290  148.1760 C   0  0  0  0  0  2  0  0  0  0  0  0
  162.3640  210.0640  149.2450 C   0  0  0  0  0  2  0  0  0  0  0  0
  161.0370  210.7670  151.7820 O   0  0  0  0  0  0  0  0  0  0  0  0
  161.1910  209.5590  151.4520 C   0  0  0  0  0  0  0  0  0  0  0  0
  163.3740  207.3230  150.2700 C   0  0  0  0  0  1  0  0  0  0  0  0
  161.9020  207.7070  150.1980 C   0  0  2  0  0  0  0  0  0  0  0  0
  161.7680  209.1590  150.2230 N   0  0  0  0  0  0  0  0  0  0  0  0
  161.1920  207.2010  151.4640 C   0  0  0  0  0  3  0  0  0  0  0  0
  160.8250  208.4220  152.3160 C   0  0  0  0  0  3  0  0  0  0  0  0
  161.2580  207.7360  147.8850 O   0  0  0  0  0  0  0  0  0  0  0  0
  161.2500  207.1080  148.9800 C   0  0  0  0  0  0  0  0  0  0  0  0
  160.5680  205.8900  149.0920 O   0  0  0  0  0  0  0  0  0  0  0  0
  160.8280  204.7880  148.2270 C   0  0  0  0  0  2  0  0  0  0  0  0
  161.3840  203.5990  149.0120 C   0  0  2  0  0  3  0  0  0  0  0  0
  161.1050  202.2970  148.2810 C   0  0  0  0  0  1  0  0  0  0  0  0
  161.7540  203.9840  151.3630 O   0  0  0  0  0  1  0  0  0  0  0  0
  160.8180  203.5460  150.4270 C   0  0  0  0  0  3  0  0  0  0  0  0
  160.4170  202.2480  150.7390 O   0  0  0  0  0  1  0  0  0  0  0  0
  1  4  1  6  0  0  0
  1  9  1  0  0  0  0
  2 12  1  6  0  0  0
  2  1  1  0  0  0  0
  2  6  1  0  0  0  0
  5 11  1  6  0  0  0
  5  6  1  0  0  0  0
  5  8  1  0  0  0  0
  6 10  1  0  0  0  0
  8 29  1  0  0  0  0
  8  3  1  0  0  0  0
  9  7  2  0  0  0  0
 10  7  1  0  0  0  0
 10  3  1  0  0  0  0
 12 14  2  0  0  0  0
 13 12  1  0  0  0  0
 15 13  1  0  0  0  0
 17 22  2  0  0  0  0
 18 19  1  0  0  0  0
 19 16  2  0  0  0  0
 19 15  1  0  0  0  0
 20 17  1  0  0  0  0
 20 18  2  0  0  0  0
 22 21  1  0  0  0  0
 22 16  1  0  0  0  0
 23 24  1  0  0  0  0
 25 27  1  0  0  0  0
 25 26  2  0  0  0  0
 26 28  1  0  0  0  0
 27 23  2  0  0  0  0
 28 24  2  0  0  0  0
 28 15  1  0  0  0  0
 29 30  1  0  0  0  0
 30 35  1  0  0  0  0
 32 31  2  0  0  0  0
 32 37  1  0  0  0  0
 34 35  1  0  0  0  0
 34 33  1  0  0  0  0
 34 36  1  0  0  0  0
 35 32  1  0  0  0  0
 36 37  2  0  0  0  0
 38 39  2  0  0  0  0
 39 40  1  0  0  0  0
 39 34  1  0  0  0  0
 41 42  1  0  0  0  0
 41 40  1  0  0  0  0
 42 45  1  0  0  0  0
 43 42  1  0  0  0  0
 45 46  1  0  0  0  0
 45 44  1  0  0  0  0
M  END
>  <MODEL>
8

>  <REMARK>
 VINA RESULT:      -4.3      4.837     10.131
  Name = 
  12 active torsions:
  status: ('A' for Active; 'I' for Inactive)
    1  A    between atoms: C_7  and  C_14
    2  A    between atoms: C_9  and  C_12
    3  A    between atoms: C_9  and  C_28
    4  A    between atoms: C_10  and  C_26
    5  A    between atoms: C_10  and  O_38
    6  A    between atoms: C_12  and  N_29
    7  A    between atoms: C_16  and  C_46
    8  A    between atoms: C_22  and  C_26
    9  A    between atoms: N_23  and  C_46
   10  A    between atoms: C_24  and  C_39
   11  A    between atoms: O_38  and  C_39
   12  A    between atoms: C_43  and  C_46
                            x       y       z     vdW  Elec       q    Type
                         _______ _______ _______ _____ _____    ______ ____

>  <TORSDO>
F 12

$$$$
=
 OpenBabel11072413563D

 46 50  0  0  1  0  0  0  0  0999 V2000
  160.8200  207.8510  154.8110 C   0  0  1  0  0  3  0  0  0  0  0  0
  160.4350  208.3820  153.4100 C   0  0  2  0  0  3  0  0  0  0  0  0
  162.6890  205.7620  151.1670 S   0  0  0  0  0  0  0  0  0  0  0  0
  159.6900  208.0760  155.7970 C   0  0  0  0  0  1  0  0  0  0  0  0
  161.1820  208.0570  150.8360 C   0  0  2  0  0  3  0  0  0  0  0  0
  161.0660  207.5520  152.2640 C   0  0  1  0  0  3  0  0  0  0  0  0
  161.9400  205.8820  153.8000 C   0  0  0  0  0  3  0  0  0  0  0  0
  161.7710  206.8940  150.0460 C   0  0  2  0  0  3  0  0  0  0  0  0
  161.2310  206.3960  154.8160 C   0  0  0  0  0  3  0  0  0  0  0  0
  162.2910  206.7530  152.6340 C   0  0  1  0  0  3  0  0  0  0  0  0
  162.1370  209.2340  150.7140 C   0  0  0  0  0  1  0  0  0  0  0  0
  160.6930  209.8530  153.3220 C   0  0  0  0  0  0  0  0  0  0  0  0
  159.6270  210.7560  153.0160 N   0  0  0  0  0  2  0  0  0  0  0  0
  161.8610  210.2850  153.5210 O   0  0  0  0  0  0  0  0  0  0  0  0
  159.8450  212.1840  152.8330 C   0  0  2  0  0  3  0  0  0  0  0  0
  157.6800  213.1610  153.5620 N   0  0  0  0  0  0  0  0  0  0  0  0
  157.4860  214.3980  155.5930 C   0  0  0  0  0  3  0  0  0  0  0  0
  159.5830  213.4820  154.9170 N   0  0  0  0  0  0  0  0  0  0  0  0
  159.0090  212.9680  153.7940 C   0  0  0  0  0  0  0  0  0  0  0  0
  158.8480  214.1890  155.8150 C   0  0  0  0  0  3  0  0  0  0  0  0
  155.4670  214.0740  154.1610 C   0  0  0  0  0  1  0  0  0  0  0  0
  156.9130  213.8600  154.4400 C   0  0  0  0  0  0  0  0  0  0  0  0
  158.0870  213.3010  149.6460 C   0  0  0  0  0  3  0  0  0  0  0  0
  158.3030  212.9420  150.9780 C   0  0  0  0  0  3  0  0  0  0  0  0
  160.4390  212.9530  149.1700 C   0  0  0  0  0  3  0  0  0  0  0  0
  160.6560  212.5940  150.5020 C   0  0  0  0  0  3  0  0  0  0  0  0
  159.1560  213.3060  148.7420 C   0  0  0  0  0  3  0  0  0  0  0  0
  159.5910  212.5870  151.4120 C   0  0  0  0  0  0  0  0  0  0  0  0
  160.6650  206.1280  149.3410 C   0  0  0  0  0  2  0  0  0  0  0  0
  161.2720  205.0930  148.4090 C   0  0  0  0  0  2  0  0  0  0  0  0
  159.9840  204.2750  150.9320 O   0  0  0  0  0  0  0  0  0  0  0  0
  160.3000  203.4140  150.0640 C   0  0  0  0  0  0  0  0  0  0  0  0
  162.7300  202.3910  148.0120 C   0  0  0  0  0  1  0  0  0  0  0  0
  161.2150  202.5280  148.0940 C   0  0  2  0  0  0  0  0  0  0  0  0
  160.8670  203.7490  148.8120 N   0  0  0  0  0  0  0  0  0  0  0  0
  160.6540  201.3730  148.9380 C   0  0  0  0  0  3  0  0  0  0  0  0
  160.1520  201.9610  150.2630 C   0  0  0  0  0  3  0  0  0  0  0  0
  159.4860  201.9270  146.5390 O   0  0  0  0  0  0  0  0  0  0  0  0
  160.5990  202.4960  146.7200 C   0  0  0  0  0  0  0  0  0  0  0  0
  161.3050  203.0290  145.6350 O   0  0  0  0  0  0  0  0  0  0  0  0
  160.6810  203.8380  144.6410 C   0  0  0  0  0  2  0  0  0  0  0  0
  161.3640  205.2020  144.5400 C   0  0  2  0  0  3  0  0  0  0  0  0
  162.6910  205.1930  145.2820 C   0  0  0  0  0  1  0  0  0  0  0  0
  161.1080  207.0480  146.0690 O   0  0  0  0  0  1  0  0  0  0  0  0
  160.4700  206.3190  145.0650 C   0  0  0  0  0  3  0  0  0  0  0  0
  159.2770  205.7940  145.5560 O   0  0  0  0  0  1  0  0  0  0  0  0
  1  9  1  0  0  0  0
  1  4  1  1  0  0  0
  2 12  1  1  0  0  0
  2  1  1  0  0  0  0
  3 10  1  0  0  0  0
  5 11  1  1  0  0  0
  5  6  1  0  0  0  0
  6 10  1  0  0  0  0
  6  2  1  0  0  0  0
  7  9  2  0  0  0  0
  8  5  1  0  0  0  0
  8  3  1  0  0  0  0
 10  7  1  0  0  0  0
 12 14  2  0  0  0  0
 13 12  1  0  0  0  0
 15 13  1  0  0  0  0
 15 19  1  0  0  0  0
 16 19  2  0  0  0  0
 16 22  1  0  0  0  0
 17 20  1  0  0  0  0
 18 20  2  0  0  0  0
 19 18  1  0  0  0  0
 21 22  1  0  0  0  0
 22 17  2  0  0  0  0
 23 24  1  0  0  0  0
 24 28  2  0  0  0  0
 25 26  2  0  0  0  0
 26 28  1  0  0  0  0
 27 25  1  0  0  0  0
 27 23  2  0  0  0  0
 28 15  1  0  0  0  0
 29  8  1  0  0  0  0
 30 35  1  0  0  0  0
 30 29  1  0  0  0  0
 32 37  1  0  0  0  0
 32 31  2  0  0  0  0
 33 34  1  0  0  0  0
 34 35  1  0  0  0  0
 34 36  1  0  0  0  0
 35 32  1  0  0  0  0
 36 37  2  0  0  0  0
 38 39  2  0  0  0  0
 39 34  1  0  0  0  0
 40 39  1  0  0  0  0
 41 40  1  0  0  0  0
 42 41  1  0  0  0  0
 42 45  1  0  0  0  0
 42 43  1  0  0  0  0
 45 46  1  0  0  0  0
 45 44  1  0  0  0  0
M  END
>  <MODEL>
9

>  <REMARK>
 VINA RESULT:      -3.9      2.144      2.761
  Name = 
  12 active torsions:
  status: ('A' for Active; 'I' for Inactive)
    1  A    between atoms: C_7  and  C_14
    2  A    between atoms: C_9  and  C_12
    3  A    between atoms: C_9  and  C_28
    4  A    between atoms: C_10  and  C_26
    5  A    between atoms: C_10  and  O_38
    6  A    between atoms: C_12  and  N_29
    7  A    between atoms: C_16  and  C_46
    8  A    between atoms: C_22  and  C_26
    9  A    between atoms: N_23  and  C_46
   10  A    between atoms: C_24  and  C_39
   11  A    between atoms: O_38  and  C_39
   12  A    between atoms: C_43  and  C_46
                            x       y       z     vdW  Elec       q    Type
                         _______ _______ _______ _____ _____    ______ ____

>  <TORSDO>
F 12

$$$$
