=
 OpenBabel11072415003D

 39 44  0  0  1  0  0  0  0  0999 V2000
  161.2450  209.9480  152.7240 O   0  0  0  0  0  0  0  0  0  0  0  0
  162.6870  207.8160  151.1080 C   0  0  0  0  0  1  0  0  0  0  0  0
  161.2460  205.7560  151.7010 C   0  0  1  0  0  0  0  0  0  0  0  0
  160.2660  206.6730  150.9610 C   0  0  1  0  0  3  0  0  0  0  0  0
  160.9940  209.0230  153.5420 C   0  0  0  0  0  0  0  0  0  0  0  0
  160.8310  206.5170  153.9890 C   0  0  0  0  0  3  0  0  0  0  0  0
  161.4260  207.2570  151.7650 C   0  0  2  0  0  0  0  0  0  0  0  0
  160.5430  206.7170  149.5920 O   0  0  0  0  0  1  0  0  0  0  0  0
  161.1270  207.6500  153.1310 N   0  0  0  0  0  0  0  0  0  0  0  0
  160.8460  205.2850  153.0940 C   0  0  0  0  0  3  0  0  0  0  0  0
  158.7250  212.5340  156.3840 C   0  0  1  0  0  3  0  0  0  0  0  0
  158.3380  210.5530  154.3540 C   0  0  0  0  0  2  0  0  0  0  0  0
  159.7390  210.7310  154.9260 C   0  0  2  0  0  3  0  0  0  0  0  0
  161.0140  211.5530  156.9910 C   0  0  0  0  0  2  0  0  0  0  0  0
  157.4520  212.2670  155.8230 O   0  0  0  0  0  0  0  0  0  0  0  0
  162.1470  210.7490  156.3420 C   0  0  0  0  0  2  0  0  0  0  0  0
  161.6750  209.3550  155.9320 C   0  0  0  0  0  2  0  0  0  0  0  0
  160.5220  209.4080  154.9150 C   0  0  2  0  0  3  0  0  0  0  0  0
  157.5950  211.8820  154.4690 C   0  0  0  0  0  2  0  0  0  0  0  0
  159.6420  211.2980  156.3450 C   0  0  1  0  0  3  0  0  0  0  0  0
  158.9940  214.2490  154.5820 O   0  0  0  0  0  0  0  0  0  0  0  0
  160.1740  214.4530  156.5350 O   0  0  0  0  0  1  0  0  0  0  0  0
  159.3370  213.8050  155.8520 C   0  0  0  0  0  0  0  0  0  0  0  0
  162.2750  204.9540  150.8930 C   0  0  0  0  0  2  0  0  0  0  0  0
  160.6030  202.6500  144.9550 C   0  0  0  0  0  3  0  0  0  0  0  0
  161.0770  203.6450  145.8290 C   0  0  0  0  0  0  0  0  0  0  0  0
  161.5750  204.0740  148.2060 N   0  0  0  0  0  0  0  0  0  0  0  0
  160.2470  201.3790  145.4630 C   0  0  0  0  0  3  0  0  0  0  0  0
  161.5330  202.7090  151.7130 C   0  0  0  0  0  1  0  0  0  0  0  0
  161.7800  203.6150  150.6050 N   0  0  0  0  0  0  0  0  0  0  0  0
  161.4510  203.2270  149.2640 C   0  0  0  0  0  0  0  0  0  0  0  0
  160.3610  201.1070  146.7990 N   0  0  0  0  0  0  0  0  0  0  0  0
  161.1700  203.3100  147.1790 C   0  0  0  0  0  0  0  0  0  0  0  0
  160.8240  202.0790  147.6260 C   0  0  0  0  0  0  0  0  0  0  0  0
  160.9870  201.9850  148.9520 N   0  0  0  0  0  2  0  0  0  0  0  0
  161.5020  205.2370  143.7320 O   0  0  0  0  0  0  0  0  0  0  0  0
  162.9240  205.5690  145.6980 O   0  0  0  0  0  0  0  0  0  0  0  0
  160.4330  206.4160  145.8440 N   0  0  0  0  0  1  0  0  0  0  0  0
  161.5340  205.2330  145.2350 S   0  0  0  0  0  0  0  0  0  0  0  0
  1  5  2  0  0  0  0
  3 24  1  6  0  0  0
  3  7  1  0  0  0  0
  3 10  1  0  0  0  0
  4  8  1  6  0  0  0
  4  3  1  0  0  0  0
  4  7  1  0  0  0  0
  7  2  1  6  0  0  0
  7  9  1  0  0  0  0
  9  5  1  0  0  0  0
  9  6  1  0  0  0  0
 10  6  2  0  0  0  0
 11 23  1  6  0  0  0
 12 19  1  0  0  0  0
 13 12  1  1  0  0  0
 13 20  1  0  0  0  0
 15 11  1  0  0  0  0
 16 14  1  0  0  0  0
 17 16  1  0  0  0  0
 18  5  1  6  0  0  0
 18 13  1  0  0  0  0
 18 17  1  0  0  0  0
 19 15  1  0  0  0  0
 20 11  1  0  0  0  0
 20 14  1  6  0  0  0
 21 23  2  0  0  0  0
 23 22  1  0  0  0  0
 25 28  2  0  0  0  0
 25 26  1  0  0  0  0
 26 33  2  0  0  0  0
 27 31  2  0  0  0  0
 28 32  1  0  0  0  0
 30 24  1  0  0  0  0
 30 29  1  0  0  0  0
 31 30  1  0  0  0  0
 32 34  2  0  0  0  0
 33 34  1  0  0  0  0
 33 27  1  0  0  0  0
 34 35  1  0  0  0  0
 35 31  1  0  0  0  0
 36 39  2  0  0  0  0
 39 37  2  0  0  0  0
 39 26  1  0  0  0  0
 39 38  1  0  0  0  0
M  END
>  <MODEL>
1

>  <REMARK>
 VINA RESULT:      -7.5      0.000      0.000
  Name = 
  5 active torsions:
  status: ('A' for Active; 'I' for Inactive)
    1  A    between atoms: C_4  and  C_18
    2  A    between atoms: C_7  and  S_34
    3  A    between atoms: C_12  and  C_27
    4  A    between atoms: N_13  and  C_18
    5  A    between atoms: C_15  and  C_31
                            x       y       z     vdW  Elec       q    Type
                         _______ _______ _______ _____ _____    ______ ____

>  <TORSDO>
F 5

$$$$
=
 OpenBabel11072415003D

 39 44  0  0  1  0  0  0  0  0999 V2000
  160.9350  211.7740  153.9240 O   0  0  0  0  0  0  0  0  0  0  0  0
  162.5490  209.5640  152.6010 C   0  0  0  0  0  1  0  0  0  0  0  0
  160.9350  207.5740  152.9320 C   0  0  1  0  0  0  0  0  0  0  0  0
  160.1450  208.5240  152.0250 C   0  0  1  0  0  3  0  0  0  0  0  0
  160.5020  210.8700  154.6870 C   0  0  0  0  0  0  0  0  0  0  0  0
  160.1500  208.3790  155.1060 C   0  0  0  0  0  3  0  0  0  0  0  0
  161.1670  209.0670  153.0220 C   0  0  2  0  0  0  0  0  0  0  0  0
  160.6660  208.5400  150.7280 O   0  0  0  0  0  1  0  0  0  0  0  0
  160.6450  209.4880  154.3110 N   0  0  0  0  0  0  0  0  0  0  0  0
  160.2710  207.1370  154.2330 C   0  0  0  0  0  3  0  0  0  0  0  0
  156.3250  212.8420  156.7410 C   0  0  1  0  0  3  0  0  0  0  0  0
  157.4440  210.5410  155.4570 C   0  0  0  0  0  2  0  0  0  0  0  0
  158.3550  211.7340  155.7130 C   0  0  2  0  0  3  0  0  0  0  0  0
  158.6600  213.7880  157.2140 C   0  0  0  0  0  2  0  0  0  0  0  0
  155.5670  211.6700  156.5000 O   0  0  0  0  0  0  0  0  0  0  0  0
  160.0820  213.7240  156.6440 C   0  0  0  0  0  2  0  0  0  0  0  0
  160.6530  212.3090  156.7350 C   0  0  0  0  0  2  0  0  0  0  0  0
  159.8080  211.2900  155.9510 C   0  0  2  0  0  3  0  0  0  0  0  0
  156.0110  211.0480  155.3090 C   0  0  0  0  0  2  0  0  0  0  0  0
  157.8240  212.5340  156.9060 C   0  0  1  0  0  3  0  0  0  0  0  0
  156.9930  214.4490  154.9440 O   0  0  0  0  0  0  0  0  0  0  0  0
  154.8420  214.4480  155.7290 O   0  0  0  0  0  1  0  0  0  0  0  0
  155.9990  213.9510  155.7740 C   0  0  0  0  0  0  0  0  0  0  0  0
  162.0560  206.7210  152.3250 C   0  0  0  0  0  2  0  0  0  0  0  0
  161.0970  203.1640  146.8660 C   0  0  0  0  0  3  0  0  0  0  0  0
  161.4260  204.3460  147.5550 C   0  0  0  0  0  0  0  0  0  0  0  0
  161.6690  205.2740  149.8260 N   0  0  0  0  0  0  0  0  0  0  0  0
  160.7710  201.9960  147.5920 C   0  0  0  0  0  3  0  0  0  0  0  0
  161.3750  204.6320  153.5230 C   0  0  0  0  0  1  0  0  0  0  0  0
  161.6720  205.3170  152.2770 N   0  0  0  0  0  0  0  0  0  0  0  0
  161.4960  204.6460  151.0220 C   0  0  0  0  0  0  0  0  0  0  0  0
  160.7730  202.0040  148.9600 N   0  0  0  0  0  0  0  0  0  0  0  0
  161.4100  204.2940  148.9480 C   0  0  0  0  0  0  0  0  0  0  0  0
  161.0960  203.1520  149.6070 C   0  0  0  0  0  0  0  0  0  0  0  0
  161.1380  203.3360  150.9320 N   0  0  0  0  0  2  0  0  0  0  0  0
  160.6590  206.2790  145.8840 O   0  0  0  0  0  0  0  0  0  0  0  0
  162.9940  205.5510  145.7600 O   0  0  0  0  0  0  0  0  0  0  0  0
  162.2940  207.0430  147.8160 N   0  0  0  0  0  1  0  0  0  0  0  0
  161.8420  205.8170  146.6880 S   0  0  0  0  0  0  0  0  0  0  0  0
  1  5  2  0  0  0  0
  3 24  1  6  0  0  0
  3  7  1  0  0  0  0
  3 10  1  0  0  0  0
  4  8  1  6  0  0  0
  4  3  1  0  0  0  0
  4  7  1  0  0  0  0
  7  2  1  6  0  0  0
  7  9  1  0  0  0  0
  9  5  1  0  0  0  0
  9  6  1  0  0  0  0
 10  6  2  0  0  0  0
 11 23  1  6  0  0  0
 11 20  1  0  0  0  0
 13 12  1  1  0  0  0
 13 18  1  0  0  0  0
 13 20  1  0  0  0  0
 15 11  1  0  0  0  0
 16 17  1  0  0  0  0
 16 14  1  0  0  0  0
 18  5  1  6  0  0  0
 18 17  1  0  0  0  0
 19 12  1  0  0  0  0
 19 15  1  0  0  0  0
 20 14  1  6  0  0  0
 21 23  2  0  0  0  0
 22 23  1  0  0  0  0
 25 26  1  0  0  0  0
 25 28  2  0  0  0  0
 26 33  2  0  0  0  0
 27 31  2  0  0  0  0
 28 32  1  0  0  0  0
 30 24  1  0  0  0  0
 30 29  1  0  0  0  0
 31 30  1  0  0  0  0
 32 34  2  0  0  0  0
 33 34  1  0  0  0  0
 33 27  1  0  0  0  0
 34 35  1  0  0  0  0
 35 31  1  0  0  0  0
 36 39  2  0  0  0  0
 37 39  2  0  0  0  0
 39 26  1  0  0  0  0
 39 38  1  0  0  0  0
M  END
>  <MODEL>
2

>  <REMARK>
 VINA RESULT:      -5.9      1.673      2.458
  Name = 
  5 active torsions:
  status: ('A' for Active; 'I' for Inactive)
    1  A    between atoms: C_4  and  C_18
    2  A    between atoms: C_7  and  S_34
    3  A    between atoms: C_12  and  C_27
    4  A    between atoms: N_13  and  C_18
    5  A    between atoms: C_15  and  C_31
                            x       y       z     vdW  Elec       q    Type
                         _______ _______ _______ _____ _____    ______ ____

>  <TORSDO>
F 5

$$$$
=
 OpenBabel11072415003D

 39 44  0  0  1  0  0  0  0  0999 V2000
  161.7450  210.6460  150.5810 O   0  0  0  0  0  0  0  0  0  0  0  0
  162.9590  207.8820  150.2340 C   0  0  0  0  0  1  0  0  0  0  0  0
  161.3140  206.4900  151.6580 C   0  0  1  0  0  0  0  0  0  0  0  0
  160.4330  207.0310  150.5270 C   0  0  1  0  0  3  0  0  0  0  0  0
  161.4010  210.2480  151.7260 C   0  0  0  0  0  0  0  0  0  0  0  0
  160.9800  208.2790  153.2940 C   0  0  0  0  0  3  0  0  0  0  0  0
  161.6470  207.8190  151.0150 C   0  0  2  0  0  0  0  0  0  0  0  0
  160.7130  206.3960  149.3140 O   0  0  0  0  0  1  0  0  0  0  0  0
  161.3910  208.8380  152.0180 N   0  0  0  0  0  0  0  0  0  0  0  0
  160.8680  206.7750  153.0870 C   0  0  0  0  0  3  0  0  0  0  0  0
  160.5450  211.2730  156.6010 C   0  0  1  0  0  3  0  0  0  0  0  0
  162.5600  210.7690  154.6310 C   0  0  0  0  0  2  0  0  0  0  0  0
  161.1050  210.7860  154.1810 C   0  0  2  0  0  3  0  0  0  0  0  0
  158.7900  211.7060  154.7830 C   0  0  0  0  0  2  0  0  0  0  0  0
  161.9270  211.2800  156.9160 O   0  0  0  0  0  0  0  0  0  0  0  0
  158.4980  211.3180  153.3290 C   0  0  0  0  0  2  0  0  0  0  0  0
  159.5810  211.8400  152.3860 C   0  0  0  0  0  2  0  0  0  0  0  0
  160.9710  211.2780  152.7310 C   0  0  2  0  0  3  0  0  0  0  0  0
  162.6090  210.3490  156.0980 C   0  0  0  0  0  2  0  0  0  0  0  0
  160.2870  211.6630  155.1340 C   0  0  1  0  0  3  0  0  0  0  0  0
  160.5920  208.8580  157.2490 O   0  0  0  0  0  0  0  0  0  0  0  0
  158.6080  210.0010  157.2590 O   0  0  0  0  0  1  0  0  0  0  0  0
  159.8520  210.0170  157.0640 C   0  0  0  0  0  0  0  0  0  0  0  0
  162.2540  205.3120  151.3740 C   0  0  0  0  0  2  0  0  0  0  0  0
  160.9570  202.4140  145.6040 C   0  0  0  0  0  3  0  0  0  0  0  0
  161.5230  203.4220  146.4050 C   0  0  0  0  0  0  0  0  0  0  0  0
  161.7610  204.1440  148.7510 N   0  0  0  0  0  0  0  0  0  0  0  0
  160.2380  201.3580  146.2090 C   0  0  0  0  0  3  0  0  0  0  0  0
  160.8880  203.4540  152.3470 C   0  0  0  0  0  1  0  0  0  0  0  0
  161.5010  204.0790  151.1880 N   0  0  0  0  0  0  0  0  0  0  0  0
  161.2870  203.5410  149.8760 C   0  0  0  0  0  0  0  0  0  0  0  0
  160.0900  201.3050  147.5690 N   0  0  0  0  0  0  0  0  0  0  0  0
  161.3380  203.3170  147.7830 C   0  0  0  0  0  0  0  0  0  0  0  0
  160.6470  202.2850  148.3240 C   0  0  0  0  0  0  0  0  0  0  0  0
  160.5890  202.3920  149.6580 N   0  0  0  0  0  2  0  0  0  0  0  0
  163.8740  204.3620  145.5640 O   0  0  0  0  0  0  0  0  0  0  0  0
  162.3190  205.9670  146.5660 O   0  0  0  0  0  0  0  0  0  0  0  0
  161.7830  205.1130  144.1310 N   0  0  0  0  0  1  0  0  0  0  0  0
  162.4270  204.7490  145.6910 S   0  0  0  0  0  0  0  0  0  0  0  0
  1  5  2  0  0  0  0
  3 24  1  6  0  0  0
  3 10  1  0  0  0  0
  4  8  1  6  0  0  0
  4  7  1  0  0  0  0
  4  3  1  0  0  0  0
  5  9  1  0  0  0  0
  7  2  1  6  0  0  0
  7  3  1  0  0  0  0
  7  9  1  0  0  0  0
  9  6  1  0  0  0  0
 10  6  2  0  0  0  0
 11 15  1  0  0  0  0
 11 23  1  6  0  0  0
 12 19  1  0  0  0  0
 13 12  1  1  0  0  0
 13 20  1  0  0  0  0
 16 14  1  0  0  0  0
 17 18  1  0  0  0  0
 17 16  1  0  0  0  0
 18  5  1  6  0  0  0
 18 13  1  0  0  0  0
 19 15  1  0  0  0  0
 20 14  1  6  0  0  0
 20 11  1  0  0  0  0
 23 21  2  0  0  0  0
 23 22  1  0  0  0  0
 25 28  2  0  0  0  0
 25 26  1  0  0  0  0
 26 33  2  0  0  0  0
 27 31  2  0  0  0  0
 28 32  1  0  0  0  0
 30 24  1  0  0  0  0
 30 29  1  0  0  0  0
 31 30  1  0  0  0  0
 32 34  2  0  0  0  0
 33 34  1  0  0  0  0
 33 27  1  0  0  0  0
 34 35  1  0  0  0  0
 35 31  1  0  0  0  0
 36 39  2  0  0  0  0
 38 39  1  0  0  0  0
 39 26  1  0  0  0  0
 39 37  2  0  0  0  0
M  END
>  <MODEL>
3

>  <REMARK>
 VINA RESULT:      -5.9      1.648      2.628
  Name = 
  5 active torsions:
  status: ('A' for Active; 'I' for Inactive)
    1  A    between atoms: C_4  and  C_18
    2  A    between atoms: C_7  and  S_34
    3  A    between atoms: C_12  and  C_27
    4  A    between atoms: N_13  and  C_18
    5  A    between atoms: C_15  and  C_31
                            x       y       z     vdW  Elec       q    Type
                         _______ _______ _______ _____ _____    ______ ____

>  <TORSDO>
F 5

$$$$
=
 OpenBabel11072415003D

 39 44  0  0  1  0  0  0  0  0999 V2000
  160.0880  208.1600  156.8870 O   0  0  0  0  0  0  0  0  0  0  0  0
  160.0760  206.3570  154.4400 C   0  0  0  0  0  1  0  0  0  0  0  0
  161.0460  207.9830  152.6830 C   0  0  1  0  0  0  0  0  0  0  0  0
  162.1930  207.8200  153.6860 C   0  0  1  0  0  3  0  0  0  0  0  0
  159.8780  209.1010  156.0770 C   0  0  0  0  0  0  0  0  0  0  0  0
  159.9510  209.9380  153.6680 C   0  0  0  0  0  3  0  0  0  0  0  0
  160.7390  207.7000  154.1380 C   0  0  2  0  0  0  0  0  0  0  0  0
  162.7830  206.5580  153.5840 O   0  0  0  0  0  1  0  0  0  0  0  0
  160.1310  208.9060  154.6730 N   0  0  0  0  0  0  0  0  0  0  0  0
  160.5750  209.4020  152.3860 C   0  0  0  0  0  3  0  0  0  0  0  0
  157.1540  213.2810  155.2620 C   0  0  1  0  0  3  0  0  0  0  0  0
  157.0320  210.4640  155.7610 C   0  0  0  0  0  2  0  0  0  0  0  0
  158.4030  211.1250  155.7070 C   0  0  2  0  0  3  0  0  0  0  0  0
  159.6040  213.3690  156.0090 C   0  0  0  0  0  2  0  0  0  0  0  0
  155.9230  212.5860  155.3710 O   0  0  0  0  0  0  0  0  0  0  0  0
  160.8310  212.4530  156.0930 C   0  0  0  0  0  2  0  0  0  0  0  0
  160.5930  211.2940  157.0600 C   0  0  0  0  0  2  0  0  0  0  0  0
  159.4050  210.4150  156.6320 C   0  0  2  0  0  3  0  0  0  0  0  0
  156.0720  211.2660  154.8840 C   0  0  0  0  0  2  0  0  0  0  0  0
  158.2700  212.6050  156.0780 C   0  0  1  0  0  3  0  0  0  0  0  0
  156.6720  214.4310  153.0930 O   0  0  0  0  0  0  0  0  0  0  0  0
  158.5380  213.1180  153.2970 O   0  0  0  0  0  1  0  0  0  0  0  0
  157.5080  213.6070  153.8330 C   0  0  0  0  0  0  0  0  0  0  0  0
  160.7720  206.8630  151.6720 C   0  0  0  0  0  2  0  0  0  0  0  0
  161.5320  202.8280  146.5220 C   0  0  0  0  0  3  0  0  0  0  0  0
  161.2060  203.1090  147.8620 C   0  0  0  0  0  0  0  0  0  0  0  0
  161.0620  204.9600  149.4850 N   0  0  0  0  0  0  0  0  0  0  0  0
  161.9330  203.8770  145.6630 C   0  0  0  0  0  3  0  0  0  0  0  0
  161.5810  208.6360  150.1020 C   0  0  0  0  0  1  0  0  0  0  0  0
  161.1950  207.2550  150.3350 N   0  0  0  0  0  0  0  0  0  0  0  0
  161.3200  206.2820  149.2890 C   0  0  0  0  0  0  0  0  0  0  0  0
  162.0060  205.1640  146.1210 N   0  0  0  0  0  0  0  0  0  0  0  0
  161.3010  204.4380  148.2730 C   0  0  0  0  0  0  0  0  0  0  0  0
  161.6850  205.4150  147.4150 C   0  0  0  0  0  0  0  0  0  0  0  0
  161.7120  206.6070  148.0260 N   0  0  0  0  0  2  0  0  0  0  0  0
  161.3100  200.5300  148.5340 O   0  0  0  0  0  0  0  0  0  0  0  0
  159.2010  201.7080  148.9330 O   0  0  0  0  0  0  0  0  0  0  0  0
  161.2060  202.2200  150.5650 N   0  0  0  0  0  1  0  0  0  0  0  0
  160.6990  201.8350  148.9600 S   0  0  0  0  0  0  0  0  0  0  0  0
  3 24  1  6  0  0  0
  3  4  1  0  0  0  0
  3  7  1  0  0  0  0
  4  8  1  6  0  0  0
  4  7  1  0  0  0  0
  5  1  2  0  0  0  0
  6  9  1  0  0  0  0
  7  2  1  1  0  0  0
  7  9  1  0  0  0  0
  9  5  1  0  0  0  0
 10  3  1  0  0  0  0
 10  6  2  0  0  0  0
 11 23  1  6  0  0  0
 11 15  1  0  0  0  0
 11 20  1  0  0  0  0
 13 12  1  1  0  0  0
 13 20  1  0  0  0  0
 13 18  1  0  0  0  0
 14 16  1  0  0  0  0
 16 17  1  0  0  0  0
 18  5  1  6  0  0  0
 18 17  1  0  0  0  0
 19 15  1  0  0  0  0
 19 12  1  0  0  0  0
 20 14  1  6  0  0  0
 21 23  2  0  0  0  0
 22 23  1  0  0  0  0
 25 26  1  0  0  0  0
 26 33  2  0  0  0  0
 26 39  1  0  0  0  0
 28 32  1  0  0  0  0
 28 25  2  0  0  0  0
 29 30  1  0  0  0  0
 30 24  1  0  0  0  0
 31 27  2  0  0  0  0
 31 30  1  0  0  0  0
 32 34  2  0  0  0  0
 33 27  1  0  0  0  0
 34 35  1  0  0  0  0
 34 33  1  0  0  0  0
 35 31  1  0  0  0  0
 36 39  2  0  0  0  0
 37 39  2  0  0  0  0
 39 38  1  0  0  0  0
M  END
>  <MODEL>
4

>  <REMARK>
 VINA RESULT:      -5.4      2.573      3.570
  Name = 
  5 active torsions:
  status: ('A' for Active; 'I' for Inactive)
    1  A    between atoms: C_4  and  C_18
    2  A    between atoms: C_7  and  S_34
    3  A    between atoms: C_12  and  C_27
    4  A    between atoms: N_13  and  C_18
    5  A    between atoms: C_15  and  C_31
                            x       y       z     vdW  Elec       q    Type
                         _______ _______ _______ _____ _____    ______ ____

>  <TORSDO>
F 5

$$$$
