=
 OpenBabel11072415023D

 39 41  0  0  1  0  0  0  0  0999 V2000
  161.0210  207.2130  154.5270 C   0  0  0  0  0  0  0  0  0  0  0  0
  159.6650  207.2490  156.4690 C   0  0  0  0  0  3  0  0  0  0  0  0
  160.1420  208.4770  156.8010 N   0  0  0  0  0  0  0  0  0  0  0  0
  161.0670  209.1070  156.0260 C   0  0  0  0  0  0  0  0  0  0  0  0
  161.5250  208.4740  154.8660 C   0  0  0  0  0  3  0  0  0  0  0  0
  160.1060  206.6290  155.3450 N   0  0  0  0  0  0  0  0  0  0  0  0
  163.1730  210.7670  156.4110 S   0  0  0  0  0  0  0  0  0  0  0  0
  161.5550  210.4460  156.4170 C   0  0  0  0  0  0  0  0  0  0  0  0
  159.8920  212.2640  156.4100 C   0  0  0  0  0  3  0  0  0  0  0  0
  160.6180  211.3640  157.0090 N   0  0  0  0  0  0  0  0  0  0  0  0
  159.8590  212.4600  154.9310 C   0  0  0  0  0  2  0  0  0  0  0  0
  158.9780  213.5670  154.6080 N   0  0  0  0  0  2  0  0  0  0  0  0
  158.3630  211.7130  153.1620 C   0  0  0  0  0  1  0  0  0  0  0  0
  157.9050  213.0260  153.7840 C   0  0  1  0  0  3  0  0  0  0  0  0
  156.5880  212.8750  154.5810 C   0  0  1  0  0  0  0  0  0  0  0  0
  156.6420  213.7320  155.7560 N   0  0  0  0  0  1  0  0  0  0  0  0
  155.3900  213.3030  153.7390 C   0  0  0  0  0  1  0  0  0  0  0  0
  156.3850  211.4310  155.0650 C   0  0  2  0  0  3  0  0  0  0  0  0
  155.2870  210.8530  154.4520 F   0  0  0  0  0  0  0  0  0  0  0  0
  156.2380  211.3620  156.4540 O   0  0  0  0  0  1  0  0  0  0  0  0
  161.4490  206.5140  153.3870 O   0  0  0  0  0  0  0  0  0  0  0  0
  161.6780  208.9660  150.5870 C   0  0  0  0  0  0  0  0  0  0  0  0
  161.5580  206.1870  151.0400 C   0  0  0  0  0  0  0  0  0  0  0  0
  161.6010  207.0280  152.0870 C   0  0  0  0  0  0  0  0  0  0  0  0
  161.2810  204.7510  151.2200 C   0  0  0  0  0  3  0  0  0  0  0  0
  161.5310  208.0810  149.5120 O   0  0  0  0  0  0  0  0  0  0  0  0
  160.9800  203.9870  150.1670 C   0  0  0  0  0  0  0  0  0  0  0  0
  161.8630  206.6970  149.6470 C   0  0  2  0  0  3  0  0  0  0  0  0
  161.2330  205.8530  148.5660 C   0  0  0  0  0  0  0  0  0  0  0  0
  161.7330  208.4830  151.8330 C   0  0  0  0  0  3  0  0  0  0  0  0
  160.8760  204.5840  148.8130 C   0  0  0  0  0  3  0  0  0  0  0  0
  161.4060  211.2170  151.2490 O   0  0  0  0  0  1  0  0  0  0  0  0
  161.7460  210.4110  150.3440 C   0  0  0  0  0  0  0  0  0  0  0  0
  162.1840  210.9030  149.1190 O   0  0  0  0  0  0  0  0  0  0  0  0
  161.1110  206.3950  147.1790 C   0  0  0  0  0  2  0  0  0  0  0  0
  162.1170  205.7340  146.2520 C   0  0  0  0  0  1  0  0  0  0  0  0
  160.7050  202.6010  150.3760 N   0  0  0  0  0  2  0  0  0  0  0  0
  160.1270  201.7520  149.3480 C   0  0  0  0  0  2  0  0  0  0  0  0
  161.2150  200.9120  148.7140 C   0  0  0  0  0  1  0  0  0  0  0  0
  1  5  1  0  0  0  0
  1  6  2  0  0  0  0
  2  3  2  0  0  0  0
  4  8  1  0  0  0  0
  4  3  1  0  0  0  0
  5  4  2  0  0  0  0
  6  2  1  0  0  0  0
  7  8  2  0  0  0  0
  8 10  1  0  0  0  0
  9 10  2  0  0  0  0
 11  9  1  0  0  0  0
 12 11  1  0  0  0  0
 14 13  1  1  0  0  0
 14 15  1  0  0  0  0
 14 12  1  0  0  0  0
 15 17  1  6  0  0  0
 15 18  1  0  0  0  0
 15 16  1  0  0  0  0
 18 19  1  6  0  0  0
 18 20  1  0  0  0  0
 21  1  1  0  0  0  0
 22 30  2  0  0  0  0
 23 25  1  0  0  0  0
 23 24  2  0  0  0  0
 24 21  1  0  0  0  0
 26 28  1  0  0  0  0
 26 22  1  0  0  0  0
 27 37  1  0  0  0  0
 27 25  2  0  0  0  0
 28 29  1  6  0  0  0
 28 23  1  0  0  0  0
 29 31  2  0  0  0  0
 30 24  1  0  0  0  0
 31 27  1  0  0  0  0
 33 22  1  0  0  0  0
 33 32  1  0  0  0  0
 34 33  2  0  0  0  0
 35 29  1  0  0  0  0
 36 35  1  0  0  0  0
 38 37  1  0  0  0  0
 39 38  1  0  0  0  0
M  END
>  <MODEL>
1

>  <REMARK>
 VINA RESULT:      -7.6      0.000      0.000
  Name = 
  13 active torsions:
  status: ('A' for Active; 'I' for Inactive)
    1  A    between atoms: C_1  and  O_35
    2  A    between atoms: C_2  and  C_32
    3  A    between atoms: C_3  and  N_20
    4  A    between atoms: C_7  and  C_13
    5  A    between atoms: C_8  and  C_17
    6  A    between atoms: C_8  and  C_36
    7  A    between atoms: C_10  and  O_35
    8  A    between atoms: C_12  and  N_18
    9  A    between atoms: C_12  and  C_33
   10  A    between atoms: C_13  and  N_34
   11  A    between atoms: N_18  and  C_36
   12  A    between atoms: N_20  and  C_22
   13  A    between atoms: C_21  and  C_25
                            x       y       z     vdW  Elec       q    Type
                         _______ _______ _______ _____ _____    ______ ____

>  <TORSDO>
F 13

$$$$
=
 OpenBabel11072415023D

 39 41  0  0  1  0  0  0  0  0999 V2000
  161.7010  210.7790  148.6920 C   0  0  0  0  0  0  0  0  0  0  0  0
  161.0460  212.7940  149.7490 C   0  0  0  0  0  3  0  0  0  0  0  0
  160.6340  213.3050  148.5600 N   0  0  0  0  0  0  0  0  0  0  0  0
  160.7440  212.5880  147.4080 C   0  0  0  0  0  0  0  0  0  0  0  0
  161.2870  211.3000  147.4610 C   0  0  0  0  0  3  0  0  0  0  0  0
  161.5750  211.5450  149.8070 N   0  0  0  0  0  0  0  0  0  0  0  0
  158.8190  212.7250  145.5080 S   0  0  0  0  0  0  0  0  0  0  0  0
  160.2760  213.1760  146.1360 C   0  0  0  0  0  0  0  0  0  0  0  0
  161.7210  213.6720  144.2040 C   0  0  0  0  0  3  0  0  0  0  0  0
  161.2070  213.9570  145.3660 N   0  0  0  0  0  0  0  0  0  0  0  0
  161.3620  212.4640  143.4060 C   0  0  0  0  0  2  0  0  0  0  0  0
  162.3090  212.3020  142.3190 N   0  0  0  0  0  2  0  0  0  0  0  0
  162.5130  213.9810  140.5730 C   0  0  0  0  0  1  0  0  0  0  0  0
  161.6730  212.8350  141.1210 C   0  0  1  0  0  3  0  0  0  0  0  0
  161.4170  211.7330  140.0660 C   0  0  1  0  0  0  0  0  0  0  0  0
  160.0790  211.1930  140.2560 N   0  0  0  0  0  1  0  0  0  0  0  0
  161.5020  212.3010  138.6530 C   0  0  0  0  0  1  0  0  0  0  0  0
  162.4130  210.5720  140.2120 C   0  0  2  0  0  3  0  0  0  0  0  0
  163.6430  210.9020  139.6680 F   0  0  0  0  0  0  0  0  0  0  0  0
  161.9380  209.3980  139.6190 O   0  0  0  0  0  1  0  0  0  0  0  0
  162.2700  209.5010  148.8140 O   0  0  0  0  0  0  0  0  0  0  0  0
  161.1740  207.3530  151.6590 C   0  0  0  0  0  0  0  0  0  0  0  0
  161.5240  207.2490  148.8650 C   0  0  0  0  0  0  0  0  0  0  0  0
  161.7410  208.4030  149.5180 C   0  0  0  0  0  0  0  0  0  0  0  0
  161.8970  207.0870  147.4490 C   0  0  0  0  0  3  0  0  0  0  0  0
  161.0520  206.1360  150.9770 O   0  0  0  0  0  0  0  0  0  0  0  0
  161.9230  205.8720  146.8950 C   0  0  0  0  0  0  0  0  0  0  0  0
  160.8250  206.1040  149.5660 C   0  0  2  0  0  3  0  0  0  0  0  0
  161.1620  204.7600  148.9660 C   0  0  0  0  0  0  0  0  0  0  0  0
  161.4880  208.4590  150.9780 C   0  0  0  0  0  3  0  0  0  0  0  0
  161.6230  204.6700  147.7100 C   0  0  0  0  0  3  0  0  0  0  0  0
  160.8580  208.5100  153.6940 O   0  0  0  0  0  0  0  0  0  0  0  0
  160.9850  207.4000  153.1130 C   0  0  0  0  0  0  0  0  0  0  0  0
  160.9440  206.2280  153.8600 O   0  0  0  0  0  1  0  0  0  0  0  0
  160.8710  203.5120  149.7350 C   0  0  0  0  0  2  0  0  0  0  0  0
  160.8500  202.3040  148.8140 C   0  0  0  0  0  1  0  0  0  0  0  0
  162.2990  205.7470  145.5220 N   0  0  0  0  0  2  0  0  0  0  0  0
  161.3290  205.5620  144.4570 C   0  0  0  0  0  2  0  0  0  0  0  0
  160.6020  204.2500  144.6570 C   0  0  0  0  0  1  0  0  0  0  0  0
  1 21  1  0  0  0  0
  1  6  2  0  0  0  0
  2  6  1  0  0  0  0
  3  2  2  0  0  0  0
  4  5  2  0  0  0  0
  4  3  1  0  0  0  0
  5  1  1  0  0  0  0
  7  8  2  0  0  0  0
  8  4  1  0  0  0  0
  9 10  2  0  0  0  0
 10  8  1  0  0  0  0
 11  9  1  0  0  0  0
 12 11  1  0  0  0  0
 14 13  1  6  0  0  0
 14 12  1  0  0  0  0
 15 17  1  6  0  0  0
 15 18  1  0  0  0  0
 15 16  1  0  0  0  0
 15 14  1  0  0  0  0
 18 20  1  6  0  0  0
 19 18  1  0  0  0  0
 21 24  1  0  0  0  0
 22 33  1  0  0  0  0
 23 24  2  0  0  0  0
 24 30  1  0  0  0  0
 25 23  1  0  0  0  0
 26 22  1  0  0  0  0
 27 25  2  0  0  0  0
 27 31  1  0  0  0  0
 28 23  1  6  0  0  0
 28 26  1  0  0  0  0
 29 28  1  0  0  0  0
 29 35  1  0  0  0  0
 30 22  2  0  0  0  0
 31 29  2  0  0  0  0
 33 32  2  0  0  0  0
 33 34  1  0  0  0  0
 36 35  1  0  0  0  0
 37 27  1  0  0  0  0
 38 39  1  0  0  0  0
 38 37  1  0  0  0  0
M  END
>  <MODEL>
2

>  <REMARK>
 VINA RESULT:      -7.5      6.543      9.564
  Name = 
  13 active torsions:
  status: ('A' for Active; 'I' for Inactive)
    1  A    between atoms: C_1  and  O_35
    2  A    between atoms: C_2  and  C_32
    3  A    between atoms: C_3  and  N_20
    4  A    between atoms: C_7  and  C_13
    5  A    between atoms: C_8  and  C_17
    6  A    between atoms: C_8  and  C_36
    7  A    between atoms: C_10  and  O_35
    8  A    between atoms: C_12  and  N_18
    9  A    between atoms: C_12  and  C_33
   10  A    between atoms: C_13  and  N_34
   11  A    between atoms: N_18  and  C_36
   12  A    between atoms: N_20  and  C_22
   13  A    between atoms: C_21  and  C_25
                            x       y       z     vdW  Elec       q    Type
                         _______ _______ _______ _____ _____    ______ ____

>  <TORSDO>
F 13

$$$$
=
 OpenBabel11072415023D

 39 41  0  0  1  0  0  0  0  0999 V2000
  162.0370  211.2260  148.5370 C   0  0  0  0  0  0  0  0  0  0  0  0
  163.5150  212.7020  147.4190 C   0  0  0  0  0  3  0  0  0  0  0  0
  162.5040  213.1440  146.6280 N   0  0  0  0  0  0  0  0  0  0  0  0
  161.2420  212.6490  146.7530 C   0  0  0  0  0  0  0  0  0  0  0  0
  160.9910  211.6690  147.7210 C   0  0  0  0  0  3  0  0  0  0  0  0
  163.2780  211.7510  148.3590 N   0  0  0  0  0  0  0  0  0  0  0  0
  158.6200  212.6240  146.0750 S   0  0  0  0  0  0  0  0  0  0  0  0
  160.1670  213.1630  145.8800 C   0  0  0  0  0  0  0  0  0  0  0  0
  160.8320  213.5340  143.5370 C   0  0  0  0  0  3  0  0  0  0  0  0
  160.5400  213.9510  144.7360 N   0  0  0  0  0  0  0  0  0  0  0  0
  160.7580  212.1070  143.1100 C   0  0  0  0  0  2  0  0  0  0  0  0
  161.6110  211.9020  141.9540 N   0  0  0  0  0  2  0  0  0  0  0  0
  159.6700  211.8050  140.4950 C   0  0  0  0  0  1  0  0  0  0  0  0
  160.8760  211.0460  141.0320 C   0  0  1  0  0  3  0  0  0  0  0  0
  161.7830  210.5040  139.9030 C   0  0  1  0  0  0  0  0  0  0  0  0
  163.1240  211.0420  140.0700 N   0  0  0  0  0  1  0  0  0  0  0  0
  161.8750  208.9820  139.9600 C   0  0  0  0  0  1  0  0  0  0  0  0
  161.2770  210.9340  138.5170 C   0  0  2  0  0  3  0  0  0  0  0  0
  160.5810  209.9080  137.9030 F   0  0  0  0  0  0  0  0  0  0  0  0
  162.3200  211.3560  137.6880 O   0  0  0  0  0  1  0  0  0  0  0  0
  161.8600  210.2350  149.5150 O   0  0  0  0  0  0  0  0  0  0  0  0
  161.5990  206.9480  147.7730 C   0  0  0  0  0  0  0  0  0  0  0  0
  161.6880  208.0300  150.3740 C   0  0  0  0  0  0  0  0  0  0  0  0
  161.8180  208.8440  149.3120 C   0  0  0  0  0  0  0  0  0  0  0  0
  161.5130  208.5650  151.7350 C   0  0  0  0  0  3  0  0  0  0  0  0
  161.3640  206.1310  148.8850 O   0  0  0  0  0  0  0  0  0  0  0  0
  161.1220  207.7640  152.7280 C   0  0  0  0  0  0  0  0  0  0  0  0
  161.7850  206.5300  150.1920 C   0  0  2  0  0  3  0  0  0  0  0  0
  161.0690  205.7630  151.2780 C   0  0  0  0  0  0  0  0  0  0  0  0
  161.8370  208.2510  147.9530 C   0  0  0  0  0  3  0  0  0  0  0  0
  160.8160  206.3370  152.4630 C   0  0  0  0  0  3  0  0  0  0  0  0
  162.5800  205.8200  145.9440 O   0  0  0  0  0  1  0  0  0  0  0  0
  161.5570  206.3770  146.4220 C   0  0  0  0  0  0  0  0  0  0  0  0
  160.3960  206.4460  145.6600 O   0  0  0  0  0  0  0  0  0  0  0  0
  160.7440  204.3200  151.0750 C   0  0  0  0  0  2  0  0  0  0  0  0
  161.0630  203.5140  152.3220 C   0  0  0  0  0  1  0  0  0  0  0  0
  160.9520  208.3160  154.0350 N   0  0  0  0  0  2  0  0  0  0  0  0
  161.1240  207.5330  155.2470 C   0  0  0  0  0  2  0  0  0  0  0  0
  159.8210  207.5020  156.0170 C   0  0  0  0  0  1  0  0  0  0  0  0
  1 21  1  0  0  0  0
  2  6  1  0  0  0  0
  3  4  1  0  0  0  0
  3  2  2  0  0  0  0
  4  5  2  0  0  0  0
  5  1  1  0  0  0  0
  6  1  2  0  0  0  0
  8  7  2  0  0  0  0
  8  4  1  0  0  0  0
  9 10  2  0  0  0  0
 10  8  1  0  0  0  0
 11  9  1  0  0  0  0
 12 11  1  0  0  0  0
 14 13  1  6  0  0  0
 14 12  1  0  0  0  0
 15 17  1  1  0  0  0
 15 16  1  0  0  0  0
 15 14  1  0  0  0  0
 18 20  1  6  0  0  0
 18 15  1  0  0  0  0
 19 18  1  0  0  0  0
 22 30  2  0  0  0  0
 22 26  1  0  0  0  0
 23 25  1  0  0  0  0
 24 21  1  0  0  0  0
 24 23  2  0  0  0  0
 25 27  2  0  0  0  0
 27 37  1  0  0  0  0
 28 26  1  6  0  0  0
 28 23  1  0  0  0  0
 28 29  1  0  0  0  0
 29 31  2  0  0  0  0
 30 24  1  0  0  0  0
 31 27  1  0  0  0  0
 32 33  1  0  0  0  0
 33 22  1  0  0  0  0
 34 33  2  0  0  0  0
 35 29  1  0  0  0  0
 35 36  1  0  0  0  0
 37 38  1  0  0  0  0
 38 39  1  0  0  0  0
M  END
>  <MODEL>
3

>  <REMARK>
 VINA RESULT:      -7.2      6.652     10.255
  Name = 
  13 active torsions:
  status: ('A' for Active; 'I' for Inactive)
    1  A    between atoms: C_1  and  O_35
    2  A    between atoms: C_2  and  C_32
    3  A    between atoms: C_3  and  N_20
    4  A    between atoms: C_7  and  C_13
    5  A    between atoms: C_8  and  C_17
    6  A    between atoms: C_8  and  C_36
    7  A    between atoms: C_10  and  O_35
    8  A    between atoms: C_12  and  N_18
    9  A    between atoms: C_12  and  C_33
   10  A    between atoms: C_13  and  N_34
   11  A    between atoms: N_18  and  C_36
   12  A    between atoms: N_20  and  C_22
   13  A    between atoms: C_21  and  C_25
                            x       y       z     vdW  Elec       q    Type
                         _______ _______ _______ _____ _____    ______ ____

>  <TORSDO>
F 13

$$$$
=
 OpenBabel11072415023D

 39 41  0  0  1  0  0  0  0  0999 V2000
  161.9790  211.5520  148.2450 C   0  0  0  0  0  0  0  0  0  0  0  0
  162.3810  213.7640  147.4990 C   0  0  0  0  0  3  0  0  0  0  0  0
  161.0450  213.9970  147.4140 N   0  0  0  0  0  0  0  0  0  0  0  0
  160.1400  213.0310  147.7290 C   0  0  0  0  0  0  0  0  0  0  0  0
  160.6020  211.7800  148.1520 C   0  0  0  0  0  3  0  0  0  0  0  0
  162.8360  212.5520  147.9080 N   0  0  0  0  0  0  0  0  0  0  0  0
  157.7700  212.5540  146.5070 S   0  0  0  0  0  0  0  0  0  0  0  0
  158.6950  213.3270  147.6330 C   0  0  0  0  0  0  0  0  0  0  0  0
  157.6580  214.4450  149.5680 C   0  0  0  0  0  3  0  0  0  0  0  0
  158.1810  214.4470  148.3750 N   0  0  0  0  0  0  0  0  0  0  0  0
  157.5620  213.2330  150.4340 C   0  0  0  0  0  2  0  0  0  0  0  0
  157.5240  213.6350  151.8280 N   0  0  0  0  0  2  0  0  0  0  0  0
  159.8200  212.8560  151.9960 C   0  0  0  0  0  1  0  0  0  0  0  0
  158.4080  212.7320  152.5530 C   0  0  1  0  0  3  0  0  0  0  0  0
  158.3520  212.9740  154.0790 C   0  0  1  0  0  0  0  0  0  0  0  0
  159.4320  212.2370  154.7180 N   0  0  0  0  0  1  0  0  0  0  0  0
  158.5330  214.4530  154.4040 C   0  0  0  0  0  1  0  0  0  0  0  0
  157.0290  212.4750  154.6810 C   0  0  2  0  0  3  0  0  0  0  0  0
  156.6780  211.2430  154.1560 F   0  0  0  0  0  0  0  0  0  0  0  0
  155.9870  213.3850  154.4790 O   0  0  0  0  0  1  0  0  0  0  0  0
  162.5110  210.3160  148.6450 O   0  0  0  0  0  0  0  0  0  0  0  0
  161.6500  209.0140  152.0320 C   0  0  0  0  0  0  0  0  0  0  0  0
  161.6630  208.2090  149.3310 C   0  0  0  0  0  0  0  0  0  0  0  0
  162.0140  209.4660  149.6500 C   0  0  0  0  0  0  0  0  0  0  0  0
  161.8580  207.6790  147.9700 C   0  0  0  0  0  3  0  0  0  0  0  0
  161.3860  207.6810  151.6910 O   0  0  0  0  0  0  0  0  0  0  0  0
  161.7570  206.3690  147.7370 C   0  0  0  0  0  0  0  0  0  0  0  0
  160.9940  207.3260  150.3630 C   0  0  2  0  0  3  0  0  0  0  0  0
  161.1890  205.8550  150.0870 C   0  0  0  0  0  0  0  0  0  0  0  0
  161.9370  209.8940  151.0680 C   0  0  0  0  0  3  0  0  0  0  0  0
  161.4940  205.4280  148.8530 C   0  0  0  0  0  3  0  0  0  0  0  0
  162.2380  210.4750  153.7930 O   0  0  0  0  0  0  0  0  0  0  0  0
  161.6350  209.4270  153.4390 C   0  0  0  0  0  0  0  0  0  0  0  0
  160.9610  208.6710  154.3920 O   0  0  0  0  0  1  0  0  0  0  0  0
  160.9280  204.8570  151.1680 C   0  0  0  0  0  2  0  0  0  0  0  0
  160.4700  203.5330  150.5810 C   0  0  0  0  0  1  0  0  0  0  0  0
  161.9620  205.8860  146.4090 N   0  0  0  0  0  2  0  0  0  0  0  0
  160.8840  205.7690  145.4410 C   0  0  0  0  0  2  0  0  0  0  0  0
  161.4250  205.1970  144.1490 C   0  0  0  0  0  1  0  0  0  0  0  0
  1 21  1  0  0  0  0
  2  6  1  0  0  0  0
  3  2  2  0  0  0  0
  3  4  1  0  0  0  0
  4  5  2  0  0  0  0
  5  1  1  0  0  0  0
  6  1  2  0  0  0  0
  7  8  2  0  0  0  0
  8  4  1  0  0  0  0
  8 10  1  0  0  0  0
  9 11  1  0  0  0  0
 10  9  2  0  0  0  0
 11 12  1  0  0  0  0
 12 14  1  0  0  0  0
 14 13  1  6  0  0  0
 14 15  1  0  0  0  0
 15 17  1  1  0  0  0
 15 18  1  0  0  0  0
 15 16  1  0  0  0  0
 18 19  1  6  0  0  0
 20 18  1  0  0  0  0
 21 24  1  0  0  0  0
 22 33  1  0  0  0  0
 23 24  2  0  0  0  0
 24 30  1  0  0  0  0
 25 23  1  0  0  0  0
 26 22  1  0  0  0  0
 27 25  2  0  0  0  0
 27 31  1  0  0  0  0
 28 23  1  6  0  0  0
 28 26  1  0  0  0  0
 29 28  1  0  0  0  0
 29 35  1  0  0  0  0
 30 22  2  0  0  0  0
 31 29  2  0  0  0  0
 33 32  2  0  0  0  0
 33 34  1  0  0  0  0
 36 35  1  0  0  0  0
 37 27  1  0  0  0  0
 38 37  1  0  0  0  0
 39 38  1  0  0  0  0
M  END
>  <MODEL>
4

>  <REMARK>
 VINA RESULT:      -7.1      3.558      5.773
  Name = 
  13 active torsions:
  status: ('A' for Active; 'I' for Inactive)
    1  A    between atoms: C_1  and  O_35
    2  A    between atoms: C_2  and  C_32
    3  A    between atoms: C_3  and  N_20
    4  A    between atoms: C_7  and  C_13
    5  A    between atoms: C_8  and  C_17
    6  A    between atoms: C_8  and  C_36
    7  A    between atoms: C_10  and  O_35
    8  A    between atoms: C_12  and  N_18
    9  A    between atoms: C_12  and  C_33
   10  A    between atoms: C_13  and  N_34
   11  A    between atoms: N_18  and  C_36
   12  A    between atoms: N_20  and  C_22
   13  A    between atoms: C_21  and  C_25
                            x       y       z     vdW  Elec       q    Type
                         _______ _______ _______ _____ _____    ______ ____

>  <TORSDO>
F 13

$$$$
=
 OpenBabel11072415023D

 39 41  0  0  1  0  0  0  0  0999 V2000
  161.4500  207.0620  153.3300 C   0  0  0  0  0  0  0  0  0  0  0  0
  160.1650  207.0470  155.3200 C   0  0  0  0  0  3  0  0  0  0  0  0
  160.1030  208.4040  155.3110 N   0  0  0  0  0  0  0  0  0  0  0  0
  160.7070  209.1310  154.3320 C   0  0  0  0  0  0  0  0  0  0  0  0
  161.3980  208.4610  153.3170 C   0  0  0  0  0  3  0  0  0  0  0  0
  160.8360  206.3900  154.3390 N   0  0  0  0  0  0  0  0  0  0  0  0
  160.3640  211.4340  152.9470 S   0  0  0  0  0  0  0  0  0  0  0  0
  160.6070  210.6060  154.3520 C   0  0  0  0  0  0  0  0  0  0  0  0
  160.4750  212.4190  156.0150 C   0  0  0  0  0  3  0  0  0  0  0  0
  160.9510  211.2920  155.5690 N   0  0  0  0  0  0  0  0  0  0  0  0
  159.3910  213.1910  155.3400 C   0  0  0  0  0  2  0  0  0  0  0  0
  158.1920  213.1590  156.1570 N   0  0  0  0  0  2  0  0  0  0  0  0
  157.7380  214.4090  154.1220 C   0  0  0  0  0  1  0  0  0  0  0  0
  157.2000  213.9870  155.4830 C   0  0  1  0  0  3  0  0  0  0  0  0
  155.8310  213.2750  155.3820 C   0  0  1  0  0  0  0  0  0  0  0  0
  154.9570  213.7720  156.4340 N   0  0  0  0  0  1  0  0  0  0  0  0
  155.1650  213.5630  154.0400 C   0  0  0  0  0  1  0  0  0  0  0  0
  155.9690  211.7560  155.5700 C   0  0  2  0  0  3  0  0  0  0  0  0
  155.5220  211.0760  154.4500 F   0  0  0  0  0  0  0  0  0  0  0  0
  155.2820  211.3050  156.7000 O   0  0  0  0  0  1  0  0  0  0  0  0
  162.1410  206.3270  152.3540 O   0  0  0  0  0  0  0  0  0  0  0  0
  160.9180  203.6520  150.0620 C   0  0  0  0  0  0  0  0  0  0  0  0
  161.4360  206.4210  150.0900 C   0  0  0  0  0  0  0  0  0  0  0  0
  161.5920  205.7060  151.2170 C   0  0  0  0  0  0  0  0  0  0  0  0
  161.8960  207.8180  149.9980 C   0  0  0  0  0  3  0  0  0  0  0  0
  160.8590  204.3930  148.8750 O   0  0  0  0  0  0  0  0  0  0  0  0
  161.9780  208.4220  148.8100 C   0  0  0  0  0  0  0  0  0  0  0  0
  160.7180  205.8150  148.9030 C   0  0  2  0  0  3  0  0  0  0  0  0
  161.1150  206.4520  147.5930 C   0  0  0  0  0  0  0  0  0  0  0  0
  161.2500  204.2630  151.2030 C   0  0  0  0  0  3  0  0  0  0  0  0
  161.6520  207.6800  147.5680 C   0  0  0  0  0  3  0  0  0  0  0  0
  161.3230  201.4290  150.7540 O   0  0  0  0  0  1  0  0  0  0  0  0
  160.6400  202.2110  150.0400 C   0  0  0  0  0  0  0  0  0  0  0  0
  159.6280  201.6970  149.2370 O   0  0  0  0  0  0  0  0  0  0  0  0
  160.8030  205.7590  146.3080 C   0  0  0  0  0  2  0  0  0  0  0  0
  162.0560  205.1440  145.7080 C   0  0  0  0  0  1  0  0  0  0  0  0
  162.4380  209.7730  148.7530 N   0  0  0  0  0  2  0  0  0  0  0  0
  161.8990  210.8220  149.6030 C   0  0  0  0  0  2  0  0  0  0  0  0
  161.8540  212.1240  148.8320 C   0  0  0  0  0  1  0  0  0  0  0  0
  1  6  2  0  0  0  0
  3  2  2  0  0  0  0
  4  8  1  0  0  0  0
  4  3  1  0  0  0  0
  5  1  1  0  0  0  0
  5  4  2  0  0  0  0
  6  2  1  0  0  0  0
  7  8  2  0  0  0  0
  8 10  1  0  0  0  0
 10  9  2  0  0  0  0
 11  9  1  0  0  0  0
 11 12  1  0  0  0  0
 14 13  1  6  0  0  0
 14 12  1  0  0  0  0
 15 17  1  6  0  0  0
 15 14  1  0  0  0  0
 15 18  1  0  0  0  0
 15 16  1  0  0  0  0
 18 19  1  6  0  0  0
 18 20  1  0  0  0  0
 21  1  1  0  0  0  0
 22 30  2  0  0  0  0
 23 24  2  0  0  0  0
 24 21  1  0  0  0  0
 25 23  1  0  0  0  0
 26 28  1  0  0  0  0
 26 22  1  0  0  0  0
 27 25  2  0  0  0  0
 28 29  1  6  0  0  0
 28 23  1  0  0  0  0
 30 24  1  0  0  0  0
 31 29  2  0  0  0  0
 31 27  1  0  0  0  0
 33 22  1  0  0  0  0
 33 32  1  0  0  0  0
 34 33  2  0  0  0  0
 35 29  1  0  0  0  0
 36 35  1  0  0  0  0
 37 27  1  0  0  0  0
 37 38  1  0  0  0  0
 39 38  1  0  0  0  0
M  END
>  <MODEL>
5

>  <REMARK>
 VINA RESULT:      -7.0      2.374      4.258
  Name = 
  13 active torsions:
  status: ('A' for Active; 'I' for Inactive)
    1  A    between atoms: C_1  and  O_35
    2  A    between atoms: C_2  and  C_32
    3  A    between atoms: C_3  and  N_20
    4  A    between atoms: C_7  and  C_13
    5  A    between atoms: C_8  and  C_17
    6  A    between atoms: C_8  and  C_36
    7  A    between atoms: C_10  and  O_35
    8  A    between atoms: C_12  and  N_18
    9  A    between atoms: C_12  and  C_33
   10  A    between atoms: C_13  and  N_34
   11  A    between atoms: N_18  and  C_36
   12  A    between atoms: N_20  and  C_22
   13  A    between atoms: C_21  and  C_25
                            x       y       z     vdW  Elec       q    Type
                         _______ _______ _______ _____ _____    ______ ____

>  <TORSDO>
F 13

$$$$
=
 OpenBabel11072415023D

 39 41  0  0  1  0  0  0  0  0999 V2000
  162.1680  211.4880  148.6370 C   0  0  0  0  0  0  0  0  0  0  0  0
  163.2920  212.9330  147.1350 C   0  0  0  0  0  3  0  0  0  0  0  0
  162.1360  213.1620  146.4610 N   0  0  0  0  0  0  0  0  0  0  0  0
  160.9700  212.5670  146.8380 C   0  0  0  0  0  0  0  0  0  0  0  0
  160.9730  211.7110  147.9440 C   0  0  0  0  0  3  0  0  0  0  0  0
  163.3020  212.1020  148.2090 N   0  0  0  0  0  0  0  0  0  0  0  0
  158.6230  213.9110  146.6890 S   0  0  0  0  0  0  0  0  0  0  0  0
  159.7310  212.8490  146.0840 C   0  0  0  0  0  0  0  0  0  0  0  0
  159.6780  212.2480  143.6950 C   0  0  0  0  0  3  0  0  0  0  0  0
  159.4220  212.0180  144.9510 N   0  0  0  0  0  0  0  0  0  0  0  0
  160.4320  213.4380  143.2030 C   0  0  0  0  0  2  0  0  0  0  0  0
  161.7500  213.0270  142.7580 N   0  0  0  0  0  2  0  0  0  0  0  0
  163.4910  214.4470  141.8300 C   0  0  0  0  0  1  0  0  0  0  0  0
  162.0950  213.8720  141.6220 C   0  0  1  0  0  3  0  0  0  0  0  0
  161.9620  213.1150  140.2800 C   0  0  1  0  0  0  0  0  0  0  0  0
  160.5520  212.9840  139.9460 N   0  0  0  0  0  1  0  0  0  0  0  0
  162.6460  213.8810  139.1520 C   0  0  0  0  0  1  0  0  0  0  0  0
  162.5530  211.6990  140.3700 C   0  0  2  0  0  3  0  0  0  0  0  0
  163.5070  211.4970  139.3880 F   0  0  0  0  0  0  0  0  0  0  0  0
  161.5670  210.7140  140.2770 O   0  0  0  0  0  1  0  0  0  0  0  0
  162.2450  210.6280  149.7450 O   0  0  0  0  0  0  0  0  0  0  0  0
  161.8110  207.1490  148.4750 C   0  0  0  0  0  0  0  0  0  0  0  0
  161.9430  208.5780  150.9000 C   0  0  0  0  0  0  0  0  0  0  0  0
  162.1260  209.2270  149.7380 C   0  0  0  0  0  0  0  0  0  0  0  0
  161.7890  209.3080  152.1700 C   0  0  0  0  0  3  0  0  0  0  0  0
  161.5230  206.5100  149.6870 O   0  0  0  0  0  0  0  0  0  0  0  0
  161.3470  208.6770  153.2600 C   0  0  0  0  0  0  0  0  0  0  0  0
  161.9560  207.0640  150.9320 C   0  0  2  0  0  3  0  0  0  0  0  0
  161.1910  206.4990  152.1030 C   0  0  0  0  0  0  0  0  0  0  0  0
  162.1210  208.4490  148.4750 C   0  0  0  0  0  3  0  0  0  0  0  0
  160.9620  207.2460  153.1930 C   0  0  0  0  0  3  0  0  0  0  0  0
  162.6780  205.6090  146.9070 O   0  0  0  0  0  1  0  0  0  0  0  0
  161.7470  206.3970  147.2170 C   0  0  0  0  0  0  0  0  0  0  0  0
  160.6630  206.5460  146.3580 O   0  0  0  0  0  0  0  0  0  0  0  0
  160.7850  205.0610  152.0990 C   0  0  0  0  0  2  0  0  0  0  0  0
  161.9430  204.1760  151.6710 C   0  0  0  0  0  1  0  0  0  0  0  0
  161.1990  209.4160  154.4740 N   0  0  0  0  0  2  0  0  0  0  0  0
  160.9040  210.8390  154.4960 C   0  0  0  0  0  2  0  0  0  0  0  0
  159.4280  211.0530  154.2400 C   0  0  0  0  0  1  0  0  0  0  0  0
  1 21  1  0  0  0  0
  2  6  1  0  0  0  0
  3  4  1  0  0  0  0
  3  2  2  0  0  0  0
  4  5  2  0  0  0  0
  5  1  1  0  0  0  0
  6  1  2  0  0  0  0
  8  7  2  0  0  0  0
  8  4  1  0  0  0  0
  9 10  2  0  0  0  0
 10  8  1  0  0  0  0
 11  9  1  0  0  0  0
 12 11  1  0  0  0  0
 14 13  1  1  0  0  0
 14 12  1  0  0  0  0
 15 17  1  6  0  0  0
 15 18  1  0  0  0  0
 15 14  1  0  0  0  0
 16 15  1  0  0  0  0
 18 19  1  6  0  0  0
 20 18  1  0  0  0  0
 22 30  2  0  0  0  0
 22 26  1  0  0  0  0
 23 28  1  0  0  0  0
 23 25  1  0  0  0  0
 24 21  1  0  0  0  0
 24 23  2  0  0  0  0
 25 27  2  0  0  0  0
 27 37  1  0  0  0  0
 28 26  1  6  0  0  0
 28 29  1  0  0  0  0
 29 31  2  0  0  0  0
 30 24  1  0  0  0  0
 31 27  1  0  0  0  0
 32 33  1  0  0  0  0
 33 22  1  0  0  0  0
 34 33  2  0  0  0  0
 35 29  1  0  0  0  0
 36 35  1  0  0  0  0
 37 38  1  0  0  0  0
 39 38  1  0  0  0  0
M  END
>  <MODEL>
6

>  <REMARK>
 VINA RESULT:      -6.8      6.798     10.094
  Name = 
  13 active torsions:
  status: ('A' for Active; 'I' for Inactive)
    1  A    between atoms: C_1  and  O_35
    2  A    between atoms: C_2  and  C_32
    3  A    between atoms: C_3  and  N_20
    4  A    between atoms: C_7  and  C_13
    5  A    between atoms: C_8  and  C_17
    6  A    between atoms: C_8  and  C_36
    7  A    between atoms: C_10  and  O_35
    8  A    between atoms: C_12  and  N_18
    9  A    between atoms: C_12  and  C_33
   10  A    between atoms: C_13  and  N_34
   11  A    between atoms: N_18  and  C_36
   12  A    between atoms: N_20  and  C_22
   13  A    between atoms: C_21  and  C_25
                            x       y       z     vdW  Elec       q    Type
                         _______ _______ _______ _____ _____    ______ ____

>  <TORSDO>
F 13

$$$$
=
 OpenBabel11072415023D

 39 41  0  0  1  0  0  0  0  0999 V2000
  160.7160  209.9270  153.6780 C   0  0  0  0  0  0  0  0  0  0  0  0
  160.5530  208.1280  155.2100 C   0  0  0  0  0  3  0  0  0  0  0  0
  160.9250  207.2480  154.2450 N   0  0  0  0  0  0  0  0  0  0  0  0
  161.1960  207.6650  152.9770 C   0  0  0  0  0  0  0  0  0  0  0  0
  161.0910  209.0270  152.6740 C   0  0  0  0  0  3  0  0  0  0  0  0
  160.4480  209.4510  154.9230 N   0  0  0  0  0  0  0  0  0  0  0  0
  161.1970  205.0900  152.1360 S   0  0  0  0  0  0  0  0  0  0  0  0
  161.6070  206.6780  151.9570 C   0  0  0  0  0  0  0  0  0  0  0  0
  162.3420  207.2410  149.6740 C   0  0  0  0  0  3  0  0  0  0  0  0
  162.5480  207.0940  150.9510 N   0  0  0  0  0  0  0  0  0  0  0  0
  161.0140  207.0600  149.0180 C   0  0  0  0  0  2  0  0  0  0  0  0
  160.8430  205.6680  148.6450 N   0  0  0  0  0  2  0  0  0  0  0  0
  161.3220  206.9560  146.6410 C   0  0  0  0  0  1  0  0  0  0  0  0
  160.8460  205.6170  147.1890 C   0  0  1  0  0  3  0  0  0  0  0  0
  161.6810  204.4290  146.6570 C   0  0  1  0  0  0  0  0  0  0  0  0
  163.0700  204.8450  146.5270 N   0  0  0  0  0  1  0  0  0  0  0  0
  161.6300  203.2500  147.6240 C   0  0  0  0  0  1  0  0  0  0  0  0
  161.1990  203.9760  145.2700 C   0  0  2  0  0  3  0  0  0  0  0  0
  160.2610  204.8570  144.7600 F   0  0  0  0  0  0  0  0  0  0  0  0
  160.6640  202.6850  145.2990 O   0  0  0  0  0  1  0  0  0  0  0  0
  160.5750  211.3030  153.4390 O   0  0  0  0  0  0  0  0  0  0  0  0
  157.2230  212.5630  154.4800 C   0  0  0  0  0  0  0  0  0  0  0  0
  159.0430  212.7410  152.3360 C   0  0  0  0  0  0  0  0  0  0  0  0
  159.3790  212.0430  153.4350 C   0  0  0  0  0  0  0  0  0  0  0  0
  159.8620  212.6870  151.1130 C   0  0  0  0  0  3  0  0  0  0  0  0
  156.8500  213.1990  153.2890 O   0  0  0  0  0  0  0  0  0  0  0  0
  159.3830  213.1620  149.9610 C   0  0  0  0  0  0  0  0  0  0  0  0
  157.8370  213.6560  152.3610 C   0  0  2  0  0  3  0  0  0  0  0  0
  157.2570  213.8940  150.9880 C   0  0  0  0  0  0  0  0  0  0  0  0
  158.4380  212.0150  154.5810 C   0  0  0  0  0  3  0  0  0  0  0  0
  158.0050  213.7070  149.8910 C   0  0  0  0  0  3  0  0  0  0  0  0
  155.5880  213.4860  155.9140 O   0  0  0  0  0  0  0  0  0  0  0  0
  156.2720  212.4790  155.5940 C   0  0  0  0  0  0  0  0  0  0  0  0
  156.1180  211.2940  156.3060 O   0  0  0  0  0  1  0  0  0  0  0  0
  155.8790  214.4530  150.8520 C   0  0  0  0  0  2  0  0  0  0  0  0
  155.3830  214.3260  149.4220 C   0  0  0  0  0  1  0  0  0  0  0  0
  160.1980  213.0860  148.7900 N   0  0  0  0  0  2  0  0  0  0  0  0
  161.6450  213.2110  148.8320 C   0  0  0  0  0  2  0  0  0  0  0  0
  162.2780  211.9170  148.3660 C   0  0  0  0  0  1  0  0  0  0  0  0
  1  6  2  0  0  0  0
  3  2  2  0  0  0  0
  4  3  1  0  0  0  0
  5  4  2  0  0  0  0
  5  1  1  0  0  0  0
  6  2  1  0  0  0  0
  8  7  2  0  0  0  0
  8  4  1  0  0  0  0
  9 10  2  0  0  0  0
 10  8  1  0  0  0  0
 11  9  1  0  0  0  0
 12 11  1  0  0  0  0
 14 13  1  6  0  0  0
 14 12  1  0  0  0  0
 15 14  1  0  0  0  0
 15 17  1  1  0  0  0
 16 15  1  0  0  0  0
 18 19  1  1  0  0  0
 18 20  1  0  0  0  0
 18 15  1  0  0  0  0
 21  1  1  0  0  0  0
 22 30  2  0  0  0  0
 22 33  1  0  0  0  0
 23 28  1  0  0  0  0
 23 24  2  0  0  0  0
 24 21  1  0  0  0  0
 24 30  1  0  0  0  0
 25 23  1  0  0  0  0
 26 22  1  0  0  0  0
 27 25  2  0  0  0  0
 28 29  1  6  0  0  0
 28 26  1  0  0  0  0
 31 27  1  0  0  0  0
 31 29  2  0  0  0  0
 33 32  2  0  0  0  0
 33 34  1  0  0  0  0
 35 29  1  0  0  0  0
 36 35  1  0  0  0  0
 37 38  1  0  0  0  0
 37 27  1  0  0  0  0
 39 38  1  0  0  0  0
M  END
>  <MODEL>
7

>  <REMARK>
 VINA RESULT:      -6.6      3.608      9.021
  Name = 
  13 active torsions:
  status: ('A' for Active; 'I' for Inactive)
    1  A    between atoms: C_1  and  O_35
    2  A    between atoms: C_2  and  C_32
    3  A    between atoms: C_3  and  N_20
    4  A    between atoms: C_7  and  C_13
    5  A    between atoms: C_8  and  C_17
    6  A    between atoms: C_8  and  C_36
    7  A    between atoms: C_10  and  O_35
    8  A    between atoms: C_12  and  N_18
    9  A    between atoms: C_12  and  C_33
   10  A    between atoms: C_13  and  N_34
   11  A    between atoms: N_18  and  C_36
   12  A    between atoms: N_20  and  C_22
   13  A    between atoms: C_21  and  C_25
                            x       y       z     vdW  Elec       q    Type
                         _______ _______ _______ _____ _____    ______ ____

>  <TORSDO>
F 13

$$$$
=
 OpenBabel11072415023D

 39 41  0  0  1  0  0  0  0  0999 V2000
  162.0040  210.5920  149.0900 C   0  0  0  0  0  0  0  0  0  0  0  0
  161.9240  212.7060  148.0260 C   0  0  0  0  0  3  0  0  0  0  0  0
  161.1500  213.2000  149.0270 N   0  0  0  0  0  0  0  0  0  0  0  0
  160.7740  212.4210  150.0770 C   0  0  0  0  0  0  0  0  0  0  0  0
  161.2010  211.0890  150.1210 C   0  0  0  0  0  3  0  0  0  0  0  0
  162.3410  211.4140  148.0620 N   0  0  0  0  0  0  0  0  0  0  0  0
  159.1370  214.4170  150.8980 S   0  0  0  0  0  0  0  0  0  0  0  0
  159.9390  212.9990  151.1520 C   0  0  0  0  0  0  0  0  0  0  0  0
  159.1740  212.5140  153.4420 C   0  0  0  0  0  3  0  0  0  0  0  0
  160.0310  212.4220  152.4660 N   0  0  0  0  0  0  0  0  0  0  0  0
  157.8580  213.2100  153.3340 C   0  0  0  0  0  2  0  0  0  0  0  0
  157.6310  214.0060  154.5260 N   0  0  0  0  0  2  0  0  0  0  0  0
  155.4450  213.2870  153.7450 C   0  0  0  0  0  1  0  0  0  0  0  0
  156.2580  213.7590  154.9440 C   0  0  1  0  0  3  0  0  0  0  0  0
  156.1880  212.7690  156.1310 C   0  0  1  0  0  0  0  0  0  0  0  0
  157.4800  212.7380  156.8010 N   0  0  0  0  0  1  0  0  0  0  0  0
  155.1390  213.2100  157.1480 C   0  0  0  0  0  1  0  0  0  0  0  0
  155.8740  211.3410  155.6570 C   0  0  2  0  0  3  0  0  0  0  0  0
  155.0350  210.6970  156.5500 F   0  0  0  0  0  0  0  0  0  0  0  0
  157.0350  210.5850  155.4730 O   0  0  0  0  0  1  0  0  0  0  0  0
  162.4540  209.2620  149.0620 O   0  0  0  0  0  0  0  0  0  0  0  0
  161.2470  207.0410  151.8040 C   0  0  0  0  0  0  0  0  0  0  0  0
  161.6100  207.0450  149.0100 C   0  0  0  0  0  0  0  0  0  0  0  0
  161.8730  208.1590  149.7140 C   0  0  0  0  0  0  0  0  0  0  0  0
  161.9840  206.9280  147.5900 C   0  0  0  0  0  3  0  0  0  0  0  0
  161.0750  205.8620  151.0690 O   0  0  0  0  0  0  0  0  0  0  0  0
  161.9610  205.7390  146.9830 C   0  0  0  0  0  0  0  0  0  0  0  0
  160.8560  205.9020  149.6570 C   0  0  2  0  0  3  0  0  0  0  0  0
  161.1380  204.5720  149.0000 C   0  0  0  0  0  0  0  0  0  0  0  0
  161.6130  208.1620  151.1740 C   0  0  0  0  0  3  0  0  0  0  0  0
  161.6020  204.5170  147.7440 C   0  0  0  0  0  3  0  0  0  0  0  0
  161.0600  205.9440  153.8880 O   0  0  0  0  0  0  0  0  0  0  0  0
  161.0500  207.0340  153.2580 C   0  0  0  0  0  0  0  0  0  0  0  0
  160.8510  208.2230  153.9520 O   0  0  0  0  0  1  0  0  0  0  0  0
  160.7880  203.3060  149.7120 C   0  0  0  0  0  2  0  0  0  0  0  0
  161.0400  202.1000  148.8230 C   0  0  0  0  0  1  0  0  0  0  0  0
  162.3390  205.6580  145.6080 N   0  0  0  0  0  2  0  0  0  0  0  0
  161.3780  205.7470  144.5230 C   0  0  0  0  0  2  0  0  0  0  0  0
  159.9870  205.4760  145.0560 C   0  0  0  0  0  1  0  0  0  0  0  0
  1  5  1  0  0  0  0
  2  6  1  0  0  0  0
  2  3  2  0  0  0  0
  3  4  1  0  0  0  0
  4  5  2  0  0  0  0
  4  8  1  0  0  0  0
  6  1  2  0  0  0  0
  7  8  2  0  0  0  0
  8 10  1  0  0  0  0
 10  9  2  0  0  0  0
 11  9  1  0  0  0  0
 11 12  1  0  0  0  0
 12 14  1  0  0  0  0
 14 13  1  6  0  0  0
 14 15  1  0  0  0  0
 15 16  1  0  0  0  0
 15 17  1  1  0  0  0
 18 20  1  1  0  0  0
 18 15  1  0  0  0  0
 18 19  1  0  0  0  0
 21  1  1  0  0  0  0
 21 24  1  0  0  0  0
 22 33  1  0  0  0  0
 23 28  1  0  0  0  0
 23 24  2  0  0  0  0
 24 30  1  0  0  0  0
 25 23  1  0  0  0  0
 26 22  1  0  0  0  0
 27 25  2  0  0  0  0
 27 31  1  0  0  0  0
 28 29  1  6  0  0  0
 28 26  1  0  0  0  0
 29 35  1  0  0  0  0
 30 22  2  0  0  0  0
 31 29  2  0  0  0  0
 33 32  2  0  0  0  0
 33 34  1  0  0  0  0
 36 35  1  0  0  0  0
 37 27  1  0  0  0  0
 38 39  1  0  0  0  0
 38 37  1  0  0  0  0
M  END
>  <MODEL>
8

>  <REMARK>
 VINA RESULT:      -6.4      2.692      4.784
  Name = 
  13 active torsions:
  status: ('A' for Active; 'I' for Inactive)
    1  A    between atoms: C_1  and  O_35
    2  A    between atoms: C_2  and  C_32
    3  A    between atoms: C_3  and  N_20
    4  A    between atoms: C_7  and  C_13
    5  A    between atoms: C_8  and  C_17
    6  A    between atoms: C_8  and  C_36
    7  A    between atoms: C_10  and  O_35
    8  A    between atoms: C_12  and  N_18
    9  A    between atoms: C_12  and  C_33
   10  A    between atoms: C_13  and  N_34
   11  A    between atoms: N_18  and  C_36
   12  A    between atoms: N_20  and  C_22
   13  A    between atoms: C_21  and  C_25
                            x       y       z     vdW  Elec       q    Type
                         _______ _______ _______ _____ _____    ______ ____

>  <TORSDO>
F 13

$$$$
=
 OpenBabel11072415023D

 39 41  0  0  1  0  0  0  0  0999 V2000
  161.9690  211.1350  149.4850 C   0  0  0  0  0  0  0  0  0  0  0  0
  161.7600  212.3800  147.4810 C   0  0  0  0  0  3  0  0  0  0  0  0
  160.8160  213.1730  148.0500 N   0  0  0  0  0  0  0  0  0  0  0  0
  160.4130  212.9760  149.3360 C   0  0  0  0  0  0  0  0  0  0  0  0
  160.9910  211.9400  150.0780 C   0  0  0  0  0  3  0  0  0  0  0  0
  162.3250  211.3730  148.1950 N   0  0  0  0  0  0  0  0  0  0  0  0
  158.1300  214.3950  148.9970 S   0  0  0  0  0  0  0  0  0  0  0  0
  159.3890  213.8660  149.9230 C   0  0  0  0  0  0  0  0  0  0  0  0
  158.9540  214.2560  152.3160 C   0  0  0  0  0  3  0  0  0  0  0  0
  159.6420  214.4260  151.2230 N   0  0  0  0  0  0  0  0  0  0  0  0
  157.7710  213.3540  152.4250 C   0  0  0  0  0  2  0  0  0  0  0  0
  157.4460  213.1460  153.8240 N   0  0  0  0  0  2  0  0  0  0  0  0
  158.6410  211.2030  152.9830 C   0  0  0  0  0  1  0  0  0  0  0  0
  157.8780  211.7950  154.1610 C   0  0  1  0  0  3  0  0  0  0  0  0
  158.6980  211.7640  155.4720 C   0  0  1  0  0  0  0  0  0  0  0  0
  157.9240  212.3920  156.5320 N   0  0  0  0  0  1  0  0  0  0  0  0
  158.9980  210.3290  155.8930 C   0  0  0  0  0  1  0  0  0  0  0  0
  160.0150  212.5430  155.3320 C   0  0  2  0  0  3  0  0  0  0  0  0
  161.1000  211.7400  155.6370 F   0  0  0  0  0  0  0  0  0  0  0  0
  160.0340  213.6860  156.1360 O   0  0  0  0  0  1  0  0  0  0  0  0
  162.5780  210.0680  150.1650 O   0  0  0  0  0  0  0  0  0  0  0  0
  161.2210  207.8270  152.8180 C   0  0  0  0  0  0  0  0  0  0  0  0
  161.6310  207.8970  150.0310 C   0  0  0  0  0  0  0  0  0  0  0  0
  161.9350  208.9750  150.7730 C   0  0  0  0  0  0  0  0  0  0  0  0
  162.0230  207.8060  148.6140 C   0  0  0  0  0  3  0  0  0  0  0  0
  161.0060  206.6800  152.0440 O   0  0  0  0  0  0  0  0  0  0  0  0
  161.9530  206.6380  147.9710 C   0  0  0  0  0  0  0  0  0  0  0  0
  160.8130  206.7730  150.6310 C   0  0  2  0  0  3  0  0  0  0  0  0
  161.0420  205.4510  149.9380 C   0  0  0  0  0  0  0  0  0  0  0  0
  161.6510  208.9470  152.2290 C   0  0  0  0  0  3  0  0  0  0  0  0
  161.5250  205.4120  148.6870 C   0  0  0  0  0  3  0  0  0  0  0  0
  161.6010  208.5970  155.0190 O   0  0  0  0  0  1  0  0  0  0  0  0
  161.0000  207.7850  154.2680 C   0  0  0  0  0  0  0  0  0  0  0  0
  160.1310  206.8530  154.8250 O   0  0  0  0  0  0  0  0  0  0  0  0
  160.6210  204.1820  150.6040 C   0  0  0  0  0  2  0  0  0  0  0  0
  160.9000  204.2380  152.0960 C   0  0  0  0  0  1  0  0  0  0  0  0
  162.3510  206.5800  146.6000 N   0  0  0  0  0  2  0  0  0  0  0  0
  161.6550  205.7700  145.6140 C   0  0  0  0  0  2  0  0  0  0  0  0
  160.1800  206.1080  145.6330 C   0  0  0  0  0  1  0  0  0  0  0  0
  1  5  1  0  0  0  0
  1 21  1  0  0  0  0
  2  3  2  0  0  0  0
  2  6  1  0  0  0  0
  3  4  1  0  0  0  0
  4  8  1  0  0  0  0
  4  5  2  0  0  0  0
  6  1  2  0  0  0  0
  7  8  2  0  0  0  0
  8 10  1  0  0  0  0
  9 11  1  0  0  0  0
 10  9  2  0  0  0  0
 11 12  1  0  0  0  0
 12 14  1  0  0  0  0
 14 13  1  6  0  0  0
 14 15  1  0  0  0  0
 15 17  1  1  0  0  0
 15 16  1  0  0  0  0
 18 15  1  0  0  0  0
 18 19  1  1  0  0  0
 18 20  1  0  0  0  0
 21 24  1  0  0  0  0
 22 33  1  0  0  0  0
 23 28  1  0  0  0  0
 23 24  2  0  0  0  0
 24 30  1  0  0  0  0
 25 23  1  0  0  0  0
 26 22  1  0  0  0  0
 27 25  2  0  0  0  0
 27 31  1  0  0  0  0
 28 29  1  6  0  0  0
 28 26  1  0  0  0  0
 29 35  1  0  0  0  0
 30 22  2  0  0  0  0
 31 29  2  0  0  0  0
 33 34  2  0  0  0  0
 33 32  1  0  0  0  0
 35 36  1  0  0  0  0
 37 27  1  0  0  0  0
 38 39  1  0  0  0  0
 38 37  1  0  0  0  0
M  END
>  <MODEL>
9

>  <REMARK>
 VINA RESULT:      -6.4      3.180      5.327
  Name = 
  13 active torsions:
  status: ('A' for Active; 'I' for Inactive)
    1  A    between atoms: C_1  and  O_35
    2  A    between atoms: C_2  and  C_32
    3  A    between atoms: C_3  and  N_20
    4  A    between atoms: C_7  and  C_13
    5  A    between atoms: C_8  and  C_17
    6  A    between atoms: C_8  and  C_36
    7  A    between atoms: C_10  and  O_35
    8  A    between atoms: C_12  and  N_18
    9  A    between atoms: C_12  and  C_33
   10  A    between atoms: C_13  and  N_34
   11  A    between atoms: N_18  and  C_36
   12  A    between atoms: N_20  and  C_22
   13  A    between atoms: C_21  and  C_25
                            x       y       z     vdW  Elec       q    Type
                         _______ _______ _______ _____ _____    ______ ____

>  <TORSDO>
F 13

$$$$
