=
 OpenBabel11072413593D

 29 31  0  0  1  0  0  0  0  0999 V2000
  161.6020  208.0630  149.8450 C   0  0  0  0  0  0  0  0  0  0  0  0
  161.9270  210.3040  150.9160 S   0  0  0  0  0  0  0  0  0  0  0  0
  161.6080  207.9180  152.2690 C   0  0  0  0  0  3  0  0  0  0  0  0
  161.3600  205.9530  150.9100 N   0  0  0  0  0  0  0  0  0  0  0  0
  161.6850  208.6540  151.0940 C   0  0  0  0  0  0  0  0  0  0  0  0
  161.7520  208.9160  148.7990 N   0  0  0  0  0  0  0  0  0  0  0  0
  161.4230  206.6740  149.7490 C   0  0  0  0  0  0  0  0  0  0  0  0
  161.4440  206.5330  152.1440 C   0  0  0  0  0  3  0  0  0  0  0  0
  161.9330  210.1900  149.2250 C   0  0  0  0  0  0  0  0  0  0  0  0
  161.9450  204.5910  148.2670 C   0  0  2  0  0  3  0  0  0  0  0  0
  161.7010  204.9240  145.8090 C   0  0  0  0  0  0  0  0  0  0  0  0
  162.0040  204.5810  144.5340 F   0  0  0  0  0  0  0  0  0  0  0  0
  160.7790  206.0350  146.0810 C   0  0  0  0  0  0  0  0  0  0  0  0
  160.7250  206.5960  147.4350 C   0  0  0  0  0  3  0  0  0  0  0  0
  160.1040  206.5520  145.1530 O   0  0  0  0  0  0  0  0  0  0  0  0
  161.3060  205.9590  148.4610 C   0  0  0  0  0  0  0  0  0  0  0  0
  162.3040  204.3050  146.8250 C   0  0  0  0  0  3  0  0  0  0  0  0
  161.0140  203.4910  148.7560 C   0  0  0  0  0  2  0  0  0  0  0  0
  161.0060  202.3330  147.7740 C   0  0  0  0  0  2  0  0  0  0  0  0
  161.1990  201.0490  148.4990 C   0  0  0  0  0  0  0  0  0  0  0  0
  160.9830  200.9810  149.8680 O   0  0  0  0  0  1  0  0  0  0  0  0
  161.5640  200.0220  147.8690 O   0  0  0  0  0  0  0  0  0  0  0  0
  161.0430  211.7870  147.5100 N   0  0  0  0  0  2  0  0  0  0  0  0
  162.1290  211.3190  148.3130 C   0  0  0  0  0  0  0  0  0  0  0  0
  163.2580  211.8750  148.2400 O   0  0  0  0  0  0  0  0  0  0  0  0
  162.4710  212.9340  145.5990 O   0  0  0  0  0  0  0  0  0  0  0  0
  159.8040  213.1500  145.3080 C   0  0  0  0  0  1  0  0  0  0  0  0
  161.2780  214.3910  147.1640 O   0  0  0  0  0  0  0  0  0  0  0  0
  161.2080  213.1020  146.3960 S   0  0  0  0  0  0  0  0  0  0  0  0
  1  5  1  0  0  0  0
  2  5  1  0  0  0  0
  4  8  2  0  0  0  0
  5  3  2  0  0  0  0
  6  9  2  0  0  0  0
  6  1  1  0  0  0  0
  7  1  2  0  0  0  0
  7  4  1  0  0  0  0
  8  3  1  0  0  0  0
  9  2  1  0  0  0  0
 10 16  1  0  0  0  0
 10 18  1  6  0  0  0
 11 13  1  0  0  0  0
 11 17  2  0  0  0  0
 12 11  1  0  0  0  0
 13 14  1  0  0  0  0
 14 16  2  0  0  0  0
 15 13  2  0  0  0  0
 16  7  1  0  0  0  0
 17 10  1  0  0  0  0
 19 20  1  0  0  0  0
 19 18  1  0  0  0  0
 20 21  1  0  0  0  0
 22 20  2  0  0  0  0
 23 24  1  0  0  0  0
 24  9  1  0  0  0  0
 25 24  2  0  0  0  0
 26 29  2  0  0  0  0
 27 29  1  0  0  0  0
 29 28  2  0  0  0  0
 29 23  1  0  0  0  0
M  END
>  <MODEL>
1

>  <REMARK>
 VINA RESULT:      -8.9      0.000      0.000
  Name = 
  6 active torsions:
  status: ('A' for Active; 'I' for Inactive)
    1  A    between atoms: N_1  and  S_22
    2  A    between atoms: C_2  and  C_5
    3  A    between atoms: C_2  and  C_26
    4  A    between atoms: C_7  and  C_26
    5  A    between atoms: C_17  and  C_28
    6  A    between atoms: C_18  and  C_21
                            x       y       z     vdW  Elec       q    Type
                         _______ _______ _______ _____ _____    ______ ____

>  <TORSDO>
F 6

$$$$
=
 OpenBabel11072413593D

 29 31  0  0  1  0  0  0  0  0999 V2000
  161.3730  206.3200  150.3970 C   0  0  0  0  0  0  0  0  0  0  0  0
  161.6300  208.0320  152.2090 S   0  0  0  0  0  0  0  0  0  0  0  0
  161.3330  205.3160  152.6070 C   0  0  0  0  0  3  0  0  0  0  0  0
  161.1530  203.9660  150.6290 N   0  0  0  0  0  0  0  0  0  0  0  0
  161.4180  206.4250  151.7770 C   0  0  0  0  0  0  0  0  0  0  0  0
  161.5260  207.4940  149.7310 N   0  0  0  0  0  0  0  0  0  0  0  0
  161.2250  205.0560  149.8050 C   0  0  0  0  0  0  0  0  0  0  0  0
  161.2000  204.0660  151.9910 C   0  0  0  0  0  3  0  0  0  0  0  0
  161.6710  208.5320  150.5900 C   0  0  0  0  0  0  0  0  0  0  0  0
  161.7440  203.6060  147.7000 C   0  0  2  0  0  3  0  0  0  0  0  0
  161.6430  204.7980  145.5130 C   0  0  0  0  0  0  0  0  0  0  0  0
  161.9990  204.9110  144.2110 F   0  0  0  0  0  0  0  0  0  0  0  0
  160.7510  205.7900  146.1290 C   0  0  0  0  0  0  0  0  0  0  0  0
  160.6470  205.8380  147.5910 C   0  0  0  0  0  3  0  0  0  0  0  0
  160.1460  206.6360  145.4220 O   0  0  0  0  0  0  0  0  0  0  0  0
  161.1480  204.8500  148.3450 C   0  0  0  0  0  0  0  0  0  0  0  0
  162.1680  203.8280  146.2640 C   0  0  0  0  0  3  0  0  0  0  0  0
  160.7480  202.4560  147.7340 C   0  0  0  0  0  2  0  0  0  0  0  0
  160.8680  201.6190  146.4720 C   0  0  0  0  0  2  0  0  0  0  0  0
  161.2560  200.2260  146.8200 C   0  0  0  0  0  0  0  0  0  0  0  0
  161.2420  199.2350  145.8480 O   0  0  0  0  0  0  0  0  0  0  0  0
  161.5940  199.9440  147.9990 O   0  0  0  0  0  1  0  0  0  0  0  0
  161.5460  210.2880  148.8050 N   0  0  0  0  0  2  0  0  0  0  0  0
  161.8620  209.9160  150.1480 C   0  0  0  0  0  0  0  0  0  0  0  0
  162.3050  210.7750  150.9570 O   0  0  0  0  0  0  0  0  0  0  0  0
  161.1890  212.8830  149.1870 O   0  0  0  0  0  0  0  0  0  0  0  0
  163.4980  212.2200  147.9710 C   0  0  0  0  0  1  0  0  0  0  0  0
  161.0550  212.0370  146.8930 O   0  0  0  0  0  0  0  0  0  0  0  0
  161.7660  211.8980  148.2090 S   0  0  0  0  0  0  0  0  0  0  0  0
  1  5  1  0  0  0  0
  4  8  2  0  0  0  0
  5  2  1  0  0  0  0
  5  3  2  0  0  0  0
  6  1  1  0  0  0  0
  6  9  2  0  0  0  0
  7  1  2  0  0  0  0
  7  4  1  0  0  0  0
  8  3  1  0  0  0  0
  9  2  1  0  0  0  0
 10 18  1  6  0  0  0
 10 16  1  0  0  0  0
 11 13  1  0  0  0  0
 11 17  2  0  0  0  0
 12 11  1  0  0  0  0
 13 14  1  0  0  0  0
 14 16  2  0  0  0  0
 15 13  2  0  0  0  0
 16  7  1  0  0  0  0
 17 10  1  0  0  0  0
 19 20  1  0  0  0  0
 19 18  1  0  0  0  0
 20 22  1  0  0  0  0
 21 20  2  0  0  0  0
 23 24  1  0  0  0  0
 24  9  1  0  0  0  0
 24 25  2  0  0  0  0
 27 29  1  0  0  0  0
 28 29  2  0  0  0  0
 29 23  1  0  0  0  0
 29 26  2  0  0  0  0
M  END
>  <MODEL>
2

>  <REMARK>
 VINA RESULT:      -8.5      1.669      2.202
  Name = 
  6 active torsions:
  status: ('A' for Active; 'I' for Inactive)
    1  A    between atoms: N_1  and  S_22
    2  A    between atoms: C_2  and  C_5
    3  A    between atoms: C_2  and  C_26
    4  A    between atoms: C_7  and  C_26
    5  A    between atoms: C_17  and  C_28
    6  A    between atoms: C_18  and  C_21
                            x       y       z     vdW  Elec       q    Type
                         _______ _______ _______ _____ _____    ______ ____

>  <TORSDO>
F 6

$$$$
=
 OpenBabel11072413593D

 29 31  0  0  1  0  0  0  0  0999 V2000
  161.4740  207.1600  150.4780 C   0  0  0  0  0  0  0  0  0  0  0  0
  161.5260  209.2830  151.8090 S   0  0  0  0  0  0  0  0  0  0  0  0
  161.7920  209.1090  149.0660 C   0  0  0  0  0  3  0  0  0  0  0  0
  161.6510  206.9050  148.1230 N   0  0  0  0  0  0  0  0  0  0  0  0
  161.6250  208.5260  150.3150 C   0  0  0  0  0  0  0  0  0  0  0  0
  161.2650  206.7590  151.7590 N   0  0  0  0  0  0  0  0  0  0  0  0
  161.4980  206.3230  149.3520 C   0  0  0  0  0  0  0  0  0  0  0  0
  161.7990  208.2530  147.9580 C   0  0  0  0  0  3  0  0  0  0  0  0
  161.2730  207.8120  152.6120 C   0  0  0  0  0  0  0  0  0  0  0  0
  160.9120  204.0460  148.2220 C   0  0  2  0  0  3  0  0  0  0  0  0
  160.4120  202.1640  149.7780 C   0  0  0  0  0  0  0  0  0  0  0  0
  159.8250  200.9720  150.0410 F   0  0  0  0  0  0  0  0  0  0  0  0
  161.1920  202.8530  150.8150 C   0  0  0  0  0  0  0  0  0  0  0  0
  161.5320  204.2670  150.6230 C   0  0  0  0  0  3  0  0  0  0  0  0
  161.4970  202.2670  151.8860 O   0  0  0  0  0  0  0  0  0  0  0  0
  161.3630  204.8540  149.4310 C   0  0  0  0  0  0  0  0  0  0  0  0
  160.2160  202.7560  148.5990 C   0  0  0  0  0  3  0  0  0  0  0  0
  162.0990  203.7080  147.3320 C   0  0  0  0  0  2  0  0  0  0  0  0
  161.6640  203.6410  145.8780 C   0  0  0  0  0  2  0  0  0  0  0  0
  161.5950  205.0110  145.3030 C   0  0  0  0  0  0  0  0  0  0  0  0
  160.3850  205.5180  144.8500 O   0  0  0  0  0  0  0  0  0  0  0  0
  162.6380  205.7110  145.2220 O   0  0  0  0  0  1  0  0  0  0  0  0
  160.9020  208.8370  154.8690 N   0  0  0  0  0  2  0  0  0  0  0  0
  161.0650  207.6740  154.0560 C   0  0  0  0  0  0  0  0  0  0  0  0
  161.0280  206.5260  154.5750 O   0  0  0  0  0  0  0  0  0  0  0  0
  161.9960  208.5270  157.2600 O   0  0  0  0  0  0  0  0  0  0  0  0
  159.9350  210.2570  157.1700 C   0  0  0  0  0  1  0  0  0  0  0  0
  159.7580  207.6000  156.8990 O   0  0  0  0  0  0  0  0  0  0  0  0
  160.6730  208.7500  156.5830 S   0  0  0  0  0  0  0  0  0  0  0  0
  1  6  1  0  0  0  0
  2  9  1  0  0  0  0
  3  5  2  0  0  0  0
  4  7  1  0  0  0  0
  5  1  1  0  0  0  0
  5  2  1  0  0  0  0
  6  9  2  0  0  0  0
  7 16  1  0  0  0  0
  7  1  2  0  0  0  0
  8  4  2  0  0  0  0
  8  3  1  0  0  0  0
  9 24  1  0  0  0  0
 10 18  1  6  0  0  0
 10 17  1  0  0  0  0
 10 16  1  0  0  0  0
 11 12  1  0  0  0  0
 11 13  1  0  0  0  0
 13 15  2  0  0  0  0
 14 13  1  0  0  0  0
 16 14  2  0  0  0  0
 17 11  2  0  0  0  0
 19 18  1  0  0  0  0
 20 19  1  0  0  0  0
 21 20  2  0  0  0  0
 22 20  1  0  0  0  0
 23 29  1  0  0  0  0
 24 25  2  0  0  0  0
 24 23  1  0  0  0  0
 29 28  2  0  0  0  0
 29 27  1  0  0  0  0
 29 26  2  0  0  0  0
M  END
>  <MODEL>
3

>  <REMARK>
 VINA RESULT:      -8.1      3.865      6.309
  Name = 
  6 active torsions:
  status: ('A' for Active; 'I' for Inactive)
    1  A    between atoms: N_1  and  S_22
    2  A    between atoms: C_2  and  C_5
    3  A    between atoms: C_2  and  C_26
    4  A    between atoms: C_7  and  C_26
    5  A    between atoms: C_17  and  C_28
    6  A    between atoms: C_18  and  C_21
                            x       y       z     vdW  Elec       q    Type
                         _______ _______ _______ _____ _____    ______ ____

>  <TORSDO>
F 6

$$$$
=
 OpenBabel11072413593D

 29 31  0  0  1  0  0  0  0  0999 V2000
  161.2610  207.8360  152.2170 C   0  0  0  0  0  0  0  0  0  0  0  0
  161.4100  210.3340  152.3480 S   0  0  0  0  0  0  0  0  0  0  0  0
  160.9420  208.6450  154.4830 C   0  0  0  0  0  3  0  0  0  0  0  0
  160.9050  206.2950  153.9900 N   0  0  0  0  0  0  0  0  0  0  0  0
  161.1680  208.8700  153.1320 C   0  0  0  0  0  0  0  0  0  0  0  0
  161.5400  208.2230  150.9450 N   0  0  0  0  0  0  0  0  0  0  0  0
  161.1150  206.5100  152.6560 C   0  0  0  0  0  0  0  0  0  0  0  0
  160.8150  207.3140  154.8960 C   0  0  0  0  0  3  0  0  0  0  0  0
  161.6450  209.5710  150.8530 C   0  0  0  0  0  0  0  0  0  0  0  0
  160.5400  205.3940  150.3700 C   0  0  2  0  0  3  0  0  0  0  0  0
  160.6790  202.9050  150.3160 C   0  0  0  0  0  0  0  0  0  0  0  0
  160.3240  201.7130  149.7790 F   0  0  0  0  0  0  0  0  0  0  0  0
  161.6070  202.9620  151.4530 C   0  0  0  0  0  0  0  0  0  0  0  0
  161.7160  204.2090  152.2170 C   0  0  0  0  0  3  0  0  0  0  0  0
  162.2410  201.9380  151.8170 O   0  0  0  0  0  0  0  0  0  0  0  0
  161.1810  205.3450  151.7490 C   0  0  0  0  0  0  0  0  0  0  0  0
  160.1210  204.0290  149.8630 C   0  0  0  0  0  3  0  0  0  0  0  0
  161.4940  206.0080  149.3570 C   0  0  0  0  0  2  0  0  0  0  0  0
  160.8470  206.0520  147.9830 C   0  0  0  0  0  2  0  0  0  0  0  0
  161.7520  205.4400  146.9740 C   0  0  0  0  0  0  0  0  0  0  0  0
  162.0560  204.0870  147.0390 O   0  0  0  0  0  1  0  0  0  0  0  0
  162.2460  206.1510  146.0600 O   0  0  0  0  0  0  0  0  0  0  0  0
  161.8510  211.6910  149.5310 N   0  0  0  0  0  2  0  0  0  0  0  0
  161.9470  210.2670  149.6000 C   0  0  0  0  0  0  0  0  0  0  0  0
  162.2940  209.6030  148.5850 O   0  0  0  0  0  0  0  0  0  0  0  0
  161.2000  212.1660  147.0100 O   0  0  0  0  0  0  0  0  0  0  0  0
  162.0350  214.3200  148.3920 C   0  0  0  0  0  1  0  0  0  0  0  0
  163.5700  212.2700  147.6160 O   0  0  0  0  0  0  0  0  0  0  0  0
  162.1740  212.5760  148.0780 S   0  0  0  0  0  0  0  0  0  0  0  0
  1  7  2  0  0  0  0
  1  5  1  0  0  0  0
  2  5  1  0  0  0  0
  3  8  1  0  0  0  0
  4  8  2  0  0  0  0
  5  3  2  0  0  0  0
  6  1  1  0  0  0  0
  7  4  1  0  0  0  0
  9  6  2  0  0  0  0
  9  2  1  0  0  0  0
 10 18  1  6  0  0  0
 10 16  1  0  0  0  0
 11 13  1  0  0  0  0
 12 11  1  0  0  0  0
 13 15  2  0  0  0  0
 13 14  1  0  0  0  0
 16 14  2  0  0  0  0
 16  7  1  0  0  0  0
 17 11  2  0  0  0  0
 17 10  1  0  0  0  0
 19 18  1  0  0  0  0
 20 21  1  0  0  0  0
 20 19  1  0  0  0  0
 22 20  2  0  0  0  0
 23 24  1  0  0  0  0
 24  9  1  0  0  0  0
 25 24  2  0  0  0  0
 26 29  2  0  0  0  0
 28 29  2  0  0  0  0
 29 27  1  0  0  0  0
 29 23  1  0  0  0  0
M  END
>  <MODEL>
4

>  <REMARK>
 VINA RESULT:      -8.0      2.296      3.893
  Name = 
  6 active torsions:
  status: ('A' for Active; 'I' for Inactive)
    1  A    between atoms: N_1  and  S_22
    2  A    between atoms: C_2  and  C_5
    3  A    between atoms: C_2  and  C_26
    4  A    between atoms: C_7  and  C_26
    5  A    between atoms: C_17  and  C_28
    6  A    between atoms: C_18  and  C_21
                            x       y       z     vdW  Elec       q    Type
                         _______ _______ _______ _____ _____    ______ ____

>  <TORSDO>
F 6

$$$$
=
 OpenBabel11072413593D

 29 31  0  0  1  0  0  0  0  0999 V2000
  161.1200  205.0940  150.9290 C   0  0  0  0  0  0  0  0  0  0  0  0
  161.1400  206.0810  153.2330 S   0  0  0  0  0  0  0  0  0  0  0  0
  161.0960  203.3810  152.6490 C   0  0  0  0  0  3  0  0  0  0  0  0
  161.1240  202.7980  150.3200 N   0  0  0  0  0  0  0  0  0  0  0  0
  161.1030  204.7140  152.2600 C   0  0  0  0  0  0  0  0  0  0  0  0
  161.1830  206.4350  150.7200 N   0  0  0  0  0  0  0  0  0  0  0  0
  161.1200  204.1090  149.9290 C   0  0  0  0  0  0  0  0  0  0  0  0
  161.1090  202.4200  151.6330 C   0  0  0  0  0  3  0  0  0  0  0  0
  161.1930  207.1160  151.8920 C   0  0  0  0  0  0  0  0  0  0  0  0
  161.5850  203.3910  147.4650 C   0  0  2  0  0  3  0  0  0  0  0  0
  161.8010  205.2510  145.8190 C   0  0  0  0  0  0  0  0  0  0  0  0
  162.2600  205.7410  144.6420 F   0  0  0  0  0  0  0  0  0  0  0  0
  161.0100  206.1010  146.7200 C   0  0  0  0  0  0  0  0  0  0  0  0
  160.8110  205.6690  148.1070 C   0  0  0  0  0  3  0  0  0  0  0  0
  160.5760  207.2170  146.3340 O   0  0  0  0  0  0  0  0  0  0  0  0
  161.1190  204.4210  148.4850 C   0  0  0  0  0  0  0  0  0  0  0  0
  162.1350  204.0170  146.2010 C   0  0  0  0  0  3  0  0  0  0  0  0
  160.4420  202.4630  147.0810 C   0  0  0  0  0  2  0  0  0  0  0  0
  160.9010  201.4720  146.0270 C   0  0  0  0  0  2  0  0  0  0  0  0
  161.2550  200.1750  146.6650 C   0  0  0  0  0  0  0  0  0  0  0  0
  161.3420  199.0210  145.8980 O   0  0  0  0  0  0  0  0  0  0  0  0
  161.4730  200.1240  147.9030 O   0  0  0  0  0  1  0  0  0  0  0  0
  160.2080  209.3130  152.5890 N   0  0  0  0  0  2  0  0  0  0  0  0
  161.2640  208.5770  151.9680 C   0  0  0  0  0  0  0  0  0  0  0  0
  162.2610  209.1800  151.4860 O   0  0  0  0  0  0  0  0  0  0  0  0
  160.7570  211.6240  151.4210 O   0  0  0  0  0  0  0  0  0  0  0  0
  158.5660  211.6340  152.9840 C   0  0  0  0  0  1  0  0  0  0  0  0
  161.0950  211.4590  153.8400 O   0  0  0  0  0  0  0  0  0  0  0  0
  160.2160  211.0410  152.6960 S   0  0  0  0  0  0  0  0  0  0  0  0
  1  5  1  0  0  0  0
  4  8  2  0  0  0  0
  5  3  2  0  0  0  0
  5  2  1  0  0  0  0
  6  1  1  0  0  0  0
  6  9  2  0  0  0  0
  7  4  1  0  0  0  0
  7  1  2  0  0  0  0
  8  3  1  0  0  0  0
  9 24  1  0  0  0  0
  9  2  1  0  0  0  0
 10 18  1  6  0  0  0
 10 16  1  0  0  0  0
 11 17  2  0  0  0  0
 11 13  1  0  0  0  0
 12 11  1  0  0  0  0
 13 14  1  0  0  0  0
 14 16  2  0  0  0  0
 15 13  2  0  0  0  0
 16  7  1  0  0  0  0
 17 10  1  0  0  0  0
 19 20  1  0  0  0  0
 19 18  1  0  0  0  0
 20 22  1  0  0  0  0
 21 20  2  0  0  0  0
 23 29  1  0  0  0  0
 24 23  1  0  0  0  0
 25 24  2  0  0  0  0
 26 29  2  0  0  0  0
 29 27  1  0  0  0  0
 29 28  2  0  0  0  0
M  END
>  <MODEL>
5

>  <REMARK>
 VINA RESULT:      -7.8      3.149      3.933
  Name = 
  6 active torsions:
  status: ('A' for Active; 'I' for Inactive)
    1  A    between atoms: N_1  and  S_22
    2  A    between atoms: C_2  and  C_5
    3  A    between atoms: C_2  and  C_26
    4  A    between atoms: C_7  and  C_26
    5  A    between atoms: C_17  and  C_28
    6  A    between atoms: C_18  and  C_21
                            x       y       z     vdW  Elec       q    Type
                         _______ _______ _______ _____ _____    ______ ____

>  <TORSDO>
F 6

$$$$
=
 OpenBabel11072413593D

 29 31  0  0  1  0  0  0  0  0999 V2000
  161.5560  207.1370  150.4650 C   0  0  0  0  0  0  0  0  0  0  0  0
  161.5860  209.2910  151.7440 S   0  0  0  0  0  0  0  0  0  0  0  0
  161.9560  209.0450  149.0180 C   0  0  0  0  0  3  0  0  0  0  0  0
  161.8220  206.8190  148.1250 N   0  0  0  0  0  0  0  0  0  0  0  0
  161.7330  208.4960  150.2740 C   0  0  0  0  0  0  0  0  0  0  0  0
  161.2920  206.7700  151.7460 N   0  0  0  0  0  0  0  0  0  0  0  0
  161.6130  206.2710  149.3610 C   0  0  0  0  0  0  0  0  0  0  0  0
  161.9940  208.1620  147.9330 C   0  0  0  0  0  3  0  0  0  0  0  0
  161.2820  207.8440  152.5730 C   0  0  0  0  0  0  0  0  0  0  0  0
  161.0390  203.9740  148.2670 C   0  0  2  0  0  3  0  0  0  0  0  0
  160.4560  202.1380  149.8490 C   0  0  0  0  0  0  0  0  0  0  0  0
  159.8430  200.9600  150.1190 F   0  0  0  0  0  0  0  0  0  0  0  0
  161.2070  202.8430  150.8970 C   0  0  0  0  0  0  0  0  0  0  0  0
  161.5730  204.2470  150.6830 C   0  0  0  0  0  3  0  0  0  0  0  0
  161.4640  202.2790  151.9930 O   0  0  0  0  0  0  0  0  0  0  0  0
  161.4550  204.8070  149.4720 C   0  0  0  0  0  0  0  0  0  0  0  0
  160.3120  202.7020  148.6490 C   0  0  0  0  0  3  0  0  0  0  0  0
  162.2530  203.5990  147.4300 C   0  0  0  0  0  2  0  0  0  0  0  0
  162.2350  204.3500  146.1100 C   0  0  0  0  0  2  0  0  0  0  0  0
  161.1500  203.8230  145.2380 C   0  0  0  0  0  0  0  0  0  0  0  0
  160.8270  202.4740  145.2650 O   0  0  0  0  0  1  0  0  0  0  0  0
  160.5270  204.6030  144.4720 O   0  0  0  0  0  0  0  0  0  0  0  0
  161.0480  208.9180  154.8260 N   0  0  0  0  0  2  0  0  0  0  0  0
  161.0160  207.7450  154.0100 C   0  0  0  0  0  0  0  0  0  0  0  0
  160.7570  206.6230  154.5220 O   0  0  0  0  0  0  0  0  0  0  0  0
  159.7850  209.9480  156.9120 O   0  0  0  0  0  0  0  0  0  0  0  0
  160.1250  207.2790  156.9940 C   0  0  0  0  0  1  0  0  0  0  0  0
  162.0600  209.1090  157.2530 O   0  0  0  0  0  0  0  0  0  0  0  0
  160.7640  208.8720  156.5320 S   0  0  0  0  0  0  0  0  0  0  0  0
  1  6  1  0  0  0  0
  2  9  1  0  0  0  0
  3  5  2  0  0  0  0
  4  7  1  0  0  0  0
  5  1  1  0  0  0  0
  5  2  1  0  0  0  0
  6  9  2  0  0  0  0
  7 16  1  0  0  0  0
  7  1  2  0  0  0  0
  8  4  2  0  0  0  0
  8  3  1  0  0  0  0
  9 24  1  0  0  0  0
 10 18  1  1  0  0  0
 10 17  1  0  0  0  0
 10 16  1  0  0  0  0
 11 12  1  0  0  0  0
 11 13  1  0  0  0  0
 13 15  2  0  0  0  0
 14 13  1  0  0  0  0
 16 14  2  0  0  0  0
 17 11  2  0  0  0  0
 19 18  1  0  0  0  0
 20 21  1  0  0  0  0
 20 19  1  0  0  0  0
 22 20  2  0  0  0  0
 23 29  1  0  0  0  0
 24 25  2  0  0  0  0
 24 23  1  0  0  0  0
 29 26  2  0  0  0  0
 29 27  1  0  0  0  0
 29 28  2  0  0  0  0
M  END
>  <MODEL>
6

>  <REMARK>
 VINA RESULT:      -7.8      4.006      6.204
  Name = 
  6 active torsions:
  status: ('A' for Active; 'I' for Inactive)
    1  A    between atoms: N_1  and  S_22
    2  A    between atoms: C_2  and  C_5
    3  A    between atoms: C_2  and  C_26
    4  A    between atoms: C_7  and  C_26
    5  A    between atoms: C_17  and  C_28
    6  A    between atoms: C_18  and  C_21
                            x       y       z     vdW  Elec       q    Type
                         _______ _______ _______ _____ _____    ______ ____

>  <TORSDO>
F 6

$$$$
=
 OpenBabel11072413593D

 29 31  0  0  1  0  0  0  0  0999 V2000
  161.4450  207.6790  150.2300 C   0  0  0  0  0  0  0  0  0  0  0  0
  161.6260  206.2270  148.1960 S   0  0  0  0  0  0  0  0  0  0  0  0
  162.2070  208.9250  148.2910 C   0  0  0  0  0  3  0  0  0  0  0  0
  161.9570  209.9900  150.4290 N   0  0  0  0  0  0  0  0  0  0  0  0
  161.7800  207.7470  148.8890 C   0  0  0  0  0  0  0  0  0  0  0  0
  161.1020  206.4400  150.6700 N   0  0  0  0  0  0  0  0  0  0  0  0
  161.5240  208.8350  151.0220 C   0  0  0  0  0  0  0  0  0  0  0  0
  162.2910  210.0600  149.1060 C   0  0  0  0  0  3  0  0  0  0  0  0
  161.1460  205.5320  149.6650 C   0  0  0  0  0  0  0  0  0  0  0  0
  161.0250  210.1820  153.1990 C   0  0  2  0  0  3  0  0  0  0  0  0
  161.2070  208.9000  155.3290 C   0  0  0  0  0  0  0  0  0  0  0  0
  161.4000  208.8560  156.6700 F   0  0  0  0  0  0  0  0  0  0  0  0
  160.9700  207.6640  154.5710 C   0  0  0  0  0  0  0  0  0  0  0  0
  161.0940  207.6950  153.1100 C   0  0  0  0  0  3  0  0  0  0  0  0
  160.7430  206.5790  155.1660 O   0  0  0  0  0  0  0  0  0  0  0  0
  161.1690  208.8610  152.4550 C   0  0  0  0  0  0  0  0  0  0  0  0
  161.3110  210.0610  154.6810 C   0  0  0  0  0  3  0  0  0  0  0  0
  159.6210  210.7430  153.0260 C   0  0  0  0  0  2  0  0  0  0  0  0
  159.6410  212.2570  153.1470 C   0  0  0  0  0  2  0  0  0  0  0  0
  159.2040  212.8760  151.8670 C   0  0  0  0  0  0  0  0  0  0  0  0
  160.0810  212.9540  150.7940 O   0  0  0  0  0  0  0  0  0  0  0  0
  158.0370  213.3360  151.7580 O   0  0  0  0  0  1  0  0  0  0  0  0
  161.0040  203.1920  148.7750 N   0  0  0  0  0  2  0  0  0  0  0  0
  160.8310  204.1130  149.8540 C   0  0  0  0  0  0  0  0  0  0  0  0
  160.4100  203.7100  150.9720 O   0  0  0  0  0  0  0  0  0  0  0  0
  159.1480  201.3280  149.0730 O   0  0  0  0  0  0  0  0  0  0  0  0
  161.2060  200.6380  147.4810 C   0  0  0  0  0  1  0  0  0  0  0  0
  161.3220  200.9560  150.1360 O   0  0  0  0  0  0  0  0  0  0  0  0
  160.6320  201.5080  148.9210 S   0  0  0  0  0  0  0  0  0  0  0  0
  1  6  1  0  0  0  0
  1  7  1  0  0  0  0
  2  5  1  0  0  0  0
  2  9  1  0  0  0  0
  3  5  1  0  0  0  0
  3  8  2  0  0  0  0
  4  7  2  0  0  0  0
  5  1  2  0  0  0  0
  7 16  1  0  0  0  0
  8  4  1  0  0  0  0
  9 24  1  0  0  0  0
  9  6  2  0  0  0  0
 10 18  1  1  0  0  0
 10 17  1  0  0  0  0
 11 12  1  0  0  0  0
 13 15  2  0  0  0  0
 13 11  1  0  0  0  0
 14 13  1  0  0  0  0
 16 14  2  0  0  0  0
 16 10  1  0  0  0  0
 17 11  2  0  0  0  0
 18 19  1  0  0  0  0
 20 19  1  0  0  0  0
 21 20  2  0  0  0  0
 22 20  1  0  0  0  0
 23 29  1  0  0  0  0
 23 24  1  0  0  0  0
 24 25  2  0  0  0  0
 27 29  1  0  0  0  0
 29 26  2  0  0  0  0
 29 28  2  0  0  0  0
M  END
>  <MODEL>
7

>  <REMARK>
 VINA RESULT:      -7.6      4.197      9.013
  Name = 
  6 active torsions:
  status: ('A' for Active; 'I' for Inactive)
    1  A    between atoms: N_1  and  S_22
    2  A    between atoms: C_2  and  C_5
    3  A    between atoms: C_2  and  C_26
    4  A    between atoms: C_7  and  C_26
    5  A    between atoms: C_17  and  C_28
    6  A    between atoms: C_18  and  C_21
                            x       y       z     vdW  Elec       q    Type
                         _______ _______ _______ _____ _____    ______ ____

>  <TORSDO>
F 6

$$$$
=
 OpenBabel11072413593D

 29 31  0  0  1  0  0  0  0  0999 V2000
  161.4450  207.6790  150.2320 C   0  0  0  0  0  0  0  0  0  0  0  0
  161.6260  206.2260  148.1980 S   0  0  0  0  0  0  0  0  0  0  0  0
  162.2070  208.9240  148.2920 C   0  0  0  0  0  3  0  0  0  0  0  0
  161.9560  209.9900  150.4300 N   0  0  0  0  0  0  0  0  0  0  0  0
  161.7800  207.7460  148.8910 C   0  0  0  0  0  0  0  0  0  0  0  0
  161.1020  206.4400  150.6720 N   0  0  0  0  0  0  0  0  0  0  0  0
  161.5240  208.8360  151.0230 C   0  0  0  0  0  0  0  0  0  0  0  0
  162.2900  210.0600  149.1060 C   0  0  0  0  0  3  0  0  0  0  0  0
  161.1460  205.5310  149.6670 C   0  0  0  0  0  0  0  0  0  0  0  0
  161.0410  210.1830  153.2030 C   0  0  2  0  0  3  0  0  0  0  0  0
  161.2060  208.8930  155.3310 C   0  0  0  0  0  0  0  0  0  0  0  0
  161.3990  208.8430  156.6710 F   0  0  0  0  0  0  0  0  0  0  0  0
  160.9540  207.6620  154.5690 C   0  0  0  0  0  0  0  0  0  0  0  0
  161.0790  207.6950  153.1080 C   0  0  0  0  0  3  0  0  0  0  0  0
  160.7140  206.5780  155.1610 O   0  0  0  0  0  0  0  0  0  0  0  0
  161.1690  208.8620  152.4560 C   0  0  0  0  0  0  0  0  0  0  0  0
  161.3240  210.0540  154.6850 C   0  0  0  0  0  3  0  0  0  0  0  0
  159.6440  210.7610  153.0320 C   0  0  0  0  0  2  0  0  0  0  0  0
  159.3940  211.8470  154.0630 C   0  0  0  0  0  2  0  0  0  0  0  0
  158.0570  211.6580  154.6890 C   0  0  0  0  0  0  0  0  0  0  0  0
  156.9600  212.3670  154.2190 O   0  0  0  0  0  0  0  0  0  0  0  0
  157.9220  210.8550  155.6500 O   0  0  0  0  0  1  0  0  0  0  0  0
  160.9990  203.1930  148.7770 N   0  0  0  0  0  2  0  0  0  0  0  0
  160.8320  204.1130  149.8570 C   0  0  0  0  0  0  0  0  0  0  0  0
  160.4150  203.7090  150.9760 O   0  0  0  0  0  0  0  0  0  0  0  0
  159.1430  201.3280  149.0710 O   0  0  0  0  0  0  0  0  0  0  0  0
  161.2060  200.6370  147.4870 C   0  0  0  0  0  1  0  0  0  0  0  0
  161.3140  200.9580  150.1410 O   0  0  0  0  0  0  0  0  0  0  0  0
  160.6280  201.5080  148.9230 S   0  0  0  0  0  0  0  0  0  0  0  0
  1  6  1  0  0  0  0
  1  7  1  0  0  0  0
  2  5  1  0  0  0  0
  2  9  1  0  0  0  0
  3  5  1  0  0  0  0
  3  8  2  0  0  0  0
  4  7  2  0  0  0  0
  5  1  2  0  0  0  0
  7 16  1  0  0  0  0
  8  4  1  0  0  0  0
  9 24  1  0  0  0  0
  9  6  2  0  0  0  0
 10 18  1  1  0  0  0
 10 17  1  0  0  0  0
 11 12  1  0  0  0  0
 13 15  2  0  0  0  0
 13 11  1  0  0  0  0
 14 13  1  0  0  0  0
 16 14  2  0  0  0  0
 16 10  1  0  0  0  0
 17 11  2  0  0  0  0
 18 19  1  0  0  0  0
 19 20  1  0  0  0  0
 20 22  1  0  0  0  0
 21 20  2  0  0  0  0
 23 29  1  0  0  0  0
 23 24  1  0  0  0  0
 24 25  2  0  0  0  0
 27 29  1  0  0  0  0
 29 26  2  0  0  0  0
 29 28  2  0  0  0  0
M  END
>  <MODEL>
8

>  <REMARK>
 VINA RESULT:      -7.6      4.736      9.042
  Name = 
  6 active torsions:
  status: ('A' for Active; 'I' for Inactive)
    1  A    between atoms: N_1  and  S_22
    2  A    between atoms: C_2  and  C_5
    3  A    between atoms: C_2  and  C_26
    4  A    between atoms: C_7  and  C_26
    5  A    between atoms: C_17  and  C_28
    6  A    between atoms: C_18  and  C_21
                            x       y       z     vdW  Elec       q    Type
                         _______ _______ _______ _____ _____    ______ ____

>  <TORSDO>
F 6

$$$$
=
 OpenBabel11072413593D

 29 31  0  0  1  0  0  0  0  0999 V2000
  161.0670  204.5820  150.8360 C   0  0  0  0  0  0  0  0  0  0  0  0
  160.8470  204.7700  153.3250 S   0  0  0  0  0  0  0  0  0  0  0  0
  161.0170  202.4050  151.9100 C   0  0  0  0  0  3  0  0  0  0  0  0
  161.2610  202.6070  149.5290 N   0  0  0  0  0  0  0  0  0  0  0  0
  160.9710  203.7910  151.9680 C   0  0  0  0  0  0  0  0  0  0  0  0
  161.0610  205.9190  151.0730 N   0  0  0  0  0  0  0  0  0  0  0  0
  161.2050  203.9740  149.5790 C   0  0  0  0  0  0  0  0  0  0  0  0
  161.1700  201.8240  150.6450 C   0  0  0  0  0  3  0  0  0  0  0  0
  160.9390  206.1850  152.3960 C   0  0  0  0  0  0  0  0  0  0  0  0
  160.8840  206.2000  148.2580 C   0  0  2  0  0  3  0  0  0  0  0  0
  160.7830  205.9810  145.7770 C   0  0  0  0  0  0  0  0  0  0  0  0
  160.3990  206.4470  144.5640 F   0  0  0  0  0  0  0  0  0  0  0  0
  161.5240  204.7180  145.8880 C   0  0  0  0  0  0  0  0  0  0  0  0
  161.6360  204.0750  147.2010 C   0  0  0  0  0  3  0  0  0  0  0  0
  161.9890  204.1540  144.8630 O   0  0  0  0  0  0  0  0  0  0  0  0
  161.2950  204.7350  148.3160 C   0  0  0  0  0  0  0  0  0  0  0  0
  160.4160  206.6300  146.8840 C   0  0  0  0  0  3  0  0  0  0  0  0
  162.0400  207.0980  148.6730 C   0  0  0  0  0  2  0  0  0  0  0  0
  161.9180  208.4560  148.0050 C   0  0  0  0  0  2  0  0  0  0  0  0
  162.0980  209.5370  149.0110 C   0  0  0  0  0  0  0  0  0  0  0  0
  162.0170  210.8680  148.6270 O   0  0  0  0  0  0  0  0  0  0  0  0
  162.3290  209.2440  150.2130 O   0  0  0  0  0  1  0  0  0  0  0  0
  161.2680  207.7750  154.3050 N   0  0  0  0  0  2  0  0  0  0  0  0
  160.9120  207.5440  152.9410 C   0  0  0  0  0  0  0  0  0  0  0  0
  160.5750  208.5080  152.2000 O   0  0  0  0  0  0  0  0  0  0  0  0
  161.9330  209.3160  156.3530 O   0  0  0  0  0  0  0  0  0  0  0  0
  162.0450  210.5150  153.9460 C   0  0  0  0  0  1  0  0  0  0  0  0
  159.8110  209.7750  155.2200 O   0  0  0  0  0  0  0  0  0  0  0  0
  161.2390  209.3510  155.0200 S   0  0  0  0  0  0  0  0  0  0  0  0
  1  6  1  0  0  0  0
  1  5  1  0  0  0  0
  3  5  2  0  0  0  0
  4  7  1  0  0  0  0
  4  8  2  0  0  0  0
  5  2  1  0  0  0  0
  6  9  2  0  0  0  0
  7  1  2  0  0  0  0
  8  3  1  0  0  0  0
  9 24  1  0  0  0  0
  9  2  1  0  0  0  0
 10 16  1  0  0  0  0
 10 18  1  6  0  0  0
 11 13  1  0  0  0  0
 11 17  2  0  0  0  0
 12 11  1  0  0  0  0
 13 14  1  0  0  0  0
 14 16  2  0  0  0  0
 15 13  2  0  0  0  0
 16  7  1  0  0  0  0
 17 10  1  0  0  0  0
 19 18  1  0  0  0  0
 19 20  1  0  0  0  0
 20 22  1  0  0  0  0
 21 20  2  0  0  0  0
 23 29  1  0  0  0  0
 24 23  1  0  0  0  0
 25 24  2  0  0  0  0
 27 29  1  0  0  0  0
 29 28  2  0  0  0  0
 29 26  2  0  0  0  0
M  END
>  <MODEL>
9

>  <REMARK>
 VINA RESULT:      -7.3      3.408      6.096
  Name = 
  6 active torsions:
  status: ('A' for Active; 'I' for Inactive)
    1  A    between atoms: N_1  and  S_22
    2  A    between atoms: C_2  and  C_5
    3  A    between atoms: C_2  and  C_26
    4  A    between atoms: C_7  and  C_26
    5  A    between atoms: C_17  and  C_28
    6  A    between atoms: C_18  and  C_21
                            x       y       z     vdW  Elec       q    Type
                         _______ _______ _______ _____ _____    ______ ____

>  <TORSDO>
F 6

$$$$
