=
 OpenBabel11072414253D

 26 28  0  0  0  0  0  0  0  0999 V2000
  161.1640  208.1220  147.9290 O   0  0  0  0  0  0  0  0  0  0  0  0
  161.4000  207.4140  148.9430 C   0  0  0  0  0  0  0  0  0  0  0  0
  161.8900  204.6050  145.3050 C   0  0  0  0  0  2  0  0  0  0  0  0
  161.7350  205.1370  148.1140 C   0  0  0  0  0  0  0  0  0  0  0  0
  160.7640  201.5370  147.3030 C   0  0  0  0  0  3  0  0  0  0  0  0
  161.1580  203.3110  145.6460 C   0  0  0  0  0  2  0  0  0  0  0  0
  161.1670  203.1880  149.5090 C   0  0  0  0  0  3  0  0  0  0  0  0
  161.1340  206.0040  148.8790 N   0  0  0  0  0  0  0  0  0  0  0  0
  162.9760  205.5250  147.3410 C   0  0  0  0  0  2  0  0  0  0  0  0
  163.1930  204.7160  146.0700 C   0  0  0  0  0  2  0  0  0  0  0  0
  160.6130  201.0260  148.5920 C   0  0  0  0  0  3  0  0  0  0  0  0
  160.8120  201.8530  149.6960 C   0  0  0  0  0  3  0  0  0  0  0  0
  161.3360  203.7180  148.2200 C   0  0  0  0  0  0  0  0  0  0  0  0
  161.1260  202.8730  147.0920 C   0  0  0  0  0  0  0  0  0  0  0  0
  161.8640  209.2980  150.3510 N   0  0  0  0  0  2  0  0  0  0  0  0
  162.0190  208.0320  150.1310 C   0  0  0  0  0  0  0  0  0  0  0  0
  162.7960  207.2510  150.9920 O   0  0  0  0  0  0  0  0  0  0  0  0
  162.2430  206.2030  151.7750 C   0  0  0  0  0  2  0  0  0  0  0  0
  160.9790  206.6920  152.4470 C   0  0  0  0  0  2  0  0  0  0  0  0
  160.3960  209.6360  156.2300 C   0  0  0  0  0  0  0  0  0  0  0  0
  160.2210  210.2770  154.8970 C   0  0  0  0  0  2  0  0  0  0  0  0
  160.6870  209.2840  153.8400 C   0  0  0  0  0  2  0  0  0  0  0  0
  161.3610  208.1400  156.2980 S   0  0  0  0  0  0  0  0  0  0  0  0
  159.8590  210.0900  157.2270 O   0  0  0  0  0  0  0  0  0  0  0  0
  161.1040  208.0260  154.5380 C   0  0  0  0  0  0  0  0  0  0  0  0
  161.2200  206.8510  153.9120 C   0  0  0  0  0  3  0  0  0  0  0  0
  1  2  2  0  0  0  0
  2 16  1  0  0  0  0
  3  6  1  0  0  0  0
  3 10  1  0  0  0  0
  4 13  1  0  0  0  0
  4  8  2  0  0  0  0
  5 11  1  0  0  0  0
  6 14  1  0  0  0  0
  7 12  1  0  0  0  0
  8  2  1  0  0  0  0
  9  4  1  0  0  0  0
 10  9  1  0  0  0  0
 11 12  2  0  0  0  0
 13  7  2  0  0  0  0
 14  5  2  0  0  0  0
 14 13  1  0  0  0  0
 16 15  2  0  0  0  0
 16 17  1  0  0  0  0
 17 18  1  0  0  0  0
 18 19  1  0  0  0  0
 19 26  1  0  0  0  0
 20 23  1  0  0  0  0
 20 24  2  0  0  0  0
 21 20  1  0  0  0  0
 22 25  1  0  0  0  0
 22 21  1  0  0  0  0
 25 23  1  0  0  0  0
 26 25  2  0  0  0  0
M  END
>  <MODEL>
1

>  <REMARK>
 VINA RESULT:      -8.6      0.000      0.000
  Name = 
  6 active torsions:
  status: ('A' for Active; 'I' for Inactive)
    1  A    between atoms: C_3  and  C_13
    2  A    between atoms: C_3  and  C_25
    3  A    between atoms: N_11  and  C_22
    4  A    between atoms: C_13  and  O_23
    5  A    between atoms: C_20  and  C_22
    6  A    between atoms: C_20  and  O_23
                            x       y       z     vdW  Elec       q    Type
                         _______ _______ _______ _____ _____    ______ ____

>  <TORSDO>
F 6

$$$$
=
 OpenBabel11072414253D

 26 28  0  0  0  0  0  0  0  0999 V2000
  160.8190  207.4450  148.7040 O   0  0  0  0  0  0  0  0  0  0  0  0
  161.1540  206.4710  149.4290 C   0  0  0  0  0  0  0  0  0  0  0  0
  161.3980  205.1080  145.0180 C   0  0  0  0  0  2  0  0  0  0  0  0
  161.5720  204.6580  147.8410 C   0  0  0  0  0  0  0  0  0  0  0  0
  160.8170  201.4360  145.9410 C   0  0  0  0  0  3  0  0  0  0  0  0
  160.8320  203.6920  144.9630 C   0  0  0  0  0  2  0  0  0  0  0  0
  161.3650  202.3020  148.5300 C   0  0  0  0  0  3  0  0  0  0  0  0
  161.0050  205.1400  148.9100 N   0  0  0  0  0  0  0  0  0  0  0  0
  162.6610  205.4320  147.1330 C   0  0  0  0  0  2  0  0  0  0  0  0
  162.7760  205.1240  145.6470 C   0  0  0  0  0  2  0  0  0  0  0  0
  160.8830  200.5130  146.9840 C   0  0  0  0  0  3  0  0  0  0  0  0
  161.1540  200.9460  148.2800 C   0  0  0  0  0  3  0  0  0  0  0  0
  161.3150  203.2450  147.4910 C   0  0  0  0  0  0  0  0  0  0  0  0
  161.0310  202.8010  146.1670 C   0  0  0  0  0  0  0  0  0  0  0  0
  162.6550  207.6580  150.8730 N   0  0  0  0  0  2  0  0  0  0  0  0
  161.7670  206.7240  150.7460 C   0  0  0  0  0  0  0  0  0  0  0  0
  161.4090  205.9320  151.8410 O   0  0  0  0  0  0  0  0  0  0  0  0
  161.8650  206.2030  153.1580 C   0  0  0  0  0  2  0  0  0  0  0  0
  160.7150  206.7290  153.9890 C   0  0  0  0  0  2  0  0  0  0  0  0
  160.3190  211.5410  154.0390 C   0  0  0  0  0  0  0  0  0  0  0  0
  159.8870  210.8840  152.7740 C   0  0  0  0  0  2  0  0  0  0  0  0
  160.3150  209.4250  152.8400 C   0  0  0  0  0  2  0  0  0  0  0  0
  161.4530  210.6460  155.0800 S   0  0  0  0  0  0  0  0  0  0  0  0
  159.8760  212.6280  154.3730 O   0  0  0  0  0  0  0  0  0  0  0  0
  160.9710  209.1930  154.1660 C   0  0  0  0  0  0  0  0  0  0  0  0
  161.1360  207.9760  154.6940 C   0  0  0  0  0  3  0  0  0  0  0  0
  1  2  2  0  0  0  0
  2 16  1  0  0  0  0
  3 10  1  0  0  0  0
  4  8  2  0  0  0  0
  5 14  2  0  0  0  0
  5 11  1  0  0  0  0
  6  3  1  0  0  0  0
  6 14  1  0  0  0  0
  8  2  1  0  0  0  0
  9  4  1  0  0  0  0
 10  9  1  0  0  0  0
 11 12  2  0  0  0  0
 12  7  1  0  0  0  0
 13  4  1  0  0  0  0
 13  7  2  0  0  0  0
 14 13  1  0  0  0  0
 16 15  2  0  0  0  0
 16 17  1  0  0  0  0
 17 18  1  0  0  0  0
 18 19  1  0  0  0  0
 19 26  1  0  0  0  0
 20 24  2  0  0  0  0
 20 23  1  0  0  0  0
 21 22  1  0  0  0  0
 21 20  1  0  0  0  0
 22 25  1  0  0  0  0
 25 26  2  0  0  0  0
 25 23  1  0  0  0  0
M  END
>  <MODEL>
2

>  <REMARK>
 VINA RESULT:      -8.6      1.450      1.659
  Name = 
  6 active torsions:
  status: ('A' for Active; 'I' for Inactive)
    1  A    between atoms: C_3  and  C_13
    2  A    between atoms: C_3  and  C_25
    3  A    between atoms: N_11  and  C_22
    4  A    between atoms: C_13  and  O_23
    5  A    between atoms: C_20  and  C_22
    6  A    between atoms: C_20  and  O_23
                            x       y       z     vdW  Elec       q    Type
                         _______ _______ _______ _____ _____    ______ ____

>  <TORSDO>
F 6

$$$$
=
 OpenBabel11072414253D

 26 28  0  0  0  0  0  0  0  0999 V2000
  160.3740  209.6880  152.3070 O   0  0  0  0  0  0  0  0  0  0  0  0
  160.7700  208.7420  153.0390 C   0  0  0  0  0  0  0  0  0  0  0  0
  161.1090  207.3720  148.6370 C   0  0  0  0  0  2  0  0  0  0  0  0
  161.3110  206.9520  151.4620 C   0  0  0  0  0  0  0  0  0  0  0  0
  160.7770  203.6750  149.5810 C   0  0  0  0  0  3  0  0  0  0  0  0
  160.6400  205.9220  148.5900 C   0  0  0  0  0  2  0  0  0  0  0  0
  161.2630  204.5920  152.1660 C   0  0  0  0  0  3  0  0  0  0  0  0
  160.7110  207.4020  152.5280 N   0  0  0  0  0  0  0  0  0  0  0  0
  162.3450  207.7940  150.7500 C   0  0  0  0  0  2  0  0  0  0  0  0
  162.4820  207.4850  149.2660 C   0  0  0  0  0  2  0  0  0  0  0  0
  160.9040  202.7650  150.6310 C   0  0  0  0  0  3  0  0  0  0  0  0
  161.1440  203.2240  151.9240 C   0  0  0  0  0  3  0  0  0  0  0  0
  161.1490  205.5230  151.1210 C   0  0  0  0  0  0  0  0  0  0  0  0
  160.8970  205.0530  149.8000 C   0  0  0  0  0  0  0  0  0  0  0  0
  161.3500  208.1430  155.2860 N   0  0  0  0  0  2  0  0  0  0  0  0
  161.3590  209.0440  154.3570 C   0  0  0  0  0  0  0  0  0  0  0  0
  161.8930  210.3130  154.6030 O   0  0  0  0  0  0  0  0  0  0  0  0
  162.1750  210.7770  155.9150 C   0  0  0  0  0  2  0  0  0  0  0  0
  160.9250  211.3890  156.5100 C   0  0  0  0  0  2  0  0  0  0  0  0
  156.6850  212.4630  154.4650 C   0  0  0  0  0  0  0  0  0  0  0  0
  156.7100  211.1880  155.2350 C   0  0  0  0  0  2  0  0  0  0  0  0
  158.1610  210.8860  155.5840 C   0  0  0  0  0  2  0  0  0  0  0  0
  158.2410  213.0900  153.8680 S   0  0  0  0  0  0  0  0  0  0  0  0
  155.6450  213.0790  154.2920 O   0  0  0  0  0  0  0  0  0  0  0  0
  159.0070  212.0050  155.0570 C   0  0  0  0  0  0  0  0  0  0  0  0
  160.2500  212.2430  155.4880 C   0  0  0  0  0  3  0  0  0  0  0  0
  1  2  2  0  0  0  0
  2 16  1  0  0  0  0
  3 10  1  0  0  0  0
  4  8  2  0  0  0  0
  5 14  2  0  0  0  0
  5 11  1  0  0  0  0
  6  3  1  0  0  0  0
  6 14  1  0  0  0  0
  8  2  1  0  0  0  0
  9  4  1  0  0  0  0
 10  9  1  0  0  0  0
 11 12  2  0  0  0  0
 12  7  1  0  0  0  0
 13  4  1  0  0  0  0
 13  7  2  0  0  0  0
 14 13  1  0  0  0  0
 16 17  1  0  0  0  0
 16 15  2  0  0  0  0
 17 18  1  0  0  0  0
 18 19  1  0  0  0  0
 20 21  1  0  0  0  0
 21 22  1  0  0  0  0
 23 20  1  0  0  0  0
 23 25  1  0  0  0  0
 24 20  2  0  0  0  0
 25 26  2  0  0  0  0
 25 22  1  0  0  0  0
 26 19  1  0  0  0  0
M  END
>  <MODEL>
3

>  <REMARK>
 VINA RESULT:      -8.1      2.857      4.483
  Name = 
  6 active torsions:
  status: ('A' for Active; 'I' for Inactive)
    1  A    between atoms: C_3  and  C_13
    2  A    between atoms: C_3  and  C_25
    3  A    between atoms: N_11  and  C_22
    4  A    between atoms: C_13  and  O_23
    5  A    between atoms: C_20  and  C_22
    6  A    between atoms: C_20  and  O_23
                            x       y       z     vdW  Elec       q    Type
                         _______ _______ _______ _____ _____    ______ ____

>  <TORSDO>
F 6

$$$$
=
 OpenBabel11072414253D

 26 28  0  0  0  0  0  0  0  0999 V2000
  162.3330  210.5150  150.7910 O   0  0  0  0  0  0  0  0  0  0  0  0
  161.9350  209.3430  151.0260 C   0  0  0  0  0  0  0  0  0  0  0  0
  160.2600  211.9910  154.4250 C   0  0  0  0  0  2  0  0  0  0  0  0
  160.7490  209.4680  153.1610 C   0  0  0  0  0  0  0  0  0  0  0  0
  160.2960  209.0960  156.9320 C   0  0  0  0  0  3  0  0  0  0  0  0
  160.4870  211.2310  155.7280 C   0  0  0  0  0  2  0  0  0  0  0  0
  160.6420  207.5180  154.6640 C   0  0  0  0  0  3  0  0  0  0  0  0
  161.6650  208.9630  152.3840 N   0  0  0  0  0  0  0  0  0  0  0  0
  159.6950  210.3980  152.6040 C   0  0  0  0  0  2  0  0  0  0  0  0
  159.1310  211.3780  153.6220 C   0  0  0  0  0  2  0  0  0  0  0  0
  160.3200  207.7060  157.0470 C   0  0  0  0  0  3  0  0  0  0  0  0
  160.4960  206.9170  155.9130 C   0  0  0  0  0  3  0  0  0  0  0  0
  160.6090  208.9150  154.5250 C   0  0  0  0  0  0  0  0  0  0  0  0
  160.4350  209.7210  155.6870 C   0  0  0  0  0  0  0  0  0  0  0  0
  162.1000  208.7290  148.7150 N   0  0  0  0  0  2  0  0  0  0  0  0
  161.6770  208.4260  149.9000 C   0  0  0  0  0  0  0  0  0  0  0  0
  160.9470  207.2530  150.1150 O   0  0  0  0  0  0  0  0  0  0  0  0
  161.4880  206.1380  150.8100 C   0  0  0  0  0  2  0  0  0  0  0  0
  160.9710  204.8600  150.1850 C   0  0  0  0  0  2  0  0  0  0  0  0
  160.8650  202.2300  146.1370 C   0  0  0  0  0  0  0  0  0  0  0  0
  160.8060  201.4460  147.4030 C   0  0  0  0  0  2  0  0  0  0  0  0
  161.1060  202.3980  148.5520 C   0  0  0  0  0  2  0  0  0  0  0  0
  161.5680  203.8640  146.2200 S   0  0  0  0  0  0  0  0  0  0  0  0
  160.4060  201.7890  145.0960 O   0  0  0  0  0  0  0  0  0  0  0  0
  161.3060  203.7680  147.9800 C   0  0  0  0  0  0  0  0  0  0  0  0
  161.2270  204.8820  148.7140 C   0  0  0  0  0  3  0  0  0  0  0  0
  1  2  2  0  0  0  0
  2  8  1  0  0  0  0
  3  6  1  0  0  0  0
  4 13  1  0  0  0  0
  5 11  1  0  0  0  0
  7 12  1  0  0  0  0
  8  4  2  0  0  0  0
  9  4  1  0  0  0  0
  9 10  1  0  0  0  0
 10  3  1  0  0  0  0
 12 11  2  0  0  0  0
 13  7  2  0  0  0  0
 13 14  1  0  0  0  0
 14  6  1  0  0  0  0
 14  5  2  0  0  0  0
 15 16  2  0  0  0  0
 16 17  1  0  0  0  0
 16  2  1  0  0  0  0
 17 18  1  0  0  0  0
 19 18  1  0  0  0  0
 20 23  1  0  0  0  0
 20 21  1  0  0  0  0
 21 22  1  0  0  0  0
 23 25  1  0  0  0  0
 24 20  2  0  0  0  0
 25 22  1  0  0  0  0
 25 26  2  0  0  0  0
 26 19  1  0  0  0  0
M  END
>  <MODEL>
4

>  <REMARK>
 VINA RESULT:      -7.9      2.967      8.667
  Name = 
  6 active torsions:
  status: ('A' for Active; 'I' for Inactive)
    1  A    between atoms: C_3  and  C_13
    2  A    between atoms: C_3  and  C_25
    3  A    between atoms: N_11  and  C_22
    4  A    between atoms: C_13  and  O_23
    5  A    between atoms: C_20  and  C_22
    6  A    between atoms: C_20  and  O_23
                            x       y       z     vdW  Elec       q    Type
                         _______ _______ _______ _____ _____    ______ ____

>  <TORSDO>
F 6

$$$$
=
 OpenBabel11072414253D

 26 28  0  0  0  0  0  0  0  0999 V2000
  162.7060  207.5540  151.0050 O   0  0  0  0  0  0  0  0  0  0  0  0
  162.3310  208.0720  149.9190 C   0  0  0  0  0  0  0  0  0  0  0  0
  161.3510  203.5540  149.8980 C   0  0  0  0  0  2  0  0  0  0  0  0
  161.3690  206.1660  148.7250 C   0  0  0  0  0  0  0  0  0  0  0  0
  161.2060  203.4280  146.0730 C   0  0  0  0  0  3  0  0  0  0  0  0
  161.5860  203.0590  148.4740 C   0  0  0  0  0  2  0  0  0  0  0  0
  161.1250  206.2040  146.2740 C   0  0  0  0  0  3  0  0  0  0  0  0
  162.1330  207.2210  148.7800 N   0  0  0  0  0  0  0  0  0  0  0  0
  160.4100  205.8530  149.8510 C   0  0  0  0  0  2  0  0  0  0  0  0
  160.0810  204.3730  149.9920 C   0  0  0  0  0  2  0  0  0  0  0  0
  161.0450  204.2050  144.9250 C   0  0  0  0  0  3  0  0  0  0  0  0
  161.0080  205.5940  145.0250 C   0  0  0  0  0  3  0  0  0  0  0  0
  161.2750  205.4390  147.4410 C   0  0  0  0  0  0  0  0  0  0  0  0
  161.3200  204.0190  147.3370 C   0  0  0  0  0  0  0  0  0  0  0  0
  161.8340  210.1670  150.9720 N   0  0  0  0  0  2  0  0  0  0  0  0
  162.0250  209.5140  149.8710 C   0  0  0  0  0  0  0  0  0  0  0  0
  161.9110  210.1570  148.6350 O   0  0  0  0  0  0  0  0  0  0  0  0
  162.4430  211.4530  148.4000 C   0  0  0  0  0  2  0  0  0  0  0  0
  161.3080  212.4460  148.2800 C   0  0  0  0  0  2  0  0  0  0  0  0
  161.6050  212.5820  143.4620 C   0  0  0  0  0  0  0  0  0  0  0  0
  162.6740  213.3280  144.1830 C   0  0  0  0  0  2  0  0  0  0  0  0
  162.2840  213.3930  145.6530 C   0  0  0  0  0  2  0  0  0  0  0  0
  160.0820  212.2860  144.3370 S   0  0  0  0  0  0  0  0  0  0  0  0
  161.7830  212.1490  142.3350 O   0  0  0  0  0  0  0  0  0  0  0  0
  160.9960  212.6480  145.8250 C   0  0  0  0  0  0  0  0  0  0  0  0
  160.5630  212.2040  147.0090 C   0  0  0  0  0  3  0  0  0  0  0  0
  2  1  2  0  0  0  0
  3 10  1  0  0  0  0
  4  8  2  0  0  0  0
  4  9  1  0  0  0  0
  5 14  1  0  0  0  0
  6  3  1  0  0  0  0
  7 13  1  0  0  0  0
  8  2  1  0  0  0  0
  9 10  1  0  0  0  0
 11 12  1  0  0  0  0
 11  5  2  0  0  0  0
 12  7  2  0  0  0  0
 13  4  1  0  0  0  0
 14 13  2  0  0  0  0
 14  6  1  0  0  0  0
 16  2  1  0  0  0  0
 16 15  2  0  0  0  0
 17 16  1  0  0  0  0
 18 17  1  0  0  0  0
 19 18  1  0  0  0  0
 20 21  1  0  0  0  0
 20 23  1  0  0  0  0
 21 22  1  0  0  0  0
 22 25  1  0  0  0  0
 23 25  1  0  0  0  0
 24 20  2  0  0  0  0
 25 26  2  0  0  0  0
 26 19  1  0  0  0  0
M  END
>  <MODEL>
5

>  <REMARK>
 VINA RESULT:      -7.8      4.410      6.906
  Name = 
  6 active torsions:
  status: ('A' for Active; 'I' for Inactive)
    1  A    between atoms: C_3  and  C_13
    2  A    between atoms: C_3  and  C_25
    3  A    between atoms: N_11  and  C_22
    4  A    between atoms: C_13  and  O_23
    5  A    between atoms: C_20  and  C_22
    6  A    between atoms: C_20  and  O_23
                            x       y       z     vdW  Elec       q    Type
                         _______ _______ _______ _____ _____    ______ ____

>  <TORSDO>
F 6

$$$$
=
 OpenBabel11072414253D

 26 28  0  0  0  0  0  0  0  0999 V2000
  160.9800  207.6960  148.2470 O   0  0  0  0  0  0  0  0  0  0  0  0
  161.1570  206.8650  149.1780 C   0  0  0  0  0  0  0  0  0  0  0  0
  161.4860  204.7510  145.0800 C   0  0  0  0  0  2  0  0  0  0  0  0
  161.5840  204.7980  147.9410 C   0  0  0  0  0  0  0  0  0  0  0  0
  160.8220  201.3040  146.6110 C   0  0  0  0  0  3  0  0  0  0  0  0
  160.8980  203.3550  145.2560 C   0  0  0  0  0  2  0  0  0  0  0  0
  161.3210  202.6020  149.0240 C   0  0  0  0  0  3  0  0  0  0  0  0
  160.9980  205.4670  148.8950 N   0  0  0  0  0  0  0  0  0  0  0  0
  162.7020  205.4250  147.1390 C   0  0  0  0  0  2  0  0  0  0  0  0
  162.8480  204.8600  145.7330 C   0  0  0  0  0  2  0  0  0  0  0  0
  160.8480  200.5760  147.8010 C   0  0  0  0  0  3  0  0  0  0  0  0
  161.0940  201.2260  149.0080 C   0  0  0  0  0  3  0  0  0  0  0  0
  161.3120  203.3490  147.8360 C   0  0  0  0  0  0  0  0  0  0  0  0
  161.0530  202.6850  146.6030 C   0  0  0  0  0  0  0  0  0  0  0  0
  162.3310  206.5750  151.2480 N   0  0  0  0  0  2  0  0  0  0  0  0
  161.6040  207.3420  150.5000 C   0  0  0  0  0  0  0  0  0  0  0  0
  161.2100  208.6060  150.9490 O   0  0  0  0  0  0  0  0  0  0  0  0
  162.1470  209.6190  151.2870 C   0  0  0  0  0  2  0  0  0  0  0  0
  161.8900  210.0890  152.7020 C   0  0  0  0  0  2  0  0  0  0  0  0
  158.2880  211.5070  155.5880 C   0  0  0  0  0  0  0  0  0  0  0  0
  159.1560  210.4300  156.1420 C   0  0  0  0  0  2  0  0  0  0  0  0
  160.0580  209.9380  155.0180 C   0  0  0  0  0  2  0  0  0  0  0  0
  158.2530  211.7000  153.8180 S   0  0  0  0  0  0  0  0  0  0  0  0
  157.6660  212.2590  156.3200 O   0  0  0  0  0  0  0  0  0  0  0  0
  159.7610  210.7500  153.7950 C   0  0  0  0  0  0  0  0  0  0  0  0
  160.5970  210.8330  152.7550 C   0  0  0  0  0  3  0  0  0  0  0  0
  1  2  2  0  0  0  0
  2 16  1  0  0  0  0
  3  6  1  0  0  0  0
  3 10  1  0  0  0  0
  4  8  2  0  0  0  0
  5 11  1  0  0  0  0
  6 14  1  0  0  0  0
  8  2  1  0  0  0  0
  9  4  1  0  0  0  0
 10  9  1  0  0  0  0
 11 12  2  0  0  0  0
 12  7  1  0  0  0  0
 13  4  1  0  0  0  0
 13  7  2  0  0  0  0
 14  5  2  0  0  0  0
 14 13  1  0  0  0  0
 16 17  1  0  0  0  0
 16 15  2  0  0  0  0
 17 18  1  0  0  0  0
 18 19  1  0  0  0  0
 19 26  1  0  0  0  0
 20 21  1  0  0  0  0
 20 24  2  0  0  0  0
 22 21  1  0  0  0  0
 23 20  1  0  0  0  0
 25 23  1  0  0  0  0
 25 22  1  0  0  0  0
 26 25  2  0  0  0  0
M  END
>  <MODEL>
6

>  <REMARK>
 VINA RESULT:      -7.7      1.824      2.175
  Name = 
  6 active torsions:
  status: ('A' for Active; 'I' for Inactive)
    1  A    between atoms: C_3  and  C_13
    2  A    between atoms: C_3  and  C_25
    3  A    between atoms: N_11  and  C_22
    4  A    between atoms: C_13  and  O_23
    5  A    between atoms: C_20  and  C_22
    6  A    between atoms: C_20  and  O_23
                            x       y       z     vdW  Elec       q    Type
                         _______ _______ _______ _____ _____    ______ ____

>  <TORSDO>
F 6

$$$$
=
 OpenBabel11072414253D

 26 28  0  0  0  0  0  0  0  0999 V2000
  162.3500  208.7310  151.1030 O   0  0  0  0  0  0  0  0  0  0  0  0
  161.4630  208.4200  151.9430 C   0  0  0  0  0  0  0  0  0  0  0  0
  160.4530  209.9710  156.1790 C   0  0  0  0  0  2  0  0  0  0  0  0
  160.5420  210.2140  153.3270 C   0  0  0  0  0  0  0  0  0  0  0  0
  157.8060  212.3980  154.8460 C   0  0  0  0  0  3  0  0  0  0  0  0
  159.1310  210.7260  156.0680 C   0  0  0  0  0  2  0  0  0  0  0  0
  158.9810  211.8670  152.3780 C   0  0  0  0  0  3  0  0  0  0  0  0
  160.4830  209.4030  152.3080 N   0  0  0  0  0  0  0  0  0  0  0  0
  161.8140  210.3430  154.1340 C   0  0  0  0  0  2  0  0  0  0  0  0
  161.5920  210.7690  155.5780 C   0  0  0  0  0  2  0  0  0  0  0  0
  157.3730  213.0790  153.7080 C   0  0  0  0  0  3  0  0  0  0  0  0
  157.9580  212.8110  152.4730 C   0  0  0  0  0  3  0  0  0  0  0  0
  159.4390  211.1810  153.5140 C   0  0  0  0  0  0  0  0  0  0  0  0
  158.8350  211.4510  154.7750 C   0  0  0  0  0  0  0  0  0  0  0  0
  160.9520  206.8180  153.6510 N   0  0  0  0  0  2  0  0  0  0  0  0
  161.4060  207.0400  152.4600 C   0  0  0  0  0  0  0  0  0  0  0  0
  161.8760  205.9860  151.6710 O   0  0  0  0  0  0  0  0  0  0  0  0
  161.4060  204.6540  151.8240 C   0  0  0  0  0  2  0  0  0  0  0  0
  160.7630  204.1980  150.5330 C   0  0  0  0  0  2  0  0  0  0  0  0
  161.1650  205.1990  145.8260 C   0  0  0  0  0  0  0  0  0  0  0  0
  161.5350  203.8080  146.2110 C   0  0  0  0  0  2  0  0  0  0  0  0
  161.5960  203.7480  147.7310 C   0  0  0  0  0  2  0  0  0  0  0  0
  161.2340  206.4440  147.0970 S   0  0  0  0  0  0  0  0  0  0  0  0
  160.7840  205.4640  144.6980 O   0  0  0  0  0  0  0  0  0  0  0  0
  161.2220  205.0970  148.2640 C   0  0  0  0  0  0  0  0  0  0  0  0
  160.8280  205.2980  149.5250 C   0  0  0  0  0  3  0  0  0  0  0  0
  1  2  2  0  0  0  0
  2  8  1  0  0  0  0
  2 16  1  0  0  0  0
  4 13  1  0  0  0  0
  4  9  1  0  0  0  0
  6  3  1  0  0  0  0
  7 12  2  0  0  0  0
  7 13  1  0  0  0  0
  8  4  2  0  0  0  0
  9 10  1  0  0  0  0
 10  3  1  0  0  0  0
 11  5  2  0  0  0  0
 12 11  1  0  0  0  0
 13 14  2  0  0  0  0
 14  5  1  0  0  0  0
 14  6  1  0  0  0  0
 16 15  2  0  0  0  0
 17 18  1  0  0  0  0
 17 16  1  0  0  0  0
 19 18  1  0  0  0  0
 20 21  1  0  0  0  0
 20 23  1  0  0  0  0
 21 22  1  0  0  0  0
 22 25  1  0  0  0  0
 23 25  1  0  0  0  0
 24 20  2  0  0  0  0
 25 26  2  0  0  0  0
 26 19  1  0  0  0  0
M  END
>  <MODEL>
7

>  <REMARK>
 VINA RESULT:      -7.7      2.994      9.042
  Name = 
  6 active torsions:
  status: ('A' for Active; 'I' for Inactive)
    1  A    between atoms: C_3  and  C_13
    2  A    between atoms: C_3  and  C_25
    3  A    between atoms: N_11  and  C_22
    4  A    between atoms: C_13  and  O_23
    5  A    between atoms: C_20  and  C_22
    6  A    between atoms: C_20  and  O_23
                            x       y       z     vdW  Elec       q    Type
                         _______ _______ _______ _____ _____    ______ ____

>  <TORSDO>
F 6

$$$$
=
 OpenBabel11072414253D

 26 28  0  0  0  0  0  0  0  0999 V2000
  161.1950  208.0650  147.8420 O   0  0  0  0  0  0  0  0  0  0  0  0
  161.2440  207.4180  148.9210 C   0  0  0  0  0  0  0  0  0  0  0  0
  161.8600  204.5480  145.3500 C   0  0  0  0  0  2  0  0  0  0  0  0
  161.6670  205.1370  148.1460 C   0  0  0  0  0  0  0  0  0  0  0  0
  160.8310  201.4870  147.4100 C   0  0  0  0  0  3  0  0  0  0  0  0
  161.1720  203.2360  145.7160 C   0  0  0  0  0  2  0  0  0  0  0  0
  161.1590  203.2000  149.5810 C   0  0  0  0  0  3  0  0  0  0  0  0
  161.0290  205.9990  148.8870 N   0  0  0  0  0  0  0  0  0  0  0  0
  162.8970  205.5520  147.3720 C   0  0  0  0  0  2  0  0  0  0  0  0
  163.1520  204.7240  146.1200 C   0  0  0  0  0  2  0  0  0  0  0  0
  160.6900  201.0000  148.7090 C   0  0  0  0  0  3  0  0  0  0  0  0
  160.8510  201.8570  149.7950 C   0  0  0  0  0  3  0  0  0  0  0  0
  161.3180  203.7070  148.2810 C   0  0  0  0  0  0  0  0  0  0  0  0
  161.1460  202.8300  147.1710 C   0  0  0  0  0  0  0  0  0  0  0  0
  161.2070  207.6430  151.3080 N   0  0  0  0  0  2  0  0  0  0  0  0
  161.6020  208.1170  150.1700 C   0  0  0  0  0  0  0  0  0  0  0  0
  162.3370  209.3050  150.1120 O   0  0  0  0  0  0  0  0  0  0  0  0
  161.7190  210.5830  150.1390 C   0  0  0  0  0  2  0  0  0  0  0  0
  162.2700  211.4300  149.0120 C   0  0  0  0  0  2  0  0  0  0  0  0
  161.2580  213.1110  144.6000 C   0  0  0  0  0  0  0  0  0  0  0  0
  162.6610  213.3270  145.0530 C   0  0  0  0  0  2  0  0  0  0  0  0
  162.7290  212.9750  146.5330 C   0  0  0  0  0  2  0  0  0  0  0  0
  160.0210  212.8660  145.8570 S   0  0  0  0  0  0  0  0  0  0  0  0
  160.9770  213.0540  143.4140 O   0  0  0  0  0  0  0  0  0  0  0  0
  161.3730  212.5060  146.9620 C   0  0  0  0  0  0  0  0  0  0  0  0
  161.1670  211.7920  148.0730 C   0  0  0  0  0  3  0  0  0  0  0  0
  1  2  2  0  0  0  0
  2 16  1  0  0  0  0
  3  6  1  0  0  0  0
  3 10  1  0  0  0  0
  4 13  1  0  0  0  0
  4  8  2  0  0  0  0
  5 11  1  0  0  0  0
  6 14  1  0  0  0  0
  7 12  1  0  0  0  0
  8  2  1  0  0  0  0
  9  4  1  0  0  0  0
 10  9  1  0  0  0  0
 11 12  2  0  0  0  0
 13  7  2  0  0  0  0
 14  5  2  0  0  0  0
 14 13  1  0  0  0  0
 16 15  2  0  0  0  0
 17 18  1  0  0  0  0
 17 16  1  0  0  0  0
 19 18  1  0  0  0  0
 20 21  1  0  0  0  0
 20 23  1  0  0  0  0
 21 22  1  0  0  0  0
 22 25  1  0  0  0  0
 23 25  1  0  0  0  0
 24 20  2  0  0  0  0
 25 26  2  0  0  0  0
 26 19  1  0  0  0  0
M  END
>  <MODEL>
8

>  <REMARK>
 VINA RESULT:      -7.7      3.907      5.782
  Name = 
  6 active torsions:
  status: ('A' for Active; 'I' for Inactive)
    1  A    between atoms: C_3  and  C_13
    2  A    between atoms: C_3  and  C_25
    3  A    between atoms: N_11  and  C_22
    4  A    between atoms: C_13  and  O_23
    5  A    between atoms: C_20  and  C_22
    6  A    between atoms: C_20  and  O_23
                            x       y       z     vdW  Elec       q    Type
                         _______ _______ _______ _____ _____    ______ ____

>  <TORSDO>
F 6

$$$$
=
 OpenBabel11072414253D

 26 28  0  0  0  0  0  0  0  0999 V2000
  161.4280  203.8320  152.3380 O   0  0  0  0  0  0  0  0  0  0  0  0
  161.6530  204.8730  151.6650 C   0  0  0  0  0  0  0  0  0  0  0  0
  161.1190  201.0860  149.0700 C   0  0  0  0  0  2  0  0  0  0  0  0
  161.0390  203.9150  149.5000 C   0  0  0  0  0  0  0  0  0  0  0  0
  161.4810  203.0600  145.8080 C   0  0  0  0  0  3  0  0  0  0  0  0
  161.5810  201.4470  147.6620 C   0  0  0  0  0  2  0  0  0  0  0  0
  161.1100  205.2780  147.4490 C   0  0  0  0  0  3  0  0  0  0  0  0
  161.6850  204.7770  150.2330 N   0  0  0  0  0  0  0  0  0  0  0  0
  159.9770  203.0300  150.1130 C   0  0  0  0  0  2  0  0  0  0  0  0
  159.7750  201.7090  149.3840 C   0  0  0  0  0  2  0  0  0  0  0  0
  161.3960  204.3340  145.2470 C   0  0  0  0  0  3  0  0  0  0  0  0
  161.2140  205.4440  146.0690 C   0  0  0  0  0  3  0  0  0  0  0  0
  161.1810  204.0030  148.0310 C   0  0  0  0  0  0  0  0  0  0  0  0
  161.3740  202.8690  147.1910 C   0  0  0  0  0  0  0  0  0  0  0  0
  161.3790  206.2900  153.5790 N   0  0  0  0  0  2  0  0  0  0  0  0
  161.7900  206.1680  152.3580 C   0  0  0  0  0  0  0  0  0  0  0  0
  162.3320  207.2630  151.6780 O   0  0  0  0  0  0  0  0  0  0  0  0
  161.5240  208.2080  150.9910 C   0  0  0  0  0  2  0  0  0  0  0  0
  162.0430  209.6030  151.2620 C   0  0  0  0  0  2  0  0  0  0  0  0
  159.1280  211.1630  154.7810 C   0  0  0  0  0  0  0  0  0  0  0  0
  158.6600  211.4530  153.3970 C   0  0  0  0  0  2  0  0  0  0  0  0
  159.8020  211.1290  152.4440 C   0  0  0  0  0  2  0  0  0  0  0  0
  160.8710  210.8800  155.0130 S   0  0  0  0  0  0  0  0  0  0  0  0
  158.3420  211.0740  155.7110 O   0  0  0  0  0  0  0  0  0  0  0  0
  160.9470  210.6020  153.2530 C   0  0  0  0  0  0  0  0  0  0  0  0
  161.9510  209.8970  152.7230 C   0  0  0  0  0  3  0  0  0  0  0  0
  2  1  2  0  0  0  0
  2 16  1  0  0  0  0
  3 10  1  0  0  0  0
  4  9  1  0  0  0  0
  4  8  2  0  0  0  0
  5 14  1  0  0  0  0
  6  3  1  0  0  0  0
  7 13  1  0  0  0  0
  8  2  1  0  0  0  0
 10  9  1  0  0  0  0
 11  5  2  0  0  0  0
 11 12  1  0  0  0  0
 12  7  2  0  0  0  0
 13  4  1  0  0  0  0
 14  6  1  0  0  0  0
 14 13  2  0  0  0  0
 16 15  2  0  0  0  0
 17 16  1  0  0  0  0
 18 19  1  0  0  0  0
 18 17  1  0  0  0  0
 19 26  1  0  0  0  0
 20 23  1  0  0  0  0
 20 24  2  0  0  0  0
 21 20  1  0  0  0  0
 22 25  1  0  0  0  0
 22 21  1  0  0  0  0
 25 23  1  0  0  0  0
 26 25  2  0  0  0  0
M  END
>  <MODEL>
9

>  <REMARK>
 VINA RESULT:      -7.6      1.916      3.450
  Name = 
  6 active torsions:
  status: ('A' for Active; 'I' for Inactive)
    1  A    between atoms: C_3  and  C_13
    2  A    between atoms: C_3  and  C_25
    3  A    between atoms: N_11  and  C_22
    4  A    between atoms: C_13  and  O_23
    5  A    between atoms: C_20  and  C_22
    6  A    between atoms: C_20  and  O_23
                            x       y       z     vdW  Elec       q    Type
                         _______ _______ _______ _____ _____    ______ ____

>  <TORSDO>
F 6

$$$$
