=
 OpenBabel11072411283D

 35 38  0  0  1  0  0  0  0  0999 V2000
  161.3330  211.3810  155.0690 S   0  0  0  0  0  0  0  0  0  0  0  0
  160.6280  208.2100  152.8130 C   0  0  0  0  0  0  0  0  0  0  0  0
  160.9600  206.7980  153.1360 C   0  0  0  0  0  0  0  0  0  0  0  0
  160.1640  208.5250  151.6840 O   0  0  0  0  0  0  0  0  0  0  0  0
  161.3400  206.4650  154.3780 C   0  0  0  0  0  3  0  0  0  0  0  0
  160.8970  209.2410  153.8290 C   0  0  0  0  0  0  0  0  0  0  0  0
  160.8460  210.6250  153.6430 C   0  0  0  0  0  0  0  0  0  0  0  0
  161.3590  207.4200  155.5500 C   0  0  1  0  0  3  0  0  0  0  0  0
  162.0820  209.8970  157.2610 N   0  0  0  0  0  1  0  0  0  0  0  0
  161.6090  209.9580  155.9190 C   0  0  0  0  0  0  0  0  0  0  0  0
  161.3170  208.8650  155.1120 C   0  0  0  0  0  0  0  0  0  0  0  0
  161.6110  205.9330  150.7830 C   0  0  1  0  0  0  0  0  0  0  0  0
  162.9630  206.6170  150.9900 C   0  0  0  0  0  1  0  0  0  0  0  0
  160.1460  203.5760  152.9040 O   0  0  0  0  0  1  0  0  0  0  0  0
  161.8680  204.5140  150.2530 C   0  0  1  0  0  3  0  0  0  0  0  0
  160.8870  205.6930  152.1120 C   0  0  1  0  0  3  0  0  0  0  0  0
  161.2910  204.3200  152.6250 C   0  0  2  0  0  3  0  0  0  0  0  0
  162.0680  203.6570  151.4980 C   0  0  0  0  0  2  0  0  0  0  0  0
  160.7340  206.8020  149.8680 C   0  0  0  0  0  2  0  0  0  0  0  0
  161.5160  207.4350  148.7260 C   0  0  0  0  0  1  0  0  0  0  0  0
  160.6980  203.9460  149.4450 C   0  0  0  0  0  2  0  0  0  0  0  0
  160.6970  202.4310  149.5110 C   0  0  1  0  0  3  0  0  0  0  0  0
  159.6670  201.9340  148.6920 O   0  0  0  0  0  0  0  0  0  0  0  0
  160.9710  201.8770  148.1690 C   0  0  2  0  0  3  0  0  0  0  0  0
  161.4580  200.5770  148.2920 O   0  0  0  0  0  1  0  0  0  0  0  0
  158.9750  207.4670  155.7920 O   0  0  0  0  0  1  0  0  0  0  0  0
  160.1590  207.1000  156.4300 C   0  0  0  0  0  2  0  0  0  0  0  0
  160.4600  211.3420  152.3880 C   0  0  0  0  0  2  0  0  0  0  0  0
  159.6620  212.5260  152.6860 N   0  0  0  0  0  0  0  0  0  0  0  0
  159.4360  213.4700  151.8250 C   0  0  0  0  0  3  0  0  0  0  0  0
  159.9600  213.4120  150.5380 O   0  0  0  0  0  0  0  0  0  0  0  0
  159.1820  213.6740  149.4820 O   0  0  0  0  0  0  0  0  0  0  0  0
  159.9380  213.2690  148.3840 C   0  0  0  0  0  2  0  0  0  0  0  0
  161.3910  213.1160  148.7860 C   0  0  0  0  0  2  0  0  0  0  0  0
  161.8460  211.8420  148.4460 O   0  0  0  0  0  1  0  0  0  0  0  0
  1 10  1  0  0  0  0
  2  3  1  0  0  0  0
  2  6  1  0  0  0  0
  3  5  2  0  0  0  0
  4  2  2  0  0  0  0
  5  8  1  0  0  0  0
  6 11  1  0  0  0  0
  7  6  2  0  0  0  0
  7  1  1  0  0  0  0
  8 27  1  1  0  0  0
 10  9  1  0  0  0  0
 11  8  1  0  0  0  0
 11 10  2  0  0  0  0
 12 13  1  1  0  0  0
 12 16  1  0  0  0  0
 15 21  1  1  0  0  0
 15 12  1  0  0  0  0
 15 18  1  0  0  0  0
 16 17  1  0  0  0  0
 16  3  1  1  0  0  0
 17 14  1  6  0  0  0
 18 17  1  0  0  0  0
 19 12  1  0  0  0  0
 20 19  1  0  0  0  0
 22 21  1  6  0  0  0
 23 22  1  0  0  0  0
 24 25  1  1  0  0  0
 24 23  1  0  0  0  0
 24 22  1  0  0  0  0
 26 27  1  0  0  0  0
 28 29  1  0  0  0  0
 28  7  1  0  0  0  0
 30 29  2  0  0  0  0
 31 30  1  0  0  0  0
 32 31  1  0  0  0  0
 33 34  1  0  0  0  0
 33 32  1  0  0  0  0
 35 34  1  0  0  0  0
M  END
>  <MODEL>
1

>  <REMARK>
 VINA RESULT:      -6.1      0.000      0.000
  Name = 
  11 active torsions:
  status: ('A' for Active; 'I' for Inactive)
    1  A    between atoms: C_1  and  C_26
    2  A    between atoms: C_2  and  C_31
    3  A    between atoms: C_8  and  C_24
    4  A    between atoms: C_11  and  C_20
    5  A    between atoms: C_12  and  C_31
    6  A    between atoms: N_13  and  C_17
    7  A    between atoms: C_16  and  C_27
    8  A    between atoms: C_17  and  C_21
    9  A    between atoms: O_19  and  C_20
   10  A    between atoms: O_19  and  O_33
   11  A    between atoms: C_23  and  O_33
                            x       y       z     vdW  Elec       q    Type
                         _______ _______ _______ _____ _____    ______ ____

>  <TORSDO>
F 11

$$$$
=
 OpenBabel11072411283D

 35 38  0  0  1  0  0  0  0  0999 V2000
  161.1810  210.9110  155.2440 S   0  0  0  0  0  0  0  0  0  0  0  0
  161.0280  208.6500  152.0020 C   0  0  0  0  0  0  0  0  0  0  0  0
  161.4890  207.2430  151.8790 C   0  0  0  0  0  0  0  0  0  0  0  0
  160.6290  209.2920  150.9950 O   0  0  0  0  0  0  0  0  0  0  0  0
  161.7980  206.5380  152.9770 C   0  0  0  0  0  3  0  0  0  0  0  0
  161.0930  209.2920  153.3260 C   0  0  0  0  0  0  0  0  0  0  0  0
  160.9030  210.6490  153.6020 C   0  0  0  0  0  0  0  0  0  0  0  0
  161.6110  207.0360  154.3920 C   0  0  1  0  0  3  0  0  0  0  0  0
  161.9040  208.8340  156.8950 N   0  0  0  0  0  1  0  0  0  0  0  0
  161.5420  209.3100  155.6040 C   0  0  0  0  0  0  0  0  0  0  0  0
  161.4440  208.5370  154.4520 C   0  0  0  0  0  0  0  0  0  0  0  0
  161.0760  205.1220  150.4510 C   0  0  1  0  0  0  0  0  0  0  0  0
  159.7450  204.9760  151.1910 C   0  0  0  0  0  1  0  0  0  0  0  0
  162.1590  207.9360  148.6890 O   0  0  0  0  0  1  0  0  0  0  0  0
  160.8110  204.9380  148.9490 C   0  0  1  0  0  3  0  0  0  0  0  0
  161.6260  206.5490  150.5460 C   0  0  1  0  0  3  0  0  0  0  0  0
  161.0940  207.3360  149.3590 C   0  0  2  0  0  3  0  0  0  0  0  0
  160.4230  206.3230  148.4440 C   0  0  0  0  0  2  0  0  0  0  0  0
  162.0970  204.1360  151.0400 C   0  0  0  0  0  2  0  0  0  0  0  0
  161.4420  202.9690  151.7670 C   0  0  0  0  0  1  0  0  0  0  0  0
  162.0370  204.4540  148.1710 C   0  0  0  0  0  2  0  0  0  0  0  0
  162.0800  205.0980  146.7990 C   0  0  1  0  0  3  0  0  0  0  0  0
  163.1760  204.5850  146.0810 O   0  0  0  0  0  0  0  0  0  0  0  0
  161.9100  204.0620  145.7590 C   0  0  2  0  0  3  0  0  0  0  0  0
  161.4560  204.6520  144.5810 O   0  0  0  0  0  1  0  0  0  0  0  0
  159.4950  207.2840  155.4900 O   0  0  0  0  0  1  0  0  0  0  0  0
  160.3850  206.3450  154.9710 C   0  0  0  0  0  2  0  0  0  0  0  0
  160.5460  211.7170  152.6170 C   0  0  0  0  0  2  0  0  0  0  0  0
  159.1060  211.9530  152.5990 N   0  0  0  0  0  0  0  0  0  0  0  0
  158.5370  212.8420  151.8450 C   0  0  0  0  0  3  0  0  0  0  0  0
  159.2850  213.6480  150.9930 O   0  0  0  0  0  0  0  0  0  0  0  0
  159.4230  213.3180  149.7040 O   0  0  0  0  0  0  0  0  0  0  0  0
  160.7480  213.6300  149.4050 C   0  0  0  0  0  2  0  0  0  0  0  0
  161.2420  212.7510  148.2740 C   0  0  0  0  0  2  0  0  0  0  0  0
  162.6270  212.6090  148.3540 O   0  0  0  0  0  1  0  0  0  0  0  0
  1 10  1  0  0  0  0
  2  6  1  0  0  0  0
  3  2  1  0  0  0  0
  3  5  2  0  0  0  0
  4  2  2  0  0  0  0
  5  8  1  0  0  0  0
  6  7  2  0  0  0  0
  6 11  1  0  0  0  0
  7  1  1  0  0  0  0
  8 11  1  0  0  0  0
  8 27  1  6  0  0  0
 10  9  1  0  0  0  0
 11 10  2  0  0  0  0
 12 16  1  0  0  0  0
 12 19  1  0  0  0  0
 12 13  1  1  0  0  0
 15 21  1  6  0  0  0
 15 12  1  0  0  0  0
 16  3  1  1  0  0  0
 17 14  1  6  0  0  0
 17 16  1  0  0  0  0
 18 15  1  0  0  0  0
 18 17  1  0  0  0  0
 19 20  1  0  0  0  0
 22 21  1  1  0  0  0
 23 22  1  0  0  0  0
 24 25  1  6  0  0  0
 24 23  1  0  0  0  0
 24 22  1  0  0  0  0
 27 26  1  0  0  0  0
 28  7  1  0  0  0  0
 29 28  1  0  0  0  0
 30 29  2  0  0  0  0
 31 30  1  0  0  0  0
 32 31  1  0  0  0  0
 33 32  1  0  0  0  0
 34 35  1  0  0  0  0
 34 33  1  0  0  0  0
M  END
>  <MODEL>
2

>  <REMARK>
 VINA RESULT:      -5.8      1.811      2.667
  Name = 
  11 active torsions:
  status: ('A' for Active; 'I' for Inactive)
    1  A    between atoms: C_1  and  C_26
    2  A    between atoms: C_2  and  C_31
    3  A    between atoms: C_8  and  C_24
    4  A    between atoms: C_11  and  C_20
    5  A    between atoms: C_12  and  C_31
    6  A    between atoms: N_13  and  C_17
    7  A    between atoms: C_16  and  C_27
    8  A    between atoms: C_17  and  C_21
    9  A    between atoms: O_19  and  C_20
   10  A    between atoms: O_19  and  O_33
   11  A    between atoms: C_23  and  O_33
                            x       y       z     vdW  Elec       q    Type
                         _______ _______ _______ _____ _____    ______ ____

>  <TORSDO>
F 11

$$$$
=
 OpenBabel11072411283D

 35 38  0  0  1  0  0  0  0  0999 V2000
  162.2490  207.7280  148.2660 S   0  0  0  0  0  0  0  0  0  0  0  0
  161.2580  209.7240  151.5340 C   0  0  0  0  0  0  0  0  0  0  0  0
  160.5540  209.1840  152.7260 C   0  0  0  0  0  0  0  0  0  0  0  0
  161.5110  210.9540  151.4330 O   0  0  0  0  0  0  0  0  0  0  0  0
  160.3990  207.8590  152.8710 C   0  0  0  0  0  3  0  0  0  0  0  0
  161.6130  208.7920  150.4510 C   0  0  0  0  0  0  0  0  0  0  0  0
  162.0860  209.1350  149.1810 C   0  0  0  0  0  0  0  0  0  0  0  0
  160.9940  206.8230  151.9440 C   0  0  1  0  0  3  0  0  0  0  0  0
  161.5990  205.2770  149.3310 N   0  0  0  0  0  1  0  0  0  0  0  0
  161.7220  206.6880  149.4760 C   0  0  0  0  0  0  0  0  0  0  0  0
  161.4170  207.4160  150.6210 C   0  0  0  0  0  0  0  0  0  0  0  0
  160.8330  210.2200  155.0820 C   0  0  1  0  0  0  0  0  0  0  0  0
  162.3250  210.3430  154.7680 C   0  0  0  0  0  1  0  0  0  0  0  0
  158.2100  211.5100  153.1700 O   0  0  0  0  0  1  0  0  0  0  0  0
  160.3570  211.5570  155.6720 C   0  0  1  0  0  3  0  0  0  0  0  0
  159.9950  210.0720  153.8090 C   0  0  1  0  0  3  0  0  0  0  0  0
  159.5920  211.4640  153.3480 C   0  0  2  0  0  3  0  0  0  0  0  0
  159.9940  212.4140  154.4650 C   0  0  0  0  0  2  0  0  0  0  0  0
  160.6020  209.0060  155.9960 C   0  0  0  0  0  2  0  0  0  0  0  0
  161.8790  208.5170  156.6640 C   0  0  0  0  0  1  0  0  0  0  0  0
  159.1250  211.4200  156.5700 C   0  0  0  0  0  2  0  0  0  0  0  0
  158.0950  212.4740  156.2170 C   0  0  1  0  0  3  0  0  0  0  0  0
  156.8440  211.8560  156.0360 O   0  0  0  0  0  0  0  0  0  0  0  0
  157.0500  212.5160  157.2610 C   0  0  2  0  0  3  0  0  0  0  0  0
  156.4070  213.7510  157.2290 O   0  0  0  0  0  1  0  0  0  0  0  0
  161.9680  206.1450  154.0260 O   0  0  0  0  0  1  0  0  0  0  0  0
  162.1890  206.1990  152.6500 C   0  0  0  0  0  2  0  0  0  0  0  0
  162.3740  210.5150  148.6800 C   0  0  0  0  0  2  0  0  0  0  0  0
  161.2170  211.0730  147.9890 N   0  0  0  0  0  0  0  0  0  0  0  0
  161.2730  212.1290  147.2380 C   0  0  0  0  0  3  0  0  0  0  0  0
  162.4690  212.8150  147.0490 O   0  0  0  0  0  0  0  0  0  0  0  0
  162.5370  213.8170  146.1670 O   0  0  0  0  0  0  0  0  0  0  0  0
  161.5340  213.5340  145.2410 C   0  0  0  0  0  2  0  0  0  0  0  0
  162.1500  213.2220  143.8920 C   0  0  0  0  0  2  0  0  0  0  0  0
  163.5390  213.3220  143.9710 O   0  0  0  0  0  1  0  0  0  0  0  0
  1  7  1  0  0  0  0
  1 10  1  0  0  0  0
  2  3  1  0  0  0  0
  3  5  2  0  0  0  0
  4  2  2  0  0  0  0
  6 11  1  0  0  0  0
  6  2  1  0  0  0  0
  7  6  2  0  0  0  0
  8 27  1  1  0  0  0
  8  5  1  0  0  0  0
  9 10  1  0  0  0  0
 10 11  2  0  0  0  0
 11  8  1  0  0  0  0
 12 13  1  6  0  0  0
 12 15  1  0  0  0  0
 12 19  1  0  0  0  0
 15 21  1  1  0  0  0
 16  3  1  6  0  0  0
 16 12  1  0  0  0  0
 17 14  1  1  0  0  0
 17 16  1  0  0  0  0
 17 18  1  0  0  0  0
 18 15  1  0  0  0  0
 19 20  1  0  0  0  0
 22 21  1  1  0  0  0
 22 24  1  0  0  0  0
 23 22  1  0  0  0  0
 23 24  1  0  0  0  0
 24 25  1  6  0  0  0
 27 26  1  0  0  0  0
 28  7  1  0  0  0  0
 29 28  1  0  0  0  0
 30 29  2  0  0  0  0
 31 30  1  0  0  0  0
 32 31  1  0  0  0  0
 33 32  1  0  0  0  0
 34 35  1  0  0  0  0
 34 33  1  0  0  0  0
M  END
>  <MODEL>
3

>  <REMARK>
 VINA RESULT:      -5.8      3.632      7.366
  Name = 
  11 active torsions:
  status: ('A' for Active; 'I' for Inactive)
    1  A    between atoms: C_1  and  C_26
    2  A    between atoms: C_2  and  C_31
    3  A    between atoms: C_8  and  C_24
    4  A    between atoms: C_11  and  C_20
    5  A    between atoms: C_12  and  C_31
    6  A    between atoms: N_13  and  C_17
    7  A    between atoms: C_16  and  C_27
    8  A    between atoms: C_17  and  C_21
    9  A    between atoms: O_19  and  C_20
   10  A    between atoms: O_19  and  O_33
   11  A    between atoms: C_23  and  O_33
                            x       y       z     vdW  Elec       q    Type
                         _______ _______ _______ _____ _____    ______ ____

>  <TORSDO>
F 11

$$$$
=
 OpenBabel11072411283D

 35 38  0  0  1  0  0  0  0  0999 V2000
  162.3240  208.0150  148.2550 S   0  0  0  0  0  0  0  0  0  0  0  0
  161.2110  209.9320  151.5310 C   0  0  0  0  0  0  0  0  0  0  0  0
  160.4920  209.3560  152.6960 C   0  0  0  0  0  0  0  0  0  0  0  0
  161.4370  211.1700  151.4560 O   0  0  0  0  0  0  0  0  0  0  0  0
  160.3640  208.0260  152.8160 C   0  0  0  0  0  3  0  0  0  0  0  0
  161.6130  209.0280  150.4400 C   0  0  0  0  0  0  0  0  0  0  0  0
  162.1070  209.4030  149.1880 C   0  0  0  0  0  0  0  0  0  0  0  0
  161.0040  207.0200  151.8860 C   0  0  1  0  0  3  0  0  0  0  0  0
  161.7070  205.5330  149.2630 N   0  0  0  0  0  1  0  0  0  0  0  0
  161.7940  206.9430  149.4340 C   0  0  0  0  0  0  0  0  0  0  0  0
  161.4450  207.6440  150.5830 C   0  0  0  0  0  0  0  0  0  0  0  0
  160.6590  210.3040  155.1000 C   0  0  1  0  0  0  0  0  0  0  0  0
  162.1660  210.4180  154.8680 C   0  0  0  0  0  1  0  0  0  0  0  0
  158.1540  211.6950  153.1020 O   0  0  0  0  0  1  0  0  0  0  0  0
  160.1680  211.6250  155.7120 C   0  0  1  0  0  3  0  0  0  0  0  0
  159.8860  210.2120  153.7800 C   0  0  1  0  0  3  0  0  0  0  0  0
  159.5240  211.6250  153.3490 C   0  0  2  0  0  3  0  0  0  0  0  0
  159.8770  212.5300  154.5200 C   0  0  0  0  0  2  0  0  0  0  0  0
  160.3660  209.0610  155.9550 C   0  0  0  0  0  2  0  0  0  0  0  0
  161.6270  208.3090  156.3570 C   0  0  0  0  0  1  0  0  0  0  0  0
  158.8880  211.4720  156.5390 C   0  0  0  0  0  2  0  0  0  0  0  0
  157.9480  212.6320  156.2750 C   0  0  1  0  0  3  0  0  0  0  0  0
  156.7410  212.1370  155.7470 O   0  0  0  0  0  0  0  0  0  0  0  0
  156.7370  212.4870  157.1090 C   0  0  2  0  0  3  0  0  0  0  0  0
  156.1230  213.7290  157.2610 O   0  0  0  0  0  1  0  0  0  0  0  0
  161.7950  205.8430  153.8180 O   0  0  0  0  0  1  0  0  0  0  0  0
  162.1970  206.4110  152.6100 C   0  0  0  0  0  2  0  0  0  0  0  0
  162.3740  210.7980  148.7170 C   0  0  0  0  0  2  0  0  0  0  0  0
  161.3150  211.2610  147.8270 N   0  0  0  0  0  0  0  0  0  0  0  0
  160.9790  212.5080  147.7050 C   0  0  0  0  0  3  0  0  0  0  0  0
  161.6200  213.5010  148.4390 O   0  0  0  0  0  0  0  0  0  0  0  0
  160.9520  214.1800  149.3780 O   0  0  0  0  0  0  0  0  0  0  0  0
  159.6100  213.9200  149.1060 C   0  0  0  0  0  2  0  0  0  0  0  0
  158.8300  213.8240  150.4020 C   0  0  0  0  0  2  0  0  0  0  0  0
  157.5270  213.3990  150.1420 O   0  0  0  0  0  1  0  0  0  0  0  0
  1  7  1  0  0  0  0
  1 10  1  0  0  0  0
  2  3  1  0  0  0  0
  3  5  2  0  0  0  0
  4  2  2  0  0  0  0
  6 11  1  0  0  0  0
  6  2  1  0  0  0  0
  7  6  2  0  0  0  0
  8 27  1  1  0  0  0
  8  5  1  0  0  0  0
  9 10  1  0  0  0  0
 10 11  2  0  0  0  0
 11  8  1  0  0  0  0
 12 13  1  6  0  0  0
 12 15  1  0  0  0  0
 12 19  1  0  0  0  0
 15 21  1  6  0  0  0
 16  3  1  6  0  0  0
 16 12  1  0  0  0  0
 17 14  1  1  0  0  0
 17 16  1  0  0  0  0
 17 18  1  0  0  0  0
 18 15  1  0  0  0  0
 19 20  1  0  0  0  0
 22 21  1  1  0  0  0
 22 24  1  0  0  0  0
 23 22  1  0  0  0  0
 23 24  1  0  0  0  0
 24 25  1  6  0  0  0
 27 26  1  0  0  0  0
 28  7  1  0  0  0  0
 29 28  1  0  0  0  0
 30 29  2  0  0  0  0
 30 31  1  0  0  0  0
 31 32  1  0  0  0  0
 33 32  1  0  0  0  0
 33 34  1  0  0  0  0
 35 34  1  0  0  0  0
M  END
>  <MODEL>
4

>  <REMARK>
 VINA RESULT:      -5.7      3.502      7.279
  Name = 
  11 active torsions:
  status: ('A' for Active; 'I' for Inactive)
    1  A    between atoms: C_1  and  C_26
    2  A    between atoms: C_2  and  C_31
    3  A    between atoms: C_8  and  C_24
    4  A    between atoms: C_11  and  C_20
    5  A    between atoms: C_12  and  C_31
    6  A    between atoms: N_13  and  C_17
    7  A    between atoms: C_16  and  C_27
    8  A    between atoms: C_17  and  C_21
    9  A    between atoms: O_19  and  C_20
   10  A    between atoms: O_19  and  O_33
   11  A    between atoms: C_23  and  O_33
                            x       y       z     vdW  Elec       q    Type
                         _______ _______ _______ _____ _____    ______ ____

>  <TORSDO>
F 11

$$$$
=
 OpenBabel11072411283D

 35 38  0  0  1  0  0  0  0  0999 V2000
  161.1460  210.7900  155.3700 S   0  0  0  0  0  0  0  0  0  0  0  0
  161.0340  208.6130  152.0690 C   0  0  0  0  0  0  0  0  0  0  0  0
  161.5020  207.2120  151.9140 C   0  0  0  0  0  0  0  0  0  0  0  0
  160.6420  209.2800  151.0750 O   0  0  0  0  0  0  0  0  0  0  0  0
  161.8030  206.4800  152.9970 C   0  0  0  0  0  3  0  0  0  0  0  0
  161.0840  209.2210  153.4100 C   0  0  0  0  0  0  0  0  0  0  0  0
  160.8850  210.5700  153.7190 C   0  0  0  0  0  0  0  0  0  0  0  0
  161.6000  206.9410  154.4220 C   0  0  1  0  0  3  0  0  0  0  0  0
  161.8610  208.6740  156.9740 N   0  0  0  0  0  1  0  0  0  0  0  0
  161.5090  209.1820  155.6920 C   0  0  0  0  0  0  0  0  0  0  0  0
  161.4260  208.4380  154.5200 C   0  0  0  0  0  0  0  0  0  0  0  0
  161.0620  205.1490  150.4110 C   0  0  1  0  0  0  0  0  0  0  0  0
  159.7060  205.0260  151.1090 C   0  0  0  0  0  1  0  0  0  0  0  0
  162.2870  207.9760  148.7670 O   0  0  0  0  0  1  0  0  0  0  0  0
  160.8350  205.0190  148.8970 C   0  0  1  0  0  3  0  0  0  0  0  0
  161.6550  206.5530  150.5650 C   0  0  1  0  0  3  0  0  0  0  0  0
  161.1840  207.3930  149.3880 C   0  0  2  0  0  3  0  0  0  0  0  0
  160.5070  206.4300  148.4240 C   0  0  0  0  0  2  0  0  0  0  0  0
  162.0340  204.1120  150.9980 C   0  0  0  0  0  2  0  0  0  0  0  0
  161.3310  203.0440  151.8250 C   0  0  0  0  0  1  0  0  0  0  0  0
  162.0680  204.5180  148.1390 C   0  0  0  0  0  2  0  0  0  0  0  0
  162.1470  205.1680  146.7720 C   0  0  1  0  0  3  0  0  0  0  0  0
  163.2500  204.6430  146.0740 O   0  0  0  0  0  0  0  0  0  0  0  0
  161.9840  204.1400  145.7240 C   0  0  2  0  0  3  0  0  0  0  0  0
  161.5630  204.7430  144.5400 O   0  0  0  0  0  1  0  0  0  0  0  0
  159.5130  207.1420  155.5830 O   0  0  0  0  0  1  0  0  0  0  0  0
  160.3710  206.2300  154.9700 C   0  0  0  0  0  2  0  0  0  0  0  0
  160.5340  211.6620  152.7580 C   0  0  0  0  0  2  0  0  0  0  0  0
  159.0970  211.6960  152.5080 N   0  0  0  0  0  0  0  0  0  0  0  0
  158.2710  212.4290  153.1890 C   0  0  0  0  0  3  0  0  0  0  0  0
  158.7160  213.2410  154.2280 O   0  0  0  0  0  0  0  0  0  0  0  0
  158.3170  213.0060  155.4820 O   0  0  0  0  0  0  0  0  0  0  0  0
  156.9240  213.0020  155.4090 C   0  0  0  0  0  2  0  0  0  0  0  0
  156.3700  211.8310  156.1950 C   0  0  0  0  0  2  0  0  0  0  0  0
  155.7590  210.9250  155.3280 O   0  0  0  0  0  1  0  0  0  0  0  0
  1 10  1  0  0  0  0
  2  6  1  0  0  0  0
  3  2  1  0  0  0  0
  3  5  2  0  0  0  0
  4  2  2  0  0  0  0
  5  8  1  0  0  0  0
  6  7  2  0  0  0  0
  6 11  1  0  0  0  0
  7  1  1  0  0  0  0
  8 11  1  0  0  0  0
  8 27  1  6  0  0  0
 10  9  1  0  0  0  0
 11 10  2  0  0  0  0
 12 16  1  0  0  0  0
 12 19  1  0  0  0  0
 12 13  1  1  0  0  0
 15 21  1  6  0  0  0
 15 12  1  0  0  0  0
 16  3  1  1  0  0  0
 17 14  1  6  0  0  0
 17 16  1  0  0  0  0
 18 15  1  0  0  0  0
 18 17  1  0  0  0  0
 19 20  1  0  0  0  0
 22 21  1  1  0  0  0
 23 22  1  0  0  0  0
 24 25  1  6  0  0  0
 24 23  1  0  0  0  0
 24 22  1  0  0  0  0
 27 26  1  0  0  0  0
 28  7  1  0  0  0  0
 29 28  1  0  0  0  0
 29 30  2  0  0  0  0
 30 31  1  0  0  0  0
 31 32  1  0  0  0  0
 33 32  1  0  0  0  0
 33 34  1  0  0  0  0
 35 34  1  0  0  0  0
M  END
>  <MODEL>
5

>  <REMARK>
 VINA RESULT:      -5.7      2.565      3.893
  Name = 
  11 active torsions:
  status: ('A' for Active; 'I' for Inactive)
    1  A    between atoms: C_1  and  C_26
    2  A    between atoms: C_2  and  C_31
    3  A    between atoms: C_8  and  C_24
    4  A    between atoms: C_11  and  C_20
    5  A    between atoms: C_12  and  C_31
    6  A    between atoms: N_13  and  C_17
    7  A    between atoms: C_16  and  C_27
    8  A    between atoms: C_17  and  C_21
    9  A    between atoms: O_19  and  C_20
   10  A    between atoms: O_19  and  O_33
   11  A    between atoms: C_23  and  O_33
                            x       y       z     vdW  Elec       q    Type
                         _______ _______ _______ _____ _____    ______ ____

>  <TORSDO>
F 11

$$$$
=
 OpenBabel11072411283D

 35 38  0  0  1  0  0  0  0  0999 V2000
  161.2010  202.2930  146.5120 S   0  0  0  0  0  0  0  0  0  0  0  0
  161.6810  205.6820  148.4940 C   0  0  0  0  0  0  0  0  0  0  0  0
  161.2170  205.9770  149.8740 C   0  0  0  0  0  0  0  0  0  0  0  0
  162.2000  206.5800  147.7790 O   0  0  0  0  0  0  0  0  0  0  0  0
  160.7770  204.9840  150.6620 C   0  0  0  0  0  3  0  0  0  0  0  0
  161.4780  204.3230  147.9640 C   0  0  0  0  0  0  0  0  0  0  0  0
  161.6570  203.9120  146.6410 C   0  0  0  0  0  0  0  0  0  0  0  0
  160.8130  203.5190  150.2890 C   0  0  1  0  0  3  0  0  0  0  0  0
  160.2680  200.9170  148.7020 N   0  0  0  0  0  1  0  0  0  0  0  0
  160.7790  202.1150  148.1280 C   0  0  0  0  0  0  0  0  0  0  0  0
  160.9940  203.3110  148.8040 C   0  0  0  0  0  0  0  0  0  0  0  0
  161.6270  207.5110  151.9200 C   0  0  1  0  0  0  0  0  0  0  0  0
  162.8040  206.5990  152.2710 C   0  0  0  0  0  1  0  0  0  0  0  0
  161.1280  209.1560  148.8800 O   0  0  0  0  0  1  0  0  0  0  0  0
  162.1040  208.9680  152.0240 C   0  0  1  0  0  3  0  0  0  0  0  0
  161.2190  207.3710  150.4500 C   0  0  1  0  0  3  0  0  0  0  0  0
  162.0080  208.3920  149.6450 C   0  0  2  0  0  3  0  0  0  0  0  0
  162.7060  209.2850  150.6600 C   0  0  0  0  0  2  0  0  0  0  0  0
  160.4300  207.1690  152.8220 C   0  0  0  0  0  2  0  0  0  0  0  0
  160.8320  206.9220  154.2690 C   0  0  0  0  0  1  0  0  0  0  0  0
  160.9710  209.9580  152.3060 C   0  0  0  0  0  2  0  0  0  0  0  0
  161.2310  210.7030  153.6010 C   0  0  1  0  0  3  0  0  0  0  0  0
  160.4260  211.8570  153.6400 O   0  0  0  0  0  0  0  0  0  0  0  0
  159.9890  210.7560  154.4000 C   0  0  2  0  0  3  0  0  0  0  0  0
  160.3050  210.9700  155.7400 O   0  0  0  0  0  1  0  0  0  0  0  0
  161.5140  201.7240  151.7130 O   0  0  0  0  0  1  0  0  0  0  0  0
  161.9560  202.8720  151.0560 C   0  0  0  0  0  2  0  0  0  0  0  0
  162.1360  204.7560  145.5020 C   0  0  0  0  0  2  0  0  0  0  0  0
  161.1140  205.7120  145.0930 N   0  0  0  0  0  0  0  0  0  0  0  0
  161.0280  206.1960  143.8920 C   0  0  0  0  0  3  0  0  0  0  0  0
  161.9330  205.8280  142.9010 O   0  0  0  0  0  0  0  0  0  0  0  0
  161.5810  205.8920  141.6130 O   0  0  0  0  0  0  0  0  0  0  0  0
  162.4590  206.8220  141.0580 C   0  0  0  0  0  2  0  0  0  0  0  0
  161.9560  207.2570  139.6970 C   0  0  0  0  0  2  0  0  0  0  0  0
  162.3310  206.3230  138.7310 O   0  0  0  0  0  1  0  0  0  0  0  0
  1  7  1  0  0  0  0
  1 10  1  0  0  0  0
  2  3  1  0  0  0  0
  3  5  2  0  0  0  0
  4  2  2  0  0  0  0
  6  2  1  0  0  0  0
  6 11  1  0  0  0  0
  7  6  2  0  0  0  0
  8  5  1  0  0  0  0
  8 27  1  1  0  0  0
 10  9  1  0  0  0  0
 10 11  2  0  0  0  0
 11  8  1  0  0  0  0
 12 15  1  0  0  0  0
 12 13  1  1  0  0  0
 12 19  1  0  0  0  0
 15 21  1  6  0  0  0
 16  3  1  6  0  0  0
 16 12  1  0  0  0  0
 17 14  1  1  0  0  0
 17 16  1  0  0  0  0
 17 18  1  0  0  0  0
 18 15  1  0  0  0  0
 19 20  1  0  0  0  0
 22 21  1  6  0  0  0
 22 23  1  0  0  0  0
 22 24  1  0  0  0  0
 23 24  1  0  0  0  0
 24 25  1  1  0  0  0
 27 26  1  0  0  0  0
 28  7  1  0  0  0  0
 29 28  1  0  0  0  0
 30 29  2  0  0  0  0
 31 30  1  0  0  0  0
 32 31  1  0  0  0  0
 33 32  1  0  0  0  0
 34 33  1  0  0  0  0
 35 34  1  0  0  0  0
M  END
>  <MODEL>
6

>  <REMARK>
 VINA RESULT:      -5.4      5.209      8.477
  Name = 
  11 active torsions:
  status: ('A' for Active; 'I' for Inactive)
    1  A    between atoms: C_1  and  C_26
    2  A    between atoms: C_2  and  C_31
    3  A    between atoms: C_8  and  C_24
    4  A    between atoms: C_11  and  C_20
    5  A    between atoms: C_12  and  C_31
    6  A    between atoms: N_13  and  C_17
    7  A    between atoms: C_16  and  C_27
    8  A    between atoms: C_17  and  C_21
    9  A    between atoms: O_19  and  C_20
   10  A    between atoms: O_19  and  O_33
   11  A    between atoms: C_23  and  O_33
                            x       y       z     vdW  Elec       q    Type
                         _______ _______ _______ _____ _____    ______ ____

>  <TORSDO>
F 11

$$$$
=
 OpenBabel11072411283D

 35 38  0  0  1  0  0  0  0  0999 V2000
  161.1550  209.1030  153.2810 S   0  0  0  0  0  0  0  0  0  0  0  0
  161.2540  206.0060  150.8230 C   0  0  0  0  0  0  0  0  0  0  0  0
  161.0250  206.0300  149.3550 C   0  0  0  0  0  0  0  0  0  0  0  0
  161.4000  204.9170  151.4390 O   0  0  0  0  0  0  0  0  0  0  0  0
  160.9890  207.1990  148.7000 C   0  0  0  0  0  3  0  0  0  0  0  0
  161.2580  207.2870  151.5500 C   0  0  0  0  0  0  0  0  0  0  0  0
  161.2510  207.4560  152.9370 C   0  0  0  0  0  0  0  0  0  0  0  0
  161.2760  208.5420  149.3330 C   0  0  1  0  0  3  0  0  0  0  0  0
  161.0200  210.9560  151.2540 N   0  0  0  0  0  1  0  0  0  0  0  0
  161.1210  209.6010  151.6770 C   0  0  0  0  0  0  0  0  0  0  0  0
  161.1940  208.4930  150.8400 C   0  0  0  0  0  0  0  0  0  0  0  0
  161.5930  204.6810  147.2190 C   0  0  1  0  0  0  0  0  0  0  0  0
  163.0160  205.2300  147.3430 C   0  0  0  0  0  1  0  0  0  0  0  0
  159.8330  202.9350  149.6790 O   0  0  0  0  0  1  0  0  0  0  0  0
  161.6840  203.1690  146.9600 C   0  0  1  0  0  3  0  0  0  0  0  0
  160.8310  204.7730  148.5450 C   0  0  1  0  0  3  0  0  0  0  0  0
  161.0620  203.4790  149.3090 C   0  0  2  0  0  3  0  0  0  0  0  0
  161.7660  202.5360  148.3450 C   0  0  0  0  0  2  0  0  0  0  0  0
  160.8370  205.4660  146.1340 C   0  0  0  0  0  2  0  0  0  0  0  0
  161.7130  205.8180  144.9400 C   0  0  0  0  0  1  0  0  0  0  0  0
  160.4640  202.6040  146.2300 C   0  0  0  0  0  2  0  0  0  0  0  0
  160.3520  201.1100  146.4670 C   0  0  1  0  0  3  0  0  0  0  0  0
  159.4600  200.5590  145.5290 O   0  0  0  0  0  0  0  0  0  0  0  0
  160.8320  200.3820  145.2740 C   0  0  2  0  0  3  0  0  0  0  0  0
  161.2020  199.0880  145.6350 O   0  0  0  0  0  1  0  0  0  0  0  0
  162.6470  210.2930  148.4400 O   0  0  0  0  0  1  0  0  0  0  0  0
  162.6680  208.9750  148.8940 C   0  0  0  0  0  2  0  0  0  0  0  0
  161.2870  206.3700  153.9670 C   0  0  0  0  0  2  0  0  0  0  0  0
  160.2520  206.5710  154.9750 N   0  0  0  0  0  0  0  0  0  0  0  0
  160.4740  207.1240  156.1270 C   0  0  0  0  0  3  0  0  0  0  0  0
  161.7470  207.5610  156.4830 O   0  0  0  0  0  0  0  0  0  0  0  0
  161.9230  208.7970  156.9610 O   0  0  0  0  0  0  0  0  0  0  0  0
  160.6350  209.3230  157.0490 C   0  0  0  0  0  2  0  0  0  0  0  0
  160.6880  210.8350  156.9600 C   0  0  0  0  0  2  0  0  0  0  0  0
  161.7700  211.2260  156.1710 O   0  0  0  0  0  1  0  0  0  0  0  0
  2  4  2  0  0  0  0
  2  6  1  0  0  0  0
  3  2  1  0  0  0  0
  5  8  1  0  0  0  0
  5  3  2  0  0  0  0
  6  7  2  0  0  0  0
  7  1  1  0  0  0  0
  7 28  1  0  0  0  0
  8 27  1  1  0  0  0
  8 11  1  0  0  0  0
  9 10  1  0  0  0  0
 10  1  1  0  0  0  0
 11  6  1  0  0  0  0
 11 10  2  0  0  0  0
 12 13  1  1  0  0  0
 12 16  1  0  0  0  0
 15 21  1  1  0  0  0
 15 12  1  0  0  0  0
 15 18  1  0  0  0  0
 16 17  1  0  0  0  0
 16  3  1  1  0  0  0
 17 14  1  6  0  0  0
 18 17  1  0  0  0  0
 19 12  1  0  0  0  0
 20 19  1  0  0  0  0
 22 21  1  6  0  0  0
 23 22  1  0  0  0  0
 24 23  1  0  0  0  0
 24 25  1  1  0  0  0
 24 22  1  0  0  0  0
 26 27  1  0  0  0  0
 28 29  1  0  0  0  0
 29 30  2  0  0  0  0
 30 31  1  0  0  0  0
 31 32  1  0  0  0  0
 32 33  1  0  0  0  0
 34 33  1  0  0  0  0
 35 34  1  0  0  0  0
M  END
>  <MODEL>
7

>  <REMARK>
 VINA RESULT:      -4.8      2.573      5.470
  Name = 
  11 active torsions:
  status: ('A' for Active; 'I' for Inactive)
    1  A    between atoms: C_1  and  C_26
    2  A    between atoms: C_2  and  C_31
    3  A    between atoms: C_8  and  C_24
    4  A    between atoms: C_11  and  C_20
    5  A    between atoms: C_12  and  C_31
    6  A    between atoms: N_13  and  C_17
    7  A    between atoms: C_16  and  C_27
    8  A    between atoms: C_17  and  C_21
    9  A    between atoms: O_19  and  C_20
   10  A    between atoms: O_19  and  O_33
   11  A    between atoms: C_23  and  O_33
                            x       y       z     vdW  Elec       q    Type
                         _______ _______ _______ _____ _____    ______ ____

>  <TORSDO>
F 11

$$$$
=
 OpenBabel11072411283D

 35 38  0  0  1  0  0  0  0  0999 V2000
  161.3920  203.9630  147.4670 S   0  0  0  0  0  0  0  0  0  0  0  0
  161.0210  205.7940  150.9540 C   0  0  0  0  0  0  0  0  0  0  0  0
  161.7250  207.0270  151.3880 C   0  0  0  0  0  0  0  0  0  0  0  0
  160.2920  205.1480  151.7530 O   0  0  0  0  0  0  0  0  0  0  0  0
  162.4000  207.7660  150.4940 C   0  0  0  0  0  3  0  0  0  0  0  0
  161.2330  205.3160  149.5770 C   0  0  0  0  0  0  0  0  0  0  0  0
  160.8300  204.0850  149.0520 C   0  0  0  0  0  0  0  0  0  0  0  0
  162.4200  207.4970  149.0070 C   0  0  1  0  0  3  0  0  0  0  0  0
  162.8640  205.9930  146.3380 N   0  0  0  0  0  1  0  0  0  0  0  0
  162.1440  205.4650  147.4470 C   0  0  0  0  0  0  0  0  0  0  0  0
  161.9640  206.0970  148.6720 C   0  0  0  0  0  0  0  0  0  0  0  0
  161.2070  208.9300  153.0670 C   0  0  1  0  0  0  0  0  0  0  0  0
  159.9880  209.2570  152.2030 C   0  0  0  0  0  1  0  0  0  0  0  0
  161.9570  205.8300  154.4880 O   0  0  0  0  0  1  0  0  0  0  0  0
  160.7590  208.9010  154.5360 C   0  0  1  0  0  3  0  0  0  0  0  0
  161.7150  207.5060  152.8180 C   0  0  1  0  0  3  0  0  0  0  0  0
  161.0080  206.5800  153.7960 C   0  0  2  0  0  3  0  0  0  0  0  0
  160.2610  207.4790  154.7690 C   0  0  0  0  0  2  0  0  0  0  0  0
  162.3300  209.9370  152.7660 C   0  0  0  0  0  2  0  0  0  0  0  0
  161.9080  211.0150  151.7790 C   0  0  0  0  0  1  0  0  0  0  0  0
  161.8920  209.1960  155.5230 C   0  0  0  0  0  2  0  0  0  0  0  0
  161.3900  210.0670  156.6580 C   0  0  1  0  0  3  0  0  0  0  0  0
  162.3530  211.0520  156.9450 O   0  0  0  0  0  0  0  0  0  0  0  0
  161.2410  211.4590  156.1850 C   0  0  2  0  0  3  0  0  0  0  0  0
  160.3470  212.1390  157.0100 O   0  0  0  0  0  1  0  0  0  0  0  0
  161.9570  209.8150  148.6140 O   0  0  0  0  0  1  0  0  0  0  0  0
  161.5160  208.5220  148.3370 C   0  0  0  0  0  2  0  0  0  0  0  0
  160.0580  203.0210  149.7670 C   0  0  0  0  0  2  0  0  0  0  0  0
  160.9540  202.0310  150.3540 N   0  0  0  0  0  0  0  0  0  0  0  0
  161.2980  200.9340  149.7520 C   0  0  0  0  0  3  0  0  0  0  0  0
  160.8150  200.6260  148.4840 O   0  0  0  0  0  0  0  0  0  0  0  0
  161.6650  200.3660  147.4860 O   0  0  0  0  0  0  0  0  0  0  0  0
  160.8440  200.0550  146.4020 C   0  0  0  0  0  2  0  0  0  0  0  0
  160.4550  201.3230  145.6700 C   0  0  0  0  0  2  0  0  0  0  0  0
  159.7500  201.0030  144.5100 O   0  0  0  0  0  1  0  0  0  0  0  0
  1  7  1  0  0  0  0
  2  3  1  0  0  0  0
  2  4  2  0  0  0  0
  5  3  2  0  0  0  0
  6  2  1  0  0  0  0
  7  6  2  0  0  0  0
  7 28  1  0  0  0  0
  8 27  1  6  0  0  0
  8  5  1  0  0  0  0
  9 10  1  0  0  0  0
 10  1  1  0  0  0  0
 10 11  2  0  0  0  0
 11  8  1  0  0  0  0
 11  6  1  0  0  0  0
 12 13  1  6  0  0  0
 12 15  1  0  0  0  0
 15 18  1  0  0  0  0
 15 21  1  1  0  0  0
 16  3  1  6  0  0  0
 16 12  1  0  0  0  0
 16 17  1  0  0  0  0
 17 14  1  1  0  0  0
 17 18  1  0  0  0  0
 19 12  1  0  0  0  0
 20 19  1  0  0  0  0
 22 21  1  6  0  0  0
 22 23  1  0  0  0  0
 24 22  1  0  0  0  0
 24 23  1  0  0  0  0
 24 25  1  1  0  0  0
 27 26  1  0  0  0  0
 28 29  1  0  0  0  0
 30 29  2  0  0  0  0
 31 30  1  0  0  0  0
 32 31  1  0  0  0  0
 33 32  1  0  0  0  0
 34 33  1  0  0  0  0
 35 34  1  0  0  0  0
M  END
>  <MODEL>
8

>  <REMARK>
 VINA RESULT:      -4.6      3.709      8.872
  Name = 
  11 active torsions:
  status: ('A' for Active; 'I' for Inactive)
    1  A    between atoms: C_1  and  C_26
    2  A    between atoms: C_2  and  C_31
    3  A    between atoms: C_8  and  C_24
    4  A    between atoms: C_11  and  C_20
    5  A    between atoms: C_12  and  C_31
    6  A    between atoms: N_13  and  C_17
    7  A    between atoms: C_16  and  C_27
    8  A    between atoms: C_17  and  C_21
    9  A    between atoms: O_19  and  C_20
   10  A    between atoms: O_19  and  O_33
   11  A    between atoms: C_23  and  O_33
                            x       y       z     vdW  Elec       q    Type
                         _______ _______ _______ _____ _____    ______ ____

>  <TORSDO>
F 11

$$$$
=
 OpenBabel11072411283D

 35 38  0  0  1  0  0  0  0  0999 V2000
  161.4480  211.3170  154.5900 S   0  0  0  0  0  0  0  0  0  0  0  0
  160.6930  208.0200  152.5400 C   0  0  0  0  0  0  0  0  0  0  0  0
  160.9380  206.6230  152.9830 C   0  0  0  0  0  0  0  0  0  0  0  0
  160.3010  208.2690  151.3690 O   0  0  0  0  0  0  0  0  0  0  0  0
  161.2390  206.3680  154.2640 C   0  0  0  0  0  3  0  0  0  0  0  0
  160.9650  209.1110  153.4900 C   0  0  0  0  0  0  0  0  0  0  0  0
  160.9930  210.4780  153.2000 C   0  0  0  0  0  0  0  0  0  0  0  0
  161.2500  207.4070  155.3620 C   0  0  1  0  0  3  0  0  0  0  0  0
  162.0140  209.9710  156.9210 N   0  0  0  0  0  1  0  0  0  0  0  0
  161.6100  209.9510  155.5560 C   0  0  0  0  0  0  0  0  0  0  0  0
  161.3020  208.8150  154.8170 C   0  0  0  0  0  0  0  0  0  0  0  0
  161.6310  205.5650  150.7230 C   0  0  1  0  0  0  0  0  0  0  0  0
  162.9990  206.2180  150.9250 C   0  0  0  0  0  1  0  0  0  0  0  0
  160.0200  203.4200  152.9600 O   0  0  0  0  0  1  0  0  0  0  0  0
  161.8550  204.1030  150.3070 C   0  0  1  0  0  3  0  0  0  0  0  0
  160.8580  205.4480  152.0410 C   0  0  1  0  0  3  0  0  0  0  0  0
  161.1980  204.1040  152.6670 C   0  0  2  0  0  3  0  0  0  0  0  0
  161.9860  203.3340  151.6180 C   0  0  0  0  0  2  0  0  0  0  0  0
  160.8140  206.3920  149.7180 C   0  0  0  0  0  2  0  0  0  0  0  0
  161.6230  206.8060  148.4960 C   0  0  0  0  0  1  0  0  0  0  0  0
  160.6920  203.5150  149.5040 C   0  0  0  0  0  2  0  0  0  0  0  0
  160.9420  202.0480  149.2090 C   0  0  1  0  0  3  0  0  0  0  0  0
  159.7200  201.4250  148.8980 O   0  0  0  0  0  0  0  0  0  0  0  0
  160.5560  201.7500  147.8140 C   0  0  2  0  0  3  0  0  0  0  0  0
  161.2160  200.6010  147.3830 O   0  0  0  0  0  1  0  0  0  0  0  0
  159.8910  208.2130  157.1640 O   0  0  0  0  0  1  0  0  0  0  0  0
  159.9950  207.2120  156.2000 C   0  0  0  0  0  2  0  0  0  0  0  0
  160.7050  211.1150  151.8770 C   0  0  0  0  0  2  0  0  0  0  0  0
  160.0760  212.4190  152.0500 N   0  0  0  0  0  0  0  0  0  0  0  0
  158.9340  212.5890  152.6420 C   0  0  0  0  0  3  0  0  0  0  0  0
  158.2210  211.5080  153.1530 O   0  0  0  0  0  0  0  0  0  0  0  0
  157.1200  211.7150  153.8840 O   0  0  0  0  0  0  0  0  0  0  0  0
  157.5180  211.4490  155.1930 C   0  0  0  0  0  2  0  0  0  0  0  0
  156.9360  212.4880  156.1300 C   0  0  0  0  0  2  0  0  0  0  0  0
  156.3430  211.8610  157.2260 O   0  0  0  0  0  1  0  0  0  0  0  0
  1 10  1  0  0  0  0
  2  3  1  0  0  0  0
  2  6  1  0  0  0  0
  3  5  2  0  0  0  0
  4  2  2  0  0  0  0
  5  8  1  0  0  0  0
  6 11  1  0  0  0  0
  7  6  2  0  0  0  0
  7  1  1  0  0  0  0
  8 27  1  6  0  0  0
 10  9  1  0  0  0  0
 11  8  1  0  0  0  0
 11 10  2  0  0  0  0
 12 13  1  1  0  0  0
 12 16  1  0  0  0  0
 15 21  1  1  0  0  0
 15 12  1  0  0  0  0
 15 18  1  0  0  0  0
 16 17  1  0  0  0  0
 16  3  1  1  0  0  0
 17 14  1  6  0  0  0
 18 17  1  0  0  0  0
 19 12  1  0  0  0  0
 20 19  1  0  0  0  0
 22 21  1  6  0  0  0
 23 22  1  0  0  0  0
 24 25  1  1  0  0  0
 24 23  1  0  0  0  0
 24 22  1  0  0  0  0
 27 26  1  0  0  0  0
 28 29  1  0  0  0  0
 28  7  1  0  0  0  0
 29 30  2  0  0  0  0
 30 31  1  0  0  0  0
 31 32  1  0  0  0  0
 32 33  1  0  0  0  0
 33 34  1  0  0  0  0
 34 35  1  0  0  0  0
M  END
>  <MODEL>
9

>  <REMARK>
 VINA RESULT:      -4.6      1.804      2.873
  Name = 
  11 active torsions:
  status: ('A' for Active; 'I' for Inactive)
    1  A    between atoms: C_1  and  C_26
    2  A    between atoms: C_2  and  C_31
    3  A    between atoms: C_8  and  C_24
    4  A    between atoms: C_11  and  C_20
    5  A    between atoms: C_12  and  C_31
    6  A    between atoms: N_13  and  C_17
    7  A    between atoms: C_16  and  C_27
    8  A    between atoms: C_17  and  C_21
    9  A    between atoms: O_19  and  C_20
   10  A    between atoms: O_19  and  O_33
   11  A    between atoms: C_23  and  O_33
                            x       y       z     vdW  Elec       q    Type
                         _______ _______ _______ _____ _____    ______ ____

>  <TORSDO>
F 11

$$$$
