=
 OpenBabel11072412303D

 33 35  0  0  1  0  0  0  0  0999 V2000
  161.7350  210.2530  152.3020 C   0  0  2  0  0  3  0  0  0  0  0  0
  158.2590  211.3310  153.0410 O   0  0  0  0  0  0  0  0  0  0  0  0
  159.1520  211.6700  152.2540 C   0  0  0  0  0  0  0  0  0  0  0  0
  159.9960  213.4930  149.5530 O   0  0  0  0  0  0  0  0  0  0  0  0
  161.2630  211.1410  151.1850 C   0  0  0  0  0  0  0  0  0  0  0  0
  161.5940  211.9090  148.7850 C   0  0  0  0  0  2  0  0  0  0  0  0
  160.1130  213.4460  150.9450 C   0  0  0  0  0  2  0  0  0  0  0  0
  161.3000  213.3730  149.0640 C   0  0  0  0  0  2  0  0  0  0  0  0
  161.9530  211.1480  150.0310 C   0  0  0  0  0  3  0  0  0  0  0  0
  160.0960  212.0270  151.4250 C   0  0  0  0  0  0  0  0  0  0  0  0
  161.3880  208.8520  152.0280 C   0  0  0  0  0  0  0  0  0  0  0  0
  161.0930  207.7030  151.8170 C   0  0  0  0  0  0  0  0  0  0  0  0
  160.9830  203.9830  152.5080 C   0  0  0  0  0  2  0  0  0  0  0  0
  161.0560  204.3280  150.0420 C   0  0  0  0  0  2  0  0  0  0  0  0
  161.6280  203.5290  151.2060 C   0  0  0  0  0  2  0  0  0  0  0  0
  160.7220  206.3030  151.5800 C   0  0  1  0  0  3  0  0  0  0  0  0
  161.3010  205.8240  150.2390 C   0  0  2  0  0  3  0  0  0  0  0  0
  161.2670  205.4630  152.7340 C   0  0  0  0  0  2  0  0  0  0  0  0
  160.6730  206.5810  149.0760 C   0  0  0  0  0  2  0  0  0  0  0  0
  161.6980  206.7980  147.9790 C   0  0  0  0  0  2  0  0  0  0  0  0
  161.0740  206.5930  146.6820 N   0  0  0  0  0  2  0  0  0  0  0  0
  162.0000  205.8240  145.8680 C   0  0  0  0  0  2  0  0  0  0  0  0
  162.0420  204.3760  146.3380 C   0  0  0  0  0  2  0  0  0  0  0  0
  160.5590  204.0140  144.5050 O   0  0  0  0  0  0  0  0  0  0  0  0
  161.0470  202.1630  145.7650 O   0  0  0  0  0  1  0  0  0  0  0  0
  161.1670  203.5180  145.4890 C   0  0  0  0  0  0  0  0  0  0  0  0
  161.1750  210.6690  153.5460 O   0  0  0  0  0  0  0  0  0  0  0  0
  161.2750  208.3910  156.4860 C   0  0  0  0  0  3  0  0  0  0  0  0
  160.9030  208.9350  155.2520 C   0  0  0  0  0  3  0  0  0  0  0  0
  161.5270  210.0990  154.7740 C   0  0  0  0  0  0  0  0  0  0  0  0
  162.5260  210.7080  155.5410 C   0  0  0  0  0  3  0  0  0  0  0  0
  162.8960  210.1660  156.7750 C   0  0  0  0  0  3  0  0  0  0  0  0
  162.2700  209.0080  157.2470 C   0  0  0  0  0  3  0  0  0  0  0  0
  1 11  1  6  0  0  0
  1 27  1  0  0  0  0
  3  2  2  0  0  0  0
  4  7  1  0  0  0  0
  5 10  1  0  0  0  0
  5  1  1  0  0  0  0
  6  8  1  0  0  0  0
  6  9  1  0  0  0  0
  7 10  1  0  0  0  0
  8  4  1  0  0  0  0
  9  5  2  0  0  0  0
 10  3  2  0  0  0  0
 12 11  3  0  0  0  0
 13 18  1  0  0  0  0
 14 17  1  0  0  0  0
 14 15  1  0  0  0  0
 15 13  1  0  0  0  0
 16 12  1  1  0  0  0
 16 18  1  0  0  0  0
 17 19  1  6  0  0  0
 17 16  1  0  0  0  0
 20 19  1  0  0  0  0
 21 20  1  0  0  0  0
 22 23  1  0  0  0  0
 22 21  1  0  0  0  0
 24 26  2  0  0  0  0
 26 25  1  0  0  0  0
 26 23  1  0  0  0  0
 27 30  1  0  0  0  0
 28 33  1  0  0  0  0
 29 28  2  0  0  0  0
 30 29  1  0  0  0  0
 30 31  2  0  0  0  0
 31 32  1  0  0  0  0
 32 33  2  0  0  0  0
M  END
>  <MODEL>
1

>  <REMARK>
 VINA RESULT:      -7.5      0.000      0.000
  Name = 
  11 active torsions:
  status: ('A' for Active; 'I' for Inactive)
    1  A    between atoms: C_1  and  C_11
    2  A    between atoms: O_3  and  C_10
    3  A    between atoms: O_3  and  C_11
    4  A    between atoms: C_4  and  C_22
    5  A    between atoms: C_4  and  C_25
    6  A    between atoms: C_11  and  C_18
    7  A    between atoms: C_12  and  N_21
    8  A    between atoms: C_12  and  C_26
    9  A    between atoms: C_15  and  C_27
   10  A    between atoms: C_19  and  C_26
   11  A    between atoms: N_21  and  C_22
                            x       y       z     vdW  Elec       q    Type
                         _______ _______ _______ _____ _____    ______ ____

>  <TORSDO>
F 11

$$$$
=
 OpenBabel11072412303D

 33 35  0  0  1  0  0  0  0  0999 V2000
  160.9440  210.2510  151.7090 C   0  0  2  0  0  3  0  0  0  0  0  0
  158.5870  213.0200  152.4630 O   0  0  0  0  0  0  0  0  0  0  0  0
  159.3030  212.2520  153.1180 C   0  0  0  0  0  0  0  0  0  0  0  0
  160.6310  211.4950  156.1170 O   0  0  0  0  0  0  0  0  0  0  0  0
  161.1350  210.6640  153.1410 C   0  0  0  0  0  0  0  0  0  0  0  0
  162.6430  210.6320  155.1860 C   0  0  0  0  0  2  0  0  0  0  0  0
  159.6430  211.1070  155.2070 C   0  0  0  0  0  2  0  0  0  0  0  0
  161.5190  210.4170  156.1860 C   0  0  0  0  0  2  0  0  0  0  0  0
  162.2440  210.2600  153.7860 C   0  0  0  0  0  3  0  0  0  0  0  0
  160.0600  211.4400  153.8080 C   0  0  0  0  0  0  0  0  0  0  0  0
  160.8210  208.7900  151.6060 C   0  0  0  0  0  0  0  0  0  0  0  0
  160.7050  207.5940  151.5140 C   0  0  0  0  0  0  0  0  0  0  0  0
  161.1840  203.9630  152.4690 C   0  0  0  0  0  2  0  0  0  0  0  0
  161.1270  204.1270  149.9840 C   0  0  0  0  0  2  0  0  0  0  0  0
  161.8500  203.5130  151.1760 C   0  0  0  0  0  2  0  0  0  0  0  0
  160.5450  206.1410  151.3910 C   0  0  1  0  0  3  0  0  0  0  0  0
  161.1470  205.6530  150.0650 C   0  0  2  0  0  3  0  0  0  0  0  0
  161.2460  205.4820  152.5780 C   0  0  0  0  0  2  0  0  0  0  0  0
  160.3760  206.2170  148.8790 C   0  0  0  0  0  2  0  0  0  0  0  0
  161.3390  206.7540  147.8360 C   0  0  0  0  0  2  0  0  0  0  0  0
  160.9570  206.2620  146.5220 N   0  0  0  0  0  2  0  0  0  0  0  0
  162.1740  205.8630  145.8350 C   0  0  0  0  0  2  0  0  0  0  0  0
  162.5520  204.4370  146.2120 C   0  0  0  0  0  2  0  0  0  0  0  0
  160.8210  203.5860  144.8090 O   0  0  0  0  0  0  0  0  0  0  0  0
  161.1070  202.4930  146.8030 O   0  0  0  0  0  1  0  0  0  0  0  0
  161.4410  203.4940  145.9010 C   0  0  0  0  0  0  0  0  0  0  0  0
  162.0260  210.7150  150.9030 O   0  0  0  0  0  0  0  0  0  0  0  0
  162.4370  212.3630  147.5930 C   0  0  0  0  0  3  0  0  0  0  0  0
  162.6250  211.4700  148.6530 C   0  0  0  0  0  3  0  0  0  0  0  0
  161.8580  211.5900  149.8240 C   0  0  0  0  0  0  0  0  0  0  0  0
  160.9030  212.6060  149.9190 C   0  0  0  0  0  3  0  0  0  0  0  0
  160.7150  213.5000  148.8610 C   0  0  0  0  0  3  0  0  0  0  0  0
  161.4830  213.3780  147.6990 C   0  0  0  0  0  3  0  0  0  0  0  0
  1 11  1  1  0  0  0
  1  5  1  0  0  0  0
  2  3  2  0  0  0  0
  3 10  2  0  0  0  0
  4  8  1  0  0  0  0
  5  9  2  0  0  0  0
  5 10  1  0  0  0  0
  6  8  1  0  0  0  0
  7  4  1  0  0  0  0
  9  6  1  0  0  0  0
 10  7  1  0  0  0  0
 12 11  3  0  0  0  0
 13 18  1  0  0  0  0
 14 17  1  0  0  0  0
 14 15  1  0  0  0  0
 15 13  1  0  0  0  0
 16 12  1  1  0  0  0
 16 18  1  0  0  0  0
 17 19  1  6  0  0  0
 17 16  1  0  0  0  0
 20 19  1  0  0  0  0
 21 20  1  0  0  0  0
 22 23  1  0  0  0  0
 22 21  1  0  0  0  0
 24 26  2  0  0  0  0
 26 23  1  0  0  0  0
 26 25  1  0  0  0  0
 27  1  1  0  0  0  0
 28 33  2  0  0  0  0
 28 29  1  0  0  0  0
 29 30  2  0  0  0  0
 30 31  1  0  0  0  0
 30 27  1  0  0  0  0
 32 31  2  0  0  0  0
 33 32  1  0  0  0  0
M  END
>  <MODEL>
2

>  <REMARK>
 VINA RESULT:      -7.4      1.248      4.333
  Name = 
  11 active torsions:
  status: ('A' for Active; 'I' for Inactive)
    1  A    between atoms: C_1  and  C_11
    2  A    between atoms: O_3  and  C_10
    3  A    between atoms: O_3  and  C_11
    4  A    between atoms: C_4  and  C_22
    5  A    between atoms: C_4  and  C_25
    6  A    between atoms: C_11  and  C_18
    7  A    between atoms: C_12  and  N_21
    8  A    between atoms: C_12  and  C_26
    9  A    between atoms: C_15  and  C_27
   10  A    between atoms: C_19  and  C_26
   11  A    between atoms: N_21  and  C_22
                            x       y       z     vdW  Elec       q    Type
                         _______ _______ _______ _____ _____    ______ ____

>  <TORSDO>
F 11

$$$$
=
 OpenBabel11072412303D

 33 35  0  0  1  0  0  0  0  0999 V2000
  160.1460  210.7170  152.9130 C   0  0  2  0  0  3  0  0  0  0  0  0
  157.2670  211.0730  155.2320 O   0  0  0  0  0  0  0  0  0  0  0  0
  158.4160  210.6170  155.2960 C   0  0  0  0  0  0  0  0  0  0  0  0
  160.8810  209.4380  157.2610 O   0  0  0  0  0  0  0  0  0  0  0  0
  160.6270  210.4650  154.3150 C   0  0  0  0  0  0  0  0  0  0  0  0
  162.6130  210.3290  155.8950 C   0  0  0  0  0  2  0  0  0  0  0  0
  159.9000  209.0420  156.3480 C   0  0  0  0  0  2  0  0  0  0  0  0
  162.1020  209.1180  156.6580 C   0  0  0  0  0  2  0  0  0  0  0  0
  161.9510  210.4840  154.5550 C   0  0  0  0  0  3  0  0  0  0  0  0
  159.6290  210.1360  155.3620 C   0  0  0  0  0  0  0  0  0  0  0  0
  160.7550  209.7590  151.9800 C   0  0  0  0  0  0  0  0  0  0  0  0
  161.2510  208.9610  151.2250 C   0  0  0  0  0  0  0  0  0  0  0  0
  162.5590  207.6170  147.9380 C   0  0  0  0  0  2  0  0  0  0  0  0
  161.4890  205.7470  149.1880 C   0  0  0  0  0  2  0  0  0  0  0  0
  161.6160  206.4270  147.8300 C   0  0  0  0  0  2  0  0  0  0  0  0
  161.8520  207.9730  150.3220 C   0  0  1  0  0  3  0  0  0  0  0  0
  160.9600  206.7250  150.2370 C   0  0  2  0  0  3  0  0  0  0  0  0
  162.0110  208.6190  148.9470 C   0  0  0  0  0  2  0  0  0  0  0  0
  160.8950  206.0130  151.5820 C   0  0  0  0  0  2  0  0  0  0  0  0
  160.3240  204.6170  151.4070 C   0  0  0  0  0  2  0  0  0  0  0  0
  161.1440  203.6620  152.1340 N   0  0  0  0  0  2  0  0  0  0  0  0
  161.5400  202.6240  151.1970 C   0  0  0  0  0  2  0  0  0  0  0  0
  160.3920  202.3000  150.2500 C   0  0  0  0  0  2  0  0  0  0  0  0
  160.9810  202.6250  147.9610 O   0  0  0  0  0  0  0  0  0  0  0  0
  161.3400  200.5170  148.7870 O   0  0  0  0  0  1  0  0  0  0  0  0
  160.9090  201.8280  148.9330 C   0  0  0  0  0  0  0  0  0  0  0  0
  160.4400  212.0540  152.5130 O   0  0  0  0  0  0  0  0  0  0  0  0
  159.5060  213.6880  149.3050 C   0  0  0  0  0  3  0  0  0  0  0  0
  160.2550  212.9980  150.2620 C   0  0  0  0  0  3  0  0  0  0  0  0
  159.7150  212.7390  151.5320 C   0  0  0  0  0  0  0  0  0  0  0  0
  158.4190  213.1730  151.8300 C   0  0  0  0  0  3  0  0  0  0  0  0
  157.6700  213.8650  150.8730 C   0  0  0  0  0  3  0  0  0  0  0  0
  158.2140  214.1230  149.6120 C   0  0  0  0  0  3  0  0  0  0  0  0
  1 11  1  6  0  0  0
  1  5  1  0  0  0  0
  2  3  2  0  0  0  0
  3 10  2  0  0  0  0
  5  9  2  0  0  0  0
  5 10  1  0  0  0  0
  6  8  1  0  0  0  0
  7  4  1  0  0  0  0
  8  4  1  0  0  0  0
  9  6  1  0  0  0  0
 10  7  1  0  0  0  0
 12 11  3  0  0  0  0
 13 18  1  0  0  0  0
 14 17  1  0  0  0  0
 15 13  1  0  0  0  0
 15 14  1  0  0  0  0
 16 12  1  1  0  0  0
 17 16  1  0  0  0  0
 17 19  1  1  0  0  0
 18 16  1  0  0  0  0
 20 19  1  0  0  0  0
 20 21  1  0  0  0  0
 22 21  1  0  0  0  0
 23 22  1  0  0  0  0
 24 26  2  0  0  0  0
 25 26  1  0  0  0  0
 26 23  1  0  0  0  0
 27  1  1  0  0  0  0
 28 33  2  0  0  0  0
 28 29  1  0  0  0  0
 29 30  2  0  0  0  0
 30 31  1  0  0  0  0
 30 27  1  0  0  0  0
 32 31  2  0  0  0  0
 33 32  1  0  0  0  0
M  END
>  <MODEL>
3

>  <REMARK>
 VINA RESULT:      -7.2      2.100      5.360
  Name = 
  11 active torsions:
  status: ('A' for Active; 'I' for Inactive)
    1  A    between atoms: C_1  and  C_11
    2  A    between atoms: O_3  and  C_10
    3  A    between atoms: O_3  and  C_11
    4  A    between atoms: C_4  and  C_22
    5  A    between atoms: C_4  and  C_25
    6  A    between atoms: C_11  and  C_18
    7  A    between atoms: C_12  and  N_21
    8  A    between atoms: C_12  and  C_26
    9  A    between atoms: C_15  and  C_27
   10  A    between atoms: C_19  and  C_26
   11  A    between atoms: N_21  and  C_22
                            x       y       z     vdW  Elec       q    Type
                         _______ _______ _______ _____ _____    ______ ____

>  <TORSDO>
F 11

$$$$
=
 OpenBabel11072412303D

 33 35  0  0  1  0  0  0  0  0999 V2000
  160.7790  208.8360  152.4680 C   0  0  2  0  0  3  0  0  0  0  0  0
  160.1770  212.3030  153.6540 O   0  0  0  0  0  0  0  0  0  0  0  0
  160.1970  211.1750  154.1630 C   0  0  0  0  0  0  0  0  0  0  0  0
  160.1830  209.3500  156.9910 O   0  0  0  0  0  0  0  0  0  0  0  0
  160.8280  208.8420  153.9710 C   0  0  0  0  0  0  0  0  0  0  0  0
  161.5670  207.6420  156.0850 C   0  0  0  0  0  2  0  0  0  0  0  0
  159.3810  209.7430  155.9160 C   0  0  0  0  0  2  0  0  0  0  0  0
  160.3100  207.9620  156.8750 C   0  0  0  0  0  2  0  0  0  0  0  0
  161.3650  207.7830  154.6030 C   0  0  0  0  0  3  0  0  0  0  0  0
  160.2180  209.9830  154.6980 C   0  0  0  0  0  0  0  0  0  0  0  0
  160.6850  207.4600  151.9620 C   0  0  0  0  0  0  0  0  0  0  0  0
  160.5920  206.3290  151.5530 C   0  0  0  0  0  0  0  0  0  0  0  0
  160.9900  202.5670  151.6520 C   0  0  0  0  0  2  0  0  0  0  0  0
  161.2170  203.3250  149.2900 C   0  0  0  0  0  2  0  0  0  0  0  0
  161.8040  202.4280  150.3730 C   0  0  0  0  0  2  0  0  0  0  0  0
  160.4600  204.9520  151.0670 C   0  0  1  0  0  3  0  0  0  0  0  0
  161.2150  204.7870  149.7390 C   0  0  2  0  0  3  0  0  0  0  0  0
  161.0260  204.0130  152.1310 C   0  0  0  0  0  2  0  0  0  0  0  0
  160.5800  205.6340  148.6440 C   0  0  0  0  0  2  0  0  0  0  0  0
  161.4870  205.6830  147.4280 C   0  0  0  0  0  2  0  0  0  0  0  0
  160.7100  206.0490  146.2560 N   0  0  0  0  0  2  0  0  0  0  0  0
  161.1220  205.1770  145.1690 C   0  0  0  0  0  2  0  0  0  0  0  0
  161.7190  203.8890  145.7210 C   0  0  0  0  0  2  0  0  0  0  0  0
  160.9340  201.6730  146.1240 O   0  0  0  0  0  1  0  0  0  0  0  0
  159.8340  202.8280  144.4780 O   0  0  0  0  0  0  0  0  0  0  0  0
  160.8200  202.7310  145.4510 C   0  0  0  0  0  0  0  0  0  0  0  0
  161.9270  209.4860  151.9250 O   0  0  0  0  0  0  0  0  0  0  0  0
  161.7600  212.0710  149.2550 C   0  0  0  0  0  3  0  0  0  0  0  0
  161.7480  211.4860  150.5260 C   0  0  0  0  0  3  0  0  0  0  0  0
  161.9370  210.1020  150.6690 C   0  0  0  0  0  0  0  0  0  0  0  0
  162.1410  209.3140  149.5320 C   0  0  0  0  0  3  0  0  0  0  0  0
  162.1510  209.8990  148.2620 C   0  0  0  0  0  3  0  0  0  0  0  0
  161.9610  211.2760  148.1240 C   0  0  0  0  0  3  0  0  0  0  0  0
  1 11  1  6  0  0  0
  1  5  1  0  0  0  0
  2  3  2  0  0  0  0
  3 10  2  0  0  0  0
  5  9  2  0  0  0  0
  5 10  1  0  0  0  0
  6  8  1  0  0  0  0
  7  4  1  0  0  0  0
  8  4  1  0  0  0  0
  9  6  1  0  0  0  0
 10  7  1  0  0  0  0
 12 11  3  0  0  0  0
 13 18  1  0  0  0  0
 14 17  1  0  0  0  0
 14 15  1  0  0  0  0
 15 13  1  0  0  0  0
 16 12  1  1  0  0  0
 16 18  1  0  0  0  0
 17 19  1  6  0  0  0
 17 16  1  0  0  0  0
 20 19  1  0  0  0  0
 21 20  1  0  0  0  0
 22 23  1  0  0  0  0
 22 21  1  0  0  0  0
 25 26  2  0  0  0  0
 26 23  1  0  0  0  0
 26 24  1  0  0  0  0
 27  1  1  0  0  0  0
 28 29  1  0  0  0  0
 29 30  2  0  0  0  0
 30 27  1  0  0  0  0
 31 30  1  0  0  0  0
 32 31  2  0  0  0  0
 33 32  1  0  0  0  0
 33 28  2  0  0  0  0
M  END
>  <MODEL>
4

>  <REMARK>
 VINA RESULT:      -7.2      1.622      4.606
  Name = 
  11 active torsions:
  status: ('A' for Active; 'I' for Inactive)
    1  A    between atoms: C_1  and  C_11
    2  A    between atoms: O_3  and  C_10
    3  A    between atoms: O_3  and  C_11
    4  A    between atoms: C_4  and  C_22
    5  A    between atoms: C_4  and  C_25
    6  A    between atoms: C_11  and  C_18
    7  A    between atoms: C_12  and  N_21
    8  A    between atoms: C_12  and  C_26
    9  A    between atoms: C_15  and  C_27
   10  A    between atoms: C_19  and  C_26
   11  A    between atoms: N_21  and  C_22
                            x       y       z     vdW  Elec       q    Type
                         _______ _______ _______ _____ _____    ______ ____

>  <TORSDO>
F 11

$$$$
=
 OpenBabel11072412303D

 33 35  0  0  1  0  0  0  0  0999 V2000
  161.5440  208.9560  149.2610 C   0  0  2  0  0  3  0  0  0  0  0  0
  160.8440  211.7250  151.6340 O   0  0  0  0  0  0  0  0  0  0  0  0
  160.9750  210.4970  151.7080 C   0  0  0  0  0  0  0  0  0  0  0  0
  161.3170  207.8050  153.7000 O   0  0  0  0  0  0  0  0  0  0  0  0
  161.7240  208.4420  150.6620 C   0  0  0  0  0  0  0  0  0  0  0  0
  162.7160  206.6470  152.1630 C   0  0  0  0  0  2  0  0  0  0  0  0
  160.4020  208.4780  152.8840 C   0  0  0  0  0  2  0  0  0  0  0  0
  161.5150  206.5620  153.0910 C   0  0  0  0  0  2  0  0  0  0  0  0
  162.3760  207.2790  150.8430 C   0  0  0  0  0  3  0  0  0  0  0  0
  161.1140  209.2000  151.7820 C   0  0  0  0  0  0  0  0  0  0  0  0
  161.6600  207.8590  148.2910 C   0  0  0  0  0  0  0  0  0  0  0  0
  161.7660  206.9510  147.5050 C   0  0  0  0  0  0  0  0  0  0  0  0
  161.3450  205.1100  144.2240 C   0  0  0  0  0  2  0  0  0  0  0  0
  161.2060  203.4570  146.0830 C   0  0  0  0  0  2  0  0  0  0  0  0
  160.5760  203.9170  144.7740 C   0  0  0  0  0  2  0  0  0  0  0  0
  161.9090  205.8350  146.5640 C   0  0  1  0  0  3  0  0  0  0  0  0
  161.2000  204.5870  147.1130 C   0  0  2  0  0  3  0  0  0  0  0  0
  161.3000  206.2570  145.2270 C   0  0  0  0  0  2  0  0  0  0  0  0
  161.8790  204.0940  148.3840 C   0  0  0  0  0  2  0  0  0  0  0  0
  160.9770  204.3270  149.5830 C   0  0  0  0  0  2  0  0  0  0  0  0
  161.5460  203.6790  150.7530 N   0  0  0  0  0  2  0  0  0  0  0  0
  160.7000  202.5440  151.0790 C   0  0  0  0  0  2  0  0  0  0  0  0
  161.2540  201.2730  150.4490 C   0  0  0  0  0  2  0  0  0  0  0  0
  159.4200  201.3520  148.9260 O   0  0  0  0  0  1  0  0  0  0  0  0
  161.3510  200.4330  148.1030 O   0  0  0  0  0  0  0  0  0  0  0  0
  160.6160  201.0160  149.1260 C   0  0  0  0  0  0  0  0  0  0  0  0
  162.5000  209.9750  148.9730 O   0  0  0  0  0  0  0  0  0  0  0  0
  160.5770  212.6680  147.2720 C   0  0  0  0  0  3  0  0  0  0  0  0
  160.8820  211.4350  147.8580 C   0  0  0  0  0  3  0  0  0  0  0  0
  162.1630  211.1990  148.3840 C   0  0  0  0  0  0  0  0  0  0  0  0
  163.1290  212.2080  148.3200 C   0  0  0  0  0  3  0  0  0  0  0  0
  162.8250  213.4390  147.7330 C   0  0  0  0  0  3  0  0  0  0  0  0
  161.5500  213.6690  147.2090 C   0  0  0  0  0  3  0  0  0  0  0  0
  1 11  1  6  0  0  0
  1  5  1  0  0  0  0
  2  3  2  0  0  0  0
  3 10  2  0  0  0  0
  5  9  2  0  0  0  0
  5 10  1  0  0  0  0
  6  8  1  0  0  0  0
  7  4  1  0  0  0  0
  8  4  1  0  0  0  0
  9  6  1  0  0  0  0
 10  7  1  0  0  0  0
 12 11  3  0  0  0  0
 13 15  1  0  0  0  0
 13 18  1  0  0  0  0
 14 17  1  0  0  0  0
 15 14  1  0  0  0  0
 16 17  1  0  0  0  0
 16 12  1  1  0  0  0
 17 19  1  1  0  0  0
 18 16  1  0  0  0  0
 19 20  1  0  0  0  0
 20 21  1  0  0  0  0
 21 22  1  0  0  0  0
 23 22  1  0  0  0  0
 24 26  1  0  0  0  0
 25 26  2  0  0  0  0
 26 23  1  0  0  0  0
 27  1  1  0  0  0  0
 28 29  1  0  0  0  0
 29 30  2  0  0  0  0
 30 27  1  0  0  0  0
 31 30  1  0  0  0  0
 32 31  2  0  0  0  0
 33 28  2  0  0  0  0
 33 32  1  0  0  0  0
M  END
>  <MODEL>
5

>  <REMARK>
 VINA RESULT:      -7.1      2.593      5.942
  Name = 
  11 active torsions:
  status: ('A' for Active; 'I' for Inactive)
    1  A    between atoms: C_1  and  C_11
    2  A    between atoms: O_3  and  C_10
    3  A    between atoms: O_3  and  C_11
    4  A    between atoms: C_4  and  C_22
    5  A    between atoms: C_4  and  C_25
    6  A    between atoms: C_11  and  C_18
    7  A    between atoms: C_12  and  N_21
    8  A    between atoms: C_12  and  C_26
    9  A    between atoms: C_15  and  C_27
   10  A    between atoms: C_19  and  C_26
   11  A    between atoms: N_21  and  C_22
                            x       y       z     vdW  Elec       q    Type
                         _______ _______ _______ _____ _____    ______ ____

>  <TORSDO>
F 11

$$$$
=
 OpenBabel11072412303D

 33 35  0  0  1  0  0  0  0  0999 V2000
  159.5260  211.7590  152.7640 C   0  0  2  0  0  3  0  0  0  0  0  0
  157.1350  214.4520  153.6700 O   0  0  0  0  0  0  0  0  0  0  0  0
  157.8100  213.6130  154.2810 C   0  0  0  0  0  0  0  0  0  0  0  0
  158.9580  212.5320  157.2540 O   0  0  0  0  0  0  0  0  0  0  0  0
  159.6340  212.0170  154.2410 C   0  0  0  0  0  0  0  0  0  0  0  0
  161.0190  211.7560  156.3560 C   0  0  0  0  0  2  0  0  0  0  0  0
  158.0240  212.2510  156.2520 C   0  0  0  0  0  2  0  0  0  0  0  0
  159.8380  211.4450  157.2600 C   0  0  0  0  0  2  0  0  0  0  0  0
  160.7020  211.5380  154.9030 C   0  0  0  0  0  3  0  0  0  0  0  0
  158.5230  212.7270  154.9230 C   0  0  0  0  0  0  0  0  0  0  0  0
  159.9610  210.3930  152.4470 C   0  0  0  0  0  0  0  0  0  0  0  0
  160.3310  209.2720  152.1980 C   0  0  0  0  0  0  0  0  0  0  0  0
  161.4750  205.7570  153.0090 C   0  0  0  0  0  2  0  0  0  0  0  0
  162.7320  206.5570  151.0130 C   0  0  0  0  0  2  0  0  0  0  0  0
  162.8470  205.8490  152.3570 C   0  0  0  0  0  2  0  0  0  0  0  0
  160.7980  207.9120  151.9090 C   0  0  1  0  0  3  0  0  0  0  0  0
  162.1550  207.9620  151.1890 C   0  0  2  0  0  3  0  0  0  0  0  0
  160.9160  207.1570  153.2320 C   0  0  0  0  0  2  0  0  0  0  0  0
  162.0170  208.6110  149.8180 C   0  0  0  0  0  2  0  0  0  0  0  0
  162.2750  207.5870  148.7270 C   0  0  0  0  0  2  0  0  0  0  0  0
  161.0780  207.4260  147.9190 N   0  0  0  0  0  2  0  0  0  0  0  0
  160.7760  206.0050  147.8630 C   0  0  0  0  0  2  0  0  0  0  0  0
  162.0000  205.2220  147.4080 C   0  0  0  0  0  2  0  0  0  0  0  0
  161.4430  202.9740  147.9820 O   0  0  0  0  0  1  0  0  0  0  0  0
  161.4720  203.4460  145.7390 O   0  0  0  0  0  0  0  0  0  0  0  0
  161.6340  203.8180  147.0670 C   0  0  0  0  0  0  0  0  0  0  0  0
  160.2980  212.7080  152.0310 O   0  0  0  0  0  0  0  0  0  0  0  0
  158.4140  214.3440  149.2720 C   0  0  0  0  0  3  0  0  0  0  0  0
  158.7490  213.8940  150.5530 C   0  0  0  0  0  3  0  0  0  0  0  0
  159.9370  213.1750  150.7620 C   0  0  0  0  0  0  0  0  0  0  0  0
  160.7850  212.9170  149.6800 C   0  0  0  0  0  3  0  0  0  0  0  0
  160.4490  213.3650  148.3990 C   0  0  0  0  0  3  0  0  0  0  0  0
  159.2640  214.0780  148.1950 C   0  0  0  0  0  3  0  0  0  0  0  0
  1 11  1  1  0  0  0
  1  5  1  0  0  0  0
  2  3  2  0  0  0  0
  3 10  2  0  0  0  0
  4  8  1  0  0  0  0
  5  9  2  0  0  0  0
  5 10  1  0  0  0  0
  6  8  1  0  0  0  0
  7  4  1  0  0  0  0
  9  6  1  0  0  0  0
 10  7  1  0  0  0  0
 12 11  3  0  0  0  0
 13 18  1  0  0  0  0
 14 17  1  0  0  0  0
 14 15  1  0  0  0  0
 15 13  1  0  0  0  0
 16 12  1  1  0  0  0
 16 18  1  0  0  0  0
 17 19  1  6  0  0  0
 17 16  1  0  0  0  0
 20 19  1  0  0  0  0
 21 20  1  0  0  0  0
 22 21  1  0  0  0  0
 23 22  1  0  0  0  0
 25 26  2  0  0  0  0
 26 23  1  0  0  0  0
 26 24  1  0  0  0  0
 27  1  1  0  0  0  0
 28 29  1  0  0  0  0
 29 30  2  0  0  0  0
 30 27  1  0  0  0  0
 31 30  1  0  0  0  0
 32 31  2  0  0  0  0
 33 32  1  0  0  0  0
 33 28  2  0  0  0  0
M  END
>  <MODEL>
6

>  <REMARK>
 VINA RESULT:      -6.8      2.112      4.961
  Name = 
  11 active torsions:
  status: ('A' for Active; 'I' for Inactive)
    1  A    between atoms: C_1  and  C_11
    2  A    between atoms: O_3  and  C_10
    3  A    between atoms: O_3  and  C_11
    4  A    between atoms: C_4  and  C_22
    5  A    between atoms: C_4  and  C_25
    6  A    between atoms: C_11  and  C_18
    7  A    between atoms: C_12  and  N_21
    8  A    between atoms: C_12  and  C_26
    9  A    between atoms: C_15  and  C_27
   10  A    between atoms: C_19  and  C_26
   11  A    between atoms: N_21  and  C_22
                            x       y       z     vdW  Elec       q    Type
                         _______ _______ _______ _____ _____    ______ ____

>  <TORSDO>
F 11

$$$$
=
 OpenBabel11072412303D

 33 35  0  0  1  0  0  0  0  0999 V2000
  161.5080  208.8350  149.4630 C   0  0  2  0  0  3  0  0  0  0  0  0
  160.9320  211.3720  152.1120 O   0  0  0  0  0  0  0  0  0  0  0  0
  161.0400  210.1400  152.0630 C   0  0  0  0  0  0  0  0  0  0  0  0
  161.3810  207.2620  153.7740 O   0  0  0  0  0  0  0  0  0  0  0  0
  161.7160  208.1840  150.8010 C   0  0  0  0  0  0  0  0  0  0  0  0
  162.7110  206.2340  152.0920 C   0  0  0  0  0  2  0  0  0  0  0  0
  160.4580  208.0270  153.0560 C   0  0  0  0  0  2  0  0  0  0  0  0
  161.5360  206.0800  153.0430 C   0  0  0  0  0  2  0  0  0  0  0  0
  162.3480  206.9970  150.8490 C   0  0  0  0  0  3  0  0  0  0  0  0
  161.1540  208.8400  152.0080 C   0  0  0  0  0  0  0  0  0  0  0  0
  161.6540  207.8490  148.3820 C   0  0  0  0  0  0  0  0  0  0  0  0
  161.7630  207.0310  147.5040 C   0  0  0  0  0  0  0  0  0  0  0  0
  161.2360  205.5370  144.0660 C   0  0  0  0  0  2  0  0  0  0  0  0
  161.1850  203.6980  145.7450 C   0  0  0  0  0  2  0  0  0  0  0  0
  160.5010  204.2820  144.5160 C   0  0  0  0  0  2  0  0  0  0  0  0
  161.8810  206.0220  146.4460 C   0  0  1  0  0  3  0  0  0  0  0  0
  161.2070  204.7140  146.8880 C   0  0  2  0  0  3  0  0  0  0  0  0
  161.2170  206.5730  145.1850 C   0  0  0  0  0  2  0  0  0  0  0  0
  161.9390  204.1000  148.0750 C   0  0  0  0  0  2  0  0  0  0  0  0
  161.0020  203.9840  149.2630 C   0  0  0  0  0  2  0  0  0  0  0  0
  161.2370  202.7230  149.9460 N   0  0  0  0  0  2  0  0  0  0  0  0
  160.4190  201.7140  149.2930 C   0  0  0  0  0  2  0  0  0  0  0  0
  161.2930  200.5800  148.7740 C   0  0  0  0  0  2  0  0  0  0  0  0
  161.5990  199.3900  146.7290 O   0  0  0  0  0  1  0  0  0  0  0  0
  160.3560  201.3110  146.5820 O   0  0  0  0  0  0  0  0  0  0  0  0
  161.1040  200.3940  147.3070 C   0  0  0  0  0  0  0  0  0  0  0  0
  162.4250  209.9110  149.2790 O   0  0  0  0  0  0  0  0  0  0  0  0
  160.5890  212.4180  147.2340 C   0  0  0  0  0  3  0  0  0  0  0  0
  160.8480  211.2760  147.9990 C   0  0  0  0  0  3  0  0  0  0  0  0
  162.1340  211.0460  148.5140 C   0  0  0  0  0  0  0  0  0  0  0  0
  163.1520  211.9690  148.2590 C   0  0  0  0  0  3  0  0  0  0  0  0
  162.8940  213.1100  147.4940 C   0  0  0  0  0  3  0  0  0  0  0  0
  161.6140  213.3340  146.9810 C   0  0  0  0  0  3  0  0  0  0  0  0
  1 11  1  6  0  0  0
  1  5  1  0  0  0  0
  3  2  2  0  0  0  0
  5  9  2  0  0  0  0
  5 10  1  0  0  0  0
  6  8  1  0  0  0  0
  7  4  1  0  0  0  0
  8  4  1  0  0  0  0
  9  6  1  0  0  0  0
 10  3  2  0  0  0  0
 10  7  1  0  0  0  0
 12 11  3  0  0  0  0
 13 15  1  0  0  0  0
 13 18  1  0  0  0  0
 14 17  1  0  0  0  0
 15 14  1  0  0  0  0
 16 17  1  0  0  0  0
 16 12  1  1  0  0  0
 17 19  1  1  0  0  0
 18 16  1  0  0  0  0
 19 20  1  0  0  0  0
 20 21  1  0  0  0  0
 22 21  1  0  0  0  0
 23 22  1  0  0  0  0
 24 26  1  0  0  0  0
 25 26  2  0  0  0  0
 26 23  1  0  0  0  0
 27  1  1  0  0  0  0
 28 29  1  0  0  0  0
 29 30  2  0  0  0  0
 30 27  1  0  0  0  0
 31 30  1  0  0  0  0
 32 31  2  0  0  0  0
 33 28  2  0  0  0  0
 33 32  1  0  0  0  0
M  END
>  <MODEL>
7

>  <REMARK>
 VINA RESULT:      -6.7      2.494      5.967
  Name = 
  11 active torsions:
  status: ('A' for Active; 'I' for Inactive)
    1  A    between atoms: C_1  and  C_11
    2  A    between atoms: O_3  and  C_10
    3  A    between atoms: O_3  and  C_11
    4  A    between atoms: C_4  and  C_22
    5  A    between atoms: C_4  and  C_25
    6  A    between atoms: C_11  and  C_18
    7  A    between atoms: C_12  and  N_21
    8  A    between atoms: C_12  and  C_26
    9  A    between atoms: C_15  and  C_27
   10  A    between atoms: C_19  and  C_26
   11  A    between atoms: N_21  and  C_22
                            x       y       z     vdW  Elec       q    Type
                         _______ _______ _______ _____ _____    ______ ____

>  <TORSDO>
F 11

$$$$
=
 OpenBabel11072412303D

 33 35  0  0  1  0  0  0  0  0999 V2000
  161.6900  207.8870  149.4860 C   0  0  2  0  0  3  0  0  0  0  0  0
  160.8630  204.3630  150.3100 O   0  0  0  0  0  0  0  0  0  0  0  0
  161.0900  205.3990  150.9460 C   0  0  0  0  0  0  0  0  0  0  0  0
  161.0460  206.9500  153.9340 O   0  0  0  0  0  0  0  0  0  0  0  0
  161.3020  207.8140  150.9360 C   0  0  0  0  0  0  0  0  0  0  0  0
  160.5270  209.0750  153.0020 C   0  0  0  0  0  2  0  0  0  0  0  0
  161.9020  206.3680  152.9940 C   0  0  0  0  0  2  0  0  0  0  0  0
  161.4010  208.3020  153.9740 C   0  0  0  0  0  2  0  0  0  0  0  0
  161.0050  208.9560  151.5820 C   0  0  0  0  0  3  0  0  0  0  0  0
  161.3320  206.4950  151.6150 C   0  0  0  0  0  0  0  0  0  0  0  0
  161.6860  209.2810  149.0210 C   0  0  0  0  0  0  0  0  0  0  0  0
  161.6760  210.4200  148.6260 C   0  0  0  0  0  0  0  0  0  0  0  0
  163.0550  213.5110  146.9310 C   0  0  0  0  0  2  0  0  0  0  0  0
  161.5860  214.2280  148.8110 C   0  0  0  0  0  2  0  0  0  0  0  0
  162.9250  214.4530  148.1200 C   0  0  0  0  0  2  0  0  0  0  0  0
  161.6550  211.7980  148.1240 C   0  0  1  0  0  3  0  0  0  0  0  0
  161.4590  212.7810  149.2890 C   0  0  2  0  0  3  0  0  0  0  0  0
  162.9790  212.0660  147.4090 C   0  0  0  0  0  2  0  0  0  0  0  0
  160.0910  212.5950  149.9310 C   0  0  0  0  0  2  0  0  0  0  0  0
  159.2280  213.8190  149.6870 C   0  0  0  0  0  2  0  0  0  0  0  0
  157.8260  213.4330  149.6800 N   0  0  0  0  0  2  0  0  0  0  0  0
  157.2620  213.8610  148.4110 C   0  0  0  0  0  2  0  0  0  0  0  0
  157.4450  212.7770  147.3570 C   0  0  0  0  0  2  0  0  0  0  0  0
  157.3690  213.7660  145.1880 O   0  0  0  0  0  0  0  0  0  0  0  0
  159.4670  213.4020  146.0370 O   0  0  0  0  0  1  0  0  0  0  0  0
  158.0830  213.3330  146.1300 C   0  0  0  0  0  0  0  0  0  0  0  0
  160.8100  207.0970  148.6890 O   0  0  0  0  0  0  0  0  0  0  0  0
  160.8320  205.8250  145.1930 C   0  0  0  0  0  3  0  0  0  0  0  0
  160.4080  206.4770  146.3550 C   0  0  0  0  0  3  0  0  0  0  0  0
  161.2070  206.4570  147.5100 C   0  0  0  0  0  0  0  0  0  0  0  0
  162.4320  205.7820  147.4870 C   0  0  0  0  0  3  0  0  0  0  0  0
  162.8550  205.1290  146.3260 C   0  0  0  0  0  3  0  0  0  0  0  0
  162.0550  205.1500  145.1800 C   0  0  0  0  0  3  0  0  0  0  0  0
  1 11  1  6  0  0  0
  1  5  1  0  0  0  0
  2  3  2  0  0  0  0
  3 10  2  0  0  0  0
  4  8  1  0  0  0  0
  5  9  2  0  0  0  0
  5 10  1  0  0  0  0
  6  8  1  0  0  0  0
  7  4  1  0  0  0  0
  9  6  1  0  0  0  0
 10  7  1  0  0  0  0
 12 11  3  0  0  0  0
 13 18  1  0  0  0  0
 13 15  1  0  0  0  0
 14 17  1  0  0  0  0
 15 14  1  0  0  0  0
 16 12  1  1  0  0  0
 16 17  1  0  0  0  0
 17 19  1  6  0  0  0
 18 16  1  0  0  0  0
 20 19  1  0  0  0  0
 21 20  1  0  0  0  0
 22 21  1  0  0  0  0
 23 22  1  0  0  0  0
 24 26  2  0  0  0  0
 25 26  1  0  0  0  0
 26 23  1  0  0  0  0
 27  1  1  0  0  0  0
 28 29  1  0  0  0  0
 29 30  2  0  0  0  0
 30 27  1  0  0  0  0
 31 30  1  0  0  0  0
 32 31  2  0  0  0  0
 33 28  2  0  0  0  0
 33 32  1  0  0  0  0
M  END
>  <MODEL>
8

>  <REMARK>
 VINA RESULT:      -6.6      2.874      8.378
  Name = 
  11 active torsions:
  status: ('A' for Active; 'I' for Inactive)
    1  A    between atoms: C_1  and  C_11
    2  A    between atoms: O_3  and  C_10
    3  A    between atoms: O_3  and  C_11
    4  A    between atoms: C_4  and  C_22
    5  A    between atoms: C_4  and  C_25
    6  A    between atoms: C_11  and  C_18
    7  A    between atoms: C_12  and  N_21
    8  A    between atoms: C_12  and  C_26
    9  A    between atoms: C_15  and  C_27
   10  A    between atoms: C_19  and  C_26
   11  A    between atoms: N_21  and  C_22
                            x       y       z     vdW  Elec       q    Type
                         _______ _______ _______ _____ _____    ______ ____

>  <TORSDO>
F 11

$$$$
=
 OpenBabel11072412303D

 33 35  0  0  1  0  0  0  0  0999 V2000
  160.1850  212.8520  151.6180 C   0  0  2  0  0  3  0  0  0  0  0  0
  162.2260  214.4530  148.9610 O   0  0  0  0  0  0  0  0  0  0  0  0
  161.0830  213.9870  149.0510 C   0  0  0  0  0  0  0  0  0  0  0  0
  158.0520  213.6400  147.6290 O   0  0  0  0  0  0  0  0  0  0  0  0
  159.2780  213.2290  150.4800 C   0  0  0  0  0  0  0  0  0  0  0  0
  156.8970  213.6710  149.7080 C   0  0  0  0  0  2  0  0  0  0  0  0
  159.2360  212.9510  147.9090 C   0  0  0  0  0  2  0  0  0  0  0  0
  157.0570  212.9850  148.3610 C   0  0  0  0  0  2  0  0  0  0  0  0
  157.9500  213.2500  150.6950 C   0  0  0  0  0  3  0  0  0  0  0  0
  159.8780  213.4940  149.1490 C   0  0  0  0  0  0  0  0  0  0  0  0
  160.4090  211.4000  151.6380 C   0  0  0  0  0  0  0  0  0  0  0  0
  160.5830  210.2080  151.6680 C   0  0  0  0  0  0  0  0  0  0  0  0
  161.1650  206.8520  153.3190 C   0  0  0  0  0  2  0  0  0  0  0  0
  162.3700  206.8810  151.1390 C   0  0  0  0  0  2  0  0  0  0  0  0
  162.4740  206.5190  152.6150 C   0  0  0  0  0  2  0  0  0  0  0  0
  160.7820  208.7550  151.7240 C   0  0  1  0  0  3  0  0  0  0  0  0
  162.0620  208.3690  150.9670 C   0  0  2  0  0  3  0  0  0  0  0  0
  160.8780  208.3440  153.1930 C   0  0  0  0  0  2  0  0  0  0  0  0
  161.9240  208.6710  149.4800 C   0  0  0  0  0  2  0  0  0  0  0  0
  162.5040  207.5340  148.6590 C   0  0  0  0  0  2  0  0  0  0  0  0
  161.5640  207.1600  147.6150 N   0  0  0  0  0  2  0  0  0  0  0  0
  160.8260  206.0000  148.0870 C   0  0  0  0  0  2  0  0  0  0  0  0
  161.5330  204.7170  147.6710 C   0  0  0  0  0  2  0  0  0  0  0  0
  161.1530  203.8160  149.8470 O   0  0  0  0  0  1  0  0  0  0  0  0
  160.9250  202.3390  148.1090 O   0  0  0  0  0  0  0  0  0  0  0  0
  161.2050  203.6040  148.6070 C   0  0  0  0  0  0  0  0  0  0  0  0
  159.6390  213.2870  152.8620 O   0  0  0  0  0  0  0  0  0  0  0  0
  157.8500  211.0730  155.2570 C   0  0  0  0  0  3  0  0  0  0  0  0
  158.0820  211.9340  154.1800 C   0  0  0  0  0  3  0  0  0  0  0  0
  159.3750  212.4210  153.9280 C   0  0  0  0  0  0  0  0  0  0  0  0
  160.4300  212.0340  154.7620 C   0  0  0  0  0  3  0  0  0  0  0  0
  160.1980  211.1740  155.8390 C   0  0  0  0  0  3  0  0  0  0  0  0
  158.9090  210.6950  156.0870 C   0  0  0  0  0  3  0  0  0  0  0  0
  1 11  1  1  0  0  0
  1 27  1  0  0  0  0
  2  3  2  0  0  0  0
  3 10  2  0  0  0  0
  4  7  1  0  0  0  0
  4  8  1  0  0  0  0
  5  9  2  0  0  0  0
  5  1  1  0  0  0  0
  6  9  1  0  0  0  0
  7 10  1  0  0  0  0
  8  6  1  0  0  0  0
 10  5  1  0  0  0  0
 11 12  3  0  0  0  0
 14 15  1  0  0  0  0
 15 13  1  0  0  0  0
 16 12  1  1  0  0  0
 16 18  1  0  0  0  0
 17 19  1  6  0  0  0
 17 14  1  0  0  0  0
 17 16  1  0  0  0  0
 18 13  1  0  0  0  0
 20 19  1  0  0  0  0
 21 22  1  0  0  0  0
 21 20  1  0  0  0  0
 23 22  1  0  0  0  0
 23 26  1  0  0  0  0
 25 26  2  0  0  0  0
 26 24  1  0  0  0  0
 27 30  1  0  0  0  0
 28 33  1  0  0  0  0
 29 28  2  0  0  0  0
 30 29  1  0  0  0  0
 30 31  2  0  0  0  0
 31 32  1  0  0  0  0
 32 33  2  0  0  0  0
M  END
>  <MODEL>
9

>  <REMARK>
 VINA RESULT:      -6.6      2.149      3.435
  Name = 
  11 active torsions:
  status: ('A' for Active; 'I' for Inactive)
    1  A    between atoms: C_1  and  C_11
    2  A    between atoms: O_3  and  C_10
    3  A    between atoms: O_3  and  C_11
    4  A    between atoms: C_4  and  C_22
    5  A    between atoms: C_4  and  C_25
    6  A    between atoms: C_11  and  C_18
    7  A    between atoms: C_12  and  N_21
    8  A    between atoms: C_12  and  C_26
    9  A    between atoms: C_15  and  C_27
   10  A    between atoms: C_19  and  C_26
   11  A    between atoms: N_21  and  C_22
                            x       y       z     vdW  Elec       q    Type
                         _______ _______ _______ _____ _____    ______ ____

>  <TORSDO>
F 11

$$$$
