=
 OpenBabel11072415283D

 70 75  0  0  1  0  0  0  0  0999 V2000
  163.7290  213.3450  148.3750 C   0  0  0  0  0  2  0  0  0  0  0  0
  160.2820  212.9500  150.2120 C   0  0  0  0  0  0  0  0  0  0  0  0
  160.0280  209.8100  153.8370 C   0  0  0  0  0  2  0  0  0  0  0  0
  161.4170  213.3660  147.4510 C   0  0  0  0  0  0  0  0  0  0  0  0
  160.4490  208.4540  153.3640 C   0  0  0  0  0  0  0  0  0  0  0  0
  162.4880  211.1530  148.3080 C   0  0  2  0  0  3  0  0  0  0  0  0
  162.6000  214.0080  147.6450 C   0  0  0  0  0  3  0  0  0  0  0  0
  160.3130  208.8390  149.3140 O   0  0  0  0  0  0  0  0  0  0  0  0
  161.2050  211.9130  147.9130 C   0  0  1  0  0  3  0  0  0  0  0  0
  162.0840  211.3180  149.7770 C   0  0  2  0  0  3  0  0  0  0  0  0
  160.6730  212.2790  153.7640 C   0  0  0  0  0  2  0  0  0  0  0  0
  160.0650  214.2030  149.6760 O   0  0  0  0  0  1  0  0  0  0  0  0
  161.1670  210.8250  153.6660 C   0  0  1  0  0  3  0  0  0  0  0  0
  162.0480  210.2850  150.7300 O   0  0  0  0  0  0  0  0  0  0  0  0
  159.6420  212.6200  152.7320 C   0  0  0  0  0  0  0  0  0  0  0  0
  161.5230  207.7400  151.3540 O   0  0  0  0  0  0  0  0  0  0  0  0
  160.4220  208.1910  151.9940 O   0  0  0  0  0  0  0  0  0  0  0  0
  161.6530  208.7850  150.0260 P   0  0  1  0  0  0  0  0  0  0  0  0
  160.8610  207.5610  154.2630 C   0  0  0  0  0  3  0  0  0  0  0  0
  159.9930  212.7470  151.4650 C   0  0  0  0  0  0  0  0  0  0  0  0
  160.7110  211.7790  149.3650 C   0  0  1  0  0  3  0  0  0  0  0  0
  163.7940  211.8700  147.9610 C   0  0  0  0  0  2  0  0  0  0  0  0
  162.6030  206.0130  148.4920 C   0  0  0  0  0  2  0  0  0  0  0  0
  161.9810  206.8080  147.3620 C   0  0  1  0  0  3  0  0  0  0  0  0
  163.0210  208.1960  148.9490 C   0  0  1  0  0  3  0  0  0  0  0  0
  163.3650  206.8810  149.3060 O   0  0  0  0  0  0  0  0  0  0  0  0
  162.5590  208.1870  147.5180 C   0  0  0  0  0  2  0  0  0  0  0  0
  161.0410  205.9710  145.1070 C   0  0  0  0  0  1  0  0  0  0  0  0
  162.2470  206.0540  146.0340 C   0  0  2  0  0  3  0  0  0  0  0  0
  162.8670  204.6530  146.2180 C   0  0  0  0  0  2  0  0  0  0  0  0
  161.9760  203.5200  145.9070 N   0  0  0  0  0  0  0  0  0  0  0  0
  162.1640  202.1720  148.0820 C   0  0  0  0  0  2  0  0  0  0  0  0
  160.4670  204.1030  147.8950 C   0  0  0  0  0  1  0  0  0  0  0  0
  161.3540  203.1010  147.1860 C   0  0  1  0  0  0  0  0  0  0  0  0
  160.9150  201.6450  147.3970 C   0  0  1  0  0  3  0  0  0  0  0  0
  161.3010  200.6960  146.2720 C   0  0  0  0  0  2  0  0  0  0  0  0
  161.2510  199.2520  146.7460 C   0  0  0  0  0  2  0  0  0  0  0  0
  161.1160  198.4380  145.6050 O   0  0  0  0  0  1  0  0  0  0  0  0
  160.9950  203.9810  145.0520 O   0  0  0  0  0  0  0  0  0  0  0  0
  160.1900  202.8590  144.7390 C   0  0  0  0  0  1  0  0  0  0  0  0
  157.3210  212.9460  152.4210 O   0  0  0  0  0  0  0  0  0  0  0  0
  158.2540  214.0150  154.2260 O   0  0  0  0  0  1  0  0  0  0  0  0
  158.3400  213.1510  153.1400 C   0  0  0  0  0  0  0  0  0  0  0  0
  160.6940  205.1650  154.3790 O   0  0  0  0  0  0  0  0  0  0  0  0
  161.3560  206.1880  154.0100 C   0  0  0  0  0  0  0  0  0  0  0  0
  162.5120  206.0250  153.2550 O   0  0  0  0  0  0  0  0  0  0  0  0
  162.5060  205.0900  152.2590 O   0  0  0  0  0  0  0  0  0  0  0  0
  161.1370  203.0960  152.0150 O   0  0  0  0  0  1  0  0  0  0  0  0
  161.3360  204.4690  151.8290 C   0  0  0  0  0  0  0  0  0  0  0  0
  160.4770  205.1280  151.1830 O   0  0  0  0  0  0  0  0  0  0  0  0
  160.3600  213.9660  146.7110 N   0  0  0  0  0  2  0  0  0  0  0  0
  160.1690  213.8010  145.2820 C   0  0  2  0  0  3  0  0  0  0  0  0
  162.5420  213.2580  145.0470 O   0  0  0  0  0  1  0  0  0  0  0  0
  159.4050  212.3050  143.5140 C   0  0  0  0  0  2  0  0  0  0  0  0
  161.2510  213.5060  143.0060 C   0  0  0  0  0  2  0  0  0  0  0  0
  159.4890  212.4650  145.0250 C   0  0  0  0  0  2  0  0  0  0  0  0
  160.7130  212.1920  142.9990 O   0  0  0  0  0  0  0  0  0  0  0  0
  161.4730  213.9670  144.4620 C   0  0  1  0  0  3  0  0  0  0  0  0
  162.2360  210.6360  154.6350 O   0  0  0  0  0  0  0  0  0  0  0  0
  162.0160  210.8030  156.0200 C   0  0  0  0  0  3  0  0  0  0  0  0
  162.9450  210.7240  156.9330 N   0  0  0  0  0  0  0  0  0  0  0  0
  164.3290  210.4980  156.5980 C   0  0  0  0  0  2  0  0  0  0  0  0
  164.9500  211.7890  156.1170 C   0  0  2  0  0  3  0  0  0  0  0  0
  165.3170  211.7150  154.7650 O   0  0  0  0  0  1  0  0  0  0  0  0
  166.0430  213.8070  157.2590 C   0  0  0  0  0  1  0  0  0  0  0  0
  166.1370  212.3020  156.9890 C   0  0  2  0  0  3  0  0  0  0  0  0
  168.3400  211.4090  157.2600 O   0  0  0  0  0  1  0  0  0  0  0  0
  167.4660  211.9410  156.3250 C   0  0  2  0  0  3  0  0  0  0  0  0
  167.1780  214.0200  155.1670 O   0  0  0  0  0  1  0  0  0  0  0  0
  168.1380  213.1080  155.6370 C   0  0  0  0  0  2  0  0  0  0  0  0
  2 20  2  0  0  0  0
  4  7  2  0  0  0  0
  5  3  1  0  0  0  0
  5 19  2  0  0  0  0
  6 22  1  1  0  0  0
  6 10  1  0  0  0  0
  7  1  1  0  0  0  0
  9  4  1  1  0  0  0
  9  6  1  0  0  0  0
  9 21  1  0  0  0  0
 10 14  1  1  0  0  0
 12  2  1  0  0  0  0
 13 11  1  0  0  0  0
 13  3  1  0  0  0  0
 13 59  1  1  0  0  0
 15 43  1  0  0  0  0
 15 11  1  0  0  0  0
 16 17  1  0  0  0  0
 17  5  1  0  0  0  0
 18  8  2  6  0  0  0
 18 14  1  0  0  0  0
 18 16  1  0  0  0  0
 20 15  2  0  0  0  0
 21 10  1  0  0  0  0
 21  2  1  1  0  0  0
 22  1  1  0  0  0  0
 23 26  1  0  0  0  0
 24 29  1  6  0  0  0
 24 27  1  0  0  0  0
 24 23  1  0  0  0  0
 25 27  1  6  0  0  0
 25 26  1  0  0  0  0
 25 18  1  0  0  0  0
 29 28  1  1  0  0  0
 29 30  1  0  0  0  0
 31 30  1  0  0  0  0
 31 34  1  0  0  0  0
 34 35  1  0  0  0  0
 34 33  1  1  0  0  0
 34 32  1  0  0  0  0
 35 36  1  6  0  0  0
 35 32  1  0  0  0  0
 36 37  1  0  0  0  0
 38 37  1  0  0  0  0
 39 31  1  0  0  0  0
 40 39  1  0  0  0  0
 41 43  2  0  0  0  0
 43 42  1  0  0  0  0
 45 19  1  0  0  0  0
 45 44  2  0  0  0  0
 46 45  1  0  0  0  0
 47 46  1  0  0  0  0
 49 48  1  0  0  0  0
 49 47  1  0  0  0  0
 50 49  2  0  0  0  0
 51  4  1  0  0  0  0
 52 51  1  1  0  0  0
 54 56  1  0  0  0  0
 55 58  1  0  0  0  0
 56 52  1  0  0  0  0
 57 55  1  0  0  0  0
 57 54  1  0  0  0  0
 58 53  1  1  0  0  0
 58 52  1  0  0  0  0
 59 60  1  0  0  0  0
 60 61  2  0  0  0  0
 62 61  1  0  0  0  0
 63 64  1  6  0  0  0
 63 62  1  0  0  0  0
 63 66  1  0  0  0  0
 66 65  1  6  0  0  0
 68 66  1  0  0  0  0
 68 67  1  1  0  0  0
 69 70  1  0  0  0  0
 70 68  1  0  0  0  0
M  END
>  <MODEL>
1

>  <REMARK>
 VINA RESULT:      -0.3      0.000      0.000
  Name = 
  22 active torsions:
  status: ('A' for Active; 'I' for Inactive)
    1  A    between atoms: O_1  and  O_8
    2  A    between atoms: O_1  and  C_22
    3  A    between atoms: C_3  and  C_9
    4  A    between atoms: C_6  and  C_47
    5  A    between atoms: C_6  and  C_67
    6  A    between atoms: C_7  and  N_16
    7  A    between atoms: C_7  and  C_61
    8  A    between atoms: O_8  and  C_63
    9  A    between atoms: C_9  and  C_66
   10  A    between atoms: C_12  and  N_62
   11  A    between atoms: N_16  and  O_29
   12  A    between atoms: N_16  and  C_33
   13  A    between atoms: O_20  and  C_38
   14  A    between atoms: O_20  and  C_54
   15  A    between atoms: C_34  and  N_62
   16  A    between atoms: C_40  and  C_61
   17  A    between atoms: C_42  and  P_51
   18  A    between atoms: C_43  and  C_44
   19  A    between atoms: C_47  and  C_55
   20  A    between atoms: C_52  and  C_63
   21  A    between atoms: C_55  and  C_64
   22  A    between atoms: N_56  and  C_67
                            x       y       z     vdW  Elec       q    Type
                         _______ _______ _______ _____ _____    ______ ____

>  <TORSDO>
F 22

$$$$
=
 OpenBabel11072415283D

 70 75  0  0  1  0  0  0  0  0999 V2000
  163.8010  213.1870  147.8100 C   0  0  0  0  0  2  0  0  0  0  0  0
  160.3600  212.9180  149.6800 C   0  0  0  0  0  0  0  0  0  0  0  0
  160.0930  209.9650  153.4590 C   0  0  0  0  0  2  0  0  0  0  0  0
  161.4850  213.1850  146.8970 C   0  0  0  0  0  0  0  0  0  0  0  0
  160.5000  208.5840  153.0510 C   0  0  0  0  0  0  0  0  0  0  0  0
  162.5390  211.0060  147.8580 C   0  0  2  0  0  3  0  0  0  0  0  0
  162.6740  213.8240  147.0530 C   0  0  0  0  0  3  0  0  0  0  0  0
  160.3470  208.7670  148.9880 O   0  0  0  0  0  0  0  0  0  0  0  0
  161.2610  211.7580  147.4310 C   0  0  1  0  0  3  0  0  0  0  0  0
  162.1440  211.2480  149.3190 C   0  0  2  0  0  3  0  0  0  0  0  0
  160.7630  212.4210  153.2600 C   0  0  0  0  0  2  0  0  0  0  0  0
  160.1520  214.1450  149.0830 O   0  0  0  0  0  1  0  0  0  0  0  0
  161.2420  210.9590  153.2310 C   0  0  1  0  0  3  0  0  0  0  0  0
  162.1030  210.2650  150.3220 O   0  0  0  0  0  0  0  0  0  0  0  0
  159.7290  212.7210  152.2160 C   0  0  0  0  0  0  0  0  0  0  0  0
  161.5560  207.7590  151.0750 O   0  0  0  0  0  0  0  0  0  0  0  0
  160.4630  208.2530  151.6970 O   0  0  0  0  0  0  0  0  0  0  0  0
  161.6890  208.7350  149.6950 P   0  0  1  0  0  0  0  0  0  0  0  0
  160.9070  207.7320  153.9920 C   0  0  0  0  0  3  0  0  0  0  0  0
  160.0750  212.7800  150.9430 C   0  0  0  0  0  0  0  0  0  0  0  0
  160.7730  211.7020  148.8900 C   0  0  1  0  0  3  0  0  0  0  0  0
  163.8500  211.6930  147.4690 C   0  0  0  0  0  2  0  0  0  0  0  0
  162.7630  205.8320  148.5320 C   0  0  0  0  0  2  0  0  0  0  0  0
  162.0370  206.4090  147.3330 C   0  0  1  0  0  3  0  0  0  0  0  0
  163.0460  208.0800  148.6430 C   0  0  1  0  0  3  0  0  0  0  0  0
  163.4970  206.8570  149.1690 O   0  0  0  0  0  0  0  0  0  0  0  0
  162.5230  207.8290  147.2560 C   0  0  0  0  0  2  0  0  0  0  0  0
  161.1580  205.4450  145.1040 C   0  0  0  0  0  1  0  0  0  0  0  0
  162.2960  205.4850  146.1170 C   0  0  2  0  0  3  0  0  0  0  0  0
  162.7130  204.0480  146.4950 C   0  0  0  0  0  2  0  0  0  0  0  0
  161.8330  202.9780  145.9880 N   0  0  0  0  0  0  0  0  0  0  0  0
  161.9730  201.1170  147.7490 C   0  0  0  0  0  2  0  0  0  0  0  0
  160.5110  203.1970  148.1720 C   0  0  0  0  0  1  0  0  0  0  0  0
  161.2330  202.3190  147.1720 C   0  0  1  0  0  0  0  0  0  0  0  0
  160.6350  200.9090  147.0590 C   0  0  1  0  0  3  0  0  0  0  0  0
  160.8450  200.2380  145.7110 C   0  0  0  0  0  2  0  0  0  0  0  0
  161.2190  198.7740  145.8910 C   0  0  0  0  0  2  0  0  0  0  0  0
  162.0140  198.4030  144.7900 O   0  0  0  0  0  1  0  0  0  0  0  0
  160.8350  203.5740  145.2440 O   0  0  0  0  0  0  0  0  0  0  0  0
  160.0170  202.5200  144.7700 C   0  0  0  0  0  1  0  0  0  0  0  0
  157.5180  213.4100  151.7430 O   0  0  0  0  0  0  0  0  0  0  0  0
  158.2680  213.8290  153.8720 O   0  0  0  0  0  1  0  0  0  0  0  0
  158.4340  213.2830  152.6030 C   0  0  0  0  0  0  0  0  0  0  0  0
  162.6300  206.0770  153.7110 O   0  0  0  0  0  0  0  0  0  0  0  0
  161.3880  206.3430  153.8060 C   0  0  0  0  0  0  0  0  0  0  0  0
  160.4630  205.3060  153.8510 O   0  0  0  0  0  0  0  0  0  0  0  0
  160.7540  204.1520  153.1800 O   0  0  0  0  0  0  0  0  0  0  0  0
  162.3800  203.7980  151.4100 O   0  0  0  0  0  1  0  0  0  0  0  0
  161.0900  204.1410  151.8290 C   0  0  0  0  0  0  0  0  0  0  0  0
  160.2520  204.5290  150.9710 O   0  0  0  0  0  0  0  0  0  0  0  0
  160.4300  213.7570  146.1320 N   0  0  0  0  0  2  0  0  0  0  0  0
  160.2610  213.5670  144.7040 C   0  0  2  0  0  3  0  0  0  0  0  0
  162.5220  214.4280  144.3420 O   0  0  0  0  0  1  0  0  0  0  0  0
  160.3190  211.9630  142.8670 C   0  0  0  0  0  2  0  0  0  0  0  0
  161.1660  213.9990  142.3740 C   0  0  0  0  0  2  0  0  0  0  0  0
  160.4070  212.0880  144.3810 C   0  0  0  0  0  2  0  0  0  0  0  0
  161.4360  212.6070  142.2970 O   0  0  0  0  0  0  0  0  0  0  0  0
  161.2010  214.4520  143.8480 C   0  0  1  0  0  3  0  0  0  0  0  0
  162.3130  210.8080  154.2040 O   0  0  0  0  0  0  0  0  0  0  0  0
  162.0850  210.9720  155.5880 C   0  0  0  0  0  3  0  0  0  0  0  0
  160.9500  211.3450  156.1130 N   0  0  0  0  0  0  0  0  0  0  0  0
  159.7780  211.5890  155.3090 C   0  0  0  0  0  2  0  0  0  0  0  0
  158.7480  212.3300  156.1290 C   0  0  2  0  0  3  0  0  0  0  0  0
  159.3290  212.9690  157.2360 O   0  0  0  0  0  1  0  0  0  0  0  0
  157.5970  210.0430  156.0090 C   0  0  0  0  0  1  0  0  0  0  0  0
  157.5220  211.4690  156.5630 C   0  0  2  0  0  3  0  0  0  0  0  0
  155.7340  211.5880  154.9780 O   0  0  0  0  0  1  0  0  0  0  0  0
  156.2250  212.1590  156.1410 C   0  0  2  0  0  3  0  0  0  0  0  0
  155.6450  214.3570  156.9020 O   0  0  0  0  0  1  0  0  0  0  0  0
  156.3710  213.6500  155.9300 C   0  0  0  0  0  2  0  0  0  0  0  0
  2 20  2  0  0  0  0
  4  7  2  0  0  0  0
  5  3  1  0  0  0  0
  5 19  2  0  0  0  0
  6 22  1  6  0  0  0
  6 10  1  0  0  0  0
  7  1  1  0  0  0  0
  9  4  1  1  0  0  0
  9  6  1  0  0  0  0
  9 21  1  0  0  0  0
 10 14  1  1  0  0  0
 12  2  1  0  0  0  0
 13 11  1  0  0  0  0
 13  3  1  0  0  0  0
 13 59  1  1  0  0  0
 15 43  1  0  0  0  0
 15 11  1  0  0  0  0
 16 17  1  0  0  0  0
 17  5  1  0  0  0  0
 18  8  2  6  0  0  0
 18 14  1  0  0  0  0
 18 16  1  0  0  0  0
 20 15  2  0  0  0  0
 21 10  1  0  0  0  0
 21  2  1  1  0  0  0
 22  1  1  0  0  0  0
 23 26  1  0  0  0  0
 24 29  1  6  0  0  0
 24 23  1  0  0  0  0
 25 27  1  6  0  0  0
 25 26  1  0  0  0  0
 25 18  1  0  0  0  0
 27 24  1  0  0  0  0
 29 28  1  1  0  0  0
 29 30  1  0  0  0  0
 31 30  1  0  0  0  0
 31 34  1  0  0  0  0
 34 32  1  0  0  0  0
 34 33  1  1  0  0  0
 35 36  1  6  0  0  0
 35 34  1  0  0  0  0
 35 32  1  0  0  0  0
 36 37  1  0  0  0  0
 38 37  1  0  0  0  0
 39 31  1  0  0  0  0
 40 39  1  0  0  0  0
 41 43  2  0  0  0  0
 43 42  1  0  0  0  0
 44 45  2  0  0  0  0
 45 46  1  0  0  0  0
 45 19  1  0  0  0  0
 47 46  1  0  0  0  0
 48 49  1  0  0  0  0
 49 47  1  0  0  0  0
 50 49  2  0  0  0  0
 51  4  1  0  0  0  0
 52 51  1  1  0  0  0
 54 56  1  0  0  0  0
 55 58  1  0  0  0  0
 56 52  1  0  0  0  0
 57 55  1  0  0  0  0
 57 54  1  0  0  0  0
 58 53  1  1  0  0  0
 58 52  1  0  0  0  0
 59 60  1  0  0  0  0
 60 61  2  0  0  0  0
 62 61  1  0  0  0  0
 62 63  1  0  0  0  0
 63 66  1  0  0  0  0
 63 64  1  1  0  0  0
 66 65  1  6  0  0  0
 68 67  1  6  0  0  0
 68 66  1  0  0  0  0
 70 68  1  0  0  0  0
 70 69  1  0  0  0  0
M  END
>  <MODEL>
2

>  <REMARK>
 VINA RESULT:       0.9      1.925      3.546
  Name = 
  22 active torsions:
  status: ('A' for Active; 'I' for Inactive)
    1  A    between atoms: O_1  and  O_8
    2  A    between atoms: O_1  and  C_22
    3  A    between atoms: C_3  and  C_9
    4  A    between atoms: C_6  and  C_47
    5  A    between atoms: C_6  and  C_67
    6  A    between atoms: C_7  and  N_16
    7  A    between atoms: C_7  and  C_61
    8  A    between atoms: O_8  and  C_63
    9  A    between atoms: C_9  and  C_66
   10  A    between atoms: C_12  and  N_62
   11  A    between atoms: N_16  and  O_29
   12  A    between atoms: N_16  and  C_33
   13  A    between atoms: O_20  and  C_38
   14  A    between atoms: O_20  and  C_54
   15  A    between atoms: C_34  and  N_62
   16  A    between atoms: C_40  and  C_61
   17  A    between atoms: C_42  and  P_51
   18  A    between atoms: C_43  and  C_44
   19  A    between atoms: C_47  and  C_55
   20  A    between atoms: C_52  and  C_63
   21  A    between atoms: C_55  and  C_64
   22  A    between atoms: N_56  and  C_67
                            x       y       z     vdW  Elec       q    Type
                         _______ _______ _______ _____ _____    ______ ____

>  <TORSDO>
F 22

$$$$
=
 OpenBabel11072415283D

 70 75  0  0  1  0  0  0  0  0999 V2000
  164.0410  212.8910  147.8480 C   0  0  0  0  0  2  0  0  0  0  0  0
  160.6540  212.6770  149.8220 C   0  0  0  0  0  0  0  0  0  0  0  0
  160.3610  209.5180  153.4270 C   0  0  0  0  0  2  0  0  0  0  0  0
  161.6990  213.0570  147.0200 C   0  0  0  0  0  0  0  0  0  0  0  0
  160.6830  208.1450  152.9240 C   0  0  0  0  0  0  0  0  0  0  0  0
  162.6720  210.7750  147.8130 C   0  0  2  0  0  3  0  0  0  0  0  0
  162.9240  213.6270  147.1710 C   0  0  0  0  0  3  0  0  0  0  0  0
  160.4070  208.5810  148.8880 O   0  0  0  0  0  0  0  0  0  0  0  0
  161.4210  211.6130  147.4770 C   0  0  1  0  0  3  0  0  0  0  0  0
  162.3370  210.9470  149.2990 C   0  0  2  0  0  3  0  0  0  0  0  0
  161.1470  211.9450  153.3490 C   0  0  0  0  0  2  0  0  0  0  0  0
  160.4890  213.9470  149.3050 O   0  0  0  0  0  1  0  0  0  0  0  0
  161.5500  210.4660  153.2170 C   0  0  1  0  0  3  0  0  0  0  0  0
  162.2790  209.9080  150.2430 O   0  0  0  0  0  0  0  0  0  0  0  0
  160.0970  212.3580  152.3620 C   0  0  0  0  0  0  0  0  0  0  0  0
  161.6310  207.3910  150.8670 O   0  0  0  0  0  0  0  0  0  0  0  0
  160.5850  207.8990  151.5550 O   0  0  0  0  0  0  0  0  0  0  0  0
  161.7690  208.4410  149.5430 P   0  0  1  0  0  0  0  0  0  0  0  0
  161.0770  207.2200  153.7980 C   0  0  0  0  0  3  0  0  0  0  0  0
  160.4030  212.4770  151.0830 C   0  0  0  0  0  0  0  0  0  0  0  0
  160.9790  211.4930  148.9470 C   0  0  1  0  0  3  0  0  0  0  0  0
  164.0030  211.4190  147.4190 C   0  0  0  0  0  2  0  0  0  0  0  0
  162.6870  205.5550  148.2160 C   0  0  0  0  0  2  0  0  0  0  0  0
  161.9320  206.2060  147.0750 C   0  0  1  0  0  3  0  0  0  0  0  0
  163.0550  207.7860  148.4060 C   0  0  1  0  0  3  0  0  0  0  0  0
  163.4840  206.5270  148.8610 O   0  0  0  0  0  0  0  0  0  0  0  0
  162.4650  207.6110  147.0340 C   0  0  0  0  0  2  0  0  0  0  0  0
  160.9400  205.3930  144.8340 C   0  0  0  0  0  1  0  0  0  0  0  0
  162.1060  205.3260  145.8120 C   0  0  2  0  0  3  0  0  0  0  0  0
  162.4560  203.8530  146.1140 C   0  0  0  0  0  2  0  0  0  0  0  0
  161.4030  202.8730  145.7870 N   0  0  0  0  0  0  0  0  0  0  0  0
  162.1120  201.1190  147.5200 C   0  0  0  0  0  2  0  0  0  0  0  0
  160.3480  202.8980  148.1220 C   0  0  0  0  0  1  0  0  0  0  0  0
  161.0930  202.1440  147.0400 C   0  0  1  0  0  0  0  0  0  0  0  0
  160.7630  200.6450  147.0080 C   0  0  1  0  0  3  0  0  0  0  0  0
  160.9270  199.9890  145.6450 C   0  0  0  0  0  2  0  0  0  0  0  0
  161.1020  198.4850  145.7900 C   0  0  0  0  0  2  0  0  0  0  0  0
  161.9210  198.0520  144.7300 O   0  0  0  0  0  1  0  0  0  0  0  0
  160.2880  203.5750  145.3790 O   0  0  0  0  0  0  0  0  0  0  0  0
  159.5430  202.6890  144.5640 C   0  0  0  0  0  1  0  0  0  0  0  0
  158.8450  213.7080  153.8440 O   0  0  0  0  0  1  0  0  0  0  0  0
  157.6380  212.5740  152.2540 O   0  0  0  0  0  0  0  0  0  0  0  0
  158.8450  212.9580  152.8280 C   0  0  0  0  0  0  0  0  0  0  0  0
  162.6430  205.5430  153.0780 O   0  0  0  0  0  0  0  0  0  0  0  0
  161.4800  205.8220  153.5140 C   0  0  0  0  0  0  0  0  0  0  0  0
  160.6020  204.7950  153.8410 O   0  0  0  0  0  0  0  0  0  0  0  0
  160.1860  203.9590  152.8430 O   0  0  0  0  0  0  0  0  0  0  0  0
  161.1490  204.5540  150.6930 O   0  0  0  0  0  0  0  0  0  0  0  0
  160.9900  203.6500  151.7490 C   0  0  0  0  0  0  0  0  0  0  0  0
  161.5150  202.5070  151.6590 O   0  0  0  0  0  1  0  0  0  0  0  0
  160.6500  213.7250  146.3290 N   0  0  0  0  0  2  0  0  0  0  0  0
  159.2450  213.6120  146.6700 C   0  0  2  0  0  3  0  0  0  0  0  0
  158.6570  214.2930  144.3960 O   0  0  0  0  0  1  0  0  0  0  0  0
  157.3610  212.0900  146.9590 C   0  0  0  0  0  2  0  0  0  0  0  0
  156.8420  214.0660  145.9940 C   0  0  0  0  0  2  0  0  0  0  0  0
  158.8580  212.1410  146.6940 C   0  0  0  0  0  2  0  0  0  0  0  0
  156.6890  212.6610  145.8590 O   0  0  0  0  0  0  0  0  0  0  0  0
  158.3180  214.4500  145.7560 C   0  0  1  0  0  3  0  0  0  0  0  0
  162.6440  210.2040  154.1400 O   0  0  0  0  0  0  0  0  0  0  0  0
  162.5250  210.4700  155.5230 C   0  0  0  0  0  3  0  0  0  0  0  0
  161.4230  210.8420  156.1140 N   0  0  0  0  0  0  0  0  0  0  0  0
  160.1780  210.9760  155.3990 C   0  0  0  0  0  2  0  0  0  0  0  0
  159.3050  211.9950  156.0930 C   0  0  2  0  0  3  0  0  0  0  0  0
  159.9570  212.5750  157.1910 O   0  0  0  0  0  1  0  0  0  0  0  0
  157.5720  210.1220  155.8450 C   0  0  0  0  0  1  0  0  0  0  0  0
  157.8920  211.4700  156.4960 C   0  0  2  0  0  3  0  0  0  0  0  0
  156.5810  213.3240  157.2530 O   0  0  0  0  0  1  0  0  0  0  0  0
  156.8300  212.5160  156.1550 C   0  0  2  0  0  3  0  0  0  0  0  0
  154.5660  211.9530  156.7060 O   0  0  0  0  0  1  0  0  0  0  0  0
  155.5230  211.9210  155.6790 C   0  0  0  0  0  2  0  0  0  0  0  0
  2 20  2  0  0  0  0
  4  7  2  0  0  0  0
  5  3  1  0  0  0  0
  5 19  2  0  0  0  0
  6 22  1  1  0  0  0
  6 10  1  0  0  0  0
  7  1  1  0  0  0  0
  9  4  1  1  0  0  0
  9  6  1  0  0  0  0
  9 21  1  0  0  0  0
 10 14  1  1  0  0  0
 12  2  1  0  0  0  0
 13 11  1  0  0  0  0
 13  3  1  0  0  0  0
 13 59  1  1  0  0  0
 15 43  1  0  0  0  0
 15 11  1  0  0  0  0
 16 17  1  0  0  0  0
 17  5  1  0  0  0  0
 18  8  2  6  0  0  0
 18 14  1  0  0  0  0
 18 16  1  0  0  0  0
 20 15  2  0  0  0  0
 21 10  1  0  0  0  0
 21  2  1  1  0  0  0
 22  1  1  0  0  0  0
 23 26  1  0  0  0  0
 24 29  1  6  0  0  0
 24 23  1  0  0  0  0
 25 27  1  6  0  0  0
 25 26  1  0  0  0  0
 25 18  1  0  0  0  0
 27 24  1  0  0  0  0
 29 28  1  1  0  0  0
 29 30  1  0  0  0  0
 31 30  1  0  0  0  0
 31 34  1  0  0  0  0
 34 32  1  0  0  0  0
 34 33  1  1  0  0  0
 35 36  1  6  0  0  0
 35 34  1  0  0  0  0
 35 32  1  0  0  0  0
 36 37  1  0  0  0  0
 38 37  1  0  0  0  0
 39 31  1  0  0  0  0
 40 39  1  0  0  0  0
 42 43  2  0  0  0  0
 43 41  1  0  0  0  0
 44 45  2  0  0  0  0
 45 19  1  0  0  0  0
 45 46  1  0  0  0  0
 47 46  1  0  0  0  0
 48 49  2  0  0  0  0
 49 47  1  0  0  0  0
 50 49  1  0  0  0  0
 51  4  1  0  0  0  0
 52 51  1  6  0  0  0
 52 56  1  0  0  0  0
 56 54  1  0  0  0  0
 57 55  1  0  0  0  0
 57 54  1  0  0  0  0
 58 53  1  6  0  0  0
 58 55  1  0  0  0  0
 58 52  1  0  0  0  0
 59 60  1  0  0  0  0
 60 61  2  0  0  0  0
 62 63  1  0  0  0  0
 62 61  1  0  0  0  0
 63 66  1  0  0  0  0
 63 64  1  1  0  0  0
 66 65  1  6  0  0  0
 68 66  1  0  0  0  0
 68 67  1  1  0  0  0
 70 68  1  0  0  0  0
 70 69  1  0  0  0  0
M  END
>  <MODEL>
3

>  <REMARK>
 VINA RESULT:       1.2      2.117      3.779
  Name = 
  22 active torsions:
  status: ('A' for Active; 'I' for Inactive)
    1  A    between atoms: O_1  and  O_8
    2  A    between atoms: O_1  and  C_22
    3  A    between atoms: C_3  and  C_9
    4  A    between atoms: C_6  and  C_47
    5  A    between atoms: C_6  and  C_67
    6  A    between atoms: C_7  and  N_16
    7  A    between atoms: C_7  and  C_61
    8  A    between atoms: O_8  and  C_63
    9  A    between atoms: C_9  and  C_66
   10  A    between atoms: C_12  and  N_62
   11  A    between atoms: N_16  and  O_29
   12  A    between atoms: N_16  and  C_33
   13  A    between atoms: O_20  and  C_38
   14  A    between atoms: O_20  and  C_54
   15  A    between atoms: C_34  and  N_62
   16  A    between atoms: C_40  and  C_61
   17  A    between atoms: C_42  and  P_51
   18  A    between atoms: C_43  and  C_44
   19  A    between atoms: C_47  and  C_55
   20  A    between atoms: C_52  and  C_63
   21  A    between atoms: C_55  and  C_64
   22  A    between atoms: N_56  and  C_67
                            x       y       z     vdW  Elec       q    Type
                         _______ _______ _______ _____ _____    ______ ____

>  <TORSDO>
F 22

$$$$
=
 OpenBabel11072415283D

 70 75  0  0  1  0  0  0  0  0999 V2000
  163.8510  213.4120  148.5410 C   0  0  0  0  0  2  0  0  0  0  0  0
  160.3960  213.0930  150.3760 C   0  0  0  0  0  0  0  0  0  0  0  0
  160.0360  209.8740  153.9220 C   0  0  0  0  0  2  0  0  0  0  0  0
  161.5400  213.5380  147.6240 C   0  0  0  0  0  0  0  0  0  0  0  0
  160.4090  208.5160  153.4130 C   0  0  0  0  0  0  0  0  0  0  0  0
  162.5340  211.2670  148.4220 C   0  0  2  0  0  3  0  0  0  0  0  0
  162.7450  214.1330  147.8300 C   0  0  0  0  0  3  0  0  0  0  0  0
  160.2800  209.0070  149.3750 O   0  0  0  0  0  0  0  0  0  0  0  0
  161.2780  212.0820  148.0490 C   0  0  1  0  0  3  0  0  0  0  0  0
  162.1380  211.4090  149.8960 C   0  0  2  0  0  3  0  0  0  0  0  0
  160.7690  212.3200  153.9090 C   0  0  0  0  0  2  0  0  0  0  0  0
  160.2220  214.3660  149.8720 O   0  0  0  0  0  1  0  0  0  0  0  0
  161.2100  210.8510  153.7730 C   0  0  1  0  0  3  0  0  0  0  0  0
  162.0670  210.3550  150.8220 O   0  0  0  0  0  0  0  0  0  0  0  0
  159.7480  212.7230  152.8880 C   0  0  0  0  0  0  0  0  0  0  0  0
  161.4530  207.8150  151.3840 O   0  0  0  0  0  0  0  0  0  0  0  0
  160.3700  208.2890  152.0380 O   0  0  0  0  0  0  0  0  0  0  0  0
  161.6180  208.8880  150.0820 P   0  0  1  0  0  0  0  0  0  0  0  0
  160.7890  207.5870  154.2890 C   0  0  0  0  0  3  0  0  0  0  0  0
  160.1010  212.8680  151.6240 C   0  0  0  0  0  0  0  0  0  0  0  0
  160.7820  211.9290  149.4980 C   0  0  1  0  0  3  0  0  0  0  0  0
  163.8640  211.9460  148.0890 C   0  0  0  0  0  2  0  0  0  0  0  0
  162.8650  206.0120  149.0270 C   0  0  0  0  0  2  0  0  0  0  0  0
  162.0250  206.4500  147.8450 C   0  0  1  0  0  3  0  0  0  0  0  0
  162.9630  208.2780  148.9870 C   0  0  1  0  0  3  0  0  0  0  0  0
  163.5450  207.1320  149.5550 O   0  0  0  0  0  0  0  0  0  0  0  0
  162.3840  207.8970  147.6530 C   0  0  0  0  0  2  0  0  0  0  0  0
  161.4440  205.7350  145.4320 C   0  0  0  0  0  1  0  0  0  0  0  0
  162.2900  205.4730  146.6720 C   0  0  2  0  0  3  0  0  0  0  0  0
  162.2060  203.9820  147.0620 C   0  0  0  0  0  2  0  0  0  0  0  0
  160.8820  203.5220  147.5210 N   0  0  0  0  0  0  0  0  0  0  0  0
  161.4990  201.6730  145.8520 C   0  0  0  0  0  2  0  0  0  0  0  0
  160.6540  201.0640  148.2100 C   0  0  0  0  0  1  0  0  0  0  0  0
  160.7570  202.1020  147.1120 C   0  0  1  0  0  0  0  0  0  0  0  0
  159.9800  201.7230  145.8430 C   0  0  1  0  0  3  0  0  0  0  0  0
  159.5050  202.9060  145.0130 C   0  0  0  0  0  2  0  0  0  0  0  0
  158.1580  202.6080  144.3740 C   0  0  0  0  0  2  0  0  0  0  0  0
  157.5290  203.8410  144.1200 O   0  0  0  0  0  1  0  0  0  0  0  0
  160.8640  203.6040  148.8980 O   0  0  0  0  0  0  0  0  0  0  0  0
  159.9310  204.6200  149.2180 C   0  0  0  0  0  1  0  0  0  0  0  0
  158.0820  213.1540  154.5080 O   0  0  0  0  0  1  0  0  0  0  0  0
  157.5990  213.8260  152.3660 O   0  0  0  0  0  0  0  0  0  0  0  0
  158.4660  213.2880  153.3120 C   0  0  0  0  0  0  0  0  0  0  0  0
  161.5060  205.3840  154.9370 O   0  0  0  0  0  0  0  0  0  0  0  0
  161.2360  206.2030  154.0010 C   0  0  0  0  0  0  0  0  0  0  0  0
  161.2470  205.7680  152.6800 O   0  0  0  0  0  0  0  0  0  0  0  0
  161.9020  204.6050  152.3900 O   0  0  0  0  0  0  0  0  0  0  0  0
  161.3950  202.6860  150.9870 O   0  0  0  0  0  0  0  0  0  0  0  0
  161.2280  203.4050  152.1750 C   0  0  0  0  0  0  0  0  0  0  0  0
  160.3880  202.9980  153.0230 O   0  0  0  0  0  1  0  0  0  0  0  0
  160.5040  214.1930  146.9010 N   0  0  0  0  0  2  0  0  0  0  0  0
  159.7270  213.5720  145.8450 C   0  0  2  0  0  3  0  0  0  0  0  0
  157.6820  214.4440  146.8640 O   0  0  0  0  0  1  0  0  0  0  0  0
  158.9470  213.7620  143.5420 C   0  0  0  0  0  2  0  0  0  0  0  0
  157.4290  212.9220  144.9890 C   0  0  0  0  0  2  0  0  0  0  0  0
  159.8570  214.4050  144.5790 C   0  0  0  0  0  2  0  0  0  0  0  0
  157.6110  213.8950  143.9700 O   0  0  0  0  0  0  0  0  0  0  0  0
  158.2500  213.3170  146.2340 C   0  0  1  0  0  3  0  0  0  0  0  0
  162.2730  210.6010  154.7340 O   0  0  0  0  0  0  0  0  0  0  0  0
  162.0200  210.5610  156.1240 C   0  0  0  0  0  3  0  0  0  0  0  0
  162.9430  210.5700  157.0460 N   0  0  0  0  0  0  0  0  0  0  0  0
  164.3450  210.6690  156.7240 C   0  0  0  0  0  2  0  0  0  0  0  0
  164.6410  212.0460  156.1780 C   0  0  2  0  0  3  0  0  0  0  0  0
  164.5610  212.0760  154.7780 O   0  0  0  0  0  1  0  0  0  0  0  0
  165.8080  214.1030  157.1670 C   0  0  0  0  0  1  0  0  0  0  0  0
  165.9850  212.6640  156.6730 C   0  0  2  0  0  3  0  0  0  0  0  0
  167.8050  211.4410  155.7140 O   0  0  0  0  0  1  0  0  0  0  0  0
  167.0350  212.5840  155.5650 C   0  0  2  0  0  3  0  0  0  0  0  0
  168.7220  213.8710  156.6800 O   0  0  0  0  0  1  0  0  0  0  0  0
  167.9520  213.7870  155.5090 C   0  0  0  0  0  2  0  0  0  0  0  0
  2 20  2  0  0  0  0
  4  7  2  0  0  0  0
  5  3  1  0  0  0  0
  5 19  2  0  0  0  0
  6 22  1  1  0  0  0
  6 10  1  0  0  0  0
  7  1  1  0  0  0  0
  9  4  1  1  0  0  0
  9  6  1  0  0  0  0
  9 21  1  0  0  0  0
 10 14  1  6  0  0  0
 12  2  1  0  0  0  0
 13 11  1  0  0  0  0
 13  3  1  0  0  0  0
 13 59  1  1  0  0  0
 15 43  1  0  0  0  0
 15 11  1  0  0  0  0
 16 17  1  0  0  0  0
 17  5  1  0  0  0  0
 18  8  2  6  0  0  0
 18 14  1  0  0  0  0
 18 16  1  0  0  0  0
 20 15  2  0  0  0  0
 21 10  1  0  0  0  0
 21  2  1  1  0  0  0
 22  1  1  0  0  0  0
 23 26  1  0  0  0  0
 24 29  1  6  0  0  0
 24 23  1  0  0  0  0
 25 27  1  6  0  0  0
 25 26  1  0  0  0  0
 25 18  1  0  0  0  0
 27 24  1  0  0  0  0
 29 28  1  6  0  0  0
 29 30  1  0  0  0  0
 30 31  1  0  0  0  0
 31 39  1  0  0  0  0
 32 34  1  0  0  0  0
 34 31  1  0  0  0  0
 34 33  1  1  0  0  0
 35 36  1  6  0  0  0
 35 32  1  0  0  0  0
 35 34  1  0  0  0  0
 37 36  1  0  0  0  0
 38 37  1  0  0  0  0
 39 40  1  0  0  0  0
 42 43  2  0  0  0  0
 43 41  1  0  0  0  0
 45 19  1  0  0  0  0
 45 44  2  0  0  0  0
 46 45  1  0  0  0  0
 47 46  1  0  0  0  0
 48 49  2  0  0  0  0
 49 47  1  0  0  0  0
 49 50  1  0  0  0  0
 51  4  1  0  0  0  0
 52 58  1  0  0  0  0
 52 51  1  1  0  0  0
 54 57  1  0  0  0  0
 54 56  1  0  0  0  0
 55 58  1  0  0  0  0
 56 52  1  0  0  0  0
 57 55  1  0  0  0  0
 58 53  1  6  0  0  0
 59 60  1  0  0  0  0
 60 61  2  0  0  0  0
 62 61  1  0  0  0  0
 63 64  1  6  0  0  0
 63 66  1  0  0  0  0
 63 62  1  0  0  0  0
 66 65  1  6  0  0  0
 68 67  1  1  0  0  0
 68 66  1  0  0  0  0
 70 68  1  0  0  0  0
 70 69  1  0  0  0  0
M  END
>  <MODEL>
4

>  <REMARK>
 VINA RESULT:       2.1      1.448      1.934
  Name = 
  22 active torsions:
  status: ('A' for Active; 'I' for Inactive)
    1  A    between atoms: O_1  and  O_8
    2  A    between atoms: O_1  and  C_22
    3  A    between atoms: C_3  and  C_9
    4  A    between atoms: C_6  and  C_47
    5  A    between atoms: C_6  and  C_67
    6  A    between atoms: C_7  and  N_16
    7  A    between atoms: C_7  and  C_61
    8  A    between atoms: O_8  and  C_63
    9  A    between atoms: C_9  and  C_66
   10  A    between atoms: C_12  and  N_62
   11  A    between atoms: N_16  and  O_29
   12  A    between atoms: N_16  and  C_33
   13  A    between atoms: O_20  and  C_38
   14  A    between atoms: O_20  and  C_54
   15  A    between atoms: C_34  and  N_62
   16  A    between atoms: C_40  and  C_61
   17  A    between atoms: C_42  and  P_51
   18  A    between atoms: C_43  and  C_44
   19  A    between atoms: C_47  and  C_55
   20  A    between atoms: C_52  and  C_63
   21  A    between atoms: C_55  and  C_64
   22  A    between atoms: N_56  and  C_67
                            x       y       z     vdW  Elec       q    Type
                         _______ _______ _______ _____ _____    ______ ____

>  <TORSDO>
F 22

$$$$
