=
 OpenBabel11072412283D

 33 35  0  0  1  0  0  0  0  0999 V2000
  161.3280  208.0940  151.2950 C   0  0  2  0  0  3  0  0  0  0  0  0
  161.9150  209.1540  150.4160 C   0  0  0  0  0  0  0  0  0  0  0  0
  162.1090  208.9210  149.0580 O   0  0  0  0  0  0  0  0  0  0  0  0
  162.2170  210.2720  150.9050 O   0  0  0  0  0  1  0  0  0  0  0  0
  160.6390  208.7050  152.5120 C   0  0  0  0  0  2  0  0  0  0  0  0
  161.5340  208.7870  153.7570 C   0  0  1  0  0  3  0  0  0  0  0  0
  158.6000  213.4150  154.9140 F   0  0  0  0  0  0  0  0  0  0  0  0
  158.3360  211.1010  155.5910 C   0  0  2  0  0  3  0  0  0  0  0  0
  159.0630  212.4420  155.7860 C   0  0  1  0  0  3  0  0  0  0  0  0
  161.5840  210.1380  154.3040 N   0  0  0  0  0  2  0  0  0  0  0  0
  160.5210  212.1420  155.4550 C   0  0  0  0  0  2  0  0  0  0  0  0
  160.4500  210.7840  154.8800 C   0  0  0  0  0  0  0  0  0  0  0  0
  159.2880  210.2320  154.9320 N   0  0  0  0  0  0  0  0  0  0  0  0
  157.0620  211.2080  154.7700 C   0  0  0  0  0  1  0  0  0  0  0  0
  160.2720  206.9250  154.5350 O   0  0  0  0  0  0  0  0  0  0  0  0
  161.1280  207.8090  154.8100 C   0  0  0  0  0  0  0  0  0  0  0  0
  161.6980  207.8790  156.0830 O   0  0  0  0  0  0  0  0  0  0  0  0
  160.9000  207.8960  157.2610 C   0  0  0  0  0  1  0  0  0  0  0  0
  162.4200  207.1470  151.7670 C   0  0  0  0  0  2  0  0  0  0  0  0
  162.3080  205.8760  151.0710 N   0  0  0  0  0  2  0  0  0  0  0  0
  161.1520  202.7550  150.5460 N   0  0  0  0  0  0  0  0  0  0  0  0
  161.6480  203.3390  148.2880 N   0  0  0  0  0  0  0  0  0  0  0  0
  160.6170  204.5050  152.1180 C   0  0  0  0  0  3  0  0  0  0  0  0
  160.8950  205.5280  151.0420 C   0  0  2  0  0  3  0  0  0  0  0  0
  160.0590  206.2280  147.7160 O   0  0  0  0  0  1  0  0  0  0  0  0
  161.0270  203.5610  149.5350 C   0  0  0  0  0  0  0  0  0  0  0  0
  161.0850  205.6270  148.4440 C   0  0  1  0  0  3  0  0  0  0  0  0
  160.4950  204.9410  149.6750 C   0  0  2  0  0  3  0  0  0  0  0  0
  161.6690  204.4740  147.6680 C   0  0  0  0  0  0  0  0  0  0  0  0
  160.7780  203.1970  151.8630 C   0  0  0  0  0  3  0  0  0  0  0  0
  162.2750  204.6140  146.3410 C   0  0  0  0  0  0  0  0  0  0  0  0
  161.4920  204.4890  145.2000 O   0  0  0  0  0  0  0  0  0  0  0  0
  163.5070  204.8520  146.2260 O   0  0  0  0  0  1  0  0  0  0  0  0
  1 19  1  1  0  0  0
  1  5  1  0  0  0  0
  2  4  1  0  0  0  0
  2  1  1  0  0  0  0
  3  2  2  0  0  0  0
  6  5  1  6  0  0  0
  6 10  1  0  0  0  0
  6 16  1  0  0  0  0
  8 14  1  6  0  0  0
  8  9  1  0  0  0  0
  9  7  1  6  0  0  0
 10 12  1  0  0  0  0
 11  9  1  0  0  0  0
 12 13  2  0  0  0  0
 12 11  1  0  0  0  0
 13  8  1  0  0  0  0
 15 16  2  0  0  0  0
 16 17  1  0  0  0  0
 17 18  1  0  0  0  0
 20 19  1  0  0  0  0
 21 30  1  0  0  0  0
 22 26  1  0  0  0  0
 24 20  1  6  0  0  0
 24 23  1  0  0  0  0
 26 21  2  0  0  0  0
 27 25  1  6  0  0  0
 27 28  1  0  0  0  0
 28 26  1  1  0  0  0
 28 24  1  0  0  0  0
 29 22  2  0  0  0  0
 29 27  1  0  0  0  0
 30 23  2  0  0  0  0
 31 29  1  0  0  0  0
 32 31  2  0  0  0  0
 33 31  1  0  0  0  0
M  END
>  <MODEL>
1

>  <REMARK>
 VINA RESULT:      -7.2      0.000      0.000
  Name = 
  10 active torsions:
  status: ('A' for Active; 'I' for Inactive)
    1  A    between atoms: C_1  and  C_13
    2  A    between atoms: C_5  and  N_19
    3  A    between atoms: C_5  and  C_21
    4  A    between atoms: C_5  and  C_27
    5  A    between atoms: N_9  and  C_17
    6  A    between atoms: N_9  and  C_32
    7  A    between atoms: O_12  and  C_27
    8  A    between atoms: C_13  and  C_21
    9  A    between atoms: C_13  and  C_32
   10  A    between atoms: C_16  and  CA_31
                            x       y       z     vdW  Elec       q    Type
                         _______ _______ _______ _____ _____    ______ ____

>  <TORSDO>
F 10

$$$$
=
 OpenBabel11072412283D

 33 35  0  0  1  0  0  0  0  0999 V2000
  161.2720  207.7910  151.8590 C   0  0  2  0  0  3  0  0  0  0  0  0
  161.3230  207.0940  153.1830 C   0  0  0  0  0  0  0  0  0  0  0  0
  160.3340  207.3140  154.1370 O   0  0  0  0  0  1  0  0  0  0  0  0
  162.2550  206.2860  153.4270 O   0  0  0  0  0  0  0  0  0  0  0  0
  162.3540  207.2660  150.9180 C   0  0  0  0  0  2  0  0  0  0  0  0
  161.8280  206.3170  149.8340 C   0  0  1  0  0  3  0  0  0  0  0  0
  158.9910  201.6080  148.7690 F   0  0  0  0  0  0  0  0  0  0  0  0
  161.3300  202.1980  148.5180 C   0  0  2  0  0  3  0  0  0  0  0  0
  160.1870  201.7620  149.4510 C   0  0  1  0  0  3  0  0  0  0  0  0
  160.9660  205.2800  150.3890 N   0  0  0  0  0  2  0  0  0  0  0  0
  160.0400  202.9110  150.4430 C   0  0  0  0  0  2  0  0  0  0  0  0
  160.8970  203.9590  149.8540 C   0  0  0  0  0  0  0  0  0  0  0  0
  161.5720  203.5920  148.8200 N   0  0  0  0  0  0  0  0  0  0  0  0
  161.0150  202.0240  147.0410 C   0  0  0  0  0  1  0  0  0  0  0  0
  161.3260  208.2850  148.5920 O   0  0  0  0  0  0  0  0  0  0  0  0
  161.1300  207.0470  148.7340 C   0  0  0  0  0  0  0  0  0  0  0  0
  160.2720  206.3570  147.8740 O   0  0  0  0  0  0  0  0  0  0  0  0
  160.5550  206.2170  146.4870 C   0  0  0  0  0  1  0  0  0  0  0  0
  161.4650  209.2860  152.0520 C   0  0  0  0  0  2  0  0  0  0  0  0
  160.4310  209.8090  152.9300 N   0  0  0  0  0  2  0  0  0  0  0  0
  160.3950  210.1810  156.2790 N   0  0  0  0  0  0  0  0  0  0  0  0
  158.1500  210.8410  155.8190 N   0  0  0  0  0  0  0  0  0  0  0  0
  162.0750  210.4730  154.5720 C   0  0  0  0  0  3  0  0  0  0  0  0
  161.0000  210.9530  153.6250 C   0  0  2  0  0  3  0  0  0  0  0  0
  158.3560  213.2450  153.4990 O   0  0  0  0  0  1  0  0  0  0  0  0
  159.5470  210.9270  155.6370 C   0  0  0  0  0  0  0  0  0  0  0  0
  158.5690  211.8890  153.7440 C   0  0  1  0  0  3  0  0  0  0  0  0
  159.9220  211.7060  154.4290 C   0  0  2  0  0  3  0  0  0  0  0  0
  157.5990  211.3880  154.7840 C   0  0  0  0  0  0  0  0  0  0  0  0
  161.7530  210.0830  155.8150 C   0  0  0  0  0  3  0  0  0  0  0  0
  156.1430  211.4470  154.6300 C   0  0  0  0  0  0  0  0  0  0  0  0
  155.3750  210.3050  154.8230 O   0  0  0  0  0  1  0  0  0  0  0  0
  155.5790  212.5310  154.3260 O   0  0  0  0  0  0  0  0  0  0  0  0
  1  5  1  6  0  0  0
  1 19  1  0  0  0  0
  1  2  1  0  0  0  0
  2  4  2  0  0  0  0
  2  3  1  0  0  0  0
  6 10  1  0  0  0  0
  6  5  1  1  0  0  0
  8 14  1  6  0  0  0
  8 13  1  0  0  0  0
  8  9  1  0  0  0  0
  9  7  1  6  0  0  0
  9 11  1  0  0  0  0
 12 10  1  0  0  0  0
 12 11  1  0  0  0  0
 13 12  2  0  0  0  0
 15 16  2  0  0  0  0
 16  6  1  0  0  0  0
 17 16  1  0  0  0  0
 18 17  1  0  0  0  0
 19 20  1  0  0  0  0
 23 30  2  0  0  0  0
 24 20  1  1  0  0  0
 24 28  1  0  0  0  0
 24 23  1  0  0  0  0
 26 22  1  0  0  0  0
 26 21  2  0  0  0  0
 27 25  1  1  0  0  0
 27 28  1  0  0  0  0
 27 29  1  0  0  0  0
 28 26  1  1  0  0  0
 29 22  2  0  0  0  0
 30 21  1  0  0  0  0
 31 29  1  0  0  0  0
 31 32  1  0  0  0  0
 33 31  2  0  0  0  0
M  END
>  <MODEL>
2

>  <REMARK>
 VINA RESULT:      -6.7      3.315      8.924
  Name = 
  10 active torsions:
  status: ('A' for Active; 'I' for Inactive)
    1  A    between atoms: C_1  and  C_13
    2  A    between atoms: C_5  and  N_19
    3  A    between atoms: C_5  and  C_21
    4  A    between atoms: C_5  and  C_27
    5  A    between atoms: N_9  and  C_17
    6  A    between atoms: N_9  and  C_32
    7  A    between atoms: O_12  and  C_27
    8  A    between atoms: C_13  and  C_21
    9  A    between atoms: C_13  and  C_32
   10  A    between atoms: C_16  and  CA_31
                            x       y       z     vdW  Elec       q    Type
                         _______ _______ _______ _____ _____    ______ ____

>  <TORSDO>
F 10

$$$$
=
 OpenBabel11072412283D

 33 35  0  0  1  0  0  0  0  0999 V2000
  161.8300  209.1360  150.4800 C   0  0  2  0  0  3  0  0  0  0  0  0
  162.2150  209.4240  149.0620 C   0  0  0  0  0  0  0  0  0  0  0  0
  162.2570  210.7330  148.5920 O   0  0  0  0  0  1  0  0  0  0  0  0
  162.5230  208.4770  148.2950 O   0  0  0  0  0  0  0  0  0  0  0  0
  161.9900  210.3740  151.3580 C   0  0  0  0  0  2  0  0  0  0  0  0
  160.7130  210.7720  152.1100 C   0  0  1  0  0  3  0  0  0  0  0  0
  160.1290  208.6110  157.2430 F   0  0  0  0  0  0  0  0  0  0  0  0
  161.1950  207.7770  155.2310 C   0  0  2  0  0  3  0  0  0  0  0  0
  161.2720  208.6930  156.4630 C   0  0  1  0  0  3  0  0  0  0  0  0
  160.9590  210.9700  153.5340 N   0  0  0  0  0  2  0  0  0  0  0  0
  161.3730  210.1030  155.8900 C   0  0  0  0  0  2  0  0  0  0  0  0
  161.0960  209.8890  154.4550 C   0  0  0  0  0  0  0  0  0  0  0  0
  160.9830  208.6560  154.1010 N   0  0  0  0  0  0  0  0  0  0  0  0
  160.0880  206.7380  155.3080 C   0  0  0  0  0  1  0  0  0  0  0  0
  158.9940  212.4160  152.0280 O   0  0  0  0  0  0  0  0  0  0  0  0
  160.0610  211.9780  151.5180 C   0  0  0  0  0  0  0  0  0  0  0  0
  160.6360  212.6100  150.4130 O   0  0  0  0  0  0  0  0  0  0  0  0
  160.0510  213.7640  149.8220 C   0  0  0  0  0  1  0  0  0  0  0  0
  162.6980  208.0180  151.0360 C   0  0  0  0  0  2  0  0  0  0  0  0
  162.4440  206.7860  150.3080 N   0  0  0  0  0  2  0  0  0  0  0  0
  161.3160  203.6490  150.8010 N   0  0  0  0  0  0  0  0  0  0  0  0
  161.5910  203.5650  148.4340 N   0  0  0  0  0  0  0  0  0  0  0  0
  160.8870  205.7760  151.8550 C   0  0  0  0  0  3  0  0  0  0  0  0
  161.0430  206.4500  150.5120 C   0  0  2  0  0  3  0  0  0  0  0  0
  159.8910  206.1780  147.2170 O   0  0  0  0  0  1  0  0  0  0  0  0
  161.0810  204.1340  149.6190 C   0  0  0  0  0  0  0  0  0  0  0  0
  160.9920  205.8050  147.9860 C   0  0  1  0  0  3  0  0  0  0  0  0
  160.5330  205.5000  149.4110 C   0  0  2  0  0  3  0  0  0  0  0  0
  161.5290  204.4760  147.5180 C   0  0  0  0  0  0  0  0  0  0  0  0
  161.0540  204.4490  151.9670 C   0  0  0  0  0  3  0  0  0  0  0  0
  162.0090  204.2310  146.1550 C   0  0  0  0  0  0  0  0  0  0  0  0
  161.4350  203.2270  145.3840 O   0  0  0  0  0  0  0  0  0  0  0  0
  162.9400  204.9280  145.6730 O   0  0  0  0  0  1  0  0  0  0  0  0
  1 19  1  1  0  0  0
  1  5  1  0  0  0  0
  2  1  1  0  0  0  0
  3  2  1  0  0  0  0
  4  2  2  0  0  0  0
  6  5  1  6  0  0  0
  6 10  1  0  0  0  0
  8 14  1  1  0  0  0
  8  9  1  0  0  0  0
  9  7  1  1  0  0  0
 10 12  1  0  0  0  0
 11  9  1  0  0  0  0
 12 11  1  0  0  0  0
 13 12  2  0  0  0  0
 13  8  1  0  0  0  0
 16 15  2  0  0  0  0
 16  6  1  0  0  0  0
 17 16  1  0  0  0  0
 18 17  1  0  0  0  0
 20 19  1  0  0  0  0
 21 30  1  0  0  0  0
 22 26  1  0  0  0  0
 23 30  2  0  0  0  0
 24 20  1  6  0  0  0
 24 23  1  0  0  0  0
 26 21  2  0  0  0  0
 27 25  1  6  0  0  0
 27 28  1  0  0  0  0
 28 26  1  1  0  0  0
 28 24  1  0  0  0  0
 29 27  1  0  0  0  0
 29 22  2  0  0  0  0
 31 29  1  0  0  0  0
 32 31  2  0  0  0  0
 33 31  1  0  0  0  0
M  END
>  <MODEL>
3

>  <REMARK>
 VINA RESULT:      -6.7      2.415      3.348
  Name = 
  10 active torsions:
  status: ('A' for Active; 'I' for Inactive)
    1  A    between atoms: C_1  and  C_13
    2  A    between atoms: C_5  and  N_19
    3  A    between atoms: C_5  and  C_21
    4  A    between atoms: C_5  and  C_27
    5  A    between atoms: N_9  and  C_17
    6  A    between atoms: N_9  and  C_32
    7  A    between atoms: O_12  and  C_27
    8  A    between atoms: C_13  and  C_21
    9  A    between atoms: C_13  and  C_32
   10  A    between atoms: C_16  and  CA_31
                            x       y       z     vdW  Elec       q    Type
                         _______ _______ _______ _____ _____    ______ ____

>  <TORSDO>
F 10

$$$$
=
 OpenBabel11072412283D

 33 35  0  0  1  0  0  0  0  0999 V2000
  161.8710  207.2650  153.0720 C   0  0  2  0  0  3  0  0  0  0  0  0
  161.1890  207.2130  154.4040 C   0  0  0  0  0  0  0  0  0  0  0  0
  161.7010  207.9140  155.4900 O   0  0  0  0  0  1  0  0  0  0  0  0
  160.1310  206.5450  154.5370 O   0  0  0  0  0  0  0  0  0  0  0  0
  160.9190  207.7520  151.9830 C   0  0  0  0  0  2  0  0  0  0  0  0
  161.0230  209.2550  151.6930 C   0  0  1  0  0  3  0  0  0  0  0  0
  159.8400  213.4410  155.2200 F   0  0  0  0  0  0  0  0  0  0  0  0
  158.6280  211.4330  154.6020 C   0  0  2  0  0  3  0  0  0  0  0  0
  159.7500  212.0750  155.4360 C   0  0  1  0  0  3  0  0  0  0  0  0
  161.4680  210.0060  152.8610 N   0  0  0  0  0  2  0  0  0  0  0  0
  161.0300  211.4140  154.9340 C   0  0  0  0  0  2  0  0  0  0  0  0
  160.5680  210.6810  153.7390 C   0  0  0  0  0  0  0  0  0  0  0  0
  159.2950  210.7020  153.5460 N   0  0  0  0  0  0  0  0  0  0  0  0
  157.6510  212.4380  154.0140 C   0  0  0  0  0  1  0  0  0  0  0  0
  162.4580  208.5890  149.9140 O   0  0  0  0  0  0  0  0  0  0  0  0
  161.9000  209.5450  150.5190 C   0  0  0  0  0  0  0  0  0  0  0  0
  162.0920  210.8630  150.1000 O   0  0  0  0  0  0  0  0  0  0  0  0
  162.1580  211.2090  148.7220 C   0  0  0  0  0  1  0  0  0  0  0  0
  162.3870  205.8840  152.6980 C   0  0  0  0  0  2  0  0  0  0  0  0
  162.1540  205.6360  151.2850 N   0  0  0  0  0  2  0  0  0  0  0  0
  161.2660  202.5570  150.2410 N   0  0  0  0  0  0  0  0  0  0  0  0
  161.7700  203.5250  148.1210 N   0  0  0  0  0  0  0  0  0  0  0  0
  160.5540  203.9930  152.0450 C   0  0  0  0  0  3  0  0  0  0  0  0
  160.7750  205.1910  151.1510 C   0  0  2  0  0  3  0  0  0  0  0  0
  159.9670  206.3400  147.9450 O   0  0  0  0  0  1  0  0  0  0  0  0
  161.1020  203.5000  149.3630 C   0  0  0  0  0  0  0  0  0  0  0  0
  161.0200  205.7110  148.6080 C   0  0  1  0  0  3  0  0  0  0  0  0
  160.4580  204.7970  149.6950 C   0  0  2  0  0  3  0  0  0  0  0  0
  161.7140  204.7420  147.6850 C   0  0  0  0  0  0  0  0  0  0  0  0
  160.8260  202.7570  151.5960 C   0  0  0  0  0  3  0  0  0  0  0  0
  162.3400  205.1340  146.4190 C   0  0  0  0  0  0  0  0  0  0  0  0
  161.6330  205.9010  145.5010 O   0  0  0  0  0  0  0  0  0  0  0  0
  163.5210  204.7830  146.1580 O   0  0  0  0  0  1  0  0  0  0  0  0
  1  5  1  6  0  0  0
  1  2  1  0  0  0  0
  2  4  2  0  0  0  0
  2  3  1  0  0  0  0
  6  5  1  1  0  0  0
  6 10  1  0  0  0  0
  8 14  1  6  0  0  0
  8  9  1  0  0  0  0
  9  7  1  6  0  0  0
 10 12  1  0  0  0  0
 11  9  1  0  0  0  0
 12 11  1  0  0  0  0
 13 12  2  0  0  0  0
 13  8  1  0  0  0  0
 15 16  2  0  0  0  0
 16  6  1  0  0  0  0
 17 16  1  0  0  0  0
 18 17  1  0  0  0  0
 19  1  1  0  0  0  0
 20 19  1  0  0  0  0
 21 30  1  0  0  0  0
 22 26  1  0  0  0  0
 24 20  1  6  0  0  0
 24 23  1  0  0  0  0
 26 21  2  0  0  0  0
 27 25  1  6  0  0  0
 27 28  1  0  0  0  0
 28 26  1  6  0  0  0
 28 24  1  0  0  0  0
 29 22  2  0  0  0  0
 29 27  1  0  0  0  0
 30 23  2  0  0  0  0
 31 29  1  0  0  0  0
 32 31  2  0  0  0  0
 33 31  1  0  0  0  0
M  END
>  <MODEL>
4

>  <REMARK>
 VINA RESULT:      -6.6      1.014      3.037
  Name = 
  10 active torsions:
  status: ('A' for Active; 'I' for Inactive)
    1  A    between atoms: C_1  and  C_13
    2  A    between atoms: C_5  and  N_19
    3  A    between atoms: C_5  and  C_21
    4  A    between atoms: C_5  and  C_27
    5  A    between atoms: N_9  and  C_17
    6  A    between atoms: N_9  and  C_32
    7  A    between atoms: O_12  and  C_27
    8  A    between atoms: C_13  and  C_21
    9  A    between atoms: C_13  and  C_32
   10  A    between atoms: C_16  and  CA_31
                            x       y       z     vdW  Elec       q    Type
                         _______ _______ _______ _____ _____    ______ ____

>  <TORSDO>
F 10

$$$$
=
 OpenBabel11072412283D

 33 35  0  0  1  0  0  0  0  0999 V2000
  161.9490  209.5070  151.8560 C   0  0  2  0  0  3  0  0  0  0  0  0
  161.4730  210.6870  151.0670 C   0  0  0  0  0  0  0  0  0  0  0  0
  160.5330  211.5630  151.6000 O   0  0  0  0  0  1  0  0  0  0  0  0
  161.9430  210.9010  149.9200 O   0  0  0  0  0  0  0  0  0  0  0  0
  160.8420  208.4680  152.0150 C   0  0  0  0  0  2  0  0  0  0  0  0
  161.0690  207.1890  151.1970 C   0  0  1  0  0  3  0  0  0  0  0  0
  163.3600  204.9560  146.6010 F   0  0  0  0  0  0  0  0  0  0  0  0
  161.1520  204.7620  147.5860 C   0  0  2  0  0  3  0  0  0  0  0  0
  162.1340  205.5880  146.7380 C   0  0  1  0  0  3  0  0  0  0  0  0
  161.7330  207.4640  149.9280 N   0  0  0  0  0  2  0  0  0  0  0  0
  162.3330  206.8780  147.5270 C   0  0  0  0  0  2  0  0  0  0  0  0
  161.6800  206.5730  148.8150 C   0  0  0  0  0  0  0  0  0  0  0  0
  161.0650  205.4430  148.8590 N   0  0  0  0  0  0  0  0  0  0  0  0
  161.5810  203.3170  147.7860 C   0  0  0  0  0  1  0  0  0  0  0  0
  163.0780  206.2050  152.0110 O   0  0  0  0  0  0  0  0  0  0  0  0
  161.8190  206.1510  151.9670 C   0  0  0  0  0  0  0  0  0  0  0  0
  161.1230  205.1370  152.6290 O   0  0  0  0  0  0  0  0  0  0  0  0
  160.9100  203.8630  152.0340 C   0  0  0  0  0  1  0  0  0  0  0  0
  162.4090  209.9550  153.2340 C   0  0  0  0  0  2  0  0  0  0  0  0
  161.2720  210.0250  154.1370 N   0  0  0  0  0  2  0  0  0  0  0  0
  160.0880  209.3530  157.2190 N   0  0  0  0  0  0  0  0  0  0  0  0
  158.2960  210.7180  156.4360 N   0  0  0  0  0  0  0  0  0  0  0  0
  162.2940  209.6730  156.2970 C   0  0  0  0  0  3  0  0  0  0  0  0
  161.7250  210.6980  155.3440 C   0  0  2  0  0  3  0  0  0  0  0  0
  159.7070  213.5580  155.3630 O   0  0  0  0  0  1  0  0  0  0  0  0
  159.6590  210.4640  156.7000 C   0  0  0  0  0  0  0  0  0  0  0  0
  159.5980  212.1890  155.1230 C   0  0  1  0  0  3  0  0  0  0  0  0
  160.5640  211.4380  156.0370 C   0  0  2  0  0  3  0  0  0  0  0  0
  158.2510  211.6850  155.5770 C   0  0  0  0  0  0  0  0  0  0  0  0
  161.4870  209.0270  157.1540 C   0  0  0  0  0  3  0  0  0  0  0  0
  156.9790  212.1900  155.0550 C   0  0  0  0  0  0  0  0  0  0  0  0
  156.9200  212.7580  153.7880 O   0  0  0  0  0  0  0  0  0  0  0  0
  155.9300  212.1110  155.7490 O   0  0  0  0  0  1  0  0  0  0  0  0
  1  5  1  1  0  0  0
  1 19  1  0  0  0  0
  2  3  1  0  0  0  0
  2  1  1  0  0  0  0
  4  2  2  0  0  0  0
  6 16  1  0  0  0  0
  6  5  1  1  0  0  0
  8 14  1  1  0  0  0
  8 13  1  0  0  0  0
  9  7  1  1  0  0  0
  9 11  1  0  0  0  0
  9  8  1  0  0  0  0
 10  6  1  0  0  0  0
 11 12  1  0  0  0  0
 12 13  2  0  0  0  0
 12 10  1  0  0  0  0
 16 15  2  0  0  0  0
 16 17  1  0  0  0  0
 18 17  1  0  0  0  0
 19 20  1  0  0  0  0
 22 26  1  0  0  0  0
 23 30  2  0  0  0  0
 24 20  1  6  0  0  0
 24 28  1  0  0  0  0
 24 23  1  0  0  0  0
 26 21  2  0  0  0  0
 27 25  1  1  0  0  0
 27 29  1  0  0  0  0
 27 28  1  0  0  0  0
 28 26  1  6  0  0  0
 29 22  2  0  0  0  0
 30 21  1  0  0  0  0
 31 29  1  0  0  0  0
 31 33  1  0  0  0  0
 32 31  2  0  0  0  0
M  END
>  <MODEL>
5

>  <REMARK>
 VINA RESULT:      -6.4      3.361      8.453
  Name = 
  10 active torsions:
  status: ('A' for Active; 'I' for Inactive)
    1  A    between atoms: C_1  and  C_13
    2  A    between atoms: C_5  and  N_19
    3  A    between atoms: C_5  and  C_21
    4  A    between atoms: C_5  and  C_27
    5  A    between atoms: N_9  and  C_17
    6  A    between atoms: N_9  and  C_32
    7  A    between atoms: O_12  and  C_27
    8  A    between atoms: C_13  and  C_21
    9  A    between atoms: C_13  and  C_32
   10  A    between atoms: C_16  and  CA_31
                            x       y       z     vdW  Elec       q    Type
                         _______ _______ _______ _____ _____    ______ ____

>  <TORSDO>
F 10

$$$$
=
 OpenBabel11072412283D

 33 35  0  0  1  0  0  0  0  0999 V2000
  161.3220  208.3860  151.7410 C   0  0  2  0  0  3  0  0  0  0  0  0
  161.9790  209.6870  151.3980 C   0  0  0  0  0  0  0  0  0  0  0  0
  161.3740  210.5750  150.5140 O   0  0  0  0  0  0  0  0  0  0  0  0
  163.0780  209.9900  151.9300 O   0  0  0  0  0  1  0  0  0  0  0  0
  160.3860  208.5390  152.9370 C   0  0  0  0  0  2  0  0  0  0  0  0
  160.7260  209.7300  153.8440 C   0  0  1  0  0  3  0  0  0  0  0  0
  157.7140  214.4450  153.6200 F   0  0  0  0  0  0  0  0  0  0  0  0
  158.4700  212.9060  151.9050 C   0  0  2  0  0  3  0  0  0  0  0  0
  157.4570  213.2230  153.0170 C   0  0  1  0  0  3  0  0  0  0  0  0
  159.5290  210.4160  154.3150 N   0  0  0  0  0  2  0  0  0  0  0  0
  157.6560  212.1170  154.0480 C   0  0  0  0  0  2  0  0  0  0  0  0
  158.8850  211.4500  153.5730 C   0  0  0  0  0  0  0  0  0  0  0  0
  159.3330  211.8760  152.4430 N   0  0  0  0  0  0  0  0  0  0  0  0
  159.2910  214.1060  151.4620 C   0  0  0  0  0  1  0  0  0  0  0  0
  161.5680  208.1400  155.4040 O   0  0  0  0  0  0  0  0  0  0  0  0
  161.5900  209.3340  154.9960 C   0  0  0  0  0  0  0  0  0  0  0  0
  162.4140  210.2810  155.6080 O   0  0  0  0  0  0  0  0  0  0  0  0
  162.0650  210.8910  156.8450 C   0  0  0  0  0  1  0  0  0  0  0  0
  162.3770  207.3420  152.0670 C   0  0  0  0  0  2  0  0  0  0  0  0
  162.2850  206.2360  151.1280 N   0  0  0  0  0  2  0  0  0  0  0  0
  161.2900  203.0690  150.5520 N   0  0  0  0  0  0  0  0  0  0  0  0
  161.7470  203.7170  148.3030 N   0  0  0  0  0  0  0  0  0  0  0  0
  160.6710  204.7610  152.1560 C   0  0  0  0  0  3  0  0  0  0  0  0
  160.8930  205.8160  151.0980 C   0  0  2  0  0  3  0  0  0  0  0  0
  160.0090  206.5300  147.7860 O   0  0  0  0  0  1  0  0  0  0  0  0
  161.1200  203.8850  149.5560 C   0  0  0  0  0  0  0  0  0  0  0  0
  161.0670  205.9700  148.5010 C   0  0  1  0  0  3  0  0  0  0  0  0
  160.5180  205.2330  149.7210 C   0  0  2  0  0  3  0  0  0  0  0  0
  161.7070  204.8620  147.7030 C   0  0  0  0  0  0  0  0  0  0  0  0
  160.8990  203.4680  151.8770 C   0  0  0  0  0  3  0  0  0  0  0  0
  162.3010  205.0570  146.3770 C   0  0  0  0  0  0  0  0  0  0  0  0
  161.5090  205.4750  145.3140 O   0  0  0  0  0  0  0  0  0  0  0  0
  163.5290  204.8500  146.1940 O   0  0  0  0  0  1  0  0  0  0  0  0
  1 19  1  1  0  0  0
  1  5  1  0  0  0  0
  2  1  1  0  0  0  0
  2  4  1  0  0  0  0
  3  2  2  0  0  0  0
  6  5  1  1  0  0  0
  6 10  1  0  0  0  0
  6 16  1  0  0  0  0
  8 14  1  1  0  0  0
  8 13  1  0  0  0  0
  8  9  1  0  0  0  0
  9  7  1  1  0  0  0
  9 11  1  0  0  0  0
 12 11  1  0  0  0  0
 12 10  1  0  0  0  0
 13 12  2  0  0  0  0
 16 15  2  0  0  0  0
 16 17  1  0  0  0  0
 17 18  1  0  0  0  0
 20 19  1  0  0  0  0
 21 30  1  0  0  0  0
 22 26  1  0  0  0  0
 24 20  1  6  0  0  0
 24 23  1  0  0  0  0
 26 21  2  0  0  0  0
 27 25  1  6  0  0  0
 27 28  1  0  0  0  0
 28 26  1  1  0  0  0
 28 24  1  0  0  0  0
 29 22  2  0  0  0  0
 29 27  1  0  0  0  0
 30 23  2  0  0  0  0
 31 29  1  0  0  0  0
 32 31  2  0  0  0  0
 33 31  1  0  0  0  0
M  END
>  <MODEL>
6

>  <REMARK>
 VINA RESULT:      -6.3      1.598      1.909
  Name = 
  10 active torsions:
  status: ('A' for Active; 'I' for Inactive)
    1  A    between atoms: C_1  and  C_13
    2  A    between atoms: C_5  and  N_19
    3  A    between atoms: C_5  and  C_21
    4  A    between atoms: C_5  and  C_27
    5  A    between atoms: N_9  and  C_17
    6  A    between atoms: N_9  and  C_32
    7  A    between atoms: O_12  and  C_27
    8  A    between atoms: C_13  and  C_21
    9  A    between atoms: C_13  and  C_32
   10  A    between atoms: C_16  and  CA_31
                            x       y       z     vdW  Elec       q    Type
                         _______ _______ _______ _____ _____    ______ ____

>  <TORSDO>
F 10

$$$$
=
 OpenBabel11072412283D

 33 35  0  0  1  0  0  0  0  0999 V2000
  161.4170  207.8270  151.3640 C   0  0  2  0  0  3  0  0  0  0  0  0
  161.4870  207.0120  152.6170 C   0  0  0  0  0  0  0  0  0  0  0  0
  162.5650  206.1640  152.8510 O   0  0  0  0  0  0  0  0  0  0  0  0
  160.5750  207.1100  153.4770 O   0  0  0  0  0  1  0  0  0  0  0  0
  162.4260  207.3360  150.3290 C   0  0  0  0  0  2  0  0  0  0  0  0
  161.8580  206.3000  149.3500 C   0  0  1  0  0  3  0  0  0  0  0  0
  158.9270  201.5620  148.7820 F   0  0  0  0  0  0  0  0  0  0  0  0
  161.2510  202.1070  148.3540 C   0  0  2  0  0  3  0  0  0  0  0  0
  160.1630  201.7490  149.3800 C   0  0  1  0  0  3  0  0  0  0  0  0
  161.0220  205.3140  150.0250 N   0  0  0  0  0  2  0  0  0  0  0  0
  160.0840  202.9650  150.2970 C   0  0  0  0  0  2  0  0  0  0  0  0
  160.9120  203.9600  149.5880 C   0  0  0  0  0  0  0  0  0  0  0  0
  161.5210  203.5160  148.5440 N   0  0  0  0  0  0  0  0  0  0  0  0
  160.8480  201.8350  146.9140 C   0  0  0  0  0  1  0  0  0  0  0  0
  161.2040  208.1820  148.0470 O   0  0  0  0  0  0  0  0  0  0  0  0
  161.1120  206.9360  148.2230 C   0  0  0  0  0  0  0  0  0  0  0  0
  160.3260  206.1520  147.3760 O   0  0  0  0  0  0  0  0  0  0  0  0
  160.4710  206.1990  145.9620 C   0  0  0  0  0  1  0  0  0  0  0  0
  161.7000  209.2880  151.6780 C   0  0  0  0  0  2  0  0  0  0  0  0
  160.5070  209.9170  152.2210 N   0  0  0  0  0  2  0  0  0  0  0  0
  158.5780  211.1800  154.6780 N   0  0  0  0  0  0  0  0  0  0  0  0
  157.6880  212.4220  152.8470 N   0  0  0  0  0  0  0  0  0  0  0  0
  160.8570  210.3950  154.5630 C   0  0  0  0  0  3  0  0  0  0  0  0
  160.9520  210.9380  153.1570 C   0  0  2  0  0  3  0  0  0  0  0  0
  160.3120  213.8740  151.3600 O   0  0  0  0  0  1  0  0  0  0  0  0
  158.7490  211.9670  153.6580 C   0  0  0  0  0  0  0  0  0  0  0  0
  159.7040  212.6500  151.6370 C   0  0  1  0  0  3  0  0  0  0  0  0
  160.0820  212.2060  153.0490 C   0  0  2  0  0  3  0  0  0  0  0  0
  158.2090  212.8200  151.7320 C   0  0  0  0  0  0  0  0  0  0  0  0
  159.7070  210.4960  155.2490 C   0  0  0  0  0  3  0  0  0  0  0  0
  157.3800  213.3340  150.6370 C   0  0  0  0  0  0  0  0  0  0  0  0
  156.3120  214.1800  150.9100 O   0  0  0  0  0  1  0  0  0  0  0  0
  157.6320  213.0150  149.4450 O   0  0  0  0  0  0  0  0  0  0  0  0
  1  5  1  6  0  0  0
  1 19  1  0  0  0  0
  1  2  1  0  0  0  0
  2  3  2  0  0  0  0
  2  4  1  0  0  0  0
  6 10  1  0  0  0  0
  6  5  1  1  0  0  0
  8 14  1  6  0  0  0
  8 13  1  0  0  0  0
  8  9  1  0  0  0  0
  9  7  1  6  0  0  0
  9 11  1  0  0  0  0
 12 10  1  0  0  0  0
 12 11  1  0  0  0  0
 13 12  2  0  0  0  0
 15 16  2  0  0  0  0
 16  6  1  0  0  0  0
 17 16  1  0  0  0  0
 18 17  1  0  0  0  0
 19 20  1  0  0  0  0
 21 30  1  0  0  0  0
 22 26  1  0  0  0  0
 23 30  2  0  0  0  0
 24 20  1  6  0  0  0
 24 23  1  0  0  0  0
 26 21  2  0  0  0  0
 27 25  1  1  0  0  0
 27 29  1  0  0  0  0
 27 28  1  0  0  0  0
 28 24  1  0  0  0  0
 28 26  1  1  0  0  0
 29 22  2  0  0  0  0
 31 32  1  0  0  0  0
 31 29  1  0  0  0  0
 33 31  2  0  0  0  0
M  END
>  <MODEL>
7

>  <REMARK>
 VINA RESULT:      -6.2      3.512      8.700
  Name = 
  10 active torsions:
  status: ('A' for Active; 'I' for Inactive)
    1  A    between atoms: C_1  and  C_13
    2  A    between atoms: C_5  and  N_19
    3  A    between atoms: C_5  and  C_21
    4  A    between atoms: C_5  and  C_27
    5  A    between atoms: N_9  and  C_17
    6  A    between atoms: N_9  and  C_32
    7  A    between atoms: O_12  and  C_27
    8  A    between atoms: C_13  and  C_21
    9  A    between atoms: C_13  and  C_32
   10  A    between atoms: C_16  and  CA_31
                            x       y       z     vdW  Elec       q    Type
                         _______ _______ _______ _____ _____    ______ ____

>  <TORSDO>
F 10

$$$$
=
 OpenBabel11072412283D

 33 35  0  0  1  0  0  0  0  0999 V2000
  161.5740  205.7870  151.4560 C   0  0  2  0  0  3  0  0  0  0  0  0
  161.7770  207.1590  150.8920 C   0  0  0  0  0  0  0  0  0  0  0  0
  160.8470  207.7100  150.0170 O   0  0  0  0  0  0  0  0  0  0  0  0
  162.7880  207.8280  151.2290 O   0  0  0  0  0  1  0  0  0  0  0  0
  160.3220  205.1330  150.8770 C   0  0  0  0  0  2  0  0  0  0  0  0
  160.6110  204.1030  149.7770 C   0  0  1  0  0  3  0  0  0  0  0  0
  163.1840  204.0950  144.8030 F   0  0  0  0  0  0  0  0  0  0  0  0
  161.1410  205.1430  145.5850 C   0  0  2  0  0  3  0  0  0  0  0  0
  162.6770  205.1720  145.5150 C   0  0  1  0  0  3  0  0  0  0  0  0
  161.8450  204.4020  149.0610 N   0  0  0  0  0  2  0  0  0  0  0  0
  163.1310  205.0570  146.9660 C   0  0  0  0  0  2  0  0  0  0  0  0
  161.8770  204.7290  147.6730 C   0  0  0  0  0  0  0  0  0  0  0  0
  160.8180  204.7550  146.9410 N   0  0  0  0  0  0  0  0  0  0  0  0
  160.5000  204.1850  144.5940 C   0  0  0  0  0  1  0  0  0  0  0  0
  161.0390  202.4960  151.4810 O   0  0  0  0  0  0  0  0  0  0  0  0
  160.6360  202.7060  150.3050 C   0  0  0  0  0  0  0  0  0  0  0  0
  160.2130  201.6480  149.4970 O   0  0  0  0  0  0  0  0  0  0  0  0
  161.0920  201.0070  148.5800 C   0  0  0  0  0  1  0  0  0  0  0  0
  161.4410  205.8620  152.9680 C   0  0  0  0  0  2  0  0  0  0  0  0
  160.8490  207.1330  153.3500 N   0  0  0  0  0  2  0  0  0  0  0  0
  159.1810  208.5540  155.9100 N   0  0  0  0  0  0  0  0  0  0  0  0
  159.3960  210.4730  154.5120 N   0  0  0  0  0  0  0  0  0  0  0  0
  160.8210  206.7920  155.7420 C   0  0  0  0  0  3  0  0  0  0  0  0
  161.4730  207.5360  154.6010 C   0  0  2  0  0  3  0  0  0  0  0  0
  162.6570  210.7340  153.8040 O   0  0  0  0  0  1  0  0  0  0  0  0
  159.9180  209.3700  155.2190 C   0  0  0  0  0  0  0  0  0  0  0  0
  161.5180  209.9510  153.6180 C   0  0  1  0  0  3  0  0  0  0  0  0
  161.3180  209.0520  154.8360 C   0  0  2  0  0  3  0  0  0  0  0  0
  160.2830  210.8140  153.6350 C   0  0  0  0  0  0  0  0  0  0  0  0
  159.7150  207.2830  156.3230 C   0  0  0  0  0  3  0  0  0  0  0  0
  160.0530  211.9190  152.7000 C   0  0  0  0  0  0  0  0  0  0  0  0
  159.3420  213.0420  153.1080 O   0  0  0  0  0  1  0  0  0  0  0  0
  160.5000  211.8610  151.5240 O   0  0  0  0  0  0  0  0  0  0  0  0
  1  5  1  6  0  0  0
  1 19  1  0  0  0  0
  2  4  1  0  0  0  0
  2  1  1  0  0  0  0
  3  2  2  0  0  0  0
  6 16  1  0  0  0  0
  6  5  1  1  0  0  0
  8 14  1  6  0  0  0
  8 13  1  0  0  0  0
  9  7  1  6  0  0  0
  9  8  1  0  0  0  0
  9 11  1  0  0  0  0
 10  6  1  0  0  0  0
 11 12  1  0  0  0  0
 12 10  1  0  0  0  0
 13 12  2  0  0  0  0
 16 15  2  0  0  0  0
 17 16  1  0  0  0  0
 18 17  1  0  0  0  0
 19 20  1  0  0  0  0
 21 30  1  0  0  0  0
 22 26  1  0  0  0  0
 23 30  2  0  0  0  0
 24 20  1  6  0  0  0
 24 28  1  0  0  0  0
 24 23  1  0  0  0  0
 26 21  2  0  0  0  0
 27 29  1  0  0  0  0
 27 25  1  1  0  0  0
 27 28  1  0  0  0  0
 28 26  1  6  0  0  0
 29 22  2  0  0  0  0
 31 32  1  0  0  0  0
 31 29  1  0  0  0  0
 33 31  2  0  0  0  0
M  END
>  <MODEL>
8

>  <REMARK>
 VINA RESULT:      -6.2      3.455      8.339
  Name = 
  10 active torsions:
  status: ('A' for Active; 'I' for Inactive)
    1  A    between atoms: C_1  and  C_13
    2  A    between atoms: C_5  and  N_19
    3  A    between atoms: C_5  and  C_21
    4  A    between atoms: C_5  and  C_27
    5  A    between atoms: N_9  and  C_17
    6  A    between atoms: N_9  and  C_32
    7  A    between atoms: O_12  and  C_27
    8  A    between atoms: C_13  and  C_21
    9  A    between atoms: C_13  and  C_32
   10  A    between atoms: C_16  and  CA_31
                            x       y       z     vdW  Elec       q    Type
                         _______ _______ _______ _____ _____    ______ ____

>  <TORSDO>
F 10

$$$$
=
 OpenBabel11072412283D

 33 35  0  0  1  0  0  0  0  0999 V2000
  161.1310  206.3860  151.5250 C   0  0  2  0  0  3  0  0  0  0  0  0
  161.0760  204.9300  151.1790 C   0  0  0  0  0  0  0  0  0  0  0  0
  161.9590  204.0300  151.7660 O   0  0  0  0  0  1  0  0  0  0  0  0
  160.2110  204.5150  150.3670 O   0  0  0  0  0  0  0  0  0  0  0  0
  162.4530  207.0090  151.0820 C   0  0  0  0  0  2  0  0  0  0  0  0
  162.3240  207.9440  149.8720 C   0  0  1  0  0  3  0  0  0  0  0  0
  160.7780  205.8080  144.9310 F   0  0  0  0  0  0  0  0  0  0  0  0
  162.1600  204.9410  146.7260 C   0  0  2  0  0  3  0  0  0  0  0  0
  160.7470  205.2100  146.1810 C   0  0  1  0  0  3  0  0  0  0  0  0
  161.2000  207.5780  149.0180 N   0  0  0  0  0  2  0  0  0  0  0  0
  160.1300  206.1870  147.1760 C   0  0  0  0  0  2  0  0  0  0  0  0
  161.2840  206.5670  148.0150 C   0  0  0  0  0  0  0  0  0  0  0  0
  162.3710  205.9210  147.7690 N   0  0  0  0  0  0  0  0  0  0  0  0
  163.2520  205.0450  145.6730 C   0  0  0  0  0  1  0  0  0  0  0  0
  162.7070  209.7420  151.3840 O   0  0  0  0  0  0  0  0  0  0  0  0
  162.2310  209.3790  150.2740 C   0  0  0  0  0  0  0  0  0  0  0  0
  161.6240  210.3040  149.4210 O   0  0  0  0  0  0  0  0  0  0  0  0
  162.3290  211.4310  148.9150 C   0  0  0  0  0  1  0  0  0  0  0  0
  160.9760  206.5690  153.0260 C   0  0  0  0  0  2  0  0  0  0  0  0
  160.4320  207.8870  153.3100 N   0  0  0  0  0  2  0  0  0  0  0  0
  159.6820  208.6510  156.5050 N   0  0  0  0  0  0  0  0  0  0  0  0
  158.5560  210.4570  155.4290 N   0  0  0  0  0  0  0  0  0  0  0  0
  161.5860  207.6440  155.4180 C   0  0  0  0  0  3  0  0  0  0  0  0
  161.3540  208.5410  154.2250 C   0  0  2  0  0  3  0  0  0  0  0  0
  160.8360  211.9180  153.4610 O   0  0  0  0  0  1  0  0  0  0  0  0
  159.6920  209.6620  155.6900 C   0  0  0  0  0  0  0  0  0  0  0  0
  160.0960  210.7540  153.6620 C   0  0  1  0  0  3  0  0  0  0  0  0
  160.7890  209.8900  154.7130 C   0  0  2  0  0  3  0  0  0  0  0  0
  158.7770  211.0800  154.3170 C   0  0  0  0  0  0  0  0  0  0  0  0
  160.7570  207.6960  156.4730 C   0  0  0  0  0  3  0  0  0  0  0  0
  157.7810  211.9800  153.7300 C   0  0  0  0  0  0  0  0  0  0  0  0
  158.1060  212.7510  152.6200 O   0  0  0  0  0  0  0  0  0  0  0  0
  156.6250  212.0590  154.2240 O   0  0  0  0  0  1  0  0  0  0  0  0
  1  5  1  1  0  0  0
  1 19  1  0  0  0  0
  2  1  1  0  0  0  0
  2  3  1  0  0  0  0
  4  2  2  0  0  0  0
  6 16  1  0  0  0  0
  6  5  1  1  0  0  0
  8 14  1  6  0  0  0
  8 13  1  0  0  0  0
  9  7  1  6  0  0  0
  9  8  1  0  0  0  0
  9 11  1  0  0  0  0
 10  6  1  0  0  0  0
 11 12  1  0  0  0  0
 12 10  1  0  0  0  0
 13 12  2  0  0  0  0
 16 15  2  0  0  0  0
 17 16  1  0  0  0  0
 18 17  1  0  0  0  0
 19 20  1  0  0  0  0
 22 26  1  0  0  0  0
 23 30  2  0  0  0  0
 24 20  1  6  0  0  0
 24 28  1  0  0  0  0
 24 23  1  0  0  0  0
 26 21  2  0  0  0  0
 27 25  1  1  0  0  0
 27 29  1  0  0  0  0
 27 28  1  0  0  0  0
 28 26  1  1  0  0  0
 29 22  2  0  0  0  0
 30 21  1  0  0  0  0
 31 33  1  0  0  0  0
 31 29  1  0  0  0  0
 32 31  2  0  0  0  0
M  END
>  <MODEL>
9

>  <REMARK>
 VINA RESULT:      -6.2      3.282      8.230
  Name = 
  10 active torsions:
  status: ('A' for Active; 'I' for Inactive)
    1  A    between atoms: C_1  and  C_13
    2  A    between atoms: C_5  and  N_19
    3  A    between atoms: C_5  and  C_21
    4  A    between atoms: C_5  and  C_27
    5  A    between atoms: N_9  and  C_17
    6  A    between atoms: N_9  and  C_32
    7  A    between atoms: O_12  and  C_27
    8  A    between atoms: C_13  and  C_21
    9  A    between atoms: C_13  and  C_32
   10  A    between atoms: C_16  and  CA_31
                            x       y       z     vdW  Elec       q    Type
                         _______ _______ _______ _____ _____    ______ ____

>  <TORSDO>
F 10

$$$$
