=
 OpenBabel11072412213D

 68 74  0  0  1  0  0  0  0  0999 V2000
  162.3050  205.6230  146.1880 C   0  0  0  0  0  0  0  0  0  0  0  0
  158.6230  205.7080  145.7230 O   0  0  0  0  0  0  0  0  0  0  0  0
  160.9510  204.8630  144.2380 C   0  0  2  0  0  3  0  0  0  0  0  0
  163.5410  206.3570  148.2550 C   0  0  0  0  0  3  0  0  0  0  0  0
  164.2640  204.1120  146.2720 C   0  0  0  0  0  3  0  0  0  0  0  0
  159.8730  205.9310  146.3050 C   0  0  0  0  0  0  0  0  0  0  0  0
  159.6240  204.1070  144.0650 C   0  0  2  0  0  3  0  0  0  0  0  0
  163.5250  205.1270  145.4570 C   0  0  0  0  0  2  0  0  0  0  0  0
  159.9300  206.5310  147.4530 N   0  0  0  0  0  0  0  0  0  0  0  0
  161.1600  206.8530  148.1770 C   0  0  1  0  0  3  0  0  0  0  0  0
  161.0970  205.4680  145.6150 C   0  0  0  0  0  0  0  0  0  0  0  0
  164.9070  204.4760  147.3850 C   0  0  0  0  0  3  0  0  0  0  0  0
  157.3570  204.8440  144.0080 O   0  0  0  0  0  0  0  0  0  0  0  0
  164.9080  205.9060  147.8350 C   0  0  0  0  0  2  0  0  0  0  0  0
  158.4750  204.9130  144.5830 C   0  0  0  0  0  0  0  0  0  0  0  0
  162.4040  206.2760  147.5360 C   0  0  0  0  0  0  0  0  0  0  0  0
  161.1060  205.9390  143.1660 C   0  0  0  0  0  2  0  0  0  0  0  0
  162.0280  205.4660  142.0490 C   0  0  0  0  0  2  0  0  0  0  0  0
  162.3560  206.6120  141.1040 C   0  0  0  0  0  2  0  0  0  0  0  0
  162.1720  206.1910  139.6580 C   0  0  0  0  0  2  0  0  0  0  0  0
  162.1540  207.4160  138.7580 C   0  0  0  0  0  2  0  0  0  0  0  0
  160.1450  208.5180  138.0850 O   0  0  0  0  0  1  0  0  0  0  0  0
  161.0160  208.3360  139.1600 C   0  0  2  0  0  3  0  0  0  0  0  0
  161.5820  209.6790  139.5870 C   0  0  0  0  0  2  0  0  0  0  0  0
  161.8990  212.6710  140.0600 C   0  0  2  0  0  3  0  0  0  0  0  0
  162.8460  212.4910  137.7640 C   0  0  0  0  0  3  0  0  0  0  0  0
  161.7810  213.1490  138.6250 C   0  0  1  0  0  3  0  0  0  0  0  0
  160.8580  212.0610  139.1340 C   0  0  1  0  0  3  0  0  0  0  0  0
  161.3240  210.7390  138.5230 C   0  0  1  0  0  3  0  0  0  0  0  0
  162.5860  210.9970  137.7240 C   0  0  0  0  0  3  0  0  0  0  0  0
  161.2160  213.6510  140.9930 C   0  0  0  0  0  2  0  0  0  0  0  0
  162.2930  212.5710  142.9580 C   0  0  0  0  0  1  0  0  0  0  0  0
  163.4060  214.4520  141.8050 C   0  0  0  0  0  1  0  0  0  0  0  0
  162.0680  213.8830  142.2290 C   0  0  0  0  0  3  0  0  0  0  0  0
  159.6590  202.7550  144.7720 C   0  0  0  0  0  2  0  0  0  0  0  0
  161.0460  202.4240  145.3190 C   0  0  0  0  0  2  0  0  0  0  0  0
  161.5210  199.9820  146.7470 O   0  0  0  0  0  0  0  0  0  0  0  0
  161.0110  202.2610  146.7680 N   0  0  0  0  0  2  0  0  0  0  0  0
  161.3160  201.0280  147.4220 C   0  0  0  0  0  0  0  0  0  0  0  0
  161.4150  201.0030  148.8150 O   0  0  0  0  0  0  0  0  0  0  0  0
  160.3210  201.3260  149.6640 C   0  0  0  0  0  2  0  0  0  0  0  0
  161.3070  204.8250  151.9400 C   0  0  0  0  0  3  0  0  0  0  0  0
  161.0360  203.7230  149.7990 C   0  0  0  0  0  3  0  0  0  0  0  0
  160.8940  203.6590  152.5940 C   0  0  0  0  0  3  0  0  0  0  0  0
  160.6320  202.5540  150.4520 C   0  0  0  0  0  0  0  0  0  0  0  0
  161.3750  204.8570  150.5430 C   0  0  0  0  0  3  0  0  0  0  0  0
  160.5600  202.5250  151.8500 C   0  0  0  0  0  3  0  0  0  0  0  0
  161.2580  208.3630  148.3280 C   0  0  0  0  0  2  0  0  0  0  0  0
  162.4620  208.7110  149.1940 C   0  0  0  0  0  2  0  0  0  0  0  0
  162.2410  209.9930  149.9990 C   0  0  1  0  0  3  0  0  0  0  0  0
  160.9690  212.0850  149.3890 N   0  0  0  0  0  2  0  0  0  0  0  0
  162.8440  211.4160  148.1670 O   0  0  0  0  0  0  0  0  0  0  0  0
  162.0510  211.1890  149.1220 C   0  0  0  0  0  0  0  0  0  0  0  0
  159.8560  212.8290  147.3590 C   0  0  0  0  0  1  0  0  0  0  0  0
  160.6880  213.2440  148.5560 C   0  0  0  0  0  3  0  0  0  0  0  0
  159.9200  214.2680  149.3620 C   0  0  0  0  0  1  0  0  0  0  0  0
  161.1240  209.8430  150.9230 N   0  0  0  0  0  2  0  0  0  0  0  0
  161.6060  210.2050  152.2460 C   0  0  0  0  0  2  0  0  0  0  0  0
  159.6460  211.7070  152.6470 C   0  0  0  0  0  3  0  0  0  0  0  0
  157.6000  213.4500  152.7580 Cl  0  0  0  0  0  0  0  0  0  0  0  0
  159.1220  210.4550  155.0800 C   0  0  0  0  0  3  0  0  0  0  0  0
  158.5630  212.1380  153.4200 C   0  0  0  0  0  0  0  0  0  0  0  0
  160.4670  210.6670  153.0860 C   0  0  0  0  0  0  0  0  0  0  0  0
  160.2000  210.0350  154.3000 C   0  0  0  0  0  3  0  0  0  0  0  0
  158.2890  211.5050  154.6610 C   0  0  0  0  0  0  0  0  0  0  0  0
  156.2440  211.0690  155.7900 O   0  0  0  0  0  0  0  0  0  0  0  0
  157.1080  213.1480  156.1390 O   0  0  0  0  0  1  0  0  0  0  0  0
  157.1680  211.8920  155.5500 C   0  0  0  0  0  0  0  0  0  0  0  0
  1 16  1  0  0  0  0
  2  6  1  0  0  0  0
  3 17  1  6  0  0  0
  3 11  1  0  0  0  0
  5 12  2  0  0  0  0
  6  9  2  0  0  0  0
  7  3  1  0  0  0  0
  7 15  1  0  0  0  0
  7 35  1  1  0  0  0
  8  1  1  0  0  0  0
  8  5  1  0  0  0  0
  9 10  1  0  0  0  0
 10 48  1  6  0  0  0
 11  1  2  0  0  0  0
 11  6  1  0  0  0  0
 12 14  1  0  0  0  0
 13 15  2  0  0  0  0
 14  4  1  0  0  0  0
 15  2  1  0  0  0  0
 16 10  1  0  0  0  0
 16  4  2  0  0  0  0
 18 17  1  0  0  0  0
 19 18  1  0  0  0  0
 20 19  1  0  0  0  0
 21 23  1  0  0  0  0
 21 20  1  0  0  0  0
 23 22  1  6  0  0  0
 23 24  1  0  0  0  0
 25 31  1  1  0  0  0
 27 26  1  6  0  0  0
 27 28  1  0  0  0  0
 27 25  1  0  0  0  0
 28 25  1  0  0  0  0
 29 28  1  0  0  0  0
 29 24  1  0  0  0  0
 30 26  2  0  0  0  0
 30 29  1  0  0  0  0
 31 34  1  0  0  0  0
 33 34  1  0  0  0  0
 34 32  1  0  0  0  0
 35 36  1  0  0  0  0
 36 38  1  0  0  0  0
 37 39  2  0  0  0  0
 38 39  1  0  0  0  0
 39 40  1  0  0  0  0
 40 41  1  0  0  0  0
 41 45  1  0  0  0  0
 42 44  1  0  0  0  0
 43 45  2  0  0  0  0
 43 46  1  0  0  0  0
 45 47  1  0  0  0  0
 46 42  2  0  0  0  0
 47 44  2  0  0  0  0
 48 49  1  0  0  0  0
 49 50  1  0  0  0  0
 50 57  1  0  0  0  0
 52 53  2  0  0  0  0
 53 51  1  0  0  0  0
 53 50  1  0  0  0  0
 54 55  1  0  0  0  0
 55 56  1  0  0  0  0
 55 51  1  0  0  0  0
 57 58  1  0  0  0  0
 58 63  1  0  0  0  0
 59 63  2  0  0  0  0
 59 62  1  0  0  0  0
 60 62  1  0  0  0  0
 62 65  2  0  0  0  0
 63 64  1  0  0  0  0
 64 61  2  0  0  0  0
 65 61  1  0  0  0  0
 65 68  1  0  0  0  0
 68 66  2  0  0  0  0
 68 67  1  0  0  0  0
M  END
>  <MODEL>
1

>  <REMARK>
 VINA RESULT:       2.2      0.000      0.000
  Name = 
  25 active torsions:
  status: ('A' for Active; 'I' for Inactive)
    1  A    between atoms: C_3  and  C_5
    2  A    between atoms: C_3  and  C_49
    3  A    between atoms: N_4  and  C_31
    4  A    between atoms: C_5  and  C_47
    5  A    between atoms: C_6  and  C_47
    6  A    between atoms: C_8  and  C_38
    7  A    between atoms: C_11  and  N_34
    8  A    between atoms: C_11  and  C_52
    9  A    between atoms: C_11  and  C_58
   10  A    between atoms: C_21  and  C_33
   11  A    between atoms: C_21  and  C_49
   12  A    between atoms: C_22  and  C_39
   13  A    between atoms: C_22  and  C_58
   14  A    between atoms: C_24  and  C_41
   15  A    between atoms: C_25  and  C_64
   16  A    between atoms: N_26  and  C_37
   17  A    between atoms: C_33  and  C_64
   18  A    between atoms: N_34  and  C_42
   19  A    between atoms: C_36  and  C_55
   20  A    between atoms: C_36  and  O_57
   21  A    between atoms: C_37  and  C_41
   22  A    between atoms: C_38  and  C_60
   23  A    between atoms: C_42  and  C_51
   24  A    between atoms: C_54  and  C_62
   25  A    between atoms: O_57  and  C_67
                            x       y       z     vdW  Elec       q    Type
                         _______ _______ _______ _____ _____    ______ ____

>  <TORSDO>
F 25

$$$$
=
 OpenBabel11072412213D

 68 74  0  0  1  0  0  0  0  0999 V2000
  162.1220  205.6460  146.1440 C   0  0  0  0  0  0  0  0  0  0  0  0
  158.4620  205.5210  145.5420 O   0  0  0  0  0  0  0  0  0  0  0  0
  160.8880  204.8460  144.1320 C   0  0  2  0  0  3  0  0  0  0  0  0
  163.2360  206.4120  148.2680 C   0  0  0  0  0  3  0  0  0  0  0  0
  164.1650  204.2540  146.2750 C   0  0  0  0  0  3  0  0  0  0  0  0
  159.6730  205.8060  146.1750 C   0  0  0  0  0  0  0  0  0  0  0  0
  159.6170  204.0140  143.8960 C   0  0  2  0  0  3  0  0  0  0  0  0
  163.3960  205.2380  145.4510 C   0  0  0  0  0  2  0  0  0  0  0  0
  159.6520  206.3860  147.3350 N   0  0  0  0  0  0  0  0  0  0  0  0
  160.8330  206.7660  148.1090 C   0  0  1  0  0  3  0  0  0  0  0  0
  160.9470  205.4310  145.5240 C   0  0  0  0  0  0  0  0  0  0  0  0
  164.7440  204.6330  147.4180 C   0  0  0  0  0  3  0  0  0  0  0  0
  157.3130  204.6160  143.7660 O   0  0  0  0  0  0  0  0  0  0  0  0
  164.6410  206.0520  147.8920 C   0  0  0  0  0  2  0  0  0  0  0  0
  158.4030  204.7410  144.3840 C   0  0  0  0  0  0  0  0  0  0  0  0
  162.1330  206.2780  147.5060 C   0  0  0  0  0  0  0  0  0  0  0  0
  161.0170  205.9500  143.0850 C   0  0  0  0  0  2  0  0  0  0  0  0
  161.9520  205.5260  141.9590 C   0  0  0  0  0  2  0  0  0  0  0  0
  162.5020  206.7440  141.2330 C   0  0  0  0  0  2  0  0  0  0  0  0
  162.2040  206.6690  139.7470 C   0  0  0  0  0  2  0  0  0  0  0  0
  161.1280  207.6790  139.3810 C   0  0  0  0  0  2  0  0  0  0  0  0
  161.8580  207.1740  137.1630 O   0  0  0  0  0  1  0  0  0  0  0  0
  161.3640  208.1980  137.9740 C   0  0  2  0  0  3  0  0  0  0  0  0
  162.3660  209.3360  138.0200 C   0  0  0  0  0  2  0  0  0  0  0  0
  161.0400  211.4640  139.7500 C   0  0  2  0  0  3  0  0  0  0  0  0
  162.2580  212.9150  138.1340 C   0  0  0  0  0  3  0  0  0  0  0  0
  160.8970  212.5570  138.7090 C   0  0  1  0  0  3  0  0  0  0  0  0
  160.5990  211.1200  138.3360 C   0  0  1  0  0  3  0  0  0  0  0  0
  161.7560  210.6200  137.4700 C   0  0  1  0  0  3  0  0  0  0  0  0
  162.8060  211.7090  137.3940 C   0  0  0  0  0  3  0  0  0  0  0  0
  159.8290  211.4510  140.6620 C   0  0  0  0  0  2  0  0  0  0  0  0
  158.1290  213.2670  140.6680 C   0  0  0  0  0  1  0  0  0  0  0  0
  159.5540  212.8870  142.6520 C   0  0  0  0  0  1  0  0  0  0  0  0
  159.5140  212.8590  141.1380 C   0  0  0  0  0  3  0  0  0  0  0  0
  159.7070  202.6530  144.5800 C   0  0  0  0  0  2  0  0  0  0  0  0
  161.0580  202.4370  145.2610 C   0  0  0  0  0  2  0  0  0  0  0  0
  161.5560  199.8880  146.4760 O   0  0  0  0  0  0  0  0  0  0  0  0
  160.8850  202.1160  146.6730 N   0  0  0  0  0  2  0  0  0  0  0  0
  161.2080  200.8390  147.2280 C   0  0  0  0  0  0  0  0  0  0  0  0
  161.1650  200.6690  148.6130 O   0  0  0  0  0  0  0  0  0  0  0  0
  160.0930  201.1570  149.4090 C   0  0  0  0  0  2  0  0  0  0  0  0
  161.5010  204.4760  151.7310 C   0  0  0  0  0  3  0  0  0  0  0  0
  160.3260  203.6210  149.7920 C   0  0  0  0  0  3  0  0  0  0  0  0
  161.7190  203.1680  152.1770 C   0  0  0  0  0  3  0  0  0  0  0  0
  160.5520  202.3130  150.2320 C   0  0  0  0  0  0  0  0  0  0  0  0
  160.8020  204.7020  150.5400 C   0  0  0  0  0  3  0  0  0  0  0  0
  161.2470  202.0890  151.4260 C   0  0  0  0  0  3  0  0  0  0  0  0
  160.8350  208.2760  148.2900 C   0  0  0  0  0  2  0  0  0  0  0  0
  162.2700  208.7860  148.3020 C   0  0  0  0  0  2  0  0  0  0  0  0
  162.4340  210.0230  149.1880 C   0  0  1  0  0  3  0  0  0  0  0  0
  160.9400  211.4480  147.7370 N   0  0  0  0  0  2  0  0  0  0  0  0
  163.0250  212.2250  148.4490 O   0  0  0  0  0  0  0  0  0  0  0  0
  162.1740  211.2940  148.4420 C   0  0  0  0  0  0  0  0  0  0  0  0
  160.2900  213.7870  147.8710 C   0  0  0  0  0  1  0  0  0  0  0  0
  160.6300  212.6320  146.9510 C   0  0  0  0  0  3  0  0  0  0  0  0
  161.8300  213.0050  146.1100 C   0  0  0  0  0  1  0  0  0  0  0  0
  161.5900  209.9320  150.3720 N   0  0  0  0  0  2  0  0  0  0  0  0
  162.4610  210.0420  151.5320 C   0  0  0  0  0  2  0  0  0  0  0  0
  161.3700  210.1060  153.7830 C   0  0  0  0  0  3  0  0  0  0  0  0
  160.2160  210.5250  156.1760 Cl  0  0  0  0  0  0  0  0  0  0  0  0
  161.0690  207.3370  153.7700 C   0  0  0  0  0  3  0  0  0  0  0  0
  160.7620  209.4780  154.8740 C   0  0  0  0  0  0  0  0  0  0  0  0
  161.8310  209.3610  152.6960 C   0  0  0  0  0  0  0  0  0  0  0  0
  161.6740  207.9750  152.6870 C   0  0  0  0  0  3  0  0  0  0  0  0
  160.6050  208.0680  154.8760 C   0  0  0  0  0  0  0  0  0  0  0  0
  160.6580  207.0090  157.0030 O   0  0  0  0  0  1  0  0  0  0  0  0
  158.6420  206.9340  155.9440 O   0  0  0  0  0  0  0  0  0  0  0  0
  159.9770  207.3130  155.9870 C   0  0  0  0  0  0  0  0  0  0  0  0
  1 16  1  0  0  0  0
  2  6  1  0  0  0  0
  3 17  1  6  0  0  0
  3 11  1  0  0  0  0
  5 12  2  0  0  0  0
  6  9  2  0  0  0  0
  7  3  1  0  0  0  0
  7 15  1  0  0  0  0
  7 35  1  1  0  0  0
  8  1  1  0  0  0  0
  8  5  1  0  0  0  0
  9 10  1  0  0  0  0
 10 48  1  6  0  0  0
 11  1  2  0  0  0  0
 11  6  1  0  0  0  0
 12 14  1  0  0  0  0
 13 15  2  0  0  0  0
 14  4  1  0  0  0  0
 15  2  1  0  0  0  0
 16 10  1  0  0  0  0
 16  4  2  0  0  0  0
 18 17  1  0  0  0  0
 19 18  1  0  0  0  0
 20 19  1  0  0  0  0
 21 20  1  0  0  0  0
 23 22  1  6  0  0  0
 23 24  1  0  0  0  0
 23 21  1  0  0  0  0
 25 31  1  1  0  0  0
 27 26  1  6  0  0  0
 27 25  1  0  0  0  0
 28 27  1  0  0  0  0
 28 25  1  0  0  0  0
 29 24  1  0  0  0  0
 29 28  1  0  0  0  0
 30 29  1  0  0  0  0
 30 26  2  0  0  0  0
 31 34  1  0  0  0  0
 32 34  1  0  0  0  0
 34 33  1  0  0  0  0
 35 36  1  0  0  0  0
 36 38  1  0  0  0  0
 37 39  2  0  0  0  0
 38 39  1  0  0  0  0
 39 40  1  0  0  0  0
 40 41  1  0  0  0  0
 41 45  1  0  0  0  0
 42 44  1  0  0  0  0
 43 45  2  0  0  0  0
 43 46  1  0  0  0  0
 45 47  1  0  0  0  0
 46 42  2  0  0  0  0
 47 44  2  0  0  0  0
 48 49  1  0  0  0  0
 49 50  1  0  0  0  0
 50 57  1  0  0  0  0
 51 53  1  0  0  0  0
 53 52  2  0  0  0  0
 53 50  1  0  0  0  0
 55 51  1  0  0  0  0
 55 54  1  0  0  0  0
 56 55  1  0  0  0  0
 57 58  1  0  0  0  0
 58 63  1  0  0  0  0
 59 62  1  0  0  0  0
 61 65  1  0  0  0  0
 62 65  2  0  0  0  0
 62 60  1  0  0  0  0
 63 59  2  0  0  0  0
 64 63  1  0  0  0  0
 64 61  2  0  0  0  0
 65 68  1  0  0  0  0
 67 68  2  0  0  0  0
 68 66  1  0  0  0  0
M  END
>  <MODEL>
2

>  <REMARK>
 VINA RESULT:       2.7      1.777      2.135
  Name = 
  25 active torsions:
  status: ('A' for Active; 'I' for Inactive)
    1  A    between atoms: C_3  and  C_5
    2  A    between atoms: C_3  and  C_49
    3  A    between atoms: N_4  and  C_31
    4  A    between atoms: C_5  and  C_47
    5  A    between atoms: C_6  and  C_47
    6  A    between atoms: C_8  and  C_38
    7  A    between atoms: C_11  and  N_34
    8  A    between atoms: C_11  and  C_52
    9  A    between atoms: C_11  and  C_58
   10  A    between atoms: C_21  and  C_33
   11  A    between atoms: C_21  and  C_49
   12  A    between atoms: C_22  and  C_39
   13  A    between atoms: C_22  and  C_58
   14  A    between atoms: C_24  and  C_41
   15  A    between atoms: C_25  and  C_64
   16  A    between atoms: N_26  and  C_37
   17  A    between atoms: C_33  and  C_64
   18  A    between atoms: N_34  and  C_42
   19  A    between atoms: C_36  and  C_55
   20  A    between atoms: C_36  and  O_57
   21  A    between atoms: C_37  and  C_41
   22  A    between atoms: C_38  and  C_60
   23  A    between atoms: C_42  and  C_51
   24  A    between atoms: C_54  and  C_62
   25  A    between atoms: O_57  and  C_67
                            x       y       z     vdW  Elec       q    Type
                         _______ _______ _______ _____ _____    ______ ____

>  <TORSDO>
F 25

$$$$
