=
 OpenBabel11072411063D

 46 52  0  0  1  0  0  0  0  0999 V2000
  161.5410  209.7580  151.7330 C   0  0  0  0  0  2  0  0  0  0  0  0
  161.9620  208.9830  152.8720 C   0  0  1  0  0  3  0  0  0  0  0  0
  161.3570  210.0370  153.7300 C   0  0  2  0  0  3  0  0  0  0  0  0
  160.9110  208.5300  155.5090 C   0  0  0  0  0  2  0  0  0  0  0  0
  160.1140  206.2810  154.7460 O   0  0  0  0  0  1  0  0  0  0  0  0
  160.8310  209.9220  154.9360 C   0  0  0  0  0  2  0  0  0  0  0  0
  161.2020  207.7060  153.1520 C   0  0  0  0  0  0  0  0  0  0  0  0
  161.1950  210.9080  152.5520 N   0  0  2  0  0  0  0  0  0  0  0  0
  160.7380  207.4780  154.4190 C   0  0  0  0  0  0  0  0  0  0  0  0
  158.2370  212.5420  152.9810 C   0  0  2  0  0  3  0  0  0  0  0  0
  156.7610  213.0480  151.1860 C   0  0  0  0  0  2  0  0  0  0  0  0
  156.8790  213.5230  149.7570 C   0  0  0  0  0  2  0  0  0  0  0  0
  159.6980  212.6270  153.4460 C   0  0  0  0  0  2  0  0  0  0  0  0
  157.9780  213.4790  151.8730 N   0  0  2  0  0  0  0  0  0  0  0  0
  161.0340  212.4450  149.9710 O   0  0  0  0  0  1  0  0  0  0  0  0
  158.3640  213.4950  149.4670 C   0  0  0  0  0  2  0  0  0  0  0  0
  160.0280  212.3180  150.9320 C   0  0  2  0  0  3  0  0  0  0  0  0
  159.0420  213.4970  150.8330 C   0  0  2  0  0  3  0  0  0  0  0  0
  160.6650  212.2440  152.3240 C   0  0  2  0  0  3  0  0  0  0  0  0
  155.3830  213.0550  155.9700 C   0  0  0  0  0  2  0  0  0  0  0  0
  157.2650  212.7380  154.0730 N   0  0  1  0  0  0  0  0  0  0  0  0
  156.8790  214.4390  157.2550 O   0  0  0  0  0  1  0  0  0  0  0  0
  155.5540  211.0450  154.5190 C   0  0  0  0  0  2  0  0  0  0  0  0
  155.9440  211.6260  155.8650 C   0  0  1  0  0  3  0  0  0  0  0  0
  156.9910  211.4610  154.7490 C   0  0  2  0  0  3  0  0  0  0  0  0
  156.4760  214.1340  155.9520 C   0  0  1  0  0  3  0  0  0  0  0  0
  158.7550  213.3190  155.8380 O   0  0  0  0  0  1  0  0  0  0  0  0
  157.6770  213.7650  155.0570 C   0  0  1  0  0  3  0  0  0  0  0  0
  161.1170  206.6810  152.0480 C   0  0  2  0  0  3  0  0  0  0  0  0
  163.3330  205.6780  151.2480 C   0  0  0  0  0  1  0  0  0  0  0  0
  162.1450  205.5530  152.1970 C   0  0  2  0  0  3  0  0  0  0  0  0
  162.2260  203.1440  151.5580 O   0  0  0  0  0  0  0  0  0  0  0  0
  160.3110  204.0230  152.4500 O   0  0  0  0  0  1  0  0  0  0  0  0
  161.5010  204.2060  152.0780 C   0  0  0  0  0  0  0  0  0  0  0  0
  161.0260  207.2740  150.6420 C   0  0  0  0  0  2  0  0  0  0  0  0
  160.2500  206.4010  149.7780 N   0  0  0  0  0  2  0  0  0  0  0  0
  161.1950  203.2680  147.9210 C   0  0  0  0  0  0  0  0  0  0  0  0
  162.9220  205.4250  145.7350 O   0  0  0  0  0  0  0  0  0  0  0  0
  160.8160  205.5440  148.7780 C   0  0  0  0  0  0  0  0  0  0  0  0
  162.1940  205.0650  146.7030 C   0  0  0  0  0  0  0  0  0  0  0  0
  161.6200  206.0500  147.6340 C   0  0  0  0  0  0  0  0  0  0  0  0
  161.8080  207.2790  147.4480 O   0  0  0  0  0  0  0  0  0  0  0  0
  161.9250  203.6750  146.9170 N   0  0  0  0  0  0  0  0  0  0  0  0
  160.6290  204.2280  148.9000 C   0  0  0  0  0  3  0  0  0  0  0  0
  160.9880  201.8130  148.1320 C   0  0  0  0  0  2  0  0  0  0  0  0
  159.9390  201.6150  149.0300 O   0  0  0  0  0  1  0  0  0  0  0  0
  2  1  1  6  0  0  0
  2  7  1  0  0  0  0
  2  3  1  0  0  0  0
  3  6  1  6  0  0  0
  6  4  1  0  0  0  0
  7  9  2  0  0  0  0
  8  1  1  6  0  0  0
  8  3  1  0  0  0  0
  9  5  1  0  0  0  0
  9  4  1  0  0  0  0
 10 13  1  1  0  0  0
 12 11  1  0  0  0  0
 14 11  1  6  0  0  0
 14 10  1  0  0  0  0
 16 12  1  0  0  0  0
 17 15  1  6  0  0  0
 17 19  1  0  0  0  0
 18 16  1  6  0  0  0
 18 17  1  0  0  0  0
 18 14  1  0  0  0  0
 19  8  1  0  0  0  0
 19 13  1  1  0  0  0
 21 10  1  6  0  0  0
 21 25  1  0  0  0  0
 21 28  1  0  0  0  0
 24 23  1  6  0  0  0
 24 20  1  0  0  0  0
 25 23  1  6  0  0  0
 25 24  1  0  0  0  0
 26 20  1  0  0  0  0
 26 22  1  1  0  0  0
 28 27  1  1  0  0  0
 28 26  1  0  0  0  0
 29 35  1  6  0  0  0
 29 31  1  0  0  0  0
 29  7  1  0  0  0  0
 31 30  1  6  0  0  0
 32 34  2  0  0  0  0
 34 31  1  0  0  0  0
 34 33  1  0  0  0  0
 36 35  1  0  0  0  0
 37 45  1  0  0  0  0
 37 44  1  0  0  0  0
 38 40  2  0  0  0  0
 39 44  2  0  0  0  0
 39 36  1  0  0  0  0
 40 43  1  0  0  0  0
 40 41  1  0  0  0  0
 41 39  1  0  0  0  0
 42 41  2  0  0  0  0
 43 37  2  0  0  0  0
 45 46  1  0  0  0  0
M  END
>  <MODEL>
1

>  <REMARK>
 VINA RESULT:      -6.1      0.000      0.000
  Name = 
  9 active torsions:
  status: ('A' for Active; 'I' for Inactive)
    1  A    between atoms: CA_2  and  C_6
    2  A    between atoms: C_7  and  C_20
    3  A    between atoms: C_7  and  C_21
    4  A    between atoms: C_7  and  C_34
    5  A    between atoms: C_10  and  N_13
    6  A    between atoms: C_12  and  N_29
    7  A    between atoms: C_20  and  N_29
    8  A    between atoms: C_21  and  C_27
    9  A    between atoms: N_38  and  C_44
                            x       y       z     vdW  Elec       q    Type
                         _______ _______ _______ _____ _____    ______ ____

>  <TORSDO>
F 9

$$$$
=
 OpenBabel11072411063D

 46 52  0  0  1  0  0  0  0  0999 V2000
  160.8110  208.2090  151.0580 C   0  0  0  0  0  2  0  0  0  0  0  0
  160.2500  208.7090  152.2880 C   0  0  1  0  0  3  0  0  0  0  0  0
  160.9420  207.5900  152.9810 C   0  0  2  0  0  3  0  0  0  0  0  0
  161.1250  208.7850  155.0240 C   0  0  0  0  0  2  0  0  0  0  0  0
  161.6720  211.2110  154.7250 O   0  0  0  0  0  1  0  0  0  0  0  0
  161.3990  207.5400  154.2200 C   0  0  0  0  0  2  0  0  0  0  0  0
  160.8360  209.9900  152.8380 C   0  0  0  0  0  0  0  0  0  0  0  0
  161.2600  206.9740  151.6810 N   0  0  2  0  0  0  0  0  0  0  0  0
  161.2140  210.0330  154.1510 C   0  0  0  0  0  0  0  0  0  0  0  0
  161.1260  204.7870  149.0730 C   0  0  2  0  0  3  0  0  0  0  0  0
  160.1670  202.6170  149.2450 C   0  0  0  0  0  2  0  0  0  0  0  0
  160.1420  201.4960  150.2580 C   0  0  0  0  0  2  0  0  0  0  0  0
  162.1120  205.7630  149.7310 C   0  0  0  0  0  2  0  0  0  0  0  0
  161.3690  203.4040  149.5210 N   0  0  2  0  0  0  0  0  0  0  0  0
  161.5520  204.3580  153.1380 O   0  0  0  0  0  1  0  0  0  0  0  0
  160.8080  202.0770  151.4860 C   0  0  0  0  0  2  0  0  0  0  0  0
  161.2320  204.5320  151.7900 C   0  0  2  0  0  3  0  0  0  0  0  0
  161.6080  203.2750  150.9840 C   0  0  2  0  0  3  0  0  0  0  0  0
  161.9580  205.7720  151.2540 C   0  0  2  0  0  3  0  0  0  0  0  0
  160.9590  205.0330  144.9190 C   0  0  0  0  0  2  0  0  0  0  0  0
  161.1190  204.8690  147.6000 N   0  0  1  0  0  0  0  0  0  0  0  0
  163.1310  204.0110  144.7040 O   0  0  0  0  0  1  0  0  0  0  0  0
  159.8370  206.6200  146.4680 C   0  0  0  0  0  2  0  0  0  0  0  0
  161.0830  206.3910  145.6320 C   0  0  1  0  0  3  0  0  0  0  0  0
  161.1350  206.2740  147.1660 C   0  0  2  0  0  3  0  0  0  0  0  0
  161.9470  203.9830  145.4480 C   0  0  1  0  0  3  0  0  0  0  0  0
  163.4610  204.7440  147.1810 O   0  0  0  0  0  1  0  0  0  0  0  0
  162.2230  204.1180  146.9590 C   0  0  1  0  0  3  0  0  0  0  0  0
  160.8410  211.2030  151.9400 C   0  0  2  0  0  3  0  0  0  0  0  0
  159.6230  213.4010  151.4450 C   0  0  0  0  0  1  0  0  0  0  0  0
  159.5120  211.9680  151.9580 C   0  0  2  0  0  3  0  0  0  0  0  0
  159.2690  212.8430  154.2810 O   0  0  0  0  0  1  0  0  0  0  0  0
  157.9850  211.0820  153.5850 O   0  0  0  0  0  0  0  0  0  0  0  0
  158.8770  211.9290  153.3130 C   0  0  0  0  0  0  0  0  0  0  0  0
  161.4100  210.9530  150.5440 C   0  0  0  0  0  2  0  0  0  0  0  0
  161.7200  212.2150  149.8940 N   0  0  0  0  0  2  0  0  0  0  0  0
  159.7990  212.8130  146.7140 C   0  0  0  0  0  0  0  0  0  0  0  0
  162.9630  213.1240  145.1970 O   0  0  0  0  0  0  0  0  0  0  0  0
  161.4470  212.5030  148.5170 C   0  0  0  0  0  0  0  0  0  0  0  0
  162.1060  212.9650  146.1110 C   0  0  0  0  0  0  0  0  0  0  0  0
  162.5140  212.7320  147.5070 C   0  0  0  0  0  0  0  0  0  0  0  0
  163.7310  212.7380  147.8180 O   0  0  0  0  0  0  0  0  0  0  0  0
  160.7100  212.9960  145.7960 N   0  0  0  0  0  0  0  0  0  0  0  0
  160.1710  212.5400  148.1250 C   0  0  0  0  0  3  0  0  0  0  0  0
  158.3650  212.8020  146.3300 C   0  0  0  0  0  2  0  0  0  0  0  0
  157.5890  212.4270  147.4260 O   0  0  0  0  0  1  0  0  0  0  0  0
  2  1  1  6  0  0  0
  2  7  1  0  0  0  0
  2  3  1  0  0  0  0
  3  6  1  6  0  0  0
  6  4  1  0  0  0  0
  7  9  2  0  0  0  0
  8  1  1  6  0  0  0
  8  3  1  0  0  0  0
  9  5  1  0  0  0  0
  9  4  1  0  0  0  0
 10 14  1  0  0  0  0
 10 13  1  1  0  0  0
 11 12  1  0  0  0  0
 12 16  1  0  0  0  0
 14 11  1  1  0  0  0
 14 18  1  0  0  0  0
 17 15  1  1  0  0  0
 18 16  1  1  0  0  0
 18 17  1  0  0  0  0
 19 13  1  6  0  0  0
 19  8  1  0  0  0  0
 19 17  1  0  0  0  0
 20 26  1  0  0  0  0
 21 10  1  1  0  0  0
 24 20  1  6  0  0  0
 24 23  1  0  0  0  0
 24 25  1  0  0  0  0
 25 23  1  1  0  0  0
 25 21  1  0  0  0  0
 26 22  1  6  0  0  0
 26 28  1  0  0  0  0
 28 27  1  6  0  0  0
 28 21  1  0  0  0  0
 29 35  1  6  0  0  0
 29 31  1  0  0  0  0
 29  7  1  0  0  0  0
 31 30  1  1  0  0  0
 31 34  1  0  0  0  0
 34 33  2  0  0  0  0
 34 32  1  0  0  0  0
 36 35  1  0  0  0  0
 37 44  1  0  0  0  0
 38 40  2  0  0  0  0
 39 36  1  0  0  0  0
 40 41  1  0  0  0  0
 41 42  2  0  0  0  0
 41 39  1  0  0  0  0
 43 40  1  0  0  0  0
 43 37  2  0  0  0  0
 44 39  2  0  0  0  0
 45 37  1  0  0  0  0
 45 46  1  0  0  0  0
M  END
>  <MODEL>
2

>  <REMARK>
 VINA RESULT:      -5.5      2.512      9.141
  Name = 
  9 active torsions:
  status: ('A' for Active; 'I' for Inactive)
    1  A    between atoms: CA_2  and  C_6
    2  A    between atoms: C_7  and  C_20
    3  A    between atoms: C_7  and  C_21
    4  A    between atoms: C_7  and  C_34
    5  A    between atoms: C_10  and  N_13
    6  A    between atoms: C_12  and  N_29
    7  A    between atoms: C_20  and  N_29
    8  A    between atoms: C_21  and  C_27
    9  A    between atoms: N_38  and  C_44
                            x       y       z     vdW  Elec       q    Type
                         _______ _______ _______ _____ _____    ______ ____

>  <TORSDO>
F 9

$$$$
=
 OpenBabel11072411063D

 46 52  0  0  1  0  0  0  0  0999 V2000
  161.9650  209.3890  150.7480 C   0  0  0  0  0  2  0  0  0  0  0  0
  162.2670  208.3550  151.7050 C   0  0  1  0  0  3  0  0  0  0  0  0
  161.6250  209.2130  152.7360 C   0  0  2  0  0  3  0  0  0  0  0  0
  160.9870  207.3620  154.0790 C   0  0  0  0  0  2  0  0  0  0  0  0
  160.1890  205.3890  152.7590 O   0  0  0  0  0  1  0  0  0  0  0  0
  160.9970  208.8500  153.8410 C   0  0  0  0  0  2  0  0  0  0  0  0
  161.4470  207.0860  151.6240 C   0  0  0  0  0  0  0  0  0  0  0  0
  161.5870  210.3370  151.7840 N   0  0  2  0  0  0  0  0  0  0  0  0
  160.8730  206.5970  152.7650 C   0  0  0  0  0  0  0  0  0  0  0  0
  158.7210  211.9850  152.6030 C   0  0  2  0  0  3  0  0  0  0  0  0
  157.2370  212.8950  150.9810 C   0  0  0  0  0  2  0  0  0  0  0  0
  157.3510  213.6320  149.6680 C   0  0  0  0  0  2  0  0  0  0  0  0
  160.1930  211.9140  153.0350 C   0  0  0  0  0  2  0  0  0  0  0  0
  158.4870  213.1300  151.7040 N   0  0  2  0  0  0  0  0  0  0  0  0
  161.4530  212.3520  149.5550 O   0  0  0  0  0  1  0  0  0  0  0  0
  158.8270  213.5960  149.3370 C   0  0  0  0  0  2  0  0  0  0  0  0
  160.4600  212.0850  150.5000 C   0  0  2  0  0  3  0  0  0  0  0  0
  159.5300  213.3020  150.6580 C   0  0  2  0  0  3  0  0  0  0  0  0
  161.1190  211.7130  151.8330 C   0  0  2  0  0  3  0  0  0  0  0  0
  156.0430  211.8990  155.7910 C   0  0  0  0  0  2  0  0  0  0  0  0
  157.7800  212.0070  153.7380 N   0  0  1  0  0  0  0  0  0  0  0  0
  155.6850  214.2780  155.6430 O   0  0  0  0  0  1  0  0  0  0  0  0
  157.9400  210.3210  155.5060 C   0  0  0  0  0  2  0  0  0  0  0  0
  157.5030  211.6080  156.1790 C   0  0  1  0  0  3  0  0  0  0  0  0
  158.4710  211.6380  154.9830 C   0  0  2  0  0  3  0  0  0  0  0  0
  155.8950  213.1260  154.8780 C   0  0  1  0  0  3  0  0  0  0  0  0
  157.9510  214.3000  154.3580 O   0  0  0  0  0  1  0  0  0  0  0  0
  157.0770  213.3000  153.9020 C   0  0  1  0  0  3  0  0  0  0  0  0
  161.4240  206.3460  150.3090 C   0  0  2  0  0  3  0  0  0  0  0  0
  159.9700  206.6570  148.2240 C   0  0  0  0  0  1  0  0  0  0  0  0
  161.0550  207.2450  149.1230 C   0  0  2  0  0  3  0  0  0  0  0  0
  162.5410  208.9670  148.1000 O   0  0  0  0  0  1  0  0  0  0  0  0
  163.0400  206.7450  147.8680 O   0  0  0  0  0  0  0  0  0  0  0  0
  162.2650  207.6260  148.3270 C   0  0  0  0  0  0  0  0  0  0  0  0
  160.6810  205.0110  150.3490 C   0  0  0  0  0  2  0  0  0  0  0  0
  161.5330  203.9470  149.8450 N   0  0  0  0  0  2  0  0  0  0  0  0
  161.4610  203.6700  146.0940 C   0  0  0  0  0  0  0  0  0  0  0  0
  160.6620  200.2840  146.6430 O   0  0  0  0  0  0  0  0  0  0  0  0
  161.4200  203.3740  148.5370 C   0  0  0  0  0  0  0  0  0  0  0  0
  160.9670  201.4800  146.9110 C   0  0  0  0  0  0  0  0  0  0  0  0
  161.1100  201.9380  148.3030 C   0  0  0  0  0  0  0  0  0  0  0  0
  160.9780  201.1250  149.2510 O   0  0  0  0  0  0  0  0  0  0  0  0
  161.1670  202.4210  145.8510 N   0  0  0  0  0  0  0  0  0  0  0  0
  161.5780  204.1770  147.4830 C   0  0  0  0  0  3  0  0  0  0  0  0
  161.6070  204.6200  144.9630 C   0  0  0  0  0  2  0  0  0  0  0  0
  160.4970  205.4640  144.9130 O   0  0  0  0  0  1  0  0  0  0  0  0
  2  1  1  6  0  0  0
  2  3  1  0  0  0  0
  3  6  1  6  0  0  0
  5  9  1  0  0  0  0
  6  4  1  0  0  0  0
  7  2  1  0  0  0  0
  7  9  2  0  0  0  0
  8  1  1  6  0  0  0
  8 19  1  0  0  0  0
  8  3  1  0  0  0  0
  9  4  1  0  0  0  0
 10 13  1  1  0  0  0
 12 11  1  0  0  0  0
 14 11  1  6  0  0  0
 14 10  1  0  0  0  0
 16 12  1  0  0  0  0
 17 15  1  6  0  0  0
 17 18  1  0  0  0  0
 17 19  1  0  0  0  0
 18 16  1  6  0  0  0
 18 14  1  0  0  0  0
 19 13  1  1  0  0  0
 20 24  1  0  0  0  0
 21 10  1  6  0  0  0
 21 28  1  0  0  0  0
 21 25  1  0  0  0  0
 24 23  1  6  0  0  0
 25 23  1  6  0  0  0
 25 24  1  0  0  0  0
 26 22  1  1  0  0  0
 26 20  1  0  0  0  0
 28 27  1  1  0  0  0
 28 26  1  0  0  0  0
 29 35  1  1  0  0  0
 29  7  1  0  0  0  0
 31 30  1  6  0  0  0
 31 29  1  0  0  0  0
 32 34  1  0  0  0  0
 33 34  2  0  0  0  0
 34 31  1  0  0  0  0
 36 35  1  0  0  0  0
 37 44  1  0  0  0  0
 38 40  2  0  0  0  0
 39 36  1  0  0  0  0
 40 41  1  0  0  0  0
 41 39  1  0  0  0  0
 41 42  2  0  0  0  0
 43 37  2  0  0  0  0
 43 40  1  0  0  0  0
 44 39  2  0  0  0  0
 45 37  1  0  0  0  0
 46 45  1  0  0  0  0
M  END
>  <MODEL>
3

>  <REMARK>
 VINA RESULT:      -5.3      1.444      2.894
  Name = 
  9 active torsions:
  status: ('A' for Active; 'I' for Inactive)
    1  A    between atoms: CA_2  and  C_6
    2  A    between atoms: C_7  and  C_20
    3  A    between atoms: C_7  and  C_21
    4  A    between atoms: C_7  and  C_34
    5  A    between atoms: C_10  and  N_13
    6  A    between atoms: C_12  and  N_29
    7  A    between atoms: C_20  and  N_29
    8  A    between atoms: C_21  and  C_27
    9  A    between atoms: N_38  and  C_44
                            x       y       z     vdW  Elec       q    Type
                         _______ _______ _______ _____ _____    ______ ____

>  <TORSDO>
F 9

$$$$
=
 OpenBabel11072411063D

 46 52  0  0  1  0  0  0  0  0999 V2000
  160.5540  208.9220  152.3470 C   0  0  0  0  0  2  0  0  0  0  0  0
  159.9480  209.2190  153.6200 C   0  0  1  0  0  3  0  0  0  0  0  0
  160.7160  208.0760  154.1790 C   0  0  2  0  0  3  0  0  0  0  0  0
  160.7930  209.0120  156.3590 C   0  0  0  0  0  2  0  0  0  0  0  0
  161.1590  211.4900  156.3770 O   0  0  0  0  0  1  0  0  0  0  0  0
  161.1660  207.9030  155.4090 C   0  0  0  0  0  2  0  0  0  0  0  0
  160.4310  210.4600  154.3370 C   0  0  0  0  0  0  0  0  0  0  0  0
  161.0890  207.6550  152.8170 N   0  0  2  0  0  0  0  0  0  0  0  0
  160.7950  210.3630  155.6520 C   0  0  0  0  0  0  0  0  0  0  0  0
  161.0570  205.7190  150.0150 C   0  0  2  0  0  3  0  0  0  0  0  0
  160.3130  203.4600  150.0050 C   0  0  0  0  0  2  0  0  0  0  0  0
  160.4330  202.2520  150.9030 C   0  0  0  0  0  2  0  0  0  0  0  0
  161.9730  206.7200  150.7330 C   0  0  0  0  0  2  0  0  0  0  0  0
  161.4460  204.3310  150.3190 N   0  0  2  0  0  0  0  0  0  0  0  0
  161.6830  204.9550  154.0040 O   0  0  0  0  0  1  0  0  0  0  0  0
  161.0900  202.7770  152.1620 C   0  0  0  0  0  2  0  0  0  0  0  0
  161.2950  205.2220  152.6890 C   0  0  2  0  0  3  0  0  0  0  0  0
  161.7530  204.0880  151.7540 C   0  0  2  0  0  3  0  0  0  0  0  0
  161.8790  206.5710  152.2540 C   0  0  2  0  0  3  0  0  0  0  0  0
  160.7640  206.4550  145.9260 C   0  0  0  0  0  2  0  0  0  0  0  0
  160.9840  205.9380  148.5580 N   0  0  1  0  0  0  0  0  0  0  0  0
  161.4400  204.2020  145.4030 O   0  0  0  0  0  1  0  0  0  0  0  0
  161.3230  208.1760  147.6280 C   0  0  0  0  0  2  0  0  0  0  0  0
  161.9130  207.2020  146.6250 C   0  0  1  0  0  3  0  0  0  0  0  0
  161.9950  206.9200  148.1360 C   0  0  2  0  0  3  0  0  0  0  0  0
  160.6940  204.9680  146.3040 C   0  0  1  0  0  3  0  0  0  0  0  0
  162.4190  204.1870  147.8170 O   0  0  0  0  0  1  0  0  0  0  0  0
  161.1110  204.6940  147.7640 C   0  0  1  0  0  3  0  0  0  0  0  0
  160.3530  211.7740  153.5990 C   0  0  2  0  0  3  0  0  0  0  0  0
  159.5690  213.5780  155.2400 C   0  0  0  0  0  1  0  0  0  0  0  0
  159.1970  212.6620  154.0780 C   0  0  2  0  0  3  0  0  0  0  0  0
  157.6460  211.6160  155.7280 O   0  0  0  0  0  1  0  0  0  0  0  0
  157.2540  211.3810  153.4860 O   0  0  0  0  0  0  0  0  0  0  0  0
  157.9810  211.8500  154.4010 C   0  0  0  0  0  0  0  0  0  0  0  0
  160.4730  211.6540  152.0810 C   0  0  0  0  0  2  0  0  0  0  0  0
  160.1060  212.9090  151.4470 N   0  0  0  0  0  2  0  0  0  0  0  0
  161.0010  213.0280  147.7940 C   0  0  0  0  0  0  0  0  0  0  0  0
  157.7130  214.2000  147.3180 O   0  0  0  0  0  0  0  0  0  0  0  0
  159.9760  213.0910  150.0320 C   0  0  0  0  0  0  0  0  0  0  0  0
  158.7310  213.7620  147.9250 C   0  0  0  0  0  0  0  0  0  0  0  0
  158.7220  213.5620  149.3840 C   0  0  0  0  0  0  0  0  0  0  0  0
  157.6760  213.7800  150.0450 O   0  0  0  0  0  0  0  0  0  0  0  0
  159.9240  213.4620  147.1950 N   0  0  0  0  0  0  0  0  0  0  0  0
  161.0420  212.8490  149.2660 C   0  0  0  0  0  3  0  0  0  0  0  0
  162.2310  212.7820  147.0010 C   0  0  0  0  0  2  0  0  0  0  0  0
  163.2390  212.3010  147.8360 O   0  0  0  0  0  1  0  0  0  0  0  0
  2  1  1  6  0  0  0
  2  3  1  0  0  0  0
  2  7  1  0  0  0  0
  3  6  1  1  0  0  0
  6  4  1  0  0  0  0
  7  9  2  0  0  0  0
  8  1  1  1  0  0  0
  8  3  1  0  0  0  0
  9  4  1  0  0  0  0
  9  5  1  0  0  0  0
 10 14  1  0  0  0  0
 10 13  1  6  0  0  0
 11 12  1  0  0  0  0
 12 16  1  0  0  0  0
 14 11  1  1  0  0  0
 14 18  1  0  0  0  0
 17 15  1  1  0  0  0
 18 16  1  1  0  0  0
 18 17  1  0  0  0  0
 19 13  1  6  0  0  0
 19 17  1  0  0  0  0
 19  8  1  0  0  0  0
 20 26  1  0  0  0  0
 21 10  1  1  0  0  0
 24 20  1  6  0  0  0
 24 23  1  0  0  0  0
 24 25  1  0  0  0  0
 25 23  1  1  0  0  0
 25 21  1  0  0  0  0
 26 22  1  6  0  0  0
 26 28  1  0  0  0  0
 28 27  1  6  0  0  0
 28 21  1  0  0  0  0
 29 35  1  6  0  0  0
 29 31  1  0  0  0  0
 29  7  1  0  0  0  0
 31 34  1  0  0  0  0
 31 30  1  1  0  0  0
 33 34  2  0  0  0  0
 34 32  1  0  0  0  0
 36 35  1  0  0  0  0
 37 44  1  0  0  0  0
 38 40  2  0  0  0  0
 39 36  1  0  0  0  0
 40 41  1  0  0  0  0
 41 39  1  0  0  0  0
 41 42  2  0  0  0  0
 43 37  2  0  0  0  0
 43 40  1  0  0  0  0
 44 39  2  0  0  0  0
 45 37  1  0  0  0  0
 45 46  1  0  0  0  0
M  END
>  <MODEL>
4

>  <REMARK>
 VINA RESULT:      -5.0      2.179      8.949
  Name = 
  9 active torsions:
  status: ('A' for Active; 'I' for Inactive)
    1  A    between atoms: CA_2  and  C_6
    2  A    between atoms: C_7  and  C_20
    3  A    between atoms: C_7  and  C_21
    4  A    between atoms: C_7  and  C_34
    5  A    between atoms: C_10  and  N_13
    6  A    between atoms: C_12  and  N_29
    7  A    between atoms: C_20  and  N_29
    8  A    between atoms: C_21  and  C_27
    9  A    between atoms: N_38  and  C_44
                            x       y       z     vdW  Elec       q    Type
                         _______ _______ _______ _____ _____    ______ ____

>  <TORSDO>
F 9

$$$$
=
 OpenBabel11072411063D

 46 52  0  0  1  0  0  0  0  0999 V2000
  161.3720  208.1110  151.2070 C   0  0  0  0  0  2  0  0  0  0  0  0
  162.0890  206.8960  150.9140 C   0  0  1  0  0  3  0  0  0  0  0  0
  161.5030  206.3280  152.1570 C   0  0  2  0  0  3  0  0  0  0  0  0
  161.5870  204.0990  151.3450 C   0  0  0  0  0  2  0  0  0  0  0  0
  160.9900  203.8880  148.9220 O   0  0  0  0  0  1  0  0  0  0  0  0
  161.2160  205.0690  152.4370 C   0  0  0  0  0  2  0  0  0  0  0  0
  161.5740  206.0550  149.7670 C   0  0  0  0  0  0  0  0  0  0  0  0
  161.0180  207.6640  152.5440 N   0  0  2  0  0  0  0  0  0  0  0  0
  161.3750  204.7170  149.9670 C   0  0  0  0  0  0  0  0  0  0  0  0
  160.3300  210.7300  153.8610 C   0  0  2  0  0  3  0  0  0  0  0  0
  161.3970  211.5750  155.8120 C   0  0  0  0  0  2  0  0  0  0  0  0
  161.8370  211.0370  157.1530 C   0  0  0  0  0  2  0  0  0  0  0  0
  159.5930  209.5150  153.2780 C   0  0  0  0  0  2  0  0  0  0  0  0
  160.3330  210.6920  155.3350 N   0  0  2  0  0  0  0  0  0  0  0  0
  161.3960  207.1040  155.4760 O   0  0  0  0  0  1  0  0  0  0  0  0
  161.6210  209.5420  157.0540 C   0  0  0  0  0  2  0  0  0  0  0  0
  161.2070  208.3540  154.8820 C   0  0  2  0  0  3  0  0  0  0  0  0
  160.6350  209.3520  155.9060 C   0  0  2  0  0  3  0  0  0  0  0  0
  160.2760  208.2040  153.6740 C   0  0  2  0  0  3  0  0  0  0  0  0
  158.9940  214.3970  152.4090 C   0  0  0  0  0  2  0  0  0  0  0  0
  159.8100  212.0190  153.3690 N   0  0  1  0  0  0  0  0  0  0  0  0
  157.1890  214.4480  154.0060 O   0  0  0  0  0  1  0  0  0  0  0  0
  160.1690  212.6870  151.0420 C   0  0  0  0  0  2  0  0  0  0  0  0
  158.8040  213.2210  151.4350 C   0  0  1  0  0  3  0  0  0  0  0  0
  159.3120  211.8780  151.9920 C   0  0  2  0  0  3  0  0  0  0  0  0
  158.5270  214.0780  153.8370 C   0  0  1  0  0  3  0  0  0  0  0  0
  157.5680  211.8760  154.1620 O   0  0  0  0  0  1  0  0  0  0  0  0
  158.7650  212.6080  154.2380 C   0  0  1  0  0  3  0  0  0  0  0  0
  161.4420  206.7140  148.4160 C   0  0  2  0  0  3  0  0  0  0  0  0
  163.1100  205.4850  146.9110 C   0  0  0  0  0  1  0  0  0  0  0  0
  161.6440  205.7370  147.2510 C   0  0  2  0  0  3  0  0  0  0  0  0
  161.4770  206.1050  144.7900 O   0  0  0  0  0  0  0  0  0  0  0  0
  159.6880  206.5730  146.1370 O   0  0  0  0  0  1  0  0  0  0  0  0
  160.8760  206.1650  146.0390 C   0  0  0  0  0  0  0  0  0  0  0  0
  162.2040  208.0310  148.2790 C   0  0  0  0  0  2  0  0  0  0  0  0
  161.3700  209.1410  148.7070 N   0  0  0  0  0  2  0  0  0  0  0  0
  160.5910  212.0550  146.4570 C   0  0  0  0  0  0  0  0  0  0  0  0
  163.1460  213.7280  148.2130 O   0  0  0  0  0  0  0  0  0  0  0  0
  161.4180  210.4540  148.1350 C   0  0  0  0  0  0  0  0  0  0  0  0
  162.3460  212.8030  147.8960 C   0  0  0  0  0  0  0  0  0  0  0  0
  162.3550  211.5100  148.6010 C   0  0  0  0  0  0  0  0  0  0  0  0
  163.1330  211.3260  149.5700 O   0  0  0  0  0  0  0  0  0  0  0  0
  161.4170  212.9980  146.8250 N   0  0  0  0  0  0  0  0  0  0  0  0
  160.5960  210.7270  147.1190 C   0  0  0  0  0  3  0  0  0  0  0  0
  159.6830  212.2860  145.3060 C   0  0  0  0  0  2  0  0  0  0  0  0
  160.3020  211.8680  144.1280 O   0  0  0  0  0  1  0  0  0  0  0  0
  2  1  1  6  0  0  0
  2  3  1  0  0  0  0
  3  6  1  6  0  0  0
  3  8  1  0  0  0  0
  4  6  1  0  0  0  0
  5  9  1  0  0  0  0
  7  9  2  0  0  0  0
  7  2  1  0  0  0  0
  8  1  1  6  0  0  0
  8 19  1  0  0  0  0
  9  4  1  0  0  0  0
 10 13  1  6  0  0  0
 10 14  1  0  0  0  0
 11 12  1  0  0  0  0
 14 11  1  1  0  0  0
 14 18  1  0  0  0  0
 16 12  1  0  0  0  0
 17 15  1  1  0  0  0
 17 18  1  0  0  0  0
 18 16  1  1  0  0  0
 19 13  1  6  0  0  0
 19 17  1  0  0  0  0
 20 26  1  0  0  0  0
 21 10  1  1  0  0  0
 21 28  1  0  0  0  0
 24 23  1  6  0  0  0
 24 25  1  0  0  0  0
 24 20  1  0  0  0  0
 25 23  1  6  0  0  0
 25 21  1  0  0  0  0
 26 22  1  6  0  0  0
 26 28  1  0  0  0  0
 28 27  1  6  0  0  0
 29 35  1  1  0  0  0
 29  7  1  0  0  0  0
 31 30  1  6  0  0  0
 31 29  1  0  0  0  0
 32 34  2  0  0  0  0
 34 33  1  0  0  0  0
 34 31  1  0  0  0  0
 35 36  1  0  0  0  0
 37 43  2  0  0  0  0
 37 44  1  0  0  0  0
 39 41  1  0  0  0  0
 39 36  1  0  0  0  0
 40 38  2  0  0  0  0
 40 41  1  0  0  0  0
 41 42  2  0  0  0  0
 43 40  1  0  0  0  0
 44 39  2  0  0  0  0
 45 37  1  0  0  0  0
 46 45  1  0  0  0  0
M  END
>  <MODEL>
5

>  <REMARK>
 VINA RESULT:      -4.9      2.534      5.967
  Name = 
  9 active torsions:
  status: ('A' for Active; 'I' for Inactive)
    1  A    between atoms: CA_2  and  C_6
    2  A    between atoms: C_7  and  C_20
    3  A    between atoms: C_7  and  C_21
    4  A    between atoms: C_7  and  C_34
    5  A    between atoms: C_10  and  N_13
    6  A    between atoms: C_12  and  N_29
    7  A    between atoms: C_20  and  N_29
    8  A    between atoms: C_21  and  C_27
    9  A    between atoms: N_38  and  C_44
                            x       y       z     vdW  Elec       q    Type
                         _______ _______ _______ _____ _____    ______ ____

>  <TORSDO>
F 9

$$$$
=
 OpenBabel11072411063D

 46 52  0  0  1  0  0  0  0  0999 V2000
  160.9130  207.1870  151.8830 C   0  0  0  0  0  2  0  0  0  0  0  0
  161.8390  208.2500  152.1820 C   0  0  1  0  0  3  0  0  0  0  0  0
  161.7970  208.6030  150.7380 C   0  0  2  0  0  3  0  0  0  0  0  0
  162.2900  210.8900  151.1400 C   0  0  0  0  0  2  0  0  0  0  0  0
  161.1470  211.8250  153.1630 O   0  0  0  0  0  1  0  0  0  0  0  0
  161.9670  209.7830  150.1690 C   0  0  0  0  0  2  0  0  0  0  0  0
  161.2950  209.4420  152.9370 C   0  0  0  0  0  0  0  0  0  0  0  0
  161.0750  207.3520  150.4480 N   0  0  2  0  0  0  0  0  0  0  0  0
  161.5470  210.6980  152.4570 C   0  0  0  0  0  0  0  0  0  0  0  0
  161.4970  204.4290  148.7500 C   0  0  2  0  0  3  0  0  0  0  0  0
  162.7380  204.2690  146.7270 C   0  0  0  0  0  2  0  0  0  0  0  0
  162.9160  205.0880  145.4710 C   0  0  0  0  0  2  0  0  0  0  0  0
  160.3900  205.2160  149.4660 C   0  0  0  0  0  2  0  0  0  0  0  0
  161.4420  204.6440  147.2930 N   0  0  2  0  0  0  0  0  0  0  0  0
  161.1400  208.3630  147.6150 O   0  0  0  0  0  1  0  0  0  0  0  0
  162.1800  206.3810  145.7510 C   0  0  0  0  0  2  0  0  0  0  0  0
  161.4310  207.0670  148.0460 C   0  0  2  0  0  3  0  0  0  0  0  0
  161.2260  206.0620  146.8970 C   0  0  2  0  0  3  0  0  0  0  0  0
  160.5440  206.7230  149.2480 C   0  0  2  0  0  3  0  0  0  0  0  0
  161.5660  200.3920  149.7680 C   0  0  0  0  0  2  0  0  0  0  0  0
  161.4890  202.9890  149.0690 N   0  0  1  0  0  0  0  0  0  0  0  0
  160.8420  199.7520  147.5600 O   0  0  0  0  0  1  0  0  0  0  0  0
  161.1180  202.2380  151.3690 C   0  0  0  0  0  2  0  0  0  0  0  0
  160.4650  201.2050  150.4700 C   0  0  1  0  0  3  0  0  0  0  0  0
  160.4650  202.6950  150.0830 C   0  0  2  0  0  3  0  0  0  0  0  0
  161.6440  200.6610  148.2580 C   0  0  1  0  0  3  0  0  0  0  0  0
  160.0000  202.2110  147.3810 O   0  0  0  0  0  1  0  0  0  0  0  0
  161.3080  202.1190  147.8840 C   0  0  1  0  0  3  0  0  0  0  0  0
  160.6210  209.1870  154.2630 C   0  0  2  0  0  3  0  0  0  0  0  0
  160.0870  206.8020  155.0270 C   0  0  0  0  0  1  0  0  0  0  0  0
  161.1270  207.9160  154.9570 C   0  0  2  0  0  3  0  0  0  0  0  0
  162.3330  209.4250  156.5340 O   0  0  0  0  0  0  0  0  0  0  0  0
  161.5630  207.3970  157.2610 O   0  0  0  0  0  1  0  0  0  0  0  0
  161.6830  208.2190  156.3140 C   0  0  0  0  0  0  0  0  0  0  0  0
  159.1000  209.3320  154.2350 C   0  0  0  0  0  2  0  0  0  0  0  0
  158.6740  210.3370  155.1950 N   0  0  0  0  0  2  0  0  0  0  0  0
  157.3480  213.3000  153.2920 C   0  0  0  0  0  0  0  0  0  0  0  0
  155.2440  213.7850  156.0750 O   0  0  0  0  0  0  0  0  0  0  0  0
  157.8790  211.4820  154.8660 C   0  0  0  0  0  0  0  0  0  0  0  0
  156.1160  213.2450  155.3380 C   0  0  0  0  0  0  0  0  0  0  0  0
  156.8300  212.0300  155.7660 C   0  0  0  0  0  0  0  0  0  0  0  0
  156.5420  211.4800  156.8590 O   0  0  0  0  0  0  0  0  0  0  0  0
  156.4360  213.8210  154.0680 N   0  0  0  0  0  0  0  0  0  0  0  0
  158.1130  212.0970  153.7040 C   0  0  0  0  0  3  0  0  0  0  0  0
  157.6820  213.9640  152.0070 C   0  0  0  0  0  2  0  0  0  0  0  0
  158.0670  213.0050  151.0700 O   0  0  0  0  0  1  0  0  0  0  0  0
  2  1  1  6  0  0  0
  2  7  1  0  0  0  0
  3  6  1  1  0  0  0
  3  2  1  0  0  0  0
  4  9  1  0  0  0  0
  6  4  1  0  0  0  0
  7 29  1  0  0  0  0
  8  3  1  0  0  0  0
  8  1  1  1  0  0  0
  9  7  2  0  0  0  0
  9  5  1  0  0  0  0
 10 13  1  1  0  0  0
 12 16  1  0  0  0  0
 12 11  1  0  0  0  0
 14 11  1  6  0  0  0
 14 10  1  0  0  0  0
 17 15  1  6  0  0  0
 17 19  1  0  0  0  0
 18 16  1  6  0  0  0
 18 14  1  0  0  0  0
 18 17  1  0  0  0  0
 19 13  1  1  0  0  0
 19  8  1  0  0  0  0
 21 10  1  6  0  0  0
 21 25  1  0  0  0  0
 24 20  1  6  0  0  0
 24 23  1  0  0  0  0
 25 24  1  0  0  0  0
 25 23  1  1  0  0  0
 26 22  1  6  0  0  0
 26 20  1  0  0  0  0
 28 27  1  1  0  0  0
 28 26  1  0  0  0  0
 28 21  1  0  0  0  0
 29 35  1  6  0  0  0
 29 31  1  0  0  0  0
 31 30  1  1  0  0  0
 31 34  1  0  0  0  0
 34 32  2  0  0  0  0
 34 33  1  0  0  0  0
 35 36  1  0  0  0  0
 37 44  1  0  0  0  0
 37 43  2  0  0  0  0
 39 36  1  0  0  0  0
 39 41  1  0  0  0  0
 40 41  1  0  0  0  0
 40 38  2  0  0  0  0
 41 42  2  0  0  0  0
 43 40  1  0  0  0  0
 44 39  2  0  0  0  0
 45 37  1  0  0  0  0
 46 45  1  0  0  0  0
M  END
>  <MODEL>
6

>  <REMARK>
 VINA RESULT:      -4.9      2.123      9.802
  Name = 
  9 active torsions:
  status: ('A' for Active; 'I' for Inactive)
    1  A    between atoms: CA_2  and  C_6
    2  A    between atoms: C_7  and  C_20
    3  A    between atoms: C_7  and  C_21
    4  A    between atoms: C_7  and  C_34
    5  A    between atoms: C_10  and  N_13
    6  A    between atoms: C_12  and  N_29
    7  A    between atoms: C_20  and  N_29
    8  A    between atoms: C_21  and  C_27
    9  A    between atoms: N_38  and  C_44
                            x       y       z     vdW  Elec       q    Type
                         _______ _______ _______ _____ _____    ______ ____

>  <TORSDO>
F 9

$$$$
=
 OpenBabel11072411063D

 46 52  0  0  1  0  0  0  0  0999 V2000
  161.9180  210.1480  151.2500 C   0  0  0  0  0  2  0  0  0  0  0  0
  162.1770  209.2230  152.3250 C   0  0  1  0  0  3  0  0  0  0  0  0
  161.2980  210.0690  153.1760 C   0  0  2  0  0  3  0  0  0  0  0  0
  160.6600  208.2520  154.5640 C   0  0  0  0  0  2  0  0  0  0  0  0
  160.2860  206.1130  153.3150 O   0  0  0  0  0  1  0  0  0  0  0  0
  160.5500  209.7110  154.2040 C   0  0  0  0  0  2  0  0  0  0  0  0
  161.5180  207.8650  152.2340 C   0  0  0  0  0  0  0  0  0  0  0  0
  161.2880  211.1130  152.1370 N   0  0  2  0  0  0  0  0  0  0  0  0
  160.8310  207.3910  153.3170 C   0  0  0  0  0  0  0  0  0  0  0  0
  158.3030  212.5780  152.8740 C   0  0  2  0  0  3  0  0  0  0  0  0
  156.6510  213.0600  151.2310 C   0  0  0  0  0  2  0  0  0  0  0  0
  156.6200  213.5820  149.8150 C   0  0  0  0  0  2  0  0  0  0  0  0
  159.7930  212.7250  153.2150 C   0  0  0  0  0  2  0  0  0  0  0  0
  157.9020  213.5320  151.8250 N   0  0  2  0  0  0  0  0  0  0  0  0
  160.8260  212.7160  149.6330 O   0  0  0  0  0  1  0  0  0  0  0  0
  158.0730  213.6400  149.3970 C   0  0  0  0  0  2  0  0  0  0  0  0
  159.9160  212.5080  150.6720 C   0  0  2  0  0  3  0  0  0  0  0  0
  158.8680  213.6360  150.6990 C   0  0  2  0  0  3  0  0  0  0  0  0
  160.6760  212.4260  152.0010 C   0  0  2  0  0  3  0  0  0  0  0  0
  155.7020  212.8440  156.1150 C   0  0  0  0  0  2  0  0  0  0  0  0
  157.4220  212.6900  154.0510 N   0  0  1  0  0  0  0  0  0  0  0  0
  157.1770  214.3670  157.2610 O   0  0  0  0  0  1  0  0  0  0  0  0
  155.9220  210.8500  154.6490 C   0  0  0  0  0  2  0  0  0  0  0  0
  156.3800  211.4720  155.9560 C   0  0  1  0  0  3  0  0  0  0  0  0
  157.3300  211.3970  154.7470 C   0  0  2  0  0  3  0  0  0  0  0  0
  156.6840  214.0190  155.9990 C   0  0  1  0  0  3  0  0  0  0  0  0
  159.0090  213.4150  155.6730 O   0  0  0  0  0  1  0  0  0  0  0  0
  157.8260  213.7560  154.9960 C   0  0  1  0  0  3  0  0  0  0  0  0
  161.7750  207.0400  150.9970 C   0  0  2  0  0  3  0  0  0  0  0  0
  160.0810  206.6230  149.1210 C   0  0  0  0  0  1  0  0  0  0  0  0
  161.0750  207.5960  149.7500 C   0  0  2  0  0  3  0  0  0  0  0  0
  162.6930  207.1720  147.9010 O   0  0  0  0  0  0  0  0  0  0  0  0
  162.3310  209.3090  148.6320 O   0  0  0  0  0  1  0  0  0  0  0  0
  162.0650  208.0830  148.7380 C   0  0  0  0  0  0  0  0  0  0  0  0
  161.6110  205.5340  151.1980 C   0  0  0  0  0  2  0  0  0  0  0  0
  162.1890  204.8120  150.0770 N   0  0  0  0  0  2  0  0  0  0  0  0
  160.9400  202.5790  147.3180 C   0  0  0  0  0  0  0  0  0  0  0  0
  159.5640  200.6270  149.9090 O   0  0  0  0  0  0  0  0  0  0  0  0
  161.5600  203.7070  149.4170 C   0  0  0  0  0  0  0  0  0  0  0  0
  160.2080  201.5610  149.3530 C   0  0  0  0  0  0  0  0  0  0  0  0
  160.8630  202.6140  150.1460 C   0  0  0  0  0  0  0  0  0  0  0  0
  160.8320  202.5700  151.4020 O   0  0  0  0  0  0  0  0  0  0  0  0
  160.3000  201.6150  147.9260 N   0  0  0  0  0  0  0  0  0  0  0  0
  161.5820  203.6760  148.0830 C   0  0  0  0  0  3  0  0  0  0  0  0
  160.9620  202.6210  145.8350 C   0  0  0  0  0  2  0  0  0  0  0  0
  160.2830  201.5140  145.3240 O   0  0  0  0  0  1  0  0  0  0  0  0
  2  1  1  6  0  0  0
  2  3  1  0  0  0  0
  3  6  1  6  0  0  0
  5  9  1  0  0  0  0
  6  4  1  0  0  0  0
  7  2  1  0  0  0  0
  7  9  2  0  0  0  0
  8  1  1  6  0  0  0
  8  3  1  0  0  0  0
  9  4  1  0  0  0  0
 10 13  1  1  0  0  0
 12 11  1  0  0  0  0
 14 11  1  6  0  0  0
 14 10  1  0  0  0  0
 16 12  1  0  0  0  0
 17 15  1  6  0  0  0
 17 18  1  0  0  0  0
 17 19  1  0  0  0  0
 18 16  1  6  0  0  0
 18 14  1  0  0  0  0
 19  8  1  0  0  0  0
 19 13  1  1  0  0  0
 21 10  1  6  0  0  0
 21 25  1  0  0  0  0
 21 28  1  0  0  0  0
 24 23  1  6  0  0  0
 24 20  1  0  0  0  0
 25 23  1  6  0  0  0
 25 24  1  0  0  0  0
 26 20  1  0  0  0  0
 26 22  1  1  0  0  0
 28 27  1  1  0  0  0
 28 26  1  0  0  0  0
 29 35  1  1  0  0  0
 29  7  1  0  0  0  0
 31 30  1  6  0  0  0
 31 29  1  0  0  0  0
 32 34  2  0  0  0  0
 33 34  1  0  0  0  0
 34 31  1  0  0  0  0
 36 35  1  0  0  0  0
 37 43  2  0  0  0  0
 37 44  1  0  0  0  0
 39 36  1  0  0  0  0
 39 41  1  0  0  0  0
 40 38  2  0  0  0  0
 40 41  1  0  0  0  0
 41 42  2  0  0  0  0
 43 40  1  0  0  0  0
 44 39  2  0  0  0  0
 45 37  1  0  0  0  0
 46 45  1  0  0  0  0
M  END
>  <MODEL>
7

>  <REMARK>
 VINA RESULT:      -4.9      1.243      2.631
  Name = 
  9 active torsions:
  status: ('A' for Active; 'I' for Inactive)
    1  A    between atoms: CA_2  and  C_6
    2  A    between atoms: C_7  and  C_20
    3  A    between atoms: C_7  and  C_21
    4  A    between atoms: C_7  and  C_34
    5  A    between atoms: C_10  and  N_13
    6  A    between atoms: C_12  and  N_29
    7  A    between atoms: C_20  and  N_29
    8  A    between atoms: C_21  and  C_27
    9  A    between atoms: N_38  and  C_44
                            x       y       z     vdW  Elec       q    Type
                         _______ _______ _______ _____ _____    ______ ____

>  <TORSDO>
F 9

$$$$
=
 OpenBabel11072411063D

 46 52  0  0  1  0  0  0  0  0999 V2000
  160.6420  207.3500  150.3940 C   0  0  0  0  0  2  0  0  0  0  0  0
  160.5310  206.6370  149.1460 C   0  0  1  0  0  3  0  0  0  0  0  0
  161.5070  207.6070  148.5810 C   0  0  2  0  0  3  0  0  0  0  0  0
  162.3310  206.0570  146.9820 C   0  0  0  0  0  2  0  0  0  0  0  0
  162.5550  203.7240  147.8650 O   0  0  0  0  0  1  0  0  0  0  0  0
  162.3840  207.4270  147.6100 C   0  0  0  0  0  2  0  0  0  0  0  0
  161.1820  205.2740  149.0750 C   0  0  0  0  0  0  0  0  0  0  0  0
  161.3750  208.4480  149.7830 N   0  0  2  0  0  0  0  0  0  0  0  0
  162.0070  204.9900  148.0220 C   0  0  0  0  0  0  0  0  0  0  0  0
  160.6660  210.8660  152.0750 C   0  0  2  0  0  3  0  0  0  0  0  0
  159.7530  212.9820  151.4900 C   0  0  0  0  0  2  0  0  0  0  0  0
  159.9380  214.0020  150.3910 C   0  0  0  0  0  2  0  0  0  0  0  0
  161.7780  209.8600  151.7430 C   0  0  0  0  0  2  0  0  0  0  0  0
  160.9910  212.2070  151.5560 N   0  0  2  0  0  0  0  0  0  0  0  0
  161.9570  210.9220  148.1740 O   0  0  0  0  0  1  0  0  0  0  0  0
  160.8580  213.3270  149.3970 C   0  0  0  0  0  2  0  0  0  0  0  0
  161.3550  210.8670  149.4330 C   0  0  2  0  0  3  0  0  0  0  0  0
  161.5380  212.2050  150.1730 C   0  0  2  0  0  3  0  0  0  0  0  0
  161.9560  209.7040  150.2300 C   0  0  2  0  0  3  0  0  0  0  0  0
  159.7150  211.1690  156.1180 C   0  0  0  0  0  2  0  0  0  0  0  0
  160.3430  210.9230  153.5130 N   0  0  1  0  0  0  0  0  0  0  0  0
  161.0430  209.2290  156.6460 O   0  0  0  0  0  1  0  0  0  0  0  0
  158.2370  211.9170  154.2660 C   0  0  0  0  0  2  0  0  0  0  0  0
  158.5340  210.7710  155.2160 C   0  0  1  0  0  3  0  0  0  0  0  0
  158.9090  210.6730  153.7260 C   0  0  2  0  0  3  0  0  0  0  0  0
  160.9910  210.3640  155.8310 C   0  0  1  0  0  3  0  0  0  0  0  0
  160.7950  208.6630  154.1160 O   0  0  0  0  0  1  0  0  0  0  0  0
  161.1560  210.0020  154.3410 C   0  0  1  0  0  3  0  0  0  0  0  0
  160.7730  204.2450  150.1010 C   0  0  2  0  0  3  0  0  0  0  0  0
  161.7260  202.5420  151.7600 C   0  0  0  0  0  1  0  0  0  0  0  0
  161.8980  203.9000  151.0850 C   0  0  2  0  0  3  0  0  0  0  0  0
  161.2060  205.0900  153.1650 O   0  0  0  0  0  1  0  0  0  0  0  0
  163.0460  205.7990  152.0030 O   0  0  0  0  0  0  0  0  0  0  0  0
  162.0890  204.9850  152.0990 C   0  0  0  0  0  0  0  0  0  0  0  0
  160.0430  203.0340  149.5230 C   0  0  0  0  0  2  0  0  0  0  0  0
  160.9890  202.1350  148.8830 N   0  0  0  0  0  2  0  0  0  0  0  0
  160.0800  201.9180  145.2380 C   0  0  0  0  0  0  0  0  0  0  0  0
  161.2060  198.5870  145.4480 O   0  0  0  0  0  0  0  0  0  0  0  0
  160.8310  201.6040  147.5620 C   0  0  0  0  0  0  0  0  0  0  0  0
  160.9480  199.7680  145.8150 C   0  0  0  0  0  0  0  0  0  0  0  0
  161.2090  200.2130  147.1940 C   0  0  0  0  0  0  0  0  0  0  0  0
  161.7440  199.4310  148.0190 O   0  0  0  0  0  0  0  0  0  0  0  0
  160.3790  200.6960  144.8860 N   0  0  0  0  0  0  0  0  0  0  0  0
  160.2960  202.3930  146.6280 C   0  0  0  0  0  3  0  0  0  0  0  0
  159.4430  202.8280  144.2540 C   0  0  0  0  0  2  0  0  0  0  0  0
  160.0810  204.0690  144.2810 O   0  0  0  0  0  1  0  0  0  0  0  0
  2  1  1  1  0  0  0
  3  6  1  1  0  0  0
  3  2  1  0  0  0  0
  3  8  1  0  0  0  0
  4  6  1  0  0  0  0
  4  9  1  0  0  0  0
  5  9  1  0  0  0  0
  7  2  1  0  0  0  0
  7 29  1  0  0  0  0
  8 19  1  0  0  0  0
  8  1  1  1  0  0  0
  9  7  2  0  0  0  0
 10 13  1  1  0  0  0
 12 11  1  0  0  0  0
 14 11  1  6  0  0  0
 14 10  1  0  0  0  0
 16 12  1  0  0  0  0
 17 15  1  6  0  0  0
 17 18  1  0  0  0  0
 17 19  1  0  0  0  0
 18 16  1  6  0  0  0
 18 14  1  0  0  0  0
 19 13  1  1  0  0  0
 21 10  1  6  0  0  0
 21 25  1  0  0  0  0
 21 28  1  0  0  0  0
 24 23  1  6  0  0  0
 24 20  1  0  0  0  0
 25 23  1  6  0  0  0
 25 24  1  0  0  0  0
 26 20  1  0  0  0  0
 26 22  1  1  0  0  0
 28 27  1  1  0  0  0
 28 26  1  0  0  0  0
 29 35  1  6  0  0  0
 29 31  1  0  0  0  0
 31 30  1  1  0  0  0
 31 34  1  0  0  0  0
 33 34  2  0  0  0  0
 34 32  1  0  0  0  0
 36 35  1  0  0  0  0
 37 44  1  0  0  0  0
 38 40  2  0  0  0  0
 39 36  1  0  0  0  0
 40 41  1  0  0  0  0
 41 39  1  0  0  0  0
 41 42  2  0  0  0  0
 43 37  2  0  0  0  0
 43 40  1  0  0  0  0
 44 39  2  0  0  0  0
 45 46  1  0  0  0  0
 45 37  1  0  0  0  0
M  END
>  <MODEL>
8

>  <REMARK>
 VINA RESULT:      -4.6      2.418      4.654
  Name = 
  9 active torsions:
  status: ('A' for Active; 'I' for Inactive)
    1  A    between atoms: CA_2  and  C_6
    2  A    between atoms: C_7  and  C_20
    3  A    between atoms: C_7  and  C_21
    4  A    between atoms: C_7  and  C_34
    5  A    between atoms: C_10  and  N_13
    6  A    between atoms: C_12  and  N_29
    7  A    between atoms: C_20  and  N_29
    8  A    between atoms: C_21  and  C_27
    9  A    between atoms: N_38  and  C_44
                            x       y       z     vdW  Elec       q    Type
                         _______ _______ _______ _____ _____    ______ ____

>  <TORSDO>
F 9

$$$$
=
 OpenBabel11072411063D

 46 52  0  0  1  0  0  0  0  0999 V2000
  160.5430  208.6810  152.0410 C   0  0  0  0  0  2  0  0  0  0  0  0
  161.5270  207.7540  152.5390 C   0  0  1  0  0  3  0  0  0  0  0  0
  160.8620  207.8610  153.8650 C   0  0  2  0  0  3  0  0  0  0  0  0
  161.5270  205.6820  154.5310 C   0  0  0  0  0  2  0  0  0  0  0  0
  161.4090  203.9870  152.6910 O   0  0  0  0  0  1  0  0  0  0  0  0
  160.7890  206.9620  154.8300 C   0  0  0  0  0  2  0  0  0  0  0  0
  161.3950  206.3120  152.1020 C   0  0  0  0  0  0  0  0  0  0  0  0
  160.0610  208.9970  153.3760 N   0  0  2  0  0  0  0  0  0  0  0  0
  161.4350  205.3280  153.0510 C   0  0  0  0  0  0  0  0  0  0  0  0
  158.6340  212.0070  152.6650 C   0  0  2  0  0  3  0  0  0  0  0  0
  159.1660  214.0070  153.8370 C   0  0  0  0  0  2  0  0  0  0  0  0
  159.4380  214.4120  155.2660 C   0  0  0  0  0  2  0  0  0  0  0  0
  158.2330  210.5350  152.8410 C   0  0  0  0  0  2  0  0  0  0  0  0
  158.3730  212.7790  153.8920 N   0  0  2  0  0  0  0  0  0  0  0  0
  159.9850  210.2350  156.1180 O   0  0  0  0  0  1  0  0  0  0  0  0
  159.5000  213.1060  156.0280 C   0  0  0  0  0  2  0  0  0  0  0  0
  159.6990  210.8690  154.9060 C   0  0  2  0  0  3  0  0  0  0  0  0
  158.7890  212.0880  155.1420 C   0  0  2  0  0  3  0  0  0  0  0  0
  159.0450  209.8650  153.9520 C   0  0  2  0  0  3  0  0  0  0  0  0
  156.7250  213.7320  149.3900 C   0  0  0  0  0  2  0  0  0  0  0  0
  158.0010  212.6480  151.4960 N   0  0  1  0  0  0  0  0  0  0  0  0
  158.8290  214.4430  148.4520 O   0  0  0  0  0  1  0  0  0  0  0  0
  155.7180  213.5160  151.6510 C   0  0  0  0  0  2  0  0  0  0  0  0
  156.4720  214.4530  150.7250 C   0  0  1  0  0  3  0  0  0  0  0  0
  157.1820  213.7930  151.9210 C   0  0  2  0  0  3  0  0  0  0  0  0
  158.2070  213.4050  149.1540 C   0  0  1  0  0  3  0  0  0  0  0  0
  159.7360  214.1570  150.8770 O   0  0  0  0  0  1  0  0  0  0  0  0
  158.9660  213.0630  150.4520 C   0  0  1  0  0  3  0  0  0  0  0  0
  161.3670  206.0260  150.6210 C   0  0  2  0  0  3  0  0  0  0  0  0
  159.9630  207.0050  148.7160 C   0  0  0  0  0  1  0  0  0  0  0  0
  161.0280  207.2620  149.7780 C   0  0  2  0  0  3  0  0  0  0  0  0
  162.3060  209.2320  148.9380 O   0  0  0  0  0  1  0  0  0  0  0  0
  163.2520  207.1490  148.8800 O   0  0  0  0  0  0  0  0  0  0  0  0
  162.2570  207.8650  149.1720 C   0  0  0  0  0  0  0  0  0  0  0  0
  160.5940  204.7650  150.2360 C   0  0  0  0  0  2  0  0  0  0  0  0
  161.4830  203.8040  149.6060 N   0  0  0  0  0  2  0  0  0  0  0  0
  161.2710  203.8030  145.8490 C   0  0  0  0  0  0  0  0  0  0  0  0
  160.5850  200.3630  146.1720 O   0  0  0  0  0  0  0  0  0  0  0  0
  161.3340  203.3250  148.2640 C   0  0  0  0  0  0  0  0  0  0  0  0
  160.8680  201.5450  146.5170 C   0  0  0  0  0  0  0  0  0  0  0  0
  161.0540  201.9030  147.9340 C   0  0  0  0  0  0  0  0  0  0  0  0
  160.9810  201.0180  148.8230 O   0  0  0  0  0  0  0  0  0  0  0  0
  161.0010  202.5670  145.5250 N   0  0  0  0  0  0  0  0  0  0  0  0
  161.4290  204.2090  147.2680 C   0  0  0  0  0  3  0  0  0  0  0  0
  161.3460  204.8390  144.7880 C   0  0  0  0  0  2  0  0  0  0  0  0
  161.4110  206.1040  145.3720 O   0  0  0  0  0  1  0  0  0  0  0  0
  2  1  1  6  0  0  0
  2  3  1  0  0  0  0
  3  6  1  6  0  0  0
  4  6  1  0  0  0  0
  5  9  1  0  0  0  0
  7  2  1  0  0  0  0
  7  9  2  0  0  0  0
  8  1  1  6  0  0  0
  8  3  1  0  0  0  0
  8 19  1  0  0  0  0
  9  4  1  0  0  0  0
 10 13  1  1  0  0  0
 10 14  1  0  0  0  0
 11 12  1  0  0  0  0
 12 16  1  0  0  0  0
 14 11  1  6  0  0  0
 14 18  1  0  0  0  0
 17 18  1  0  0  0  0
 17 15  1  1  0  0  0
 18 16  1  1  0  0  0
 19 13  1  6  0  0  0
 19 17  1  0  0  0  0
 21 25  1  0  0  0  0
 21 10  1  1  0  0  0
 24 20  1  6  0  0  0
 24 23  1  0  0  0  0
 24 25  1  0  0  0  0
 25 23  1  1  0  0  0
 26 22  1  1  0  0  0
 26 20  1  0  0  0  0
 26 28  1  0  0  0  0
 28 27  1  1  0  0  0
 28 21  1  0  0  0  0
 29 35  1  1  0  0  0
 29  7  1  0  0  0  0
 31 30  1  6  0  0  0
 31 29  1  0  0  0  0
 32 34  1  0  0  0  0
 33 34  2  0  0  0  0
 34 31  1  0  0  0  0
 36 35  1  0  0  0  0
 37 44  1  0  0  0  0
 38 40  2  0  0  0  0
 39 36  1  0  0  0  0
 40 41  1  0  0  0  0
 41 39  1  0  0  0  0
 41 42  2  0  0  0  0
 43 37  2  0  0  0  0
 43 40  1  0  0  0  0
 44 39  2  0  0  0  0
 45 46  1  0  0  0  0
 45 37  1  0  0  0  0
M  END
>  <MODEL>
9

>  <REMARK>
 VINA RESULT:      -4.4      1.990      4.360
  Name = 
  9 active torsions:
  status: ('A' for Active; 'I' for Inactive)
    1  A    between atoms: CA_2  and  C_6
    2  A    between atoms: C_7  and  C_20
    3  A    between atoms: C_7  and  C_21
    4  A    between atoms: C_7  and  C_34
    5  A    between atoms: C_10  and  N_13
    6  A    between atoms: C_12  and  N_29
    7  A    between atoms: C_20  and  N_29
    8  A    between atoms: C_21  and  C_27
    9  A    between atoms: N_38  and  C_44
                            x       y       z     vdW  Elec       q    Type
                         _______ _______ _______ _____ _____    ______ ____

>  <TORSDO>
F 9

$$$$
