=
 OpenBabel11072412113D

 31 34  0  0  1  0  0  0  0  0999 V2000
  160.9530  207.1180  149.7940 C   0  0  0  0  0  2  0  0  0  0  0  0
  161.4700  206.4680  151.0710 C   0  0  0  0  0  2  0  0  0  0  0  0
  161.4480  207.4730  152.2110 C   0  0  0  0  0  2  0  0  0  0  0  0
  161.6200  206.7660  153.5460 C   0  0  2  0  0  3  0  0  0  0  0  0
  161.1140  205.4660  153.4730 O   0  0  0  0  0  1  0  0  0  0  0  0
  160.9130  207.5200  154.6230 C   0  0  0  0  0  0  0  0  0  0  0  0
  161.2120  208.9080  154.8160 N   0  0  0  0  0  2  0  0  0  0  0  0
  160.0620  206.9330  155.3450 O   0  0  0  0  0  0  0  0  0  0  0  0
  162.5340  211.1430  156.8460 O   0  0  0  0  0  1  0  0  0  0  0  0
  161.4700  211.0990  155.9400 C   0  0  2  0  0  3  0  0  0  0  0  0
  160.9410  208.9810  157.2210 C   0  0  0  0  0  1  0  0  0  0  0  0
  160.4200  212.1260  156.3060 C   0  0  0  0  0  2  0  0  0  0  0  0
  159.0560  211.4890  156.0720 C   0  0  2  0  0  3  0  0  0  0  0  0
  159.2520  210.0450  155.7920 C   0  0  2  0  0  3  0  0  0  0  0  0
  160.7480  209.7490  155.9200 C   0  0  2  0  0  0  0  0  0  0  0  0
  158.9840  210.9730  154.7630 O   0  0  0  0  0  0  0  0  0  0  0  0
  162.0740  207.7120  148.9410 C   0  0  2  0  0  3  0  0  0  0  0  0
  161.6780  208.9430  148.4060 O   0  0  0  0  0  0  0  0  0  0  0  0
  162.0250  209.8870  149.3730 C   0  0  0  0  0  2  0  0  0  0  0  0
  162.2080  211.1930  148.7390 C   0  0  0  0  0  0  0  0  0  0  0  0
  162.3510  212.2250  148.2370 N   0  0  0  0  0  0  0  0  0  0  0  0
  162.4870  206.7610  147.8290 C   0  0  0  0  0  2  0  0  0  0  0  0
  161.3780  205.8860  147.4850 N   0  0  0  0  0  2  0  0  0  0  0  0
  161.9380  204.2590  145.4980 S   0  0  0  0  0  0  0  0  0  0  0  0
  161.5080  204.5250  147.0570 C   0  0  0  0  0  0  0  0  0  0  0  0
  161.0360  203.5210  149.3640 C   0  0  0  0  0  2  0  0  0  0  0  0
  161.1870  202.0370  147.4710 C   0  0  0  0  0  2  0  0  0  0  0  0
  159.6100  201.4730  149.3220 C   0  0  0  0  0  2  0  0  0  0  0  0
  161.2400  203.4100  147.9320 N   0  0  0  0  0  0  0  0  0  0  0  0
  160.9590  201.1690  148.6980 C   0  0  2  0  0  3  0  0  0  0  0  0
  160.8640  202.1070  149.8940 C   0  0  1  0  0  3  0  0  0  0  0  0
  1  2  1  0  0  0  0
  2  3  1  0  0  0  0
  3  4  1  0  0  0  0
  4  5  1  6  0  0  0
  4  6  1  0  0  0  0
  6  7  1  0  0  0  0
  6  8  2  0  0  0  0
  7 15  1  0  0  0  0
 10 12  1  0  0  0  0
 10  9  1  1  0  0  0
 13 12  1  6  0  0  0
 14 16  1  6  0  0  0
 14 15  1  0  0  0  0
 14 13  1  0  0  0  0
 15 10  1  0  0  0  0
 15 11  1  1  0  0  0
 16 13  1  0  0  0  0
 17 22  1  6  0  0  0
 17  1  1  0  0  0  0
 18 17  1  0  0  0  0
 18 19  1  0  0  0  0
 20 19  1  0  0  0  0
 21 20  3  0  0  0  0
 23 22  1  0  0  0  0
 24 25  2  0  0  0  0
 25 23  1  0  0  0  0
 25 29  1  0  0  0  0
 26 31  1  0  0  0  0
 27 29  1  0  0  0  0
 29 26  1  0  0  0  0
 30 27  1  6  0  0  0
 30 28  1  0  0  0  0
 30 31  1  0  0  0  0
 31 28  1  6  0  0  0
M  END
>  <MODEL>
1

>  <REMARK>
 VINA RESULT:      -6.9      0.000      0.000
  Name = 
  13 active torsions:
  status: ('A' for Active; 'I' for Inactive)
    1  A    between atoms: C_1  and  C_10
    2  A    between atoms: C_1  and  C_20
    3  A    between atoms: N_3  and  C_18
    4  A    between atoms: N_3  and  C_25
    5  A    between atoms: C_10  and  C_21
    6  A    between atoms: C_13  and  C_21
    7  A    between atoms: C_13  and  C_31
    8  A    between atoms: N_14  and  C_18
    9  A    between atoms: C_15  and  C_26
   10  A    between atoms: O_16  and  C_26
   11  A    between atoms: O_16  and  C_31
   12  A    between atoms: C_23  and  N_24
   13  A    between atoms: C_25  and  C_31
                            x       y       z     vdW  Elec       q    Type
                         _______ _______ _______ _____ _____    ______ ____

>  <TORSDO>
F 13

$$$$
=
 OpenBabel11072412113D

 31 34  0  0  1  0  0  0  0  0999 V2000
  161.2050  206.9600  152.6160 C   0  0  0  0  0  2  0  0  0  0  0  0
  161.2050  206.3990  154.0320 C   0  0  0  0  0  2  0  0  0  0  0  0
  160.4360  207.3270  154.9580 C   0  0  0  0  0  2  0  0  0  0  0  0
  161.3950  208.2200  155.7290 C   0  0  2  0  0  3  0  0  0  0  0  0
  161.3160  207.9480  157.0970 O   0  0  0  0  0  1  0  0  0  0  0  0
  161.0700  209.6560  155.4850 C   0  0  0  0  0  0  0  0  0  0  0  0
  159.7320  210.1170  155.7070 N   0  0  0  0  0  2  0  0  0  0  0  0
  161.9710  210.4460  155.0930 O   0  0  0  0  0  0  0  0  0  0  0  0
  160.1050  212.2790  153.2470 O   0  0  0  0  0  1  0  0  0  0  0  0
  159.0410  211.5970  153.8450 C   0  0  2  0  0  3  0  0  0  0  0  0
  160.1230  212.4950  155.9500 C   0  0  0  0  0  1  0  0  0  0  0  0
  157.7450  212.3530  153.6420 C   0  0  0  0  0  2  0  0  0  0  0  0
  156.9480  212.2520  154.9370 C   0  0  2  0  0  3  0  0  0  0  0  0
  157.8180  211.6520  155.9790 C   0  0  2  0  0  3  0  0  0  0  0  0
  159.2000  211.4370  155.3590 C   0  0  2  0  0  0  0  0  0  0  0  0
  156.8220  210.9020  155.3180 O   0  0  0  0  0  0  0  0  0  0  0  0
  162.1310  206.1870  151.6770 C   0  0  2  0  0  3  0  0  0  0  0  0
  162.3980  206.9380  150.5270 O   0  0  0  0  0  0  0  0  0  0  0  0
  162.0300  208.2440  150.8550 C   0  0  0  0  0  2  0  0  0  0  0  0
  162.0390  209.0720  149.6490 C   0  0  0  0  0  0  0  0  0  0  0  0
  162.0470  209.7270  148.6950 N   0  0  0  0  0  0  0  0  0  0  0  0
  161.5370  204.8380  151.3000 C   0  0  0  0  0  2  0  0  0  0  0  0
  160.8460  204.9390  150.0250 N   0  0  0  0  0  2  0  0  0  0  0  0
  160.6730  202.4350  149.2430 S   0  0  0  0  0  0  0  0  0  0  0  0
  160.9870  204.0140  148.9390 C   0  0  0  0  0  0  0  0  0  0  0  0
  161.5300  203.5400  146.4830 C   0  0  0  0  0  2  0  0  0  0  0  0
  161.8470  205.7760  147.3210 C   0  0  0  0  0  2  0  0  0  0  0  0
  161.1290  205.4680  144.9500 C   0  0  0  0  0  2  0  0  0  0  0  0
  161.4240  204.4240  147.6270 N   0  0  0  0  0  0  0  0  0  0  0  0
  162.2960  205.7790  145.8680 C   0  0  2  0  0  3  0  0  0  0  0  0
  162.0960  204.3650  145.3390 C   0  0  1  0  0  3  0  0  0  0  0  0
  1  2  1  0  0  0  0
  2  3  1  0  0  0  0
  3  4  1  0  0  0  0
  4  5  1  1  0  0  0
  6  7  1  0  0  0  0
  6  4  1  0  0  0  0
  8  6  2  0  0  0  0
 10  9  1  1  0  0  0
 10 15  1  0  0  0  0
 12 10  1  0  0  0  0
 13 12  1  6  0  0  0
 13 16  1  0  0  0  0
 13 14  1  0  0  0  0
 14 16  1  6  0  0  0
 15  7  1  0  0  0  0
 15 11  1  1  0  0  0
 15 14  1  0  0  0  0
 17 22  1  6  0  0  0
 17  1  1  0  0  0  0
 18 19  1  0  0  0  0
 18 17  1  0  0  0  0
 20 19  1  0  0  0  0
 21 20  3  0  0  0  0
 23 22  1  0  0  0  0
 25 24  2  0  0  0  0
 25 23  1  0  0  0  0
 26 29  1  0  0  0  0
 27 29  1  0  0  0  0
 29 25  1  0  0  0  0
 30 28  1  6  0  0  0
 30 27  1  0  0  0  0
 31 28  1  6  0  0  0
 31 30  1  0  0  0  0
 31 26  1  0  0  0  0
M  END
>  <MODEL>
2

>  <REMARK>
 VINA RESULT:      -6.9      1.970      3.415
  Name = 
  13 active torsions:
  status: ('A' for Active; 'I' for Inactive)
    1  A    between atoms: C_1  and  C_10
    2  A    between atoms: C_1  and  C_20
    3  A    between atoms: N_3  and  C_18
    4  A    between atoms: N_3  and  C_25
    5  A    between atoms: C_10  and  C_21
    6  A    between atoms: C_13  and  C_21
    7  A    between atoms: C_13  and  C_31
    8  A    between atoms: N_14  and  C_18
    9  A    between atoms: C_15  and  C_26
   10  A    between atoms: O_16  and  C_26
   11  A    between atoms: O_16  and  C_31
   12  A    between atoms: C_23  and  N_24
   13  A    between atoms: C_25  and  C_31
                            x       y       z     vdW  Elec       q    Type
                         _______ _______ _______ _____ _____    ______ ____

>  <TORSDO>
F 13

$$$$
=
 OpenBabel11072412113D

 31 34  0  0  1  0  0  0  0  0999 V2000
  161.2530  205.0300  152.9210 C   0  0  0  0  0  2  0  0  0  0  0  0
  161.6310  206.4300  153.3880 C   0  0  0  0  0  2  0  0  0  0  0  0
  160.5800  206.9590  154.3490 C   0  0  0  0  0  2  0  0  0  0  0  0
  161.2320  207.7720  155.4550 C   0  0  2  0  0  3  0  0  0  0  0  0
  160.7190  207.3960  156.6990 O   0  0  0  0  0  1  0  0  0  0  0  0
  160.9920  209.2290  155.2340 C   0  0  0  0  0  0  0  0  0  0  0  0
  159.7260  209.7910  155.5990 N   0  0  0  0  0  2  0  0  0  0  0  0
  161.9020  209.9460  154.7360 O   0  0  0  0  0  0  0  0  0  0  0  0
  160.0990  211.9660  153.1510 O   0  0  0  0  0  1  0  0  0  0  0  0
  159.0290  211.3430  153.7990 C   0  0  2  0  0  3  0  0  0  0  0  0
  160.2810  212.1350  155.8510 C   0  0  0  0  0  1  0  0  0  0  0  0
  157.7750  212.1820  153.6780 C   0  0  0  0  0  2  0  0  0  0  0  0
  157.0460  212.1080  155.0150 C   0  0  2  0  0  3  0  0  0  0  0  0
  157.9320  211.4380  155.9990 C   0  0  2  0  0  3  0  0  0  0  0  0
  159.2610  211.1470  155.2990 C   0  0  2  0  0  0  0  0  0  0  0  0
  156.8550  210.7630  155.3850 O   0  0  0  0  0  0  0  0  0  0  0  0
  160.9130  204.9780  151.4320 C   0  0  2  0  0  3  0  0  0  0  0  0
  161.6110  203.9390  150.8080 O   0  0  0  0  0  0  0  0  0  0  0  0
  160.6570  202.9460  150.5830 C   0  0  0  0  0  2  0  0  0  0  0  0
  160.7940  202.4370  149.2180 C   0  0  0  0  0  0  0  0  0  0  0  0
  160.9030  202.0350  148.1380 N   0  0  0  0  0  0  0  0  0  0  0  0
  161.2160  206.3030  150.7480 C   0  0  0  0  0  2  0  0  0  0  0  0
  160.7000  206.2890  149.3890 N   0  0  0  0  0  2  0  0  0  0  0  0
  161.9850  208.3560  148.3940 S   0  0  0  0  0  0  0  0  0  0  0  0
  161.3720  206.8430  148.2500 C   0  0  0  0  0  0  0  0  0  0  0  0
  162.5600  205.2150  146.6730 C   0  0  0  0  0  2  0  0  0  0  0  0
  160.5490  206.2990  145.9070 C   0  0  0  0  0  2  0  0  0  0  0  0
  161.0340  203.9750  145.1350 C   0  0  0  0  0  2  0  0  0  0  0  0
  161.4870  206.1330  147.0000 N   0  0  0  0  0  0  0  0  0  0  0  0
  161.0580  205.4440  144.7570 C   0  0  2  0  0  3  0  0  0  0  0  0
  162.3290  204.7600  145.2410 C   0  0  1  0  0  3  0  0  0  0  0  0
  1  2  1  0  0  0  0
  2  3  1  0  0  0  0
  3  4  1  0  0  0  0
  4  5  1  1  0  0  0
  6  4  1  0  0  0  0
  6  7  1  0  0  0  0
  8  6  2  0  0  0  0
 10  9  1  1  0  0  0
 10 15  1  0  0  0  0
 12 10  1  0  0  0  0
 13 12  1  6  0  0  0
 13 16  1  0  0  0  0
 13 14  1  0  0  0  0
 14 16  1  6  0  0  0
 15  7  1  0  0  0  0
 15 11  1  1  0  0  0
 15 14  1  0  0  0  0
 17 22  1  6  0  0  0
 17  1  1  0  0  0  0
 18 17  1  0  0  0  0
 19 18  1  0  0  0  0
 20 19  1  0  0  0  0
 21 20  3  0  0  0  0
 23 22  1  0  0  0  0
 25 24  2  0  0  0  0
 25 23  1  0  0  0  0
 26 29  1  0  0  0  0
 27 29  1  0  0  0  0
 29 25  1  0  0  0  0
 30 28  1  1  0  0  0
 30 31  1  0  0  0  0
 30 27  1  0  0  0  0
 31 28  1  1  0  0  0
 31 26  1  0  0  0  0
M  END
>  <MODEL>
3

>  <REMARK>
 VINA RESULT:      -6.9      2.439      4.403
  Name = 
  13 active torsions:
  status: ('A' for Active; 'I' for Inactive)
    1  A    between atoms: C_1  and  C_10
    2  A    between atoms: C_1  and  C_20
    3  A    between atoms: N_3  and  C_18
    4  A    between atoms: N_3  and  C_25
    5  A    between atoms: C_10  and  C_21
    6  A    between atoms: C_13  and  C_21
    7  A    between atoms: C_13  and  C_31
    8  A    between atoms: N_14  and  C_18
    9  A    between atoms: C_15  and  C_26
   10  A    between atoms: O_16  and  C_26
   11  A    between atoms: O_16  and  C_31
   12  A    between atoms: C_23  and  N_24
   13  A    between atoms: C_25  and  C_31
                            x       y       z     vdW  Elec       q    Type
                         _______ _______ _______ _____ _____    ______ ____

>  <TORSDO>
F 13

$$$$
=
 OpenBabel11072412113D

 31 34  0  0  1  0  0  0  0  0999 V2000
  161.1360  207.2670  150.8720 C   0  0  0  0  0  2  0  0  0  0  0  0
  161.5090  207.2690  152.3490 C   0  0  0  0  0  2  0  0  0  0  0  0
  160.8720  208.4600  153.0450 C   0  0  0  0  0  2  0  0  0  0  0  0
  160.9750  208.3110  154.5540 C   0  0  2  0  0  3  0  0  0  0  0  0
  160.4740  207.0700  154.9530 O   0  0  0  0  0  1  0  0  0  0  0  0
  160.2130  209.4000  155.2330 C   0  0  0  0  0  0  0  0  0  0  0  0
  159.5980  210.4220  154.4380 N   0  0  0  0  0  2  0  0  0  0  0  0
  160.1140  209.4090  156.4900 O   0  0  0  0  0  0  0  0  0  0  0  0
  159.0400  213.4660  153.3030 O   0  0  0  0  0  1  0  0  0  0  0  0
  158.2700  212.4170  153.8130 C   0  0  2  0  0  3  0  0  0  0  0  0
  160.0310  212.4860  155.6290 C   0  0  0  0  0  1  0  0  0  0  0  0
  156.9820  212.9450  154.4070 C   0  0  0  0  0  2  0  0  0  0  0  0
  156.7070  212.1520  155.6800 C   0  0  2  0  0  3  0  0  0  0  0  0
  157.8990  211.3230  155.9850 C   0  0  2  0  0  3  0  0  0  0  0  0
  158.9660  211.6460  154.9370 C   0  0  2  0  0  0  0  0  0  0  0  0
  156.7380  210.7720  155.4020 O   0  0  0  0  0  0  0  0  0  0  0  0
  162.1870  207.9520  149.9990 C   0  0  2  0  0  3  0  0  0  0  0  0
  162.0110  209.3400  150.0220 O   0  0  0  0  0  0  0  0  0  0  0  0
  162.1400  209.7440  148.6920 C   0  0  0  0  0  2  0  0  0  0  0  0
  162.1150  211.2050  148.6200 C   0  0  0  0  0  0  0  0  0  0  0  0
  162.0940  212.3600  148.5640 N   0  0  0  0  0  0  0  0  0  0  0  0
  162.1410  207.4370  148.5690 C   0  0  0  0  0  2  0  0  0  0  0  0
  161.1770  206.3540  148.4630 N   0  0  0  0  0  2  0  0  0  0  0  0
  161.8780  205.1920  146.2110 S   0  0  0  0  0  0  0  0  0  0  0  0
  161.4060  205.1150  147.7790 C   0  0  0  0  0  0  0  0  0  0  0  0
  160.9210  203.6490  149.8200 C   0  0  0  0  0  2  0  0  0  0  0  0
  161.2980  202.5770  147.6950 C   0  0  0  0  0  2  0  0  0  0  0  0
  159.6930  201.5380  149.3010 C   0  0  0  0  0  2  0  0  0  0  0  0
  161.2010  203.8350  148.4090 N   0  0  0  0  0  0  0  0  0  0  0  0
  161.0930  201.4720  148.7190 C   0  0  2  0  0  3  0  0  0  0  0  0
  160.8550  202.1500  150.0620 C   0  0  1  0  0  3  0  0  0  0  0  0
  1  2  1  0  0  0  0
  2  3  1  0  0  0  0
  3  4  1  0  0  0  0
  4  5  1  6  0  0  0
  4  6  1  0  0  0  0
  6  8  2  0  0  0  0
  7 15  1  0  0  0  0
  7  6  1  0  0  0  0
 10  9  1  1  0  0  0
 10 12  1  0  0  0  0
 10 15  1  0  0  0  0
 13 12  1  6  0  0  0
 13 14  1  0  0  0  0
 14 16  1  6  0  0  0
 15 11  1  1  0  0  0
 15 14  1  0  0  0  0
 16 13  1  0  0  0  0
 17 22  1  6  0  0  0
 17 18  1  0  0  0  0
 17  1  1  0  0  0  0
 19 18  1  0  0  0  0
 20 19  1  0  0  0  0
 21 20  3  0  0  0  0
 23 22  1  0  0  0  0
 24 25  2  0  0  0  0
 25 29  1  0  0  0  0
 25 23  1  0  0  0  0
 26 31  1  0  0  0  0
 27 29  1  0  0  0  0
 29 26  1  0  0  0  0
 30 27  1  6  0  0  0
 30 28  1  0  0  0  0
 30 31  1  0  0  0  0
 31 28  1  6  0  0  0
M  END
>  <MODEL>
4

>  <REMARK>
 VINA RESULT:      -6.8      1.451      2.149
  Name = 
  13 active torsions:
  status: ('A' for Active; 'I' for Inactive)
    1  A    between atoms: C_1  and  C_10
    2  A    between atoms: C_1  and  C_20
    3  A    between atoms: N_3  and  C_18
    4  A    between atoms: N_3  and  C_25
    5  A    between atoms: C_10  and  C_21
    6  A    between atoms: C_13  and  C_21
    7  A    between atoms: C_13  and  C_31
    8  A    between atoms: N_14  and  C_18
    9  A    between atoms: C_15  and  C_26
   10  A    between atoms: O_16  and  C_26
   11  A    between atoms: O_16  and  C_31
   12  A    between atoms: C_23  and  N_24
   13  A    between atoms: C_25  and  C_31
                            x       y       z     vdW  Elec       q    Type
                         _______ _______ _______ _____ _____    ______ ____

>  <TORSDO>
F 13

$$$$
=
 OpenBabel11072412113D

 31 34  0  0  1  0  0  0  0  0999 V2000
  161.0270  207.2650  152.9720 C   0  0  0  0  0  2  0  0  0  0  0  0
  160.8740  207.0130  154.4660 C   0  0  0  0  0  2  0  0  0  0  0  0
  161.1750  208.2840  155.2410 C   0  0  0  0  0  2  0  0  0  0  0  0
  160.9110  209.5080  154.3780 C   0  0  2  0  0  3  0  0  0  0  0  0
  162.0240  210.3500  154.3800 O   0  0  0  0  0  1  0  0  0  0  0  0
  159.7200  210.2490  154.8860 C   0  0  0  0  0  0  0  0  0  0  0  0
  159.2490  211.3940  154.1640 N   0  0  0  0  0  2  0  0  0  0  0  0
  159.1400  209.8620  155.9370 O   0  0  0  0  0  0  0  0  0  0  0  0
  156.0070  211.2820  154.7480 O   0  0  0  0  0  1  0  0  0  0  0  0
  157.1550  211.6360  155.4630 C   0  0  2  0  0  3  0  0  0  0  0  0
  157.6050  212.9850  153.3690 C   0  0  0  0  0  1  0  0  0  0  0  0
  156.8110  212.6120  156.5680 C   0  0  0  0  0  2  0  0  0  0  0  0
  157.9290  213.6470  156.6280 C   0  0  2  0  0  3  0  0  0  0  0  0
  158.8140  213.4520  155.4530 C   0  0  2  0  0  3  0  0  0  0  0  0
  158.2130  212.3310  154.6030 C   0  0  2  0  0  0  0  0  0  0  0  0
  159.1750  213.0010  156.7410 O   0  0  0  0  0  0  0  0  0  0  0  0
  162.0570  206.3410  152.3210 C   0  0  2  0  0  3  0  0  0  0  0  0
  162.5960  206.9410  151.1780 O   0  0  0  0  0  0  0  0  0  0  0  0
  162.1260  208.2550  151.2030 C   0  0  0  0  0  2  0  0  0  0  0  0
  162.0630  208.7770  149.8370 C   0  0  0  0  0  0  0  0  0  0  0  0
  162.0140  209.1900  148.7580 N   0  0  0  0  0  0  0  0  0  0  0  0
  161.4500  204.9910  151.9730 C   0  0  0  0  0  2  0  0  0  0  0  0
  160.8240  205.0510  150.6620 N   0  0  0  0  0  2  0  0  0  0  0  0
  160.7090  202.4850  150.1020 S   0  0  0  0  0  0  0  0  0  0  0  0
  160.9410  204.0440  149.6500 C   0  0  0  0  0  0  0  0  0  0  0  0
  161.4570  205.6990  147.7680 C   0  0  0  0  0  2  0  0  0  0  0  0
  161.4550  203.3440  147.2610 C   0  0  0  0  0  2  0  0  0  0  0  0
  163.0450  204.8360  146.0460 C   0  0  0  0  0  2  0  0  0  0  0  0
  161.2850  204.3560  148.2840 N   0  0  0  0  0  0  0  0  0  0  0  0
  161.7340  204.0770  145.9580 C   0  0  2  0  0  3  0  0  0  0  0  0
  161.7350  205.5660  146.2790 C   0  0  1  0  0  3  0  0  0  0  0  0
  1  2  1  0  0  0  0
  2  3  1  0  0  0  0
  4  5  1  1  0  0  0
  4  6  1  0  0  0  0
  4  3  1  0  0  0  0
  6  8  2  0  0  0  0
  7 15  1  0  0  0  0
  7  6  1  0  0  0  0
 10  9  1  6  0  0  0
 10 12  1  0  0  0  0
 13 12  1  6  0  0  0
 13 16  1  0  0  0  0
 14 13  1  0  0  0  0
 14 16  1  1  0  0  0
 15 11  1  6  0  0  0
 15 14  1  0  0  0  0
 15 10  1  0  0  0  0
 17 22  1  6  0  0  0
 17  1  1  0  0  0  0
 18 19  1  0  0  0  0
 18 17  1  0  0  0  0
 20 19  1  0  0  0  0
 21 20  3  0  0  0  0
 23 22  1  0  0  0  0
 25 24  2  0  0  0  0
 25 23  1  0  0  0  0
 26 29  1  0  0  0  0
 27 29  1  0  0  0  0
 29 25  1  0  0  0  0
 30 28  1  1  0  0  0
 30 31  1  0  0  0  0
 30 27  1  0  0  0  0
 31 28  1  1  0  0  0
 31 26  1  0  0  0  0
M  END
>  <MODEL>
5

>  <REMARK>
 VINA RESULT:      -6.6      2.245      3.847
  Name = 
  13 active torsions:
  status: ('A' for Active; 'I' for Inactive)
    1  A    between atoms: C_1  and  C_10
    2  A    between atoms: C_1  and  C_20
    3  A    between atoms: N_3  and  C_18
    4  A    between atoms: N_3  and  C_25
    5  A    between atoms: C_10  and  C_21
    6  A    between atoms: C_13  and  C_21
    7  A    between atoms: C_13  and  C_31
    8  A    between atoms: N_14  and  C_18
    9  A    between atoms: C_15  and  C_26
   10  A    between atoms: O_16  and  C_26
   11  A    between atoms: O_16  and  C_31
   12  A    between atoms: C_23  and  N_24
   13  A    between atoms: C_25  and  C_31
                            x       y       z     vdW  Elec       q    Type
                         _______ _______ _______ _____ _____    ______ ____

>  <TORSDO>
F 13

$$$$
=
 OpenBabel11072412113D

 31 34  0  0  1  0  0  0  0  0999 V2000
  161.8470  205.7680  153.1220 C   0  0  0  0  0  2  0  0  0  0  0  0
  161.0360  204.7050  152.3910 C   0  0  0  0  0  2  0  0  0  0  0  0
  161.6020  204.4870  150.9980 C   0  0  0  0  0  2  0  0  0  0  0  0
  160.6990  203.5630  150.1960 C   0  0  2  0  0  3  0  0  0  0  0  0
  160.6490  202.3010  150.7910 O   0  0  0  0  0  1  0  0  0  0  0  0
  161.2020  203.4380  148.7970 C   0  0  0  0  0  0  0  0  0  0  0  0
  161.4120  204.6250  148.0210 N   0  0  0  0  0  2  0  0  0  0  0  0
  161.4390  202.2980  148.3140 O   0  0  0  0  0  0  0  0  0  0  0  0
  161.4160  202.5260  145.4800 O   0  0  0  0  0  1  0  0  0  0  0  0
  160.8260  203.7580  145.7770 C   0  0  2  0  0  3  0  0  0  0  0  0
  163.2060  204.3340  146.4210 C   0  0  0  0  0  1  0  0  0  0  0  0
  160.5040  204.5120  144.5040 C   0  0  0  0  0  2  0  0  0  0  0  0
  160.8270  205.9810  144.7480 C   0  0  2  0  0  3  0  0  0  0  0  0
  161.5400  206.0970  146.0450 C   0  0  2  0  0  3  0  0  0  0  0  0
  161.7330  204.6820  146.5940 C   0  0  2  0  0  0  0  0  0  0  0  0
  160.1750  206.4290  145.9130 O   0  0  0  0  0  0  0  0  0  0  0  0
  161.1300  207.1170  153.1800 C   0  0  2  0  0  3  0  0  0  0  0  0
  161.7740  208.0470  152.3580 O   0  0  0  0  0  0  0  0  0  0  0  0
  160.9660  208.1500  151.2250 C   0  0  0  0  0  2  0  0  0  0  0  0
  161.7870  208.0000  150.0230 C   0  0  0  0  0  0  0  0  0  0  0  0
  162.4360  207.8820  149.0730 N   0  0  0  0  0  0  0  0  0  0  0  0
  161.0490  207.6400  154.6060 C   0  0  0  0  0  2  0  0  0  0  0  0
  161.2020  209.0860  154.6140 N   0  0  0  0  0  2  0  0  0  0  0  0
  160.0360  210.0000  156.7860 S   0  0  0  0  0  0  0  0  0  0  0  0
  160.2520  210.0090  155.1620 C   0  0  0  0  0  0  0  0  0  0  0  0
  158.2860  211.6020  154.7770 C   0  0  0  0  0  2  0  0  0  0  0  0
  159.7810  211.1530  152.9410 C   0  0  0  0  0  2  0  0  0  0  0  0
  158.7410  213.4150  153.1220 C   0  0  0  0  0  2  0  0  0  0  0  0
  159.4750  210.8990  154.3350 N   0  0  0  0  0  0  0  0  0  0  0  0
  158.6930  212.0750  152.4120 C   0  0  2  0  0  3  0  0  0  0  0  0
  157.7490  212.3580  153.5730 C   0  0  1  0  0  3  0  0  0  0  0  0
  2  1  1  0  0  0  0
  3  2  1  0  0  0  0
  4  5  1  1  0  0  0
  4  3  1  0  0  0  0
  6  4  1  0  0  0  0
  7  6  1  0  0  0  0
  8  6  2  0  0  0  0
 10  9  1  6  0  0  0
 10 15  1  0  0  0  0
 12 10  1  0  0  0  0
 13 12  1  1  0  0  0
 13 16  1  0  0  0  0
 13 14  1  0  0  0  0
 14 16  1  1  0  0  0
 14 15  1  0  0  0  0
 15 11  1  6  0  0  0
 15  7  1  0  0  0  0
 17  1  1  1  0  0  0
 17 22  1  0  0  0  0
 18 17  1  0  0  0  0
 19 18  1  0  0  0  0
 20 19  1  0  0  0  0
 21 20  3  0  0  0  0
 22 23  1  0  0  0  0
 23 25  1  0  0  0  0
 25 24  2  0  0  0  0
 27 29  1  0  0  0  0
 29 26  1  0  0  0  0
 29 25  1  0  0  0  0
 30 27  1  1  0  0  0
 30 28  1  0  0  0  0
 30 31  1  0  0  0  0
 31 28  1  1  0  0  0
 31 26  1  0  0  0  0
M  END
>  <MODEL>
6

>  <REMARK>
 VINA RESULT:      -6.6      3.572      9.226
  Name = 
  13 active torsions:
  status: ('A' for Active; 'I' for Inactive)
    1  A    between atoms: C_1  and  C_10
    2  A    between atoms: C_1  and  C_20
    3  A    between atoms: N_3  and  C_18
    4  A    between atoms: N_3  and  C_25
    5  A    between atoms: C_10  and  C_21
    6  A    between atoms: C_13  and  C_21
    7  A    between atoms: C_13  and  C_31
    8  A    between atoms: N_14  and  C_18
    9  A    between atoms: C_15  and  C_26
   10  A    between atoms: O_16  and  C_26
   11  A    between atoms: O_16  and  C_31
   12  A    between atoms: C_23  and  N_24
   13  A    between atoms: C_25  and  C_31
                            x       y       z     vdW  Elec       q    Type
                         _______ _______ _______ _____ _____    ______ ____

>  <TORSDO>
F 13

$$$$
=
 OpenBabel11072412113D

 31 34  0  0  1  0  0  0  0  0999 V2000
  161.2070  207.5520  150.1460 C   0  0  0  0  0  2  0  0  0  0  0  0
  161.7850  207.6810  151.5490 C   0  0  0  0  0  2  0  0  0  0  0  0
  160.9200  208.6110  152.3840 C   0  0  0  0  0  2  0  0  0  0  0  0
  161.1100  208.3270  153.8650 C   0  0  2  0  0  3  0  0  0  0  0  0
  160.7870  206.9990  154.1490 O   0  0  0  0  0  1  0  0  0  0  0  0
  160.2510  209.2370  154.6790 C   0  0  0  0  0  0  0  0  0  0  0  0
  159.6750  210.3930  154.0590 N   0  0  0  0  0  2  0  0  0  0  0  0
  160.0390  208.9790  155.8950 O   0  0  0  0  0  0  0  0  0  0  0  0
  159.8520  211.9300  156.9700 O   0  0  0  0  0  1  0  0  0  0  0  0
  159.8930  212.3010  155.6230 C   0  0  2  0  0  3  0  0  0  0  0  0
  157.8140  210.8600  155.5360 C   0  0  0  0  0  1  0  0  0  0  0  0
  159.4550  213.7410  155.4560 C   0  0  0  0  0  2  0  0  0  0  0  0
  158.6020  213.8170  154.1960 C   0  0  2  0  0  3  0  0  0  0  0  0
  158.3310  212.4350  153.7270 C   0  0  2  0  0  3  0  0  0  0  0  0
  158.9570  211.4740  154.7380 C   0  0  2  0  0  0  0  0  0  0  0  0
  159.3000  213.2550  153.1090 O   0  0  0  0  0  0  0  0  0  0  0  0
  162.1420  208.1080  149.0710 C   0  0  2  0  0  3  0  0  0  0  0  0
  161.5960  209.2610  148.4990 O   0  0  0  0  0  0  0  0  0  0  0  0
  162.2670  210.3220  149.1090 C   0  0  0  0  0  2  0  0  0  0  0  0
  161.9770  211.5630  148.3900 C   0  0  0  0  0  0  0  0  0  0  0  0
  161.7470  212.5430  147.8200 N   0  0  0  0  0  0  0  0  0  0  0  0
  162.4310  207.0700  147.9980 C   0  0  0  0  0  2  0  0  0  0  0  0
  161.3660  206.0800  147.9650 N   0  0  0  0  0  2  0  0  0  0  0  0
  161.9140  204.5990  145.8630 S   0  0  0  0  0  0  0  0  0  0  0  0
  161.4950  204.7530  147.4400 C   0  0  0  0  0  0  0  0  0  0  0  0
  160.9890  203.5930  149.6650 C   0  0  0  0  0  2  0  0  0  0  0  0
  161.2340  202.2370  147.6880 C   0  0  0  0  0  2  0  0  0  0  0  0
  159.6230  201.5140  149.4530 C   0  0  0  0  0  2  0  0  0  0  0  0
  161.2350  203.5790  148.2360 N   0  0  0  0  0  0  0  0  0  0  0  0
  160.9970  201.2860  148.8510 C   0  0  2  0  0  3  0  0  0  0  0  0
  160.8430  202.1440  150.1000 C   0  0  1  0  0  3  0  0  0  0  0  0
  1  2  1  0  0  0  0
  2  3  1  0  0  0  0
  3  4  1  0  0  0  0
  4  5  1  6  0  0  0
  4  6  1  0  0  0  0
  6  8  2  0  0  0  0
  7  6  1  0  0  0  0
  7 15  1  0  0  0  0
 10  9  1  1  0  0  0
 12 10  1  0  0  0  0
 13 12  1  1  0  0  0
 14 16  1  6  0  0  0
 14 13  1  0  0  0  0
 14 15  1  0  0  0  0
 15 11  1  1  0  0  0
 15 10  1  0  0  0  0
 16 13  1  0  0  0  0
 17 22  1  6  0  0  0
 17  1  1  0  0  0  0
 18 17  1  0  0  0  0
 18 19  1  0  0  0  0
 20 19  1  0  0  0  0
 21 20  3  0  0  0  0
 23 22  1  0  0  0  0
 24 25  2  0  0  0  0
 25 23  1  0  0  0  0
 25 29  1  0  0  0  0
 26 31  1  0  0  0  0
 27 29  1  0  0  0  0
 29 26  1  0  0  0  0
 30 27  1  6  0  0  0
 30 28  1  0  0  0  0
 30 31  1  0  0  0  0
 31 28  1  6  0  0  0
M  END
>  <MODEL>
7

>  <REMARK>
 VINA RESULT:      -6.5      1.391      1.734
  Name = 
  13 active torsions:
  status: ('A' for Active; 'I' for Inactive)
    1  A    between atoms: C_1  and  C_10
    2  A    between atoms: C_1  and  C_20
    3  A    between atoms: N_3  and  C_18
    4  A    between atoms: N_3  and  C_25
    5  A    between atoms: C_10  and  C_21
    6  A    between atoms: C_13  and  C_21
    7  A    between atoms: C_13  and  C_31
    8  A    between atoms: N_14  and  C_18
    9  A    between atoms: C_15  and  C_26
   10  A    between atoms: O_16  and  C_26
   11  A    between atoms: O_16  and  C_31
   12  A    between atoms: C_23  and  N_24
   13  A    between atoms: C_25  and  C_31
                            x       y       z     vdW  Elec       q    Type
                         _______ _______ _______ _____ _____    ______ ____

>  <TORSDO>
F 13

$$$$
=
 OpenBabel11072412113D

 31 34  0  0  1  0  0  0  0  0999 V2000
  161.2160  204.7660  152.4760 C   0  0  0  0  0  2  0  0  0  0  0  0
  160.6750  204.4410  151.0900 C   0  0  0  0  0  2  0  0  0  0  0  0
  161.1510  203.0650  150.6550 C   0  0  0  0  0  2  0  0  0  0  0  0
  160.4510  202.6410  149.3740 C   0  0  2  0  0  3  0  0  0  0  0  0
  160.5020  201.2530  149.2320 O   0  0  0  0  0  1  0  0  0  0  0  0
  161.0960  203.2890  148.1950 C   0  0  0  0  0  0  0  0  0  0  0  0
  161.2510  204.7140  148.1790 N   0  0  0  0  0  2  0  0  0  0  0  0
  161.5000  202.5820  147.2330 O   0  0  0  0  0  0  0  0  0  0  0  0
  163.7970  204.7050  146.0850 O   0  0  0  0  0  1  0  0  0  0  0  0
  162.4030  204.6700  145.9870 C   0  0  2  0  0  3  0  0  0  0  0  0
  162.6030  206.6300  147.5760 C   0  0  0  0  0  1  0  0  0  0  0  0
  161.9520  205.2140  144.6480 C   0  0  0  0  0  2  0  0  0  0  0  0
  160.7000  206.0480  144.8920 C   0  0  2  0  0  3  0  0  0  0  0  0
  160.5160  206.2050  146.3560 C   0  0  2  0  0  3  0  0  0  0  0  0
  161.7000  205.5240  147.0450 C   0  0  2  0  0  0  0  0  0  0  0  0
  159.7490  205.2910  145.6020 O   0  0  0  0  0  0  0  0  0  0  0  0
  161.9680  206.0960  152.5180 C   0  0  2  0  0  3  0  0  0  0  0  0
  161.9530  206.6240  153.8130 O   0  0  0  0  0  0  0  0  0  0  0  0
  160.6020  206.7130  154.1530 C   0  0  0  0  0  2  0  0  0  0  0  0
  160.4740  207.2150  155.5210 C   0  0  0  0  0  0  0  0  0  0  0  0
  160.3720  207.6120  156.6030 N   0  0  0  0  0  0  0  0  0  0  0  0
  161.3810  207.0950  151.5330 C   0  0  0  0  0  2  0  0  0  0  0  0
  162.2680  208.2390  151.3970 N   0  0  0  0  0  2  0  0  0  0  0  0
  162.0140  210.3670  149.8740 S   0  0  0  0  0  0  0  0  0  0  0  0
  161.8410  209.6050  151.3150 C   0  0  0  0  0  0  0  0  0  0  0  0
  160.2010  211.2510  152.3880 C   0  0  0  0  0  2  0  0  0  0  0  0
  161.8650  210.2080  153.7840 C   0  0  0  0  0  2  0  0  0  0  0  0
  159.6280  210.7320  154.7610 C   0  0  0  0  0  2  0  0  0  0  0  0
  161.3100  210.3190  152.4490 N   0  0  0  0  0  0  0  0  0  0  0  0
  161.0790  211.1630  154.6680 C   0  0  2  0  0  3  0  0  0  0  0  0
  160.0290  211.8230  153.7850 C   0  0  1  0  0  3  0  0  0  0  0  0
  1 17  1  0  0  0  0
  2  1  1  0  0  0  0
  3  2  1  0  0  0  0
  4  5  1  6  0  0  0
  4  3  1  0  0  0  0
  6  4  1  0  0  0  0
  7  6  1  0  0  0  0
  8  6  2  0  0  0  0
 10  9  1  6  0  0  0
 10 15  1  0  0  0  0
 12 10  1  0  0  0  0
 13 12  1  1  0  0  0
 13 16  1  0  0  0  0
 13 14  1  0  0  0  0
 14 16  1  1  0  0  0
 14 15  1  0  0  0  0
 15 11  1  1  0  0  0
 15  7  1  0  0  0  0
 17 22  1  6  0  0  0
 17 18  1  0  0  0  0
 18 19  1  0  0  0  0
 19 20  1  0  0  0  0
 20 21  3  0  0  0  0
 23 22  1  0  0  0  0
 24 25  2  0  0  0  0
 25 23  1  0  0  0  0
 25 29  1  0  0  0  0
 26 29  1  0  0  0  0
 29 27  1  0  0  0  0
 30 27  1  6  0  0  0
 30 28  1  0  0  0  0
 31 26  1  6  0  0  0
 31 30  1  0  0  0  0
 31 28  1  0  0  0  0
M  END
>  <MODEL>
8

>  <REMARK>
 VINA RESULT:      -6.5      3.054      8.747
  Name = 
  13 active torsions:
  status: ('A' for Active; 'I' for Inactive)
    1  A    between atoms: C_1  and  C_10
    2  A    between atoms: C_1  and  C_20
    3  A    between atoms: N_3  and  C_18
    4  A    between atoms: N_3  and  C_25
    5  A    between atoms: C_10  and  C_21
    6  A    between atoms: C_13  and  C_21
    7  A    between atoms: C_13  and  C_31
    8  A    between atoms: N_14  and  C_18
    9  A    between atoms: C_15  and  C_26
   10  A    between atoms: O_16  and  C_26
   11  A    between atoms: O_16  and  C_31
   12  A    between atoms: C_23  and  N_24
   13  A    between atoms: C_25  and  C_31
                            x       y       z     vdW  Elec       q    Type
                         _______ _______ _______ _____ _____    ______ ____

>  <TORSDO>
F 13

$$$$
=
 OpenBabel11072412113D

 31 34  0  0  1  0  0  0  0  0999 V2000
  160.4170  206.1980  149.5620 C   0  0  0  0  0  2  0  0  0  0  0  0
  160.7570  204.8620  150.2100 C   0  0  0  0  0  2  0  0  0  0  0  0
  161.0510  205.0610  151.6880 C   0  0  0  0  0  2  0  0  0  0  0  0
  161.5430  206.4750  151.9460 C   0  0  2  0  0  3  0  0  0  0  0  0
  162.9330  206.5340  151.8240 O   0  0  0  0  0  1  0  0  0  0  0  0
  161.1400  206.9200  153.3120 C   0  0  0  0  0  0  0  0  0  0  0  0
  160.8140  208.2980  153.5310 N   0  0  0  0  0  2  0  0  0  0  0  0
  161.0870  206.0840  154.2540 O   0  0  0  0  0  0  0  0  0  0  0  0
  162.0740  208.1150  156.5710 O   0  0  0  0  0  1  0  0  0  0  0  0
  161.8650  209.1160  155.6190 C   0  0  2  0  0  3  0  0  0  0  0  0
  159.5480  208.0980  155.5850 C   0  0  0  0  0  1  0  0  0  0  0  0
  161.7570  210.4700  156.2880 C   0  0  0  0  0  2  0  0  0  0  0  0
  160.6600  211.2480  155.5710 C   0  0  2  0  0  3  0  0  0  0  0  0
  159.9580  210.3270  154.6430 C   0  0  2  0  0  3  0  0  0  0  0  0
  160.5680  208.9360  154.8260 C   0  0  2  0  0  0  0  0  0  0  0  0
  160.9090  211.2630  154.1850 O   0  0  0  0  0  0  0  0  0  0  0  0
  161.1970  206.4410  148.2700 C   0  0  2  0  0  3  0  0  0  0  0  0
  161.8140  205.2600  147.8440 O   0  0  0  0  0  0  0  0  0  0  0  0
  162.4240  205.5870  146.6320 C   0  0  0  0  0  2  0  0  0  0  0  0
  161.5460  205.2070  145.5250 C   0  0  0  0  0  0  0  0  0  0  0  0
  160.8520  204.9070  144.6500 N   0  0  0  0  0  0  0  0  0  0  0  0
  162.2290  207.5440  148.4450 C   0  0  0  0  0  2  0  0  0  0  0  0
  161.6200  208.8390  148.1880 N   0  0  0  0  0  2  0  0  0  0  0  0
  162.1770  209.9230  150.5180 S   0  0  0  0  0  0  0  0  0  0  0  0
  161.9210  210.0440  148.9040 C   0  0  0  0  0  0  0  0  0  0  0  0
  160.8550  211.9360  147.5500 C   0  0  0  0  0  2  0  0  0  0  0  0
  163.1590  212.1570  148.2210 C   0  0  0  0  0  2  0  0  0  0  0  0
  161.7420  214.2080  148.0830 C   0  0  0  0  0  2  0  0  0  0  0  0
  161.9660  211.3340  148.2610 N   0  0  0  0  0  0  0  0  0  0  0  0
  162.8180  213.3870  147.3960 C   0  0  2  0  0  3  0  0  0  0  0  0
  161.3620  213.2470  146.9720 C   0  0  1  0  0  3  0  0  0  0  0  0
  1  2  1  0  0  0  0
  2  3  1  0  0  0  0
  3  4  1  0  0  0  0
  4  5  1  1  0  0  0
  4  6  1  0  0  0  0
  6  7  1  0  0  0  0
  6  8  2  0  0  0  0
  7 15  1  0  0  0  0
 10 12  1  0  0  0  0
 10  9  1  1  0  0  0
 13 12  1  1  0  0  0
 14 16  1  6  0  0  0
 14 15  1  0  0  0  0
 14 13  1  0  0  0  0
 15 11  1  1  0  0  0
 15 10  1  0  0  0  0
 16 13  1  0  0  0  0
 17 22  1  1  0  0  0
 17  1  1  0  0  0  0
 18 17  1  0  0  0  0
 19 18  1  0  0  0  0
 20 19  1  0  0  0  0
 21 20  3  0  0  0  0
 23 22  1  0  0  0  0
 23 25  1  0  0  0  0
 25 24  2  0  0  0  0
 26 29  1  0  0  0  0
 27 29  1  0  0  0  0
 29 25  1  0  0  0  0
 30 28  1  1  0  0  0
 30 27  1  0  0  0  0
 31 30  1  0  0  0  0
 31 26  1  1  0  0  0
 31 28  1  0  0  0  0
M  END
>  <MODEL>
9

>  <REMARK>
 VINA RESULT:      -6.4      2.480      5.743
  Name = 
  13 active torsions:
  status: ('A' for Active; 'I' for Inactive)
    1  A    between atoms: C_1  and  C_10
    2  A    between atoms: C_1  and  C_20
    3  A    between atoms: N_3  and  C_18
    4  A    between atoms: N_3  and  C_25
    5  A    between atoms: C_10  and  C_21
    6  A    between atoms: C_13  and  C_21
    7  A    between atoms: C_13  and  C_31
    8  A    between atoms: N_14  and  C_18
    9  A    between atoms: C_15  and  C_26
   10  A    between atoms: O_16  and  C_26
   11  A    between atoms: O_16  and  C_31
   12  A    between atoms: C_23  and  N_24
   13  A    between atoms: C_25  and  C_31
                            x       y       z     vdW  Elec       q    Type
                         _______ _______ _______ _____ _____    ______ ____

>  <TORSDO>
F 13

$$$$
