=
 OpenBabel11072412083D

 50 54  0  0  1  0  0  0  0  0999 V2000
  160.1720  211.4330  153.2610 C   0  0  1  0  0  3  0  0  0  0  0  0
  158.7580  213.2740  153.9940 O   0  0  0  0  0  0  0  0  0  0  0  0
  159.9060  212.9450  153.2030 C   0  0  2  0  0  3  0  0  0  0  0  0
  157.2670  213.4310  152.1510 C   0  0  0  0  0  3  0  0  0  0  0  0
  160.7120  213.7430  151.0990 O   0  0  0  0  0  0  0  0  0  0  0  0
  157.0110  214.1160  149.4540 O   0  0  0  0  0  0  0  0  0  0  0  0
  158.1170  213.6460  149.8380 C   0  0  0  0  0  0  0  0  0  0  0  0
  159.7110  213.4080  151.7860 C   0  0  0  0  0  0  0  0  0  0  0  0
  158.3780  213.4760  151.2440 N   0  0  0  0  0  0  0  0  0  0  0  0
  157.4630  213.3510  153.4670 C   0  0  0  0  0  3  0  0  0  0  0  0
  159.1220  213.2370  148.8050 C   0  0  0  0  0  2  0  0  0  0  0  0
  157.3570  212.5170  147.2870 C   0  0  0  0  0  2  0  0  0  0  0  0
  158.4960  213.1810  147.4540 C   0  0  0  0  0  0  0  0  0  0  0  0
  159.0880  213.9240  146.3810 N   0  0  0  0  0  2  0  0  0  0  0  0
  159.6260  214.2130  144.1070 N   0  0  0  0  0  2  0  0  0  0  0  0
  159.0680  213.4910  145.0210 C   0  0  0  0  0  3  0  0  0  0  0  0
  159.1240  210.6950  154.0900 C   0  0  0  0  0  2  0  0  0  0  0  0
  159.7400  210.1170  155.3550 C   0  0  1  0  0  3  0  0  0  0  0  0
  161.2960  205.2750  153.6880 C   0  0  0  0  0  1  0  0  0  0  0  0
  159.7560  207.6300  156.0380 C   0  0  0  0  0  3  0  0  0  0  0  0
  160.7630  206.4670  154.3990 C   0  0  0  0  0  0  0  0  0  0  0  0
  160.1540  206.4040  155.6010 N   0  0  0  0  0  0  0  0  0  0  0  0
  160.8410  208.0390  153.8140 S   0  0  0  0  0  0  0  0  0  0  0  0
  160.0610  208.6700  155.1630 C   0  0  0  0  0  0  0  0  0  0  0  0
  161.2320  211.0480  155.8410 P   0  0  1  0  0  0  0  0  0  0  0  0
  162.2320  211.0380  154.7070 O   0  0  0  0  0  0  0  0  0  0  0  0
  160.8020  212.6460  156.1960 O   0  0  0  0  0  1  0  0  0  0  0  0
  161.9430  210.3040  157.2610 N   0  0  0  0  0  2  0  0  0  0  0  0
  163.3630  210.6060  157.2430 C   0  0  0  0  0  1  0  0  0  0  0  0
  160.2870  210.7990  151.8710 C   0  0  0  0  0  2  0  0  0  0  0  0
  162.8250  206.9260  148.1320 C   0  0  0  0  0  3  0  0  0  0  0  0
  162.2650  211.0420  147.9220 C   0  0  0  0  0  1  0  0  0  0  0  0
  162.3400  210.7280  150.4080 C   0  0  0  0  0  2  0  0  0  0  0  0
  162.7700  208.1750  148.6170 C   0  0  0  0  0  3  0  0  0  0  0  0
  161.4660  208.8570  148.9330 C   0  0  1  0  0  3  0  0  0  0  0  0
  161.6390  210.1200  151.6230 C   0  0  2  0  0  3  0  0  0  0  0  0
  161.6270  206.0630  147.7700 C   0  0  2  0  0  3  0  0  0  0  0  0
  160.7800  208.2220  150.1650 C   0  0  1  0  0  3  0  0  0  0  0  0
  160.6830  206.6950  150.0850 C   0  0  0  0  0  2  0  0  0  0  0  0
  161.6040  210.3760  149.1160 C   0  0  2  0  0  3  0  0  0  0  0  0
  160.3780  206.2230  148.6670 C   0  0  0  0  0  2  0  0  0  0  0  0
  161.4960  208.6040  151.4650 C   0  0  0  0  0  2  0  0  0  0  0  0
  162.0360  204.5910  147.6490 C   0  0  2  0  0  3  0  0  0  0  0  0
  160.7320  202.5790  147.9420 C   0  0  2  0  0  3  0  0  0  0  0  0
  161.2240  202.6100  146.5720 N   0  0  0  0  0  2  0  0  0  0  0  0
  161.5880  203.9950  146.3280 C   0  0  0  0  0  2  0  0  0  0  0  0
  161.3600  203.7330  148.6980 C   0  0  0  0  0  2  0  0  0  0  0  0
  161.0770  201.2780  148.5840 C   0  0  0  0  0  0  0  0  0  0  0  0
  161.5820  200.3560  147.8930 O   0  0  0  0  0  0  0  0  0  0  0  0
  160.8540  201.0800  149.9410 O   0  0  0  0  0  1  0  0  0  0  0  0
  1 30  1  6  0  0  0
  1 17  1  0  0  0  0
  3  1  1  6  0  0  0
  3  2  1  0  0  0  0
  4 10  2  0  0  0  0
  5  8  2  0  0  0  0
  6  7  2  0  0  0  0
  7  9  1  0  0  0  0
  8  3  1  0  0  0  0
  9  8  1  0  0  0  0
  9  4  1  0  0  0  0
 10  2  1  0  0  0  0
 11  7  1  0  0  0  0
 12 13  2  0  0  0  0
 13 11  1  0  0  0  0
 14 13  1  0  0  0  0
 15 16  2  0  0  0  0
 16 14  1  0  0  0  0
 18 17  1  6  0  0  0
 18 25  1  0  0  0  0
 19 21  1  0  0  0  0
 21 22  2  0  0  0  0
 22 20  1  0  0  0  0
 23 21  1  0  0  0  0
 23 24  1  0  0  0  0
 24 18  1  0  0  0  0
 24 20  2  0  0  0  0
 25 26  2  6  0  0  0
 25 27  1  0  0  0  0
 25 28  1  0  0  0  0
 29 28  1  0  0  0  0
 31 34  2  0  0  0  0
 33 36  1  0  0  0  0
 35 34  1  1  0  0  0
 35 40  1  0  0  0  0
 35 38  1  0  0  0  0
 36 30  1  6  0  0  0
 37 31  1  1  0  0  0
 37 41  1  0  0  0  0
 38 39  1  6  0  0  0
 38 42  1  0  0  0  0
 40 32  1  6  0  0  0
 40 33  1  0  0  0  0
 41 39  1  0  0  0  0
 42 36  1  0  0  0  0
 43 46  1  6  0  0  0
 43 37  1  0  0  0  0
 43 47  1  0  0  0  0
 44 48  1  1  0  0  0
 44 47  1  0  0  0  0
 45 44  1  0  0  0  0
 46 45  1  0  0  0  0
 48 50  1  0  0  0  0
 49 48  2  0  0  0  0
M  END
>  <MODEL>
1

>  <REMARK>
 VINA RESULT:      -5.8      0.000      0.000
  Name = 
  13 active torsions:
  status: ('A' for Active; 'I' for Inactive)
    1  A    between atoms: C_2  and  C_35
    2  A    between atoms: C_4  and  C_20
    3  A    between atoms: C_5  and  CA_13
    4  A    between atoms: P_8  and  N_9
    5  A    between atoms: P_8  and  C_17
    6  A    between atoms: N_14  and  C_47
    7  A    between atoms: C_17  and  C_28
    8  A    between atoms: C_17  and  C_38
    9  A    between atoms: C_20  and  C_28
   10  A    between atoms: C_20  and  C_37
   11  A    between atoms: C_26  and  C_32
   12  A    between atoms: C_31  and  C_37
   13  A    between atoms: C_32  and  C_47
                            x       y       z     vdW  Elec       q    Type
                         _______ _______ _______ _____ _____    ______ ____

>  <TORSDO>
F 13

$$$$
=
 OpenBabel11072412083D

 50 54  0  0  1  0  0  0  0  0999 V2000
  160.4470  211.6330  152.9090 C   0  0  1  0  0  3  0  0  0  0  0  0
  161.2370  211.0840  155.1450 O   0  0  0  0  0  0  0  0  0  0  0  0
  160.8080  212.1630  154.3050 C   0  0  2  0  0  3  0  0  0  0  0  0
  159.1660  210.8700  156.2910 C   0  0  0  0  0  3  0  0  0  0  0  0
  159.4790  214.1080  154.7110 O   0  0  0  0  0  0  0  0  0  0  0  0
  156.9240  212.2300  157.2580 O   0  0  0  0  0  0  0  0  0  0  0  0
  157.4740  212.6740  156.2130 C   0  0  0  0  0  0  0  0  0  0  0  0
  159.6440  212.8790  154.9330 C   0  0  0  0  0  0  0  0  0  0  0  0
  158.7460  212.1490  155.7910 N   0  0  0  0  0  0  0  0  0  0  0  0
  160.3670  210.3800  155.9870 C   0  0  0  0  0  3  0  0  0  0  0  0
  156.7590  213.7180  155.4120 C   0  0  0  0  0  2  0  0  0  0  0  0
  154.7020  213.8740  154.1140 C   0  0  0  0  0  2  0  0  0  0  0  0
  155.6730  213.1040  154.5950 C   0  0  0  0  0  0  0  0  0  0  0  0
  155.7490  211.7120  154.2690 N   0  0  0  0  0  2  0  0  0  0  0  0
  155.2540  209.4500  154.6970 N   0  0  0  0  0  2  0  0  0  0  0  0
  155.1390  210.6860  155.0520 C   0  0  0  0  0  3  0  0  0  0  0  0
  160.7030  212.6670  151.8160 C   0  0  0  0  0  2  0  0  0  0  0  0
  159.8160  212.4110  150.6070 C   0  0  1  0  0  3  0  0  0  0  0  0
  154.8820  214.4450  150.1990 C   0  0  0  0  0  1  0  0  0  0  0  0
  158.1310  213.9410  151.8200 C   0  0  0  0  0  3  0  0  0  0  0  0
  156.2610  214.0370  150.5770 C   0  0  0  0  0  0  0  0  0  0  0  0
  156.8760  214.4530  151.7030 N   0  0  0  0  0  0  0  0  0  0  0  0
  157.2350  213.0140  149.6690 S   0  0  0  0  0  0  0  0  0  0  0  0
  158.5030  213.1070  150.7680 C   0  0  0  0  0  0  0  0  0  0  0  0
  160.6390  212.9400  149.0670 P   0  0  1  0  0  0  0  0  0  0  0  0
  159.6040  213.4140  148.0710 O   0  0  0  0  0  0  0  0  0  0  0  0
  161.7080  214.2050  149.4110 O   0  0  0  0  0  1  0  0  0  0  0  0
  161.5290  211.5880  148.3910 N   0  0  0  0  0  2  0  0  0  0  0  0
  162.9430  211.8910  148.5220 C   0  0  0  0  0  1  0  0  0  0  0  0
  161.1620  210.3200  152.5710 C   0  0  0  0  0  2  0  0  0  0  0  0
  161.0700  205.0650  149.7800 C   0  0  0  0  0  3  0  0  0  0  0  0
  162.2300  206.1590  153.6210 C   0  0  0  0  0  1  0  0  0  0  0  0
  160.5380  207.9450  153.1410 C   0  0  0  0  0  2  0  0  0  0  0  0
  160.9840  205.7480  150.9310 C   0  0  0  0  0  3  0  0  0  0  0  0
  161.8670  206.9300  151.2320 C   0  0  1  0  0  3  0  0  0  0  0  0
  160.2010  209.1630  152.2810 C   0  0  2  0  0  3  0  0  0  0  0  0
  162.0790  205.3220  148.6720 C   0  0  2  0  0  3  0  0  0  0  0  0
  161.5030  208.1450  150.3480 C   0  0  1  0  0  3  0  0  0  0  0  0
  161.4030  207.8030  148.8580 C   0  0  0  0  0  2  0  0  0  0  0  0
  161.8680  207.3240  152.7160 C   0  0  2  0  0  3  0  0  0  0  0  0
  162.4710  206.7990  148.4370 C   0  0  0  0  0  2  0  0  0  0  0  0
  160.1870  208.7910  150.7950 C   0  0  0  0  0  2  0  0  0  0  0  0
  161.6310  204.6540  147.3660 C   0  0  2  0  0  3  0  0  0  0  0  0
  162.0920  205.2480  145.0720 C   0  0  2  0  0  3  0  0  0  0  0  0
  162.6350  203.9200  145.3180 N   0  0  0  0  0  2  0  0  0  0  0  0
  162.7400  203.8120  146.7630 C   0  0  0  0  0  2  0  0  0  0  0  0
  161.3080  205.6760  146.2970 C   0  0  0  0  0  2  0  0  0  0  0  0
  161.2170  205.2310  143.8640 C   0  0  0  0  0  0  0  0  0  0  0  0
  160.1690  204.5340  143.8640 O   0  0  0  0  0  1  0  0  0  0  0  0
  161.5430  205.9860  142.7450 O   0  0  0  0  0  0  0  0  0  0  0  0
  1 17  1  6  0  0  0
  2 10  1  0  0  0  0
  3  1  1  6  0  0  0
  3  8  1  0  0  0  0
  3  2  1  0  0  0  0
  5  8  2  0  0  0  0
  7  6  2  0  0  0  0
  8  9  1  0  0  0  0
  9  7  1  0  0  0  0
  9  4  1  0  0  0  0
 10  4  2  0  0  0  0
 11  7  1  0  0  0  0
 12 13  2  0  0  0  0
 13 11  1  0  0  0  0
 14 13  1  0  0  0  0
 14 16  1  0  0  0  0
 15 16  2  0  0  0  0
 18 24  1  0  0  0  0
 18 17  1  1  0  0  0
 19 21  1  0  0  0  0
 21 22  2  0  0  0  0
 22 20  1  0  0  0  0
 23 21  1  0  0  0  0
 23 24  1  0  0  0  0
 24 20  2  0  0  0  0
 25 26  2  6  0  0  0
 25 27  1  0  0  0  0
 25 18  1  0  0  0  0
 28 29  1  0  0  0  0
 28 25  1  0  0  0  0
 30  1  1  0  0  0  0
 31 34  2  0  0  0  0
 35 34  1  1  0  0  0
 35 40  1  0  0  0  0
 36 30  1  6  0  0  0
 36 33  1  0  0  0  0
 37 41  1  6  0  0  0
 37 31  1  0  0  0  0
 38 39  1  6  0  0  0
 38 42  1  0  0  0  0
 38 35  1  0  0  0  0
 40 33  1  0  0  0  0
 40 32  1  1  0  0  0
 41 39  1  0  0  0  0
 42 36  1  0  0  0  0
 43 47  1  6  0  0  0
 43 37  1  0  0  0  0
 44 48  1  6  0  0  0
 44 45  1  0  0  0  0
 44 47  1  0  0  0  0
 45 46  1  0  0  0  0
 46 43  1  0  0  0  0
 49 48  1  0  0  0  0
 50 48  2  0  0  0  0
M  END
>  <MODEL>
2

>  <REMARK>
 VINA RESULT:      -4.9      3.036      6.167
  Name = 
  13 active torsions:
  status: ('A' for Active; 'I' for Inactive)
    1  A    between atoms: C_2  and  C_35
    2  A    between atoms: C_4  and  C_20
    3  A    between atoms: C_5  and  CA_13
    4  A    between atoms: P_8  and  N_9
    5  A    between atoms: P_8  and  C_17
    6  A    between atoms: N_14  and  C_47
    7  A    between atoms: C_17  and  C_28
    8  A    between atoms: C_17  and  C_38
    9  A    between atoms: C_20  and  C_28
   10  A    between atoms: C_20  and  C_37
   11  A    between atoms: C_26  and  C_32
   12  A    between atoms: C_31  and  C_37
   13  A    between atoms: C_32  and  C_47
                            x       y       z     vdW  Elec       q    Type
                         _______ _______ _______ _____ _____    ______ ____

>  <TORSDO>
F 13

$$$$
=
 OpenBabel11072412083D

 50 54  0  0  1  0  0  0  0  0999 V2000
  160.2900  213.0030  152.1260 C   0  0  1  0  0  3  0  0  0  0  0  0
  158.2180  214.2120  151.7100 O   0  0  0  0  0  0  0  0  0  0  0  0
  159.5960  214.1150  151.3260 C   0  0  2  0  0  3  0  0  0  0  0  0
  157.3900  213.0120  149.8330 C   0  0  0  0  0  3  0  0  0  0  0  0
  160.7120  214.3030  149.2210 O   0  0  0  0  0  0  0  0  0  0  0  0
  157.7690  212.4350  147.1250 O   0  0  0  0  0  0  0  0  0  0  0  0
  158.7940  212.6570  147.8270 C   0  0  0  0  0  0  0  0  0  0  0  0
  159.7070  213.8730  149.8460 C   0  0  0  0  0  0  0  0  0  0  0  0
  158.6530  213.1650  149.1670 N   0  0  0  0  0  0  0  0  0  0  0  0
  157.1910  213.5320  151.0440 C   0  0  0  0  0  3  0  0  0  0  0  0
  160.1410  212.3440  147.2520 C   0  0  0  0  0  2  0  0  0  0  0  0
  160.7400  214.1580  145.7380 C   0  0  0  0  0  2  0  0  0  0  0  0
  160.2770  212.9200  145.8840 C   0  0  0  0  0  0  0  0  0  0  0  0
  159.9940  212.0930  144.7490 N   0  0  0  0  0  2  0  0  0  0  0  0
  160.2800  211.5070  142.4860 N   0  0  0  0  0  2  0  0  0  0  0  0
  160.5870  212.2910  143.4650 C   0  0  0  0  0  3  0  0  0  0  0  0
  159.7550  212.8970  153.5510 C   0  0  0  0  0  2  0  0  0  0  0  0
  159.1520  211.5230  153.8050 C   0  0  1  0  0  3  0  0  0  0  0  0
  161.7180  207.7460  156.5970 C   0  0  0  0  0  1  0  0  0  0  0  0
  161.3010  211.0950  155.1640 C   0  0  0  0  0  3  0  0  0  0  0  0
  161.2490  208.9690  155.8930 C   0  0  0  0  0  0  0  0  0  0  0  0
  161.9420  210.1270  155.8740 N   0  0  0  0  0  0  0  0  0  0  0  0
  159.8110  209.0820  155.0340 S   0  0  0  0  0  0  0  0  0  0  0  0
  160.0870  210.6860  154.6170 C   0  0  0  0  0  0  0  0  0  0  0  0
  157.5300  211.6620  154.6290 P   0  0  1  0  0  0  0  0  0  0  0  0
  156.8320  212.9230  154.1720 O   0  0  0  0  0  0  0  0  0  0  0  0
  156.5830  210.3180  154.2300 O   0  0  0  0  0  1  0  0  0  0  0  0
  157.7660  211.7170  156.3660 N   0  0  0  0  0  2  0  0  0  0  0  0
  156.4560  211.8540  156.9780 C   0  0  0  0  0  1  0  0  0  0  0  0
  160.2130  211.6390  151.4310 C   0  0  0  0  0  2  0  0  0  0  0  0
  163.0100  207.2320  148.5720 C   0  0  0  0  0  3  0  0  0  0  0  0
  162.8200  211.3280  147.8720 C   0  0  0  0  0  1  0  0  0  0  0  0
  162.4640  211.2820  150.3530 C   0  0  0  0  0  2  0  0  0  0  0  0
  162.9760  208.5270  148.9180 C   0  0  0  0  0  3  0  0  0  0  0  0
  161.6960  209.3200  148.9390 C   0  0  1  0  0  3  0  0  0  0  0  0
  161.5280  210.8550  151.4840 C   0  0  2  0  0  3  0  0  0  0  0  0
  161.8220  206.4110  148.0970 C   0  0  2  0  0  3  0  0  0  0  0  0
  160.7700  208.8660  150.0920 C   0  0  1  0  0  3  0  0  0  0  0  0
  160.5670  207.3490  150.1450 C   0  0  0  0  0  2  0  0  0  0  0  0
  161.9220  210.8380  148.9950 C   0  0  2  0  0  3  0  0  0  0  0  0
  160.4600  206.7450  148.7490 C   0  0  0  0  0  2  0  0  0  0  0  0
  161.2930  209.3420  151.4510 C   0  0  0  0  0  2  0  0  0  0  0  0
  162.1270  204.9110  148.1910 C   0  0  2  0  0  3  0  0  0  0  0  0
  160.6520  203.0400  148.5810 C   0  0  2  0  0  3  0  0  0  0  0  0
  161.2710  202.8690  147.2750 N   0  0  0  0  0  2  0  0  0  0  0  0
  161.7600  204.1870  146.9090 C   0  0  0  0  0  2  0  0  0  0  0  0
  161.2930  204.2360  149.2580 C   0  0  0  0  0  2  0  0  0  0  0  0
  160.8350  201.8080  149.4020 C   0  0  0  0  0  0  0  0  0  0  0  0
  160.6430  201.8530  150.6450 O   0  0  0  0  0  1  0  0  0  0  0  0
  161.2060  200.6100  148.8040 O   0  0  0  0  0  0  0  0  0  0  0  0
  1 30  1  6  0  0  0
  1 17  1  0  0  0  0
  3  2  1  0  0  0  0
  3  1  1  1  0  0  0
  4 10  2  0  0  0  0
  5  8  2  0  0  0  0
  6  7  2  0  0  0  0
  7  9  1  0  0  0  0
  8  3  1  0  0  0  0
  9  4  1  0  0  0  0
  9  8  1  0  0  0  0
 10  2  1  0  0  0  0
 11  7  1  0  0  0  0
 12 13  2  0  0  0  0
 13 11  1  0  0  0  0
 14 13  1  0  0  0  0
 15 16  2  0  0  0  0
 16 14  1  0  0  0  0
 18 17  1  1  0  0  0
 18 24  1  0  0  0  0
 18 25  1  0  0  0  0
 20 22  1  0  0  0  0
 21 19  1  0  0  0  0
 22 21  2  0  0  0  0
 23 21  1  0  0  0  0
 24 23  1  0  0  0  0
 24 20  2  0  0  0  0
 25 26  2  6  0  0  0
 25 28  1  0  0  0  0
 27 25  1  0  0  0  0
 28 29  1  0  0  0  0
 31 34  2  0  0  0  0
 33 36  1  0  0  0  0
 35 34  1  1  0  0  0
 35 40  1  0  0  0  0
 35 38  1  0  0  0  0
 36 30  1  6  0  0  0
 37 43  1  0  0  0  0
 37 31  1  1  0  0  0
 37 41  1  0  0  0  0
 38 39  1  1  0  0  0
 38 42  1  0  0  0  0
 40 32  1  6  0  0  0
 40 33  1  0  0  0  0
 41 39  1  0  0  0  0
 42 36  1  0  0  0  0
 43 46  1  6  0  0  0
 43 47  1  0  0  0  0
 44 47  1  0  0  0  0
 44 48  1  1  0  0  0
 45 44  1  0  0  0  0
 46 45  1  0  0  0  0
 48 49  1  0  0  0  0
 50 48  2  0  0  0  0
M  END
>  <MODEL>
3

>  <REMARK>
 VINA RESULT:      -4.9      1.939      2.622
  Name = 
  13 active torsions:
  status: ('A' for Active; 'I' for Inactive)
    1  A    between atoms: C_2  and  C_35
    2  A    between atoms: C_4  and  C_20
    3  A    between atoms: C_5  and  CA_13
    4  A    between atoms: P_8  and  N_9
    5  A    between atoms: P_8  and  C_17
    6  A    between atoms: N_14  and  C_47
    7  A    between atoms: C_17  and  C_28
    8  A    between atoms: C_17  and  C_38
    9  A    between atoms: C_20  and  C_28
   10  A    between atoms: C_20  and  C_37
   11  A    between atoms: C_26  and  C_32
   12  A    between atoms: C_31  and  C_37
   13  A    between atoms: C_32  and  C_47
                            x       y       z     vdW  Elec       q    Type
                         _______ _______ _______ _____ _____    ______ ____

>  <TORSDO>
F 13

$$$$
=
 OpenBabel11072412083D

 50 54  0  0  1  0  0  0  0  0999 V2000
  160.9970  210.7770  152.3730 C   0  0  1  0  0  3  0  0  0  0  0  0
  161.9720  209.5800  154.2550 O   0  0  0  0  0  0  0  0  0  0  0  0
  161.5770  210.8770  153.7910 C   0  0  2  0  0  3  0  0  0  0  0  0
  160.0380  209.2350  155.5930 C   0  0  0  0  0  3  0  0  0  0  0  0
  160.5430  212.7420  154.8700 O   0  0  0  0  0  0  0  0  0  0  0  0
  158.1000  210.4610  157.1880 O   0  0  0  0  0  0  0  0  0  0  0  0
  158.5720  211.1250  156.2250 C   0  0  0  0  0  0  0  0  0  0  0  0
  160.5870  211.4900  154.7420 C   0  0  0  0  0  0  0  0  0  0  0  0
  159.7160  210.6310  155.5030 N   0  0  0  0  0  0  0  0  0  0  0  0
  161.1300  208.7480  155.0040 C   0  0  0  0  0  3  0  0  0  0  0  0
  157.8960  212.4020  155.8300 C   0  0  0  0  0  2  0  0  0  0  0  0
  156.3340  211.3390  154.2900 C   0  0  0  0  0  2  0  0  0  0  0  0
  156.5140  212.1360  155.3380 C   0  0  0  0  0  0  0  0  0  0  0  0
  155.4010  212.6740  156.0630 N   0  0  0  0  0  2  0  0  0  0  0  0
  154.3460  214.4040  157.2610 N   0  0  0  0  0  2  0  0  0  0  0  0
  155.3840  213.9900  156.6160 C   0  0  0  0  0  3  0  0  0  0  0  0
  161.1190  212.0900  151.6050 C   0  0  0  0  0  2  0  0  0  0  0  0
  159.9890  212.2370  150.5960 C   0  0  1  0  0  3  0  0  0  0  0  0
  155.3120  214.4530  151.9560 C   0  0  0  0  0  1  0  0  0  0  0  0
  158.9230  213.8940  152.2590 C   0  0  0  0  0  3  0  0  0  0  0  0
  156.7220  214.0070  151.8100 C   0  0  0  0  0  0  0  0  0  0  0  0
  157.7270  214.4520  152.5930 N   0  0  0  0  0  0  0  0  0  0  0  0
  157.2590  212.8990  150.6680 S   0  0  0  0  0  0  0  0  0  0  0  0
  158.8500  212.9940  151.1980 C   0  0  0  0  0  0  0  0  0  0  0  0
  160.5740  213.0550  149.0730 P   0  0  1  0  0  0  0  0  0  0  0  0
  161.3050  214.3310  149.4280 O   0  0  0  0  0  1  0  0  0  0  0  0
  161.6240  212.0160  148.2490 O   0  0  0  0  0  0  0  0  0  0  0  0
  159.1980  213.4300  148.0520 N   0  0  0  0  0  2  0  0  0  0  0  0
  159.5630  213.0880  146.6900 C   0  0  0  0  0  1  0  0  0  0  0  0
  161.6130  209.6310  151.5610 C   0  0  0  0  0  2  0  0  0  0  0  0
  161.4230  204.3360  148.8520 C   0  0  0  0  0  3  0  0  0  0  0  0
  162.2930  205.4310  152.7690 C   0  0  0  0  0  1  0  0  0  0  0  0
  160.7780  207.3150  152.1050 C   0  0  0  0  0  2  0  0  0  0  0  0
  161.2770  205.0470  149.9800 C   0  0  0  0  0  3  0  0  0  0  0  0
  162.2070  206.1740  150.3450 C   0  0  1  0  0  3  0  0  0  0  0  0
  160.6060  208.5350  151.1990 C   0  0  2  0  0  3  0  0  0  0  0  0
  162.5460  204.5020  147.8410 C   0  0  2  0  0  3  0  0  0  0  0  0
  162.0100  207.3920  149.4130 C   0  0  1  0  0  3  0  0  0  0  0  0
  162.0260  207.0260  147.9250 C   0  0  0  0  0  2  0  0  0  0  0  0
  162.0970  206.5980  151.8170 C   0  0  2  0  0  3  0  0  0  0  0  0
  163.0580  205.9440  147.6220 C   0  0  0  0  0  2  0  0  0  0  0  0
  160.7060  208.1330  149.7250 C   0  0  0  0  0  2  0  0  0  0  0  0
  162.1770  203.8370  146.5090 C   0  0  2  0  0  3  0  0  0  0  0  0
  160.2170  202.5710  145.8870 C   0  0  2  0  0  3  0  0  0  0  0  0
  160.2890  203.7500  145.0360 N   0  0  0  0  0  2  0  0  0  0  0  0
  161.1750  204.6690  145.7300 C   0  0  0  0  0  2  0  0  0  0  0  0
  161.4820  202.5080  146.7190 C   0  0  0  0  0  2  0  0  0  0  0  0
  160.0730  201.3430  145.0530 C   0  0  0  0  0  0  0  0  0  0  0  0
  159.4090  201.3880  143.9850 O   0  0  0  0  0  0  0  0  0  0  0  0
  160.6750  200.1530  145.4400 O   0  0  0  0  0  1  0  0  0  0  0  0
  1 30  1  6  0  0  0
  2 10  1  0  0  0  0
  3  1  1  6  0  0  0
  3  2  1  0  0  0  0
  3  8  1  0  0  0  0
  7  6  2  0  0  0  0
  8  5  2  0  0  0  0
  8  9  1  0  0  0  0
  9  4  1  0  0  0  0
  9  7  1  0  0  0  0
 10  4  2  0  0  0  0
 11  7  1  0  0  0  0
 12 13  2  0  0  0  0
 13 11  1  0  0  0  0
 13 14  1  0  0  0  0
 14 16  1  0  0  0  0
 16 15  2  0  0  0  0
 17  1  1  0  0  0  0
 18 24  1  0  0  0  0
 18 17  1  1  0  0  0
 20 22  1  0  0  0  0
 21 19  1  0  0  0  0
 21 22  2  0  0  0  0
 23 24  1  0  0  0  0
 23 21  1  0  0  0  0
 24 20  2  0  0  0  0
 25 27  2  6  0  0  0
 25 26  1  0  0  0  0
 25 18  1  0  0  0  0
 28 25  1  0  0  0  0
 29 28  1  0  0  0  0
 31 34  2  0  0  0  0
 35 34  1  6  0  0  0
 35 40  1  0  0  0  0
 36 30  1  1  0  0  0
 36 33  1  0  0  0  0
 37 41  1  6  0  0  0
 37 31  1  0  0  0  0
 38 39  1  6  0  0  0
 38 42  1  0  0  0  0
 38 35  1  0  0  0  0
 40 33  1  0  0  0  0
 40 32  1  1  0  0  0
 41 39  1  0  0  0  0
 42 36  1  0  0  0  0
 43 46  1  1  0  0  0
 43 47  1  0  0  0  0
 43 37  1  0  0  0  0
 44 48  1  6  0  0  0
 44 47  1  0  0  0  0
 45 46  1  0  0  0  0
 45 44  1  0  0  0  0
 48 50  1  0  0  0  0
 49 48  2  0  0  0  0
M  END
>  <MODEL>
4

>  <REMARK>
 VINA RESULT:      -4.8      2.681      6.312
  Name = 
  13 active torsions:
  status: ('A' for Active; 'I' for Inactive)
    1  A    between atoms: C_2  and  C_35
    2  A    between atoms: C_4  and  C_20
    3  A    between atoms: C_5  and  CA_13
    4  A    between atoms: P_8  and  N_9
    5  A    between atoms: P_8  and  C_17
    6  A    between atoms: N_14  and  C_47
    7  A    between atoms: C_17  and  C_28
    8  A    between atoms: C_17  and  C_38
    9  A    between atoms: C_20  and  C_28
   10  A    between atoms: C_20  and  C_37
   11  A    between atoms: C_26  and  C_32
   12  A    between atoms: C_31  and  C_37
   13  A    between atoms: C_32  and  C_47
                            x       y       z     vdW  Elec       q    Type
                         _______ _______ _______ _____ _____    ______ ____

>  <TORSDO>
F 13

$$$$
=
 OpenBabel11072412083D

 50 54  0  0  1  0  0  0  0  0999 V2000
  160.4390  211.0490  152.3390 C   0  0  1  0  0  3  0  0  0  0  0  0
  161.4740  210.0610  154.3080 O   0  0  0  0  0  0  0  0  0  0  0  0
  161.0720  211.3020  153.7150 C   0  0  2  0  0  3  0  0  0  0  0  0
  159.5880  209.8920  155.7450 C   0  0  0  0  0  3  0  0  0  0  0  0
  160.0910  213.2890  154.6120 O   0  0  0  0  0  0  0  0  0  0  0  0
  157.7180  211.3120  157.2590 O   0  0  0  0  0  0  0  0  0  0  0  0
  158.1600  211.8570  156.2110 C   0  0  0  0  0  0  0  0  0  0  0  0
  160.1220  212.0300  154.6260 C   0  0  0  0  0  0  0  0  0  0  0  0
  159.2730  211.2720  155.5100 N   0  0  0  0  0  0  0  0  0  0  0  0
  160.6540  209.3290  155.1760 C   0  0  0  0  0  3  0  0  0  0  0  0
  157.4790  213.0890  155.6990 C   0  0  0  0  0  2  0  0  0  0  0  0
  155.5680  213.2090  154.1900 C   0  0  0  0  0  2  0  0  0  0  0  0
  156.0560  212.8020  155.3580 C   0  0  0  0  0  0  0  0  0  0  0  0
  155.2700  212.0120  156.2570 N   0  0  0  0  0  2  0  0  0  0  0  0
  154.0910  210.0490  156.8070 N   0  0  0  0  0  2  0  0  0  0  0  0
  154.7990  210.7010  155.9460 C   0  0  0  0  0  3  0  0  0  0  0  0
  161.1880  211.7650  151.2180 C   0  0  0  0  0  2  0  0  0  0  0  0
  160.4120  212.9830  150.7390 C   0  0  1  0  0  3  0  0  0  0  0  0
  161.7140  213.8400  145.6190 C   0  0  0  0  0  1  0  0  0  0  0  0
  159.5020  212.7610  148.3360 C   0  0  0  0  0  3  0  0  0  0  0  0
  161.0880  213.4990  146.9230 C   0  0  0  0  0  0  0  0  0  0  0  0
  159.8450  212.9860  147.0390 N   0  0  0  0  0  0  0  0  0  0  0  0
  161.8270  213.6980  148.4170 S   0  0  0  0  0  0  0  0  0  0  0  0
  160.4960  213.1000  149.2510 C   0  0  0  0  0  0  0  0  0  0  0  0
  158.6720  212.9070  151.2820 P   0  0  1  0  0  0  0  0  0  0  0  0
  158.3720  211.5360  151.8450 O   0  0  0  0  0  0  0  0  0  0  0  0
  158.4090  214.0750  152.4780 O   0  0  0  0  0  1  0  0  0  0  0  0
  157.6230  213.2240  149.9130 N   0  0  0  0  0  2  0  0  0  0  0  0
  156.8780  214.4340  150.2080 C   0  0  0  0  0  1  0  0  0  0  0  0
  160.3060  209.5570  152.0150 C   0  0  0  0  0  2  0  0  0  0  0  0
  162.9450  206.2760  147.8100 C   0  0  0  0  0  3  0  0  0  0  0  0
  162.5260  210.3870  148.2810 C   0  0  0  0  0  1  0  0  0  0  0  0
  162.4410  209.6520  150.6760 C   0  0  0  0  0  2  0  0  0  0  0  0
  162.8990  207.4240  148.4990 C   0  0  0  0  0  3  0  0  0  0  0  0
  161.6000  208.0960  148.8560 C   0  0  1  0  0  3  0  0  0  0  0  0
  161.6480  208.8760  151.7290 C   0  0  2  0  0  3  0  0  0  0  0  0
  161.7450  205.5360  147.2410 C   0  0  2  0  0  3  0  0  0  0  0  0
  160.8210  207.2890  149.9210 C   0  0  1  0  0  3  0  0  0  0  0  0
  160.6820  205.8040  149.5750 C   0  0  0  0  0  2  0  0  0  0  0  0
  161.7730  209.5540  149.3050 C   0  0  2  0  0  3  0  0  0  0  0  0
  160.4490  205.5920  148.0820 C   0  0  0  0  0  2  0  0  0  0  0  0
  161.4690  207.4150  151.3040 C   0  0  0  0  0  2  0  0  0  0  0  0
  162.1150  204.0900  146.8900 C   0  0  2  0  0  3  0  0  0  0  0  0
  160.8000  202.0680  147.0160 C   0  0  2  0  0  3  0  0  0  0  0  0
  161.1830  202.2790  145.6280 N   0  0  0  0  0  2  0  0  0  0  0  0
  161.5520  203.6820  145.5420 C   0  0  0  0  0  2  0  0  0  0  0  0
  161.5080  203.1040  147.8670 C   0  0  0  0  0  2  0  0  0  0  0  0
  161.1700  200.6890  147.4480 C   0  0  0  0  0  0  0  0  0  0  0  0
  161.2910  200.4310  148.6730 O   0  0  0  0  0  1  0  0  0  0  0  0
  161.3730  199.6860  146.5090 O   0  0  0  0  0  0  0  0  0  0  0  0
  1 17  1  6  0  0  0
  2 10  1  0  0  0  0
  3  1  1  6  0  0  0
  3  2  1  0  0  0  0
  3  8  1  0  0  0  0
  5  8  2  0  0  0  0
  7  6  2  0  0  0  0
  8  9  1  0  0  0  0
  9  4  1  0  0  0  0
  9  7  1  0  0  0  0
 10  4  2  0  0  0  0
 11  7  1  0  0  0  0
 12 13  2  0  0  0  0
 13 11  1  0  0  0  0
 13 14  1  0  0  0  0
 16 14  1  0  0  0  0
 16 15  2  0  0  0  0
 18 17  1  6  0  0  0
 18 25  1  0  0  0  0
 19 21  1  0  0  0  0
 20 24  2  0  0  0  0
 21 22  2  0  0  0  0
 21 23  1  0  0  0  0
 22 20  1  0  0  0  0
 23 24  1  0  0  0  0
 24 18  1  0  0  0  0
 25 26  2  1  0  0  0
 25 27  1  0  0  0  0
 28 29  1  0  0  0  0
 28 25  1  0  0  0  0
 30  1  1  0  0  0  0
 31 34  2  0  0  0  0
 33 36  1  0  0  0  0
 35 34  1  1  0  0  0
 35 40  1  0  0  0  0
 35 38  1  0  0  0  0
 36 30  1  6  0  0  0
 37 31  1  1  0  0  0
 37 41  1  0  0  0  0
 38 39  1  6  0  0  0
 38 42  1  0  0  0  0
 40 32  1  6  0  0  0
 40 33  1  0  0  0  0
 41 39  1  0  0  0  0
 42 36  1  0  0  0  0
 43 46  1  6  0  0  0
 43 37  1  0  0  0  0
 43 47  1  0  0  0  0
 44 48  1  1  0  0  0
 44 47  1  0  0  0  0
 45 44  1  0  0  0  0
 46 45  1  0  0  0  0
 48 49  1  0  0  0  0
 50 48  2  0  0  0  0
M  END
>  <MODEL>
5

>  <REMARK>
 VINA RESULT:      -4.3      2.501      5.979
  Name = 
  13 active torsions:
  status: ('A' for Active; 'I' for Inactive)
    1  A    between atoms: C_2  and  C_35
    2  A    between atoms: C_4  and  C_20
    3  A    between atoms: C_5  and  CA_13
    4  A    between atoms: P_8  and  N_9
    5  A    between atoms: P_8  and  C_17
    6  A    between atoms: N_14  and  C_47
    7  A    between atoms: C_17  and  C_28
    8  A    between atoms: C_17  and  C_38
    9  A    between atoms: C_20  and  C_28
   10  A    between atoms: C_20  and  C_37
   11  A    between atoms: C_26  and  C_32
   12  A    between atoms: C_31  and  C_37
   13  A    between atoms: C_32  and  C_47
                            x       y       z     vdW  Elec       q    Type
                         _______ _______ _______ _____ _____    ______ ____

>  <TORSDO>
F 13

$$$$
=
 OpenBabel11072412083D

 50 54  0  0  1  0  0  0  0  0999 V2000
  159.5650  210.6830  153.3910 C   0  0  1  0  0  3  0  0  0  0  0  0
  161.4010  211.8900  154.4370 O   0  0  0  0  0  0  0  0  0  0  0  0
  160.1190  211.2990  154.6840 C   0  0  2  0  0  3  0  0  0  0  0  0
  162.6480  210.0790  155.3380 C   0  0  0  0  0  3  0  0  0  0  0  0
  159.2310  210.0550  156.5210 O   0  0  0  0  0  0  0  0  0  0  0  0
  162.6930  208.0510  157.2600 O   0  0  0  0  0  0  0  0  0  0  0  0
  161.5720  208.3870  156.7870 C   0  0  0  0  0  0  0  0  0  0  0  0
  160.2230  210.2700  155.7760 C   0  0  0  0  0  0  0  0  0  0  0  0
  161.4630  209.5600  155.9590 N   0  0  0  0  0  0  0  0  0  0  0  0
  162.6070  211.2040  154.6250 C   0  0  0  0  0  3  0  0  0  0  0  0
  160.3830  207.5220  157.0720 C   0  0  0  0  0  2  0  0  0  0  0  0
  158.5620  206.6110  155.7330 C   0  0  0  0  0  2  0  0  0  0  0  0
  159.8510  206.9250  155.8140 C   0  0  0  0  0  0  0  0  0  0  0  0
  160.7230  206.7870  154.6860 N   0  0  0  0  0  2  0  0  0  0  0  0
  161.6830  205.5220  152.9480 N   0  0  0  0  0  2  0  0  0  0  0  0
  160.8750  205.5710  153.9540 C   0  0  0  0  0  3  0  0  0  0  0  0
  158.0980  211.0400  153.1640 C   0  0  0  0  0  2  0  0  0  0  0  0
  157.8630  212.5280  153.3740 C   0  0  1  0  0  3  0  0  0  0  0  0
  157.1160  214.4530  148.4360 C   0  0  0  0  0  1  0  0  0  0  0  0
  156.1870  213.8570  151.9330 C   0  0  0  0  0  3  0  0  0  0  0  0
  157.0470  214.0430  149.8640 C   0  0  0  0  0  0  0  0  0  0  0  0
  156.0110  214.3430  150.6740 N   0  0  0  0  0  0  0  0  0  0  0  0
  158.2330  213.1610  150.6610 S   0  0  0  0  0  0  0  0  0  0  0  0
  157.3820  213.1620  152.1090 C   0  0  0  0  0  0  0  0  0  0  0  0
  156.6780  212.8180  154.7310 P   0  0  1  0  0  0  0  0  0  0  0  0
  157.3680  212.6190  156.0620 O   0  0  0  0  0  1  0  0  0  0  0  0
  156.0940  214.4030  154.6330 O   0  0  0  0  0  0  0  0  0  0  0  0
  155.3430  211.6910  154.5860 N   0  0  0  0  0  2  0  0  0  0  0  0
  155.6040  210.5900  155.4950 C   0  0  0  0  0  1  0  0  0  0  0  0
  160.3940  211.0520  152.1560 C   0  0  0  0  0  2  0  0  0  0  0  0
  162.9800  207.0190  148.6260 C   0  0  0  0  0  3  0  0  0  0  0  0
  162.8120  211.1710  148.4550 C   0  0  0  0  0  1  0  0  0  0  0  0
  162.5830  210.8170  150.9260 C   0  0  0  0  0  2  0  0  0  0  0  0
  162.9820  208.2600  149.1320 C   0  0  0  0  0  3  0  0  0  0  0  0
  161.7160  209.0530  149.3200 C   0  0  1  0  0  3  0  0  0  0  0  0
  161.7000  210.2580  152.0420 C   0  0  2  0  0  3  0  0  0  0  0  0
  161.7580  206.2730  148.1150 C   0  0  2  0  0  3  0  0  0  0  0  0
  160.8440  208.4660  150.4540 C   0  0  1  0  0  3  0  0  0  0  0  0
  160.6230  206.9550  150.3280 C   0  0  0  0  0  2  0  0  0  0  0  0
  161.9660  210.5500  149.5530 C   0  0  2  0  0  3  0  0  0  0  0  0
  160.4360  206.5320  148.8740 C   0  0  0  0  0  2  0  0  0  0  0  0
  161.4430  208.7630  151.8330 C   0  0  0  0  0  2  0  0  0  0  0  0
  162.0470  204.7710  148.0050 C   0  0  2  0  0  3  0  0  0  0  0  0
  160.5450  202.8820  148.0970 C   0  0  2  0  0  3  0  0  0  0  0  0
  161.1930  202.8880  146.7930 N   0  0  0  0  0  2  0  0  0  0  0  0
  161.7040  204.2380  146.6260 C   0  0  0  0  0  2  0  0  0  0  0  0
  161.1810  203.9630  148.9480 C   0  0  0  0  0  2  0  0  0  0  0  0
  160.6970  201.5450  148.7410 C   0  0  0  0  0  0  0  0  0  0  0  0
  159.7730  201.0940  149.4660 O   0  0  0  0  0  1  0  0  0  0  0  0
  161.8460  200.7910  148.5380 O   0  0  0  0  0  0  0  0  0  0  0  0
  1 30  1  6  0  0  0
  2 10  1  0  0  0  0
  2  3  1  0  0  0  0
  3  1  1  6  0  0  0
  3  8  1  0  0  0  0
  4  9  1  0  0  0  0
  7 11  1  0  0  0  0
  7  6  2  0  0  0  0
  8  9  1  0  0  0  0
  8  5  2  0  0  0  0
  9  7  1  0  0  0  0
 10  4  2  0  0  0  0
 12 13  2  0  0  0  0
 13 11  1  0  0  0  0
 14 13  1  0  0  0  0
 15 16  2  0  0  0  0
 16 14  1  0  0  0  0
 17  1  1  0  0  0  0
 18 17  1  6  0  0  0
 18 25  1  0  0  0  0
 19 21  1  0  0  0  0
 20 24  2  0  0  0  0
 21 23  1  0  0  0  0
 21 22  2  0  0  0  0
 22 20  1  0  0  0  0
 23 24  1  0  0  0  0
 24 18  1  0  0  0  0
 25 27  2  6  0  0  0
 25 26  1  0  0  0  0
 28 25  1  0  0  0  0
 28 29  1  0  0  0  0
 31 34  2  0  0  0  0
 33 36  1  0  0  0  0
 35 34  1  1  0  0  0
 35 40  1  0  0  0  0
 35 38  1  0  0  0  0
 36 30  1  6  0  0  0
 37 31  1  1  0  0  0
 37 41  1  0  0  0  0
 38 39  1  6  0  0  0
 38 42  1  0  0  0  0
 40 32  1  6  0  0  0
 40 33  1  0  0  0  0
 41 39  1  0  0  0  0
 42 36  1  0  0  0  0
 43 46  1  6  0  0  0
 43 37  1  0  0  0  0
 43 47  1  0  0  0  0
 44 48  1  1  0  0  0
 44 47  1  0  0  0  0
 45 44  1  0  0  0  0
 46 45  1  0  0  0  0
 48 49  1  0  0  0  0
 50 48  2  0  0  0  0
M  END
>  <MODEL>
6

>  <REMARK>
 VINA RESULT:      -4.3      2.364      6.133
  Name = 
  13 active torsions:
  status: ('A' for Active; 'I' for Inactive)
    1  A    between atoms: C_2  and  C_35
    2  A    between atoms: C_4  and  C_20
    3  A    between atoms: C_5  and  CA_13
    4  A    between atoms: P_8  and  N_9
    5  A    between atoms: P_8  and  C_17
    6  A    between atoms: N_14  and  C_47
    7  A    between atoms: C_17  and  C_28
    8  A    between atoms: C_17  and  C_38
    9  A    between atoms: C_20  and  C_28
   10  A    between atoms: C_20  and  C_37
   11  A    between atoms: C_26  and  C_32
   12  A    between atoms: C_31  and  C_37
   13  A    between atoms: C_32  and  C_47
                            x       y       z     vdW  Elec       q    Type
                         _______ _______ _______ _____ _____    ______ ____

>  <TORSDO>
F 13

$$$$
=
 OpenBabel11072412083D

 50 54  0  0  1  0  0  0  0  0999 V2000
  162.5930  205.9470  150.5950 C   0  0  1  0  0  3  0  0  0  0  0  0
  161.7290  203.9020  151.5940 O   0  0  0  0  0  0  0  0  0  0  0  0
  162.6600  204.9750  151.7830 C   0  0  2  0  0  3  0  0  0  0  0  0
  160.0750  204.7990  153.0450 C   0  0  0  0  0  3  0  0  0  0  0  0
  163.3320  206.2230  153.7070 O   0  0  0  0  0  0  0  0  0  0  0  0
  159.6160  206.2970  155.3590 O   0  0  0  0  0  0  0  0  0  0  0  0
  160.6340  206.5790  154.6690 C   0  0  0  0  0  0  0  0  0  0  0  0
  162.3830  205.6810  153.0810 C   0  0  0  0  0  0  0  0  0  0  0  0
  161.0370  205.7120  153.5930 N   0  0  0  0  0  0  0  0  0  0  0  0
  160.4240  203.9260  152.1010 C   0  0  0  0  0  3  0  0  0  0  0  0
  161.3770  207.8450  154.9690 C   0  0  0  0  0  2  0  0  0  0  0  0
  160.6270  207.3890  157.2430 C   0  0  0  0  0  2  0  0  0  0  0  0
  161.4020  208.1070  156.4360 C   0  0  0  0  0  0  0  0  0  0  0  0
  162.3310  209.0650  156.9570 N   0  0  0  0  0  2  0  0  0  0  0  0
  163.5460  211.0750  156.7980 N   0  0  0  0  0  2  0  0  0  0  0  0
  162.6980  210.2590  156.2670 C   0  0  0  0  0  3  0  0  0  0  0  0
  161.4630  205.6010  149.6300 C   0  0  0  0  0  2  0  0  0  0  0  0
  162.0160  205.0970  148.3050 C   0  0  1  0  0  3  0  0  0  0  0  0
  160.7020  200.3040  146.3180 C   0  0  0  0  0  1  0  0  0  0  0  0
  160.8330  202.8890  148.9160 C   0  0  0  0  0  3  0  0  0  0  0  0
  160.9280  201.5320  147.1250 C   0  0  0  0  0  0  0  0  0  0  0  0
  160.5030  201.6740  148.3980 N   0  0  0  0  0  0  0  0  0  0  0  0
  161.7360  202.8980  146.5760 S   0  0  0  0  0  0  0  0  0  0  0  0
  161.5320  203.7090  148.0340 C   0  0  0  0  0  0  0  0  0  0  0  0
  161.5610  206.2170  146.9370 P   0  0  1  0  0  0  0  0  0  0  0  0
  160.0610  206.2070  146.7480 O   0  0  0  0  0  0  0  0  0  0  0  0
  162.0710  207.7870  147.3090 O   0  0  0  0  0  1  0  0  0  0  0  0
  162.3440  205.6790  145.4630 N   0  0  0  0  0  2  0  0  0  0  0  0
  161.3210  205.5840  144.4380 C   0  0  0  0  0  1  0  0  0  0  0  0
  162.4820  207.4110  151.0350 C   0  0  0  0  0  2  0  0  0  0  0  0
  159.4240  212.4550  151.8220 C   0  0  0  0  0  3  0  0  0  0  0  0
  162.6110  211.4900  149.3300 C   0  0  0  0  0  1  0  0  0  0  0  0
  161.5380  209.2370  149.5750 C   0  0  0  0  0  2  0  0  0  0  0  0
  160.1340  211.6670  151.0020 C   0  0  0  0  0  3  0  0  0  0  0  0
  161.3590  210.9240  151.4630 C   0  0  1  0  0  3  0  0  0  0  0  0
  161.2050  208.0980  150.5390 C   0  0  2  0  0  3  0  0  0  0  0  0
  159.7690  212.7660  153.2690 C   0  0  2  0  0  3  0  0  0  0  0  0
  160.9920  209.7790  152.4360 C   0  0  1  0  0  3  0  0  0  0  0  0
  160.0650  210.2220  153.5720 C   0  0  0  0  0  2  0  0  0  0  0  0
  162.2190  210.3940  150.3070 C   0  0  2  0  0  3  0  0  0  0  0  0
  160.4180  211.6180  154.0760 C   0  0  0  0  0  2  0  0  0  0  0  0
  160.3420  208.6040  151.6980 C   0  0  0  0  0  2  0  0  0  0  0  0
  158.5530  213.3410  154.0050 C   0  0  2  0  0  3  0  0  0  0  0  0
  157.3520  212.5020  155.9260 C   0  0  2  0  0  3  0  0  0  0  0  0
  157.9070  213.8040  156.2660 N   0  0  0  0  0  2  0  0  0  0  0  0
  158.9580  214.0390  155.2900 C   0  0  0  0  0  2  0  0  0  0  0  0
  157.6020  212.2490  154.4520 C   0  0  0  0  0  2  0  0  0  0  0  0
  155.8920  212.4710  156.2260 C   0  0  0  0  0  0  0  0  0  0  0  0
  155.2320  213.5420  156.2270 O   0  0  0  0  0  0  0  0  0  0  0  0
  155.2520  211.2670  156.4940 O   0  0  0  0  0  1  0  0  0  0  0  0
  1 17  1  6  0  0  0
  1 30  1  0  0  0  0
  2  3  1  0  0  0  0
  2 10  1  0  0  0  0
  3  1  1  6  0  0  0
  3  8  1  0  0  0  0
  4  9  1  0  0  0  0
  7 11  1  0  0  0  0
  7  6  2  0  0  0  0
  8  9  1  0  0  0  0
  8  5  2  0  0  0  0
  9  7  1  0  0  0  0
 10  4  2  0  0  0  0
 11 13  1  0  0  0  0
 13 14  1  0  0  0  0
 13 12  2  0  0  0  0
 16 15  2  0  0  0  0
 16 14  1  0  0  0  0
 18 17  1  1  0  0  0
 19 21  1  0  0  0  0
 21 22  2  0  0  0  0
 22 20  1  0  0  0  0
 23 21  1  0  0  0  0
 23 24  1  0  0  0  0
 24 18  1  0  0  0  0
 24 20  2  0  0  0  0
 25 26  2  6  0  0  0
 25 27  1  0  0  0  0
 25 18  1  0  0  0  0
 28 25  1  0  0  0  0
 29 28  1  0  0  0  0
 33 40  1  0  0  0  0
 33 36  1  0  0  0  0
 34 31  2  0  0  0  0
 35 34  1  6  0  0  0
 35 38  1  0  0  0  0
 36 30  1  1  0  0  0
 36 42  1  0  0  0  0
 37 31  1  6  0  0  0
 37 43  1  0  0  0  0
 37 41  1  0  0  0  0
 38 42  1  6  0  0  0
 38 39  1  0  0  0  0
 39 41  1  0  0  0  0
 40 32  1  6  0  0  0
 40 35  1  0  0  0  0
 43 47  1  1  0  0  0
 43 46  1  0  0  0  0
 44 48  1  6  0  0  0
 44 45  1  0  0  0  0
 46 45  1  0  0  0  0
 47 44  1  0  0  0  0
 48 49  2  0  0  0  0
 48 50  1  0  0  0  0
M  END
>  <MODEL>
7

>  <REMARK>
 VINA RESULT:      -3.5      3.834      9.647
  Name = 
  13 active torsions:
  status: ('A' for Active; 'I' for Inactive)
    1  A    between atoms: C_2  and  C_35
    2  A    between atoms: C_4  and  C_20
    3  A    between atoms: C_5  and  CA_13
    4  A    between atoms: P_8  and  N_9
    5  A    between atoms: P_8  and  C_17
    6  A    between atoms: N_14  and  C_47
    7  A    between atoms: C_17  and  C_28
    8  A    between atoms: C_17  and  C_38
    9  A    between atoms: C_20  and  C_28
   10  A    between atoms: C_20  and  C_37
   11  A    between atoms: C_26  and  C_32
   12  A    between atoms: C_31  and  C_37
   13  A    between atoms: C_32  and  C_47
                            x       y       z     vdW  Elec       q    Type
                         _______ _______ _______ _____ _____    ______ ____

>  <TORSDO>
F 13

$$$$
=
 OpenBabel11072412083D

 50 54  0  0  1  0  0  0  0  0999 V2000
  160.2300  212.8840  152.8650 C   0  0  1  0  0  3  0  0  0  0  0  0
  158.3280  214.2380  152.1750 O   0  0  0  0  0  0  0  0  0  0  0  0
  159.7480  214.0930  152.0490 C   0  0  2  0  0  3  0  0  0  0  0  0
  157.8260  213.2350  150.0800 C   0  0  0  0  0  3  0  0  0  0  0  0
  161.2540  214.3780  150.2150 O   0  0  0  0  0  0  0  0  0  0  0  0
  158.6910  212.8470  147.4510 O   0  0  0  0  0  0  0  0  0  0  0  0
  159.5710  212.9560  148.3490 C   0  0  0  0  0  0  0  0  0  0  0  0
  160.1300  213.9580  150.6010 C   0  0  0  0  0  0  0  0  0  0  0  0
  159.1970  213.3660  149.6770 N   0  0  0  0  0  0  0  0  0  0  0  0
  157.4200  213.6700  151.2720 C   0  0  0  0  0  3  0  0  0  0  0  0
  160.9890  212.6110  148.0110 C   0  0  0  0  0  2  0  0  0  0  0  0
  162.5200  213.6460  146.4230 C   0  0  0  0  0  2  0  0  0  0  0  0
  161.3350  213.0850  146.6410 C   0  0  0  0  0  0  0  0  0  0  0  0
  160.4190  212.8410  145.5670 N   0  0  0  0  0  2  0  0  0  0  0  0
  159.9470  212.3680  143.3100 N   0  0  0  0  0  2  0  0  0  0  0  0
  160.8310  212.5760  144.2270 C   0  0  0  0  0  3  0  0  0  0  0  0
  159.1200  212.2930  153.7310 C   0  0  0  0  0  2  0  0  0  0  0  0
  159.0710  212.9740  155.0900 C   0  0  1  0  0  3  0  0  0  0  0  0
  154.0700  214.4530  156.2920 C   0  0  0  0  0  1  0  0  0  0  0  0
  156.9350  212.1650  156.2870 C   0  0  0  0  0  3  0  0  0  0  0  0
  155.3840  213.7830  156.1070 C   0  0  0  0  0  0  0  0  0  0  0  0
  155.6660  212.5550  156.5890 N   0  0  0  0  0  0  0  0  0  0  0  0
  156.6860  214.4500  155.2840 S   0  0  0  0  0  0  0  0  0  0  0  0
  157.6560  213.1050  155.5550 C   0  0  0  0  0  0  0  0  0  0  0  0
  160.0700  212.0640  156.3160 P   0  0  1  0  0  0  0  0  0  0  0  0
  160.7420  213.0410  157.2540 O   0  0  0  0  0  1  0  0  0  0  0  0
  159.0620  211.0340  157.2040 O   0  0  0  0  0  0  0  0  0  0  0  0
  161.2880  211.1160  155.4830 N   0  0  0  0  0  2  0  0  0  0  0  0
  162.4340  211.0100  156.3670 C   0  0  0  0  0  1  0  0  0  0  0  0
  160.8560  211.7910  151.9910 C   0  0  0  0  0  2  0  0  0  0  0  0
  161.1010  206.1410  150.1410 C   0  0  0  0  0  3  0  0  0  0  0  0
  161.7280  207.8820  153.8660 C   0  0  0  0  0  1  0  0  0  0  0  0
  160.1360  209.5370  152.8620 C   0  0  0  0  0  2  0  0  0  0  0  0
  160.8630  207.0060  151.1370 C   0  0  0  0  0  3  0  0  0  0  0  0
  161.7070  208.2340  151.3540 C   0  0  1  0  0  3  0  0  0  0  0  0
  159.9330  210.5880  151.7700 C   0  0  2  0  0  3  0  0  0  0  0  0
  162.2570  206.2210  149.1560 C   0  0  2  0  0  3  0  0  0  0  0  0
  161.4810  209.2780  150.2360 C   0  0  1  0  0  3  0  0  0  0  0  0
  161.5850  208.6890  148.8260 C   0  0  0  0  0  2  0  0  0  0  0  0
  161.5060  208.8720  152.7360 C   0  0  2  0  0  3  0  0  0  0  0  0
  162.6920  207.6430  148.7320 C   0  0  0  0  0  2  0  0  0  0  0  0
  160.1220  209.9710  150.3810 C   0  0  0  0  0  2  0  0  0  0  0  0
  161.9880  205.3370  147.9320 C   0  0  2  0  0  3  0  0  0  0  0  0
  162.1390  205.8450  145.5760 C   0  0  2  0  0  3  0  0  0  0  0  0
  163.0840  204.7800  145.8750 N   0  0  0  0  0  2  0  0  0  0  0  0
  163.2800  204.8350  147.3140 C   0  0  0  0  0  2  0  0  0  0  0  0
  161.3130  206.1110  146.8200 C   0  0  0  0  0  2  0  0  0  0  0  0
  161.2630  205.4510  144.4350 C   0  0  0  0  0  0  0  0  0  0  0  0
  161.2060  206.1800  143.4110 O   0  0  0  0  0  0  0  0  0  0  0  0
  160.5170  204.2800  144.4910 O   0  0  0  0  0  1  0  0  0  0  0  0
  1 30  1  6  0  0  0
  1 17  1  0  0  0  0
  3  2  1  0  0  0  0
  3  1  1  1  0  0  0
  4 10  2  0  0  0  0
  5  8  2  0  0  0  0
  6  7  2  0  0  0  0
  7  9  1  0  0  0  0
  8  3  1  0  0  0  0
  9  4  1  0  0  0  0
  9  8  1  0  0  0  0
 10  2  1  0  0  0  0
 11  7  1  0  0  0  0
 12 13  2  0  0  0  0
 13 11  1  0  0  0  0
 14 13  1  0  0  0  0
 15 16  2  0  0  0  0
 16 14  1  0  0  0  0
 18 17  1  6  0  0  0
 18 24  1  0  0  0  0
 18 25  1  0  0  0  0
 20 22  1  0  0  0  0
 21 19  1  0  0  0  0
 21 22  2  0  0  0  0
 23 24  1  0  0  0  0
 23 21  1  0  0  0  0
 24 20  2  0  0  0  0
 25 27  2  1  0  0  0
 25 26  1  0  0  0  0
 28 25  1  0  0  0  0
 28 29  1  0  0  0  0
 31 34  2  0  0  0  0
 35 34  1  6  0  0  0
 35 40  1  0  0  0  0
 36 30  1  1  0  0  0
 36 33  1  0  0  0  0
 37 41  1  6  0  0  0
 37 31  1  0  0  0  0
 38 39  1  6  0  0  0
 38 42  1  0  0  0  0
 38 35  1  0  0  0  0
 40 33  1  0  0  0  0
 40 32  1  1  0  0  0
 41 39  1  0  0  0  0
 42 36  1  0  0  0  0
 43 47  1  6  0  0  0
 43 37  1  0  0  0  0
 44 48  1  6  0  0  0
 44 45  1  0  0  0  0
 44 47  1  0  0  0  0
 45 46  1  0  0  0  0
 46 43  1  0  0  0  0
 48 50  1  0  0  0  0
 49 48  2  0  0  0  0
M  END
>  <MODEL>
8

>  <REMARK>
 VINA RESULT:      -3.2      2.615      4.075
  Name = 
  13 active torsions:
  status: ('A' for Active; 'I' for Inactive)
    1  A    between atoms: C_2  and  C_35
    2  A    between atoms: C_4  and  C_20
    3  A    between atoms: C_5  and  CA_13
    4  A    between atoms: P_8  and  N_9
    5  A    between atoms: P_8  and  C_17
    6  A    between atoms: N_14  and  C_47
    7  A    between atoms: C_17  and  C_28
    8  A    between atoms: C_17  and  C_38
    9  A    between atoms: C_20  and  C_28
   10  A    between atoms: C_20  and  C_37
   11  A    between atoms: C_26  and  C_32
   12  A    between atoms: C_31  and  C_37
   13  A    between atoms: C_32  and  C_47
                            x       y       z     vdW  Elec       q    Type
                         _______ _______ _______ _____ _____    ______ ____

>  <TORSDO>
F 13

$$$$
