=
 OpenBabel11072409503D

 66 70  0  0  1  0  0  0  0  0999 V2000
  159.8380  203.3610  146.4080 O   0  0  0  0  0  0  0  0  0  0  0  0
  161.1100  202.8250  146.6200 C   0  0  0  0  0  2  0  0  0  0  0  0
  161.4170  202.7870  148.1090 C   0  0  2  0  0  3  0  0  0  0  0  0
  158.9710  201.3700  149.8720 F   0  0  0  0  0  0  0  0  0  0  0  0
  160.8890  201.6100  148.6830 O   0  0  0  0  0  0  0  0  0  0  0  0
  159.9650  203.5000  149.6340 C   0  0  1  0  0  3  0  0  0  0  0  0
  160.9320  203.9520  148.7390 O   0  0  0  0  0  0  0  0  0  0  0  0
  160.1870  202.0250  149.8100 C   0  0  0  0  0  0  0  0  0  0  0  0
  160.9290  201.7360  150.9450 F   0  0  0  0  0  0  0  0  0  0  0  0
  161.1700  204.7030  151.5740 C   0  0  1  0  0  0  0  0  0  0  0  0
  162.3680  204.3280  150.9620 O   0  0  0  0  0  1  0  0  0  0  0  0
  160.4250  205.5970  150.7860 O   0  0  0  0  0  0  0  0  0  0  0  0
  159.8820  204.2990  150.9510 C   0  0  1  0  0  3  0  0  0  0  0  0
  161.1720  205.0470  153.0550 C   0  0  0  0  0  2  0  0  0  0  0  0
  160.7000  206.4750  153.3080 C   0  0  2  0  0  3  0  0  0  0  0  0
  161.7150  207.3720  152.9530 O   0  0  0  0  0  0  0  0  0  0  0  0
  161.1400  208.2830  152.1860 O   0  0  0  0  0  0  0  0  0  0  0  0
  160.9280  209.3980  153.0110 C   0  0  2  0  0  3  0  0  0  0  0  0
  159.4410  209.5230  153.2880 C   0  0  0  0  0  2  0  0  0  0  0  0
  160.0990  210.4450  152.2830 C   0  0  1  0  0  3  0  0  0  0  0  0
  159.6260  212.7220  152.6340 O   0  0  0  0  0  0  0  0  0  0  0  0
  160.3360  211.7720  152.9190 C   0  0  0  0  0  3  0  0  0  0  0  0
  160.4030  206.6620  154.7850 C   0  0  0  0  0  2  0  0  0  0  0  0
  161.6210  207.0000  155.5130 N   0  0  0  0  0  2  0  0  0  0  0  0
  161.3110  207.9690  156.5660 C   0  0  1  0  0  3  0  0  0  0  0  0
  162.4710  208.3240  157.2600 O   0  0  0  0  0  1  0  0  0  0  0  0
  159.6920  209.6250  157.0080 C   0  0  1  0  0  3  0  0  0  0  0  0
  161.0020  210.2900  156.8880 C   0  0  1  0  0  3  0  0  0  0  0  0
  158.6640  210.3180  156.3610 O   0  0  0  0  0  1  0  0  0  0  0  0
  160.6680  209.1560  156.0110 N   0  0  0  0  0  0  0  0  0  0  0  0
  160.9990  211.5750  156.0700 C   0  0  0  0  0  2  0  0  0  0  0  0
  160.9660  212.6780  156.9220 O   0  0  0  0  0  0  0  0  0  0  0  0
  159.9290  213.4710  156.4290 C   0  0  0  0  0  1  0  0  0  0  0  0
  160.0350  204.4170  145.5160 C   0  0  0  0  0  2  0  0  0  0  0  0
  161.5110  204.8110  145.4540 C   0  0  2  0  0  3  0  0  0  0  0  0
  161.7780  206.2570  145.9000 C   0  0  2  0  0  3  0  0  0  0  0  0
  163.1570  206.4790  146.0090 O   0  0  0  0  0  0  0  0  0  0  0  0
  164.1710  204.1370  146.6490 O   0  0  0  0  0  0  0  0  0  0  0  0
  163.7020  205.4470  147.2430 P   0  0  1  0  0  0  0  0  0  0  0  0
  165.0890  206.2360  148.1050 C   0  0  0  0  0  1  0  0  0  0  0  0
  162.4590  205.1510  148.3550 O   0  0  0  0  0  1  0  0  0  0  0  0
  161.0860  206.6080  147.2120 C   0  0  0  0  0  2  0  0  0  0  0  0
  161.8450  208.4760  148.5960 C   0  0  0  0  0  3  0  0  0  0  0  0
  161.2380  208.0600  147.4900 C   0  0  0  0  0  3  0  0  0  0  0  0
  162.0050  210.3460  150.1750 C   0  0  0  0  0  2  0  0  0  0  0  0
  162.0100  209.9020  148.9200 C   0  0  0  0  0  0  0  0  0  0  0  0
  162.3240  211.0580  147.5980 S   0  0  0  0  0  0  0  0  0  0  0  0
  160.6750  211.8170  147.7410 C   0  0  0  0  0  2  0  0  0  0  0  0
  160.6860  214.1990  147.7670 O   0  0  0  0  0  0  0  0  0  0  0  0
  160.6690  213.1470  147.0740 C   0  0  0  0  0  0  0  0  0  0  0  0
  160.6830  213.2310  145.6530 N   0  0  0  0  0  1  0  0  0  0  0  0
  162.2400  204.4340  143.8210 S   0  0  0  0  0  0  0  0  0  0  0  0
  161.7980  206.0530  143.1270 C   0  0  0  0  0  2  0  0  0  0  0  0
  161.4150  205.8910  141.6720 C   0  0  0  0  0  2  0  0  0  0  0  0
  162.3220  206.7500  140.8130 C   0  0  0  0  0  2  0  0  0  0  0  0
  161.7890  208.1040  140.7270 N   0  0  0  0  0  2  0  0  0  0  0  0
  160.7820  207.9990  138.2530 S   0  0  0  0  0  0  0  0  0  0  0  0
  161.5290  208.7800  139.4940 C   0  0  0  0  0  0  0  0  0  0  0  0
  161.9900  210.1290  139.3400 N   0  0  0  0  0  2  0  0  0  0  0  0
  161.2620  211.2980  139.8180 C   0  0  2  0  0  3  0  0  0  0  0  0
  159.0950  213.4810  140.0510 C   0  0  0  0  0  1  0  0  0  0  0  0
  160.0400  211.5330  138.9630 C   0  0  2  0  0  3  0  0  0  0  0  0
  159.8180  212.9820  138.8810 N   0  0  0  0  0  0  0  0  0  0  0  0
  161.1550  213.5590  138.9570 C   0  0  0  0  0  2  0  0  0  0  0  0
  162.0870  212.5490  139.6170 C   0  0  0  0  0  2  0  0  0  0  0  0
  158.8270  210.7330  139.4360 C   0  0  0  0  0  1  0  0  0  0  0  0
  1  2  1  0  0  0  0
  3  2  1  6  0  0  0
  3  5  1  0  0  0  0
  3  7  1  0  0  0  0
  5  8  1  0  0  0  0
  6  7  1  6  0  0  0
  6  8  1  0  0  0  0
  6 13  1  0  0  0  0
  8  4  1  0  0  0  0
  8  9  1  0  0  0  0
 10 11  1  6  0  0  0
 10 14  1  0  0  0  0
 12 10  1  0  0  0  0
 13 12  1  6  0  0  0
 13 10  1  0  0  0  0
 15 14  1  1  0  0  0
 15 23  1  0  0  0  0
 16 15  1  0  0  0  0
 17 16  1  0  0  0  0
 18 17  1  6  0  0  0
 18 19  1  0  0  0  0
 20 22  1  1  0  0  0
 20 18  1  0  0  0  0
 20 19  1  0  0  0  0
 21 22  2  0  0  0  0
 23 24  1  0  0  0  0
 24 25  1  0  0  0  0
 25 26  1  6  0  0  0
 27 29  1  6  0  0  0
 28 31  1  6  0  0  0
 28 27  1  0  0  0  0
 30 25  1  0  0  0  0
 30 28  1  0  0  0  0
 30 27  1  0  0  0  0
 31 32  1  0  0  0  0
 33 32  1  0  0  0  0
 34  1  1  0  0  0  0
 35 34  1  6  0  0  0
 35 36  1  0  0  0  0
 36 37  1  0  0  0  0
 36 42  1  1  0  0  0
 37 39  1  0  0  0  0
 38 39  2  0  0  0  0
 39 40  1  1  0  0  0
 39 41  1  0  0  0  0
 42 44  1  0  0  0  0
 43 46  1  0  0  0  0
 44 43  2  0  0  0  0
 46 45  2  0  0  0  0
 47 48  1  0  0  0  0
 47 46  1  0  0  0  0
 50 48  1  0  0  0  0
 50 49  2  0  0  0  0
 51 50  1  0  0  0  0
 52 35  1  0  0  0  0
 53 52  1  0  0  0  0
 54 53  1  0  0  0  0
 55 54  1  0  0  0  0
 56 55  1  0  0  0  0
 57 58  2  0  0  0  0
 58 56  1  0  0  0  0
 59 58  1  0  0  0  0
 60 59  1  6  0  0  0
 62 66  1  1  0  0  0
 62 60  1  0  0  0  0
 63 64  1  0  0  0  0
 63 62  1  0  0  0  0
 63 61  1  0  0  0  0
 64 65  1  0  0  0  0
 65 60  1  0  0  0  0
M  END
>  <MODEL>
1

>  <REMARK>
 VINA RESULT:       2.7      0.000      0.000
  Name = 
  34 active torsions:
  status: ('A' for Active; 'I' for Inactive)
    1  A    between atoms: O_2  and  C_47
    2  A    between atoms: C_4  and  C_40
    3  A    between atoms: O_6  and  C_20
    4  A    between atoms: O_6  and  C_38
    5  A    between atoms: N_7  and  C_12
    6  A    between atoms: N_7  and  C_36
    7  A    between atoms: C_8  and  N_21
    8  A    between atoms: C_9  and  O_17
    9  A    between atoms: C_10  and  C_33
   10  A    between atoms: C_10  and  C_60
   11  A    between atoms: C_12  and  N_48
   12  A    between atoms: C_16  and  C_24
   13  A    between atoms: O_17  and  O_57
   14  A    between atoms: C_18  and  C_47
   15  A    between atoms: C_19  and  C_45
   16  A    between atoms: C_20  and  C_34
   17  A    between atoms: N_21  and  C_25
   18  A    between atoms: C_22  and  C_38
   19  A    between atoms: C_23  and  C_36
   20  A    between atoms: C_23  and  C_40
   21  A    between atoms: C_23  and  O_57
   22  A    between atoms: C_24  and  S_66
   23  A    between atoms: C_25  and  N_53
   24  A    between atoms: C_34  and  C_60
   25  A    between atoms: C_34  and  S_62
   26  A    between atoms: C_35  and  C_49
   27  A    between atoms: P_37  and  O_39
   28  A    between atoms: O_39  and  C_60
   29  A    between atoms: C_45  and  S_66
   30  A    between atoms: C_51  and  C_56
   31  A    between atoms: C_51  and  S_62
   32  A    between atoms: N_53  and  C_58
   33  A    between atoms: C_54  and  C_61
   34  A    between atoms: C_56  and  C_58
                            x       y       z     vdW  Elec       q    Type
                         _______ _______ _______ _____ _____    ______ ____

>  <TORSDO>
F 34

$$$$
=
 OpenBabel11072409503D

 66 70  0  0  1  0  0  0  0  0999 V2000
  160.8760  207.9940  147.7850 O   0  0  0  0  0  0  0  0  0  0  0  0
  161.6160  207.1120  146.9950 C   0  0  0  0  0  2  0  0  0  0  0  0
  160.7880  206.6600  145.8030 C   0  0  2  0  0  3  0  0  0  0  0  0
  161.5240  203.5520  144.8560 F   0  0  0  0  0  0  0  0  0  0  0  0
  160.5000  205.2820  145.9090 O   0  0  0  0  0  0  0  0  0  0  0  0
  161.7130  205.7450  144.0000 C   0  0  1  0  0  3  0  0  0  0  0  0
  161.4510  206.9750  144.5980 O   0  0  0  0  0  0  0  0  0  0  0  0
  160.8310  204.7330  144.6730 C   0  0  0  0  0  0  0  0  0  0  0  0
  159.6710  204.4860  143.9550 F   0  0  0  0  0  0  0  0  0  0  0  0
  161.6090  207.0730  141.7890 C   0  0  1  0  0  0  0  0  0  0  0  0
  161.6420  208.2300  142.5710 O   0  0  0  0  0  1  0  0  0  0  0  0
  162.7940  206.3240  141.8950 O   0  0  0  0  0  0  0  0  0  0  0  0
  161.6300  205.7470  142.4600 C   0  0  1  0  0  3  0  0  0  0  0  0
  161.0580  207.1510  140.3740 C   0  0  0  0  0  2  0  0  0  0  0  0
  161.9240  208.0260  139.4740 C   0  0  2  0  0  3  0  0  0  0  0  0
  162.3910  209.1270  140.2020 O   0  0  0  0  0  0  0  0  0  0  0  0
  161.5290  210.1040  139.9710 O   0  0  0  0  0  0  0  0  0  0  0  0
  161.7410  211.0480  140.9860 C   0  0  2  0  0  3  0  0  0  0  0  0
  160.3930  211.5420  141.4800 C   0  0  0  0  0  2  0  0  0  0  0  0
  161.2210  212.4110  140.5570 C   0  0  1  0  0  3  0  0  0  0  0  0
  162.6170  213.1460  142.3020 O   0  0  0  0  0  0  0  0  0  0  0  0
  161.9080  213.4620  141.3600 C   0  0  0  0  0  3  0  0  0  0  0  0
  161.0940  208.5470  138.3150 C   0  0  0  0  0  2  0  0  0  0  0  0
  160.1750  209.5850  138.7680 N   0  0  0  0  0  2  0  0  0  0  0  0
  159.1400  209.8030  137.7560 C   0  0  1  0  0  3  0  0  0  0  0  0
  158.9290  208.6360  137.0160 O   0  0  0  0  0  1  0  0  0  0  0  0
  157.2600  211.1880  137.4350 C   0  0  1  0  0  3  0  0  0  0  0  0
  156.7900  209.7940  137.5090 C   0  0  1  0  0  3  0  0  0  0  0  0
  156.4520  212.0790  138.1470 O   0  0  0  0  0  1  0  0  0  0  0  0
  157.8930  210.2460  138.3720 N   0  0  0  0  0  0  0  0  0  0  0  0
  155.5440  209.5790  138.3590 C   0  0  0  0  0  2  0  0  0  0  0  0
  154.4140  209.9940  137.6560 O   0  0  0  0  0  0  0  0  0  0  0  0
  153.4660  209.0000  137.8960 C   0  0  0  0  0  1  0  0  0  0  0  0
  161.8250  208.7010  148.5260 C   0  0  0  0  0  2  0  0  0  0  0  0
  161.7580  208.3200  150.0050 C   0  0  2  0  0  3  0  0  0  0  0  0
  161.7290  209.5310  150.9490 C   0  0  2  0  0  3  0  0  0  0  0  0
  160.4120  209.9790  151.1160 O   0  0  0  0  0  0  0  0  0  0  0  0
  159.1160  211.3710  152.9350 O   0  0  0  0  0  0  0  0  0  0  0  0
  160.2680  210.4060  152.7550 P   0  0  1  0  0  0  0  0  0  0  0  0
  159.9450  208.9110  153.7290 C   0  0  0  0  0  1  0  0  0  0  0  0
  161.6990  211.1240  153.3040 O   0  0  0  0  0  1  0  0  0  0  0  0
  162.6140  210.6760  150.4700 C   0  0  0  0  0  2  0  0  0  0  0  0
  160.9640  212.2610  149.6070 C   0  0  0  0  0  3  0  0  0  0  0  0
  161.8630  211.9560  150.5370 C   0  0  0  0  0  3  0  0  0  0  0  0
  159.7940  214.0840  150.7580 C   0  0  0  0  0  2  0  0  0  0  0  0
  160.2040  213.5220  149.6240 C   0  0  0  0  0  0  0  0  0  0  0  0
  159.9100  214.3730  148.0840 S   0  0  0  0  0  0  0  0  0  0  0  0
  158.3220  213.5250  147.8080 C   0  0  0  0  0  2  0  0  0  0  0  0
  157.3850  212.2650  146.0160 O   0  0  0  0  0  0  0  0  0  0  0  0
  158.4260  212.6230  146.6290 C   0  0  0  0  0  0  0  0  0  0  0  0
  159.7040  212.1970  146.1680 N   0  0  0  0  0  1  0  0  0  0  0  0
  163.0570  207.1140  150.4490 S   0  0  0  0  0  0  0  0  0  0  0  0
  161.9860  205.6800  150.1370 C   0  0  0  0  0  2  0  0  0  0  0  0
  160.9070  205.6150  151.1950 C   0  0  0  0  0  2  0  0  0  0  0  0
  160.0090  204.4240  150.9290 C   0  0  0  0  0  2  0  0  0  0  0  0
  160.7520  203.3920  150.2170 N   0  0  0  0  0  2  0  0  0  0  0  0
  161.4760  202.1440  152.4670 S   0  0  0  0  0  0  0  0  0  0  0  0
  161.2630  202.2080  150.8370 C   0  0  0  0  0  0  0  0  0  0  0  0
  161.6430  201.1050  150.0040 N   0  0  0  0  0  2  0  0  0  0  0  0
  161.7380  201.1770  148.5510 C   0  0  2  0  0  3  0  0  0  0  0  0
  160.9840  201.7220  145.6100 C   0  0  0  0  0  1  0  0  0  0  0  0
  160.4510  201.7170  147.9740 C   0  0  2  0  0  3  0  0  0  0  0  0
  160.2300  201.0650  146.6770 N   0  0  0  0  0  0  0  0  0  0  0  0
  160.8200  199.7400  146.8310 C   0  0  0  0  0  2  0  0  0  0  0  0
  161.8400  199.7880  147.9620 C   0  0  0  0  0  2  0  0  0  0  0  0
  160.4220  203.2440  147.9270 C   0  0  0  0  0  1  0  0  0  0  0  0
  1 34  1  0  0  0  0
  2  1  1  0  0  0  0
  3  5  1  0  0  0  0
  3  2  1  1  0  0  0
  6  7  1  1  0  0  0
  6  8  1  0  0  0  0
  7  3  1  0  0  0  0
  8  4  1  0  0  0  0
  8  5  1  0  0  0  0
  9  8  1  0  0  0  0
 10 12  1  0  0  0  0
 10 13  1  0  0  0  0
 10 11  1  1  0  0  0
 13 12  1  6  0  0  0
 13  6  1  0  0  0  0
 14 10  1  0  0  0  0
 15 23  1  6  0  0  0
 15 16  1  0  0  0  0
 15 14  1  0  0  0  0
 17 16  1  0  0  0  0
 18 17  1  6  0  0  0
 18 19  1  0  0  0  0
 20 18  1  0  0  0  0
 20 22  1  1  0  0  0
 20 19  1  0  0  0  0
 22 21  2  0  0  0  0
 23 24  1  0  0  0  0
 25 26  1  1  0  0  0
 25 30  1  0  0  0  0
 25 24  1  0  0  0  0
 27 28  1  0  0  0  0
 27 29  1  1  0  0  0
 27 30  1  0  0  0  0
 28 31  1  1  0  0  0
 28 30  1  0  0  0  0
 32 33  1  0  0  0  0
 32 31  1  0  0  0  0
 35 34  1  6  0  0  0
 35 52  1  0  0  0  0
 35 36  1  0  0  0  0
 36 42  1  6  0  0  0
 36 37  1  0  0  0  0
 37 39  1  0  0  0  0
 39 38  2  0  0  0  0
 39 41  1  0  0  0  0
 39 40  1  1  0  0  0
 42 44  1  0  0  0  0
 43 46  1  0  0  0  0
 43 44  2  0  0  0  0
 46 45  2  0  0  0  0
 47 46  1  0  0  0  0
 48 47  1  0  0  0  0
 49 50  2  0  0  0  0
 50 48  1  0  0  0  0
 51 50  1  0  0  0  0
 53 52  1  0  0  0  0
 53 54  1  0  0  0  0
 55 54  1  0  0  0  0
 56 58  1  0  0  0  0
 56 55  1  0  0  0  0
 58 57  2  0  0  0  0
 59 58  1  0  0  0  0
 60 59  1  1  0  0  0
 61 63  1  0  0  0  0
 62 66  1  6  0  0  0
 62 60  1  0  0  0  0
 63 64  1  0  0  0  0
 63 62  1  0  0  0  0
 64 65  1  0  0  0  0
 65 60  1  0  0  0  0
M  END
>  <MODEL>
2

>  <REMARK>
 VINA RESULT:       4.3      4.311     11.646
  Name = 
  34 active torsions:
  status: ('A' for Active; 'I' for Inactive)
    1  A    between atoms: O_2  and  C_47
    2  A    between atoms: C_4  and  C_40
    3  A    between atoms: O_6  and  C_20
    4  A    between atoms: O_6  and  C_38
    5  A    between atoms: N_7  and  C_12
    6  A    between atoms: N_7  and  C_36
    7  A    between atoms: C_8  and  N_21
    8  A    between atoms: C_9  and  O_17
    9  A    between atoms: C_10  and  C_33
   10  A    between atoms: C_10  and  C_60
   11  A    between atoms: C_12  and  N_48
   12  A    between atoms: C_16  and  C_24
   13  A    between atoms: O_17  and  O_57
   14  A    between atoms: C_18  and  C_47
   15  A    between atoms: C_19  and  C_45
   16  A    between atoms: C_20  and  C_34
   17  A    between atoms: N_21  and  C_25
   18  A    between atoms: C_22  and  C_38
   19  A    between atoms: C_23  and  C_36
   20  A    between atoms: C_23  and  C_40
   21  A    between atoms: C_23  and  O_57
   22  A    between atoms: C_24  and  S_66
   23  A    between atoms: C_25  and  N_53
   24  A    between atoms: C_34  and  C_60
   25  A    between atoms: C_34  and  S_62
   26  A    between atoms: C_35  and  C_49
   27  A    between atoms: P_37  and  O_39
   28  A    between atoms: O_39  and  C_60
   29  A    between atoms: C_45  and  S_66
   30  A    between atoms: C_51  and  C_56
   31  A    between atoms: C_51  and  S_62
   32  A    between atoms: N_53  and  C_58
   33  A    between atoms: C_54  and  C_61
   34  A    between atoms: C_56  and  C_58
                            x       y       z     vdW  Elec       q    Type
                         _______ _______ _______ _____ _____    ______ ____

>  <TORSDO>
F 34

$$$$
=
 OpenBabel11072409503D

 66 70  0  0  1  0  0  0  0  0999 V2000
  160.8420  207.9720  147.9320 O   0  0  0  0  0  0  0  0  0  0  0  0
  161.6050  207.1380  147.1120 C   0  0  0  0  0  2  0  0  0  0  0  0
  160.7750  206.6780  145.9230 C   0  0  2  0  0  3  0  0  0  0  0  0
  161.4830  203.5490  145.0220 F   0  0  0  0  0  0  0  0  0  0  0  0
  160.4730  205.3040  146.0470 O   0  0  0  0  0  0  0  0  0  0  0  0
  161.6970  205.7290  144.1360 C   0  0  1  0  0  3  0  0  0  0  0  0
  161.4450  206.9690  144.7160 O   0  0  0  0  0  0  0  0  0  0  0  0
  160.8030  204.7350  144.8200 C   0  0  0  0  0  0  0  0  0  0  0  0
  159.6420  204.4890  144.1020 F   0  0  0  0  0  0  0  0  0  0  0  0
  161.4730  207.0230  141.9140 C   0  0  1  0  0  0  0  0  0  0  0  0
  161.3940  208.1840  142.6860 O   0  0  0  0  0  1  0  0  0  0  0  0
  162.7240  206.3900  142.0280 O   0  0  0  0  0  0  0  0  0  0  0  0
  161.6180  205.7090  142.5960 C   0  0  1  0  0  3  0  0  0  0  0  0
  160.9210  207.0360  140.4970 C   0  0  0  0  0  2  0  0  0  0  0  0
  161.7040  207.9810  139.5910 C   0  0  2  0  0  3  0  0  0  0  0  0
  162.3090  208.9770  140.3660 O   0  0  0  0  0  0  0  0  0  0  0  0
  162.4580  210.0180  139.5650 O   0  0  0  0  0  0  0  0  0  0  0  0
  162.0030  211.1280  140.2910 C   0  0  2  0  0  3  0  0  0  0  0  0
  161.7020  212.2550  139.3200 C   0  0  0  0  0  2  0  0  0  0  0  0
  162.9730  212.2910  140.1430 C   0  0  1  0  0  3  0  0  0  0  0  0
  163.4890  214.2120  141.3980 O   0  0  0  0  0  0  0  0  0  0  0  0
  162.7850  213.2210  141.2920 C   0  0  0  0  0  3  0  0  0  0  0  0
  160.7560  208.6560  138.6160 C   0  0  0  0  0  2  0  0  0  0  0  0
  159.4670  208.9130  139.2480 N   0  0  0  0  0  2  0  0  0  0  0  0
  158.6110  209.6690  138.3320 C   0  0  1  0  0  3  0  0  0  0  0  0
  158.2010  208.8600  137.2690 O   0  0  0  0  0  1  0  0  0  0  0  0
  156.9180  211.3040  138.1960 C   0  0  1  0  0  3  0  0  0  0  0  0
  156.2730  209.9790  138.1830 C   0  0  1  0  0  3  0  0  0  0  0  0
  156.2550  212.2300  139.0070 O   0  0  0  0  0  1  0  0  0  0  0  0
  157.4530  210.2160  139.0310 N   0  0  0  0  0  0  0  0  0  0  0  0
  155.0380  209.8560  139.0660 C   0  0  0  0  0  2  0  0  0  0  0  0
  153.8970  209.7450  138.2700 O   0  0  0  0  0  0  0  0  0  0  0  0
  154.3610  209.2180  137.0640 C   0  0  0  0  0  1  0  0  0  0  0  0
  161.7550  208.5260  148.8320 C   0  0  0  0  0  2  0  0  0  0  0  0
  161.3810  208.1800  150.2730 C   0  0  2  0  0  3  0  0  0  0  0  0
  161.4730  209.3750  151.2340 C   0  0  2  0  0  3  0  0  0  0  0  0
  161.9490  208.9520  152.4810 O   0  0  0  0  0  0  0  0  0  0  0  0
  161.9990  211.5760  152.6760 O   0  0  0  0  0  0  0  0  0  0  0  0
  161.8720  210.3120  153.4970 P   0  0  1  0  0  0  0  0  0  0  0  0
  160.2720  210.3200  154.3520 C   0  0  0  0  0  1  0  0  0  0  0  0
  163.1120  210.2580  154.6490 O   0  0  0  0  0  1  0  0  0  0  0  0
  160.1440  210.1040  151.4000 C   0  0  0  0  0  2  0  0  0  0  0  0
  159.5450  212.4310  150.9450 C   0  0  0  0  0  3  0  0  0  0  0  0
  160.1170  211.3060  150.5270 C   0  0  0  0  0  3  0  0  0  0  0  0
  158.3380  214.2750  149.8690 C   0  0  0  0  0  2  0  0  0  0  0  0
  159.4830  213.6430  150.1130 C   0  0  0  0  0  0  0  0  0  0  0  0
  161.0030  214.3440  149.4930 S   0  0  0  0  0  0  0  0  0  0  0  0
  160.8020  213.5720  147.8560 C   0  0  0  0  0  2  0  0  0  0  0  0
  163.0730  212.8500  147.8460 O   0  0  0  0  0  0  0  0  0  0  0  0
  162.1320  213.3980  147.2110 C   0  0  0  0  0  0  0  0  0  0  0  0
  162.3310  213.8120  145.8640 N   0  0  0  0  0  1  0  0  0  0  0  0
  162.3010  206.7210  150.8750 S   0  0  0  0  0  0  0  0  0  0  0  0
  161.1940  205.5430  150.0470 C   0  0  0  0  0  2  0  0  0  0  0  0
  160.2340  204.9550  151.0580 C   0  0  0  0  0  2  0  0  0  0  0  0
  159.7100  203.6290  150.5440 C   0  0  0  0  0  2  0  0  0  0  0  0
  160.7680  202.9140  149.8420 N   0  0  0  0  0  2  0  0  0  0  0  0
  160.0660  200.3700  149.4190 S   0  0  0  0  0  0  0  0  0  0  0  0
  160.5290  201.8620  148.9030 C   0  0  0  0  0  0  0  0  0  0  0  0
  160.7640  202.1170  147.5120 N   0  0  0  0  0  2  0  0  0  0  0  0
  161.3080  201.1340  146.5840 C   0  0  2  0  0  3  0  0  0  0  0  0
  161.4810  198.7050  144.6890 C   0  0  0  0  0  1  0  0  0  0  0  0
  160.2520  200.1130  146.2310 C   0  0  2  0  0  3  0  0  0  0  0  0
  160.9200  198.8210  146.0360 N   0  0  0  0  0  0  0  0  0  0  0  0
  162.0600  198.8600  146.9450 C   0  0  0  0  0  2  0  0  0  0  0  0
  162.3860  200.3160  147.2570 C   0  0  0  0  0  2  0  0  0  0  0  0
  159.3740  200.5540  145.0620 C   0  0  0  0  0  1  0  0  0  0  0  0
  1 34  1  0  0  0  0
  2  1  1  0  0  0  0
  3  5  1  0  0  0  0
  3  2  1  1  0  0  0
  6  7  1  1  0  0  0
  6  8  1  0  0  0  0
  7  3  1  0  0  0  0
  8  4  1  0  0  0  0
  8  5  1  0  0  0  0
  9  8  1  0  0  0  0
 10 12  1  0  0  0  0
 10 13  1  0  0  0  0
 10 11  1  1  0  0  0
 13 12  1  6  0  0  0
 13  6  1  0  0  0  0
 14 10  1  0  0  0  0
 15 23  1  6  0  0  0
 15 16  1  0  0  0  0
 15 14  1  0  0  0  0
 17 16  1  0  0  0  0
 18 17  1  6  0  0  0
 19 20  1  0  0  0  0
 19 18  1  0  0  0  0
 20 18  1  0  0  0  0
 20 22  1  1  0  0  0
 22 21  2  0  0  0  0
 23 24  1  0  0  0  0
 25 26  1  6  0  0  0
 25 30  1  0  0  0  0
 25 24  1  0  0  0  0
 27 29  1  1  0  0  0
 27 30  1  0  0  0  0
 28 27  1  0  0  0  0
 28 30  1  0  0  0  0
 28 31  1  1  0  0  0
 32 31  1  0  0  0  0
 33 32  1  0  0  0  0
 35 34  1  6  0  0  0
 35 52  1  0  0  0  0
 35 36  1  0  0  0  0
 36 42  1  1  0  0  0
 36 37  1  0  0  0  0
 37 39  1  0  0  0  0
 38 39  2  0  0  0  0
 39 40  1  1  0  0  0
 39 41  1  0  0  0  0
 44 43  2  0  0  0  0
 44 42  1  0  0  0  0
 45 46  2  0  0  0  0
 46 43  1  0  0  0  0
 47 46  1  0  0  0  0
 48 47  1  0  0  0  0
 50 49  2  0  0  0  0
 50 48  1  0  0  0  0
 51 50  1  0  0  0  0
 53 52  1  0  0  0  0
 53 54  1  0  0  0  0
 55 54  1  0  0  0  0
 56 55  1  0  0  0  0
 58 57  2  0  0  0  0
 58 56  1  0  0  0  0
 59 58  1  0  0  0  0
 60 65  1  0  0  0  0
 60 59  1  1  0  0  0
 61 63  1  0  0  0  0
 62 66  1  6  0  0  0
 62 60  1  0  0  0  0
 63 62  1  0  0  0  0
 63 64  1  0  0  0  0
 64 65  1  0  0  0  0
M  END
>  <MODEL>
3

>  <REMARK>
 VINA RESULT:       4.4      4.401     11.587
  Name = 
  34 active torsions:
  status: ('A' for Active; 'I' for Inactive)
    1  A    between atoms: O_2  and  C_47
    2  A    between atoms: C_4  and  C_40
    3  A    between atoms: O_6  and  C_20
    4  A    between atoms: O_6  and  C_38
    5  A    between atoms: N_7  and  C_12
    6  A    between atoms: N_7  and  C_36
    7  A    between atoms: C_8  and  N_21
    8  A    between atoms: C_9  and  O_17
    9  A    between atoms: C_10  and  C_33
   10  A    between atoms: C_10  and  C_60
   11  A    between atoms: C_12  and  N_48
   12  A    between atoms: C_16  and  C_24
   13  A    between atoms: O_17  and  O_57
   14  A    between atoms: C_18  and  C_47
   15  A    between atoms: C_19  and  C_45
   16  A    between atoms: C_20  and  C_34
   17  A    between atoms: N_21  and  C_25
   18  A    between atoms: C_22  and  C_38
   19  A    between atoms: C_23  and  C_36
   20  A    between atoms: C_23  and  C_40
   21  A    between atoms: C_23  and  O_57
   22  A    between atoms: C_24  and  S_66
   23  A    between atoms: C_25  and  N_53
   24  A    between atoms: C_34  and  C_60
   25  A    between atoms: C_34  and  S_62
   26  A    between atoms: C_35  and  C_49
   27  A    between atoms: P_37  and  O_39
   28  A    between atoms: O_39  and  C_60
   29  A    between atoms: C_45  and  S_66
   30  A    between atoms: C_51  and  C_56
   31  A    between atoms: C_51  and  S_62
   32  A    between atoms: N_53  and  C_58
   33  A    between atoms: C_54  and  C_61
   34  A    between atoms: C_56  and  C_58
                            x       y       z     vdW  Elec       q    Type
                         _______ _______ _______ _____ _____    ______ ____

>  <TORSDO>
F 34

$$$$
=
 OpenBabel11072409503D

 66 71  0  0  1  0  0  0  0  0999 V2000
  159.8230  212.7820  148.4360 O   0  0  0  0  0  0  0  0  0  0  0  0
  158.6830  213.5820  148.3410 C   0  0  0  0  0  2  0  0  0  0  0  0
  158.5080  214.0720  146.9120 C   0  0  2  0  0  3  0  0  0  0  0  0
  155.8580  212.7080  145.4210 F   0  0  0  0  0  0  0  0  0  0  0  0
  157.1340  214.1700  146.5990 O   0  0  0  0  0  0  0  0  0  0  0  0
  158.2110  212.6720  145.2110 C   0  0  1  0  0  3  0  0  0  0  0  0
  159.2000  213.2290  146.0170 O   0  0  0  0  0  0  0  0  0  0  0  0
  156.9800  213.5150  145.3800 C   0  0  0  0  0  0  0  0  0  0  0  0
  156.8410  214.4530  144.3690 F   0  0  0  0  0  0  0  0  0  0  0  0
  159.7390  213.2760  143.2200 C   0  0  1  0  0  0  0  0  0  0  0  0
  160.3200  214.2340  144.0540 O   0  0  0  0  0  1  0  0  0  0  0  0
  159.9650  211.9650  143.6750 O   0  0  0  0  0  0  0  0  0  0  0  0
  158.6310  212.4360  143.7450 C   0  0  1  0  0  3  0  0  0  0  0  0
  159.8670  213.4330  141.7130 C   0  0  0  0  0  2  0  0  0  0  0  0
  160.6210  212.2660  141.0830 C   0  0  2  0  0  3  0  0  0  0  0  0
  161.9620  212.6230  140.8990 O   0  0  0  0  0  0  0  0  0  0  0  0
  162.5510  211.5590  140.3790 O   0  0  0  0  0  0  0  0  0  0  0  0
  161.5130  210.7030  139.9830 C   0  0  2  0  0  0  0  0  0  0  0  0
  161.7890  209.3150  140.5330 C   0  0  0  0  0  2  0  0  0  0  0  0
  162.0470  209.6100  139.0700 C   0  0  1  0  0  3  0  0  0  0  0  0
  160.3760  208.0280  138.5820 O   0  0  0  0  0  0  0  0  0  0  0  0
  160.9200  209.0710  138.2570 C   0  0  0  0  0  3  0  0  0  0  0  0
  160.0280  211.9510  139.7210 C   0  0  1  0  0  3  0  0  0  0  0  0
  158.6120  212.2970  139.6870 N   0  0  0  0  0  2  0  0  0  0  0  0
  158.4080  213.4490  138.8060 C   0  0  1  0  0  3  0  0  0  0  0  0
  158.4430  213.0510  137.4670 O   0  0  0  0  0  1  0  0  0  0  0  0
  156.1150  213.4910  138.2610 C   0  0  1  0  0  3  0  0  0  0  0  0
  156.2390  213.1110  139.6800 C   0  0  1  0  0  3  0  0  0  0  0  0
  155.0870  214.4080  138.0260 O   0  0  0  0  0  1  0  0  0  0  0  0
  157.1460  214.1170  139.1050 N   0  0  0  0  0  0  0  0  0  0  0  0
  155.2560  213.8000  140.6180 C   0  0  0  0  0  2  0  0  0  0  0  0
  154.0730  213.0650  140.6860 O   0  0  0  0  0  0  0  0  0  0  0  0
  153.0610  214.0240  140.6380 C   0  0  0  0  0  1  0  0  0  0  0  0
  159.3440  211.4720  148.4710 C   0  0  0  0  0  2  0  0  0  0  0  0
  160.3760  210.5290  149.0900 C   0  0  2  0  0  3  0  0  0  0  0  0
  161.7300  211.2000  149.3670 C   0  0  2  0  0  3  0  0  0  0  0  0
  162.5320  211.1580  148.2200 O   0  0  0  0  0  0  0  0  0  0  0  0
  164.2450  212.3210  149.8430 O   0  0  0  0  0  1  0  0  0  0  0  0
  163.7110  212.3640  148.4280 P   0  0  1  0  0  0  0  0  0  0  0  0
  165.0740  212.0630  147.2710 C   0  0  0  0  0  1  0  0  0  0  0  0
  163.0510  213.8920  148.1180 O   0  0  0  0  0  0  0  0  0  0  0  0
  162.4680  210.5760  150.5460 C   0  0  0  0  0  2  0  0  0  0  0  0
  161.4150  209.8530  152.6310 C   0  0  0  0  0  3  0  0  0  0  0  0
  161.7270  210.8460  151.8050 C   0  0  0  0  0  3  0  0  0  0  0  0
  160.4210  209.0780  154.7360 C   0  0  0  0  0  2  0  0  0  0  0  0
  160.6720  210.0690  153.8830 C   0  0  0  0  0  0  0  0  0  0  0  0
  160.1780  211.7270  154.3200 S   0  0  0  0  0  0  0  0  0  0  0  0
  158.4920  211.4980  153.6720 C   0  0  0  0  0  2  0  0  0  0  0  0
  158.0370  213.8300  153.4960 O   0  0  0  0  0  0  0  0  0  0  0  0
  157.6730  212.7100  153.9450 C   0  0  0  0  0  0  0  0  0  0  0  0
  156.4590  212.6000  154.6800 N   0  0  0  0  0  1  0  0  0  0  0  0
  160.5410  208.9860  148.1250 S   0  0  0  0  0  0  0  0  0  0  0  0
  161.8680  208.3370  149.1830 C   0  0  0  0  0  2  0  0  0  0  0  0
  161.2630  207.6340  150.3780 C   0  0  0  0  0  2  0  0  0  0  0  0
  162.2910  206.7040  150.9910 C   0  0  0  0  0  2  0  0  0  0  0  0
  161.7040  205.3890  151.2080 N   0  0  0  0  0  2  0  0  0  0  0  0
  160.2920  203.2140  150.5570 S   0  0  0  0  0  0  0  0  0  0  0  0
  161.0010  204.6550  150.2010 C   0  0  0  0  0  0  0  0  0  0  0  0
  160.9810  205.1720  148.8640 N   0  0  0  0  0  2  0  0  0  0  0  0
  161.5480  204.4780  147.7140 C   0  0  2  0  0  3  0  0  0  0  0  0
  161.8340  203.3040  144.8760 C   0  0  0  0  0  1  0  0  0  0  0  0
  160.5640  204.4840  146.5680 C   0  0  2  0  0  3  0  0  0  0  0  0
  160.7250  203.2270  145.8270 N   0  0  0  0  0  0  0  0  0  0  0  0
  161.1290  202.2580  146.8400 C   0  0  0  0  0  2  0  0  0  0  0  0
  161.7280  203.0090  148.0230 C   0  0  0  0  0  2  0  0  0  0  0  0
  160.6690  205.7430  145.7090 C   0  0  0  0  0  1  0  0  0  0  0  0
  1 34  1  0  0  0  0
  2  1  1  0  0  0  0
  3  2  1  1  0  0  0
  5  3  1  0  0  0  0
  6  8  1  0  0  0  0
  6  7  1  1  0  0  0
  7  3  1  0  0  0  0
  8  4  1  0  0  0  0
  8  5  1  0  0  0  0
  9  8  1  0  0  0  0
 10 12  1  0  0  0  0
 10 13  1  0  0  0  0
 10 11  1  1  0  0  0
 13 12  1  1  0  0  0
 13  6  1  0  0  0  0
 14 10  1  0  0  0  0
 15 14  1  6  0  0  0
 16 15  1  0  0  0  0
 17 16  1  0  0  0  0
 18 17  1  0  0  0  0
 18 19  1  1  0  0  0
 20 22  1  6  0  0  0
 20 18  1  0  0  0  0
 20 19  1  0  0  0  0
 22 21  2  0  0  0  0
 23 24  1  1  0  0  0
 23 18  1  0  0  0  0
 23 15  1  0  0  0  0
 25 26  1  6  0  0  0
 25 30  1  0  0  0  0
 25 24  1  0  0  0  0
 27 29  1  1  0  0  0
 27 30  1  0  0  0  0
 27 28  1  0  0  0  0
 28 31  1  1  0  0  0
 30 28  1  0  0  0  0
 31 32  1  0  0  0  0
 33 32  1  0  0  0  0
 35 34  1  6  0  0  0
 35 36  1  0  0  0  0
 36 42  1  1  0  0  0
 37 39  1  0  0  0  0
 37 36  1  0  0  0  0
 39 40  1  6  0  0  0
 39 38  1  0  0  0  0
 41 39  2  0  0  0  0
 42 44  1  0  0  0  0
 43 46  1  0  0  0  0
 44 43  2  0  0  0  0
 46 47  1  0  0  0  0
 46 45  2  0  0  0  0
 48 50  1  0  0  0  0
 48 47  1  0  0  0  0
 49 50  2  0  0  0  0
 50 51  1  0  0  0  0
 52 35  1  0  0  0  0
 52 53  1  0  0  0  0
 53 54  1  0  0  0  0
 54 55  1  0  0  0  0
 55 56  1  0  0  0  0
 58 57  2  0  0  0  0
 58 56  1  0  0  0  0
 59 58  1  0  0  0  0
 60 65  1  0  0  0  0
 60 59  1  1  0  0  0
 61 63  1  0  0  0  0
 62 66  1  6  0  0  0
 62 60  1  0  0  0  0
 63 62  1  0  0  0  0
 63 64  1  0  0  0  0
 64 65  1  0  0  0  0
M  END
>  <MODEL>
4

>  <REMARK>
 VINA RESULT:       4.5      4.787     12.060
  Name = 
  34 active torsions:
  status: ('A' for Active; 'I' for Inactive)
    1  A    between atoms: O_2  and  C_47
    2  A    between atoms: C_4  and  C_40
    3  A    between atoms: O_6  and  C_20
    4  A    between atoms: O_6  and  C_38
    5  A    between atoms: N_7  and  C_12
    6  A    between atoms: N_7  and  C_36
    7  A    between atoms: C_8  and  N_21
    8  A    between atoms: C_9  and  O_17
    9  A    between atoms: C_10  and  C_33
   10  A    between atoms: C_10  and  C_60
   11  A    between atoms: C_12  and  N_48
   12  A    between atoms: C_16  and  C_24
   13  A    between atoms: O_17  and  O_57
   14  A    between atoms: C_18  and  C_47
   15  A    between atoms: C_19  and  C_45
   16  A    between atoms: C_20  and  C_34
   17  A    between atoms: N_21  and  C_25
   18  A    between atoms: C_22  and  C_38
   19  A    between atoms: C_23  and  C_36
   20  A    between atoms: C_23  and  C_40
   21  A    between atoms: C_23  and  O_57
   22  A    between atoms: C_24  and  S_66
   23  A    between atoms: C_25  and  N_53
   24  A    between atoms: C_34  and  C_60
   25  A    between atoms: C_34  and  S_62
   26  A    between atoms: C_35  and  C_49
   27  A    between atoms: P_37  and  O_39
   28  A    between atoms: O_39  and  C_60
   29  A    between atoms: C_45  and  S_66
   30  A    between atoms: C_51  and  C_56
   31  A    between atoms: C_51  and  S_62
   32  A    between atoms: N_53  and  C_58
   33  A    between atoms: C_54  and  C_61
   34  A    between atoms: C_56  and  C_58
                            x       y       z     vdW  Elec       q    Type
                         _______ _______ _______ _____ _____    ______ ____

>  <TORSDO>
F 34

$$$$
=
 OpenBabel11072409503D

 66 70  0  0  1  0  0  0  0  0999 V2000
  159.7910  212.7180  148.4130 O   0  0  0  0  0  0  0  0  0  0  0  0
  158.5730  213.3970  148.3460 C   0  0  0  0  0  2  0  0  0  0  0  0
  158.3810  213.9860  146.9570 C   0  0  2  0  0  3  0  0  0  0  0  0
  155.9060  212.5080  145.2860 F   0  0  0  0  0  0  0  0  0  0  0  0
  157.0110  213.9800  146.6140 O   0  0  0  0  0  0  0  0  0  0  0  0
  158.2550  212.7110  145.1400 C   0  0  1  0  0  3  0  0  0  0  0  0
  159.1690  213.2900  146.0160 O   0  0  0  0  0  0  0  0  0  0  0  0
  156.9450  213.4170  145.3420 C   0  0  0  0  0  0  0  0  0  0  0  0
  156.7370  214.4200  144.4070 F   0  0  0  0  0  0  0  0  0  0  0  0
  159.8220  213.5600  143.2730 C   0  0  1  0  0  0  0  0  0  0  0  0
  160.3480  214.4420  144.2190 O   0  0  0  0  0  1  0  0  0  0  0  0
  160.0750  212.2150  143.5980 O   0  0  0  0  0  0  0  0  0  0  0  0
  158.7250  212.6390  143.6730 C   0  0  1  0  0  3  0  0  0  0  0  0
  159.9900  213.8740  141.7950 C   0  0  0  0  0  2  0  0  0  0  0  0
  160.5880  212.6980  141.0280 C   0  0  2  0  0  3  0  0  0  0  0  0
  161.9840  212.7950  141.0390 O   0  0  0  0  0  0  0  0  0  0  0  0
  162.3740  212.5170  139.8060 O   0  0  0  0  0  0  0  0  0  0  0  0
  163.7220  212.8990  139.7360 C   0  0  2  0  0  3  0  0  0  0  0  0
  163.8300  214.1460  138.8770 C   0  0  0  0  0  2  0  0  0  0  0  0
  164.2260  212.8000  138.3050 C   0  0  1  0  0  3  0  0  0  0  0  0
  166.3530  213.1750  139.2370 O   0  0  0  0  0  0  0  0  0  0  0  0
  165.7120  212.6780  138.3260 C   0  0  0  0  0  3  0  0  0  0  0  0
  160.1240  212.7420  139.5830 C   0  0  0  0  0  2  0  0  0  0  0  0
  159.1190  213.7820  139.3990 N   0  0  0  0  0  2  0  0  0  0  0  0
  157.8860  213.4020  140.0910 C   0  0  1  0  0  3  0  0  0  0  0  0
  157.4420  214.4470  140.9060 O   0  0  0  0  0  1  0  0  0  0  0  0
  157.4220  211.9960  138.2570 C   0  0  1  0  0  3  0  0  0  0  0  0
  156.5340  211.6050  139.3660 C   0  0  1  0  0  3  0  0  0  0  0  0
  156.7740  212.0290  137.0190 O   0  0  0  0  0  1  0  0  0  0  0  0
  156.8470  213.0250  139.1380 N   0  0  0  0  0  0  0  0  0  0  0  0
  155.0870  211.3410  138.9680 C   0  0  0  0  0  2  0  0  0  0  0  0
  154.3820  212.5430  138.9210 O   0  0  0  0  0  0  0  0  0  0  0  0
  154.8330  213.2580  140.0310 C   0  0  0  0  0  1  0  0  0  0  0  0
  159.4470  211.3760  148.5810 C   0  0  0  0  0  2  0  0  0  0  0  0
  160.6590  210.5530  149.0180 C   0  0  2  0  0  3  0  0  0  0  0  0
  161.9690  211.3560  149.0430 C   0  0  2  0  0  3  0  0  0  0  0  0
  162.6610  211.1830  147.8380 O   0  0  0  0  0  0  0  0  0  0  0  0
  164.2730  212.5610  146.2800 O   0  0  0  0  0  0  0  0  0  0  0  0
  163.6170  212.5740  147.6430 P   0  0  1  0  0  0  0  0  0  0  0  0
  162.5580  214.0410  147.7750 C   0  0  0  0  0  1  0  0  0  0  0  0
  164.8080  212.6440  148.8450 O   0  0  0  0  0  1  0  0  0  0  0  0
  162.8650  210.9890  150.2200 C   0  0  0  0  0  2  0  0  0  0  0  0
  162.5940  210.3300  152.5590 C   0  0  0  0  0  3  0  0  0  0  0  0
  162.0350  210.7490  151.4290 C   0  0  0  0  0  3  0  0  0  0  0  0
  161.3870  208.8470  154.0960 C   0  0  0  0  0  2  0  0  0  0  0  0
  161.8130  210.0670  153.7790 C   0  0  0  0  0  0  0  0  0  0  0  0
  161.5120  211.4080  154.9170 S   0  0  0  0  0  0  0  0  0  0  0  0
  159.8280  210.8310  155.3000 C   0  0  0  0  0  2  0  0  0  0  0  0
  159.4640  213.1440  155.7420 O   0  0  0  0  0  0  0  0  0  0  0  0
  158.9820  211.9810  155.7210 C   0  0  0  0  0  0  0  0  0  0  0  0
  157.6150  211.7720  156.0610 N   0  0  0  0  0  1  0  0  0  0  0  0
  160.8020  209.0040  148.0580 S   0  0  0  0  0  0  0  0  0  0  0  0
  162.5670  208.8020  148.4390 C   0  0  0  0  0  2  0  0  0  0  0  0
  162.7200  208.0260  149.7280 C   0  0  0  0  0  2  0  0  0  0  0  0
  163.5580  206.7880  149.4760 C   0  0  0  0  0  2  0  0  0  0  0  0
  162.8730  205.6110  149.9940 N   0  0  0  0  0  2  0  0  0  0  0  0
  160.4150  206.2810  150.8030 S   0  0  0  0  0  0  0  0  0  0  0  0
  161.4620  205.4020  149.8890 C   0  0  0  0  0  0  0  0  0  0  0  0
  160.9840  204.3670  149.0180 N   0  0  0  0  0  2  0  0  0  0  0  0
  161.6460  203.9720  147.7810 C   0  0  2  0  0  3  0  0  0  0  0  0
  162.3400  203.7950  144.7810 C   0  0  0  0  0  1  0  0  0  0  0  0
  160.9830  204.6410  146.6010 C   0  0  2  0  0  3  0  0  0  0  0  0
  161.0480  203.7160  145.4630 N   0  0  0  0  0  0  0  0  0  0  0  0
  160.9920  202.3900  146.0680 C   0  0  0  0  0  2  0  0  0  0  0  0
  161.4390  202.4980  147.5220 C   0  0  0  0  0  2  0  0  0  0  0  0
  161.5470  206.0320  146.3180 C   0  0  0  0  0  1  0  0  0  0  0  0
  1 34  1  0  0  0  0
  2  1  1  0  0  0  0
  3  2  1  1  0  0  0
  4  8  1  0  0  0  0
  5  3  1  0  0  0  0
  6  8  1  0  0  0  0
  6  7  1  1  0  0  0
  7  3  1  0  0  0  0
  8  5  1  0  0  0  0
  9  8  1  0  0  0  0
 10 12  1  0  0  0  0
 10 13  1  0  0  0  0
 10 11  1  1  0  0  0
 13 12  1  1  0  0  0
 13  6  1  0  0  0  0
 14 10  1  0  0  0  0
 15 23  1  6  0  0  0
 15 16  1  0  0  0  0
 15 14  1  0  0  0  0
 17 16  1  0  0  0  0
 18 17  1  6  0  0  0
 19 18  1  0  0  0  0
 20 22  1  1  0  0  0
 20 19  1  0  0  0  0
 20 18  1  0  0  0  0
 22 21  2  0  0  0  0
 24 23  1  0  0  0  0
 24 25  1  0  0  0  0
 25 26  1  6  0  0  0
 27 29  1  6  0  0  0
 27 30  1  0  0  0  0
 27 28  1  0  0  0  0
 28 31  1  6  0  0  0
 30 28  1  0  0  0  0
 30 25  1  0  0  0  0
 32 31  1  0  0  0  0
 32 33  1  0  0  0  0
 35 34  1  6  0  0  0
 35 36  1  0  0  0  0
 36 42  1  1  0  0  0
 37 36  1  0  0  0  0
 38 39  2  0  0  0  0
 39 40  1  1  0  0  0
 39 37  1  0  0  0  0
 39 41  1  0  0  0  0
 42 44  1  0  0  0  0
 43 46  1  0  0  0  0
 44 43  2  0  0  0  0
 46 45  2  0  0  0  0
 46 47  1  0  0  0  0
 47 48  1  0  0  0  0
 48 50  1  0  0  0  0
 50 49  2  0  0  0  0
 50 51  1  0  0  0  0
 52 53  1  0  0  0  0
 52 35  1  0  0  0  0
 53 54  1  0  0  0  0
 55 54  1  0  0  0  0
 55 56  1  0  0  0  0
 58 56  1  0  0  0  0
 58 57  2  0  0  0  0
 59 58  1  0  0  0  0
 60 59  1  1  0  0  0
 61 63  1  0  0  0  0
 62 66  1  6  0  0  0
 62 60  1  0  0  0  0
 63 64  1  0  0  0  0
 63 62  1  0  0  0  0
 64 65  1  0  0  0  0
 65 60  1  0  0  0  0
M  END
>  <MODEL>
5

>  <REMARK>
 VINA RESULT:       4.6      4.770     12.178
  Name = 
  34 active torsions:
  status: ('A' for Active; 'I' for Inactive)
    1  A    between atoms: O_2  and  C_47
    2  A    between atoms: C_4  and  C_40
    3  A    between atoms: O_6  and  C_20
    4  A    between atoms: O_6  and  C_38
    5  A    between atoms: N_7  and  C_12
    6  A    between atoms: N_7  and  C_36
    7  A    between atoms: C_8  and  N_21
    8  A    between atoms: C_9  and  O_17
    9  A    between atoms: C_10  and  C_33
   10  A    between atoms: C_10  and  C_60
   11  A    between atoms: C_12  and  N_48
   12  A    between atoms: C_16  and  C_24
   13  A    between atoms: O_17  and  O_57
   14  A    between atoms: C_18  and  C_47
   15  A    between atoms: C_19  and  C_45
   16  A    between atoms: C_20  and  C_34
   17  A    between atoms: N_21  and  C_25
   18  A    between atoms: C_22  and  C_38
   19  A    between atoms: C_23  and  C_36
   20  A    between atoms: C_23  and  C_40
   21  A    between atoms: C_23  and  O_57
   22  A    between atoms: C_24  and  S_66
   23  A    between atoms: C_25  and  N_53
   24  A    between atoms: C_34  and  C_60
   25  A    between atoms: C_34  and  S_62
   26  A    between atoms: C_35  and  C_49
   27  A    between atoms: P_37  and  O_39
   28  A    between atoms: O_39  and  C_60
   29  A    between atoms: C_45  and  S_66
   30  A    between atoms: C_51  and  C_56
   31  A    between atoms: C_51  and  S_62
   32  A    between atoms: N_53  and  C_58
   33  A    between atoms: C_54  and  C_61
   34  A    between atoms: C_56  and  C_58
                            x       y       z     vdW  Elec       q    Type
                         _______ _______ _______ _____ _____    ______ ____

>  <TORSDO>
F 34

$$$$
