=
 OpenBabel11072410233D

 51 54  0  0  1  0  0  0  0  0999 V2000
  163.2180  206.8210  148.7700 C   0  0  1  0  0  3  0  0  0  0  0  0
  160.8050  205.4480  153.6010 C   0  0  0  0  0  3  0  0  0  0  0  0
  161.2510  206.3450  149.9150 C   0  0  2  0  0  3  0  0  0  0  0  0
  161.9600  210.4380  149.2530 C   0  0  0  0  0  2  0  0  0  0  0  0
  159.7040  211.7110  154.0850 C   0  0  2  0  0  3  0  0  0  0  0  0
  161.0580  207.5930  152.5220 C   0  0  0  0  0  3  0  0  0  0  0  0
  160.4870  206.0890  148.6080 C   0  0  0  0  0  2  0  0  0  0  0  0
  160.6950  211.0310  149.3860 O   0  0  0  0  0  0  0  0  0  0  0  0
  161.0970  210.5200  156.4520 C   0  0  0  0  0  0  0  0  0  0  0  0
  160.5830  207.1950  147.5650 C   0  0  0  0  0  0  0  0  0  0  0  0
  160.8650  206.2020  152.4170 C   0  0  0  0  0  0  0  0  0  0  0  0
  160.9900  206.0530  154.8480 C   0  0  0  0  0  3  0  0  0  0  0  0
  160.0730  210.3760  157.1700 O   0  0  0  0  0  0  0  0  0  0  0  0
  161.9400  209.4080  156.1730 N   0  0  0  0  0  2  0  0  0  0  0  0
  161.4490  211.8610  155.8910 C   0  0  0  0  0  2  0  0  0  0  0  0
  161.8300  208.9390  149.0620 C   0  0  1  0  0  3  0  0  0  0  0  0
  160.2750  206.9020  146.4230 O   0  0  0  0  0  0  0  0  0  0  0  0
  161.2210  207.4210  154.9340 C   0  0  0  0  0  0  0  0  0  0  0  0
  162.6450  206.0960  149.8430 O   0  0  0  0  0  0  0  0  0  0  0  0
  160.2380  212.5330  155.2530 C   0  0  0  0  0  2  0  0  0  0  0  0
  160.2980  211.4180  151.7160 C   0  0  0  0  0  3  0  0  0  0  0  0
  160.9750  208.6400  147.8200 C   0  0  0  0  0  2  0  0  0  0  0  0
  160.2940  212.1920  152.7970 C   0  0  0  0  0  3  0  0  0  0  0  0
  161.2370  208.1960  153.7650 C   0  0  0  0  0  3  0  0  0  0  0  0
  160.6190  205.5580  151.0690 C   0  0  2  0  0  3  0  0  0  0  0  0
  161.4580  208.0350  156.2940 C   0  0  0  0  0  2  0  0  0  0  0  0
  163.2390  208.3290  148.9880 C   0  0  0  0  0  2  0  0  0  0  0  0
  164.6190  206.3220  148.5180 C   0  0  0  0  0  1  0  0  0  0  0  0
  160.7930  211.8750  150.4460 N   0  0  0  0  0  0  0  0  0  0  0  0
  156.1150  212.9020  153.5820 C   0  0  0  0  0  0  0  0  0  0  0  0
  155.4080  211.8390  154.1590 C   0  0  0  0  0  3  0  0  0  0  0  0
  158.2010  211.7550  154.0740 C   0  0  0  0  0  0  0  0  0  0  0  0
  157.5110  212.8630  153.5480 C   0  0  0  0  0  3  0  0  0  0  0  0
  157.4860  210.7040  154.6540 C   0  0  0  0  0  3  0  0  0  0  0  0
  156.0930  210.7450  154.6970 C   0  0  0  0  0  3  0  0  0  0  0  0
  155.4580  214.0020  153.0300 O   0  0  0  0  0  0  0  0  0  0  0  0
  155.2250  214.0870  151.6700 N   0  0  0  0  0  1  0  0  0  0  0  0
  161.0030  204.0980  151.0170 C   0  0  0  0  0  0  0  0  0  0  0  0
  160.2220  203.1910  150.3060 O   0  0  0  0  0  0  0  0  0  0  0  0
  162.0050  203.6910  151.6630 O   0  0  0  0  0  1  0  0  0  0  0  0
  161.0940  213.2790  150.1880 C   0  0  0  0  0  2  0  0  0  0  0  0
  160.5270  213.7190  148.8390 C   0  0  1  0  0  3  0  0  0  0  0  0
  159.1830  214.4110  148.9940 C   0  0  0  0  0  1  0  0  0  0  0  0
  161.4420  214.4500  148.0460 O   0  0  0  0  0  0  0  0  0  0  0  0
  161.8750  213.6420  146.9720 C   0  0  0  0  0  2  0  0  0  0  0  0
  162.6040  214.4530  146.0200 N   0  0  0  0  0  2  0  0  0  0  0  0
  162.7290  213.6790  144.7950 C   0  0  0  0  0  2  0  0  0  0  0  0
  161.2270  212.4510  143.3380 C   0  0  0  0  0  0  0  0  0  0  0  0
  161.4350  213.1250  144.4280 N   0  0  0  0  0  0  0  0  0  0  0  0
  162.2920  212.1700  142.4350 N   0  0  0  0  0  1  0  0  0  0  0  0
  159.9390  211.9180  143.0840 N   0  0  0  0  0  1  0  0  0  0  0  0
  1 28  1  1  0  0  0
  1 27  1  0  0  0  0
  1 19  1  0  0  0  0
  2 12  1  0  0  0  0
  3  7  1  6  0  0  0
  3 25  1  0  0  0  0
  4  8  1  0  0  0  0
  5 32  1  6  0  0  0
  5 20  1  0  0  0  0
  6 24  2  0  0  0  0
  8 29  1  0  0  0  0
  9 13  2  0  0  0  0
 10 22  1  0  0  0  0
 10  7  1  0  0  0  0
 11  6  1  0  0  0  0
 11  2  2  0  0  0  0
 12 18  2  0  0  0  0
 14 26  1  0  0  0  0
 14  9  1  0  0  0  0
 15  9  1  0  0  0  0
 16 22  1  6  0  0  0
 16  4  1  0  0  0  0
 17 10  2  0  0  0  0
 18 26  1  0  0  0  0
 19  3  1  0  0  0  0
 20 15  1  0  0  0  0
 21 23  2  0  0  0  0
 23  5  1  0  0  0  0
 24 18  1  0  0  0  0
 25 38  1  1  0  0  0
 25 11  1  0  0  0  0
 27 16  1  0  0  0  0
 29 21  1  0  0  0  0
 30 31  1  0  0  0  0
 31 35  2  0  0  0  0
 32 34  2  0  0  0  0
 33 30  2  0  0  0  0
 33 32  1  0  0  0  0
 34 35  1  0  0  0  0
 36 30  1  0  0  0  0
 37 36  1  0  0  0  0
 38 40  1  0  0  0  0
 39 38  2  0  0  0  0
 41 29  1  0  0  0  0
 42 43  1  1  0  0  0
 42 41  1  0  0  0  0
 44 42  1  0  0  0  0
 45 44  1  0  0  0  0
 46 45  1  0  0  0  0
 47 46  1  0  0  0  0
 48 49  2  0  0  0  0
 49 47  1  0  0  0  0
 50 48  1  0  0  0  0
 51 48  1  0  0  0  0
M  END
>  <MODEL>
1

>  <REMARK>
 VINA RESULT:       1.4      0.000      0.000
  Name = 
  10 active torsions:
  status: ('A' for Active; 'I' for Inactive)
    1  A    between atoms: C_5  and  O_11
    2  A    between atoms: C_7  and  C_33
    3  A    between atoms: C_10  and  N_23
    4  A    between atoms: C_10  and  O_25
    5  A    between atoms: C_13  and  C_44
    6  A    between atoms: C_14  and  N_15
    7  A    between atoms: C_14  and  N_23
    8  A    between atoms: C_20  and  C_34
    9  A    between atoms: C_20  and  N_51
   10  A    between atoms: O_25  and  C_34
                            x       y       z     vdW  Elec       q    Type
                         _______ _______ _______ _____ _____    ______ ____

>  <TORSDO>
F 10

$$$$
=
 OpenBabel11072410233D

 51 54  0  0  1  0  0  0  0  0999 V2000
  163.1840  206.7350  148.6910 C   0  0  1  0  0  3  0  0  0  0  0  0
  160.7450  205.4200  153.5250 C   0  0  0  0  0  3  0  0  0  0  0  0
  161.2080  206.3030  149.8370 C   0  0  2  0  0  3  0  0  0  0  0  0
  162.0070  210.3790  149.1710 C   0  0  0  0  0  2  0  0  0  0  0  0
  159.7830  211.7060  154.0030 C   0  0  2  0  0  3  0  0  0  0  0  0
  161.0450  207.5580  152.4430 C   0  0  0  0  0  3  0  0  0  0  0  0
  160.4380  206.0620  148.5320 C   0  0  0  0  0  2  0  0  0  0  0  0
  160.7560  210.9990  149.3040 O   0  0  0  0  0  0  0  0  0  0  0  0
  161.1510  210.4870  156.3700 C   0  0  0  0  0  0  0  0  0  0  0  0
  160.5580  207.1650  147.4870 C   0  0  0  0  0  0  0  0  0  0  0  0
  160.8220  206.1710  152.3400 C   0  0  0  0  0  0  0  0  0  0  0  0
  160.9440  206.0220  154.7710 C   0  0  0  0  0  3  0  0  0  0  0  0
  160.1250  210.3670  157.0890 O   0  0  0  0  0  0  0  0  0  0  0  0
  161.9690  209.3570  156.0920 N   0  0  0  0  0  2  0  0  0  0  0  0
  161.5320  211.8190  155.8080 C   0  0  0  0  0  2  0  0  0  0  0  0
  161.8440  208.8830  148.9810 C   0  0  1  0  0  3  0  0  0  0  0  0
  160.2430  206.8780  146.3450 O   0  0  0  0  0  0  0  0  0  0  0  0
  161.2060  207.3850  154.8560 C   0  0  0  0  0  0  0  0  0  0  0  0
  162.5970  206.0230  149.7650 O   0  0  0  0  0  0  0  0  0  0  0  0
  160.3360  212.5170  155.1700 C   0  0  0  0  0  2  0  0  0  0  0  0
  160.3690  211.3980  151.6330 C   0  0  0  0  0  3  0  0  0  0  0  0
  160.9820  208.6020  147.7400 C   0  0  0  0  0  2  0  0  0  0  0  0
  160.3820  212.1730  152.7140 C   0  0  0  0  0  3  0  0  0  0  0  0
  161.2380  208.1580  153.6850 C   0  0  0  0  0  3  0  0  0  0  0  0
  160.5600  205.5320  150.9930 C   0  0  2  0  0  3  0  0  0  0  0  0
  161.4570  207.9950  156.2150 C   0  0  0  0  0  2  0  0  0  0  0  0
  163.2390  208.2420  148.9070 C   0  0  0  0  0  2  0  0  0  0  0  0
  164.5740  206.2040  148.4380 C   0  0  0  0  0  1  0  0  0  0  0  0
  160.8730  211.8420  150.3630 N   0  0  0  0  0  0  0  0  0  0  0  0
  156.1060  210.9010  154.6220 C   0  0  0  0  0  0  0  0  0  0  0  0
  155.4910  211.9100  153.8690 C   0  0  0  0  0  3  0  0  0  0  0  0
  158.2810  211.7840  153.9930 C   0  0  0  0  0  0  0  0  0  0  0  0
  157.5000  210.8340  154.6760 C   0  0  0  0  0  3  0  0  0  0  0  0
  157.6580  212.7820  153.2380 C   0  0  0  0  0  3  0  0  0  0  0  0
  156.2670  212.8460  153.1770 C   0  0  0  0  0  3  0  0  0  0  0  0
  155.3580  209.9610  155.3310 O   0  0  0  0  0  0  0  0  0  0  0  0
  154.6730  210.3090  156.4790 N   0  0  0  0  0  1  0  0  0  0  0  0
  160.9120  204.0630  150.9420 C   0  0  0  0  0  0  0  0  0  0  0  0
  160.1900  203.1950  150.1270 O   0  0  0  0  0  0  0  0  0  0  0  0
  161.8270  203.6130  151.6810 O   0  0  0  0  0  1  0  0  0  0  0  0
  161.2050  213.2390  150.1030 C   0  0  0  0  0  2  0  0  0  0  0  0
  160.8280  213.6330  148.6750 C   0  0  1  0  0  3  0  0  0  0  0  0
  159.4290  214.2240  148.6070 C   0  0  0  0  0  1  0  0  0  0  0  0
  161.8010  214.4260  148.0250 O   0  0  0  0  0  0  0  0  0  0  0  0
  161.5460  214.4300  146.6370 C   0  0  0  0  0  2  0  0  0  0  0  0
  162.2590  213.3370  146.0110 N   0  0  0  0  0  2  0  0  0  0  0  0
  162.5500  213.7350  144.6420 C   0  0  0  0  0  2  0  0  0  0  0  0
  162.2750  212.7590  142.4380 C   0  0  0  0  0  0  0  0  0  0  0  0
  162.0860  212.7090  143.7210 N   0  0  0  0  0  0  0  0  0  0  0  0
  163.0050  213.8280  141.8460 N   0  0  0  0  0  1  0  0  0  0  0  0
  161.8180  211.6930  141.6250 N   0  0  0  0  0  1  0  0  0  0  0  0
  1 28  1  1  0  0  0
  1 27  1  0  0  0  0
  1 19  1  0  0  0  0
  2 12  1  0  0  0  0
  3  7  1  6  0  0  0
  3 25  1  0  0  0  0
  4  8  1  0  0  0  0
  5 32  1  6  0  0  0
  5 20  1  0  0  0  0
  6 24  2  0  0  0  0
  8 29  1  0  0  0  0
  9 13  2  0  0  0  0
 10 22  1  0  0  0  0
 10  7  1  0  0  0  0
 11  6  1  0  0  0  0
 11  2  2  0  0  0  0
 12 18  2  0  0  0  0
 14 26  1  0  0  0  0
 14  9  1  0  0  0  0
 15  9  1  0  0  0  0
 16 22  1  6  0  0  0
 16  4  1  0  0  0  0
 17 10  2  0  0  0  0
 18 26  1  0  0  0  0
 19  3  1  0  0  0  0
 20 15  1  0  0  0  0
 21 23  2  0  0  0  0
 23  5  1  0  0  0  0
 24 18  1  0  0  0  0
 25 38  1  1  0  0  0
 25 11  1  0  0  0  0
 27 16  1  0  0  0  0
 29 21  1  0  0  0  0
 30 33  1  0  0  0  0
 30 36  1  0  0  0  0
 31 30  2  0  0  0  0
 32 33  2  0  0  0  0
 34 32  1  0  0  0  0
 35 34  2  0  0  0  0
 35 31  1  0  0  0  0
 36 37  1  0  0  0  0
 38 40  1  0  0  0  0
 39 38  2  0  0  0  0
 41 29  1  0  0  0  0
 42 43  1  1  0  0  0
 42 41  1  0  0  0  0
 44 42  1  0  0  0  0
 45 44  1  0  0  0  0
 46 45  1  0  0  0  0
 47 46  1  0  0  0  0
 48 49  2  0  0  0  0
 49 47  1  0  0  0  0
 50 48  1  0  0  0  0
 51 48  1  0  0  0  0
M  END
>  <MODEL>
2

>  <REMARK>
 VINA RESULT:       1.9      1.195      1.391
  Name = 
  10 active torsions:
  status: ('A' for Active; 'I' for Inactive)
    1  A    between atoms: C_5  and  O_11
    2  A    between atoms: C_7  and  C_33
    3  A    between atoms: C_10  and  N_23
    4  A    between atoms: C_10  and  O_25
    5  A    between atoms: C_13  and  C_44
    6  A    between atoms: C_14  and  N_15
    7  A    between atoms: C_14  and  N_23
    8  A    between atoms: C_20  and  C_34
    9  A    between atoms: C_20  and  N_51
   10  A    between atoms: O_25  and  C_34
                            x       y       z     vdW  Elec       q    Type
                         _______ _______ _______ _____ _____    ______ ____

>  <TORSDO>
F 10

$$$$
=
 OpenBabel11072410233D

 51 54  0  0  1  0  0  0  0  0999 V2000
  163.1920  206.7820  148.8110 C   0  0  1  0  0  3  0  0  0  0  0  0
  160.7770  205.4420  153.6490 C   0  0  0  0  0  3  0  0  0  0  0  0
  161.2230  206.3240  149.9600 C   0  0  2  0  0  3  0  0  0  0  0  0
  161.9600  210.4090  149.2840 C   0  0  0  0  0  2  0  0  0  0  0  0
  159.7200  211.7140  154.1150 C   0  0  2  0  0  3  0  0  0  0  0  0
  161.0440  207.5820  152.5630 C   0  0  0  0  0  3  0  0  0  0  0  0
  160.4550  206.0680  148.6550 C   0  0  0  0  0  2  0  0  0  0  0  0
  160.6990  211.0110  149.4160 O   0  0  0  0  0  0  0  0  0  0  0  0
  161.1090  210.5210  156.4830 C   0  0  0  0  0  0  0  0  0  0  0  0
  160.5580  207.1700  147.6080 C   0  0  0  0  0  0  0  0  0  0  0  0
  160.8410  206.1910  152.4630 C   0  0  0  0  0  0  0  0  0  0  0  0
  160.9680  206.0500  154.8940 C   0  0  0  0  0  3  0  0  0  0  0  0
  160.0850  210.3860  157.2040 O   0  0  0  0  0  0  0  0  0  0  0  0
  161.9430  209.4030  156.2070 N   0  0  0  0  0  2  0  0  0  0  0  0
  161.4690  211.8570  155.9180 C   0  0  0  0  0  2  0  0  0  0  0  0
  161.8190  208.9110  149.0970 C   0  0  1  0  0  3  0  0  0  0  0  0
  160.2460  206.8760  146.4680 O   0  0  0  0  0  0  0  0  0  0  0  0
  161.2090  207.4170  154.9760 C   0  0  0  0  0  0  0  0  0  0  0  0
  162.6160  206.0650  149.8870 O   0  0  0  0  0  0  0  0  0  0  0  0
  160.2620  212.5360  155.2790 C   0  0  0  0  0  2  0  0  0  0  0  0
  160.3090  211.4090  151.7450 C   0  0  0  0  0  3  0  0  0  0  0  0
  160.9600  208.6140  147.8570 C   0  0  0  0  0  2  0  0  0  0  0  0
  160.3110  212.1870  152.8240 C   0  0  0  0  0  3  0  0  0  0  0  0
  161.2290  208.1870  153.8030 C   0  0  0  0  0  3  0  0  0  0  0  0
  160.5880  205.5450  151.1170 C   0  0  2  0  0  3  0  0  0  0  0  0
  161.4520  208.0330  156.3330 C   0  0  0  0  0  2  0  0  0  0  0  0
  163.2230  208.2910  149.0240 C   0  0  0  0  0  2  0  0  0  0  0  0
  164.5880  206.2720  148.5570 C   0  0  0  0  0  1  0  0  0  0  0  0
  160.8040  211.8580  150.4740 N   0  0  0  0  0  0  0  0  0  0  0  0
  156.0570  210.8680  154.7590 C   0  0  0  0  0  0  0  0  0  0  0  0
  155.4260  211.8500  153.9850 C   0  0  0  0  0  3  0  0  0  0  0  0
  158.2170  211.7690  154.1060 C   0  0  0  0  0  0  0  0  0  0  0  0
  157.4520  210.8230  154.8120 C   0  0  0  0  0  3  0  0  0  0  0  0
  157.5780  212.7400  153.3300 C   0  0  0  0  0  3  0  0  0  0  0  0
  156.1860  212.7810  153.2700 C   0  0  0  0  0  3  0  0  0  0  0  0
  155.3250  209.9320  155.4900 O   0  0  0  0  0  0  0  0  0  0  0  0
  154.4990  210.3220  156.5280 N   0  0  0  0  0  1  0  0  0  0  0  0
  160.9620  204.0820  151.0700 C   0  0  0  0  0  0  0  0  0  0  0  0
  162.0660  203.6160  151.7790 O   0  0  0  0  0  1  0  0  0  0  0  0
  160.3050  203.2910  150.3420 O   0  0  0  0  0  0  0  0  0  0  0  0
  161.1150  213.2590  150.2100 C   0  0  0  0  0  2  0  0  0  0  0  0
  160.4470  213.7330  148.9200 C   0  0  1  0  0  3  0  0  0  0  0  0
  159.1380  214.4530  149.1970 C   0  0  0  0  0  1  0  0  0  0  0  0
  161.3090  214.4530  148.0620 O   0  0  0  0  0  0  0  0  0  0  0  0
  162.0000  213.5470  147.2290 C   0  0  0  0  0  2  0  0  0  0  0  0
  162.0940  214.0940  145.8920 N   0  0  0  0  0  2  0  0  0  0  0  0
  161.4160  213.1700  144.9950 C   0  0  0  0  0  2  0  0  0  0  0  0
  159.0110  212.8800  145.1200 C   0  0  0  0  0  0  0  0  0  0  0  0
  160.1940  212.6860  145.6180 N   0  0  0  0  0  0  0  0  0  0  0  0
  158.8390  213.5590  143.8800 N   0  0  0  0  0  1  0  0  0  0  0  0
  157.8800  212.3380  145.7790 N   0  0  0  0  0  1  0  0  0  0  0  0
  1 28  1  1  0  0  0
  1 27  1  0  0  0  0
  1 19  1  0  0  0  0
  2 12  1  0  0  0  0
  3  7  1  6  0  0  0
  3 25  1  0  0  0  0
  4  8  1  0  0  0  0
  5 32  1  6  0  0  0
  5 20  1  0  0  0  0
  6 24  2  0  0  0  0
  8 29  1  0  0  0  0
  9 13  2  0  0  0  0
 10 22  1  0  0  0  0
 10  7  1  0  0  0  0
 11  6  1  0  0  0  0
 11  2  2  0  0  0  0
 12 18  2  0  0  0  0
 14 26  1  0  0  0  0
 14  9  1  0  0  0  0
 15  9  1  0  0  0  0
 16 22  1  6  0  0  0
 16  4  1  0  0  0  0
 17 10  2  0  0  0  0
 18 26  1  0  0  0  0
 19  3  1  0  0  0  0
 20 15  1  0  0  0  0
 21 23  2  0  0  0  0
 23  5  1  0  0  0  0
 24 18  1  0  0  0  0
 25 38  1  1  0  0  0
 25 11  1  0  0  0  0
 27 16  1  0  0  0  0
 29 21  1  0  0  0  0
 30 33  1  0  0  0  0
 30 36  1  0  0  0  0
 31 30  2  0  0  0  0
 32 33  2  0  0  0  0
 34 32  1  0  0  0  0
 35 34  2  0  0  0  0
 35 31  1  0  0  0  0
 36 37  1  0  0  0  0
 38 39  1  0  0  0  0
 40 38  2  0  0  0  0
 41 29  1  0  0  0  0
 42 43  1  1  0  0  0
 42 41  1  0  0  0  0
 44 42  1  0  0  0  0
 45 44  1  0  0  0  0
 46 45  1  0  0  0  0
 47 49  1  0  0  0  0
 47 46  1  0  0  0  0
 48 49  2  0  0  0  0
 48 51  1  0  0  0  0
 50 48  1  0  0  0  0
M  END
>  <MODEL>
3

>  <REMARK>
 VINA RESULT:       1.9      1.340      1.637
  Name = 
  10 active torsions:
  status: ('A' for Active; 'I' for Inactive)
    1  A    between atoms: C_5  and  O_11
    2  A    between atoms: C_7  and  C_33
    3  A    between atoms: C_10  and  N_23
    4  A    between atoms: C_10  and  O_25
    5  A    between atoms: C_13  and  C_44
    6  A    between atoms: C_14  and  N_15
    7  A    between atoms: C_14  and  N_23
    8  A    between atoms: C_20  and  C_34
    9  A    between atoms: C_20  and  N_51
   10  A    between atoms: O_25  and  C_34
                            x       y       z     vdW  Elec       q    Type
                         _______ _______ _______ _____ _____    ______ ____

>  <TORSDO>
F 10

$$$$
=
 OpenBabel11072410233D

 51 54  0  0  1  0  0  0  0  0999 V2000
  157.2360  213.2060  155.7370 C   0  0  1  0  0  3  0  0  0  0  0  0
  157.2060  213.8110  150.1980 C   0  0  0  0  0  3  0  0  0  0  0  0
  156.5050  212.4050  153.6800 C   0  0  2  0  0  3  0  0  0  0  0  0
  159.7570  210.3120  155.3350 C   0  0  0  0  0  2  0  0  0  0  0  0
  161.8850  209.4800  150.3510 C   0  0  2  0  0  3  0  0  0  0  0  0
  158.5410  212.3860  151.6190 C   0  0  0  0  0  3  0  0  0  0  0  0
  155.4040  211.5610  154.3370 C   0  0  0  0  0  2  0  0  0  0  0  0
  159.7350  209.0710  154.6800 O   0  0  0  0  0  0  0  0  0  0  0  0
  162.5770  211.9870  148.8690 C   0  0  0  0  0  0  0  0  0  0  0  0
  155.8660  210.6410  155.4610 C   0  0  0  0  0  0  0  0  0  0  0  0
  157.3130  213.0250  151.3580 C   0  0  0  0  0  0  0  0  0  0  0  0
  158.3060  214.0020  149.3560 C   0  0  0  0  0  3  0  0  0  0  0  0
  162.3320  211.5490  147.7140 O   0  0  0  0  0  0  0  0  0  0  0  0
  161.9430  213.1710  149.3360 N   0  0  0  0  0  2  0  0  0  0  0  0
  163.5440  211.2770  149.7600 C   0  0  0  0  0  2  0  0  0  0  0  0
  158.4340  211.0320  155.1600 C   0  0  1  0  0  3  0  0  0  0  0  0
  155.0050  210.2100  156.2070 O   0  0  0  0  0  0  0  0  0  0  0  0
  159.5240  213.3990  149.6480 C   0  0  0  0  0  0  0  0  0  0  0  0
  156.8820  213.5600  154.4120 O   0  0  0  0  0  0  0  0  0  0  0  0
  163.2730  209.7770  149.7940 C   0  0  0  0  0  2  0  0  0  0  0  0
  160.8820  209.3140  152.5920 C   0  0  0  0  0  3  0  0  0  0  0  0
  157.2880  210.1670  155.7080 C   0  0  0  0  0  2  0  0  0  0  0  0
  161.9610  209.2120  151.8220 C   0  0  0  0  0  3  0  0  0  0  0  0
  159.6340  212.5720  150.7770 C   0  0  0  0  0  3  0  0  0  0  0  0
  156.1120  212.7770  152.2460 C   0  0  2  0  0  3  0  0  0  0  0  0
  160.7020  213.6600  148.7400 C   0  0  0  0  0  2  0  0  0  0  0  0
  158.5300  212.4080  155.8360 C   0  0  0  0  0  2  0  0  0  0  0  0
  157.3380  214.4530  156.5790 C   0  0  0  0  0  1  0  0  0  0  0  0
  160.9040  208.9960  153.9930 N   0  0  0  0  0  0  0  0  0  0  0  0
  160.7760  207.1880  147.5110 C   0  0  0  0  0  0  0  0  0  0  0  0
  160.0150  206.2490  148.2200 C   0  0  0  0  0  3  0  0  0  0  0  0
  161.2640  208.3370  149.5960 C   0  0  0  0  0  0  0  0  0  0  0  0
  161.3920  208.2360  148.1990 C   0  0  0  0  0  3  0  0  0  0  0  0
  160.4970  207.4000  150.2930 C   0  0  0  0  0  3  0  0  0  0  0  0
  159.8740  206.3580  149.6070 C   0  0  0  0  0  3  0  0  0  0  0  0
  160.9410  207.1000  146.1290 O   0  0  0  0  0  0  0  0  0  0  0  0
  160.4090  206.0460  145.4100 N   0  0  0  0  0  1  0  0  0  0  0  0
  155.1030  213.9020  152.2250 C   0  0  0  0  0  0  0  0  0  0  0  0
  154.6070  214.4230  153.4170 O   0  0  0  0  0  1  0  0  0  0  0  0
  154.6680  214.3320  151.1240 O   0  0  0  0  0  0  0  0  0  0  0  0
  162.0320  208.3100  154.6170 C   0  0  0  0  0  2  0  0  0  0  0  0
  161.8340  206.7950  154.5830 C   0  0  1  0  0  3  0  0  0  0  0  0
  160.4110  206.4070  154.9490 C   0  0  0  0  0  1  0  0  0  0  0  0
  162.2910  206.1860  153.3920 O   0  0  0  0  0  0  0  0  0  0  0  0
  161.2740  205.3540  152.8770 C   0  0  0  0  0  2  0  0  0  0  0  0
  161.7840  204.6140  151.7420 N   0  0  0  0  0  2  0  0  0  0  0  0
  160.9810  203.4070  151.6140 C   0  0  0  0  0  2  0  0  0  0  0  0
  160.7810  202.0330  149.6240 C   0  0  0  0  0  0  0  0  0  0  0  0
  160.6510  203.1810  150.2150 N   0  0  0  0  0  0  0  0  0  0  0  0
  161.2270  200.8860  150.3400 N   0  0  0  0  0  1  0  0  0  0  0  0
  160.3980  201.9010  148.2660 N   0  0  0  0  0  1  0  0  0  0  0  0
  1 27  1  0  0  0  0
  1 28  1  1  0  0  0
  2 11  1  0  0  0  0
  3  7  1  1  0  0  0
  3 19  1  0  0  0  0
  5 32  1  6  0  0  0
  5 23  1  0  0  0  0
  7 10  1  0  0  0  0
  8  4  1  0  0  0  0
  9 14  1  0  0  0  0
  9 15  1  0  0  0  0
 10 22  1  0  0  0  0
 10 17  2  0  0  0  0
 11  6  2  0  0  0  0
 11 25  1  0  0  0  0
 12 18  1  0  0  0  0
 12  2  2  0  0  0  0
 13  9  2  0  0  0  0
 15 20  1  0  0  0  0
 16  4  1  1  0  0  0
 16 22  1  0  0  0  0
 16 27  1  0  0  0  0
 18 24  2  0  0  0  0
 19  1  1  0  0  0  0
 20  5  1  0  0  0  0
 21 29  1  0  0  0  0
 23 21  2  0  0  0  0
 24  6  1  0  0  0  0
 25 38  1  1  0  0  0
 25  3  1  0  0  0  0
 26 14  1  0  0  0  0
 26 18  1  0  0  0  0
 29 41  1  0  0  0  0
 29  8  1  0  0  0  0
 30 33  2  0  0  0  0
 30 31  1  0  0  0  0
 31 35  2  0  0  0  0
 32 34  2  0  0  0  0
 33 32  1  0  0  0  0
 35 34  1  0  0  0  0
 36 30  1  0  0  0  0
 37 36  1  0  0  0  0
 38 39  1  0  0  0  0
 40 38  2  0  0  0  0
 42 41  1  0  0  0  0
 42 43  1  6  0  0  0
 44 42  1  0  0  0  0
 45 44  1  0  0  0  0
 46 45  1  0  0  0  0
 47 46  1  0  0  0  0
 48 49  2  0  0  0  0
 48 50  1  0  0  0  0
 49 47  1  0  0  0  0
 51 48  1  0  0  0  0
M  END
>  <MODEL>
4

>  <REMARK>
 VINA RESULT:       2.6      3.205      9.332
  Name = 
  10 active torsions:
  status: ('A' for Active; 'I' for Inactive)
    1  A    between atoms: C_5  and  O_11
    2  A    between atoms: C_7  and  C_33
    3  A    between atoms: C_10  and  N_23
    4  A    between atoms: C_10  and  O_25
    5  A    between atoms: C_13  and  C_44
    6  A    between atoms: C_14  and  N_15
    7  A    between atoms: C_14  and  N_23
    8  A    between atoms: C_20  and  C_34
    9  A    between atoms: C_20  and  N_51
   10  A    between atoms: O_25  and  C_34
                            x       y       z     vdW  Elec       q    Type
                         _______ _______ _______ _____ _____    ______ ____

>  <TORSDO>
F 10

$$$$
