=
 OpenBabel11072412273D

 33 34  0  0  1  0  0  0  0  0999 V2000
  161.4160  204.2210  150.7950 C   0  0  1  0  0  3  0  0  0  0  0  0
  161.1170  207.5770  153.1550 C   0  0  0  0  0  0  0  0  0  0  0  0
  162.5190  208.4660  150.9660 N   0  0  0  0  0  2  0  0  0  0  0  0
  161.3790  205.2540  152.9970 O   0  0  0  0  0  0  0  0  0  0  0  0
  161.8410  210.7020  150.2770 C   0  0  0  0  0  1  0  0  0  0  0  0
  160.5190  205.3460  150.2880 C   0  0  0  0  0  2  0  0  0  0  0  0
  161.1690  204.0350  152.2890 C   0  0  0  0  0  2  0  0  0  0  0  0
  161.2130  208.7870  153.6200 C   0  0  0  0  0  0  0  0  0  0  0  0
  161.4860  209.5060  151.1450 C   0  0  2  0  0  3  0  0  0  0  0  0
  162.0340  207.3180  150.2760 N   0  0  0  0  0  0  0  0  0  0  0  0
  161.3750  209.9340  152.6380 C   0  0  1  0  0  3  0  0  0  0  0  0
  161.0850  206.5000  152.4350 C   0  0  0  0  0  0  0  0  0  0  0  0
  160.8730  206.6840  150.9490 C   0  0  2  0  0  3  0  0  0  0  0  0
  161.1220  202.9400  148.6280 N   0  0  0  0  0  2  0  0  0  0  0  0
  161.1220  202.9540  150.0630 C   0  0  0  0  0  0  0  0  0  0  0  0
  160.8860  201.9660  146.3180 C   0  0  0  0  0  1  0  0  0  0  0  0
  160.8850  201.9060  150.7220 O   0  0  0  0  0  0  0  0  0  0  0  0
  160.6550  200.6340  148.3020 N   0  0  0  0  0  2  0  0  0  0  0  0
  160.8490  201.8070  147.7940 C   0  0  0  0  0  0  0  0  0  0  0  0
  160.5160  212.1540  153.3980 O   0  0  0  0  0  1  0  0  0  0  0  0
  159.0950  210.6490  152.4120 O   0  0  0  0  0  0  0  0  0  0  0  0
  160.2580  210.9190  152.8170 C   0  0  0  0  0  0  0  0  0  0  0  0
  161.3440  209.0120  155.0920 C   0  0  0  0  0  2  0  0  0  0  0  0
  159.5180  207.8550  156.0630 O   0  0  0  0  0  0  0  0  0  0  0  0
  160.0060  208.9770  155.7580 C   0  0  0  0  0  0  0  0  0  0  0  0
  159.2580  210.2090  156.1140 C   0  0  0  0  0  0  0  0  0  0  0  0
  159.7860  211.0140  156.9260 O   0  0  0  0  0  0  0  0  0  0  0  0
  158.0010  210.5380  155.5890 O   0  0  0  0  0  0  0  0  0  0  0  0
  157.5150  211.8640  155.4400 C   0  0  0  0  0  1  0  0  0  0  0  0
  161.6670  207.7040  148.9100 C   0  0  0  0  0  2  0  0  0  0  0  0
  161.4890  206.4830  148.0100 C   0  0  0  0  0  3  0  0  0  0  0  0
  160.4940  206.7470  146.8940 C   0  0  0  0  0  1  0  0  0  0  0  0
  162.8150  206.0210  147.4350 C   0  0  0  0  0  1  0  0  0  0  0  0
  1 15  1  6  0  0  0
  1  7  1  0  0  0  0
  2  8  2  0  0  0  0
  3  9  1  0  0  0  0
  6  1  1  0  0  0  0
  7  4  1  0  0  0  0
  8 23  1  0  0  0  0
  9  5  1  6  0  0  0
  9 11  1  0  0  0  0
 10 13  1  0  0  0  0
 10  3  1  0  0  0  0
 11 22  1  6  0  0  0
 11  8  1  0  0  0  0
 12  4  1  0  0  0  0
 12  2  2  0  0  0  0
 13  6  1  6  0  0  0
 13 12  1  0  0  0  0
 14 15  1  0  0  0  0
 15 17  2  0  0  0  0
 16 19  1  0  0  0  0
 19 18  2  0  0  0  0
 19 14  1  0  0  0  0
 21 22  2  0  0  0  0
 22 20  1  0  0  0  0
 23 25  1  0  0  0  0
 25 24  2  0  0  0  0
 25 26  1  0  0  0  0
 26 27  2  0  0  0  0
 28 26  1  0  0  0  0
 29 28  1  0  0  0  0
 30 10  1  0  0  0  0
 31 30  1  0  0  0  0
 32 31  1  0  0  0  0
 33 31  1  0  0  0  0
M  END
>  <MODEL>
1

>  <REMARK>
 VINA RESULT:      -7.6      0.000      0.000
  Name = 
  8 active torsions:
  status: ('A' for Active; 'I' for Inactive)
    1  A    between atoms: C_2  and  C_9
    2  A    between atoms: C_3  and  C_19
    3  A    between atoms: C_4  and  C_10
    4  A    between atoms: C_4  and  C_22
    5  A    between atoms: C_10  and  C_13
    6  A    between atoms: C_13  and  O_20
    7  A    between atoms: C_19  and  N_27
    8  A    between atoms: C_29  and  C_32
                            x       y       z     vdW  Elec       q    Type
                         _______ _______ _______ _____ _____    ______ ____

>  <TORSDO>
F 8

$$$$
=
 OpenBabel11072412273D

 33 34  0  0  1  0  0  0  0  0999 V2000
  161.4890  204.8650  151.2510 C   0  0  1  0  0  3  0  0  0  0  0  0
  161.0330  208.6090  152.8940 C   0  0  0  0  0  0  0  0  0  0  0  0
  162.4710  209.0950  150.6040 N   0  0  0  0  0  2  0  0  0  0  0  0
  161.3620  206.3100  153.2040 O   0  0  0  0  0  0  0  0  0  0  0  0
  161.7520  211.1280  149.4720 C   0  0  0  0  0  1  0  0  0  0  0  0
  160.5770  205.8390  150.5110 C   0  0  0  0  0  2  0  0  0  0  0  0
  161.2050  204.9690  152.7460 C   0  0  0  0  0  2  0  0  0  0  0  0
  161.0830  209.8890  153.1130 C   0  0  0  0  0  0  0  0  0  0  0  0
  161.4060  210.1150  150.5520 C   0  0  2  0  0  3  0  0  0  0  0  0
  162.0370  207.8180  150.1440 N   0  0  0  0  0  0  0  0  0  0  0  0
  161.2410  210.8250  151.9280 C   0  0  1  0  0  3  0  0  0  0  0  0
  161.0510  207.4110  152.4010 C   0  0  0  0  0  0  0  0  0  0  0  0
  160.8760  207.2920  150.9030 C   0  0  2  0  0  3  0  0  0  0  0  0
  161.1110  203.2050  149.3740 N   0  0  0  0  0  2  0  0  0  0  0  0
  161.2500  203.4710  150.7770 C   0  0  0  0  0  0  0  0  0  0  0  0
  160.7480  201.8250  147.2990 C   0  0  0  0  0  1  0  0  0  0  0  0
  161.1830  202.5390  151.6230 O   0  0  0  0  0  0  0  0  0  0  0  0
  160.8430  200.8480  149.4900 N   0  0  0  0  0  2  0  0  0  0  0  0
  160.8710  201.9260  148.7750 C   0  0  0  0  0  0  0  0  0  0  0  0
  158.8610  211.4170  152.4050 O   0  0  0  0  0  1  0  0  0  0  0  0
  160.2480  212.9470  151.4080 O   0  0  0  0  0  0  0  0  0  0  0  0
  160.0930  211.7900  151.8840 C   0  0  0  0  0  0  0  0  0  0  0  0
  161.1660  210.4040  154.5140 C   0  0  0  0  0  2  0  0  0  0  0  0
  159.0460  209.9680  155.4800 O   0  0  0  0  0  0  0  0  0  0  0  0
  160.2610  209.6330  155.4200 C   0  0  0  0  0  0  0  0  0  0  0  0
  160.7260  208.4670  156.2120 C   0  0  0  0  0  0  0  0  0  0  0  0
  159.9550  207.4790  156.3280 O   0  0  0  0  0  0  0  0  0  0  0  0
  161.9820  208.3950  156.8300 O   0  0  0  0  0  0  0  0  0  0  0  0
  162.7320  209.5230  157.2590 C   0  0  0  0  0  1  0  0  0  0  0  0
  161.6980  207.9160  148.7210 C   0  0  0  0  0  2  0  0  0  0  0  0
  161.5120  206.5370  148.0920 C   0  0  0  0  0  3  0  0  0  0  0  0
  160.4530  206.5530  147.0040 C   0  0  0  0  0  1  0  0  0  0  0  0
  162.8200  205.9960  147.5450 C   0  0  0  0  0  1  0  0  0  0  0  0
  1 15  1  6  0  0  0
  1  7  1  0  0  0  0
  2  8  2  0  0  0  0
  6  1  1  0  0  0  0
  7  4  1  0  0  0  0
  8 23  1  0  0  0  0
  9  5  1  6  0  0  0
  9  3  1  0  0  0  0
  9 11  1  0  0  0  0
 10  3  1  0  0  0  0
 10 13  1  0  0  0  0
 11 22  1  6  0  0  0
 11  8  1  0  0  0  0
 12  2  2  0  0  0  0
 12  4  1  0  0  0  0
 13  6  1  1  0  0  0
 13 12  1  0  0  0  0
 14 15  1  0  0  0  0
 15 17  2  0  0  0  0
 16 19  1  0  0  0  0
 19 14  1  0  0  0  0
 19 18  2  0  0  0  0
 21 22  2  0  0  0  0
 22 20  1  0  0  0  0
 23 25  1  0  0  0  0
 25 24  2  0  0  0  0
 25 26  1  0  0  0  0
 26 27  2  0  0  0  0
 26 28  1  0  0  0  0
 28 29  1  0  0  0  0
 30 10  1  0  0  0  0
 31 30  1  0  0  0  0
 32 31  1  0  0  0  0
 33 31  1  0  0  0  0
M  END
>  <MODEL>
2

>  <REMARK>
 VINA RESULT:      -7.1      1.133      1.863
  Name = 
  8 active torsions:
  status: ('A' for Active; 'I' for Inactive)
    1  A    between atoms: C_2  and  C_9
    2  A    between atoms: C_3  and  C_19
    3  A    between atoms: C_4  and  C_10
    4  A    between atoms: C_4  and  C_22
    5  A    between atoms: C_10  and  C_13
    6  A    between atoms: C_13  and  O_20
    7  A    between atoms: C_19  and  N_27
    8  A    between atoms: C_29  and  C_32
                            x       y       z     vdW  Elec       q    Type
                         _______ _______ _______ _____ _____    ______ ____

>  <TORSDO>
F 8

$$$$
=
 OpenBabel11072412273D

 33 34  0  0  1  0  0  0  0  0999 V2000
  160.6940  210.9260  153.5170 C   0  0  1  0  0  3  0  0  0  0  0  0
  161.6390  208.1170  150.6640 C   0  0  0  0  0  0  0  0  0  0  0  0
  162.0180  206.7700  153.0270 N   0  0  0  0  0  2  0  0  0  0  0  0
  161.6660  210.3530  151.3620 O   0  0  0  0  0  0  0  0  0  0  0  0
  161.2470  204.4620  152.9130 C   0  0  0  0  0  1  0  0  0  0  0  0
  159.7360  209.7490  153.3610 C   0  0  0  0  0  2  0  0  0  0  0  0
  161.1000  211.4130  152.1300 C   0  0  0  0  0  2  0  0  0  0  0  0
  161.9980  207.0220  150.0630 C   0  0  0  0  0  0  0  0  0  0  0  0
  161.2270  205.8170  152.2240 C   0  0  2  0  0  3  0  0  0  0  0  0
  161.2160  207.7710  153.6470 N   0  0  0  0  0  0  0  0  0  0  0  0
  161.7920  205.6980  150.7780 C   0  0  1  0  0  3  0  0  0  0  0  0
  161.2370  209.0300  151.4910 C   0  0  0  0  0  0  0  0  0  0  0  0
  160.4200  208.5590  152.6740 C   0  0  2  0  0  3  0  0  0  0  0  0
  158.9270  212.7330  153.7060 N   0  0  0  0  0  2  0  0  0  0  0  0
  160.0390  212.0290  154.2790 C   0  0  0  0  0  0  0  0  0  0  0  0
  157.0780  214.4370  153.5780 C   0  0  0  0  0  1  0  0  0  0  0  0
  160.4710  212.3230  155.4250 O   0  0  0  0  0  0  0  0  0  0  0  0
  158.4710  214.1990  155.5180 N   0  0  0  0  0  2  0  0  0  0  0  0
  158.2080  213.8140  154.3120 C   0  0  0  0  0  0  0  0  0  0  0  0
  161.3830  203.5450  149.5780 O   0  0  0  0  0  0  0  0  0  0  0  0
  159.7620  205.1650  149.6160 O   0  0  0  0  0  1  0  0  0  0  0  0
  160.9210  204.8010  149.9490 C   0  0  0  0  0  0  0  0  0  0  0  0
  162.7600  207.0910  148.7790 C   0  0  0  0  0  2  0  0  0  0  0  0
  160.8330  207.6370  147.5110 O   0  0  0  0  0  0  0  0  0  0  0  0
  161.8510  206.8990  147.6080 C   0  0  0  0  0  0  0  0  0  0  0  0
  162.1280  205.9090  146.5370 C   0  0  0  0  0  0  0  0  0  0  0  0
  163.0580  205.0790  146.7160 O   0  0  0  0  0  0  0  0  0  0  0  0
  161.4050  205.8340  145.3380 O   0  0  0  0  0  0  0  0  0  0  0  0
  160.8720  204.6340  144.7960 C   0  0  0  0  0  1  0  0  0  0  0  0
  160.3230  207.1310  154.6180 C   0  0  0  0  0  2  0  0  0  0  0  0
  160.3660  207.8380  155.9710 C   0  0  0  0  0  3  0  0  0  0  0  0
  160.0820  206.8820  157.1150 C   0  0  0  0  0  1  0  0  0  0  0  0
  161.6940  208.5390  156.1880 C   0  0  0  0  0  1  0  0  0  0  0  0
  1 15  1  6  0  0  0
  2 12  2  0  0  0  0
  3 10  1  0  0  0  0
  4 12  1  0  0  0  0
  4  7  1  0  0  0  0
  6  1  1  0  0  0  0
  7  1  1  0  0  0  0
  8  2  2  0  0  0  0
  8 11  1  0  0  0  0
  9  5  1  1  0  0  0
  9  3  1  0  0  0  0
 10 30  1  0  0  0  0
 11 22  1  6  0  0  0
 11  9  1  0  0  0  0
 12 13  1  0  0  0  0
 13  6  1  1  0  0  0
 13 10  1  0  0  0  0
 14 15  1  0  0  0  0
 14 19  1  0  0  0  0
 15 17  2  0  0  0  0
 16 19  1  0  0  0  0
 19 18  2  0  0  0  0
 20 22  2  0  0  0  0
 21 22  1  0  0  0  0
 23  8  1  0  0  0  0
 24 25  2  0  0  0  0
 25 23  1  0  0  0  0
 26 27  2  0  0  0  0
 26 25  1  0  0  0  0
 28 26  1  0  0  0  0
 29 28  1  0  0  0  0
 30 31  1  0  0  0  0
 31 33  1  0  0  0  0
 31 32  1  0  0  0  0
M  END
>  <MODEL>
3

>  <REMARK>
 VINA RESULT:      -6.3      3.132      8.814
  Name = 
  8 active torsions:
  status: ('A' for Active; 'I' for Inactive)
    1  A    between atoms: C_2  and  C_9
    2  A    between atoms: C_3  and  C_19
    3  A    between atoms: C_4  and  C_10
    4  A    between atoms: C_4  and  C_22
    5  A    between atoms: C_10  and  C_13
    6  A    between atoms: C_13  and  O_20
    7  A    between atoms: C_19  and  N_27
    8  A    between atoms: C_29  and  C_32
                            x       y       z     vdW  Elec       q    Type
                         _______ _______ _______ _____ _____    ______ ____

>  <TORSDO>
F 8

$$$$
=
 OpenBabel11072412273D

 33 34  0  0  1  0  0  0  0  0999 V2000
  161.6780  207.3220  149.3860 C   0  0  1  0  0  3  0  0  0  0  0  0
  161.2840  209.7970  152.6480 C   0  0  0  0  0  0  0  0  0  0  0  0
  160.2820  207.4030  153.5470 N   0  0  0  0  0  2  0  0  0  0  0  0
  161.2140  209.5180  150.3230 O   0  0  0  0  0  0  0  0  0  0  0  0
  160.9310  206.9310  155.8470 C   0  0  0  0  0  1  0  0  0  0  0  0
  162.5790  207.0370  150.5830 C   0  0  0  0  0  2  0  0  0  0  0  0
  161.6400  208.8280  149.1500 C   0  0  0  0  0  2  0  0  0  0  0  0
  161.0190  210.2710  153.8290 C   0  0  0  0  0  0  0  0  0  0  0  0
  161.1880  207.8150  154.6370 C   0  0  2  0  0  3  0  0  0  0  0  0
  160.9680  206.7870  152.4610 N   0  0  0  0  0  0  0  0  0  0  0  0
  160.9760  209.3120  155.0060 C   0  0  1  0  0  3  0  0  0  0  0  0
  161.5280  209.0650  151.6070 C   0  0  0  0  0  0  0  0  0  0  0  0
  162.0140  207.6560  151.8680 C   0  0  2  0  0  3  0  0  0  0  0  0
  161.6660  205.3390  147.8070 N   0  0  0  0  0  2  0  0  0  0  0  0
  162.1930  206.6240  148.1720 C   0  0  0  0  0  0  0  0  0  0  0  0
  161.4210  203.2340  146.4470 C   0  0  0  0  0  1  0  0  0  0  0  0
  163.0840  207.1810  147.4760 O   0  0  0  0  0  0  0  0  0  0  0  0
  162.9220  205.0000  145.8200 N   0  0  0  0  0  2  0  0  0  0  0  0
  162.0680  204.5500  146.6810 C   0  0  0  0  0  0  0  0  0  0  0  0
  163.0770  210.4880  155.6750 O   0  0  0  0  0  0  0  0  0  0  0  0
  161.7850  209.4530  157.2600 O   0  0  0  0  0  1  0  0  0  0  0  0
  161.9680  209.7390  156.0470 C   0  0  0  0  0  0  0  0  0  0  0  0
  160.5880  211.6940  153.9820 C   0  0  0  0  0  2  0  0  0  0  0  0
  158.2300  211.4560  153.9620 O   0  0  0  0  0  0  0  0  0  0  0  0
  159.2430  211.9140  153.3670 C   0  0  0  0  0  0  0  0  0  0  0  0
  159.0550  212.6880  152.1140 C   0  0  0  0  0  0  0  0  0  0  0  0
  157.9230  213.1900  151.8870 O   0  0  0  0  0  0  0  0  0  0  0  0
  160.0680  212.9040  151.1700 O   0  0  0  0  0  0  0  0  0  0  0  0
  159.8840  213.5810  149.9360 C   0  0  0  0  0  1  0  0  0  0  0  0
  161.5680  205.5330  152.9270 C   0  0  0  0  0  2  0  0  0  0  0  0
  160.8920  204.3180  152.2970 C   0  0  0  0  0  3  0  0  0  0  0  0
  160.1290  204.6890  151.0370 C   0  0  0  0  0  1  0  0  0  0  0  0
  161.8930  203.2180  152.0000 C   0  0  0  0  0  1  0  0  0  0  0  0
  1 15  1  6  0  0  0
  1  6  1  0  0  0  0
  2  8  2  0  0  0  0
  3  9  1  0  0  0  0
  4 12  1  0  0  0  0
  7  1  1  0  0  0  0
  7  4  1  0  0  0  0
  8 23  1  0  0  0  0
  8 11  1  0  0  0  0
  9 11  1  0  0  0  0
  9  5  1  1  0  0  0
 10 30  1  0  0  0  0
 10  3  1  0  0  0  0
 11 22  1  1  0  0  0
 12 13  1  0  0  0  0
 12  2  2  0  0  0  0
 13  6  1  6  0  0  0
 13 10  1  0  0  0  0
 14 15  1  0  0  0  0
 16 19  1  0  0  0  0
 17 15  2  0  0  0  0
 18 19  2  0  0  0  0
 19 14  1  0  0  0  0
 20 22  2  0  0  0  0
 22 21  1  0  0  0  0
 25 24  2  0  0  0  0
 25 23  1  0  0  0  0
 26 25  1  0  0  0  0
 27 26  2  0  0  0  0
 28 26  1  0  0  0  0
 29 28  1  0  0  0  0
 31 30  1  0  0  0  0
 32 31  1  0  0  0  0
 33 31  1  0  0  0  0
M  END
>  <MODEL>
4

>  <REMARK>
 VINA RESULT:      -6.2      2.408      4.321
  Name = 
  8 active torsions:
  status: ('A' for Active; 'I' for Inactive)
    1  A    between atoms: C_2  and  C_9
    2  A    between atoms: C_3  and  C_19
    3  A    between atoms: C_4  and  C_10
    4  A    between atoms: C_4  and  C_22
    5  A    between atoms: C_10  and  C_13
    6  A    between atoms: C_13  and  O_20
    7  A    between atoms: C_19  and  N_27
    8  A    between atoms: C_29  and  C_32
                            x       y       z     vdW  Elec       q    Type
                         _______ _______ _______ _____ _____    ______ ____

>  <TORSDO>
F 8

$$$$
=
 OpenBabel11072412273D

 33 34  0  0  1  0  0  0  0  0999 V2000
  161.6710  207.2290  149.3910 C   0  0  1  0  0  3  0  0  0  0  0  0
  161.2880  209.7230  152.6400 C   0  0  0  0  0  0  0  0  0  0  0  0
  160.2650  207.3400  153.5480 N   0  0  0  0  0  2  0  0  0  0  0  0
  161.2220  209.4330  150.3160 O   0  0  0  0  0  0  0  0  0  0  0  0
  160.9050  206.8740  155.8520 C   0  0  0  0  0  1  0  0  0  0  0  0
  162.5670  206.9430  150.5920 C   0  0  0  0  0  2  0  0  0  0  0  0
  161.6450  208.7340  149.1480 C   0  0  0  0  0  2  0  0  0  0  0  0
  161.0230  210.2040  153.8190 C   0  0  0  0  0  0  0  0  0  0  0  0
  161.1710  207.7500  154.6390 C   0  0  2  0  0  3  0  0  0  0  0  0
  160.9490  206.7140  152.4670 N   0  0  0  0  0  0  0  0  0  0  0  0
  160.9700  209.2510  155.0000 C   0  0  1  0  0  3  0  0  0  0  0  0
  161.5290  208.9830  151.6040 C   0  0  0  0  0  0  0  0  0  0  0  0
  162.0030  207.5720  151.8730 C   0  0  2  0  0  3  0  0  0  0  0  0
  161.6360  205.2470  147.8120 N   0  0  0  0  0  2  0  0  0  0  0  0
  162.1840  206.5210  148.1820 C   0  0  0  0  0  0  0  0  0  0  0  0
  161.3630  203.1470  146.4500 C   0  0  0  0  0  1  0  0  0  0  0  0
  163.0920  207.0610  147.4950 O   0  0  0  0  0  0  0  0  0  0  0  0
  162.9030  204.8830  145.8360 N   0  0  0  0  0  2  0  0  0  0  0  0
  162.0330  204.4500  146.6890 C   0  0  0  0  0  0  0  0  0  0  0  0
  163.1030  210.3720  155.6620 O   0  0  0  0  0  0  0  0  0  0  0  0
  161.7530  209.4350  157.2600 O   0  0  0  0  0  1  0  0  0  0  0  0
  161.9630  209.6760  156.0410 C   0  0  0  0  0  0  0  0  0  0  0  0
  160.6030  211.6310  153.9630 C   0  0  0  0  0  2  0  0  0  0  0  0
  158.6760  211.8640  152.6030 O   0  0  0  0  0  0  0  0  0  0  0  0
  159.1270  211.7750  153.7770 C   0  0  0  0  0  0  0  0  0  0  0  0
  158.1740  211.7690  154.9160 C   0  0  0  0  0  0  0  0  0  0  0  0
  158.6350  211.6250  156.0790 O   0  0  0  0  0  0  0  0  0  0  0  0
  156.7890  211.9270  154.7750 O   0  0  0  0  0  0  0  0  0  0  0  0
  155.8300  210.9340  155.1090 C   0  0  0  0  0  1  0  0  0  0  0  0
  161.5380  205.4580  152.9400 C   0  0  0  0  0  2  0  0  0  0  0  0
  160.8700  204.2460  152.2970 C   0  0  0  0  0  3  0  0  0  0  0  0
  160.0440  204.6370  151.0840 C   0  0  0  0  0  1  0  0  0  0  0  0
  161.8880  203.1860  151.9200 C   0  0  0  0  0  1  0  0  0  0  0  0
  1 15  1  6  0  0  0
  1  6  1  0  0  0  0
  2  8  2  0  0  0  0
  3  9  1  0  0  0  0
  4 12  1  0  0  0  0
  7  1  1  0  0  0  0
  7  4  1  0  0  0  0
  8 23  1  0  0  0  0
  8 11  1  0  0  0  0
  9 11  1  0  0  0  0
  9  5  1  1  0  0  0
 10 30  1  0  0  0  0
 10  3  1  0  0  0  0
 11 22  1  1  0  0  0
 12 13  1  0  0  0  0
 12  2  2  0  0  0  0
 13  6  1  6  0  0  0
 13 10  1  0  0  0  0
 14 15  1  0  0  0  0
 16 19  1  0  0  0  0
 17 15  2  0  0  0  0
 18 19  2  0  0  0  0
 19 14  1  0  0  0  0
 20 22  2  0  0  0  0
 22 21  1  0  0  0  0
 24 25  2  0  0  0  0
 25 23  1  0  0  0  0
 25 26  1  0  0  0  0
 26 27  2  0  0  0  0
 28 26  1  0  0  0  0
 28 29  1  0  0  0  0
 31 30  1  0  0  0  0
 32 31  1  0  0  0  0
 33 31  1  0  0  0  0
M  END
>  <MODEL>
5

>  <REMARK>
 VINA RESULT:      -6.2      2.281      3.926
  Name = 
  8 active torsions:
  status: ('A' for Active; 'I' for Inactive)
    1  A    between atoms: C_2  and  C_9
    2  A    between atoms: C_3  and  C_19
    3  A    between atoms: C_4  and  C_10
    4  A    between atoms: C_4  and  C_22
    5  A    between atoms: C_10  and  C_13
    6  A    between atoms: C_13  and  O_20
    7  A    between atoms: C_19  and  N_27
    8  A    between atoms: C_29  and  C_32
                            x       y       z     vdW  Elec       q    Type
                         _______ _______ _______ _____ _____    ______ ____

>  <TORSDO>
F 8

$$$$
=
 OpenBabel11072412273D

 33 34  0  0  1  0  0  0  0  0999 V2000
  162.0700  208.4910  149.3660 C   0  0  1  0  0  3  0  0  0  0  0  0
  161.5800  204.5270  148.3790 C   0  0  0  0  0  0  0  0  0  0  0  0
  162.0190  204.4540  151.0900 N   0  0  0  0  0  2  0  0  0  0  0  0
  162.3870  206.6510  147.8070 O   0  0  0  0  0  0  0  0  0  0  0  0
  160.6110  202.8150  152.2140 C   0  0  0  0  0  1  0  0  0  0  0  0
  160.8030  207.8040  149.8680 C   0  0  0  0  0  2  0  0  0  0  0  0
  162.3130  208.0700  147.9200 C   0  0  0  0  0  2  0  0  0  0  0  0
  161.4820  203.2320  148.4320 C   0  0  0  0  0  0  0  0  0  0  0  0
  160.8440  203.5770  150.9190 C   0  0  2  0  0  3  0  0  0  0  0  0
  161.6790  205.8370  151.1130 N   0  0  0  0  0  0  0  0  0  0  0  0
  161.0520  202.5860  149.7370 C   0  0  1  0  0  3  0  0  0  0  0  0
  161.6300  205.8000  148.6170 C   0  0  0  0  0  0  0  0  0  0  0  0
  160.9650  206.2790  149.8890 C   0  0  2  0  0  3  0  0  0  0  0  0
  161.7570  210.7480  148.2570 N   0  0  0  0  0  2  0  0  0  0  0  0
  161.9240  209.9730  149.4530 C   0  0  0  0  0  0  0  0  0  0  0  0
  161.4540  212.8210  146.8590 C   0  0  0  0  0  1  0  0  0  0  0  0
  161.9440  210.5250  150.5860 O   0  0  0  0  0  0  0  0  0  0  0  0
  161.5420  212.8920  149.2570 N   0  0  0  0  0  2  0  0  0  0  0  0
  161.6160  212.1720  148.1850 C   0  0  0  0  0  0  0  0  0  0  0  0
  159.6530  200.5660  150.1920 O   0  0  0  0  0  1  0  0  0  0  0  0
  158.9010  202.1820  148.7510 O   0  0  0  0  0  0  0  0  0  0  0  0
  159.8130  201.7690  149.5170 C   0  0  0  0  0  0  0  0  0  0  0  0
  161.9600  202.4010  147.2850 C   0  0  0  0  0  2  0  0  0  0  0  0
  162.9510  203.7920  145.6410 O   0  0  0  0  0  0  0  0  0  0  0  0
  161.9120  203.1770  146.0070 C   0  0  0  0  0  0  0  0  0  0  0  0
  160.7100  203.2100  145.1380 C   0  0  0  0  0  0  0  0  0  0  0  0
  160.1190  202.1250  144.8950 O   0  0  0  0  0  0  0  0  0  0  0  0
  160.1850  204.3820  144.5770 O   0  0  0  0  0  0  0  0  0  0  0  0
  160.7070  205.6840  144.8020 C   0  0  0  0  0  1  0  0  0  0  0  0
  160.8520  206.1040  152.2940 C   0  0  0  0  0  2  0  0  0  0  0  0
  161.5700  207.0140  153.2880 C   0  0  0  0  0  3  0  0  0  0  0  0
  161.2090  208.4740  153.0780 C   0  0  0  0  0  1  0  0  0  0  0  0
  161.2870  206.6030  154.7210 C   0  0  0  0  0  1  0  0  0  0  0  0
  1 15  1  6  0  0  0
  1  6  1  0  0  0  0
  2  8  2  0  0  0  0
  2 12  2  0  0  0  0
  3 10  1  0  0  0  0
  4  7  1  0  0  0  0
  4 12  1  0  0  0  0
  7  1  1  0  0  0  0
  8 11  1  0  0  0  0
  9  3  1  0  0  0  0
  9  5  1  1  0  0  0
 10 30  1  0  0  0  0
 11 22  1  6  0  0  0
 11  9  1  0  0  0  0
 12 13  1  0  0  0  0
 13  6  1  6  0  0  0
 13 10  1  0  0  0  0
 14 15  1  0  0  0  0
 15 17  2  0  0  0  0
 16 19  1  0  0  0  0
 19 14  1  0  0  0  0
 19 18  2  0  0  0  0
 21 22  2  0  0  0  0
 22 20  1  0  0  0  0
 23  8  1  0  0  0  0
 24 25  2  0  0  0  0
 25 23  1  0  0  0  0
 26 25  1  0  0  0  0
 27 26  2  0  0  0  0
 28 29  1  0  0  0  0
 28 26  1  0  0  0  0
 30 31  1  0  0  0  0
 31 33  1  0  0  0  0
 32 31  1  0  0  0  0
M  END
>  <MODEL>
6

>  <REMARK>
 VINA RESULT:      -5.9      3.134      8.725
  Name = 
  8 active torsions:
  status: ('A' for Active; 'I' for Inactive)
    1  A    between atoms: C_2  and  C_9
    2  A    between atoms: C_3  and  C_19
    3  A    between atoms: C_4  and  C_10
    4  A    between atoms: C_4  and  C_22
    5  A    between atoms: C_10  and  C_13
    6  A    between atoms: C_13  and  O_20
    7  A    between atoms: C_19  and  N_27
    8  A    between atoms: C_29  and  C_32
                            x       y       z     vdW  Elec       q    Type
                         _______ _______ _______ _____ _____    ______ ____

>  <TORSDO>
F 8

$$$$
=
 OpenBabel11072412273D

 33 34  0  0  1  0  0  0  0  0999 V2000
  161.7110  208.2220  150.3780 C   0  0  1  0  0  3  0  0  0  0  0  0
  161.5770  204.6260  148.3850 C   0  0  0  0  0  0  0  0  0  0  0  0
  162.0720  203.8890  150.9850 N   0  0  0  0  0  2  0  0  0  0  0  0
  162.1700  206.8920  148.3940 O   0  0  0  0  0  0  0  0  0  0  0  0
  160.8460  201.8870  151.6310 C   0  0  0  0  0  1  0  0  0  0  0  0
  160.5240  207.3100  150.6750 C   0  0  0  0  0  2  0  0  0  0  0  0
  161.9660  208.2190  148.8740 C   0  0  0  0  0  2  0  0  0  0  0  0
  161.6020  203.3590  148.0960 C   0  0  0  0  0  0  0  0  0  0  0  0
  160.9820  202.9800  150.5830 C   0  0  2  0  0  3  0  0  0  0  0  0
  161.6040  205.1800  151.3670 N   0  0  0  0  0  0  0  0  0  0  0  0
  161.2590  202.3570  149.1830 C   0  0  1  0  0  3  0  0  0  0  0  0
  161.5120  205.7910  148.9480 C   0  0  0  0  0  0  0  0  0  0  0  0
  160.8290  205.8550  150.2960 C   0  0  2  0  0  3  0  0  0  0  0  0
  160.5940  209.8200  151.9970 N   0  0  0  0  0  2  0  0  0  0  0  0
  161.4290  209.6090  150.8490 C   0  0  0  0  0  0  0  0  0  0  0  0
  159.3490  211.1290  153.7510 C   0  0  0  0  0  1  0  0  0  0  0  0
  161.9400  210.5820  150.2320 O   0  0  0  0  0  0  0  0  0  0  0  0
  160.7220  212.1900  152.0920 N   0  0  0  0  0  2  0  0  0  0  0  0
  160.2300  211.0870  152.5560 C   0  0  0  0  0  0  0  0  0  0  0  0
  160.2600  200.6010  147.7130 O   0  0  0  0  0  0  0  0  0  0  0  0
  158.9880  201.5960  149.3400 O   0  0  0  0  0  1  0  0  0  0  0  0
  160.0980  201.5110  148.7490 C   0  0  0  0  0  0  0  0  0  0  0  0
  162.1340  202.9060  146.7740 C   0  0  0  0  0  2  0  0  0  0  0  0
  163.1580  204.6980  145.6090 O   0  0  0  0  0  0  0  0  0  0  0  0
  162.1080  204.0210  145.7780 C   0  0  0  0  0  0  0  0  0  0  0  0
  160.9130  204.3260  144.9520 C   0  0  0  0  0  0  0  0  0  0  0  0
  160.2300  203.3640  144.5120 O   0  0  0  0  0  0  0  0  0  0  0  0
  160.4910  205.6260  144.6410 O   0  0  0  0  0  0  0  0  0  0  0  0
  160.0800  206.5880  145.6010 C   0  0  0  0  0  1  0  0  0  0  0  0
  160.7780  205.0490  152.5710 C   0  0  0  0  0  2  0  0  0  0  0  0
  161.3880  205.7970  153.7540 C   0  0  0  0  0  3  0  0  0  0  0  0
  162.7070  206.4540  153.3850 C   0  0  0  0  0  1  0  0  0  0  0  0
  160.4260  206.8290  154.3130 C   0  0  0  0  0  1  0  0  0  0  0  0
  1  6  1  0  0  0  0
  1 15  1  6  0  0  0
  2 12  2  0  0  0  0
  3 10  1  0  0  0  0
  4  7  1  0  0  0  0
  4 12  1  0  0  0  0
  7  1  1  0  0  0  0
  8  2  2  0  0  0  0
  8 11  1  0  0  0  0
  9  3  1  0  0  0  0
  9  5  1  1  0  0  0
 10 30  1  0  0  0  0
 11 22  1  6  0  0  0
 11  9  1  0  0  0  0
 12 13  1  0  0  0  0
 13  6  1  1  0  0  0
 13 10  1  0  0  0  0
 14 19  1  0  0  0  0
 15 14  1  0  0  0  0
 17 15  2  0  0  0  0
 18 19  2  0  0  0  0
 19 16  1  0  0  0  0
 20 22  2  0  0  0  0
 22 21  1  0  0  0  0
 23  8  1  0  0  0  0
 24 25  2  0  0  0  0
 25 23  1  0  0  0  0
 26 25  1  0  0  0  0
 27 26  2  0  0  0  0
 28 26  1  0  0  0  0
 28 29  1  0  0  0  0
 30 31  1  0  0  0  0
 31 33  1  0  0  0  0
 32 31  1  0  0  0  0
M  END
>  <MODEL>
7

>  <REMARK>
 VINA RESULT:      -5.5      2.989      8.742
  Name = 
  8 active torsions:
  status: ('A' for Active; 'I' for Inactive)
    1  A    between atoms: C_2  and  C_9
    2  A    between atoms: C_3  and  C_19
    3  A    between atoms: C_4  and  C_10
    4  A    between atoms: C_4  and  C_22
    5  A    between atoms: C_10  and  C_13
    6  A    between atoms: C_13  and  O_20
    7  A    between atoms: C_19  and  N_27
    8  A    between atoms: C_29  and  C_32
                            x       y       z     vdW  Elec       q    Type
                         _______ _______ _______ _____ _____    ______ ____

>  <TORSDO>
F 8

$$$$
