=
 OpenBabel11072410133D

 37 39  0  0  1  0  0  0  0  0999 V2000
  161.8010  203.8250  148.8060 C   0  0  0  0  0  2  0  0  0  0  0  0
  162.4350  206.7880  147.6650 N   0  0  0  0  0  0  0  0  0  0  0  0
  162.0400  207.3520  150.3920 C   0  0  0  0  0  3  0  0  0  0  0  0
  162.3900  208.0970  152.6610 C   0  0  0  0  0  3  0  0  0  0  0  0
  162.5060  205.6530  152.1820 C   0  0  0  0  0  2  0  0  0  0  0  0
  161.1980  204.9430  152.3410 C   0  0  0  0  0  0  0  0  0  0  0  0
  161.9470  209.7170  150.9150 C   0  0  0  0  0  0  0  0  0  0  0  0
  161.5410  208.9570  148.5300 C   0  0  0  0  0  0  0  0  0  0  0  0
  160.3100  205.4210  153.0300 O   0  0  0  0  0  0  0  0  0  0  0  0
  162.1970  209.4240  152.2650 C   0  0  0  0  0  0  0  0  0  0  0  0
  162.6280  205.8820  146.5790 C   0  0  0  0  0  0  0  0  0  0  0  0
  162.2050  206.1800  145.3960 N   0  0  0  0  0  2  0  0  0  0  0  0
  161.7850  208.0150  147.4770 N   0  0  0  0  0  0  0  0  0  0  0  0
  163.1680  204.5170  146.8450 C   0  0  0  0  0  2  0  0  0  0  0  0
  161.0170  203.6040  151.7110 C   0  0  0  0  0  2  0  0  0  0  0  0
  161.0250  210.0620  148.2170 O   0  0  0  0  0  0  0  0  0  0  0  0
  162.3130  207.0620  151.7320 C   0  0  0  0  0  0  0  0  0  0  0  0
  162.0630  203.5930  147.3290 C   0  0  0  0  0  2  0  0  0  0  0  0
  161.8600  208.6750  149.9600 C   0  0  0  0  0  0  0  0  0  0  0  0
  160.5610  203.0700  149.2760 C   0  0  2  0  0  3  0  0  0  0  0  0
  161.7930  211.0470  150.5340 O   0  0  0  0  0  1  0  0  0  0  0  0
  160.0200  203.6930  150.5600 C   0  0  0  0  0  2  0  0  0  0  0  0
  162.2880  210.4940  153.2140 N   0  0  0  0  0  2  0  0  0  0  0  0
  162.0130  210.3930  154.6180 C   0  0  0  0  0  0  0  0  0  0  0  0
  162.9350  210.6710  155.4310 O   0  0  0  0  0  0  0  0  0  0  0  0
  159.7150  210.1100  154.1130 O   0  0  0  0  0  1  0  0  0  0  0  0
  160.2290  210.9990  156.2360 C   0  0  0  0  0  1  0  0  0  0  0  0
  160.6440  210.0130  155.1540 C   0  0  2  0  0  0  0  0  0  0  0  0
  160.5970  208.5720  155.7030 C   0  0  0  0  0  0  0  0  0  0  0  0
  161.8690  208.0860  155.9500 F   0  0  0  0  0  0  0  0  0  0  0  0
  159.8860  208.5470  156.8910 F   0  0  0  0  0  0  0  0  0  0  0  0
  159.9650  207.7390  154.7970 F   0  0  0  0  0  0  0  0  0  0  0  0
  160.8440  201.5850  149.4730 C   0  0  0  0  0  2  0  0  0  0  0  0
  160.3620  200.7850  148.2770 C   0  0  0  0  0  2  0  0  0  0  0  0
  161.1220  200.7750  146.0260 O   0  0  0  0  0  0  0  0  0  0  0  0
  161.5260  200.5130  147.3480 C   0  0  2  0  0  3  0  0  0  0  0  0
  161.1770  199.4250  146.4110 C   0  0  0  0  0  2  0  0  0  0  0  0
  1 20  1  0  0  0  0
  3 17  1  0  0  0  0
  5  6  1  0  0  0  0
  6  9  2  0  0  0  0
  7 10  2  0  0  0  0
  8 19  1  0  0  0  0
 10  4  1  0  0  0  0
 10 23  1  0  0  0  0
 11 14  1  0  0  0  0
 11  2  1  0  0  0  0
 12 11  2  0  0  0  0
 13  2  2  0  0  0  0
 13  8  1  0  0  0  0
 14 18  1  0  0  0  0
 15  6  1  0  0  0  0
 16  8  2  0  0  0  0
 17  5  1  0  0  0  0
 17  4  2  0  0  0  0
 18  1  1  0  0  0  0
 19  3  2  0  0  0  0
 19  7  1  0  0  0  0
 20 33  1  1  0  0  0
 20 22  1  0  0  0  0
 21  7  1  0  0  0  0
 22 15  1  0  0  0  0
 23 24  1  0  0  0  0
 24 28  1  0  0  0  0
 24 25  2  0  0  0  0
 26 28  1  0  0  0  0
 28 29  1  0  0  0  0
 28 27  1  1  0  0  0
 29 30  1  0  0  0  0
 29 31  1  0  0  0  0
 32 29  1  0  0  0  0
 34 33  1  0  0  0  0
 35 37  1  0  0  0  0
 35 36  1  0  0  0  0
 36 34  1  1  0  0  0
 37 36  1  0  0  0  0
M  END
>  <MODEL>
1

>  <REMARK>
 VINA RESULT:      -5.8      0.000      0.000
  Name = 
  6 active torsions:
  status: ('A' for Active; 'I' for Inactive)
    1  A    between atoms: C_2  and  C_27
    2  A    between atoms: C_2  and  C_31
    3  A    between atoms: C_5  and  C_15
    4  A    between atoms: N_14  and  C_17
    5  A    between atoms: C_15  and  C_30
    6  A    between atoms: C_31  and  C_33
                            x       y       z     vdW  Elec       q    Type
                         _______ _______ _______ _____ _____    ______ ____

>  <TORSDO>
F 6

$$$$
=
 OpenBabel11072410133D

 37 39  0  0  1  0  0  0  0  0999 V2000
  161.7800  203.8240  148.8360 C   0  0  0  0  0  2  0  0  0  0  0  0
  162.4330  206.7700  147.6610 N   0  0  0  0  0  0  0  0  0  0  0  0
  162.0760  207.3620  150.3870 C   0  0  0  0  0  3  0  0  0  0  0  0
  162.4600  208.1240  152.6450 C   0  0  0  0  0  3  0  0  0  0  0  0
  162.5440  205.6750  152.1870 C   0  0  0  0  0  2  0  0  0  0  0  0
  161.2310  204.9800  152.3680 C   0  0  0  0  0  0  0  0  0  0  0  0
  162.0150  209.7320  150.8890 C   0  0  0  0  0  0  0  0  0  0  0  0
  161.5730  208.9560  148.5170 C   0  0  0  0  0  0  0  0  0  0  0  0
  160.3560  205.4740  153.0620 O   0  0  0  0  0  0  0  0  0  0  0  0
  162.2770  209.4490  152.2400 C   0  0  0  0  0  0  0  0  0  0  0  0
  162.6030  205.8520  146.5810 C   0  0  0  0  0  0  0  0  0  0  0  0
  162.1690  206.1440  145.4000 N   0  0  0  0  0  2  0  0  0  0  0  0
  161.7930  208.0020  147.4700 N   0  0  0  0  0  0  0  0  0  0  0  0
  163.1310  204.4840  146.8530 C   0  0  0  0  0  2  0  0  0  0  0  0
  161.0280  203.6380  151.7510 C   0  0  0  0  0  2  0  0  0  0  0  0
  161.0640  210.0630  148.2000 O   0  0  0  0  0  0  0  0  0  0  0  0
  162.3620  207.0820  151.7260 C   0  0  0  0  0  0  0  0  0  0  0  0
  162.0220  203.5760  147.3580 C   0  0  0  0  0  2  0  0  0  0  0  0
  161.9050  208.6830  149.9450 C   0  0  0  0  0  0  0  0  0  0  0  0
  160.5380  203.0870  149.3270 C   0  0  2  0  0  3  0  0  0  0  0  0
  161.8700  211.0610  150.4990 O   0  0  0  0  0  1  0  0  0  0  0  0
  160.0180  203.7280  150.6120 C   0  0  0  0  0  2  0  0  0  0  0  0
  162.3910  210.5270  153.1780 N   0  0  0  0  0  2  0  0  0  0  0  0
  161.8560  210.5370  154.5080 C   0  0  0  0  0  0  0  0  0  0  0  0
  162.6540  210.6830  155.4730 O   0  0  0  0  0  0  0  0  0  0  0  0
  160.1020  211.0330  156.0220 O   0  0  0  0  0  1  0  0  0  0  0  0
  159.9750  208.9640  154.8980 C   0  0  0  0  0  1  0  0  0  0  0  0
  160.3680  210.4300  154.7890 C   0  0  2  0  0  0  0  0  0  0  0  0
  159.5070  211.1310  153.7180 C   0  0  0  0  0  0  0  0  0  0  0  0
  159.3170  210.3200  152.6140 F   0  0  0  0  0  0  0  0  0  0  0  0
  158.2650  211.4410  154.2460 F   0  0  0  0  0  0  0  0  0  0  0  0
  160.1170  212.3060  153.3140 F   0  0  0  0  0  0  0  0  0  0  0  0
  160.8070  201.6000  149.5340 C   0  0  0  0  0  2  0  0  0  0  0  0
  160.3500  200.8010  148.3280 C   0  0  0  0  0  2  0  0  0  0  0  0
  161.1350  200.7490  146.0870 O   0  0  0  0  0  0  0  0  0  0  0  0
  161.5310  200.5350  147.4200 C   0  0  2  0  0  3  0  0  0  0  0  0
  161.2220  199.4120  146.5100 C   0  0  0  0  0  2  0  0  0  0  0  0
  1 20  1  0  0  0  0
  3 17  1  0  0  0  0
  5  6  1  0  0  0  0
  6  9  2  0  0  0  0
  7 10  2  0  0  0  0
  8 19  1  0  0  0  0
 10  4  1  0  0  0  0
 10 23  1  0  0  0  0
 11 14  1  0  0  0  0
 11  2  1  0  0  0  0
 12 11  2  0  0  0  0
 13  2  2  0  0  0  0
 13  8  1  0  0  0  0
 14 18  1  0  0  0  0
 15  6  1  0  0  0  0
 16  8  2  0  0  0  0
 17  5  1  0  0  0  0
 17  4  2  0  0  0  0
 18  1  1  0  0  0  0
 19  3  2  0  0  0  0
 19  7  1  0  0  0  0
 20 33  1  1  0  0  0
 20 22  1  0  0  0  0
 21  7  1  0  0  0  0
 22 15  1  0  0  0  0
 23 24  1  0  0  0  0
 24 28  1  0  0  0  0
 24 25  2  0  0  0  0
 28 27  1  1  0  0  0
 28 26  1  0  0  0  0
 29 31  1  0  0  0  0
 29 28  1  0  0  0  0
 30 29  1  0  0  0  0
 32 29  1  0  0  0  0
 34 33  1  0  0  0  0
 35 37  1  0  0  0  0
 35 36  1  0  0  0  0
 36 34  1  1  0  0  0
 37 36  1  0  0  0  0
M  END
>  <MODEL>
2

>  <REMARK>
 VINA RESULT:      -5.7      1.304      1.530
  Name = 
  6 active torsions:
  status: ('A' for Active; 'I' for Inactive)
    1  A    between atoms: C_2  and  C_27
    2  A    between atoms: C_2  and  C_31
    3  A    between atoms: C_5  and  C_15
    4  A    between atoms: N_14  and  C_17
    5  A    between atoms: C_15  and  C_30
    6  A    between atoms: C_31  and  C_33
                            x       y       z     vdW  Elec       q    Type
                         _______ _______ _______ _____ _____    ______ ____

>  <TORSDO>
F 6

$$$$
=
 OpenBabel11072410133D

 37 39  0  0  1  0  0  0  0  0999 V2000
  159.1030  212.5030  154.5340 C   0  0  0  0  0  2  0  0  0  0  0  0
  161.5020  210.6760  153.3530 N   0  0  0  0  0  0  0  0  0  0  0  0
  160.7730  212.1300  151.0580 C   0  0  0  0  0  3  0  0  0  0  0  0
  160.8580  213.5770  149.1280 C   0  0  0  0  0  3  0  0  0  0  0  0
  159.7650  214.4250  151.2020 C   0  0  0  0  0  2  0  0  0  0  0  0
  158.2930  214.1600  151.2620 C   0  0  0  0  0  0  0  0  0  0  0  0
  161.8300  211.3610  149.0170 C   0  0  0  0  0  0  0  0  0  0  0  0
  161.7220  209.8080  151.0180 C   0  0  0  0  0  0  0  0  0  0  0  0
  157.6570  213.9480  150.2410 O   0  0  0  0  0  0  0  0  0  0  0  0
  161.5190  212.5830  148.4000 C   0  0  0  0  0  0  0  0  0  0  0  0
  161.4540  210.4300  154.7580 C   0  0  0  0  0  0  0  0  0  0  0  0
  161.5850  209.2300  155.2160 N   0  0  0  0  0  2  0  0  0  0  0  0
  161.6870  209.6290  152.4400 N   0  0  0  0  0  0  0  0  0  0  0  0
  161.0860  211.5360  155.6880 C   0  0  0  0  0  2  0  0  0  0  0  0
  157.5950  214.2330  152.5770 C   0  0  0  0  0  2  0  0  0  0  0  0
  161.9820  208.8010  150.3090 O   0  0  0  0  0  0  0  0  0  0  0  0
  160.4850  213.3560  150.4520 C   0  0  0  0  0  0  0  0  0  0  0  0
  159.5760  211.7070  155.7380 C   0  0  0  0  0  2  0  0  0  0  0  0
  161.4510  211.1190  150.3600 C   0  0  0  0  0  0  0  0  0  0  0  0
  157.5810  212.5140  154.4390 C   0  0  2  0  0  3  0  0  0  0  0  0
  162.5200  210.3970  148.2860 O   0  0  0  0  0  1  0  0  0  0  0  0
  157.1450  212.8430  153.0130 C   0  0  0  0  0  2  0  0  0  0  0  0
  161.9180  212.8110  147.0420 N   0  0  0  0  0  2  0  0  0  0  0  0
  161.1030  213.3950  146.0170 C   0  0  0  0  0  0  0  0  0  0  0  0
  161.5040  214.4530  145.4630 O   0  0  0  0  0  0  0  0  0  0  0  0
  159.9090  211.3730  145.6980 O   0  0  0  0  0  1  0  0  0  0  0  0
  159.6050  213.0480  144.0680 C   0  0  0  0  0  1  0  0  0  0  0  0
  159.8070  212.7590  145.5470 C   0  0  2  0  0  0  0  0  0  0  0  0
  158.5810  213.2380  146.3530 C   0  0  0  0  0  0  0  0  0  0  0  0
  158.8250  214.4530  146.9670 F   0  0  0  0  0  0  0  0  0  0  0  0
  157.4960  213.3910  145.5060 F   0  0  0  0  0  0  0  0  0  0  0  0
  158.2540  212.3030  147.3190 F   0  0  0  0  0  0  0  0  0  0  0  0
  156.9590  213.4890  155.4340 C   0  0  0  0  0  2  0  0  0  0  0  0
  155.6820  212.9150  156.0170 C   0  0  0  0  0  2  0  0  0  0  0  0
  155.7330  210.5970  155.5030 O   0  0  0  0  0  0  0  0  0  0  0  0
  155.9470  211.5200  156.5420 C   0  0  2  0  0  3  0  0  0  0  0  0
  154.7130  210.7100  156.4620 C   0  0  0  0  0  2  0  0  0  0  0  0
  1 18  1  0  0  0  0
  2 11  1  0  0  0  0
  4 17  2  0  0  0  0
  5  6  1  0  0  0  0
  6 15  1  0  0  0  0
  7 19  1  0  0  0  0
  8 13  1  0  0  0  0
  9  6  2  0  0  0  0
 10  7  2  0  0  0  0
 10  4  1  0  0  0  0
 11 12  2  0  0  0  0
 11 14  1  0  0  0  0
 13  2  2  0  0  0  0
 14 18  1  0  0  0  0
 15 22  1  0  0  0  0
 16  8  2  0  0  0  0
 17  3  1  0  0  0  0
 17  5  1  0  0  0  0
 19  8  1  0  0  0  0
 19  3  2  0  0  0  0
 20  1  1  0  0  0  0
 20 33  1  1  0  0  0
 21  7  1  0  0  0  0
 22 20  1  0  0  0  0
 23 10  1  0  0  0  0
 24 23  1  0  0  0  0
 25 24  2  0  0  0  0
 28 27  1  6  0  0  0
 28 26  1  0  0  0  0
 28 24  1  0  0  0  0
 28 29  1  0  0  0  0
 29 30  1  0  0  0  0
 29 32  1  0  0  0  0
 31 29  1  0  0  0  0
 33 34  1  0  0  0  0
 35 37  1  0  0  0  0
 35 36  1  0  0  0  0
 36 34  1  6  0  0  0
 37 36  1  0  0  0  0
M  END
>  <MODEL>
3

>  <REMARK>
 VINA RESULT:      -5.0      6.013      9.923
  Name = 
  6 active torsions:
  status: ('A' for Active; 'I' for Inactive)
    1  A    between atoms: C_2  and  C_27
    2  A    between atoms: C_2  and  C_31
    3  A    between atoms: C_5  and  C_15
    4  A    between atoms: N_14  and  C_17
    5  A    between atoms: C_15  and  C_30
    6  A    between atoms: C_31  and  C_33
                            x       y       z     vdW  Elec       q    Type
                         _______ _______ _______ _____ _____    ______ ____

>  <TORSDO>
F 6

$$$$
=
 OpenBabel11072410133D

 37 39  0  0  1  0  0  0  0  0999 V2000
  161.2970  206.2050  149.4140 C   0  0  0  0  0  2  0  0  0  0  0  0
  160.6390  205.6630  152.5380 N   0  0  0  0  0  0  0  0  0  0  0  0
  161.0350  208.4480  152.5620 C   0  0  0  0  0  3  0  0  0  0  0  0
  160.6840  210.8190  152.8480 C   0  0  0  0  0  3  0  0  0  0  0  0
  160.5850  209.8730  150.5440 C   0  0  0  0  0  2  0  0  0  0  0  0
  161.8970  209.8900  149.8250 C   0  0  0  0  0  0  0  0  0  0  0  0
  161.1120  209.4210  154.7800 C   0  0  0  0  0  0  0  0  0  0  0  0
  161.5190  206.9340  154.5030 C   0  0  0  0  0  0  0  0  0  0  0  0
  162.7840  210.6580  150.1670 O   0  0  0  0  0  0  0  0  0  0  0  0
  160.8670  210.6890  154.2280 C   0  0  0  0  0  0  0  0  0  0  0  0
  160.4510  204.4220  151.8590 C   0  0  0  0  0  0  0  0  0  0  0  0
  160.8700  203.3190  152.3850 N   0  0  0  0  0  2  0  0  0  0  0  0
  161.2810  205.7180  153.7820 N   0  0  0  0  0  0  0  0  0  0  0  0
  159.9210  204.4160  150.4650 C   0  0  0  0  0  2  0  0  0  0  0  0
  162.0860  209.0100  148.6370 C   0  0  0  0  0  2  0  0  0  0  0  0
  162.0280  206.8420  155.6510 O   0  0  0  0  0  0  0  0  0  0  0  0
  160.7660  209.7060  152.0150 C   0  0  0  0  0  0  0  0  0  0  0  0
  161.0330  204.7100  149.4720 C   0  0  0  0  0  2  0  0  0  0  0  0
  161.2050  208.2810  153.9450 C   0  0  0  0  0  0  0  0  0  0  0  0
  162.5420  206.5180  148.5910 C   0  0  2  0  0  3  0  0  0  0  0  0
  161.2570  209.3070  156.1600 O   0  0  0  0  0  1  0  0  0  0  0  0
  163.0810  207.8990  148.9560 C   0  0  0  0  0  2  0  0  0  0  0  0
  160.7700  211.8290  155.0920 N   0  0  0  0  0  2  0  0  0  0  0  0
  159.5920  212.2450  155.7970 C   0  0  0  0  0  0  0  0  0  0  0  0
  159.6380  212.3080  157.0550 O   0  0  0  0  0  0  0  0  0  0  0  0
  158.6640  213.3670  153.9270 O   0  0  0  0  0  1  0  0  0  0  0  0
  157.5140  213.5920  155.9720 C   0  0  0  0  0  1  0  0  0  0  0  0
  158.3180  212.6580  155.0820 C   0  0  2  0  0  0  0  0  0  0  0  0
  157.4530  211.4510  154.6600 C   0  0  0  0  0  0  0  0  0  0  0  0
  156.1070  211.7090  154.8430 F   0  0  0  0  0  0  0  0  0  0  0  0
  157.6630  211.1710  153.3200 F   0  0  0  0  0  0  0  0  0  0  0  0
  157.8020  210.3360  155.4000 F   0  0  0  0  0  0  0  0  0  0  0  0
  162.2700  206.4210  147.0930 C   0  0  0  0  0  2  0  0  0  0  0  0
  162.7340  205.0840  146.5510 C   0  0  0  0  0  2  0  0  0  0  0  0
  160.7090  204.9780  145.3130 O   0  0  0  0  0  0  0  0  0  0  0  0
  162.1050  204.8410  145.1950 C   0  0  2  0  0  3  0  0  0  0  0  0
  161.2100  203.6660  145.2600 C   0  0  0  0  0  2  0  0  0  0  0  0
  1 18  1  0  0  0  0
  2 13  2  0  0  0  0
  3 19  1  0  0  0  0
  4 10  2  0  0  0  0
  5 17  1  0  0  0  0
  6  9  2  0  0  0  0
  6  5  1  0  0  0  0
  7 21  1  0  0  0  0
  8 16  2  0  0  0  0
 10  7  1  0  0  0  0
 10 23  1  0  0  0  0
 11 12  2  0  0  0  0
 11  2  1  0  0  0  0
 13  8  1  0  0  0  0
 14 11  1  0  0  0  0
 15 22  1  0  0  0  0
 15  6  1  0  0  0  0
 17  3  2  0  0  0  0
 17  4  1  0  0  0  0
 18 14  1  0  0  0  0
 19  8  1  0  0  0  0
 19  7  2  0  0  0  0
 20 33  1  6  0  0  0
 20 22  1  0  0  0  0
 20  1  1  0  0  0  0
 23 24  1  0  0  0  0
 24 25  2  0  0  0  0
 26 28  1  0  0  0  0
 28 24  1  0  0  0  0
 28 27  1  1  0  0  0
 29 30  1  0  0  0  0
 29 28  1  0  0  0  0
 29 32  1  0  0  0  0
 31 29  1  0  0  0  0
 34 33  1  0  0  0  0
 36 37  1  0  0  0  0
 36 35  1  0  0  0  0
 36 34  1  1  0  0  0
 37 35  1  0  0  0  0
M  END
>  <MODEL>
4

>  <REMARK>
 VINA RESULT:      -4.9      2.921      4.904
  Name = 
  6 active torsions:
  status: ('A' for Active; 'I' for Inactive)
    1  A    between atoms: C_2  and  C_27
    2  A    between atoms: C_2  and  C_31
    3  A    between atoms: C_5  and  C_15
    4  A    between atoms: N_14  and  C_17
    5  A    between atoms: C_15  and  C_30
    6  A    between atoms: C_31  and  C_33
                            x       y       z     vdW  Elec       q    Type
                         _______ _______ _______ _____ _____    ______ ____

>  <TORSDO>
F 6

$$$$
=
 OpenBabel11072410133D

 37 39  0  0  1  0  0  0  0  0999 V2000
  159.0460  210.7300  155.8180 C   0  0  0  0  0  2  0  0  0  0  0  0
  161.0760  208.5040  154.6310 N   0  0  0  0  0  0  0  0  0  0  0  0
  160.7750  210.1840  152.3940 C   0  0  0  0  0  3  0  0  0  0  0  0
  161.2520  211.6710  150.5540 C   0  0  0  0  0  3  0  0  0  0  0  0
  160.2530  212.6290  152.6280 C   0  0  0  0  0  2  0  0  0  0  0  0
  158.7570  212.6720  152.6150 C   0  0  0  0  0  0  0  0  0  0  0  0
  161.7540  209.3090  150.3570 C   0  0  0  0  0  0  0  0  0  0  0  0
  161.2300  207.7200  152.2610 C   0  0  0  0  0  0  0  0  0  0  0  0
  158.1430  212.6440  151.5600 O   0  0  0  0  0  0  0  0  0  0  0  0
  161.7310  210.5980  149.7980 C   0  0  0  0  0  0  0  0  0  0  0  0
  160.9090  208.2080  156.0170 C   0  0  0  0  0  0  0  0  0  0  0  0
  160.7680  206.9860  156.4120 N   0  0  0  0  0  2  0  0  0  0  0  0
  161.0890  207.4860  153.6690 N   0  0  0  0  0  0  0  0  0  0  0  0
  160.7280  209.3210  156.9930 C   0  0  0  0  0  2  0  0  0  0  0  0
  158.0240  212.8250  153.9040 C   0  0  0  0  0  2  0  0  0  0  0  0
  161.3140  206.7150  151.5080 O   0  0  0  0  0  0  0  0  0  0  0  0
  160.7760  211.4700  151.8480 C   0  0  0  0  0  0  0  0  0  0  0  0
  159.2850  209.7990  156.9930 C   0  0  0  0  0  2  0  0  0  0  0  0
  161.2660  209.0880  151.6680 C   0  0  0  0  0  0  0  0  0  0  0  0
  157.5650  211.0610  155.6640 C   0  0  2  0  0  3  0  0  0  0  0  0
  162.2680  208.2590  149.6000 O   0  0  0  0  0  1  0  0  0  0  0  0
  157.2770  211.5400  154.2430 C   0  0  0  0  0  2  0  0  0  0  0  0
  162.2360  210.8010  148.4720 N   0  0  0  0  0  2  0  0  0  0  0  0
  162.6140  212.0630  147.9050 C   0  0  0  0  0  0  0  0  0  0  0  0
  163.8010  212.2110  147.5100 O   0  0  0  0  0  0  0  0  0  0  0  0
  162.1520  214.1020  146.7900 O   0  0  0  0  0  1  0  0  0  0  0  0
  161.4570  213.9460  149.0370 C   0  0  0  0  0  1  0  0  0  0  0  0
  161.6260  213.2020  147.7220 C   0  0  2  0  0  0  0  0  0  0  0  0
  160.2540  212.7240  147.2030 C   0  0  0  0  0  0  0  0  0  0  0  0
  159.3150  212.6940  148.2170 F   0  0  0  0  0  0  0  0  0  0  0  0
  159.8010  213.5850  146.2180 F   0  0  0  0  0  0  0  0  0  0  0  0
  160.3680  211.4570  146.6580 F   0  0  0  0  0  0  0  0  0  0  0  0
  157.1070  212.0950  156.6870 C   0  0  0  0  0  2  0  0  0  0  0  0
  155.6470  212.4480  156.4740 C   0  0  0  0  0  2  0  0  0  0  0  0
  154.0950  214.2460  156.5370 O   0  0  0  0  0  0  0  0  0  0  0  0
  155.4700  213.9490  156.5650 C   0  0  2  0  0  3  0  0  0  0  0  0
  154.8080  214.4530  155.3440 C   0  0  0  0  0  2  0  0  0  0  0  0
  1 18  1  0  0  0  0
  2 11  1  0  0  0  0
  4 17  2  0  0  0  0
  6  5  1  0  0  0  0
  6 15  1  0  0  0  0
  7 19  1  0  0  0  0
  8 13  1  0  0  0  0
  9  6  2  0  0  0  0
 10  7  2  0  0  0  0
 10  4  1  0  0  0  0
 11 12  2  0  0  0  0
 11 14  1  0  0  0  0
 13  2  2  0  0  0  0
 15 22  1  0  0  0  0
 16  8  2  0  0  0  0
 17  3  1  0  0  0  0
 17  5  1  0  0  0  0
 18 14  1  0  0  0  0
 19  8  1  0  0  0  0
 19  3  2  0  0  0  0
 20  1  1  0  0  0  0
 20 33  1  1  0  0  0
 21  7  1  0  0  0  0
 22 20  1  0  0  0  0
 23 10  1  0  0  0  0
 24 23  1  0  0  0  0
 25 24  2  0  0  0  0
 26 28  1  0  0  0  0
 28 24  1  0  0  0  0
 28 27  1  1  0  0  0
 29 28  1  0  0  0  0
 29 30  1  0  0  0  0
 31 29  1  0  0  0  0
 32 29  1  0  0  0  0
 34 33  1  0  0  0  0
 35 36  1  0  0  0  0
 36 34  1  6  0  0  0
 37 35  1  0  0  0  0
 37 36  1  0  0  0  0
M  END
>  <MODEL>
5

>  <REMARK>
 VINA RESULT:      -4.9      5.142      9.593
  Name = 
  6 active torsions:
  status: ('A' for Active; 'I' for Inactive)
    1  A    between atoms: C_2  and  C_27
    2  A    between atoms: C_2  and  C_31
    3  A    between atoms: C_5  and  C_15
    4  A    between atoms: N_14  and  C_17
    5  A    between atoms: C_15  and  C_30
    6  A    between atoms: C_31  and  C_33
                            x       y       z     vdW  Elec       q    Type
                         _______ _______ _______ _____ _____    ______ ____

>  <TORSDO>
F 6

$$$$
=
 OpenBabel11072410133D

 37 39  0  0  1  0  0  0  0  0999 V2000
  159.8550  211.5450  154.3190 C   0  0  0  0  0  2  0  0  0  0  0  0
  160.2100  211.8300  151.1130 N   0  0  0  0  0  0  0  0  0  0  0  0
  161.0470  209.1720  151.4970 C   0  0  0  0  0  3  0  0  0  0  0  0
  161.2130  206.7690  151.3520 C   0  0  0  0  0  3  0  0  0  0  0  0
  160.1860  207.7670  153.3920 C   0  0  0  0  0  2  0  0  0  0  0  0
  161.1620  208.0280  154.4960 C   0  0  0  0  0  0  0  0  0  0  0  0
  162.0290  208.1460  149.5340 C   0  0  0  0  0  0  0  0  0  0  0  0
  161.9000  210.6740  149.6780 C   0  0  0  0  0  0  0  0  0  0  0  0
  162.2260  207.4290  154.5390 O   0  0  0  0  0  0  0  0  0  0  0  0
  161.8260  206.8770  150.1000 C   0  0  0  0  0  0  0  0  0  0  0  0
  159.6010  213.0380  151.5660 C   0  0  0  0  0  0  0  0  0  0  0  0
  159.9830  214.1790  151.0970 N   0  0  0  0  0  2  0  0  0  0  0  0
  161.2340  211.8500  150.1560 N   0  0  0  0  0  0  0  0  0  0  0  0
  158.6380  212.9970  152.7050 C   0  0  0  0  0  2  0  0  0  0  0  0
  160.7900  208.9730  155.5870 C   0  0  0  0  0  2  0  0  0  0  0  0
  162.7430  210.8160  148.7540 O   0  0  0  0  0  0  0  0  0  0  0  0
  160.8230  207.9090  152.0510 C   0  0  0  0  0  0  0  0  0  0  0  0
  159.3830  212.9590  154.0290 C   0  0  0  0  0  2  0  0  0  0  0  0
  161.6450  209.3140  150.2360 C   0  0  0  0  0  0  0  0  0  0  0  0
  160.7830  211.5060  155.5290 C   0  0  2  0  0  3  0  0  0  0  0  0
  162.6100  208.2310  148.2710 O   0  0  0  0  0  1  0  0  0  0  0  0
  161.6350  210.2390  155.4990 C   0  0  0  0  0  2  0  0  0  0  0  0
  162.2160  205.7070  149.3700 N   0  0  0  0  0  2  0  0  0  0  0  0
  161.3920  204.5590  149.1280 C   0  0  0  0  0  0  0  0  0  0  0  0
  161.1490  204.2370  147.9340 O   0  0  0  0  0  0  0  0  0  0  0  0
  159.6240  204.2290  150.6710 O   0  0  0  0  0  1  0  0  0  0  0  0
  161.8000  203.7410  151.4360 C   0  0  0  0  0  1  0  0  0  0  0  0
  160.8470  203.6960  150.2520 C   0  0  2  0  0  0  0  0  0  0  0  0
  160.6080  202.2340  149.8190 C   0  0  0  0  0  0  0  0  0  0  0  0
  161.5410  201.8270  148.8830 F   0  0  0  0  0  0  0  0  0  0  0  0
  160.7060  201.3990  150.9190 F   0  0  0  0  0  0  0  0  0  0  0  0
  159.3400  202.1010  149.2790 F   0  0  0  0  0  0  0  0  0  0  0  0
  160.0100  211.6070  156.8390 C   0  0  0  0  0  2  0  0  0  0  0  0
  158.5820  211.1290  156.6560 C   0  0  0  0  0  2  0  0  0  0  0  0
  156.3200  211.6250  157.1850 O   0  0  0  0  0  0  0  0  0  0  0  0
  157.6290  212.1370  157.2610 C   0  0  2  0  0  3  0  0  0  0  0  0
  156.6700  212.6000  156.2360 C   0  0  0  0  0  2  0  0  0  0  0  0
  1 20  1  0  0  0  0
  2 11  1  0  0  0  0
  3 17  1  0  0  0  0
  4 17  2  0  0  0  0
  5  6  1  0  0  0  0
  6  9  2  0  0  0  0
  6 15  1  0  0  0  0
  7 10  2  0  0  0  0
  7 19  1  0  0  0  0
  8 13  1  0  0  0  0
  8 19  1  0  0  0  0
 10  4  1  0  0  0  0
 11 14  1  0  0  0  0
 12 11  2  0  0  0  0
 13  2  2  0  0  0  0
 14 18  1  0  0  0  0
 16  8  2  0  0  0  0
 17  5  1  0  0  0  0
 18  1  1  0  0  0  0
 19  3  2  0  0  0  0
 20 33  1  1  0  0  0
 21  7  1  0  0  0  0
 22 20  1  0  0  0  0
 22 15  1  0  0  0  0
 23 10  1  0  0  0  0
 24 23  1  0  0  0  0
 24 28  1  0  0  0  0
 25 24  2  0  0  0  0
 28 26  1  0  0  0  0
 28 27  1  1  0  0  0
 29 28  1  0  0  0  0
 29 31  1  0  0  0  0
 30 29  1  0  0  0  0
 32 29  1  0  0  0  0
 34 33  1  0  0  0  0
 35 36  1  0  0  0  0
 36 34  1  6  0  0  0
 37 35  1  0  0  0  0
 37 36  1  0  0  0  0
M  END
>  <MODEL>
6

>  <REMARK>
 VINA RESULT:      -4.8      3.314      8.650
  Name = 
  6 active torsions:
  status: ('A' for Active; 'I' for Inactive)
    1  A    between atoms: C_2  and  C_27
    2  A    between atoms: C_2  and  C_31
    3  A    between atoms: C_5  and  C_15
    4  A    between atoms: N_14  and  C_17
    5  A    between atoms: C_15  and  C_30
    6  A    between atoms: C_31  and  C_33
                            x       y       z     vdW  Elec       q    Type
                         _______ _______ _______ _____ _____    ______ ____

>  <TORSDO>
F 6

$$$$
=
 OpenBabel11072410133D

 37 39  0  0  1  0  0  0  0  0999 V2000
  160.2710  210.6950  155.2460 C   0  0  0  0  0  2  0  0  0  0  0  0
  161.1570  207.5840  155.1100 N   0  0  0  0  0  0  0  0  0  0  0  0
  161.4920  208.3410  152.4220 C   0  0  0  0  0  3  0  0  0  0  0  0
  162.4700  208.7650  150.2570 C   0  0  0  0  0  3  0  0  0  0  0  0
  162.0330  210.7020  151.7630 C   0  0  0  0  0  2  0  0  0  0  0  0
  160.6890  211.3300  151.5670 C   0  0  0  0  0  0  0  0  0  0  0  0
  161.9470  206.4940  150.9190 C   0  0  0  0  0  0  0  0  0  0  0  0
  160.8860  206.0250  153.1740 C   0  0  0  0  0  0  0  0  0  0  0  0
  160.0790  211.1800  150.5190 O   0  0  0  0  0  0  0  0  0  0  0  0
  162.4360  207.3980  149.9630 C   0  0  0  0  0  0  0  0  0  0  0  0
  160.9350  207.8860  156.4870 C   0  0  0  0  0  0  0  0  0  0  0  0
  160.3180  207.0460  157.2500 N   0  0  0  0  0  2  0  0  0  0  0  0
  160.7130  206.3770  154.5530 N   0  0  0  0  0  0  0  0  0  0  0  0
  161.2660  209.2440  157.0070 C   0  0  0  0  0  2  0  0  0  0  0  0
  160.1330  212.2050  152.6390 C   0  0  0  0  0  2  0  0  0  0  0  0
  160.5200  204.8760  152.8150 O   0  0  0  0  0  0  0  0  0  0  0  0
  162.0020  209.2380  151.4800 C   0  0  0  0  0  0  0  0  0  0  0  0
  160.1490  210.2240  156.6840 C   0  0  0  0  0  2  0  0  0  0  0  0
  161.4610  206.9610  152.1650 C   0  0  0  0  0  0  0  0  0  0  0  0
  159.0540  211.5110  154.8230 C   0  0  2  0  0  3  0  0  0  0  0  0
  161.9530  205.1340  150.6220 O   0  0  0  0  0  1  0  0  0  0  0  0
  158.9360  211.5320  153.3010 C   0  0  0  0  0  2  0  0  0  0  0  0
  162.9300  206.9040  148.7110 N   0  0  0  0  0  2  0  0  0  0  0  0
  162.1540  206.7260  147.5180 C   0  0  0  0  0  0  0  0  0  0  0  0
  162.4960  207.3560  146.4810 O   0  0  0  0  0  0  0  0  0  0  0  0
  160.2760  206.0140  146.2600 O   0  0  0  0  0  1  0  0  0  0  0  0
  160.0270  206.0500  148.6040 C   0  0  0  0  0  1  0  0  0  0  0  0
  160.9750  205.7730  147.4480 C   0  0  2  0  0  0  0  0  0  0  0  0
  161.4030  204.2910  147.4570 C   0  0  0  0  0  0  0  0  0  0  0  0
  160.9240  203.6350  148.5770 F   0  0  0  0  0  0  0  0  0  0  0  0
  160.9030  203.6520  146.3350 F   0  0  0  0  0  0  0  0  0  0  0  0
  162.7840  204.1960  147.4360 F   0  0  0  0  0  0  0  0  0  0  0  0
  159.1010  212.9290  155.3820 C   0  0  0  0  0  2  0  0  0  0  0  0
  157.8400  213.2380  156.1670 C   0  0  0  0  0  2  0  0  0  0  0  0
  155.6070  212.4950  155.8470 O   0  0  0  0  0  0  0  0  0  0  0  0
  156.9110  212.0430  156.1210 C   0  0  2  0  0  3  0  0  0  0  0  0
  155.8890  212.1610  157.1820 C   0  0  0  0  0  2  0  0  0  0  0  0
  1 18  1  0  0  0  0
  2 11  1  0  0  0  0
  4 17  1  0  0  0  0
  6  5  1  0  0  0  0
  6 15  1  0  0  0  0
  7 19  2  0  0  0  0
  8 13  1  0  0  0  0
  9  6  2  0  0  0  0
 10  4  2  0  0  0  0
 10  7  1  0  0  0  0
 11 14  1  0  0  0  0
 11 12  2  0  0  0  0
 13  2  2  0  0  0  0
 15 22  1  0  0  0  0
 16  8  2  0  0  0  0
 17  5  1  0  0  0  0
 17  3  2  0  0  0  0
 18 14  1  0  0  0  0
 19  3  1  0  0  0  0
 19  8  1  0  0  0  0
 20  1  1  0  0  0  0
 20 33  1  6  0  0  0
 21  7  1  0  0  0  0
 22 20  1  0  0  0  0
 23 10  1  0  0  0  0
 24 23  1  0  0  0  0
 25 24  2  0  0  0  0
 26 28  1  0  0  0  0
 28 29  1  0  0  0  0
 28 24  1  0  0  0  0
 28 27  1  1  0  0  0
 29 30  1  0  0  0  0
 31 29  1  0  0  0  0
 32 29  1  0  0  0  0
 33 34  1  0  0  0  0
 35 36  1  0  0  0  0
 35 37  1  0  0  0  0
 36 34  1  1  0  0  0
 36 37  1  0  0  0  0
M  END
>  <MODEL>
7

>  <REMARK>
 VINA RESULT:      -4.0      3.541      9.336
  Name = 
  6 active torsions:
  status: ('A' for Active; 'I' for Inactive)
    1  A    between atoms: C_2  and  C_27
    2  A    between atoms: C_2  and  C_31
    3  A    between atoms: C_5  and  C_15
    4  A    between atoms: N_14  and  C_17
    5  A    between atoms: C_15  and  C_30
    6  A    between atoms: C_31  and  C_33
                            x       y       z     vdW  Elec       q    Type
                         _______ _______ _______ _____ _____    ______ ____

>  <TORSDO>
F 6

$$$$
=
 OpenBabel11072410133D

 37 39  0  0  1  0  0  0  0  0999 V2000
  161.9120  203.6590  148.4880 C   0  0  0  0  0  2  0  0  0  0  0  0
  162.5560  206.6710  147.4880 N   0  0  0  0  0  0  0  0  0  0  0  0
  162.1130  207.1140  150.2310 C   0  0  0  0  0  3  0  0  0  0  0  0
  162.4210  207.7600  152.5350 C   0  0  0  0  0  3  0  0  0  0  0  0
  162.5530  205.3400  151.9520 C   0  0  0  0  0  2  0  0  0  0  0  0
  161.2460  204.6190  152.0580 C   0  0  0  0  0  0  0  0  0  0  0  0
  162.0030  209.4530  150.8540 C   0  0  0  0  0  0  0  0  0  0  0  0
  161.6400  208.7980  148.4320 C   0  0  0  0  0  0  0  0  0  0  0  0
  160.3440  205.0650  152.7520 O   0  0  0  0  0  0  0  0  0  0  0  0
  162.2300  209.1020  152.1950 C   0  0  0  0  0  0  0  0  0  0  0  0
  162.7700  205.8140  146.3680 C   0  0  0  0  0  0  0  0  0  0  0  0
  162.3660  206.1620  145.1910 N   0  0  0  0  0  2  0  0  0  0  0  0
  161.9050  207.9030  147.3440 N   0  0  0  0  0  0  0  0  0  0  0  0
  163.3100  204.4400  146.5830 C   0  0  0  0  0  2  0  0  0  0  0  0
  161.0800  203.3090  151.3660 C   0  0  0  0  0  2  0  0  0  0  0  0
  161.1250  209.9140  148.1590 O   0  0  0  0  0  0  0  0  0  0  0  0
  162.3640  206.7670  151.5610 C   0  0  0  0  0  0  0  0  0  0  0  0
  162.2000  203.4920  147.0060 C   0  0  0  0  0  2  0  0  0  0  0  0
  161.9350  208.4540  149.8530 C   0  0  0  0  0  0  0  0  0  0  0  0
  160.6680  202.8810  148.9030 C   0  0  2  0  0  3  0  0  0  0  0  0
  161.8500  210.7990  150.5300 O   0  0  0  0  0  1  0  0  0  0  0  0
  160.1020  203.4460  150.2040 C   0  0  0  0  0  2  0  0  0  0  0  0
  162.3020  210.1300  153.1910 N   0  0  0  0  0  2  0  0  0  0  0  0
  161.2860  210.4300  154.1580 C   0  0  0  0  0  0  0  0  0  0  0  0
  161.5800  210.3470  155.3810 O   0  0  0  0  0  0  0  0  0  0  0  0
  159.3470  209.9470  152.8850 O   0  0  0  0  0  1  0  0  0  0  0  0
  159.9880  212.2120  153.0180 C   0  0  0  0  0  1  0  0  0  0  0  0
  159.8950  210.8890  153.7620 C   0  0  2  0  0  0  0  0  0  0  0  0
  158.9450  211.0260  154.9700 C   0  0  0  0  0  0  0  0  0  0  0  0
  158.6810  209.7950  155.5440 F   0  0  0  0  0  0  0  0  0  0  0  0
  159.5240  211.8360  155.9310 F   0  0  0  0  0  0  0  0  0  0  0  0
  157.7510  211.6020  154.5720 F   0  0  0  0  0  0  0  0  0  0  0  0
  160.9520  201.3890  149.0390 C   0  0  0  0  0  2  0  0  0  0  0  0
  160.8040  200.6920  147.7010 C   0  0  0  0  0  2  0  0  0  0  0  0
  159.2520  201.3050  146.0100 O   0  0  0  0  0  0  0  0  0  0  0  0
  160.4450  201.7080  146.6370 C   0  0  2  0  0  3  0  0  0  0  0  0
  160.4440  201.0650  145.3070 C   0  0  0  0  0  2  0  0  0  0  0  0
  1 20  1  0  0  0  0
  3 17  1  0  0  0  0
  5  6  1  0  0  0  0
  6  9  2  0  0  0  0
  7 10  2  0  0  0  0
  8 19  1  0  0  0  0
 10  4  1  0  0  0  0
 10 23  1  0  0  0  0
 11 14  1  0  0  0  0
 11  2  1  0  0  0  0
 12 11  2  0  0  0  0
 13  2  2  0  0  0  0
 13  8  1  0  0  0  0
 14 18  1  0  0  0  0
 15  6  1  0  0  0  0
 16  8  2  0  0  0  0
 17  5  1  0  0  0  0
 17  4  2  0  0  0  0
 18  1  1  0  0  0  0
 19  3  2  0  0  0  0
 19  7  1  0  0  0  0
 20 33  1  1  0  0  0
 20 22  1  0  0  0  0
 21  7  1  0  0  0  0
 22 15  1  0  0  0  0
 23 24  1  0  0  0  0
 24 25  2  0  0  0  0
 26 28  1  0  0  0  0
 28 27  1  6  0  0  0
 28 24  1  0  0  0  0
 28 29  1  0  0  0  0
 29 30  1  0  0  0  0
 29 31  1  0  0  0  0
 32 29  1  0  0  0  0
 34 33  1  0  0  0  0
 35 36  1  0  0  0  0
 36 34  1  1  0  0  0
 37 35  1  0  0  0  0
 37 36  1  0  0  0  0
M  END
>  <MODEL>
8

>  <REMARK>
 VINA RESULT:      -4.0      1.389      1.547
  Name = 
  6 active torsions:
  status: ('A' for Active; 'I' for Inactive)
    1  A    between atoms: C_2  and  C_27
    2  A    between atoms: C_2  and  C_31
    3  A    between atoms: C_5  and  C_15
    4  A    between atoms: N_14  and  C_17
    5  A    between atoms: C_15  and  C_30
    6  A    between atoms: C_31  and  C_33
                            x       y       z     vdW  Elec       q    Type
                         _______ _______ _______ _____ _____    ______ ____

>  <TORSDO>
F 6

$$$$
=
 OpenBabel11072410133D

 37 39  0  0  1  0  0  0  0  0999 V2000
  160.6980  208.2070  153.4130 C   0  0  0  0  0  2  0  0  0  0  0  0
  161.1300  209.3510  150.4150 N   0  0  0  0  0  0  0  0  0  0  0  0
  161.2370  206.5810  149.9380 C   0  0  0  0  0  3  0  0  0  0  0  0
  160.7660  204.3740  149.0820 C   0  0  0  0  0  3  0  0  0  0  0  0
  160.0280  204.9330  151.3970 C   0  0  0  0  0  2  0  0  0  0  0  0
  161.0330  204.5920  152.4510 C   0  0  0  0  0  0  0  0  0  0  0  0
  161.9240  205.9850  147.6920 C   0  0  0  0  0  0  0  0  0  0  0  0
  162.4630  208.2970  148.5800 C   0  0  0  0  0  0  0  0  0  0  0  0
  161.9020  203.7600  152.2370 O   0  0  0  0  0  0  0  0  0  0  0  0
  161.3920  204.6980  147.8750 C   0  0  0  0  0  0  0  0  0  0  0  0
  160.8580  210.4780  151.2480 C   0  0  0  0  0  0  0  0  0  0  0  0
  161.5290  211.5720  151.1060 N   0  0  0  0  0  2  0  0  0  0  0  0
  162.1280  209.4010  149.4320 N   0  0  0  0  0  0  0  0  0  0  0  0
  159.9130  210.3380  152.3930 C   0  0  0  0  0  2  0  0  0  0  0  0
  160.9180  205.2240  153.7970 C   0  0  0  0  0  2  0  0  0  0  0  0
  163.3190  208.4950  147.6780 O   0  0  0  0  0  0  0  0  0  0  0  0
  160.6860  205.3090  150.1120 C   0  0  0  0  0  0  0  0  0  0  0  0
  160.6150  209.7130  153.5880 C   0  0  0  0  0  2  0  0  0  0  0  0
  161.8570  206.9430  148.7320 C   0  0  0  0  0  0  0  0  0  0  0  0
  161.5770  207.5710  154.4850 C   0  0  2  0  0  3  0  0  0  0  0  0
  162.5130  206.3000  146.4700 O   0  0  0  0  0  1  0  0  0  0  0  0
  162.0660  206.2010  154.0200 C   0  0  0  0  0  2  0  0  0  0  0  0
  161.4640  203.7460  146.8060 N   0  0  0  0  0  2  0  0  0  0  0  0
  160.9320  202.4140  146.8350 C   0  0  0  0  0  0  0  0  0  0  0  0
  160.0630  202.0980  145.9790 O   0  0  0  0  0  0  0  0  0  0  0  0
  162.6950  201.7180  148.2580 O   0  0  0  0  0  1  0  0  0  0  0  0
  161.5150  200.0190  147.1260 C   0  0  0  0  0  1  0  0  0  0  0  0
  161.4130  201.3670  147.8230 C   0  0  2  0  0  0  0  0  0  0  0  0
  160.5020  201.2550  149.0640 C   0  0  0  0  0  0  0  0  0  0  0  0
  159.2170  201.6830  148.7850 F   0  0  0  0  0  0  0  0  0  0  0  0
  160.4390  199.9360  149.4800 F   0  0  0  0  0  0  0  0  0  0  0  0
  161.0160  202.0160  150.0990 F   0  0  0  0  0  0  0  0  0  0  0  0
  160.8510  207.4620  155.8220 C   0  0  0  0  0  2  0  0  0  0  0  0
  161.6160  208.1960  156.9070 C   0  0  0  0  0  2  0  0  0  0  0  0
  163.1010  210.0160  157.2610 O   0  0  0  0  0  0  0  0  0  0  0  0
  162.1630  209.4940  156.3520 C   0  0  2  0  0  3  0  0  0  0  0  0
  161.8280  210.6100  157.2610 C   0  0  0  0  0  2  0  0  0  0  0  0
  1 18  1  0  0  0  0
  1 20  1  0  0  0  0
  2 11  1  0  0  0  0
  3 17  1  0  0  0  0
  4 17  2  0  0  0  0
  5  6  1  0  0  0  0
  6 15  1  0  0  0  0
  7 10  2  0  0  0  0
  7 19  1  0  0  0  0
  8 19  1  0  0  0  0
  8 13  1  0  0  0  0
  9  6  2  0  0  0  0
 10  4  1  0  0  0  0
 11 14  1  0  0  0  0
 12 11  2  0  0  0  0
 13  2  2  0  0  0  0
 14 18  1  0  0  0  0
 15 22  1  0  0  0  0
 16  8  2  0  0  0  0
 17  5  1  0  0  0  0
 19  3  2  0  0  0  0
 20 33  1  1  0  0  0
 21  7  1  0  0  0  0
 22 20  1  0  0  0  0
 23 24  1  0  0  0  0
 23 10  1  0  0  0  0
 24 28  1  0  0  0  0
 25 24  2  0  0  0  0
 28 27  1  6  0  0  0
 28 26  1  0  0  0  0
 28 29  1  0  0  0  0
 29 31  1  0  0  0  0
 29 32  1  0  0  0  0
 30 29  1  0  0  0  0
 33 34  1  0  0  0  0
 35 37  1  0  0  0  0
 36 34  1  1  0  0  0
 36 35  1  0  0  0  0
 36 37  1  0  0  0  0
M  END
>  <MODEL>
9

>  <REMARK>
 VINA RESULT:      -3.4      3.112      8.409
  Name = 
  6 active torsions:
  status: ('A' for Active; 'I' for Inactive)
    1  A    between atoms: C_2  and  C_27
    2  A    between atoms: C_2  and  C_31
    3  A    between atoms: C_5  and  C_15
    4  A    between atoms: N_14  and  C_17
    5  A    between atoms: C_15  and  C_30
    6  A    between atoms: C_31  and  C_33
                            x       y       z     vdW  Elec       q    Type
                         _______ _______ _______ _____ _____    ______ ____

>  <TORSDO>
F 6

$$$$
