=
 OpenBabel11072411363D

 25 27  0  0  1  0  0  0  0  0999 V2000
  161.2910  203.0450  149.2440 C   0  0  1  0  0  3  0  0  0  0  0  0
  161.0050  206.5290  150.4200 C   0  0  0  0  0  0  0  0  0  0  0  0
  161.1610  203.9420  151.7530 C   0  0  0  0  0  2  0  0  0  0  0  0
  160.9260  206.4720  151.9370 C   0  0  1  0  0  3  0  0  0  0  0  0
  161.2600  203.6790  147.9730 O   0  0  0  0  0  0  0  0  0  0  0  0
  161.2200  204.1130  150.2630 C   0  0  0  0  0  0  0  0  0  0  0  0
  161.1730  205.0780  148.2050 C   0  0  1  0  0  3  0  0  0  0  0  0
  161.6610  205.2140  152.4500 C   0  0  0  0  0  2  0  0  0  0  0  0
  161.1350  205.2670  149.6720 C   0  0  0  0  0  0  0  0  0  0  0  0
  160.8880  207.6170  149.7950 O   0  0  0  0  0  0  0  0  0  0  0  0
  160.5000  208.0670  154.9510 C   0  0  0  0  0  2  0  0  0  0  0  0
  161.4580  207.7520  152.6130 C   0  0  0  0  0  3  0  0  0  0  0  0
  160.6860  210.0560  153.3410 C   0  0  0  0  0  2  0  0  0  0  0  0
  161.6840  207.5640  154.1290 C   0  0  0  0  0  2  0  0  0  0  0  0
  160.5330  208.9460  152.3050 C   0  0  0  0  0  2  0  0  0  0  0  0
  160.2770  209.5700  154.7380 C   0  0  0  0  0  2  0  0  0  0  0  0
  160.5760  200.8360  150.1630 C   0  0  0  0  0  1  0  0  0  0  0  0
  159.6520  201.6710  148.1330 O   0  0  0  0  0  1  0  0  0  0  0  0
  160.1320  202.0590  149.3860 C   0  0  2  0  0  3  0  0  0  0  0  0
  162.3890  205.7740  147.6160 C   0  0  0  0  0  2  0  0  0  0  0  0
  162.8990  205.0060  146.4080 C   0  0  0  0  0  2  0  0  0  0  0  0
  162.4340  205.6670  145.1220 C   0  0  0  0  0  2  0  0  0  0  0  0
  160.1350  206.2890  145.0170 O   0  0  0  0  0  1  0  0  0  0  0  0
  160.9930  205.3800  144.8710 C   0  0  0  0  0  0  0  0  0  0  0  0
  160.5930  204.1020  144.5050 O   0  0  0  0  0  0  0  0  0  0  0  0
  1 19  1  6  0  0  0
  1  6  1  0  0  0  0
  2  4  1  0  0  0  0
  3  8  1  0  0  0  0
  4  8  1  0  0  0  0
  4 12  1  1  0  0  0
  5  7  1  0  0  0  0
  5  1  1  0  0  0  0
  6  3  1  0  0  0  0
  7 20  1  1  0  0  0
  7  9  1  0  0  0  0
  9  6  2  0  0  0  0
  9  2  1  0  0  0  0
 10  2  2  0  0  0  0
 12 14  1  0  0  0  0
 13 16  1  0  0  0  0
 14 11  1  0  0  0  0
 15 12  1  0  0  0  0
 15 13  1  0  0  0  0
 16 11  1  0  0  0  0
 18 19  1  0  0  0  0
 19 17  1  6  0  0  0
 21 20  1  0  0  0  0
 22 21  1  0  0  0  0
 24 23  1  0  0  0  0
 24 22  1  0  0  0  0
 25 24  2  0  0  0  0
M  END
>  <MODEL>
1

>  <REMARK>
 VINA RESULT:      -8.4      0.000      0.000
  Name = 
  6 active torsions:
  status: ('A' for Active; 'I' for Inactive)
    1  A    between atoms: C_1  and  C_22
    2  A    between atoms: C_5  and  C_11
    3  A    between atoms: C_5  and  C_19
    4  A    between atoms: C_7  and  C_14
    5  A    between atoms: C_13  and  C_18
    6  A    between atoms: C_18  and  C_19
                            x       y       z     vdW  Elec       q    Type
                         _______ _______ _______ _____ _____    ______ ____

>  <TORSDO>
F 6

$$$$
=
 OpenBabel11072411363D

 25 27  0  0  1  0  0  0  0  0999 V2000
  161.7370  207.3800  152.0820 C   0  0  1  0  0  3  0  0  0  0  0  0
  161.0990  205.8170  148.8030 C   0  0  0  0  0  0  0  0  0  0  0  0
  162.1380  208.4040  149.6520 C   0  0  0  0  0  2  0  0  0  0  0  0
  161.4610  206.8510  147.7490 C   0  0  1  0  0  3  0  0  0  0  0  0
  161.2240  206.1400  152.5510 O   0  0  0  0  0  0  0  0  0  0  0  0
  161.7410  207.3150  150.6060 C   0  0  0  0  0  0  0  0  0  0  0  0
  160.9270  205.3500  151.4090 C   0  0  1  0  0  3  0  0  0  0  0  0
  162.5480  207.8000  148.3020 C   0  0  0  0  0  2  0  0  0  0  0  0
  161.2640  206.1680  150.2230 C   0  0  0  0  0  0  0  0  0  0  0  0
  160.5960  204.7050  148.4880 O   0  0  0  0  0  0  0  0  0  0  0  0
  159.9940  204.9350  145.3030 C   0  0  0  0  0  2  0  0  0  0  0  0
  161.8940  206.2170  146.4110 C   0  0  0  0  0  3  0  0  0  0  0  0
  162.3620  203.9520  145.3700 C   0  0  0  0  0  2  0  0  0  0  0  0
  160.7670  206.2500  145.3550 C   0  0  0  0  0  2  0  0  0  0  0  0
  162.4350  204.7930  146.6410 C   0  0  0  0  0  2  0  0  0  0  0  0
  160.9110  203.7690  144.9090 C   0  0  0  0  0  2  0  0  0  0  0  0
  161.6850  209.8310  152.5550 C   0  0  0  0  0  1  0  0  0  0  0  0
  160.4360  208.3040  153.8880 O   0  0  0  0  0  1  0  0  0  0  0  0
  160.8860  208.5440  152.5870 C   0  0  2  0  0  3  0  0  0  0  0  0
  161.7640  204.0810  151.4290 C   0  0  0  0  0  2  0  0  0  0  0  0
  160.8630  202.8590  151.4100 C   0  0  0  0  0  2  0  0  0  0  0  0
  161.5470  201.7040  150.6980 C   0  0  0  0  0  2  0  0  0  0  0  0
  159.5850  201.6290  149.3440 O   0  0  0  0  0  1  0  0  0  0  0  0
  160.8030  201.3320  149.4610 C   0  0  0  0  0  0  0  0  0  0  0  0
  161.4440  200.6310  148.4480 O   0  0  0  0  0  0  0  0  0  0  0  0
  1  5  1  0  0  0  0
  1 19  1  6  0  0  0
  2  9  1  0  0  0  0
  3  6  1  0  0  0  0
  4 12  1  6  0  0  0
  4  8  1  0  0  0  0
  4  2  1  0  0  0  0
  6  1  1  0  0  0  0
  7 20  1  1  0  0  0
  7  5  1  0  0  0  0
  8  3  1  0  0  0  0
  9  6  2  0  0  0  0
  9  7  1  0  0  0  0
 10  2  2  0  0  0  0
 11 14  1  0  0  0  0
 12 15  1  0  0  0  0
 13 15  1  0  0  0  0
 14 12  1  0  0  0  0
 16 11  1  0  0  0  0
 16 13  1  0  0  0  0
 19 17  1  1  0  0  0
 19 18  1  0  0  0  0
 21 20  1  0  0  0  0
 22 21  1  0  0  0  0
 23 24  1  0  0  0  0
 24 22  1  0  0  0  0
 25 24  2  0  0  0  0
M  END
>  <MODEL>
2

>  <REMARK>
 VINA RESULT:      -7.9      1.796      6.611
  Name = 
  6 active torsions:
  status: ('A' for Active; 'I' for Inactive)
    1  A    between atoms: C_1  and  C_22
    2  A    between atoms: C_5  and  C_11
    3  A    between atoms: C_5  and  C_19
    4  A    between atoms: C_7  and  C_14
    5  A    between atoms: C_13  and  C_18
    6  A    between atoms: C_18  and  C_19
                            x       y       z     vdW  Elec       q    Type
                         _______ _______ _______ _____ _____    ______ ____

>  <TORSDO>
F 6

$$$$
=
 OpenBabel11072411363D

 25 27  0  0  1  0  0  0  0  0999 V2000
  160.6100  208.5850  155.0560 C   0  0  1  0  0  3  0  0  0  0  0  0
  161.4060  208.7980  151.4610 C   0  0  0  0  0  0  0  0  0  0  0  0
  161.0330  206.5950  153.3310 C   0  0  0  0  0  2  0  0  0  0  0  0
  161.5890  207.3710  150.9700 C   0  0  1  0  0  3  0  0  0  0  0  0
  160.6260  210.0020  154.9410 O   0  0  0  0  0  0  0  0  0  0  0  0
  160.8860  208.0390  153.7110 C   0  0  0  0  0  0  0  0  0  0  0  0
  160.9000  210.3090  153.5820 C   0  0  1  0  0  3  0  0  0  0  0  0
  160.7450  206.4090  151.8360 C   0  0  0  0  0  2  0  0  0  0  0  0
  161.0680  209.0200  152.8770 C   0  0  0  0  0  0  0  0  0  0  0  0
  161.6090  209.7850  150.7040 O   0  0  0  0  0  0  0  0  0  0  0  0
  161.1440  204.7600  148.7790 C   0  0  0  0  0  2  0  0  0  0  0  0
  161.2690  207.2080  149.4700 C   0  0  0  0  0  3  0  0  0  0  0  0
  162.3520  206.4710  147.2980 C   0  0  0  0  0  2  0  0  0  0  0  0
  160.3500  205.9970  149.1940 C   0  0  0  0  0  2  0  0  0  0  0  0
  162.5700  207.1520  148.6460 C   0  0  0  0  0  2  0  0  0  0  0  0
  161.9180  205.0100  147.4790 C   0  0  0  0  0  2  0  0  0  0  0  0
  160.9720  207.3550  157.1990 C   0  0  0  0  0  1  0  0  0  0  0  0
  162.3590  209.1950  156.5990 O   0  0  0  0  0  1  0  0  0  0  0  0
  161.6480  208.1130  156.0740 C   0  0  2  0  0  3  0  0  0  0  0  0
  159.7370  211.0870  152.9860 C   0  0  0  0  0  2  0  0  0  0  0  0
  159.1370  212.0130  154.0290 C   0  0  0  0  0  2  0  0  0  0  0  0
  157.6200  211.9960  153.9450 C   0  0  0  0  0  2  0  0  0  0  0  0
  157.7200  211.1650  156.1780 O   0  0  0  0  0  1  0  0  0  0  0  0
  157.0330  211.3150  155.1350 C   0  0  0  0  0  0  0  0  0  0  0  0
  155.7370  210.8190  155.0820 O   0  0  0  0  0  0  0  0  0  0  0  0
  1 19  1  1  0  0  0
  2  9  1  0  0  0  0
  3  6  1  0  0  0  0
  4 12  1  6  0  0  0
  4  2  1  0  0  0  0
  4  8  1  0  0  0  0
  5  1  1  0  0  0  0
  6  1  1  0  0  0  0
  7 20  1  6  0  0  0
  7  5  1  0  0  0  0
  8  3  1  0  0  0  0
  9  7  1  0  0  0  0
  9  6  2  0  0  0  0
 10  2  2  0  0  0  0
 11 14  1  0  0  0  0
 13 16  1  0  0  0  0
 13 15  1  0  0  0  0
 14 12  1  0  0  0  0
 15 12  1  0  0  0  0
 16 11  1  0  0  0  0
 19 18  1  0  0  0  0
 19 17  1  1  0  0  0
 20 21  1  0  0  0  0
 22 21  1  0  0  0  0
 22 24  1  0  0  0  0
 24 23  1  0  0  0  0
 25 24  2  0  0  0  0
M  END
>  <MODEL>
3

>  <REMARK>
 VINA RESULT:      -7.6      3.524      8.137
  Name = 
  6 active torsions:
  status: ('A' for Active; 'I' for Inactive)
    1  A    between atoms: C_1  and  C_22
    2  A    between atoms: C_5  and  C_11
    3  A    between atoms: C_5  and  C_19
    4  A    between atoms: C_7  and  C_14
    5  A    between atoms: C_13  and  C_18
    6  A    between atoms: C_18  and  C_19
                            x       y       z     vdW  Elec       q    Type
                         _______ _______ _______ _____ _____    ______ ____

>  <TORSDO>
F 6

$$$$
=
 OpenBabel11072411363D

 25 27  0  0  1  0  0  0  0  0999 V2000
  161.1840  206.6350  149.2070 C   0  0  1  0  0  3  0  0  0  0  0  0
  161.3880  206.1140  152.8520 C   0  0  0  0  0  0  0  0  0  0  0  0
  161.0410  208.4550  151.1520 C   0  0  0  0  0  2  0  0  0  0  0  0
  161.2920  207.4880  153.4950 C   0  0  1  0  0  3  0  0  0  0  0  0
  161.3700  205.2260  149.1940 O   0  0  0  0  0  0  0  0  0  0  0  0
  161.1550  207.0550  150.6230 C   0  0  0  0  0  0  0  0  0  0  0  0
  161.4510  204.8020  150.5470 C   0  0  1  0  0  3  0  0  0  0  0  0
  160.4850  208.4360  152.5810 C   0  0  0  0  0  2  0  0  0  0  0  0
  161.3250  206.0150  151.3840 C   0  0  0  0  0  0  0  0  0  0  0  0
  161.5910  205.0780  153.5410 O   0  0  0  0  0  0  0  0  0  0  0  0
  159.7420  209.6900  155.6300 C   0  0  0  0  0  2  0  0  0  0  0  0
  160.7070  207.4430  154.9210 C   0  0  0  0  0  3  0  0  0  0  0  0
  161.1610  208.3100  157.2610 C   0  0  0  0  0  2  0  0  0  0  0  0
  159.4340  208.3070  155.0610 C   0  0  0  0  0  2  0  0  0  0  0  0
  161.7840  207.8200  155.9560 C   0  0  0  0  0  2  0  0  0  0  0  0
  160.3420  209.5870  157.0380 C   0  0  0  0  0  2  0  0  0  0  0  0
  162.0840  208.8360  148.4430 C   0  0  0  0  0  1  0  0  0  0  0  0
  162.3710  206.8750  147.1220 O   0  0  0  0  0  1  0  0  0  0  0  0
  162.3050  207.3360  148.4400 C   0  0  2  0  0  3  0  0  0  0  0  0
  160.3200  203.8320  150.8510 C   0  0  0  0  0  2  0  0  0  0  0  0
  160.7670  202.4060  150.5800 C   0  0  0  0  0  2  0  0  0  0  0  0
  160.0110  201.8270  149.3960 C   0  0  0  0  0  2  0  0  0  0  0  0
  161.1520  202.4720  147.4040 O   0  0  0  0  0  0  0  0  0  0  0  0
  160.9340  201.5700  148.2540 C   0  0  0  0  0  0  0  0  0  0  0  0
  161.5320  200.3250  148.1100 O   0  0  0  0  0  1  0  0  0  0  0  0
  1 19  1  6  0  0  0
  1  6  1  0  0  0  0
  2  4  1  0  0  0  0
  2 10  2  0  0  0  0
  3  8  1  0  0  0  0
  4 12  1  1  0  0  0
  5  1  1  0  0  0  0
  5  7  1  0  0  0  0
  6  3  1  0  0  0  0
  6  9  2  0  0  0  0
  7 20  1  1  0  0  0
  7  9  1  0  0  0  0
  8  4  1  0  0  0  0
  9  2  1  0  0  0  0
 11 16  1  0  0  0  0
 12 14  1  0  0  0  0
 12 15  1  0  0  0  0
 14 11  1  0  0  0  0
 15 13  1  0  0  0  0
 16 13  1  0  0  0  0
 18 19  1  0  0  0  0
 19 17  1  6  0  0  0
 21 20  1  0  0  0  0
 22 21  1  0  0  0  0
 23 24  2  0  0  0  0
 24 22  1  0  0  0  0
 25 24  1  0  0  0  0
M  END
>  <MODEL>
4

>  <REMARK>
 VINA RESULT:      -7.3      1.975      4.262
  Name = 
  6 active torsions:
  status: ('A' for Active; 'I' for Inactive)
    1  A    between atoms: C_1  and  C_22
    2  A    between atoms: C_5  and  C_11
    3  A    between atoms: C_5  and  C_19
    4  A    between atoms: C_7  and  C_14
    5  A    between atoms: C_13  and  C_18
    6  A    between atoms: C_18  and  C_19
                            x       y       z     vdW  Elec       q    Type
                         _______ _______ _______ _____ _____    ______ ____

>  <TORSDO>
F 6

$$$$
=
 OpenBabel11072411363D

 25 27  0  0  1  0  0  0  0  0999 V2000
  161.4240  205.0460  147.5990 C   0  0  1  0  0  3  0  0  0  0  0  0
  161.4400  205.4420  151.2660 C   0  0  0  0  0  0  0  0  0  0  0  0
  161.4100  207.3020  149.0230 C   0  0  0  0  0  2  0  0  0  0  0  0
  161.4710  206.9360  151.5430 C   0  0  1  0  0  3  0  0  0  0  0  0
  161.4560  203.6680  147.9460 O   0  0  0  0  0  0  0  0  0  0  0  0
  161.3900  205.8100  148.8640 C   0  0  0  0  0  0  0  0  0  0  0  0
  161.4430  203.5930  149.3640 C   0  0  1  0  0  3  0  0  0  0  0  0
  160.8040  207.6970  150.3760 C   0  0  0  0  0  2  0  0  0  0  0  0
  161.4190  204.9830  149.8670 C   0  0  0  0  0  0  0  0  0  0  0  0
  161.5050  204.5980  152.2000 O   0  0  0  0  0  0  0  0  0  0  0  0
  161.4380  209.6730  153.6220 C   0  0  0  0  0  2  0  0  0  0  0  0
  160.8330  207.3080  152.8970 C   0  0  0  0  0  3  0  0  0  0  0  0
  161.4670  207.7450  155.3140 C   0  0  0  0  0  2  0  0  0  0  0  0
  160.3910  208.7870  152.9520 C   0  0  0  0  0  2  0  0  0  0  0  0
  161.7800  206.9400  154.0560 C   0  0  0  0  0  2  0  0  0  0  0  0
  161.6740  209.2470  155.0770 C   0  0  0  0  0  2  0  0  0  0  0  0
  162.2050  205.8280  145.3600 C   0  0  0  0  0  1  0  0  0  0  0  0
  163.5370  204.3530  146.6710 O   0  0  0  0  0  1  0  0  0  0  0  0
  162.6400  205.4210  146.7530 C   0  0  2  0  0  3  0  0  0  0  0  0
  160.2030  202.8440  149.8270 C   0  0  0  0  0  2  0  0  0  0  0  0
  159.8890  201.7070  148.8690 C   0  0  0  0  0  2  0  0  0  0  0  0
  161.1380  200.8910  148.5840 C   0  0  0  0  0  2  0  0  0  0  0  0
  161.7930  199.4530  146.7990 O   0  0  0  0  0  1  0  0  0  0  0  0
  161.2020  200.5090  147.1450 C   0  0  0  0  0  0  0  0  0  0  0  0
  160.6370  201.3340  146.1810 O   0  0  0  0  0  0  0  0  0  0  0  0
  1 19  1  1  0  0  0
  1  5  1  0  0  0  0
  1  6  1  0  0  0  0
  2  4  1  0  0  0  0
  2 10  2  0  0  0  0
  3  8  1  0  0  0  0
  4 12  1  1  0  0  0
  5  7  1  0  0  0  0
  6  3  1  0  0  0  0
  6  9  2  0  0  0  0
  7 20  1  6  0  0  0
  7  9  1  0  0  0  0
  8  4  1  0  0  0  0
  9  2  1  0  0  0  0
 11 16  1  0  0  0  0
 12 14  1  0  0  0  0
 12 15  1  0  0  0  0
 14 11  1  0  0  0  0
 15 13  1  0  0  0  0
 16 13  1  0  0  0  0
 18 19  1  0  0  0  0
 19 17  1  6  0  0  0
 21 20  1  0  0  0  0
 22 21  1  0  0  0  0
 23 24  1  0  0  0  0
 24 22  1  0  0  0  0
 25 24  2  0  0  0  0
M  END
>  <MODEL>
5

>  <REMARK>
 VINA RESULT:      -7.2      1.652      3.831
  Name = 
  6 active torsions:
  status: ('A' for Active; 'I' for Inactive)
    1  A    between atoms: C_1  and  C_22
    2  A    between atoms: C_5  and  C_11
    3  A    between atoms: C_5  and  C_19
    4  A    between atoms: C_7  and  C_14
    5  A    between atoms: C_13  and  C_18
    6  A    between atoms: C_18  and  C_19
                            x       y       z     vdW  Elec       q    Type
                         _______ _______ _______ _____ _____    ______ ____

>  <TORSDO>
F 6

$$$$
=
 OpenBabel11072411363D

 25 27  0  0  1  0  0  0  0  0999 V2000
  161.8180  204.7490  151.5750 C   0  0  1  0  0  3  0  0  0  0  0  0
  160.8360  208.2080  152.3960 C   0  0  0  0  0  0  0  0  0  0  0  0
  161.2670  205.7920  153.9680 C   0  0  0  0  0  2  0  0  0  0  0  0
  160.6010  208.2500  153.8980 C   0  0  1  0  0  3  0  0  0  0  0  0
  161.8230  205.2740  150.2540 O   0  0  0  0  0  0  0  0  0  0  0  0
  161.4610  205.8610  152.4810 C   0  0  0  0  0  0  0  0  0  0  0  0
  161.4830  206.6490  150.3490 C   0  0  1  0  0  3  0  0  0  0  0  0
  161.4710  207.1790  154.5920 C   0  0  0  0  0  2  0  0  0  0  0  0
  161.2530  206.9370  151.7820 C   0  0  0  0  0  0  0  0  0  0  0  0
  160.6120  209.2110  151.6670 O   0  0  0  0  0  0  0  0  0  0  0  0
  160.6200  209.6420  157.0390 C   0  0  0  0  0  2  0  0  0  0  0  0
  160.8370  209.6490  154.5030 C   0  0  0  0  0  3  0  0  0  0  0  0
  159.5830  211.5320  155.6490 C   0  0  0  0  0  2  0  0  0  0  0  0
  161.5810  209.5850  155.8550 C   0  0  0  0  0  2  0  0  0  0  0  0
  159.5080  210.4210  154.6050 C   0  0  0  0  0  2  0  0  0  0  0  0
  159.8330  210.9590  157.0500 C   0  0  0  0  0  2  0  0  0  0  0  0
  161.5660  202.2670  151.6880 C   0  0  0  0  0  1  0  0  0  0  0  0
  159.9030  203.6170  150.6470 O   0  0  0  0  0  1  0  0  0  0  0  0
  160.8280  203.5920  151.6940 C   0  0  2  0  0  3  0  0  0  0  0  0
  162.6260  207.5000  149.8190 C   0  0  0  0  0  2  0  0  0  0  0  0
  162.3780  207.8640  148.3650 C   0  0  0  0  0  2  0  0  0  0  0  0
  161.1680  207.1170  147.8290 C   0  0  0  0  0  2  0  0  0  0  0  0
  160.8670  206.2100  145.6450 O   0  0  0  0  0  0  0  0  0  0  0  0
  161.5560  206.2260  146.6980 C   0  0  0  0  0  0  0  0  0  0  0  0
  162.6590  205.3920  146.8170 O   0  0  0  0  0  1  0  0  0  0  0  0
  1 19  1  6  0  0  0
  1  6  1  0  0  0  0
  2  4  1  0  0  0  0
  3  8  1  0  0  0  0
  4 12  1  1  0  0  0
  4  8  1  0  0  0  0
  5  7  1  0  0  0  0
  5  1  1  0  0  0  0
  6  3  1  0  0  0  0
  7 20  1  1  0  0  0
  7  9  1  0  0  0  0
  9  2  1  0  0  0  0
  9  6  2  0  0  0  0
 10  2  2  0  0  0  0
 11 16  1  0  0  0  0
 12 15  1  0  0  0  0
 12 14  1  0  0  0  0
 13 16  1  0  0  0  0
 14 11  1  0  0  0  0
 15 13  1  0  0  0  0
 18 19  1  0  0  0  0
 19 17  1  6  0  0  0
 21 20  1  0  0  0  0
 22 21  1  0  0  0  0
 23 24  2  0  0  0  0
 24 25  1  0  0  0  0
 24 22  1  0  0  0  0
M  END
>  <MODEL>
6

>  <REMARK>
 VINA RESULT:      -6.9      1.748      2.783
  Name = 
  6 active torsions:
  status: ('A' for Active; 'I' for Inactive)
    1  A    between atoms: C_1  and  C_22
    2  A    between atoms: C_5  and  C_11
    3  A    between atoms: C_5  and  C_19
    4  A    between atoms: C_7  and  C_14
    5  A    between atoms: C_13  and  C_18
    6  A    between atoms: C_18  and  C_19
                            x       y       z     vdW  Elec       q    Type
                         _______ _______ _______ _____ _____    ______ ____

>  <TORSDO>
F 6

$$$$
=
 OpenBabel11072411363D

 25 27  0  0  1  0  0  0  0  0999 V2000
  161.5920  204.5870  150.0420 C   0  0  1  0  0  3  0  0  0  0  0  0
  160.8540  207.6110  152.0200 C   0  0  0  0  0  0  0  0  0  0  0  0
  161.2600  204.8020  152.6800 C   0  0  0  0  0  2  0  0  0  0  0  0
  160.7230  207.1650  153.4670 C   0  0  1  0  0  3  0  0  0  0  0  0
  161.5350  205.5150  148.9680 O   0  0  0  0  0  0  0  0  0  0  0  0
  161.3560  205.3490  151.2860 C   0  0  0  0  0  0  0  0  0  0  0  0
  161.2760  206.7930  149.5320 C   0  0  1  0  0  3  0  0  0  0  0  0
  161.5800  205.9010  153.7020 C   0  0  0  0  0  2  0  0  0  0  0  0
  161.1590  206.6000  150.9940 C   0  0  0  0  0  0  0  0  0  0  0  0
  160.6340  208.8040  151.6770 O   0  0  0  0  0  0  0  0  0  0  0  0
  160.1450  207.8030  156.7940 C   0  0  0  0  0  2  0  0  0  0  0  0
  161.0750  208.2800  154.4720 C   0  0  0  0  0  3  0  0  0  0  0  0
  159.9850  210.1560  155.7860 C   0  0  0  0  0  2  0  0  0  0  0  0
  161.3680  207.7270  155.8840 C   0  0  0  0  0  2  0  0  0  0  0  0
  159.9730  209.3570  154.4860 C   0  0  0  0  0  2  0  0  0  0  0  0
  159.6930  209.2560  156.9930 C   0  0  0  0  0  2  0  0  0  0  0  0
  160.9000  202.2850  150.7190 C   0  0  0  0  0  1  0  0  0  0  0  0
  160.4710  203.0910  148.5200 O   0  0  0  0  0  1  0  0  0  0  0  0
  160.5510  203.4830  149.8590 C   0  0  2  0  0  3  0  0  0  0  0  0
  162.4250  207.7380  149.2150 C   0  0  0  0  0  2  0  0  0  0  0  0
  161.9140  208.9440  148.4460 C   0  0  0  0  0  2  0  0  0  0  0  0
  162.2920  210.2300  149.1620 C   0  0  0  0  0  2  0  0  0  0  0  0
  162.9530  212.3240  148.2340 O   0  0  0  0  0  1  0  0  0  0  0  0
  162.0910  211.4080  148.2710 C   0  0  0  0  0  0  0  0  0  0  0  0
  160.9370  211.5110  147.5050 O   0  0  0  0  0  0  0  0  0  0  0  0
  1 19  1  6  0  0  0
  1  6  1  0  0  0  0
  2  4  1  0  0  0  0
  3  8  1  0  0  0  0
  4  8  1  0  0  0  0
  4 12  1  1  0  0  0
  5  7  1  0  0  0  0
  5  1  1  0  0  0  0
  6  3  1  0  0  0  0
  7 20  1  1  0  0  0
  7  9  1  0  0  0  0
  9  6  2  0  0  0  0
  9  2  1  0  0  0  0
 10  2  2  0  0  0  0
 11 16  1  0  0  0  0
 12 15  1  0  0  0  0
 12 14  1  0  0  0  0
 13 16  1  0  0  0  0
 14 11  1  0  0  0  0
 15 13  1  0  0  0  0
 18 19  1  0  0  0  0
 19 17  1  1  0  0  0
 21 22  1  0  0  0  0
 21 20  1  0  0  0  0
 23 24  1  0  0  0  0
 24 22  1  0  0  0  0
 25 24  2  0  0  0  0
M  END
>  <MODEL>
7

>  <REMARK>
 VINA RESULT:      -6.8      2.361      3.472
  Name = 
  6 active torsions:
  status: ('A' for Active; 'I' for Inactive)
    1  A    between atoms: C_1  and  C_22
    2  A    between atoms: C_5  and  C_11
    3  A    between atoms: C_5  and  C_19
    4  A    between atoms: C_7  and  C_14
    5  A    between atoms: C_13  and  C_18
    6  A    between atoms: C_18  and  C_19
                            x       y       z     vdW  Elec       q    Type
                         _______ _______ _______ _____ _____    ______ ____

>  <TORSDO>
F 6

$$$$
=
 OpenBabel11072411363D

 25 27  0  0  1  0  0  0  0  0999 V2000
  162.3970  209.1830  151.3810 C   0  0  1  0  0  3  0  0  0  0  0  0
  160.6480  206.5070  149.5410 C   0  0  0  0  0  0  0  0  0  0  0  0
  162.2710  208.7930  148.7450 C   0  0  0  0  0  2  0  0  0  0  0  0
  160.8640  206.7820  148.0610 C   0  0  1  0  0  3  0  0  0  0  0  0
  161.8450  208.5020  152.5000 O   0  0  0  0  0  0  0  0  0  0  0  0
  161.9860  208.4350  150.1740 C   0  0  0  0  0  0  0  0  0  0  0  0
  161.1260  207.3850  151.9980 C   0  0  1  0  0  3  0  0  0  0  0  0
  162.1950  207.5410  147.8610 C   0  0  0  0  0  2  0  0  0  0  0  0
  161.2490  207.4230  150.5240 C   0  0  0  0  0  0  0  0  0  0  0  0
  159.9110  205.5640  149.9330 O   0  0  0  0  0  0  0  0  0  0  0  0
  163.1230  204.7500  146.4550 C   0  0  0  0  0  2  0  0  0  0  0  0
  160.8080  205.5040  147.2000 C   0  0  0  0  0  3  0  0  0  0  0  0
  161.1560  204.7280  144.8100 C   0  0  0  0  0  2  0  0  0  0  0  0
  162.0000  204.5600  147.4720 C   0  0  0  0  0  2  0  0  0  0  0  0
  160.6810  205.8680  145.7070 C   0  0  0  0  0  2  0  0  0  0  0  0
  162.6440  204.4300  145.0340 C   0  0  0  0  0  2  0  0  0  0  0  0
  160.6460  210.7860  152.1560 C   0  0  0  0  0  1  0  0  0  0  0  0
  161.6650  211.0310  150.0170 O   0  0  0  0  0  1  0  0  0  0  0  0
  161.9100  210.6300  151.3330 C   0  0  2  0  0  3  0  0  0  0  0  0
  161.7280  206.0990  152.5430 C   0  0  0  0  0  2  0  0  0  0  0  0
  161.6590  206.0910  154.0610 C   0  0  0  0  0  2  0  0  0  0  0  0
  160.4230  206.8330  154.5410 C   0  0  0  0  0  2  0  0  0  0  0  0
  161.5080  208.3670  156.0090 O   0  0  0  0  0  0  0  0  0  0  0  0
  160.6620  207.4450  155.8790 C   0  0  0  0  0  0  0  0  0  0  0  0
  159.9720  206.9770  156.9900 O   0  0  0  0  0  1  0  0  0  0  0  0
  1 19  1  6  0  0  0
  1  5  1  0  0  0  0
  2 10  2  0  0  0  0
  2  9  1  0  0  0  0
  3  6  1  0  0  0  0
  4 12  1  6  0  0  0
  4  2  1  0  0  0  0
  6  9  2  0  0  0  0
  6  1  1  0  0  0  0
  7  5  1  0  0  0  0
  7 20  1  1  0  0  0
  8  4  1  0  0  0  0
  8  3  1  0  0  0  0
  9  7  1  0  0  0  0
 11 14  1  0  0  0  0
 12 14  1  0  0  0  0
 13 16  1  0  0  0  0
 13 15  1  0  0  0  0
 15 12  1  0  0  0  0
 16 11  1  0  0  0  0
 18 19  1  0  0  0  0
 19 17  1  1  0  0  0
 20 21  1  0  0  0  0
 21 22  1  0  0  0  0
 22 24  1  0  0  0  0
 24 23  2  0  0  0  0
 24 25  1  0  0  0  0
M  END
>  <MODEL>
8

>  <REMARK>
 VINA RESULT:      -6.8      2.598      7.870
  Name = 
  6 active torsions:
  status: ('A' for Active; 'I' for Inactive)
    1  A    between atoms: C_1  and  C_22
    2  A    between atoms: C_5  and  C_11
    3  A    between atoms: C_5  and  C_19
    4  A    between atoms: C_7  and  C_14
    5  A    between atoms: C_13  and  C_18
    6  A    between atoms: C_18  and  C_19
                            x       y       z     vdW  Elec       q    Type
                         _______ _______ _______ _____ _____    ______ ____

>  <TORSDO>
F 6

$$$$
=
 OpenBabel11072411363D

 25 27  0  0  1  0  0  0  0  0999 V2000
  161.2260  209.3680  151.7870 C   0  0  1  0  0  3  0  0  0  0  0  0
  162.0190  207.3370  148.8120 C   0  0  0  0  0  0  0  0  0  0  0  0
  160.6280  206.8110  151.3170 C   0  0  0  0  0  2  0  0  0  0  0  0
  161.4850  205.9400  149.0830 C   0  0  1  0  0  3  0  0  0  0  0  0
  161.9270  210.3620  151.0510 O   0  0  0  0  0  0  0  0  0  0  0  0
  161.2000  208.1490  150.9510 C   0  0  0  0  0  0  0  0  0  0  0  0
  162.3120  209.7750  149.8170 C   0  0  1  0  0  3  0  0  0  0  0  0
  160.2830  206.0190  150.0490 C   0  0  0  0  0  2  0  0  0  0  0  0
  161.8340  208.3750  149.8390 C   0  0  0  0  0  0  0  0  0  0  0  0
  162.6730  207.6000  147.7670 O   0  0  0  0  0  0  0  0  0  0  0  0
  163.1410  204.8560  146.2730 C   0  0  0  0  0  2  0  0  0  0  0  0
  161.1230  205.1760  147.7930 C   0  0  0  0  0  3  0  0  0  0  0  0
  160.8710  205.5430  145.2960 C   0  0  0  0  0  2  0  0  0  0  0  0
  162.2510  204.2220  147.3390 C   0  0  0  0  0  2  0  0  0  0  0  0
  160.7120  206.1610  146.6820 C   0  0  0  0  0  2  0  0  0  0  0  0
  162.3370  205.1930  145.0100 C   0  0  0  0  0  2  0  0  0  0  0  0
  160.8920  208.6280  154.1480 C   0  0  0  0  0  1  0  0  0  0  0  0
  162.5330  210.2660  153.6030 O   0  0  0  0  0  1  0  0  0  0  0  0
  161.9070  209.1090  153.1300 C   0  0  2  0  0  3  0  0  0  0  0  0
  161.6720  210.5320  148.6640 C   0  0  0  0  0  2  0  0  0  0  0  0
  162.2180  211.9480  148.6000 C   0  0  0  0  0  2  0  0  0  0  0  0
  161.1230  212.9230  148.2020 C   0  0  0  0  0  2  0  0  0  0  0  0
  159.5810  212.3670  146.4710 O   0  0  0  0  0  1  0  0  0  0  0  0
  160.7450  212.7370  146.7720 C   0  0  0  0  0  0  0  0  0  0  0  0
  161.6870  212.9430  145.7720 O   0  0  0  0  0  0  0  0  0  0  0  0
  1 19  1  1  0  0  0
  2  4  1  0  0  0  0
  2  9  1  0  0  0  0
  4 12  1  6  0  0  0
  4  8  1  0  0  0  0
  5  1  1  0  0  0  0
  6  3  1  0  0  0  0
  6  1  1  0  0  0  0
  7 20  1  6  0  0  0
  7  9  1  0  0  0  0
  7  5  1  0  0  0  0
  8  3  1  0  0  0  0
  9  6  2  0  0  0  0
 10  2  2  0  0  0  0
 11 14  1  0  0  0  0
 13 15  1  0  0  0  0
 14 12  1  0  0  0  0
 15 12  1  0  0  0  0
 16 13  1  0  0  0  0
 16 11  1  0  0  0  0
 19 18  1  0  0  0  0
 19 17  1  1  0  0  0
 21 20  1  0  0  0  0
 22 21  1  0  0  0  0
 23 24  1  0  0  0  0
 24 22  1  0  0  0  0
 25 24  2  0  0  0  0
M  END
>  <MODEL>
9

>  <REMARK>
 VINA RESULT:      -6.5      3.331      6.897
  Name = 
  6 active torsions:
  status: ('A' for Active; 'I' for Inactive)
    1  A    between atoms: C_1  and  C_22
    2  A    between atoms: C_5  and  C_11
    3  A    between atoms: C_5  and  C_19
    4  A    between atoms: C_7  and  C_14
    5  A    between atoms: C_13  and  C_18
    6  A    between atoms: C_18  and  C_19
                            x       y       z     vdW  Elec       q    Type
                         _______ _______ _______ _____ _____    ______ ____

>  <TORSDO>
F 6

$$$$
