=
 OpenBabel11072414373D

 26 30  0  0  1  0  0  0  0  0999 V2000
  160.3570  205.1450  149.5690 C   0  0  0  0  0  3  0  0  0  0  0  0
  160.9620  204.7990  152.2730 C   0  0  0  0  0  3  0  0  0  0  0  0
  160.9180  206.0930  151.7340 C   0  0  0  0  0  0  0  0  0  0  0  0
  160.6120  206.2560  150.3760 C   0  0  0  0  0  3  0  0  0  0  0  0
  160.4070  203.8490  150.1090 C   0  0  0  0  0  0  0  0  0  0  0  0
  160.7060  203.6860  151.4650 C   0  0  0  0  0  3  0  0  0  0  0  0
  161.3230  208.0830  155.9990 O   0  0  0  0  0  0  0  0  0  0  0  0
  161.1350  207.1540  153.9430 N   0  0  0  0  0  0  0  0  0  0  0  0
  161.6880  209.4620  154.1800 C   0  0  1  0  0  3  0  0  0  0  0  0
  161.4870  208.4690  152.0230 N   0  0  0  0  0  0  0  0  0  0  0  0
  161.9640  210.6640  155.0180 C   0  0  0  0  0  1  0  0  0  0  0  0
  161.1870  207.2660  152.5860 C   0  0  0  0  0  0  0  0  0  0  0  0
  161.7370  209.5610  152.7910 C   0  0  0  0  0  3  0  0  0  0  0  0
  161.3780  208.2210  154.7480 C   0  0  0  0  0  0  0  0  0  0  0  0
  161.0320  202.3480  148.1110 C   0  0  2  0  0  3  0  0  0  0  0  0
  160.1050  202.6140  149.2920 C   0  0  1  0  0  3  0  0  0  0  0  0
  160.5350  201.2930  149.9180 C   0  0  1  0  0  3  0  0  0  0  0  0
  161.4070  201.0140  148.7420 C   0  0  2  0  0  3  0  0  0  0  0  0
  161.9380  201.2210  150.0270 O   0  0  0  0  0  0  0  0  0  0  0  0
  162.1470  203.2000  148.0880 O   0  0  0  0  0  0  0  0  0  0  0  0
  161.2600  203.5590  145.8020 C   0  0  0  0  0  2  0  0  0  0  0  0
  162.4790  205.5920  145.5120 C   0  0  0  0  0  3  0  0  0  0  0  0
  161.5250  204.6820  144.8000 C   0  0  2  0  0  3  0  0  0  0  0  0
  160.3350  205.3640  144.5430 O   0  0  0  0  0  1  0  0  0  0  0  0
  162.7150  205.1570  146.7350 C   0  0  0  0  0  3  0  0  0  0  0  0
  161.9870  203.9710  146.9860 N   0  0  0  0  0  0  0  0  0  0  0  0
  1  5  2  0  0  0  0
  1  4  1  0  0  0  0
  3  2  1  0  0  0  0
  3 12  1  0  0  0  0
  4  3  2  0  0  0  0
  5  6  1  0  0  0  0
  6  2  2  0  0  0  0
  8 14  1  0  0  0  0
  9 14  1  0  0  0  0
  9 11  1  1  0  0  0
 10 12  1  0  0  0  0
 10 13  2  0  0  0  0
 12  8  2  0  0  0  0
 13  9  1  0  0  0  0
 14  7  2  0  0  0  0
 15 20  1  1  0  0  0
 15 18  1  0  0  0  0
 15 16  1  0  0  0  0
 16 17  1  0  0  0  0
 16  5  1  1  0  0  0
 17 19  1  1  0  0  0
 18 17  1  0  0  0  0
 18 19  1  1  0  0  0
 21 26  1  0  0  0  0
 22 25  2  0  0  0  0
 23 24  1  1  0  0  0
 23 22  1  0  0  0  0
 23 21  1  0  0  0  0
 25 26  1  0  0  0  0
 26 20  1  0  0  0  0
M  END
>  <MODEL>
1

>  <REMARK>
 VINA RESULT:      -8.3      0.000      0.000
  Name = 
  4 active torsions:
  status: ('A' for Active; 'I' for Inactive)
    1  A    between atoms: C_10  and  O_25
    2  A    between atoms: C_11  and  C_14
    3  A    between atoms: C_13  and  C_18
    4  A    between atoms: N_22  and  O_25
                            x       y       z     vdW  Elec       q    Type
                         _______ _______ _______ _____ _____    ______ ____

>  <TORSDO>
F 4

$$$$
=
 OpenBabel11072414373D

 26 30  0  0  1  0  0  0  0  0999 V2000
  161.2640  208.5700  152.1590 C   0  0  0  0  0  3  0  0  0  0  0  0
  161.1160  205.9780  153.1850 C   0  0  0  0  0  3  0  0  0  0  0  0
  161.1140  206.1730  151.7960 C   0  0  0  0  0  0  0  0  0  0  0  0
  161.1900  207.4780  151.2910 C   0  0  0  0  0  3  0  0  0  0  0  0
  161.2600  208.3730  153.5490 C   0  0  0  0  0  0  0  0  0  0  0  0
  161.1900  207.0700  154.0530 C   0  0  0  0  0  3  0  0  0  0  0  0
  161.3760  204.3380  147.4520 O   0  0  0  0  0  0  0  0  0  0  0  0
  161.2440  205.1920  149.5440 N   0  0  0  0  0  0  0  0  0  0  0  0
  160.8900  202.8630  149.1650 C   0  0  1  0  0  3  0  0  0  0  0  0
  160.7550  203.7780  151.3610 N   0  0  0  0  0  0  0  0  0  0  0  0
  160.8060  201.6810  148.2610 C   0  0  0  0  0  1  0  0  0  0  0  0
  161.0360  205.0210  150.8800 C   0  0  0  0  0  0  0  0  0  0  0  0
  160.6800  202.7040  150.5330 C   0  0  0  0  0  3  0  0  0  0  0  0
  161.1770  204.1440  148.6800 C   0  0  0  0  0  0  0  0  0  0  0  0
  160.3780  210.6540  154.3570 C   0  0  2  0  0  3  0  0  0  0  0  0
  161.3740  209.5140  154.5340 C   0  0  1  0  0  3  0  0  0  0  0  0
  160.8050  209.2420  155.9210 C   0  0  1  0  0  3  0  0  0  0  0  0
  159.8620  210.3850  155.7640 C   0  0  2  0  0  3  0  0  0  0  0  0
  159.4100  209.0570  155.8650 O   0  0  0  0  0  0  0  0  0  0  0  0
  159.3780  210.3670  153.4150 O   0  0  0  0  0  0  0  0  0  0  0  0
  159.9570  212.2680  151.9350 C   0  0  0  0  0  2  0  0  0  0  0  0
  158.0600  213.5460  152.6210 C   0  0  0  0  0  3  0  0  0  0  0  0
  159.2540  213.6070  151.7170 C   0  0  2  0  0  3  0  0  0  0  0  0
  158.8290  213.6970  150.3920 O   0  0  0  0  0  1  0  0  0  0  0  0
  157.9980  212.3790  153.2340 C   0  0  0  0  0  3  0  0  0  0  0  0
  159.0770  211.5550  152.8380 N   0  0  0  0  0  0  0  0  0  0  0  0
  1  5  1  0  0  0  0
  2  6  1  0  0  0  0
  3  2  2  0  0  0  0
  4  3  1  0  0  0  0
  4  1  2  0  0  0  0
  5  6  2  0  0  0  0
  7 14  2  0  0  0  0
  8 12  2  0  0  0  0
  9 11  1  1  0  0  0
  9 13  1  0  0  0  0
 12 10  1  0  0  0  0
 12  3  1  0  0  0  0
 13 10  2  0  0  0  0
 14  9  1  0  0  0  0
 14  8  1  0  0  0  0
 15 20  1  6  0  0  0
 15 16  1  0  0  0  0
 15 18  1  0  0  0  0
 16  5  1  6  0  0  0
 16 17  1  0  0  0  0
 17 19  1  6  0  0  0
 18 19  1  6  0  0  0
 18 17  1  0  0  0  0
 21 26  1  0  0  0  0
 22 25  2  0  0  0  0
 23 24  1  6  0  0  0
 23 21  1  0  0  0  0
 23 22  1  0  0  0  0
 26 25  1  0  0  0  0
 26 20  1  0  0  0  0
M  END
>  <MODEL>
2

>  <REMARK>
 VINA RESULT:      -8.2      3.085      8.407
  Name = 
  4 active torsions:
  status: ('A' for Active; 'I' for Inactive)
    1  A    between atoms: C_10  and  O_25
    2  A    between atoms: C_11  and  C_14
    3  A    between atoms: C_13  and  C_18
    4  A    between atoms: N_22  and  O_25
                            x       y       z     vdW  Elec       q    Type
                         _______ _______ _______ _____ _____    ______ ____

>  <TORSDO>
F 4

$$$$
=
 OpenBabel11072414373D

 26 30  0  0  1  0  0  0  0  0999 V2000
  161.3400  208.0300  152.2310 C   0  0  0  0  0  3  0  0  0  0  0  0
  161.1830  205.3250  152.9060 C   0  0  0  0  0  3  0  0  0  0  0  0
  161.1800  205.7020  151.5550 C   0  0  0  0  0  0  0  0  0  0  0  0
  161.2610  207.0620  151.2260 C   0  0  0  0  0  3  0  0  0  0  0  0
  161.3360  207.6510  153.5830 C   0  0  0  0  0  0  0  0  0  0  0  0
  161.2610  206.2930  153.9110 C   0  0  0  0  0  3  0  0  0  0  0  0
  160.3970  201.2550  150.1690 O   0  0  0  0  0  0  0  0  0  0  0  0
  160.7780  203.3940  150.8060 N   0  0  0  0  0  0  0  0  0  0  0  0
  160.9470  202.7700  148.5100 C   0  0  1  0  0  3  0  0  0  0  0  0
  161.3440  205.0160  149.1980 N   0  0  0  0  0  0  0  0  0  0  0  0
  160.8710  201.7570  147.4180 C   0  0  0  0  0  1  0  0  0  0  0  0
  161.0980  204.6810  150.4950 C   0  0  0  0  0  0  0  0  0  0  0  0
  161.2740  204.0890  148.2070 C   0  0  0  0  0  3  0  0  0  0  0  0
  160.6970  202.4350  149.8460 C   0  0  0  0  0  0  0  0  0  0  0  0
  160.5680  209.8870  154.6050 C   0  0  2  0  0  3  0  0  0  0  0  0
  161.4540  208.6520  154.7100 C   0  0  1  0  0  3  0  0  0  0  0  0
  160.7510  208.2660  156.0060 C   0  0  1  0  0  3  0  0  0  0  0  0
  159.9170  209.4970  155.9250 C   0  0  2  0  0  3  0  0  0  0  0  0
  159.3560  208.2120  155.8240 O   0  0  0  0  0  0  0  0  0  0  0  0
  159.6310  209.8030  153.5630 O   0  0  0  0  0  0  0  0  0  0  0  0
  158.1690  211.8020  153.4900 C   0  0  0  0  0  2  0  0  0  0  0  0
  159.6000  212.9490  151.9590 C   0  0  0  0  0  3  0  0  0  0  0  0
  158.3130  213.1100  152.7120 C   0  0  2  0  0  3  0  0  0  0  0  0
  158.4300  214.1720  153.6090 O   0  0  0  0  0  1  0  0  0  0  0  0
  160.1720  211.7980  152.2550 C   0  0  0  0  0  3  0  0  0  0  0  0
  159.3910  211.0840  153.1930 N   0  0  0  0  0  0  0  0  0  0  0  0
  1  5  1  0  0  0  0
  2  6  1  0  0  0  0
  3  2  2  0  0  0  0
  4  3  1  0  0  0  0
  4  1  2  0  0  0  0
  5  6  2  0  0  0  0
  9 11  1  6  0  0  0
  9 14  1  0  0  0  0
 10 12  1  0  0  0  0
 12  8  2  0  0  0  0
 12  3  1  0  0  0  0
 13  9  1  0  0  0  0
 13 10  2  0  0  0  0
 14  7  2  0  0  0  0
 14  8  1  0  0  0  0
 15 20  1  6  0  0  0
 15 16  1  0  0  0  0
 15 18  1  0  0  0  0
 16  5  1  6  0  0  0
 16 17  1  0  0  0  0
 17 19  1  6  0  0  0
 18 19  1  6  0  0  0
 18 17  1  0  0  0  0
 22 25  2  0  0  0  0
 22 23  1  0  0  0  0
 23 21  1  0  0  0  0
 23 24  1  1  0  0  0
 25 26  1  0  0  0  0
 26 21  1  0  0  0  0
 26 20  1  0  0  0  0
M  END
>  <MODEL>
3

>  <REMARK>
 VINA RESULT:      -8.1      2.729      8.305
  Name = 
  4 active torsions:
  status: ('A' for Active; 'I' for Inactive)
    1  A    between atoms: C_10  and  O_25
    2  A    between atoms: C_11  and  C_14
    3  A    between atoms: C_13  and  C_18
    4  A    between atoms: N_22  and  O_25
                            x       y       z     vdW  Elec       q    Type
                         _______ _______ _______ _____ _____    ______ ____

>  <TORSDO>
F 4

$$$$
=
 OpenBabel11072414373D

 26 30  0  0  1  0  0  0  0  0999 V2000
  161.1810  208.1210  154.3950 C   0  0  0  0  0  3  0  0  0  0  0  0
  161.4810  207.9830  151.6220 C   0  0  0  0  0  3  0  0  0  0  0  0
  161.2080  206.8140  152.3470 C   0  0  0  0  0  0  0  0  0  0  0  0
  161.0580  206.8940  153.7380 C   0  0  0  0  0  3  0  0  0  0  0  0
  161.4600  209.2900  153.6670 C   0  0  0  0  0  0  0  0  0  0  0  0
  161.6040  209.2110  152.2790 C   0  0  0  0  0  3  0  0  0  0  0  0
  160.9290  204.2760  148.3730 O   0  0  0  0  0  0  0  0  0  0  0  0
  161.0610  205.4690  150.2930 N   0  0  0  0  0  0  0  0  0  0  0  0
  160.8320  203.0950  150.3590 C   0  0  1  0  0  3  0  0  0  0  0  0
  160.9720  204.3650  152.3700 N   0  0  0  0  0  0  0  0  0  0  0  0
  160.6990  201.7720  149.6840 C   0  0  0  0  0  1  0  0  0  0  0  0
  161.0780  205.5190  151.6540 C   0  0  0  0  0  0  0  0  0  0  0  0
  160.8510  203.1630  151.7500 C   0  0  0  0  0  3  0  0  0  0  0  0
  160.9400  204.2870  149.6330 C   0  0  0  0  0  0  0  0  0  0  0  0
  160.2760  211.4520  154.4120 C   0  0  2  0  0  3  0  0  0  0  0  0
  161.5680  210.6490  154.3200 C   0  0  1  0  0  3  0  0  0  0  0  0
  161.6620  210.6390  155.8410 C   0  0  1  0  0  3  0  0  0  0  0  0
  160.4240  211.4630  155.9280 C   0  0  2  0  0  3  0  0  0  0  0  0
  160.4750  210.1450  156.4150 O   0  0  0  0  0  0  0  0  0  0  0  0
  159.1420  210.7120  154.0450 O   0  0  0  0  0  0  0  0  0  0  0  0
  156.8740  211.2170  154.9040 C   0  0  0  0  0  2  0  0  0  0  0  0
  156.7480  213.2870  153.7200 C   0  0  0  0  0  3  0  0  0  0  0  0
  155.9580  212.4130  154.6460 C   0  0  2  0  0  3  0  0  0  0  0  0
  155.7310  213.0910  155.8440 O   0  0  0  0  0  1  0  0  0  0  0  0
  157.9410  212.7700  153.4940 C   0  0  0  0  0  3  0  0  0  0  0  0
  158.0950  211.5560  154.2030 N   0  0  0  0  0  0  0  0  0  0  0  0
  2  6  2  0  0  0  0
  2  3  1  0  0  0  0
  3  4  2  0  0  0  0
  4  1  1  0  0  0  0
  5  1  2  0  0  0  0
  6  5  1  0  0  0  0
  7 14  2  0  0  0  0
  8 12  2  0  0  0  0
  9 11  1  6  0  0  0
  9 13  1  0  0  0  0
 12  3  1  0  0  0  0
 12 10  1  0  0  0  0
 13 10  2  0  0  0  0
 14  8  1  0  0  0  0
 14  9  1  0  0  0  0
 15 20  1  1  0  0  0
 15 18  1  0  0  0  0
 16  5  1  1  0  0  0
 16 15  1  0  0  0  0
 16 17  1  0  0  0  0
 17 18  1  0  0  0  0
 17 19  1  1  0  0  0
 18 19  1  1  0  0  0
 20 26  1  0  0  0  0
 22 23  1  0  0  0  0
 23 21  1  0  0  0  0
 23 24  1  1  0  0  0
 25 22  2  0  0  0  0
 25 26  1  0  0  0  0
 26 21  1  0  0  0  0
M  END
>  <MODEL>
4

>  <REMARK>
 VINA RESULT:      -7.9      3.211      9.164
  Name = 
  4 active torsions:
  status: ('A' for Active; 'I' for Inactive)
    1  A    between atoms: C_10  and  O_25
    2  A    between atoms: C_11  and  C_14
    3  A    between atoms: C_13  and  C_18
    4  A    between atoms: N_22  and  O_25
                            x       y       z     vdW  Elec       q    Type
                         _______ _______ _______ _____ _____    ______ ____

>  <TORSDO>
F 4

$$$$
=
 OpenBabel11072414373D

 26 30  0  0  1  0  0  0  0  0999 V2000
  161.1580  207.5460  154.0450 C   0  0  0  0  0  3  0  0  0  0  0  0
  161.3240  208.0200  151.2980 C   0  0  0  0  0  3  0  0  0  0  0  0
  161.1970  206.7040  151.7670 C   0  0  0  0  0  0  0  0  0  0  0  0
  161.1130  206.4770  153.1470 C   0  0  0  0  0  3  0  0  0  0  0  0
  161.2910  208.8630  153.5740 C   0  0  0  0  0  0  0  0  0  0  0  0
  161.3690  209.0900  152.1970 C   0  0  0  0  0  3  0  0  0  0  0  0
  160.8310  202.0790  150.8830 O   0  0  0  0  0  0  0  0  0  0  0  0
  161.0080  204.3010  151.2790 N   0  0  0  0  0  0  0  0  0  0  0  0
  161.0590  203.4640  149.0450 C   0  0  1  0  0  3  0  0  0  0  0  0
  161.2450  205.7990  149.4790 N   0  0  0  0  0  0  0  0  0  0  0  0
  161.0130  202.3410  148.0650 C   0  0  0  0  0  1  0  0  0  0  0  0
  161.1480  205.5760  150.8190 C   0  0  0  0  0  0  0  0  0  0  0  0
  161.2020  204.7730  148.5910 C   0  0  0  0  0  3  0  0  0  0  0  0
  160.9620  203.2450  150.4240 C   0  0  0  0  0  0  0  0  0  0  0  0
  160.2550  211.1280  154.2300 C   0  0  2  0  0  3  0  0  0  0  0  0
  161.3090  210.0600  154.4970 C   0  0  1  0  0  3  0  0  0  0  0  0
  160.7140  209.8300  155.8810 C   0  0  1  0  0  3  0  0  0  0  0  0
  159.7130  210.9050  155.6350 C   0  0  2  0  0  3  0  0  0  0  0  0
  159.3340  209.5600  155.7960 O   0  0  0  0  0  0  0  0  0  0  0  0
  159.3030  210.7330  153.2780 O   0  0  0  0  0  0  0  0  0  0  0  0
  159.7450  212.5480  151.6500 C   0  0  0  0  0  2  0  0  0  0  0  0
  157.8480  213.8150  152.3550 C   0  0  0  0  0  3  0  0  0  0  0  0
  158.9910  213.8500  151.3850 C   0  0  2  0  0  3  0  0  0  0  0  0
  158.4940  213.8410  150.0820 O   0  0  0  0  0  1  0  0  0  0  0  0
  157.8540  212.6900  153.0430 C   0  0  0  0  0  3  0  0  0  0  0  0
  158.9360  211.8720  152.6430 N   0  0  0  0  0  0  0  0  0  0  0  0
  2  3  2  0  0  0  0
  2  6  1  0  0  0  0
  3  4  1  0  0  0  0
  4  1  2  0  0  0  0
  5  1  1  0  0  0  0
  6  5  2  0  0  0  0
  9 11  1  6  0  0  0
  9 14  1  0  0  0  0
 10 12  1  0  0  0  0
 12  8  2  0  0  0  0
 12  3  1  0  0  0  0
 13  9  1  0  0  0  0
 13 10  2  0  0  0  0
 14  7  2  0  0  0  0
 14  8  1  0  0  0  0
 15 20  1  6  0  0  0
 15 16  1  0  0  0  0
 15 18  1  0  0  0  0
 16  5  1  6  0  0  0
 16 17  1  0  0  0  0
 17 19  1  6  0  0  0
 18 19  1  6  0  0  0
 18 17  1  0  0  0  0
 21 26  1  0  0  0  0
 22 25  2  0  0  0  0
 23 24  1  6  0  0  0
 23 21  1  0  0  0  0
 23 22  1  0  0  0  0
 26 25  1  0  0  0  0
 26 20  1  0  0  0  0
M  END
>  <MODEL>
5

>  <REMARK>
 VINA RESULT:      -7.9      3.235      8.439
  Name = 
  4 active torsions:
  status: ('A' for Active; 'I' for Inactive)
    1  A    between atoms: C_10  and  O_25
    2  A    between atoms: C_11  and  C_14
    3  A    between atoms: C_13  and  C_18
    4  A    between atoms: N_22  and  O_25
                            x       y       z     vdW  Elec       q    Type
                         _______ _______ _______ _____ _____    ______ ____

>  <TORSDO>
F 4

$$$$
=
 OpenBabel11072414373D

 26 30  0  0  1  0  0  0  0  0999 V2000
  161.6400  206.1090  150.7710 C   0  0  0  0  0  3  0  0  0  0  0  0
  161.5800  208.8930  150.9790 C   0  0  0  0  0  3  0  0  0  0  0  0
  161.2270  208.1090  152.0860 C   0  0  0  0  0  0  0  0  0  0  0  0
  161.2610  206.7130  151.9730 C   0  0  0  0  0  3  0  0  0  0  0  0
  161.9880  206.8960  149.6600 C   0  0  0  0  0  0  0  0  0  0  0  0
  161.9590  208.2900  149.7760 C   0  0  0  0  0  3  0  0  0  0  0  0
  160.5550  207.9220  156.7580 O   0  0  0  0  0  0  0  0  0  0  0  0
  160.8690  208.0390  154.5190 N   0  0  0  0  0  0  0  0  0  0  0  0
  160.0810  209.9380  155.7290 C   0  0  2  0  0  3  0  0  0  0  0  0
  160.4160  210.0440  153.3720 N   0  0  0  0  0  0  0  0  0  0  0  0
  159.6720  210.6060  156.9980 C   0  0  0  0  0  1  0  0  0  0  0  0
  160.8280  208.7460  153.3550 C   0  0  0  0  0  0  0  0  0  0  0  0
  160.0450  210.6470  154.5310 C   0  0  0  0  0  3  0  0  0  0  0  0
  160.5050  208.6050  155.7000 C   0  0  0  0  0  0  0  0  0  0  0  0
  161.8000  204.9690  147.9620 C   0  0  2  0  0  3  0  0  0  0  0  0
  162.4390  206.2980  148.3480 C   0  0  1  0  0  3  0  0  0  0  0  0
  161.8460  206.9370  147.0980 C   0  0  1  0  0  3  0  0  0  0  0  0
  161.2600  205.6270  146.7000 C   0  0  2  0  0  3  0  0  0  0  0  0
  160.4550  206.7290  147.0380 O   0  0  0  0  0  0  0  0  0  0  0  0
  160.7390  204.6050  148.8060 O   0  0  0  0  0  0  0  0  0  0  0  0
  160.7630  202.2980  147.9030 C   0  0  0  0  0  2  0  0  0  0  0  0
  160.7860  201.3110  150.0790 C   0  0  0  0  0  3  0  0  0  0  0  0
  160.7780  200.9500  148.6240 C   0  0  2  0  0  3  0  0  0  0  0  0
  161.9530  200.2680  148.3080 O   0  0  0  0  0  1  0  0  0  0  0  0
  160.8300  202.6210  150.2340 C   0  0  0  0  0  3  0  0  0  0  0  0
  160.8590  203.2670  148.9760 N   0  0  0  0  0  0  0  0  0  0  0  0
  1  4  1  0  0  0  0
  2  3  1  0  0  0  0
  3 12  1  0  0  0  0
  4  3  2  0  0  0  0
  5  6  1  0  0  0  0
  5  1  2  0  0  0  0
  6  2  2  0  0  0  0
  8 14  1  0  0  0  0
  9 11  1  6  0  0  0
 10 13  2  0  0  0  0
 12 10  1  0  0  0  0
 12  8  2  0  0  0  0
 13  9  1  0  0  0  0
 14  9  1  0  0  0  0
 14  7  2  0  0  0  0
 15 16  1  0  0  0  0
 15 20  1  1  0  0  0
 16  5  1  1  0  0  0
 17 19  1  1  0  0  0
 17 16  1  0  0  0  0
 18 19  1  1  0  0  0
 18 17  1  0  0  0  0
 18 15  1  0  0  0  0
 20 26  1  0  0  0  0
 21 23  1  0  0  0  0
 21 26  1  0  0  0  0
 22 25  2  0  0  0  0
 23 24  1  6  0  0  0
 23 22  1  0  0  0  0
 26 25  1  0  0  0  0
M  END
>  <MODEL>
6

>  <REMARK>
 VINA RESULT:      -7.6      1.773      3.875
  Name = 
  4 active torsions:
  status: ('A' for Active; 'I' for Inactive)
    1  A    between atoms: C_10  and  O_25
    2  A    between atoms: C_11  and  C_14
    3  A    between atoms: C_13  and  C_18
    4  A    between atoms: N_22  and  O_25
                            x       y       z     vdW  Elec       q    Type
                         _______ _______ _______ _____ _____    ______ ____

>  <TORSDO>
F 4

$$$$
=
 OpenBabel11072414373D

 26 30  0  0  1  0  0  0  0  0999 V2000
  161.6540  206.2130  150.5870 C   0  0  0  0  0  3  0  0  0  0  0  0
  161.5790  209.0040  150.6630 C   0  0  0  0  0  3  0  0  0  0  0  0
  161.2320  208.2710  151.8070 C   0  0  0  0  0  0  0  0  0  0  0  0
  161.2740  206.8710  151.7590 C   0  0  0  0  0  3  0  0  0  0  0  0
  161.9960  206.9490  149.4400 C   0  0  0  0  0  0  0  0  0  0  0  0
  161.9600  208.3460  149.4900 C   0  0  0  0  0  3  0  0  0  0  0  0
  159.7610  212.1500  154.0660 O   0  0  0  0  0  0  0  0  0  0  0  0
  160.4660  210.2770  153.0080 N   0  0  0  0  0  0  0  0  0  0  0  0
  160.0830  210.2620  155.3630 C   0  0  1  0  0  3  0  0  0  0  0  0
  160.8250  208.3000  154.2330 N   0  0  0  0  0  0  0  0  0  0  0  0
  159.6830  210.9390  156.6290 C   0  0  0  0  0  1  0  0  0  0  0  0
  160.8310  208.9640  153.0450 C   0  0  0  0  0  0  0  0  0  0  0  0
  160.4590  208.9210  155.3840 C   0  0  0  0  0  3  0  0  0  0  0  0
  160.0940  210.9370  154.1360 C   0  0  0  0  0  0  0  0  0  0  0  0
  161.8270  204.9360  147.8420 C   0  0  2  0  0  3  0  0  0  0  0  0
  162.4490  206.2920  148.1560 C   0  0  1  0  0  3  0  0  0  0  0  0
  161.8400  206.8590  146.8790 C   0  0  1  0  0  3  0  0  0  0  0  0
  161.2700  205.5220  146.5510 C   0  0  2  0  0  3  0  0  0  0  0  0
  160.4510  206.6280  146.8390 O   0  0  0  0  0  0  0  0  0  0  0  0
  160.7770  204.6000  148.7100 O   0  0  0  0  0  0  0  0  0  0  0  0
  160.7810  202.2820  147.8350 C   0  0  0  0  0  2  0  0  0  0  0  0
  160.7770  201.3220  150.0220 C   0  0  0  0  0  3  0  0  0  0  0  0
  160.7750  200.9430  148.5720 C   0  0  2  0  0  3  0  0  0  0  0  0
  161.9450  200.2440  148.2720 O   0  0  0  0  0  1  0  0  0  0  0  0
  160.8340  202.6320  150.1620 C   0  0  0  0  0  3  0  0  0  0  0  0
  160.8800  203.2620  148.8960 N   0  0  0  0  0  0  0  0  0  0  0  0
  1  4  1  0  0  0  0
  2  3  1  0  0  0  0
  3 12  1  0  0  0  0
  4  3  2  0  0  0  0
  5  6  1  0  0  0  0
  5  1  2  0  0  0  0
  6  2  2  0  0  0  0
  7 14  2  0  0  0  0
  8 12  2  0  0  0  0
  8 14  1  0  0  0  0
  9 13  1  0  0  0  0
  9 11  1  6  0  0  0
 10 13  2  0  0  0  0
 12 10  1  0  0  0  0
 14  9  1  0  0  0  0
 15 16  1  0  0  0  0
 15 20  1  1  0  0  0
 16  5  1  1  0  0  0
 17 19  1  1  0  0  0
 17 16  1  0  0  0  0
 18 19  1  1  0  0  0
 18 17  1  0  0  0  0
 18 15  1  0  0  0  0
 20 26  1  0  0  0  0
 21 23  1  0  0  0  0
 21 26  1  0  0  0  0
 22 25  2  0  0  0  0
 23 24  1  6  0  0  0
 23 22  1  0  0  0  0
 26 25  1  0  0  0  0
M  END
>  <MODEL>
7

>  <REMARK>
 VINA RESULT:      -7.5      1.970      4.074
  Name = 
  4 active torsions:
  status: ('A' for Active; 'I' for Inactive)
    1  A    between atoms: C_10  and  O_25
    2  A    between atoms: C_11  and  C_14
    3  A    between atoms: C_13  and  C_18
    4  A    between atoms: N_22  and  O_25
                            x       y       z     vdW  Elec       q    Type
                         _______ _______ _______ _____ _____    ______ ____

>  <TORSDO>
F 4

$$$$
=
 OpenBabel11072414373D

 26 30  0  0  1  0  0  0  0  0999 V2000
  161.2750  205.8270  153.5140 C   0  0  0  0  0  3  0  0  0  0  0  0
  161.3100  207.7050  151.4490 C   0  0  0  0  0  3  0  0  0  0  0  0
  161.2720  206.3380  151.1390 C   0  0  0  0  0  0  0  0  0  0  0  0
  161.2540  205.4030  152.1830 C   0  0  0  0  0  3  0  0  0  0  0  0
  161.3190  207.1960  153.8220 C   0  0  0  0  0  0  0  0  0  0  0  0
  161.3310  208.1300  152.7810 C   0  0  0  0  0  3  0  0  0  0  0  0
  161.2090  202.8880  147.9140 O   0  0  0  0  0  0  0  0  0  0  0  0
  161.2390  204.5610  149.4390 N   0  0  0  0  0  0  0  0  0  0  0  0
  161.2070  205.0540  147.1050 C   0  0  2  0  0  3  0  0  0  0  0  0
  161.2390  206.8030  148.7230 N   0  0  0  0  0  0  0  0  0  0  0  0
  161.1840  204.6290  145.6760 C   0  0  0  0  0  1  0  0  0  0  0  0
  161.2490  205.8910  149.7350 C   0  0  0  0  0  0  0  0  0  0  0  0
  161.2180  206.4100  147.4230 C   0  0  0  0  0  3  0  0  0  0  0  0
  161.2190  204.1250  148.1520 C   0  0  0  0  0  0  0  0  0  0  0  0
  160.6260  209.0590  155.4610 C   0  0  2  0  0  3  0  0  0  0  0  0
  161.3070  207.7130  155.2430 C   0  0  1  0  0  3  0  0  0  0  0  0
  160.2910  207.0570  156.1700 C   0  0  1  0  0  3  0  0  0  0  0  0
  159.6540  208.3800  156.4170 C   0  0  2  0  0  3  0  0  0  0  0  0
  158.9750  207.3420  155.7560 O   0  0  0  0  0  0  0  0  0  0  0  0
  159.9420  209.5180  154.3250 O   0  0  0  0  0  0  0  0  0  0  0  0
  158.2470  211.3210  154.1990 C   0  0  0  0  0  2  0  0  0  0  0  0
  159.6750  212.9110  155.2650 C   0  0  0  0  0  3  0  0  0  0  0  0
  158.3080  212.7750  154.6660 C   0  0  2  0  0  3  0  0  0  0  0  0
  157.3450  212.9850  155.6530 O   0  0  0  0  0  1  0  0  0  0  0  0
  160.3160  211.7580  155.2330 C   0  0  0  0  0  3  0  0  0  0  0  0
  159.5050  210.7590  154.6470 N   0  0  0  0  0  0  0  0  0  0  0  0
  1  5  1  0  0  0  0
  2  6  1  0  0  0  0
  3  2  2  0  0  0  0
  3  4  1  0  0  0  0
  4  1  2  0  0  0  0
  6  5  2  0  0  0  0
  7 14  2  0  0  0  0
  8 12  2  0  0  0  0
  9 11  1  6  0  0  0
  9 13  1  0  0  0  0
  9 14  1  0  0  0  0
 10 12  1  0  0  0  0
 12  3  1  0  0  0  0
 13 10  2  0  0  0  0
 14  8  1  0  0  0  0
 15 20  1  6  0  0  0
 15 18  1  0  0  0  0
 16  5  1  6  0  0  0
 16 15  1  0  0  0  0
 16 17  1  0  0  0  0
 17 19  1  6  0  0  0
 17 18  1  0  0  0  0
 18 19  1  6  0  0  0
 20 26  1  0  0  0  0
 21 26  1  0  0  0  0
 21 23  1  0  0  0  0
 23 22  1  0  0  0  0
 23 24  1  1  0  0  0
 25 22  2  0  0  0  0
 26 25  1  0  0  0  0
M  END
>  <MODEL>
8

>  <REMARK>
 VINA RESULT:      -7.5      2.538      8.596
  Name = 
  4 active torsions:
  status: ('A' for Active; 'I' for Inactive)
    1  A    between atoms: C_10  and  O_25
    2  A    between atoms: C_11  and  C_14
    3  A    between atoms: C_13  and  C_18
    4  A    between atoms: N_22  and  O_25
                            x       y       z     vdW  Elec       q    Type
                         _______ _______ _______ _____ _____    ______ ____

>  <TORSDO>
F 4

$$$$
=
 OpenBabel11072414373D

 26 30  0  0  1  0  0  0  0  0999 V2000
  161.6130  206.2500  150.0530 C   0  0  0  0  0  3  0  0  0  0  0  0
  161.8450  209.0260  149.8660 C   0  0  0  0  0  3  0  0  0  0  0  0
  161.3990  208.4480  151.0640 C   0  0  0  0  0  0  0  0  0  0  0  0
  161.2870  207.0540  151.1480 C   0  0  0  0  0  3  0  0  0  0  0  0
  162.0530  206.8310  148.8520 C   0  0  0  0  0  0  0  0  0  0  0  0
  162.1710  208.2220  148.7700 C   0  0  0  0  0  3  0  0  0  0  0  0
  160.4680  208.9620  155.6660 O   0  0  0  0  0  0  0  0  0  0  0  0
  160.9110  208.7430  153.4570 N   0  0  0  0  0  0  0  0  0  0  0  0
  160.4140  210.8850  154.3830 C   0  0  1  0  0  3  0  0  0  0  0  0
  160.8820  210.6380  152.0600 N   0  0  0  0  0  0  0  0  0  0  0  0
  160.0670  211.7660  155.5360 C   0  0  0  0  0  1  0  0  0  0  0  0
  161.0570  209.2970  152.2200 C   0  0  0  0  0  0  0  0  0  0  0  0
  160.5670  211.4350  153.1130 C   0  0  0  0  0  3  0  0  0  0  0  0
  160.5940  209.5050  154.5370 C   0  0  0  0  0  0  0  0  0  0  0  0
  161.7520  204.6640  147.4930 C   0  0  2  0  0  3  0  0  0  0  0  0
  162.4520  206.0090  147.6480 C   0  0  1  0  0  3  0  0  0  0  0  0
  161.8600  206.4620  146.3190 C   0  0  1  0  0  3  0  0  0  0  0  0
  161.2130  205.1310  146.1480 C   0  0  2  0  0  3  0  0  0  0  0  0
  160.4600  206.3070  146.3140 O   0  0  0  0  0  0  0  0  0  0  0  0
  160.6960  204.4880  148.4000 O   0  0  0  0  0  0  0  0  0  0  0  0
  160.6910  202.6970  150.1120 C   0  0  0  0  0  2  0  0  0  0  0  0
  161.2120  200.9970  148.5170 C   0  0  0  0  0  3  0  0  0  0  0  0
  160.9490  201.1960  149.9790 C   0  0  2  0  0  3  0  0  0  0  0  0
  159.8000  200.4950  150.3440 O   0  0  0  0  0  1  0  0  0  0  0  0
  161.0840  202.1340  147.8610 C   0  0  0  0  0  3  0  0  0  0  0  0
  160.7350  203.1790  148.7470 N   0  0  0  0  0  0  0  0  0  0  0  0
  1  4  1  0  0  0  0
  2  3  1  0  0  0  0
  3  4  2  0  0  0  0
  3 12  1  0  0  0  0
  5  1  2  0  0  0  0
  6  5  1  0  0  0  0
  6  2  2  0  0  0  0
  8 14  1  0  0  0  0
  9 14  1  0  0  0  0
  9 11  1  1  0  0  0
 10 12  1  0  0  0  0
 10 13  2  0  0  0  0
 12  8  2  0  0  0  0
 13  9  1  0  0  0  0
 14  7  2  0  0  0  0
 15 16  1  0  0  0  0
 15 20  1  1  0  0  0
 16  5  1  1  0  0  0
 17 19  1  1  0  0  0
 17 16  1  0  0  0  0
 18 19  1  1  0  0  0
 18 17  1  0  0  0  0
 18 15  1  0  0  0  0
 20 26  1  0  0  0  0
 22 23  1  0  0  0  0
 23 21  1  0  0  0  0
 23 24  1  6  0  0  0
 25 22  2  0  0  0  0
 25 26  1  0  0  0  0
 26 21  1  0  0  0  0
M  END
>  <MODEL>
9

>  <REMARK>
 VINA RESULT:      -7.5      1.755      3.981
  Name = 
  4 active torsions:
  status: ('A' for Active; 'I' for Inactive)
    1  A    between atoms: C_10  and  O_25
    2  A    between atoms: C_11  and  C_14
    3  A    between atoms: C_13  and  C_18
    4  A    between atoms: N_22  and  O_25
                            x       y       z     vdW  Elec       q    Type
                         _______ _______ _______ _____ _____    ______ ____

>  <TORSDO>
F 4

$$$$
