=
 OpenBabel11072412363D

 51 53  0  0  1  0  0  0  0  0999 V2000
  162.6880  207.9110  148.3230 C   0  0  0  0  0  1  0  0  0  0  0  0
  161.6130  208.4350  149.2670 C   0  0  1  0  0  3  0  0  0  0  0  0
  160.9520  206.0080  149.7000 C   0  0  0  0  0  2  0  0  0  0  0  0
  161.2610  207.3710  150.3190 C   0  0  1  0  0  3  0  0  0  0  0  0
  162.3860  205.9870  153.4190 O   0  0  0  0  0  0  0  0  0  0  0  0
  161.0900  205.6730  152.9640 C   0  0  1  0  0  3  0  0  0  0  0  0
  161.7030  207.0230  152.7530 C   0  0  2  0  0  3  0  0  0  0  0  0
  161.1940  204.6730  151.8130 C   0  0  2  0  0  3  0  0  0  0  0  0
  160.2420  205.0720  150.6740 C   0  0  2  0  0  3  0  0  0  0  0  0
  162.3400  207.2600  151.3880 C   0  0  0  0  0  2  0  0  0  0  0  0
  160.8940  203.4010  152.3090 O   0  0  0  0  0  1  0  0  0  0  0  0
  159.7310  203.8570  149.9010 C   0  0  0  0  0  2  0  0  0  0  0  0
  160.8150  202.7960  149.7480 C   0  0  1  0  0  3  0  0  0  0  0  0
  160.2550  201.5670  149.1010 C   0  0  0  0  0  0  0  0  0  0  0  0
  159.1550  201.1380  149.4240 O   0  0  0  0  0  0  0  0  0  0  0  0
  161.0630  200.8510  148.0720 C   0  0  0  0  0  2  0  0  0  0  0  0
  160.5800  201.2100  146.6780 C   0  0  0  0  0  2  0  0  0  0  0  0
  160.8920  200.1740  145.7970 O   0  0  0  0  0  0  0  0  0  0  0  0
  161.6880  199.3030  146.5440 C   0  0  0  0  0  1  0  0  0  0  0  0
  161.9960  203.3410  148.9560 C   0  0  0  0  0  2  0  0  0  0  0  0
  161.5250  203.9380  147.7180 N   0  0  0  0  0  2  0  0  0  0  0  0
  162.7020  204.2740  146.9390 C   0  0  0  0  0  2  0  0  0  0  0  0
  162.3250  204.3440  145.4740 C   0  0  0  0  0  2  0  0  0  0  0  0
  161.1210  205.7650  143.8620 C   0  0  0  0  0  2  0  0  0  0  0  0
  160.4950  205.9780  145.2240 C   0  0  0  0  0  2  0  0  0  0  0  0
  161.9930  205.7730  145.1020 C   0  0  0  0  0  3  0  0  0  0  0  0
  162.0490  210.8040  148.9320 C   0  0  0  0  0  0  0  0  0  0  0  0
  162.1070  210.1220  151.2330 C   0  0  0  0  0  1  0  0  0  0  0  0
  161.9580  209.8140  149.7800 C   0  0  0  0  0  0  0  0  0  0  0  0
  162.1440  211.7850  148.0790 C   0  0  0  0  0  3  0  0  0  0  0  0
  161.6100  213.1360  148.4070 C   0  0  0  0  0  2  0  0  0  0  0  0
  161.5290  213.9170  147.2520 O   0  0  0  0  0  0  0  0  0  0  0  0
  160.2260  213.7260  146.7870 C   0  0  2  0  0  3  0  0  0  0  0  0
  160.0670  214.3910  145.4220 C   0  0  0  0  0  2  0  0  0  0  0  0
  160.6590  213.5560  144.2770 C   0  0  1  0  0  3  0  0  0  0  0  0
  159.5800  212.7960  143.5120 C   0  0  0  0  0  2  0  0  0  0  0  0
  159.0190  213.6210  142.4000 C   0  0  0  0  0  3  0  0  0  0  0  0
  158.0100  214.2850  142.5670 O   0  0  0  0  0  0  0  0  0  0  0  0
  161.4150  214.3900  143.3520 N   0  0  0  0  0  2  0  0  0  0  0  0
  163.2480  213.1810  144.3710 C   0  0  0  0  0  1  0  0  0  0  0  0
  162.6710  213.7120  143.0790 C   0  0  0  0  0  2  0  0  0  0  0  0
  159.2290  214.3220  147.7770 C   0  0  0  0  0  2  0  0  0  0  0  0
  158.0680  213.3700  148.0420 C   0  0  0  0  0  2  0  0  0  0  0  0
  156.1940  213.4260  149.5080 O   0  0  0  0  0  0  0  0  0  0  0  0
  157.4320  213.6290  149.3680 C   0  0  0  0  0  0  0  0  0  0  0  0
  158.2130  214.0650  150.4410 O   0  0  0  0  0  0  0  0  0  0  0  0
  158.9250  213.1620  151.2720 C   0  0  0  0  0  2  0  0  0  0  0  0
  158.3880  211.7910  153.3150 C   0  0  0  0  0  0  0  0  0  0  0  0
  158.1810  212.9450  152.5010 N   0  0  0  0  0  2  0  0  0  0  0  0
  159.2390  210.9240  152.9950 O   0  0  0  0  0  0  0  0  0  0  0  0
  157.6090  211.6070  154.4890 N   0  0  0  0  0  1  0  0  0  0  0  0
  2  1  1  1  0  0  0
  2 29  1  0  0  0  0
  3  4  1  0  0  0  0
  3  9  1  0  0  0  0
  4  2  1  6  0  0  0
  4 10  1  0  0  0  0
  6  5  1  1  0  0  0
  7 10  1  6  0  0  0
  7  6  1  0  0  0  0
  7  5  1  0  0  0  0
  8 11  1  1  0  0  0
  8  6  1  0  0  0  0
  9 12  1  6  0  0  0
  9  8  1  0  0  0  0
 13 20  1  6  0  0  0
 13 12  1  0  0  0  0
 14 15  2  0  0  0  0
 14 13  1  0  0  0  0
 16 14  1  0  0  0  0
 17 16  1  0  0  0  0
 18 19  1  0  0  0  0
 18 17  1  0  0  0  0
 21 20  1  0  0  0  0
 22 21  1  0  0  0  0
 23 22  1  0  0  0  0
 24 26  1  0  0  0  0
 24 25  1  0  0  0  0
 26 25  1  0  0  0  0
 26 23  1  0  0  0  0
 27 29  2  0  0  0  0
 29 28  1  0  0  0  0
 30 31  1  0  0  0  0
 30 27  2  0  0  0  0
 32 31  1  0  0  0  0
 33 34  1  6  0  0  0
 33 32  1  0  0  0  0
 33 42  1  0  0  0  0
 35 36  1  6  0  0  0
 35 34  1  0  0  0  0
 37 38  2  0  0  0  0
 37 36  1  0  0  0  0
 39 35  1  0  0  0  0
 41 39  1  0  0  0  0
 41 40  1  0  0  0  0
 42 43  1  0  0  0  0
 43 45  1  0  0  0  0
 45 44  2  0  0  0  0
 45 46  1  0  0  0  0
 46 47  1  0  0  0  0
 47 49  1  0  0  0  0
 48 51  1  0  0  0  0
 49 48  1  0  0  0  0
 50 48  2  0  0  0  0
M  END
>  <MODEL>
1

>  <REMARK>
 VINA RESULT:      -5.5      0.000      0.000
  Name = 
  28 active torsions:
  status: ('A' for Active; 'I' for Inactive)
    1  A    between atoms: C_2  and  C_38
    2  A    between atoms: C_3  and  O_7
    3  A    between atoms: C_3  and  C_33
    4  A    between atoms: C_4  and  C_33
    5  A    between atoms: C_4  and  C_39
    6  A    between atoms: N_5  and  C_47
    7  A    between atoms: N_5  and  C_48
    8  A    between atoms: N_9  and  C_15
    9  A    between atoms: C_13  and  C_24
   10  A    between atoms: C_13  and  C_47
   11  A    between atoms: C_15  and  O_36
   12  A    between atoms: C_18  and  O_36
   13  A    between atoms: C_18  and  C_45
   14  A    between atoms: C_19  and  C_51
   15  A    between atoms: C_21  and  C_23
   16  A    between atoms: C_21  and  C_43
   17  A    between atoms: C_22  and  C_28
   18  A    between atoms: C_22  and  O_30
   19  A    between atoms: C_22  and  C_40
   20  A    between atoms: C_23  and  N_49
   21  A    between atoms: C_28  and  C_45
   22  A    between atoms: C_29  and  O_30
   23  A    between atoms: C_29  and  C_50
   24  A    between atoms: C_34  and  C_38
   25  A    between atoms: C_39  and  C_44
   26  A    between atoms: C_39  and  C_51
   27  A    between atoms: C_40  and  C_47
   28  A    between atoms: C_44  and  N_49
                            x       y       z     vdW  Elec       q    Type
                         _______ _______ _______ _____ _____    ______ ____

>  <TORSDO>
F 28

$$$$
=
 OpenBabel11072412363D

 51 53  0  0  1  0  0  0  0  0999 V2000
  160.1240  206.8390  147.5940 C   0  0  0  0  0  1  0  0  0  0  0  0
  160.6340  207.4940  148.8710 C   0  0  1  0  0  3  0  0  0  0  0  0
  160.7890  205.0270  149.5050 C   0  0  0  0  0  2  0  0  0  0  0  0
  160.6950  206.4660  150.0120 C   0  0  1  0  0  3  0  0  0  0  0  0
  162.3790  205.7570  153.0860 O   0  0  0  0  0  0  0  0  0  0  0  0
  161.2210  205.0240  152.7610 C   0  0  1  0  0  3  0  0  0  0  0  0
  161.3690  206.4740  152.4170 C   0  0  2  0  0  3  0  0  0  0  0  0
  161.5620  204.0110  151.6670 C   0  0  2  0  0  3  0  0  0  0  0  0
  160.4660  204.0030  150.5900 C   0  0  2  0  0  3  0  0  0  0  0  0
  161.8170  206.7810  150.9930 C   0  0  0  0  0  2  0  0  0  0  0  0
  161.7030  202.7550  152.2630 O   0  0  0  0  0  1  0  0  0  0  0  0
  160.3140  202.6300  149.9360 C   0  0  0  0  0  2  0  0  0  0  0  0
  161.3730  202.4010  148.8650 C   0  0  1  0  0  3  0  0  0  0  0  0
  161.3190  200.9870  148.3710 C   0  0  0  0  0  0  0  0  0  0  0  0
  161.8700  200.0880  148.9930 O   0  0  0  0  0  0  0  0  0  0  0  0
  160.6070  200.6860  147.0960 C   0  0  0  0  0  2  0  0  0  0  0  0
  161.3780  199.6530  146.2930 C   0  0  0  0  0  2  0  0  0  0  0  0
  160.6780  199.3600  145.1210 O   0  0  0  0  0  0  0  0  0  0  0  0
  160.0240  200.5500  144.7930 C   0  0  0  0  0  1  0  0  0  0  0  0
  161.2040  203.3870  147.7180 C   0  0  0  0  0  2  0  0  0  0  0  0
  162.4500  204.1000  147.4920 N   0  0  0  0  0  2  0  0  0  0  0  0
  162.4230  204.5700  146.1200 C   0  0  0  0  0  2  0  0  0  0  0  0
  161.5010  203.6840  145.3100 C   0  0  0  0  0  2  0  0  0  0  0  0
  160.7720  205.9930  144.8570 C   0  0  0  0  0  2  0  0  0  0  0  0
  161.4460  205.4670  143.6070 C   0  0  0  0  0  2  0  0  0  0  0  0
  160.5930  204.5420  144.4550 C   0  0  0  0  0  3  0  0  0  0  0  0
  161.7850  209.5900  148.4230 C   0  0  0  0  0  0  0  0  0  0  0  0
  163.2550  207.7060  148.6580 C   0  0  0  0  0  1  0  0  0  0  0  0
  161.8870  208.3010  148.6120 C   0  0  0  0  0  0  0  0  0  0  0  0
  161.6750  210.8740  148.2280 C   0  0  0  0  0  3  0  0  0  0  0  0
  162.6620  211.8220  148.8150 C   0  0  0  0  0  2  0  0  0  0  0  0
  162.0320  213.0190  149.1640 O   0  0  0  0  0  0  0  0  0  0  0  0
  160.8820  213.0570  148.3720 C   0  0  2  0  0  3  0  0  0  0  0  0
  161.1150  213.9760  147.1760 C   0  0  0  0  0  2  0  0  0  0  0  0
  160.5360  213.4160  145.8680 C   0  0  1  0  0  3  0  0  0  0  0  0
  159.1840  214.0390  145.5330 C   0  0  0  0  0  2  0  0  0  0  0  0
  158.0610  213.2490  146.1240 C   0  0  0  0  0  3  0  0  0  0  0  0
  157.5170  212.3670  145.4810 O   0  0  0  0  0  0  0  0  0  0  0  0
  161.4530  213.6180  144.7550 N   0  0  0  0  0  2  0  0  0  0  0  0
  162.1740  212.4100  142.7850 C   0  0  0  0  0  1  0  0  0  0  0  0
  160.9960  212.7850  143.6550 C   0  0  0  0  0  2  0  0  0  0  0  0
  159.7010  213.5610  149.1950 C   0  0  0  0  0  2  0  0  0  0  0  0
  159.9170  213.3230  150.6860 C   0  0  0  0  0  2  0  0  0  0  0  0
  157.5410  213.3690  150.8060 O   0  0  0  0  0  0  0  0  0  0  0  0
  158.6240  213.1310  151.4090 C   0  0  0  0  0  0  0  0  0  0  0  0
  158.6250  212.6690  152.7270 O   0  0  0  0  0  0  0  0  0  0  0  0
  159.8220  212.3130  153.4010 C   0  0  0  0  0  2  0  0  0  0  0  0
  160.7310  210.3230  154.6480 C   0  0  0  0  0  0  0  0  0  0  0  0
  159.7700  210.9090  153.7700 N   0  0  0  0  0  2  0  0  0  0  0  0
  161.6540  211.0180  155.1430 O   0  0  0  0  0  0  0  0  0  0  0  0
  160.6590  208.9370  154.9500 N   0  0  0  0  0  1  0  0  0  0  0  0
  2  1  1  6  0  0  0
  3  4  1  0  0  0  0
  3  9  1  0  0  0  0
  4  2  1  6  0  0  0
  4 10  1  0  0  0  0
  6  5  1  1  0  0  0
  7 10  1  6  0  0  0
  7  6  1  0  0  0  0
  7  5  1  0  0  0  0
  8 11  1  1  0  0  0
  8  6  1  0  0  0  0
  9 12  1  6  0  0  0
  9  8  1  0  0  0  0
 13 20  1  6  0  0  0
 13 12  1  0  0  0  0
 14 13  1  0  0  0  0
 14 15  2  0  0  0  0
 16 14  1  0  0  0  0
 17 16  1  0  0  0  0
 18 17  1  0  0  0  0
 19 18  1  0  0  0  0
 21 20  1  0  0  0  0
 22 21  1  0  0  0  0
 23 22  1  0  0  0  0
 25 26  1  0  0  0  0
 25 24  1  0  0  0  0
 26 24  1  0  0  0  0
 26 23  1  0  0  0  0
 27 29  2  0  0  0  0
 29 28  1  0  0  0  0
 29  2  1  0  0  0  0
 30 27  2  0  0  0  0
 30 31  1  0  0  0  0
 31 32  1  0  0  0  0
 33 34  1  6  0  0  0
 33 32  1  0  0  0  0
 33 42  1  0  0  0  0
 35 36  1  6  0  0  0
 35 34  1  0  0  0  0
 36 37  1  0  0  0  0
 38 37  2  0  0  0  0
 39 35  1  0  0  0  0
 40 41  1  0  0  0  0
 41 39  1  0  0  0  0
 42 43  1  0  0  0  0
 43 45  1  0  0  0  0
 44 45  2  0  0  0  0
 45 46  1  0  0  0  0
 46 47  1  0  0  0  0
 47 49  1  0  0  0  0
 48 51  1  0  0  0  0
 48 50  2  0  0  0  0
 49 48  1  0  0  0  0
M  END
>  <MODEL>
2

>  <REMARK>
 VINA RESULT:      -4.7      1.567      2.081
  Name = 
  28 active torsions:
  status: ('A' for Active; 'I' for Inactive)
    1  A    between atoms: C_2  and  C_38
    2  A    between atoms: C_3  and  O_7
    3  A    between atoms: C_3  and  C_33
    4  A    between atoms: C_4  and  C_33
    5  A    between atoms: C_4  and  C_39
    6  A    between atoms: N_5  and  C_47
    7  A    between atoms: N_5  and  C_48
    8  A    between atoms: N_9  and  C_15
    9  A    between atoms: C_13  and  C_24
   10  A    between atoms: C_13  and  C_47
   11  A    between atoms: C_15  and  O_36
   12  A    between atoms: C_18  and  O_36
   13  A    between atoms: C_18  and  C_45
   14  A    between atoms: C_19  and  C_51
   15  A    between atoms: C_21  and  C_23
   16  A    between atoms: C_21  and  C_43
   17  A    between atoms: C_22  and  C_28
   18  A    between atoms: C_22  and  O_30
   19  A    between atoms: C_22  and  C_40
   20  A    between atoms: C_23  and  N_49
   21  A    between atoms: C_28  and  C_45
   22  A    between atoms: C_29  and  O_30
   23  A    between atoms: C_29  and  C_50
   24  A    between atoms: C_34  and  C_38
   25  A    between atoms: C_39  and  C_44
   26  A    between atoms: C_39  and  C_51
   27  A    between atoms: C_40  and  C_47
   28  A    between atoms: C_44  and  N_49
                            x       y       z     vdW  Elec       q    Type
                         _______ _______ _______ _____ _____    ______ ____

>  <TORSDO>
F 28

$$$$
=
 OpenBabel11072412363D

 51 53  0  0  1  0  0  0  0  0999 V2000
  161.1630  203.8200  152.7620 C   0  0  0  0  0  1  0  0  0  0  0  0
  161.4080  204.5020  151.4220 C   0  0  1  0  0  3  0  0  0  0  0  0
  161.8580  203.6670  149.0520 C   0  0  0  0  0  2  0  0  0  0  0  0
  160.9360  203.6000  150.2700 C   0  0  1  0  0  3  0  0  0  0  0  0
  159.8300  200.2740  149.5600 O   0  0  0  0  0  0  0  0  0  0  0  0
  159.6640  201.2700  148.5780 C   0  0  1  0  0  3  0  0  0  0  0  0
  159.5130  201.5600  150.0400 C   0  0  2  0  0  3  0  0  0  0  0  0
  161.0200  201.5760  147.9430 C   0  0  2  0  0  3  0  0  0  0  0  0
  161.2080  203.0940  147.7960 C   0  0  2  0  0  3  0  0  0  0  0  0
  160.7320  202.1620  150.7300 C   0  0  0  0  0  2  0  0  0  0  0  0
  161.0800  200.9310  146.7060 O   0  0  0  0  0  1  0  0  0  0  0  0
  162.0770  203.4510  146.5900 C   0  0  0  0  0  2  0  0  0  0  0  0
  161.5640  204.7010  145.8830 C   0  0  1  0  0  3  0  0  0  0  0  0
  162.0630  205.9330  146.5740 C   0  0  0  0  0  0  0  0  0  0  0  0
  163.2470  206.0490  146.8620 O   0  0  0  0  0  0  0  0  0  0  0  0
  161.0980  207.0110  146.9330 C   0  0  0  0  0  2  0  0  0  0  0  0
  161.6180  207.8140  148.1120 C   0  0  0  0  0  2  0  0  0  0  0  0
  161.3220  209.1650  147.9200 O   0  0  0  0  0  0  0  0  0  0  0  0
  162.2980  209.8480  148.6470 C   0  0  0  0  0  1  0  0  0  0  0  0
  161.9690  204.6960  144.4160 C   0  0  0  0  0  2  0  0  0  0  0  0
  161.0760  205.5530  143.6540 N   0  0  0  0  0  2  0  0  0  0  0  0
  161.9130  206.4240  142.8500 C   0  0  0  0  0  2  0  0  0  0  0  0
  161.5850  206.2140  141.3870 C   0  0  0  0  0  2  0  0  0  0  0  0
  162.1290  206.9120  139.0880 C   0  0  0  0  0  2  0  0  0  0  0  0
  161.9510  208.1640  139.9220 C   0  0  0  0  0  2  0  0  0  0  0  0
  162.6020  206.9340  140.5290 C   0  0  0  0  0  3  0  0  0  0  0  0
  160.9970  206.6320  152.5220 C   0  0  0  0  0  0  0  0  0  0  0  0
  160.3650  206.5980  150.2060 C   0  0  0  0  0  1  0  0  0  0  0  0
  160.8970  205.9250  151.4280 C   0  0  0  0  0  0  0  0  0  0  0  0
  161.0950  207.3290  153.6190 C   0  0  0  0  0  3  0  0  0  0  0  0
  161.4800  208.7670  153.5780 C   0  0  0  0  0  2  0  0  0  0  0  0
  160.3390  209.5710  153.5280 O   0  0  0  0  0  0  0  0  0  0  0  0
  160.8270  210.8800  153.5710 C   0  0  2  0  0  3  0  0  0  0  0  0
  160.1950  211.6230  154.7440 C   0  0  0  0  0  2  0  0  0  0  0  0
  159.5870  210.6810  155.7930 C   0  0  1  0  0  3  0  0  0  0  0  0
  160.4800  210.5470  157.0220 C   0  0  0  0  0  2  0  0  0  0  0  0
  160.8720  209.1240  157.2570 C   0  0  0  0  0  3  0  0  0  0  0  0
  161.9840  208.7270  156.9500 O   0  0  0  0  0  0  0  0  0  0  0  0
  158.2620  211.1290  156.2010 N   0  0  0  0  0  2  0  0  0  0  0  0
  155.9560  210.9190  155.4980 C   0  0  0  0  0  1  0  0  0  0  0  0
  157.3920  211.0360  155.0410 C   0  0  0  0  0  2  0  0  0  0  0  0
  160.5040  211.5970  152.2640 C   0  0  0  0  0  2  0  0  0  0  0  0
  159.0400  212.0200  152.2060 C   0  0  0  0  0  2  0  0  0  0  0  0
  159.7300  214.1640  151.4390 O   0  0  0  0  0  0  0  0  0  0  0  0
  158.8530  213.2580  151.3910 C   0  0  0  0  0  0  0  0  0  0  0  0
  157.7310  213.3890  150.5700 O   0  0  0  0  0  0  0  0  0  0  0  0
  157.7390  214.1970  149.4040 C   0  0  0  0  0  2  0  0  0  0  0  0
  158.4580  212.9500  147.3380 C   0  0  0  0  0  0  0  0  0  0  0  0
  158.7690  213.7250  148.4950 N   0  0  0  0  0  2  0  0  0  0  0  0
  157.2660  212.6600  147.0620 O   0  0  0  0  0  0  0  0  0  0  0  0
  159.5040  212.4810  146.5000 N   0  0  0  0  0  1  0  0  0  0  0  0
  2 29  1  0  0  0  0
  2  1  1  1  0  0  0
  3  4  1  0  0  0  0
  4 10  1  0  0  0  0
  4  2  1  1  0  0  0
  5  7  1  0  0  0  0
  6  5  1  1  0  0  0
  6  7  1  0  0  0  0
  7 10  1  1  0  0  0
  8 11  1  6  0  0  0
  8  6  1  0  0  0  0
  9 12  1  6  0  0  0
  9  8  1  0  0  0  0
  9  3  1  0  0  0  0
 13 20  1  6  0  0  0
 13 14  1  0  0  0  0
 13 12  1  0  0  0  0
 14 15  2  0  0  0  0
 14 16  1  0  0  0  0
 16 17  1  0  0  0  0
 18 17  1  0  0  0  0
 18 19  1  0  0  0  0
 21 20  1  0  0  0  0
 22 21  1  0  0  0  0
 23 22  1  0  0  0  0
 24 25  1  0  0  0  0
 24 26  1  0  0  0  0
 25 26  1  0  0  0  0
 26 23  1  0  0  0  0
 27 30  2  0  0  0  0
 28 29  1  0  0  0  0
 29 27  2  0  0  0  0
 31 30  1  0  0  0  0
 32 33  1  0  0  0  0
 32 31  1  0  0  0  0
 33 42  1  6  0  0  0
 33 34  1  0  0  0  0
 35 34  1  6  0  0  0
 35 39  1  0  0  0  0
 35 36  1  0  0  0  0
 36 37  1  0  0  0  0
 38 37  2  0  0  0  0
 41 40  1  0  0  0  0
 41 39  1  0  0  0  0
 43 42  1  0  0  0  0
 45 44  2  0  0  0  0
 45 43  1  0  0  0  0
 46 45  1  0  0  0  0
 47 46  1  0  0  0  0
 48 49  1  0  0  0  0
 49 47  1  0  0  0  0
 50 48  2  0  0  0  0
 51 48  1  0  0  0  0
M  END
>  <MODEL>
3

>  <REMARK>
 VINA RESULT:      -4.5      2.619      7.513
  Name = 
  28 active torsions:
  status: ('A' for Active; 'I' for Inactive)
    1  A    between atoms: C_2  and  C_38
    2  A    between atoms: C_3  and  O_7
    3  A    between atoms: C_3  and  C_33
    4  A    between atoms: C_4  and  C_33
    5  A    between atoms: C_4  and  C_39
    6  A    between atoms: N_5  and  C_47
    7  A    between atoms: N_5  and  C_48
    8  A    between atoms: N_9  and  C_15
    9  A    between atoms: C_13  and  C_24
   10  A    between atoms: C_13  and  C_47
   11  A    between atoms: C_15  and  O_36
   12  A    between atoms: C_18  and  O_36
   13  A    between atoms: C_18  and  C_45
   14  A    between atoms: C_19  and  C_51
   15  A    between atoms: C_21  and  C_23
   16  A    between atoms: C_21  and  C_43
   17  A    between atoms: C_22  and  C_28
   18  A    between atoms: C_22  and  O_30
   19  A    between atoms: C_22  and  C_40
   20  A    between atoms: C_23  and  N_49
   21  A    between atoms: C_28  and  C_45
   22  A    between atoms: C_29  and  O_30
   23  A    between atoms: C_29  and  C_50
   24  A    between atoms: C_34  and  C_38
   25  A    between atoms: C_39  and  C_44
   26  A    between atoms: C_39  and  C_51
   27  A    between atoms: C_40  and  C_47
   28  A    between atoms: C_44  and  N_49
                            x       y       z     vdW  Elec       q    Type
                         _______ _______ _______ _____ _____    ______ ____

>  <TORSDO>
F 28

$$$$
=
 OpenBabel11072412363D

 51 53  0  0  1  0  0  0  0  0999 V2000
  160.8940  206.3030  154.0380 C   0  0  0  0  0  1  0  0  0  0  0  0
  160.7200  207.2530  152.8610 C   0  0  1  0  0  3  0  0  0  0  0  0
  159.7560  209.6150  152.7830 C   0  0  0  0  0  2  0  0  0  0  0  0
  160.8630  208.7110  153.3260 C   0  0  1  0  0  3  0  0  0  0  0  0
  161.4010  210.7030  156.2470 O   0  0  0  0  0  0  0  0  0  0  0  0
  161.5130  211.3090  154.9810 C   0  0  1  0  0  3  0  0  0  0  0  0
  161.9560  209.9000  155.2320 C   0  0  2  0  0  3  0  0  0  0  0  0
  160.1150  211.5060  154.3950 C   0  0  2  0  0  3  0  0  0  0  0  0
  160.0960  211.0970  152.9140 C   0  0  2  0  0  3  0  0  0  0  0  0
  160.9640  208.8100  154.8430 C   0  0  0  0  0  2  0  0  0  0  0  0
  159.7560  212.8470  154.5610 O   0  0  0  0  0  1  0  0  0  0  0  0
  159.0790  211.9050  152.1080 C   0  0  0  0  0  2  0  0  0  0  0  0
  159.6650  213.2320  151.6410 C   0  0  1  0  0  3  0  0  0  0  0  0
  159.9900  213.1740  150.1790 C   0  0  0  0  0  0  0  0  0  0  0  0
  159.2130  213.6310  149.3500 O   0  0  0  0  0  0  0  0  0  0  0  0
  161.2600  212.5300  149.7380 C   0  0  0  0  0  2  0  0  0  0  0  0
  161.5400  212.8590  148.2820 C   0  0  0  0  0  2  0  0  0  0  0  0
  160.9940  211.8650  147.4690 O   0  0  0  0  0  0  0  0  0  0  0  0
  160.4830  212.5500  146.3650 C   0  0  0  0  0  1  0  0  0  0  0  0
  158.7120  214.3800  151.9430 C   0  0  0  0  0  2  0  0  0  0  0  0
  157.3900  213.8570  152.2460 N   0  0  0  0  0  2  0  0  0  0  0  0
  157.0470  214.3260  153.5750 C   0  0  0  0  0  2  0  0  0  0  0  0
  156.1060  213.3330  154.2250 C   0  0  0  0  0  2  0  0  0  0  0  0
  155.2850  213.2470  156.5460 C   0  0  0  0  0  2  0  0  0  0  0  0
  155.8150  211.8740  156.1910 C   0  0  0  0  0  2  0  0  0  0  0  0
  156.5130  213.1150  155.6660 C   0  0  0  0  0  3  0  0  0  0  0  0
  161.0070  206.7240  150.5040 C   0  0  0  0  0  0  0  0  0  0  0  0
  163.0370  206.6080  151.7790 C   0  0  0  0  0  1  0  0  0  0  0  0
  161.5640  206.8270  151.6810 C   0  0  0  0  0  0  0  0  0  0  0  0
  160.4410  206.6180  149.3340 C   0  0  0  0  0  3  0  0  0  0  0  0
  161.1430  207.0770  148.1030 C   0  0  0  0  0  2  0  0  0  0  0  0
  162.4360  206.5510  148.0600 O   0  0  0  0  0  0  0  0  0  0  0  0
  162.3840  205.5670  147.0700 C   0  0  2  0  0  3  0  0  0  0  0  0
  161.8750  206.1790  145.7680 C   0  0  0  0  0  2  0  0  0  0  0  0
  161.5510  205.1270  144.6980 C   0  0  1  0  0  3  0  0  0  0  0  0
  160.0550  205.0560  144.4050 C   0  0  0  0  0  2  0  0  0  0  0  0
  159.6670  203.7110  143.8840 C   0  0  0  0  0  3  0  0  0  0  0  0
  158.8910  203.0040  144.5050 O   0  0  0  0  0  0  0  0  0  0  0  0
  162.2760  205.3890  143.4620 N   0  0  0  0  0  2  0  0  0  0  0  0
  162.0560  206.3580  141.2550 C   0  0  0  0  0  1  0  0  0  0  0  0
  161.4230  206.2110  142.6200 C   0  0  0  0  0  2  0  0  0  0  0  0
  161.4630  204.4340  147.5100 C   0  0  0  0  0  2  0  0  0  0  0  0
  161.7100  203.1660  146.7000 C   0  0  0  0  0  2  0  0  0  0  0  0
  161.2110  200.8410  146.7970 O   0  0  0  0  0  0  0  0  0  0  0  0
  161.1700  201.9550  147.3880 C   0  0  0  0  0  0  0  0  0  0  0  0
  160.6540  202.0630  148.6810 O   0  0  0  0  0  0  0  0  0  0  0  0
  160.8380  201.0460  149.6550 C   0  0  0  0  0  2  0  0  0  0  0  0
  161.0730  202.8560  151.3900 C   0  0  0  0  0  0  0  0  0  0  0  0
  160.5670  201.5870  150.9760 N   0  0  0  0  0  2  0  0  0  0  0  0
  161.7640  203.5570  150.6090 O   0  0  0  0  0  0  0  0  0  0  0  0
  160.8110  203.3250  152.7050 N   0  0  0  0  0  1  0  0  0  0  0  0
  2  1  1  1  0  0  0
  3  9  1  0  0  0  0
  3  4  1  0  0  0  0
  4  2  1  1  0  0  0
  4 10  1  0  0  0  0
  6  7  1  0  0  0  0
  6  5  1  1  0  0  0
  7 10  1  6  0  0  0
  7  5  1  0  0  0  0
  8 11  1  6  0  0  0
  8  6  1  0  0  0  0
  9 12  1  6  0  0  0
  9  8  1  0  0  0  0
 13 20  1  6  0  0  0
 13 12  1  0  0  0  0
 14 13  1  0  0  0  0
 15 14  2  0  0  0  0
 16 14  1  0  0  0  0
 17 16  1  0  0  0  0
 18 17  1  0  0  0  0
 19 18  1  0  0  0  0
 20 21  1  0  0  0  0
 21 22  1  0  0  0  0
 22 23  1  0  0  0  0
 23 26  1  0  0  0  0
 25 24  1  0  0  0  0
 26 25  1  0  0  0  0
 26 24  1  0  0  0  0
 27 29  2  0  0  0  0
 29 28  1  0  0  0  0
 29  2  1  0  0  0  0
 30 27  2  0  0  0  0
 31 30  1  0  0  0  0
 32 31  1  0  0  0  0
 33 34  1  6  0  0  0
 33 42  1  0  0  0  0
 33 32  1  0  0  0  0
 35 36  1  6  0  0  0
 35 34  1  0  0  0  0
 37 36  1  0  0  0  0
 37 38  2  0  0  0  0
 39 35  1  0  0  0  0
 40 41  1  0  0  0  0
 41 39  1  0  0  0  0
 43 45  1  0  0  0  0
 43 42  1  0  0  0  0
 44 45  2  0  0  0  0
 45 46  1  0  0  0  0
 46 47  1  0  0  0  0
 47 49  1  0  0  0  0
 48 51  1  0  0  0  0
 49 48  1  0  0  0  0
 50 48  2  0  0  0  0
M  END
>  <MODEL>
4

>  <REMARK>
 VINA RESULT:      -4.3      2.652      9.750
  Name = 
  28 active torsions:
  status: ('A' for Active; 'I' for Inactive)
    1  A    between atoms: C_2  and  C_38
    2  A    between atoms: C_3  and  O_7
    3  A    between atoms: C_3  and  C_33
    4  A    between atoms: C_4  and  C_33
    5  A    between atoms: C_4  and  C_39
    6  A    between atoms: N_5  and  C_47
    7  A    between atoms: N_5  and  C_48
    8  A    between atoms: N_9  and  C_15
    9  A    between atoms: C_13  and  C_24
   10  A    between atoms: C_13  and  C_47
   11  A    between atoms: C_15  and  O_36
   12  A    between atoms: C_18  and  O_36
   13  A    between atoms: C_18  and  C_45
   14  A    between atoms: C_19  and  C_51
   15  A    between atoms: C_21  and  C_23
   16  A    between atoms: C_21  and  C_43
   17  A    between atoms: C_22  and  C_28
   18  A    between atoms: C_22  and  O_30
   19  A    between atoms: C_22  and  C_40
   20  A    between atoms: C_23  and  N_49
   21  A    between atoms: C_28  and  C_45
   22  A    between atoms: C_29  and  O_30
   23  A    between atoms: C_29  and  C_50
   24  A    between atoms: C_34  and  C_38
   25  A    between atoms: C_39  and  C_44
   26  A    between atoms: C_39  and  C_51
   27  A    between atoms: C_40  and  C_47
   28  A    between atoms: C_44  and  N_49
                            x       y       z     vdW  Elec       q    Type
                         _______ _______ _______ _____ _____    ______ ____

>  <TORSDO>
F 28

$$$$
=
 OpenBabel11072412363D

 51 53  0  0  1  0  0  0  0  0999 V2000
  161.0780  204.7530  153.7130 C   0  0  0  0  0  1  0  0  0  0  0  0
  161.6900  206.1310  153.4980 C   0  0  1  0  0  3  0  0  0  0  0  0
  160.7940  205.5810  151.1720 C   0  0  0  0  0  2  0  0  0  0  0  0
  161.7150  206.4770  152.0010 C   0  0  1  0  0  3  0  0  0  0  0  0
  161.4820  209.2350  149.7360 O   0  0  0  0  0  0  0  0  0  0  0  0
  161.9250  207.9900  149.2480 C   0  0  1  0  0  3  0  0  0  0  0  0
  162.2780  208.4800  150.6190 C   0  0  2  0  0  3  0  0  0  0  0  0
  160.7300  207.0440  149.1330 C   0  0  2  0  0  3  0  0  0  0  0  0
  161.0960  205.6550  149.6780 C   0  0  2  0  0  3  0  0  0  0  0  0
  161.4160  207.9510  151.7590 C   0  0  0  0  0  2  0  0  0  0  0  0
  160.3480  206.9820  147.7900 O   0  0  0  0  0  1  0  0  0  0  0  0
  160.3310  204.5390  148.9680 C   0  0  0  0  0  2  0  0  0  0  0  0
  161.2440  203.7290  148.0560 C   0  0  1  0  0  3  0  0  0  0  0  0
  162.3020  204.6080  147.4620 C   0  0  0  0  0  0  0  0  0  0  0  0
  162.9920  205.3220  148.1770 O   0  0  0  0  0  0  0  0  0  0  0  0
  162.4910  204.6260  145.9830 C   0  0  0  0  0  2  0  0  0  0  0  0
  161.3920  203.8300  145.3010 C   0  0  0  0  0  2  0  0  0  0  0  0
  160.8280  204.5970  144.2800 O   0  0  0  0  0  0  0  0  0  0  0  0
  160.9960  205.9190  144.6980 C   0  0  0  0  0  1  0  0  0  0  0  0
  161.8650  202.5620  148.8110 C   0  0  0  0  0  2  0  0  0  0  0  0
  160.8990  201.4820  148.9310 N   0  0  0  0  0  2  0  0  0  0  0  0
  160.6370  201.0000  147.5880 C   0  0  0  0  0  2  0  0  0  0  0  0
  161.4430  199.7410  147.3460 C   0  0  0  0  0  2  0  0  0  0  0  0
  161.4220  198.0680  145.5380 C   0  0  0  0  0  2  0  0  0  0  0  0
  160.3190  199.0670  145.2570 C   0  0  0  0  0  2  0  0  0  0  0  0
  161.6310  199.5360  145.8590 C   0  0  0  0  0  3  0  0  0  0  0  0
  161.4750  208.3980  154.3540 C   0  0  0  0  0  0  0  0  0  0  0  0
  159.9550  206.8340  155.3570 C   0  0  0  0  0  1  0  0  0  0  0  0
  161.0750  207.1560  154.4240 C   0  0  0  0  0  0  0  0  0  0  0  0
  161.8850  209.6340  154.2830 C   0  0  0  0  0  3  0  0  0  0  0  0
  160.9210  210.7640  154.3880 C   0  0  0  0  0  2  0  0  0  0  0  0
  160.0050  210.7160  153.3340 O   0  0  0  0  0  0  0  0  0  0  0  0
  159.0320  211.6610  153.6690 C   0  0  2  0  0  3  0  0  0  0  0  0
  158.5920  212.4090  152.4140 C   0  0  0  0  0  2  0  0  0  0  0  0
  159.7020  213.2890  151.8210 C   0  0  1  0  0  3  0  0  0  0  0  0
  160.6670  212.4800  150.9590 C   0  0  0  0  0  2  0  0  0  0  0  0
  160.6790  212.9730  149.5490 C   0  0  0  0  0  3  0  0  0  0  0  0
  161.6740  212.8460  148.8550 O   0  0  0  0  0  0  0  0  0  0  0  0
  159.1460  214.3820  151.0340 N   0  0  0  0  0  2  0  0  0  0  0  0
  157.0280  213.7230  150.0670 C   0  0  0  0  0  1  0  0  0  0  0  0
  157.7080  214.3840  151.2440 C   0  0  0  0  0  2  0  0  0  0  0  0
  159.5920  212.6430  154.6940 C   0  0  0  0  0  2  0  0  0  0  0  0
  158.8110  212.5910  156.0020 C   0  0  0  0  0  2  0  0  0  0  0  0
  158.0180  214.4490  157.2610 O   0  0  0  0  0  0  0  0  0  0  0  0
  157.9500  213.8000  156.1810 C   0  0  0  0  0  0  0  0  0  0  0  0
  157.1040  214.2100  155.1490 O   0  0  0  0  0  0  0  0  0  0  0  0
  155.7220  213.8890  155.1330 C   0  0  0  0  0  2  0  0  0  0  0  0
  155.3930  211.4480  155.6540 C   0  0  0  0  0  0  0  0  0  0  0  0
  155.5500  212.5100  154.7130 N   0  0  0  0  0  2  0  0  0  0  0  0
  155.3850  211.6810  156.8890 O   0  0  0  0  0  0  0  0  0  0  0  0
  155.2640  210.1100  155.1940 N   0  0  0  0  0  1  0  0  0  0  0  0
  2  1  1  6  0  0  0
  2 29  1  0  0  0  0
  3  4  1  0  0  0  0
  4  2  1  1  0  0  0
  5  7  1  0  0  0  0
  6  5  1  6  0  0  0
  6  7  1  0  0  0  0
  7 10  1  1  0  0  0
  8 11  1  6  0  0  0
  8  6  1  0  0  0  0
  8  9  1  0  0  0  0
  9 12  1  6  0  0  0
  9  3  1  0  0  0  0
 10  4  1  0  0  0  0
 13 20  1  1  0  0  0
 13 12  1  0  0  0  0
 14 13  1  0  0  0  0
 14 15  2  0  0  0  0
 16 14  1  0  0  0  0
 17 16  1  0  0  0  0
 18 19  1  0  0  0  0
 18 17  1  0  0  0  0
 20 21  1  0  0  0  0
 22 21  1  0  0  0  0
 23 22  1  0  0  0  0
 24 26  1  0  0  0  0
 25 24  1  0  0  0  0
 25 26  1  0  0  0  0
 26 23  1  0  0  0  0
 27 29  2  0  0  0  0
 29 28  1  0  0  0  0
 30 27  2  0  0  0  0
 30 31  1  0  0  0  0
 32 33  1  0  0  0  0
 32 31  1  0  0  0  0
 33 34  1  6  0  0  0
 33 42  1  0  0  0  0
 35 36  1  6  0  0  0
 35 34  1  0  0  0  0
 37 36  1  0  0  0  0
 38 37  2  0  0  0  0
 39 41  1  0  0  0  0
 39 35  1  0  0  0  0
 40 41  1  0  0  0  0
 42 43  1  0  0  0  0
 43 45  1  0  0  0  0
 45 44  2  0  0  0  0
 46 45  1  0  0  0  0
 47 46  1  0  0  0  0
 48 50  2  0  0  0  0
 49 47  1  0  0  0  0
 49 48  1  0  0  0  0
 51 48  1  0  0  0  0
M  END
>  <MODEL>
5

>  <REMARK>
 VINA RESULT:      -3.7      3.368      5.704
  Name = 
  28 active torsions:
  status: ('A' for Active; 'I' for Inactive)
    1  A    between atoms: C_2  and  C_38
    2  A    between atoms: C_3  and  O_7
    3  A    between atoms: C_3  and  C_33
    4  A    between atoms: C_4  and  C_33
    5  A    between atoms: C_4  and  C_39
    6  A    between atoms: N_5  and  C_47
    7  A    between atoms: N_5  and  C_48
    8  A    between atoms: N_9  and  C_15
    9  A    between atoms: C_13  and  C_24
   10  A    between atoms: C_13  and  C_47
   11  A    between atoms: C_15  and  O_36
   12  A    between atoms: C_18  and  O_36
   13  A    between atoms: C_18  and  C_45
   14  A    between atoms: C_19  and  C_51
   15  A    between atoms: C_21  and  C_23
   16  A    between atoms: C_21  and  C_43
   17  A    between atoms: C_22  and  C_28
   18  A    between atoms: C_22  and  O_30
   19  A    between atoms: C_22  and  C_40
   20  A    between atoms: C_23  and  N_49
   21  A    between atoms: C_28  and  C_45
   22  A    between atoms: C_29  and  O_30
   23  A    between atoms: C_29  and  C_50
   24  A    between atoms: C_34  and  C_38
   25  A    between atoms: C_39  and  C_44
   26  A    between atoms: C_39  and  C_51
   27  A    between atoms: C_40  and  C_47
   28  A    between atoms: C_44  and  N_49
                            x       y       z     vdW  Elec       q    Type
                         _______ _______ _______ _____ _____    ______ ____

>  <TORSDO>
F 28

$$$$
=
 OpenBabel11072412363D

 51 53  0  0  1  0  0  0  0  0999 V2000
  162.1570  209.1980  147.9790 C   0  0  0  0  0  1  0  0  0  0  0  0
  161.2110  208.0310  148.2260 C   0  0  1  0  0  3  0  0  0  0  0  0
  161.4270  205.4950  148.0310 C   0  0  0  0  0  2  0  0  0  0  0  0
  161.5820  206.8420  147.3250 C   0  0  1  0  0  3  0  0  0  0  0  0
  161.0090  205.4810  144.0670 O   0  0  0  0  0  0  0  0  0  0  0  0
  162.0500  204.9490  144.8530 C   0  0  1  0  0  3  0  0  0  0  0  0
  161.7060  206.4070  144.8680 C   0  0  2  0  0  3  0  0  0  0  0  0
  161.4470  204.0800  145.9570 C   0  0  2  0  0  3  0  0  0  0  0  0
  162.1430  204.3650  147.2970 C   0  0  2  0  0  3  0  0  0  0  0  0
  160.8100  206.8700  146.0120 C   0  0  0  0  0  2  0  0  0  0  0  0
  161.5850  202.7410  145.5840 O   0  0  0  0  0  1  0  0  0  0  0  0
  162.1710  203.1340  148.2030 C   0  0  0  0  0  2  0  0  0  0  0  0
  160.7640  202.6320  148.5060 C   0  0  1  0  0  3  0  0  0  0  0  0
  160.6600  201.1650  148.2220 C   0  0  0  0  0  0  0  0  0  0  0  0
  160.7320  200.3480  149.1310 O   0  0  0  0  0  0  0  0  0  0  0  0
  160.4930  200.7030  146.8140 C   0  0  0  0  0  2  0  0  0  0  0  0
  161.3220  199.4550  146.5660 C   0  0  0  0  0  2  0  0  0  0  0  0
  160.9950  198.9210  145.3190 O   0  0  0  0  0  0  0  0  0  0  0  0
  161.7230  197.7320  145.2410 C   0  0  0  0  0  1  0  0  0  0  0  0
  160.3800  202.9380  149.9470 C   0  0  0  0  0  2  0  0  0  0  0  0
  161.5440  202.8000  150.8070 N   0  0  0  0  0  2  0  0  0  0  0  0
  161.7120  204.0670  151.4940 C   0  0  0  0  0  2  0  0  0  0  0  0
  160.8810  204.0600  152.7590 C   0  0  0  0  0  2  0  0  0  0  0  0
  162.2740  206.0770  153.0000 C   0  0  0  0  0  2  0  0  0  0  0  0
  160.8780  206.4190  153.4760 C   0  0  0  0  0  2  0  0  0  0  0  0
  161.4580  205.0440  153.7530 C   0  0  0  0  0  3  0  0  0  0  0  0
  161.6110  208.5610  150.5660 C   0  0  0  0  0  0  0  0  0  0  0  0
  160.2330  206.6240  150.2310 C   0  0  0  0  0  1  0  0  0  0  0  0
  161.0620  207.7470  149.7030 C   0  0  0  0  0  0  0  0  0  0  0  0
  162.1670  209.3740  151.4200 C   0  0  0  0  0  3  0  0  0  0  0  0
  161.4630  209.7600  152.6740 C   0  0  0  0  0  2  0  0  0  0  0  0
  161.6680  211.1150  152.9450 O   0  0  0  0  0  0  0  0  0  0  0  0
  160.4960  211.5300  153.5800 C   0  0  2  0  0  3  0  0  0  0  0  0
  160.1990  210.6080  154.7590 C   0  0  0  0  0  2  0  0  0  0  0  0
  161.1830  210.7880  155.9240 C   0  0  1  0  0  3  0  0  0  0  0  0
  160.5440  211.5230  157.0990 C   0  0  0  0  0  2  0  0  0  0  0  0
  159.2300  212.1230  156.7140 C   0  0  0  0  0  3  0  0  0  0  0  0
  158.1840  211.6170  157.0840 O   0  0  0  0  0  0  0  0  0  0  0  0
  161.7050  209.5070  156.3780 N   0  0  0  0  0  2  0  0  0  0  0  0
  160.3910  207.5160  156.7910 C   0  0  0  0  0  1  0  0  0  0  0  0
  160.7110  208.9170  157.2600 C   0  0  0  0  0  2  0  0  0  0  0  0
  159.3330  211.5050  152.5920 C   0  0  0  0  0  2  0  0  0  0  0  0
  158.1310  212.2770  153.1260 C   0  0  0  0  0  2  0  0  0  0  0  0
  158.4350  214.4530  154.0400 O   0  0  0  0  0  0  0  0  0  0  0  0
  158.3200  213.7530  152.9960 C   0  0  0  0  0  0  0  0  0  0  0  0
  158.3920  214.3370  151.7300 O   0  0  0  0  0  0  0  0  0  0  0  0
  159.0150  213.6870  150.6330 C   0  0  0  0  0  2  0  0  0  0  0  0
  157.2920  213.8500  148.8040 C   0  0  0  0  0  0  0  0  0  0  0  0
  158.5270  214.2600  149.3900 N   0  0  0  0  0  2  0  0  0  0  0  0
  156.5750  212.9800  149.3610 O   0  0  0  0  0  0  0  0  0  0  0  0
  156.8750  214.4140  147.5690 N   0  0  0  0  0  1  0  0  0  0  0  0
  2  1  1  1  0  0  0
  2 29  1  0  0  0  0
  4  3  1  0  0  0  0
  4  2  1  1  0  0  0
  5  7  1  0  0  0  0
  6  5  1  6  0  0  0
  6  7  1  0  0  0  0
  6  8  1  0  0  0  0
  7 10  1  1  0  0  0
  8 11  1  6  0  0  0
  8  9  1  0  0  0  0
  9  3  1  0  0  0  0
  9 12  1  1  0  0  0
 10  4  1  0  0  0  0
 13 12  1  1  0  0  0
 13 20  1  0  0  0  0
 14 13  1  0  0  0  0
 14 15  2  0  0  0  0
 16 14  1  0  0  0  0
 17 16  1  0  0  0  0
 18 17  1  0  0  0  0
 19 18  1  0  0  0  0
 20 21  1  0  0  0  0
 21 22  1  0  0  0  0
 22 23  1  0  0  0  0
 23 26  1  0  0  0  0
 24 25  1  0  0  0  0
 24 26  1  0  0  0  0
 25 26  1  0  0  0  0
 27 30  2  0  0  0  0
 29 28  1  0  0  0  0
 29 27  2  0  0  0  0
 30 31  1  0  0  0  0
 31 32  1  0  0  0  0
 32 33  1  0  0  0  0
 33 42  1  6  0  0  0
 33 34  1  0  0  0  0
 35 34  1  6  0  0  0
 35 39  1  0  0  0  0
 35 36  1  0  0  0  0
 37 38  2  0  0  0  0
 37 36  1  0  0  0  0
 39 41  1  0  0  0  0
 40 41  1  0  0  0  0
 42 43  1  0  0  0  0
 45 43  1  0  0  0  0
 45 44  2  0  0  0  0
 46 45  1  0  0  0  0
 47 46  1  0  0  0  0
 48 50  2  0  0  0  0
 48 49  1  0  0  0  0
 49 47  1  0  0  0  0
 51 48  1  0  0  0  0
M  END
>  <MODEL>
6

>  <REMARK>
 VINA RESULT:      -3.6      3.123      7.100
  Name = 
  28 active torsions:
  status: ('A' for Active; 'I' for Inactive)
    1  A    between atoms: C_2  and  C_38
    2  A    between atoms: C_3  and  O_7
    3  A    between atoms: C_3  and  C_33
    4  A    between atoms: C_4  and  C_33
    5  A    between atoms: C_4  and  C_39
    6  A    between atoms: N_5  and  C_47
    7  A    between atoms: N_5  and  C_48
    8  A    between atoms: N_9  and  C_15
    9  A    between atoms: C_13  and  C_24
   10  A    between atoms: C_13  and  C_47
   11  A    between atoms: C_15  and  O_36
   12  A    between atoms: C_18  and  O_36
   13  A    between atoms: C_18  and  C_45
   14  A    between atoms: C_19  and  C_51
   15  A    between atoms: C_21  and  C_23
   16  A    between atoms: C_21  and  C_43
   17  A    between atoms: C_22  and  C_28
   18  A    between atoms: C_22  and  O_30
   19  A    between atoms: C_22  and  C_40
   20  A    between atoms: C_23  and  N_49
   21  A    between atoms: C_28  and  C_45
   22  A    between atoms: C_29  and  O_30
   23  A    between atoms: C_29  and  C_50
   24  A    between atoms: C_34  and  C_38
   25  A    between atoms: C_39  and  C_44
   26  A    between atoms: C_39  and  C_51
   27  A    between atoms: C_40  and  C_47
   28  A    between atoms: C_44  and  N_49
                            x       y       z     vdW  Elec       q    Type
                         _______ _______ _______ _____ _____    ______ ____

>  <TORSDO>
F 28

$$$$
=
 OpenBabel11072412363D

 51 53  0  0  1  0  0  0  0  0999 V2000
  160.3250  207.0470  149.3270 C   0  0  0  0  0  1  0  0  0  0  0  0
  161.7510  206.6430  148.9800 C   0  0  1  0  0  3  0  0  0  0  0  0
  160.6780  204.4460  148.2490 C   0  0  0  0  0  2  0  0  0  0  0  0
  161.7480  205.4970  147.9560 C   0  0  1  0  0  3  0  0  0  0  0  0
  161.7670  204.8560  144.4370 O   0  0  0  0  0  0  0  0  0  0  0  0
  162.0190  203.7910  145.3240 C   0  0  1  0  0  3  0  0  0  0  0  0
  162.5000  205.1830  145.5940 C   0  0  2  0  0  3  0  0  0  0  0  0
  160.7060  203.3670  145.9820 C   0  0  2  0  0  3  0  0  0  0  0  0
  160.9140  203.1440  147.4880 C   0  0  2  0  0  3  0  0  0  0  0  0
  161.6330  206.0190  146.5290 C   0  0  0  0  0  2  0  0  0  0  0  0
  160.2540  202.2060  145.3500 O   0  0  0  0  0  1  0  0  0  0  0  0
  159.9740  202.0750  148.0450 C   0  0  0  0  0  2  0  0  0  0  0  0
  160.7190  201.0860  148.9340 C   0  0  1  0  0  3  0  0  0  0  0  0
  161.7490  200.3430  148.1400 C   0  0  0  0  0  0  0  0  0  0  0  0
  162.9310  200.6550  148.2070 O   0  0  0  0  0  0  0  0  0  0  0  0
  161.3190  199.2310  147.2440 C   0  0  0  0  0  2  0  0  0  0  0  0
  161.5640  199.6000  145.7920 C   0  0  0  0  0  2  0  0  0  0  0  0
  161.9620  198.4640  145.0850 O   0  0  0  0  0  0  0  0  0  0  0  0
  160.8280  197.6500  145.0580 C   0  0  0  0  0  1  0  0  0  0  0  0
  161.3530  201.7990  150.1210 C   0  0  0  0  0  2  0  0  0  0  0  0
  160.3160  202.3510  150.9770 N   0  0  0  0  0  2  0  0  0  0  0  0
  160.9880  203.0030  152.0850 C   0  0  0  0  0  2  0  0  0  0  0  0
  160.8740  204.5040  151.9210 C   0  0  0  0  0  2  0  0  0  0  0  0
  162.1390  206.5710  152.3640 C   0  0  0  0  0  2  0  0  0  0  0  0
  161.0990  206.4220  153.4550 C   0  0  0  0  0  2  0  0  0  0  0  0
  161.7980  205.1940  152.9010 C   0  0  0  0  0  3  0  0  0  0  0  0
  162.0320  209.0260  148.5790 C   0  0  0  0  0  0  0  0  0  0  0  0
  164.0820  207.7790  148.4910 C   0  0  0  0  0  1  0  0  0  0  0  0
  162.5990  207.8510  148.6490 C   0  0  0  0  0  0  0  0  0  0  0  0
  161.4580  210.1940  148.5050 C   0  0  0  0  0  3  0  0  0  0  0  0
  162.1240  211.4080  149.0540 C   0  0  0  0  0  2  0  0  0  0  0  0
  162.4300  212.2980  148.0230 O   0  0  0  0  0  0  0  0  0  0  0  0
  161.2890  213.0930  147.8910 C   0  0  2  0  0  3  0  0  0  0  0  0
  161.5180  214.1400  146.8050 C   0  0  0  0  0  2  0  0  0  0  0  0
  160.5800  213.9710  145.6010 C   0  0  1  0  0  3  0  0  0  0  0  0
  161.3550  213.7830  144.3000 C   0  0  0  0  0  2  0  0  0  0  0  0
  160.8770  212.5820  143.5510 C   0  0  0  0  0  3  0  0  0  0  0  0
  161.6220  211.9860  142.7920 O   0  0  0  0  0  0  0  0  0  0  0  0
  159.6730  212.8480  145.7930 N   0  0  0  0  0  2  0  0  0  0  0  0
  157.3790  212.3490  146.3820 C   0  0  0  0  0  1  0  0  0  0  0  0
  158.3180  213.3750  145.7900 C   0  0  0  0  0  2  0  0  0  0  0  0
  160.9760  213.7760  149.2190 C   0  0  0  0  0  2  0  0  0  0  0  0
  159.4750  213.9600  149.4120 C   0  0  0  0  0  2  0  0  0  0  0  0
  159.8800  213.1280  151.6050 O   0  0  0  0  0  0  0  0  0  0  0  0
  159.0190  213.4330  150.7340 C   0  0  0  0  0  0  0  0  0  0  0  0
  157.6540  213.3100  151.0010 O   0  0  0  0  0  0  0  0  0  0  0  0
  156.8470  214.4260  151.3420 C   0  0  0  0  0  2  0  0  0  0  0  0
  156.7180  214.1580  153.8430 C   0  0  0  0  0  0  0  0  0  0  0  0
  156.1030  214.1320  152.5550 N   0  0  0  0  0  2  0  0  0  0  0  0
  157.9340  214.4530  153.9680 O   0  0  0  0  0  0  0  0  0  0  0  0
  155.9560  213.8280  154.9950 N   0  0  0  0  0  1  0  0  0  0  0  0
  2  1  1  6  0  0  0
  4  3  1  0  0  0  0
  4  2  1  1  0  0  0
  5  7  1  0  0  0  0
  6  5  1  6  0  0  0
  6  7  1  0  0  0  0
  6  8  1  0  0  0  0
  7 10  1  1  0  0  0
  8 11  1  6  0  0  0
  8  9  1  0  0  0  0
  9 12  1  1  0  0  0
  9  3  1  0  0  0  0
 10  4  1  0  0  0  0
 13 12  1  6  0  0  0
 13 20  1  0  0  0  0
 14 15  2  0  0  0  0
 14 13  1  0  0  0  0
 16 14  1  0  0  0  0
 17 16  1  0  0  0  0
 18 17  1  0  0  0  0
 19 18  1  0  0  0  0
 20 21  1  0  0  0  0
 21 22  1  0  0  0  0
 23 22  1  0  0  0  0
 23 26  1  0  0  0  0
 24 26  1  0  0  0  0
 24 25  1  0  0  0  0
 26 25  1  0  0  0  0
 27 29  2  0  0  0  0
 28 29  1  0  0  0  0
 29  2  1  0  0  0  0
 30 27  2  0  0  0  0
 30 31  1  0  0  0  0
 32 31  1  0  0  0  0
 33 34  1  6  0  0  0
 33 32  1  0  0  0  0
 33 42  1  0  0  0  0
 35 36  1  6  0  0  0
 35 39  1  0  0  0  0
 35 34  1  0  0  0  0
 37 36  1  0  0  0  0
 38 37  2  0  0  0  0
 41 39  1  0  0  0  0
 41 40  1  0  0  0  0
 42 43  1  0  0  0  0
 43 45  1  0  0  0  0
 45 46  1  0  0  0  0
 45 44  2  0  0  0  0
 46 47  1  0  0  0  0
 47 49  1  0  0  0  0
 48 50  2  0  0  0  0
 48 51  1  0  0  0  0
 49 48  1  0  0  0  0
M  END
>  <MODEL>
7

>  <REMARK>
 VINA RESULT:      -3.5      2.272      4.259
  Name = 
  28 active torsions:
  status: ('A' for Active; 'I' for Inactive)
    1  A    between atoms: C_2  and  C_38
    2  A    between atoms: C_3  and  O_7
    3  A    between atoms: C_3  and  C_33
    4  A    between atoms: C_4  and  C_33
    5  A    between atoms: C_4  and  C_39
    6  A    between atoms: N_5  and  C_47
    7  A    between atoms: N_5  and  C_48
    8  A    between atoms: N_9  and  C_15
    9  A    between atoms: C_13  and  C_24
   10  A    between atoms: C_13  and  C_47
   11  A    between atoms: C_15  and  O_36
   12  A    between atoms: C_18  and  O_36
   13  A    between atoms: C_18  and  C_45
   14  A    between atoms: C_19  and  C_51
   15  A    between atoms: C_21  and  C_23
   16  A    between atoms: C_21  and  C_43
   17  A    between atoms: C_22  and  C_28
   18  A    between atoms: C_22  and  O_30
   19  A    between atoms: C_22  and  C_40
   20  A    between atoms: C_23  and  N_49
   21  A    between atoms: C_28  and  C_45
   22  A    between atoms: C_29  and  O_30
   23  A    between atoms: C_29  and  C_50
   24  A    between atoms: C_34  and  C_38
   25  A    between atoms: C_39  and  C_44
   26  A    between atoms: C_39  and  C_51
   27  A    between atoms: C_40  and  C_47
   28  A    between atoms: C_44  and  N_49
                            x       y       z     vdW  Elec       q    Type
                         _______ _______ _______ _____ _____    ______ ____

>  <TORSDO>
F 28

$$$$
=
 OpenBabel11072412363D

 51 53  0  0  1  0  0  0  0  0999 V2000
  161.7330  209.0110  147.9560 C   0  0  0  0  0  1  0  0  0  0  0  0
  160.9550  207.7430  148.2800 C   0  0  1  0  0  3  0  0  0  0  0  0
  161.2150  205.2190  147.9980 C   0  0  0  0  0  2  0  0  0  0  0  0
  161.3950  206.5950  147.3570 C   0  0  1  0  0  3  0  0  0  0  0  0
  161.0350  205.3620  144.0180 O   0  0  0  0  0  0  0  0  0  0  0  0
  162.0340  204.8100  144.8440 C   0  0  1  0  0  3  0  0  0  0  0  0
  161.6710  206.2620  144.8960 C   0  0  2  0  0  3  0  0  0  0  0  0
  161.3780  203.8900  145.8740 C   0  0  2  0  0  3  0  0  0  0  0  0
  161.9890  204.1270  147.2640 C   0  0  2  0  0  3  0  0  0  0  0  0
  160.7020  206.6680  146.0010 C   0  0  0  0  0  2  0  0  0  0  0  0
  161.5540  202.5680  145.4560 O   0  0  0  0  0  1  0  0  0  0  0  0
  161.9780  202.8610  148.1200 C   0  0  0  0  0  2  0  0  0  0  0  0
  160.5610  202.3420  148.3300 C   0  0  1  0  0  3  0  0  0  0  0  0
  160.3700  201.0400  147.6120 C   0  0  0  0  0  0  0  0  0  0  0  0
  159.3080  200.7840  147.0580 O   0  0  0  0  0  0  0  0  0  0  0  0
  161.4790  200.0430  147.6000 C   0  0  0  0  0  2  0  0  0  0  0  0
  161.7180  199.5390  146.1870 C   0  0  0  0  0  2  0  0  0  0  0  0
  161.0250  198.3420  146.0000 O   0  0  0  0  0  0  0  0  0  0  0  0
  161.2120  198.0330  144.6510 C   0  0  0  0  0  1  0  0  0  0  0  0
  160.2530  202.1970  149.8140 C   0  0  0  0  0  2  0  0  0  0  0  0
  161.2400  201.3330  150.4400 N   0  0  0  0  0  2  0  0  0  0  0  0
  161.6370  201.9760  151.6790 C   0  0  0  0  0  2  0  0  0  0  0  0
  161.4170  203.4680  151.5560 C   0  0  0  0  0  2  0  0  0  0  0  0
  162.3360  205.3940  152.7870 C   0  0  0  0  0  2  0  0  0  0  0  0
  160.8260  205.4560  152.8910 C   0  0  0  0  0  2  0  0  0  0  0  0
  161.5330  204.1140  152.9200 C   0  0  0  0  0  3  0  0  0  0  0  0
  161.6330  208.2460  150.5610 C   0  0  0  0  0  0  0  0  0  0  0  0
  160.1390  206.3760  150.3840 C   0  0  0  0  0  1  0  0  0  0  0  0
  160.9570  207.4610  149.7660 C   0  0  0  0  0  0  0  0  0  0  0  0
  162.3160  209.0310  151.3470 C   0  0  0  0  0  3  0  0  0  0  0  0
  161.7730  209.4450  152.6710 C   0  0  0  0  0  2  0  0  0  0  0  0
  161.6620  210.8360  152.7330 O   0  0  0  0  0  0  0  0  0  0  0  0
  160.4250  211.0650  153.3400 C   0  0  2  0  0  3  0  0  0  0  0  0
  160.1370  209.9560  154.3490 C   0  0  0  0  0  2  0  0  0  0  0  0
  160.6420  210.2840  155.7610 C   0  0  1  0  0  3  0  0  0  0  0  0
  159.5340  210.8490  156.6440 C   0  0  0  0  0  2  0  0  0  0  0  0
  159.6410  212.3350  156.7650 C   0  0  0  0  0  3  0  0  0  0  0  0
  160.3650  212.9690  156.0160 O   0  0  0  0  0  0  0  0  0  0  0  0
  161.2230  209.1110  156.4000 N   0  0  0  0  0  2  0  0  0  0  0  0
  162.9500  210.8060  156.3460 C   0  0  0  0  0  1  0  0  0  0  0  0
  162.4920  209.5130  156.9830 C   0  0  0  0  0  2  0  0  0  0  0  0
  159.3260  211.1070  152.2820 C   0  0  0  0  0  2  0  0  0  0  0  0
  158.0430  211.7190  152.8330 C   0  0  0  0  0  2  0  0  0  0  0  0
  159.1460  213.8230  152.6860 O   0  0  0  0  0  0  0  0  0  0  0  0
  158.2410  213.1420  153.2420 C   0  0  0  0  0  0  0  0  0  0  0  0
  157.4110  213.7090  154.2120 O   0  0  0  0  0  0  0  0  0  0  0  0
  155.9960  213.6540  154.1210 C   0  0  0  0  0  2  0  0  0  0  0  0
  155.6320  212.0200  156.0010 C   0  0  0  0  0  0  0  0  0  0  0  0
  155.4410  213.3080  155.4180 N   0  0  0  0  0  2  0  0  0  0  0  0
  156.3070  211.1400  155.4080 O   0  0  0  0  0  0  0  0  0  0  0  0
  155.0380  211.7170  157.2560 N   0  0  0  0  0  1  0  0  0  0  0  0
  2  1  1  1  0  0  0
  2 29  1  0  0  0  0
  4  3  1  0  0  0  0
  4  2  1  1  0  0  0
  5  7  1  0  0  0  0
  6  5  1  6  0  0  0
  6  7  1  0  0  0  0
  6  8  1  0  0  0  0
  7 10  1  1  0  0  0
  8 11  1  6  0  0  0
  8  9  1  0  0  0  0
  9  3  1  0  0  0  0
  9 12  1  1  0  0  0
 10  4  1  0  0  0  0
 13 12  1  1  0  0  0
 13 20  1  0  0  0  0
 14 13  1  0  0  0  0
 15 14  2  0  0  0  0
 16 14  1  0  0  0  0
 17 16  1  0  0  0  0
 18 17  1  0  0  0  0
 19 18  1  0  0  0  0
 20 21  1  0  0  0  0
 21 22  1  0  0  0  0
 23 22  1  0  0  0  0
 23 26  1  0  0  0  0
 24 25  1  0  0  0  0
 24 26  1  0  0  0  0
 25 26  1  0  0  0  0
 27 30  2  0  0  0  0
 29 28  1  0  0  0  0
 29 27  2  0  0  0  0
 30 31  1  0  0  0  0
 31 32  1  0  0  0  0
 32 33  1  0  0  0  0
 33 42  1  6  0  0  0
 33 34  1  0  0  0  0
 35 34  1  6  0  0  0
 35 39  1  0  0  0  0
 35 36  1  0  0  0  0
 36 37  1  0  0  0  0
 38 37  2  0  0  0  0
 39 41  1  0  0  0  0
 40 41  1  0  0  0  0
 42 43  1  0  0  0  0
 43 45  1  0  0  0  0
 44 45  2  0  0  0  0
 45 46  1  0  0  0  0
 47 46  1  0  0  0  0
 47 49  1  0  0  0  0
 48 51  1  0  0  0  0
 49 48  1  0  0  0  0
 50 48  2  0  0  0  0
M  END
>  <MODEL>
8

>  <REMARK>
 VINA RESULT:      -3.3      4.110      6.895
  Name = 
  28 active torsions:
  status: ('A' for Active; 'I' for Inactive)
    1  A    between atoms: C_2  and  C_38
    2  A    between atoms: C_3  and  O_7
    3  A    between atoms: C_3  and  C_33
    4  A    between atoms: C_4  and  C_33
    5  A    between atoms: C_4  and  C_39
    6  A    between atoms: N_5  and  C_47
    7  A    between atoms: N_5  and  C_48
    8  A    between atoms: N_9  and  C_15
    9  A    between atoms: C_13  and  C_24
   10  A    between atoms: C_13  and  C_47
   11  A    between atoms: C_15  and  O_36
   12  A    between atoms: C_18  and  O_36
   13  A    between atoms: C_18  and  C_45
   14  A    between atoms: C_19  and  C_51
   15  A    between atoms: C_21  and  C_23
   16  A    between atoms: C_21  and  C_43
   17  A    between atoms: C_22  and  C_28
   18  A    between atoms: C_22  and  O_30
   19  A    between atoms: C_22  and  C_40
   20  A    between atoms: C_23  and  N_49
   21  A    between atoms: C_28  and  C_45
   22  A    between atoms: C_29  and  O_30
   23  A    between atoms: C_29  and  C_50
   24  A    between atoms: C_34  and  C_38
   25  A    between atoms: C_39  and  C_44
   26  A    between atoms: C_39  and  C_51
   27  A    between atoms: C_40  and  C_47
   28  A    between atoms: C_44  and  N_49
                            x       y       z     vdW  Elec       q    Type
                         _______ _______ _______ _____ _____    ______ ____

>  <TORSDO>
F 28

$$$$
=
 OpenBabel11072412363D

 51 53  0  0  1  0  0  0  0  0999 V2000
  160.2530  206.9670  148.4340 C   0  0  0  0  0  1  0  0  0  0  0  0
  160.6690  208.2020  149.2230 C   0  0  1  0  0  3  0  0  0  0  0  0
  161.2280  206.5000  151.0410 C   0  0  0  0  0  2  0  0  0  0  0  0
  160.6840  207.8940  150.7290 C   0  0  1  0  0  3  0  0  0  0  0  0
  161.6810  209.2610  153.8800 O   0  0  0  0  0  0  0  0  0  0  0  0
  160.8380  208.1320  153.8640 C   0  0  1  0  0  3  0  0  0  0  0  0
  160.7270  209.2230  152.8440 C   0  0  2  0  0  3  0  0  0  0  0  0
  161.6600  206.9010  153.4810 C   0  0  2  0  0  3  0  0  0  0  0  0
  160.8940  206.0470  152.4590 C   0  0  2  0  0  3  0  0  0  0  0  0
  161.4280  208.9670  151.5140 C   0  0  0  0  0  2  0  0  0  0  0  0
  161.9370  206.1810  154.6460 O   0  0  0  0  0  1  0  0  0  0  0  0
  161.2270  204.5610  152.5890 C   0  0  0  0  0  2  0  0  0  0  0  0
  161.5340  203.9380  151.2330 C   0  0  1  0  0  3  0  0  0  0  0  0
  161.3190  202.4560  151.2780 C   0  0  0  0  0  0  0  0  0  0  0  0
  162.2330  201.7030  151.5910 O   0  0  0  0  0  0  0  0  0  0  0  0
  159.9850  201.8990  150.9120 C   0  0  0  0  0  2  0  0  0  0  0  0
  160.0640  201.1720  149.5810 C   0  0  0  0  0  2  0  0  0  0  0  0
  161.3280  200.5970  149.4410 O   0  0  0  0  0  0  0  0  0  0  0  0
  161.4940  200.4380  148.0640 C   0  0  0  0  0  1  0  0  0  0  0  0
  160.6900  204.5780  150.1400 C   0  0  0  0  0  2  0  0  0  0  0  0
  160.9660  203.9390  148.8640 N   0  0  0  0  0  2  0  0  0  0  0  0
  162.2250  204.4790  148.3870 C   0  0  0  0  0  2  0  0  0  0  0  0
  162.2600  204.3940  146.8750 C   0  0  0  0  0  2  0  0  0  0  0  0
  160.7740  204.3600  144.9110 C   0  0  0  0  0  2  0  0  0  0  0  0
  161.1320  202.9270  145.2450 C   0  0  0  0  0  2  0  0  0  0  0  0
  160.9140  203.9340  146.3600 C   0  0  0  0  0  3  0  0  0  0  0  0
  161.8970  210.0950  148.3150 C   0  0  0  0  0  0  0  0  0  0  0  0
  163.2070  208.0930  148.5130 C   0  0  0  0  0  1  0  0  0  0  0  0
  161.9160  208.8300  148.6430 C   0  0  0  0  0  0  0  0  0  0  0  0
  161.8690  211.3560  147.9850 C   0  0  0  0  0  3  0  0  0  0  0  0
  163.0330  212.2430  148.2600 C   0  0  0  0  0  2  0  0  0  0  0  0
  162.5930  213.5260  148.5960 O   0  0  0  0  0  0  0  0  0  0  0  0
  161.2440  213.5430  148.2330 C   0  0  2  0  0  3  0  0  0  0  0  0
  161.0530  214.4430  147.0160 C   0  0  0  0  0  2  0  0  0  0  0  0
  160.5710  213.6790  145.7740 C   0  0  1  0  0  3  0  0  0  0  0  0
  159.0800  213.8820  145.5270 C   0  0  0  0  0  2  0  0  0  0  0  0
  158.2920  213.7120  146.7850 C   0  0  0  0  0  3  0  0  0  0  0  0
  157.8720  212.6140  147.1120 O   0  0  0  0  0  0  0  0  0  0  0  0
  161.3190  214.0730  144.5880 N   0  0  0  0  0  2  0  0  0  0  0  0
  161.0070  212.2450  143.0340 C   0  0  0  0  0  1  0  0  0  0  0  0
  161.9380  212.8760  144.0440 C   0  0  0  0  0  2  0  0  0  0  0  0
  160.3990  214.0520  149.3970 C   0  0  0  0  0  2  0  0  0  0  0  0
  160.4760  213.1120  150.5960 C   0  0  0  0  0  2  0  0  0  0  0  0
  158.0990  213.1090  150.4760 O   0  0  0  0  0  0  0  0  0  0  0  0
  159.1220  212.8180  151.1550 C   0  0  0  0  0  0  0  0  0  0  0  0
  159.0030  212.2050  152.4040 O   0  0  0  0  0  0  0  0  0  0  0  0
  158.9150  212.9530  153.6070 C   0  0  0  0  0  2  0  0  0  0  0  0
  159.2890  211.3900  155.5460 C   0  0  0  0  0  0  0  0  0  0  0  0
  159.7750  212.3550  154.6130 N   0  0  0  0  0  2  0  0  0  0  0  0
  158.0890  211.0160  155.5150 O   0  0  0  0  0  0  0  0  0  0  0  0
  160.1610  210.8610  156.5340 N   0  0  0  0  0  1  0  0  0  0  0  0
  2  1  1  6  0  0  0
  3  9  1  0  0  0  0
  4  2  1  6  0  0  0
  4  3  1  0  0  0  0
  4 10  1  0  0  0  0
  6  5  1  1  0  0  0
  7 10  1  6  0  0  0
  7  6  1  0  0  0  0
  7  5  1  0  0  0  0
  8  6  1  0  0  0  0
  8 11  1  1  0  0  0
  9 12  1  6  0  0  0
  9  8  1  0  0  0  0
 13 20  1  6  0  0  0
 13 14  1  0  0  0  0
 13 12  1  0  0  0  0
 14 15  2  0  0  0  0
 16 14  1  0  0  0  0
 17 16  1  0  0  0  0
 18 17  1  0  0  0  0
 19 18  1  0  0  0  0
 21 20  1  0  0  0  0
 22 21  1  0  0  0  0
 23 22  1  0  0  0  0
 24 25  1  0  0  0  0
 24 26  1  0  0  0  0
 25 26  1  0  0  0  0
 26 23  1  0  0  0  0
 27 29  2  0  0  0  0
 28 29  1  0  0  0  0
 29  2  1  0  0  0  0
 30 31  1  0  0  0  0
 30 27  2  0  0  0  0
 31 32  1  0  0  0  0
 33 34  1  6  0  0  0
 33 32  1  0  0  0  0
 33 42  1  0  0  0  0
 35 36  1  6  0  0  0
 35 34  1  0  0  0  0
 36 37  1  0  0  0  0
 37 38  2  0  0  0  0
 39 35  1  0  0  0  0
 40 41  1  0  0  0  0
 41 39  1  0  0  0  0
 42 43  1  0  0  0  0
 43 45  1  0  0  0  0
 44 45  2  0  0  0  0
 45 46  1  0  0  0  0
 46 47  1  0  0  0  0
 47 49  1  0  0  0  0
 48 51  1  0  0  0  0
 49 48  1  0  0  0  0
 50 48  2  0  0  0  0
M  END
>  <MODEL>
9

>  <REMARK>
 VINA RESULT:      -3.1      1.683      2.548
  Name = 
  28 active torsions:
  status: ('A' for Active; 'I' for Inactive)
    1  A    between atoms: C_2  and  C_38
    2  A    between atoms: C_3  and  O_7
    3  A    between atoms: C_3  and  C_33
    4  A    between atoms: C_4  and  C_33
    5  A    between atoms: C_4  and  C_39
    6  A    between atoms: N_5  and  C_47
    7  A    between atoms: N_5  and  C_48
    8  A    between atoms: N_9  and  C_15
    9  A    between atoms: C_13  and  C_24
   10  A    between atoms: C_13  and  C_47
   11  A    between atoms: C_15  and  O_36
   12  A    between atoms: C_18  and  O_36
   13  A    between atoms: C_18  and  C_45
   14  A    between atoms: C_19  and  C_51
   15  A    between atoms: C_21  and  C_23
   16  A    between atoms: C_21  and  C_43
   17  A    between atoms: C_22  and  C_28
   18  A    between atoms: C_22  and  O_30
   19  A    between atoms: C_22  and  C_40
   20  A    between atoms: C_23  and  N_49
   21  A    between atoms: C_28  and  C_45
   22  A    between atoms: C_29  and  O_30
   23  A    between atoms: C_29  and  C_50
   24  A    between atoms: C_34  and  C_38
   25  A    between atoms: C_39  and  C_44
   26  A    between atoms: C_39  and  C_51
   27  A    between atoms: C_40  and  C_47
   28  A    between atoms: C_44  and  N_49
                            x       y       z     vdW  Elec       q    Type
                         _______ _______ _______ _____ _____    ______ ____

>  <TORSDO>
F 28

$$$$
