=
 OpenBabel11072414253D

 26 27  0  0  1  0  0  0  0  0999 V2000
  161.5160  208.1010  152.3580 C   0  0  0  0  0  2  0  0  0  0  0  0
  160.8190  210.4000  151.7660 C   0  0  0  0  0  1  0  0  0  0  0  0
  161.3350  209.5160  152.8890 C   0  0  2  0  0  0  0  0  0  0  0  0
  162.5710  209.9970  153.3370 O   0  0  0  0  0  1  0  0  0  0  0  0
  160.3600  209.4670  153.9880 N   0  0  0  0  0  2  0  0  0  0  0  0
  161.8640  209.0040  155.9790 C   0  0  2  0  0  3  0  0  0  0  0  0
  162.7340  209.7130  156.8090 O   0  0  0  0  0  1  0  0  0  0  0  0
  160.8970  209.9450  155.2720 C   0  0  2  0  0  0  0  0  0  0  0  0
  160.4370  209.1570  156.4950 C   0  0  1  0  0  3  0  0  0  0  0  0
  159.6490  207.8990  156.1550 C   0  0  0  0  0  2  0  0  0  0  0  0
  160.1750  206.8160  156.8560 O   0  0  0  0  0  1  0  0  0  0  0  0
  159.9460  212.0960  154.8270 O   0  0  0  0  0  1  0  0  0  0  0  0
  160.9750  211.4510  155.5120 C   0  0  0  0  0  2  0  0  0  0  0  0
  162.3540  208.0900  151.2260 O   0  0  0  0  0  0  0  0  0  0  0  0
  161.3850  207.3640  149.0870 C   0  0  2  0  0  3  0  0  0  0  0  0
  161.0950  205.9860  151.0590 C   0  0  2  0  0  3  0  0  0  0  0  0
  160.2940  205.4420  149.9020 C   0  0  0  0  0  2  0  0  0  0  0  0
  162.0310  206.9810  150.4080 C   0  0  2  0  0  3  0  0  0  0  0  0
  160.2640  206.4540  148.8500 N   0  0  0  0  0  2  0  0  0  0  0  0
  162.4010  207.2430  147.9660 C   0  0  0  0  0  2  0  0  0  0  0  0
  161.8370  206.5690  146.8830 O   0  0  0  0  0  0  0  0  0  0  0  0
  162.6570  205.4570  146.6980 C   0  0  0  0  0  1  0  0  0  0  0  0
  161.8470  204.9110  151.6880 N   0  0  0  0  0  2  0  0  0  0  0  0
  160.9220  203.8230  151.9750 C   0  0  0  0  0  2  0  0  0  0  0  0
  161.5440  202.4850  151.6100 C   0  0  0  0  0  2  0  0  0  0  0  0
  160.8630  201.8980  150.3880 C   0  0  0  0  0  1  0  0  0  0  0  0
  1  3  1  0  0  0  0
  3  2  1  6  0  0  0
  3  4  1  0  0  0  0
  3  5  1  0  0  0  0
  5  8  1  0  0  0  0
  6  9  1  0  0  0  0
  6  7  1  1  0  0  0
  8 13  1  1  0  0  0
  8  6  1  0  0  0  0
  8  9  1  0  0  0  0
  9 10  1  6  0  0  0
 10 11  1  0  0  0  0
 12 13  1  0  0  0  0
 14  1  1  0  0  0  0
 15 20  1  6  0  0  0
 15 18  1  0  0  0  0
 16 23  1  6  0  0  0
 17 16  1  0  0  0  0
 18 16  1  0  0  0  0
 18 14  1  1  0  0  0
 19 15  1  0  0  0  0
 19 17  1  0  0  0  0
 21 20  1  0  0  0  0
 22 21  1  0  0  0  0
 23 24  1  0  0  0  0
 25 24  1  0  0  0  0
 26 25  1  0  0  0  0
M  END
>  <MODEL>
1

>  <REMARK>
 VINA RESULT:      -5.3      0.000      0.000
  Name = 
  12 active torsions:
  status: ('A' for Active; 'I' for Inactive)
    1  A    between atoms: C_1  and  C_17
    2  A    between atoms: C_1  and  N_23
    3  A    between atoms: C_2  and  C_20
    4  A    between atoms: C_4  and  N_23
    5  A    between atoms: O_7  and  C_20
    6  A    between atoms: C_9  and  C_10
    7  A    between atoms: C_9  and  O_21
    8  A    between atoms: C_10  and  N_12
    9  A    between atoms: C_11  and  C_15
   10  A    between atoms: N_12  and  C_14
   11  A    between atoms: C_14  and  C_18
   12  A    between atoms: O_21  and  C_24
                            x       y       z     vdW  Elec       q    Type
                         _______ _______ _______ _____ _____    ______ ____

>  <TORSDO>
F 12

$$$$
=
 OpenBabel11072414253D

 26 27  0  0  1  0  0  0  0  0999 V2000
  160.3210  206.0460  148.8920 C   0  0  0  0  0  2  0  0  0  0  0  0
  162.3480  206.9000  147.7590 C   0  0  0  0  0  1  0  0  0  0  0  0
  161.0730  206.0940  147.5690 C   0  0  2  0  0  0  0  0  0  0  0  0
  160.2650  206.7100  146.6070 O   0  0  0  0  0  1  0  0  0  0  0  0
  161.3960  204.7130  147.1820 N   0  0  0  0  0  2  0  0  0  0  0  0
  160.7780  204.6250  144.7220 C   0  0  2  0  0  3  0  0  0  0  0  0
  161.2900  205.0800  143.5060 O   0  0  0  0  0  1  0  0  0  0  0  0
  161.8620  204.5870  145.7910 C   0  0  2  0  0  0  0  0  0  0  0  0
  161.4400  203.3020  145.0860 C   0  0  1  0  0  3  0  0  0  0  0  0
  160.4570  202.4570  145.8840 C   0  0  0  0  0  2  0  0  0  0  0  0
  159.8620  201.5160  145.0450 O   0  0  0  0  0  1  0  0  0  0  0  0
  164.1840  204.4430  146.3520 O   0  0  0  0  0  1  0  0  0  0  0  0
  163.2860  205.0270  145.4590 C   0  0  0  0  0  2  0  0  0  0  0  0
  160.7840  207.0440  149.7720 O   0  0  0  0  0  0  0  0  0  0  0  0
  161.6630  207.3760  152.0440 C   0  0  2  0  0  3  0  0  0  0  0  0
  161.4060  205.1270  151.1780 C   0  0  2  0  0  3  0  0  0  0  0  0
  162.1030  205.1110  152.5160 C   0  0  0  0  0  2  0  0  0  0  0  0
  160.8390  206.5280  151.0890 C   0  0  2  0  0  3  0  0  0  0  0  0
  162.4950  206.4780  152.8440 N   0  0  0  0  0  2  0  0  0  0  0  0
  160.7390  208.1750  152.9440 C   0  0  0  0  0  2  0  0  0  0  0  0
  160.5150  209.4380  152.3950 O   0  0  0  0  0  0  0  0  0  0  0  0
  161.7840  209.8980  152.0480 C   0  0  0  0  0  1  0  0  0  0  0  0
  160.3360  204.1400  151.1670 N   0  0  0  0  0  2  0  0  0  0  0  0
  160.9320  202.8330  150.9270 C   0  0  0  0  0  2  0  0  0  0  0  0
  160.7350  202.4150  149.4790 C   0  0  0  0  0  2  0  0  0  0  0  0
  160.9740  200.9260  149.3180 C   0  0  0  0  0  1  0  0  0  0  0  0
  1 14  1  0  0  0  0
  3  2  1  1  0  0  0
  3  1  1  0  0  0  0
  4  3  1  0  0  0  0
  5  3  1  0  0  0  0
  6  7  1  6  0  0  0
  6  9  1  0  0  0  0
  6  8  1  0  0  0  0
  8 13  1  6  0  0  0
  8  5  1  0  0  0  0
  9  8  1  0  0  0  0
  9 10  1  1  0  0  0
 11 10  1  0  0  0  0
 13 12  1  0  0  0  0
 15 19  1  0  0  0  0
 15 20  1  1  0  0  0
 16 23  1  1  0  0  0
 16 17  1  0  0  0  0
 17 19  1  0  0  0  0
 18 14  1  6  0  0  0
 18 16  1  0  0  0  0
 18 15  1  0  0  0  0
 21 20  1  0  0  0  0
 22 21  1  0  0  0  0
 24 23  1  0  0  0  0
 25 24  1  0  0  0  0
 26 25  1  0  0  0  0
M  END
>  <MODEL>
2

>  <REMARK>
 VINA RESULT:      -5.1      2.628      7.920
  Name = 
  12 active torsions:
  status: ('A' for Active; 'I' for Inactive)
    1  A    between atoms: C_1  and  C_17
    2  A    between atoms: C_1  and  N_23
    3  A    between atoms: C_2  and  C_20
    4  A    between atoms: C_4  and  N_23
    5  A    between atoms: O_7  and  C_20
    6  A    between atoms: C_9  and  C_10
    7  A    between atoms: C_9  and  O_21
    8  A    between atoms: C_10  and  N_12
    9  A    between atoms: C_11  and  C_15
   10  A    between atoms: N_12  and  C_14
   11  A    between atoms: C_14  and  C_18
   12  A    between atoms: O_21  and  C_24
                            x       y       z     vdW  Elec       q    Type
                         _______ _______ _______ _____ _____    ______ ____

>  <TORSDO>
F 12

$$$$
=
 OpenBabel11072414253D

 26 27  0  0  1  0  0  0  0  0999 V2000
  160.6570  209.1050  152.0830 C   0  0  0  0  0  2  0  0  0  0  0  0
  160.2660  211.5110  152.5060 C   0  0  0  0  0  1  0  0  0  0  0  0
  160.8170  210.2260  153.1010 C   0  0  2  0  0  0  0  0  0  0  0  0
  162.1770  210.3860  153.3940 O   0  0  0  0  0  1  0  0  0  0  0  0
  160.0590  209.8560  154.3050 N   0  0  0  0  0  2  0  0  0  0  0  0
  161.8440  209.1540  155.9670 C   0  0  2  0  0  3  0  0  0  0  0  0
  162.8130  209.7610  156.7680 O   0  0  0  0  0  1  0  0  0  0  0  0
  160.7680  210.1530  155.5600 C   0  0  2  0  0  0  0  0  0  0  0  0
  160.5050  209.1690  156.6960 C   0  0  1  0  0  3  0  0  0  0  0  0
  159.6980  207.9480  156.2760 C   0  0  0  0  0  2  0  0  0  0  0  0
  160.2960  206.7960  156.7850 O   0  0  0  0  0  1  0  0  0  0  0  0
  159.5870  212.1860  156.0050 O   0  0  0  0  0  1  0  0  0  0  0  0
  160.8550  211.6060  156.0200 C   0  0  0  0  0  2  0  0  0  0  0  0
  161.3470  207.9480  152.4950 O   0  0  0  0  0  0  0  0  0  0  0  0
  161.2950  207.7950  150.0420 C   0  0  2  0  0  3  0  0  0  0  0  0
  160.8770  205.8130  151.3720 C   0  0  2  0  0  3  0  0  0  0  0  0
  160.6420  205.5360  149.9070 C   0  0  0  0  0  2  0  0  0  0  0  0
  161.6190  207.1320  151.3700 C   0  0  2  0  0  3  0  0  0  0  0  0
  160.6140  206.8130  149.1990 N   0  0  0  0  0  2  0  0  0  0  0  0
  162.5770  208.2570  149.3750 C   0  0  0  0  0  2  0  0  0  0  0  0
  162.2840  209.1710  148.3610 O   0  0  0  0  0  0  0  0  0  0  0  0
  162.1540  210.3930  149.0200 C   0  0  0  0  0  1  0  0  0  0  0  0
  161.7030  204.7620  151.9470 N   0  0  0  0  0  2  0  0  0  0  0  0
  160.8840  203.5630  152.0700 C   0  0  0  0  0  2  0  0  0  0  0  0
  161.5990  202.3650  151.4670 C   0  0  0  0  0  2  0  0  0  0  0  0
  160.7870  201.7790  150.3290 C   0  0  0  0  0  1  0  0  0  0  0  0
  1 14  1  0  0  0  0
  1  3  1  0  0  0  0
  3  2  1  6  0  0  0
  3  4  1  0  0  0  0
  3  5  1  0  0  0  0
  5  8  1  0  0  0  0
  6  9  1  0  0  0  0
  6  7  1  1  0  0  0
  8  6  1  0  0  0  0
  8 13  1  1  0  0  0
  8  9  1  0  0  0  0
  9 10  1  6  0  0  0
 10 11  1  0  0  0  0
 12 13  1  0  0  0  0
 15 20  1  6  0  0  0
 15 18  1  0  0  0  0
 16 23  1  6  0  0  0
 17 16  1  0  0  0  0
 18 16  1  0  0  0  0
 18 14  1  1  0  0  0
 19 17  1  0  0  0  0
 19 15  1  0  0  0  0
 21 22  1  0  0  0  0
 21 20  1  0  0  0  0
 23 24  1  0  0  0  0
 25 24  1  0  0  0  0
 26 25  1  0  0  0  0
M  END
>  <MODEL>
3

>  <REMARK>
 VINA RESULT:      -5.1      1.233      1.460
  Name = 
  12 active torsions:
  status: ('A' for Active; 'I' for Inactive)
    1  A    between atoms: C_1  and  C_17
    2  A    between atoms: C_1  and  N_23
    3  A    between atoms: C_2  and  C_20
    4  A    between atoms: C_4  and  N_23
    5  A    between atoms: O_7  and  C_20
    6  A    between atoms: C_9  and  C_10
    7  A    between atoms: C_9  and  O_21
    8  A    between atoms: C_10  and  N_12
    9  A    between atoms: C_11  and  C_15
   10  A    between atoms: N_12  and  C_14
   11  A    between atoms: C_14  and  C_18
   12  A    between atoms: O_21  and  C_24
                            x       y       z     vdW  Elec       q    Type
                         _______ _______ _______ _____ _____    ______ ____

>  <TORSDO>
F 12

$$$$
=
 OpenBabel11072414253D

 26 27  0  0  1  0  0  0  0  0999 V2000
  161.6990  208.6030  151.9780 C   0  0  0  0  0  2  0  0  0  0  0  0
  161.3140  206.3430  152.9070 C   0  0  0  0  0  1  0  0  0  0  0  0
  161.6920  207.1150  151.6540 C   0  0  2  0  0  0  0  0  0  0  0  0
  162.9700  206.7330  151.2330 O   0  0  0  0  0  1  0  0  0  0  0  0
  160.6970  206.8870  150.5960 N   0  0  0  0  0  2  0  0  0  0  0  0
  160.3780  206.1580  148.1860 C   0  0  2  0  0  3  0  0  0  0  0  0
  160.7580  206.5870  146.9130 O   0  0  0  0  0  1  0  0  0  0  0  0
  161.2880  206.7500  149.2550 C   0  0  2  0  0  0  0  0  0  0  0  0
  161.4940  205.3120  148.7880 C   0  0  1  0  0  3  0  0  0  0  0  0
  160.8830  204.2700  149.7150 C   0  0  0  0  0  2  0  0  0  0  0  0
  160.8810  203.0280  149.0840 O   0  0  0  0  0  1  0  0  0  0  0  0
  161.9280  208.9670  148.6220 O   0  0  0  0  0  1  0  0  0  0  0  0
  162.4270  207.6870  148.8630 C   0  0  0  0  0  2  0  0  0  0  0  0
  160.3980  209.0650  152.2550 O   0  0  0  0  0  0  0  0  0  0  0  0
  160.1910  209.5210  154.6620 C   0  0  2  0  0  3  0  0  0  0  0  0
  159.4730  211.1940  153.0620 C   0  0  2  0  0  3  0  0  0  0  0  0
  159.1150  211.6070  154.4680 C   0  0  0  0  0  2  0  0  0  0  0  0
  160.4520  210.0570  153.2640 C   0  0  2  0  0  3  0  0  0  0  0  0
  159.2930  210.4520  155.3440 N   0  0  0  0  0  2  0  0  0  0  0  0
  161.5020  209.4090  155.4180 C   0  0  0  0  0  2  0  0  0  0  0  0
  162.2970  210.5260  155.1600 O   0  0  0  0  0  0  0  0  0  0  0  0
  163.0000  210.7350  156.3450 C   0  0  0  0  0  1  0  0  0  0  0  0
  160.1130  212.3030  152.3700 N   0  0  0  0  0  2  0  0  0  0  0  0
  159.1640  213.4080  152.3170 C   0  0  0  0  0  2  0  0  0  0  0  0
  159.4550  214.3020  151.1240 C   0  0  0  0  0  2  0  0  0  0  0  0
  158.7890  213.7560  149.8750 C   0  0  0  0  0  1  0  0  0  0  0  0
  1 14  1  0  0  0  0
  3  1  1  0  0  0  0
  3  2  1  1  0  0  0
  4  3  1  0  0  0  0
  5  3  1  0  0  0  0
  6  7  1  6  0  0  0
  6  9  1  0  0  0  0
  6  8  1  0  0  0  0
  8 13  1  6  0  0  0
  8  5  1  0  0  0  0
  9  8  1  0  0  0  0
  9 10  1  1  0  0  0
 11 10  1  0  0  0  0
 12 13  1  0  0  0  0
 15 19  1  0  0  0  0
 15 20  1  1  0  0  0
 16 23  1  1  0  0  0
 16 18  1  0  0  0  0
 16 17  1  0  0  0  0
 17 19  1  0  0  0  0
 18 14  1  6  0  0  0
 18 15  1  0  0  0  0
 21 20  1  0  0  0  0
 21 22  1  0  0  0  0
 24 23  1  0  0  0  0
 25 24  1  0  0  0  0
 26 25  1  0  0  0  0
M  END
>  <MODEL>
4

>  <REMARK>
 VINA RESULT:      -5.0      2.287      7.679
  Name = 
  12 active torsions:
  status: ('A' for Active; 'I' for Inactive)
    1  A    between atoms: C_1  and  C_17
    2  A    between atoms: C_1  and  N_23
    3  A    between atoms: C_2  and  C_20
    4  A    between atoms: C_4  and  N_23
    5  A    between atoms: O_7  and  C_20
    6  A    between atoms: C_9  and  C_10
    7  A    between atoms: C_9  and  O_21
    8  A    between atoms: C_10  and  N_12
    9  A    between atoms: C_11  and  C_15
   10  A    between atoms: N_12  and  C_14
   11  A    between atoms: C_14  and  C_18
   12  A    between atoms: O_21  and  C_24
                            x       y       z     vdW  Elec       q    Type
                         _______ _______ _______ _____ _____    ______ ____

>  <TORSDO>
F 12

$$$$
=
 OpenBabel11072414253D

 26 27  0  0  1  0  0  0  0  0999 V2000
  161.4680  206.8640  153.9540 C   0  0  0  0  0  2  0  0  0  0  0  0
  161.7960  207.7620  156.2350 C   0  0  0  0  0  1  0  0  0  0  0  0
  160.9710  207.8870  154.9650 C   0  0  2  0  0  0  0  0  0  0  0  0
  159.6250  207.6300  155.2510 O   0  0  0  0  0  1  0  0  0  0  0  0
  161.1400  209.2230  154.3770 N   0  0  0  0  0  2  0  0  0  0  0  0
  159.2260  210.3690  155.5880 C   0  0  2  0  0  3  0  0  0  0  0  0
  159.0000  210.9940  156.8160 O   0  0  0  0  0  1  0  0  0  0  0  0
  160.7140  210.3150  155.2680 C   0  0  2  0  0  0  0  0  0  0  0  0
  159.8310  211.3720  154.6130 C   0  0  1  0  0  3  0  0  0  0  0  0
  159.3920  211.0170  153.1990 C   0  0  0  0  0  2  0  0  0  0  0  0
  158.3990  211.9010  152.7830 O   0  0  0  0  0  1  0  0  0  0  0  0
  163.0070  210.8630  155.6820 O   0  0  0  0  0  1  0  0  0  0  0  0
  161.7330  210.8930  156.2470 C   0  0  0  0  0  2  0  0  0  0  0  0
  160.5580  206.7240  152.8880 O   0  0  0  0  0  0  0  0  0  0  0  0
  161.1530  207.4740  150.6240 C   0  0  2  0  0  3  0  0  0  0  0  0
  160.8230  205.1120  151.0530 C   0  0  2  0  0  3  0  0  0  0  0  0
  161.0230  205.3670  149.5790 C   0  0  0  0  0  2  0  0  0  0  0  0
  161.2610  206.4070  151.7010 C   0  0  2  0  0  3  0  0  0  0  0  0
  160.9170  206.8050  149.3450 N   0  0  0  0  0  2  0  0  0  0  0  0
  162.4420  208.2730  150.5660 C   0  0  0  0  0  2  0  0  0  0  0  0
  162.3370  209.4030  151.3780 O   0  0  0  0  0  0  0  0  0  0  0  0
  161.9580  210.4240  150.5080 C   0  0  0  0  0  1  0  0  0  0  0  0
  161.6720  204.0110  151.4820 N   0  0  0  0  0  2  0  0  0  0  0  0
  160.8430  202.8180  151.5900 C   0  0  0  0  0  2  0  0  0  0  0  0
  161.2340  201.8010  150.5300 C   0  0  0  0  0  2  0  0  0  0  0  0
  160.1940  201.7550  149.4270 C   0  0  0  0  0  1  0  0  0  0  0  0
  1  3  1  0  0  0  0
  3  4  1  0  0  0  0
  3  2  1  1  0  0  0
  5  3  1  0  0  0  0
  5  8  1  0  0  0  0
  6  7  1  1  0  0  0
  8  6  1  0  0  0  0
  8 13  1  1  0  0  0
  9 10  1  6  0  0  0
  9  8  1  0  0  0  0
  9  6  1  0  0  0  0
 11 10  1  0  0  0  0
 12 13  1  0  0  0  0
 14  1  1  0  0  0  0
 15 20  1  6  0  0  0
 15 18  1  0  0  0  0
 16 23  1  1  0  0  0
 16 18  1  0  0  0  0
 17 16  1  0  0  0  0
 18 14  1  1  0  0  0
 19 17  1  0  0  0  0
 19 15  1  0  0  0  0
 20 21  1  0  0  0  0
 22 21  1  0  0  0  0
 23 24  1  0  0  0  0
 25 24  1  0  0  0  0
 26 25  1  0  0  0  0
M  END
>  <MODEL>
5

>  <REMARK>
 VINA RESULT:      -5.0      1.925      3.192
  Name = 
  12 active torsions:
  status: ('A' for Active; 'I' for Inactive)
    1  A    between atoms: C_1  and  C_17
    2  A    between atoms: C_1  and  N_23
    3  A    between atoms: C_2  and  C_20
    4  A    between atoms: C_4  and  N_23
    5  A    between atoms: O_7  and  C_20
    6  A    between atoms: C_9  and  C_10
    7  A    between atoms: C_9  and  O_21
    8  A    between atoms: C_10  and  N_12
    9  A    between atoms: C_11  and  C_15
   10  A    between atoms: N_12  and  C_14
   11  A    between atoms: C_14  and  C_18
   12  A    between atoms: O_21  and  C_24
                            x       y       z     vdW  Elec       q    Type
                         _______ _______ _______ _____ _____    ______ ____

>  <TORSDO>
F 12

$$$$
=
 OpenBabel11072414253D

 26 27  0  0  1  0  0  0  0  0999 V2000
  160.7360  208.7300  152.3020 C   0  0  0  0  0  2  0  0  0  0  0  0
  161.3490  206.4100  152.9040 C   0  0  0  0  0  1  0  0  0  0  0  0
  161.3380  207.4330  151.7800 C   0  0  2  0  0  0  0  0  0  0  0  0
  162.6480  207.6770  151.3520 O   0  0  0  0  0  1  0  0  0  0  0  0
  160.5000  206.9590  150.6690 N   0  0  0  0  0  2  0  0  0  0  0  0
  160.4590  206.2060  148.2460 C   0  0  2  0  0  3  0  0  0  0  0  0
  160.9230  206.6590  147.0100 O   0  0  0  0  0  1  0  0  0  0  0  0
  161.2210  206.8630  149.3890 C   0  0  2  0  0  0  0  0  0  0  0  0
  161.5730  205.4440  148.9550 C   0  0  1  0  0  3  0  0  0  0  0  0
  160.9550  204.3620  149.8310 C   0  0  0  0  0  2  0  0  0  0  0  0
  160.7460  203.2110  149.0720 O   0  0  0  0  0  1  0  0  0  0  0  0
  161.7570  209.0750  148.6500 O   0  0  0  0  0  1  0  0  0  0  0  0
  162.3210  207.8810  149.0960 C   0  0  0  0  0  2  0  0  0  0  0  0
  161.6730  209.4490  153.0690 O   0  0  0  0  0  0  0  0  0  0  0  0
  160.4290  211.2510  154.1860 C   0  0  2  0  0  3  0  0  0  0  0  0
  162.0210  209.9340  155.4530 C   0  0  2  0  0  3  0  0  0  0  0  0
  161.4900  211.0780  156.2810 C   0  0  0  0  0  2  0  0  0  0  0  0
  161.0700  209.8760  154.2770 C   0  0  2  0  0  3  0  0  0  0  0  0
  160.7820  211.9960  155.3940 N   0  0  0  0  0  2  0  0  0  0  0  0
  158.9220  211.1050  154.0830 C   0  0  0  0  0  2  0  0  0  0  0  0
  158.5170  211.2790  152.7590 O   0  0  0  0  0  0  0  0  0  0  0  0
  159.2100  212.4080  152.3270 C   0  0  0  0  0  1  0  0  0  0  0  0
  161.9610  208.6990  156.2210 N   0  0  0  0  0  2  0  0  0  0  0  0
  160.7900  208.7630  157.0850 C   0  0  0  0  0  2  0  0  0  0  0  0
  160.1830  207.3800  157.2610 C   0  0  0  0  0  2  0  0  0  0  0  0
  159.4280  206.9680  156.0120 C   0  0  0  0  0  1  0  0  0  0  0  0
  1 14  1  0  0  0  0
  3  1  1  0  0  0  0
  3  2  1  1  0  0  0
  4  3  1  0  0  0  0
  5  3  1  0  0  0  0
  6  7  1  6  0  0  0
  6  9  1  0  0  0  0
  6  8  1  0  0  0  0
  8 13  1  6  0  0  0
  8  5  1  0  0  0  0
  9  8  1  0  0  0  0
  9 10  1  1  0  0  0
 11 10  1  0  0  0  0
 12 13  1  0  0  0  0
 15 20  1  1  0  0  0
 15 18  1  0  0  0  0
 15 19  1  0  0  0  0
 16 23  1  1  0  0  0
 16 17  1  0  0  0  0
 18 14  1  6  0  0  0
 18 16  1  0  0  0  0
 19 17  1  0  0  0  0
 21 20  1  0  0  0  0
 22 21  1  0  0  0  0
 23 24  1  0  0  0  0
 24 25  1  0  0  0  0
 26 25  1  0  0  0  0
M  END
>  <MODEL>
6

>  <REMARK>
 VINA RESULT:      -5.0      2.051      6.966
  Name = 
  12 active torsions:
  status: ('A' for Active; 'I' for Inactive)
    1  A    between atoms: C_1  and  C_17
    2  A    between atoms: C_1  and  N_23
    3  A    between atoms: C_2  and  C_20
    4  A    between atoms: C_4  and  N_23
    5  A    between atoms: O_7  and  C_20
    6  A    between atoms: C_9  and  C_10
    7  A    between atoms: C_9  and  O_21
    8  A    between atoms: C_10  and  N_12
    9  A    between atoms: C_11  and  C_15
   10  A    between atoms: N_12  and  C_14
   11  A    between atoms: C_14  and  C_18
   12  A    between atoms: O_21  and  C_24
                            x       y       z     vdW  Elec       q    Type
                         _______ _______ _______ _____ _____    ______ ____

>  <TORSDO>
F 12

$$$$
=
 OpenBabel11072414253D

 26 27  0  0  1  0  0  0  0  0999 V2000
  160.5100  206.2560  149.2360 C   0  0  0  0  0  2  0  0  0  0  0  0
  162.4310  207.0180  147.8770 C   0  0  0  0  0  1  0  0  0  0  0  0
  161.2350  206.0810  147.9090 C   0  0  2  0  0  0  0  0  0  0  0  0
  160.3600  206.3990  146.8650 O   0  0  0  0  0  1  0  0  0  0  0  0
  161.6810  204.6830  147.8180 N   0  0  0  0  0  2  0  0  0  0  0  0
  160.3850  203.7810  145.8320 C   0  0  2  0  0  3  0  0  0  0  0  0
  160.4200  203.8760  144.4390 O   0  0  0  0  0  1  0  0  0  0  0  0
  161.7260  204.1710  146.4390 C   0  0  2  0  0  0  0  0  0  0  0  0
  161.3560  202.6980  146.2890 C   0  0  1  0  0  3  0  0  0  0  0  0
  160.8260  202.0640  147.5670 C   0  0  0  0  0  2  0  0  0  0  0  0
  161.3370  200.7730  147.6930 O   0  0  0  0  0  1  0  0  0  0  0  0
  164.0880  204.4980  146.2310 O   0  0  0  0  0  1  0  0  0  0  0  0
  162.8810  204.6040  145.5400 C   0  0  0  0  0  2  0  0  0  0  0  0
  160.8120  207.5050  149.8150 O   0  0  0  0  0  0  0  0  0  0  0  0
  160.9720  205.9970  151.7500 C   0  0  2  0  0  3  0  0  0  0  0  0
  161.0330  208.3950  152.0950 C   0  0  2  0  0  3  0  0  0  0  0  0
  160.9850  207.6630  153.4140 C   0  0  0  0  0  2  0  0  0  0  0  0
  161.3760  207.3090  151.0990 C   0  0  2  0  0  3  0  0  0  0  0  0
  160.6510  206.2660  153.1510 N   0  0  0  0  0  2  0  0  0  0  0  0
  162.1180  205.0060  151.6570 C   0  0  0  0  0  2  0  0  0  0  0  0
  161.6970  203.8530  150.9920 O   0  0  0  0  0  0  0  0  0  0  0  0
  161.1190  203.0670  151.9870 C   0  0  0  0  0  1  0  0  0  0  0  0
  162.0770  209.4070  152.1300 N   0  0  0  0  0  2  0  0  0  0  0  0
  161.7730  210.3310  153.2140 C   0  0  0  0  0  2  0  0  0  0  0  0
  160.6070  211.2300  152.8370 C   0  0  0  0  0  2  0  0  0  0  0  0
  160.0590  211.9330  154.0640 C   0  0  0  0  0  1  0  0  0  0  0  0
  1 14  1  0  0  0  0
  3  2  1  6  0  0  0
  3  1  1  0  0  0  0
  4  3  1  0  0  0  0
  5  3  1  0  0  0  0
  6  7  1  6  0  0  0
  6  9  1  0  0  0  0
  6  8  1  0  0  0  0
  8 13  1  6  0  0  0
  8  5  1  0  0  0  0
  9  8  1  0  0  0  0
  9 10  1  1  0  0  0
 10 11  1  0  0  0  0
 13 12  1  0  0  0  0
 15 20  1  1  0  0  0
 15 19  1  0  0  0  0
 16 23  1  1  0  0  0
 16 17  1  0  0  0  0
 18 14  1  6  0  0  0
 18 15  1  0  0  0  0
 18 16  1  0  0  0  0
 19 17  1  0  0  0  0
 21 20  1  0  0  0  0
 21 22  1  0  0  0  0
 23 24  1  0  0  0  0
 25 24  1  0  0  0  0
 25 26  1  0  0  0  0
M  END
>  <MODEL>
7

>  <REMARK>
 VINA RESULT:      -4.9      3.105      8.114
  Name = 
  12 active torsions:
  status: ('A' for Active; 'I' for Inactive)
    1  A    between atoms: C_1  and  C_17
    2  A    between atoms: C_1  and  N_23
    3  A    between atoms: C_2  and  C_20
    4  A    between atoms: C_4  and  N_23
    5  A    between atoms: O_7  and  C_20
    6  A    between atoms: C_9  and  C_10
    7  A    between atoms: C_9  and  O_21
    8  A    between atoms: C_10  and  N_12
    9  A    between atoms: C_11  and  C_15
   10  A    between atoms: N_12  and  C_14
   11  A    between atoms: C_14  and  C_18
   12  A    between atoms: O_21  and  C_24
                            x       y       z     vdW  Elec       q    Type
                         _______ _______ _______ _____ _____    ______ ____

>  <TORSDO>
F 12

$$$$
=
 OpenBabel11072414253D

 26 27  0  0  1  0  0  0  0  0999 V2000
  160.9870  207.3700  154.6310 C   0  0  0  0  0  2  0  0  0  0  0  0
  161.7870  208.1030  156.8540 C   0  0  0  0  0  1  0  0  0  0  0  0
  160.8550  208.4430  155.7030 C   0  0  2  0  0  0  0  0  0  0  0  0
  159.5320  208.4710  156.1600 O   0  0  0  0  0  1  0  0  0  0  0  0
  161.2340  209.7310  155.1040 N   0  0  0  0  0  2  0  0  0  0  0  0
  158.9960  210.9260  155.0390 C   0  0  2  0  0  3  0  0  0  0  0  0
  158.1570  211.6070  155.9220 O   0  0  0  0  0  1  0  0  0  0  0  0
  160.4190  210.8610  155.5790 C   0  0  2  0  0  0  0  0  0  0  0  0
  160.0550  211.8850  154.5080 C   0  0  1  0  0  3  0  0  0  0  0  0
  160.4440  211.4640  153.0970 C   0  0  0  0  0  2  0  0  0  0  0  0
  159.3210  210.9770  152.4300 O   0  0  0  0  0  1  0  0  0  0  0  0
  162.1400  211.4850  157.1200 O   0  0  0  0  0  1  0  0  0  0  0  0
  160.7590  211.4860  156.9290 C   0  0  0  0  0  2  0  0  0  0  0  0
  160.4410  207.8090  153.4090 O   0  0  0  0  0  0  0  0  0  0  0  0
  161.8110  205.8600  152.8000 C   0  0  2  0  0  3  0  0  0  0  0  0
  161.9160  207.8660  151.4440 C   0  0  2  0  0  3  0  0  0  0  0  0
  162.9430  206.8580  150.9920 C   0  0  0  0  0  2  0  0  0  0  0  0
  161.0020  207.0630  152.3440 C   0  0  2  0  0  3  0  0  0  0  0  0
  163.0400  205.8150  152.0100 N   0  0  0  0  0  2  0  0  0  0  0  0
  161.0050  204.5920  152.5860 C   0  0  0  0  0  2  0  0  0  0  0  0
  161.6950  203.7290  151.7340 O   0  0  0  0  0  0  0  0  0  0  0  0
  160.7450  203.3350  150.7920 C   0  0  0  0  0  1  0  0  0  0  0  0
  161.1850  208.3750  150.2930 N   0  0  0  0  0  2  0  0  0  0  0  0
  161.6100  207.6230  149.1210 C   0  0  0  0  0  2  0  0  0  0  0  0
  160.5450  206.6160  148.7190 C   0  0  0  0  0  2  0  0  0  0  0  0
  161.1370  205.5460  147.8220 C   0  0  0  0  0  1  0  0  0  0  0  0
  1  3  1  0  0  0  0
  3  4  1  0  0  0  0
  3  2  1  1  0  0  0
  5  8  1  0  0  0  0
  5  3  1  0  0  0  0
  6  8  1  0  0  0  0
  6  7  1  1  0  0  0
  8 13  1  1  0  0  0
  9 10  1  6  0  0  0
  9  6  1  0  0  0  0
  9  8  1  0  0  0  0
 11 10  1  0  0  0  0
 13 12  1  0  0  0  0
 14  1  1  0  0  0  0
 15 20  1  6  0  0  0
 16 23  1  6  0  0  0
 16 18  1  0  0  0  0
 17 16  1  0  0  0  0
 17 19  1  0  0  0  0
 18 15  1  0  0  0  0
 18 14  1  1  0  0  0
 19 15  1  0  0  0  0
 21 20  1  0  0  0  0
 22 21  1  0  0  0  0
 24 23  1  0  0  0  0
 25 24  1  0  0  0  0
 26 25  1  0  0  0  0
M  END
>  <MODEL>
8

>  <REMARK>
 VINA RESULT:      -4.8      2.014      4.046
  Name = 
  12 active torsions:
  status: ('A' for Active; 'I' for Inactive)
    1  A    between atoms: C_1  and  C_17
    2  A    between atoms: C_1  and  N_23
    3  A    between atoms: C_2  and  C_20
    4  A    between atoms: C_4  and  N_23
    5  A    between atoms: O_7  and  C_20
    6  A    between atoms: C_9  and  C_10
    7  A    between atoms: C_9  and  O_21
    8  A    between atoms: C_10  and  N_12
    9  A    between atoms: C_11  and  C_15
   10  A    between atoms: N_12  and  C_14
   11  A    between atoms: C_14  and  C_18
   12  A    between atoms: O_21  and  C_24
                            x       y       z     vdW  Elec       q    Type
                         _______ _______ _______ _____ _____    ______ ____

>  <TORSDO>
F 12

$$$$
=
 OpenBabel11072414253D

 26 27  0  0  1  0  0  0  0  0999 V2000
  161.4160  209.3170  152.5570 C   0  0  0  0  0  2  0  0  0  0  0  0
  160.0860  211.4030  152.5820 C   0  0  0  0  0  1  0  0  0  0  0  0
  160.8410  210.4090  153.4490 C   0  0  2  0  0  0  0  0  0  0  0  0
  161.8900  211.0600  154.1070 O   0  0  0  0  0  1  0  0  0  0  0  0
  159.9280  209.7750  154.4100 N   0  0  0  0  0  2  0  0  0  0  0  0
  161.5740  209.0180  156.1860 C   0  0  2  0  0  3  0  0  0  0  0  0
  162.2740  209.5750  157.2580 O   0  0  0  0  0  1  0  0  0  0  0  0
  160.3790  209.8820  155.8070 C   0  0  2  0  0  0  0  0  0  0  0  0
  160.1760  208.6240  156.6460 C   0  0  1  0  0  3  0  0  0  0  0  0
  159.7100  207.4170  155.8420 C   0  0  0  0  0  2  0  0  0  0  0  0
  160.8030  206.6040  155.5470 O   0  0  0  0  0  1  0  0  0  0  0  0
  159.1060  211.9060  155.9060 O   0  0  0  0  0  1  0  0  0  0  0  0
  160.0920  211.1750  156.5660 C   0  0  0  0  0  2  0  0  0  0  0  0
  160.4530  208.3240  152.2920 O   0  0  0  0  0  0  0  0  0  0  0  0
  161.8470  206.2990  152.3530 C   0  0  2  0  0  3  0  0  0  0  0  0
  161.9660  207.7760  150.4350 C   0  0  2  0  0  3  0  0  0  0  0  0
  163.0090  206.6900  150.3420 C   0  0  0  0  0  2  0  0  0  0  0  0
  161.0390  207.2870  151.5270 C   0  0  2  0  0  3  0  0  0  0  0  0
  163.0930  206.0230  151.6380 N   0  0  0  0  0  2  0  0  0  0  0  0
  161.0540  205.0190  152.5370 C   0  0  0  0  0  2  0  0  0  0  0  0
  161.7130  203.9580  151.9140 O   0  0  0  0  0  0  0  0  0  0  0  0
  160.8150  203.5070  150.9490 C   0  0  0  0  0  1  0  0  0  0  0  0
  161.2550  207.8870  149.1710 N   0  0  0  0  0  2  0  0  0  0  0  0
  160.6850  206.5830  148.8590 C   0  0  0  0  0  2  0  0  0  0  0  0
  160.8140  206.2860  147.3740 C   0  0  0  0  0  2  0  0  0  0  0  0
  161.8920  205.2460  147.1320 C   0  0  0  0  0  1  0  0  0  0  0  0
  1  3  1  0  0  0  0
  3  2  1  6  0  0  0
  3  4  1  0  0  0  0
  3  5  1  0  0  0  0
  5  8  1  0  0  0  0
  6  9  1  0  0  0  0
  6  7  1  1  0  0  0
  8  6  1  0  0  0  0
  8 13  1  1  0  0  0
  8  9  1  0  0  0  0
  9 10  1  6  0  0  0
 11 10  1  0  0  0  0
 12 13  1  0  0  0  0
 14  1  1  0  0  0  0
 15 20  1  6  0  0  0
 16 23  1  6  0  0  0
 16 18  1  0  0  0  0
 17 16  1  0  0  0  0
 17 19  1  0  0  0  0
 18 14  1  1  0  0  0
 18 15  1  0  0  0  0
 19 15  1  0  0  0  0
 21 20  1  0  0  0  0
 22 21  1  0  0  0  0
 24 23  1  0  0  0  0
 25 24  1  0  0  0  0
 26 25  1  0  0  0  0
M  END
>  <MODEL>
9

>  <REMARK>
 VINA RESULT:      -4.6      1.689      3.025
  Name = 
  12 active torsions:
  status: ('A' for Active; 'I' for Inactive)
    1  A    between atoms: C_1  and  C_17
    2  A    between atoms: C_1  and  N_23
    3  A    between atoms: C_2  and  C_20
    4  A    between atoms: C_4  and  N_23
    5  A    between atoms: O_7  and  C_20
    6  A    between atoms: C_9  and  C_10
    7  A    between atoms: C_9  and  O_21
    8  A    between atoms: C_10  and  N_12
    9  A    between atoms: C_11  and  C_15
   10  A    between atoms: N_12  and  C_14
   11  A    between atoms: C_14  and  C_18
   12  A    between atoms: O_21  and  C_24
                            x       y       z     vdW  Elec       q    Type
                         _______ _______ _______ _____ _____    ______ ____

>  <TORSDO>
F 12

$$$$
