=
 OpenBabel11072411353D

 25 27  0  0  1  0  0  0  0  0999 V2000
  157.8490  213.0510  151.8470 C   0  0  1  0  0  3  0  0  0  0  0  0
  160.1690  212.0180  152.1510 C   0  0  0  0  0  3  0  0  0  0  0  0
  160.6270  209.6030  152.9380 C   0  0  2  0  0  3  0  0  0  0  0  0
  161.5420  211.8000  156.4170 O   0  0  0  0  0  0  0  0  0  0  0  0
  160.0700  214.1600  151.0050 C   0  0  0  0  0  1  0  0  0  0  0  0
  158.7020  211.4010  156.6560 C   0  0  0  0  0  1  0  0  0  0  0  0
  159.6610  210.7840  152.8960 C   0  0  1  0  0  3  0  0  0  0  0  0
  159.3840  213.0330  151.7050 C   0  0  0  0  0  0  0  0  0  0  0  0
  157.3550  212.8790  153.2610 C   0  0  0  0  0  2  0  0  0  0  0  0
  158.9190  211.1010  154.1790 C   0  0  2  0  0  3  0  0  0  0  0  0
  157.2920  214.2040  151.2910 O   0  0  0  0  0  1  0  0  0  0  0  0
  160.9350  210.9570  155.7030 C   0  0  0  0  0  0  0  0  0  0  0  0
  161.7000  209.8010  155.1560 C   0  0  0  0  0  2  0  0  0  0  0  0
  157.9840  211.9590  153.9130 C   0  0  0  0  0  2  0  0  0  0  0  0
  161.9130  209.9530  153.6670 C   0  0  0  0  0  2  0  0  0  0  0  0
  159.5230  211.0870  155.4910 N   0  0  0  0  0  0  0  0  0  0  0  0
  161.1390  207.9300  151.2850 C   0  0  0  0  0  0  0  0  0  0  0  0
  161.1380  205.5230  151.4610 C   0  0  0  0  0  2  0  0  0  0  0  0
  161.0130  206.8060  152.2620 C   0  0  0  0  0  2  0  0  0  0  0  0
  161.4100  207.4540  149.5900 S   0  0  0  0  0  0  0  0  0  0  0  0
  160.7270  205.8300  150.0270 C   0  0  1  0  0  3  0  0  0  0  0  0
  160.9210  209.1620  151.5940 N   0  0  0  0  0  0  0  0  0  0  0  0
  161.2400  203.5650  149.4430 O   0  0  0  0  0  0  0  0  0  0  0  0
  161.2180  204.7750  149.0920 C   0  0  0  0  0  0  0  0  0  0  0  0
  161.6660  205.1410  147.7920 N   0  0  0  0  0  1  0  0  0  0  0  0
  1 11  1  1  0  0  0
  1  9  1  0  0  0  0
  3 22  1  6  0  0  0
  3 15  1  0  0  0  0
  5  8  1  0  0  0  0
  7  2  1  1  0  0  0
  7  3  1  0  0  0  0
  7 10  1  0  0  0  0
  8  1  1  0  0  0  0
  8  2  2  0  0  0  0
  9 14  1  0  0  0  0
 10 14  1  6  0  0  0
 10 16  1  0  0  0  0
 12  4  2  0  0  0  0
 13 12  1  0  0  0  0
 15 13  1  0  0  0  0
 16 12  1  0  0  0  0
 16  6  1  0  0  0  0
 17 22  2  0  0  0  0
 17 19  1  0  0  0  0
 18 19  1  0  0  0  0
 20 21  1  0  0  0  0
 20 17  1  0  0  0  0
 21 24  1  6  0  0  0
 21 18  1  0  0  0  0
 24 23  2  0  0  0  0
 25 24  1  0  0  0  0
M  END
>  <MODEL>
1

>  <REMARK>
 VINA RESULT:      -6.7      0.000      0.000
  Name = 
  2 active torsions:
  status: ('A' for Active; 'I' for Inactive)
    1  A    between atoms: C_4  and  N_22
    2  A    between atoms: C_19  and  C_20
                            x       y       z     vdW  Elec       q    Type
                         _______ _______ _______ _____ _____    ______ ____

>  <TORSDO>
F 2

$$$$
=
 OpenBabel11072411353D

 25 27  0  0  1  0  0  0  0  0999 V2000
  157.7970  213.0400  151.8410 C   0  0  1  0  0  3  0  0  0  0  0  0
  160.0710  212.0540  152.4710 C   0  0  0  0  0  3  0  0  0  0  0  0
  160.4280  209.8100  153.6950 C   0  0  2  0  0  3  0  0  0  0  0  0
  161.1680  212.5720  156.7910 O   0  0  0  0  0  0  0  0  0  0  0  0
  160.0890  213.9640  150.9670 C   0  0  0  0  0  1  0  0  0  0  0  0
  158.3110  212.2480  156.9090 C   0  0  0  0  0  1  0  0  0  0  0  0
  159.4910  210.9740  153.3840 C   0  0  1  0  0  3  0  0  0  0  0  0
  159.3360  212.9840  151.8050 C   0  0  0  0  0  0  0  0  0  0  0  0
  157.2110  213.1230  153.2280 C   0  0  0  0  0  2  0  0  0  0  0  0
  158.6770  211.5180  154.5420 C   0  0  2  0  0  3  0  0  0  0  0  0
  157.3000  214.0840  151.0580 O   0  0  0  0  0  1  0  0  0  0  0  0
  160.5900  211.6230  156.1960 C   0  0  0  0  0  0  0  0  0  0  0  0
  161.3630  210.3820  155.9090 C   0  0  0  0  0  2  0  0  0  0  0  0
  157.7780  212.3250  154.0700 C   0  0  0  0  0  2  0  0  0  0  0  0
  161.6730  210.2690  154.4340 C   0  0  0  0  0  2  0  0  0  0  0  0
  159.1970  211.7270  155.8730 N   0  0  0  0  0  0  0  0  0  0  0  0
  161.0770  207.8820  152.4080 C   0  0  0  0  0  0  0  0  0  0  0  0
  161.1650  205.5540  153.0380 C   0  0  0  0  0  2  0  0  0  0  0  0
  160.9550  206.9570  153.5760 C   0  0  0  0  0  2  0  0  0  0  0  0
  161.4390  207.1090  150.8450 S   0  0  0  0  0  0  0  0  0  0  0  0
  160.8040  205.5650  151.5590 C   0  0  1  0  0  3  0  0  0  0  0  0
  160.7970  209.1380  152.4700 N   0  0  0  0  0  0  0  0  0  0  0  0
  161.9220  203.4480  151.5120 O   0  0  0  0  0  0  0  0  0  0  0  0
  161.3770  204.3780  150.8590 C   0  0  0  0  0  0  0  0  0  0  0  0
  161.3070  204.2960  149.4410 N   0  0  0  0  0  1  0  0  0  0  0  0
  1 11  1  6  0  0  0
  1  9  1  0  0  0  0
  3 22  1  6  0  0  0
  3 15  1  0  0  0  0
  5  8  1  0  0  0  0
  7  2  1  1  0  0  0
  7  3  1  0  0  0  0
  7 10  1  0  0  0  0
  8  1  1  0  0  0  0
  8  2  2  0  0  0  0
  9 14  1  0  0  0  0
 10 14  1  6  0  0  0
 10 16  1  0  0  0  0
 12  4  2  0  0  0  0
 13 12  1  0  0  0  0
 15 13  1  0  0  0  0
 16 12  1  0  0  0  0
 16  6  1  0  0  0  0
 17 22  2  0  0  0  0
 17 19  1  0  0  0  0
 18 19  1  0  0  0  0
 20 21  1  0  0  0  0
 20 17  1  0  0  0  0
 21 24  1  6  0  0  0
 21 18  1  0  0  0  0
 24 23  2  0  0  0  0
 25 24  1  0  0  0  0
M  END
>  <MODEL>
2

>  <REMARK>
 VINA RESULT:      -6.3      1.009      1.076
  Name = 
  2 active torsions:
  status: ('A' for Active; 'I' for Inactive)
    1  A    between atoms: C_4  and  N_22
    2  A    between atoms: C_19  and  C_20
                            x       y       z     vdW  Elec       q    Type
                         _______ _______ _______ _____ _____    ______ ____

>  <TORSDO>
F 2

$$$$
=
 OpenBabel11072411353D

 25 27  0  0  1  0  0  0  0  0999 V2000
  160.6530  202.4890  150.6880 C   0  0  1  0  0  3  0  0  0  0  0  0
  161.9490  204.5760  151.3980 C   0  0  0  0  0  3  0  0  0  0  0  0
  160.9900  206.9720  151.4510 C   0  0  2  0  0  3  0  0  0  0  0  0
  163.3770  207.1070  147.9800 O   0  0  0  0  0  0  0  0  0  0  0  0
  162.9990  202.4320  151.8550 C   0  0  0  0  0  1  0  0  0  0  0  0
  160.8840  206.0700  146.9870 C   0  0  0  0  0  1  0  0  0  0  0  0
  160.8980  205.5590  150.8830 C   0  0  1  0  0  3  0  0  0  0  0  0
  161.8630  203.2240  151.2970 C   0  0  0  0  0  0  0  0  0  0  0  0
  160.3040  202.9240  149.2870 C   0  0  0  0  0  2  0  0  0  0  0  0
  160.6210  205.4410  149.3960 C   0  0  2  0  0  3  0  0  0  0  0  0
  160.8190  201.1030  150.7220 O   0  0  0  0  0  1  0  0  0  0  0  0
  162.3210  207.1690  148.6650 C   0  0  0  0  0  0  0  0  0  0  0  0
  162.2040  208.2300  149.7040 C   0  0  0  0  0  2  0  0  0  0  0  0
  160.3410  204.2050  149.1270 C   0  0  0  0  0  2  0  0  0  0  0  0
  162.3070  207.6390  151.0920 C   0  0  0  0  0  2  0  0  0  0  0  0
  161.2380  206.2720  148.3880 N   0  0  0  0  0  0  0  0  0  0  0  0
  160.8540  207.9870  153.6300 C   0  0  0  0  0  0  0  0  0  0  0  0
  160.7370  210.3150  154.2530 C   0  0  0  0  0  2  0  0  0  0  0  0
  160.9540  209.3740  153.0830 C   0  0  0  0  0  2  0  0  0  0  0  0
  160.5590  207.8670  155.3820 S   0  0  0  0  0  0  0  0  0  0  0  0
  159.9300  209.5680  155.3060 C   0  0  1  0  0  3  0  0  0  0  0  0
  160.8280  206.9350  152.8870 N   0  0  0  0  0  0  0  0  0  0  0  0
  159.0100  210.6920  157.2090 O   0  0  0  0  0  0  0  0  0  0  0  0
  160.0360  210.2370  156.6360 C   0  0  0  0  0  0  0  0  0  0  0  0
  161.3070  210.3630  157.2610 N   0  0  0  0  0  1  0  0  0  0  0  0
  1 11  1  6  0  0  0
  1  8  1  0  0  0  0
  3 22  1  1  0  0  0
  4 12  2  0  0  0  0
  6 16  1  0  0  0  0
  7  2  1  6  0  0  0
  7  3  1  0  0  0  0
  8  2  2  0  0  0  0
  8  5  1  0  0  0  0
  9  1  1  0  0  0  0
 10 14  1  6  0  0  0
 10  7  1  0  0  0  0
 12 13  1  0  0  0  0
 13 15  1  0  0  0  0
 14  9  1  0  0  0  0
 15  3  1  0  0  0  0
 16 12  1  0  0  0  0
 16 10  1  0  0  0  0
 17 20  1  0  0  0  0
 18 21  1  0  0  0  0
 19 17  1  0  0  0  0
 19 18  1  0  0  0  0
 21 20  1  0  0  0  0
 21 24  1  1  0  0  0
 22 17  2  0  0  0  0
 24 23  2  0  0  0  0
 24 25  1  0  0  0  0
M  END
>  <MODEL>
3

>  <REMARK>
 VINA RESULT:      -5.0      3.073      8.449
  Name = 
  2 active torsions:
  status: ('A' for Active; 'I' for Inactive)
    1  A    between atoms: C_4  and  N_22
    2  A    between atoms: C_19  and  C_20
                            x       y       z     vdW  Elec       q    Type
                         _______ _______ _______ _____ _____    ______ ____

>  <TORSDO>
F 2

$$$$
=
 OpenBabel11072411353D

 25 27  0  0  1  0  0  0  0  0999 V2000
  160.4010  201.7590  150.1550 C   0  0  1  0  0  3  0  0  0  0  0  0
  161.7290  203.9390  150.3040 C   0  0  0  0  0  3  0  0  0  0  0  0
  160.9540  206.2160  149.3680 C   0  0  2  0  0  3  0  0  0  0  0  0
  163.8310  205.0770  146.5060 O   0  0  0  0  0  0  0  0  0  0  0  0
  162.5380  202.0750  151.6390 C   0  0  0  0  0  1  0  0  0  0  0  0
  161.4420  203.8000  145.5370 C   0  0  0  0  0  1  0  0  0  0  0  0
  160.8420  204.6950  149.3160 C   0  0  1  0  0  3  0  0  0  0  0  0
  161.5590  202.6400  150.6640 C   0  0  0  0  0  0  0  0  0  0  0  0
  160.2960  201.6780  148.6530 C   0  0  0  0  0  2  0  0  0  0  0  0
  160.7800  204.0660  147.9380 C   0  0  2  0  0  3  0  0  0  0  0  0
  160.4570  200.4720  150.6920 O   0  0  0  0  0  1  0  0  0  0  0  0
  162.6930  205.3950  146.9450 C   0  0  0  0  0  0  0  0  0  0  0  0
  162.5030  206.7560  147.5200 C   0  0  0  0  0  2  0  0  0  0  0  0
  160.4520  202.8190  148.0690 C   0  0  0  0  0  2  0  0  0  0  0  0
  162.3560  206.6910  149.0230 C   0  0  0  0  0  2  0  0  0  0  0  0
  161.5990  204.4760  146.8210 N   0  0  0  0  0  0  0  0  0  0  0  0
  161.0340  207.7800  151.1970 C   0  0  0  0  0  0  0  0  0  0  0  0
  162.0500  209.9650  151.3280 C   0  0  0  0  0  2  0  0  0  0  0  0
  161.9220  208.7280  150.4580 C   0  0  0  0  0  2  0  0  0  0  0  0
  160.4570  208.3410  152.7860 S   0  0  0  0  0  0  0  0  0  0  0  0
  160.8220  210.0290  152.2270 C   0  0  1  0  0  3  0  0  0  0  0  0
  160.5790  206.6910  150.6810 N   0  0  0  0  0  0  0  0  0  0  0  0
  160.4500  212.0400  153.4730 O   0  0  0  0  0  0  0  0  0  0  0  0
  161.0560  210.9370  153.3880 C   0  0  0  0  0  0  0  0  0  0  0  0
  161.9720  210.5550  154.4070 N   0  0  0  0  0  1  0  0  0  0  0  0
  1  8  1  0  0  0  0
  1 11  1  1  0  0  0
  2  8  2  0  0  0  0
  3 22  1  1  0  0  0
  4 12  2  0  0  0  0
  6 16  1  0  0  0  0
  7  3  1  0  0  0  0
  7  2  1  6  0  0  0
  8  5  1  0  0  0  0
  9  1  1  0  0  0  0
 10 14  1  1  0  0  0
 10  7  1  0  0  0  0
 12 13  1  0  0  0  0
 13 15  1  0  0  0  0
 14  9  1  0  0  0  0
 15  3  1  0  0  0  0
 16 12  1  0  0  0  0
 16 10  1  0  0  0  0
 17 20  1  0  0  0  0
 18 21  1  0  0  0  0
 19 17  1  0  0  0  0
 19 18  1  0  0  0  0
 21 20  1  0  0  0  0
 21 24  1  1  0  0  0
 22 17  2  0  0  0  0
 24 23  2  0  0  0  0
 24 25  1  0  0  0  0
M  END
>  <MODEL>
4

>  <REMARK>
 VINA RESULT:      -4.5      2.746      9.122
  Name = 
  2 active torsions:
  status: ('A' for Active; 'I' for Inactive)
    1  A    between atoms: C_4  and  N_22
    2  A    between atoms: C_19  and  C_20
                            x       y       z     vdW  Elec       q    Type
                         _______ _______ _______ _____ _____    ______ ____

>  <TORSDO>
F 2

$$$$
=
 OpenBabel11072411353D

 25 27  0  0  1  0  0  0  0  0999 V2000
  160.7240  212.4320  149.4310 C   0  0  1  0  0  3  0  0  0  0  0  0
  161.9510  210.4240  150.4330 C   0  0  0  0  0  3  0  0  0  0  0  0
  160.8310  208.5040  151.7440 C   0  0  2  0  0  3  0  0  0  0  0  0
  162.6240  210.7040  154.8610 O   0  0  0  0  0  0  0  0  0  0  0  0
  163.2230  211.8310  148.9110 C   0  0  0  0  0  1  0  0  0  0  0  0
  160.0930  212.0320  154.5310 C   0  0  0  0  0  1  0  0  0  0  0  0
  160.7600  209.9510  151.2650 C   0  0  1  0  0  3  0  0  0  0  0  0
  161.9550  211.5280  149.6400 C   0  0  0  0  0  0  0  0  0  0  0  0
  160.1270  212.9730  150.7050 C   0  0  0  0  0  2  0  0  0  0  0  0
  160.2620  210.9750  152.2670 C   0  0  2  0  0  3  0  0  0  0  0  0
  161.0010  213.4860  148.5570 O   0  0  0  0  0  1  0  0  0  0  0  0
  161.6880  210.1770  154.2010 C   0  0  0  0  0  0  0  0  0  0  0  0
  161.6540  208.6940  154.0670 C   0  0  0  0  0  2  0  0  0  0  0  0
  160.0400  212.0880  151.6420 C   0  0  0  0  0  2  0  0  0  0  0  0
  162.0190  208.2720  152.6620 C   0  0  0  0  0  2  0  0  0  0  0  0
  160.6470  211.0010  153.6590 N   0  0  0  0  0  0  0  0  0  0  0  0
  161.0820  206.3430  150.7140 C   0  0  0  0  0  0  0  0  0  0  0  0
  161.1500  204.1460  151.7110 C   0  0  0  0  0  2  0  0  0  0  0  0
  161.1420  205.6310  152.0260 C   0  0  0  0  0  2  0  0  0  0  0  0
  161.0690  205.3010  149.2690 S   0  0  0  0  0  0  0  0  0  0  0  0
  160.4960  203.9580  150.3490 C   0  0  1  0  0  3  0  0  0  0  0  0
  160.9000  207.6140  150.6080 N   0  0  0  0  0  0  0  0  0  0  0  0
  160.8090  201.5890  150.4850 O   0  0  0  0  0  0  0  0  0  0  0  0
  160.8380  202.6260  149.7700 C   0  0  0  0  0  0  0  0  0  0  0  0
  161.2020  202.5270  148.3990 N   0  0  0  0  0  1  0  0  0  0  0  0
  1 11  1  6  0  0  0
  1  8  1  0  0  0  0
  1  9  1  0  0  0  0
  3 22  1  6  0  0  0
  3 15  1  0  0  0  0
  5  8  1  0  0  0  0
  7  2  1  1  0  0  0
  7  3  1  0  0  0  0
  7 10  1  0  0  0  0
  8  2  2  0  0  0  0
  9 14  1  0  0  0  0
 10 14  1  6  0  0  0
 10 16  1  0  0  0  0
 12  4  2  0  0  0  0
 13 12  1  0  0  0  0
 15 13  1  0  0  0  0
 16 12  1  0  0  0  0
 16  6  1  0  0  0  0
 17 19  1  0  0  0  0
 18 19  1  0  0  0  0
 20 21  1  0  0  0  0
 20 17  1  0  0  0  0
 21 24  1  6  0  0  0
 21 18  1  0  0  0  0
 22 17  2  0  0  0  0
 24 23  2  0  0  0  0
 25 24  1  0  0  0  0
M  END
>  <MODEL>
5

>  <REMARK>
 VINA RESULT:      -4.4      2.187      2.654
  Name = 
  2 active torsions:
  status: ('A' for Active; 'I' for Inactive)
    1  A    between atoms: C_4  and  N_22
    2  A    between atoms: C_19  and  C_20
                            x       y       z     vdW  Elec       q    Type
                         _______ _______ _______ _____ _____    ______ ____

>  <TORSDO>
F 2

$$$$
=
 OpenBabel11072411353D

 25 27  0  0  1  0  0  0  0  0999 V2000
  161.8010  209.8640  156.1320 C   0  0  1  0  0  3  0  0  0  0  0  0
  160.1160  210.1320  154.2270 C   0  0  0  0  0  3  0  0  0  0  0  0
  159.6780  212.3200  152.9310 C   0  0  2  0  0  3  0  0  0  0  0  0
  156.2860  212.1390  155.4270 O   0  0  0  0  0  0  0  0  0  0  0  0
  160.5870  207.8600  154.9550 C   0  0  0  0  0  1  0  0  0  0  0  0
  158.2270  213.4510  157.0990 C   0  0  0  0  0  1  0  0  0  0  0  0
  160.1920  211.6580  154.2060 C   0  0  1  0  0  3  0  0  0  0  0  0
  160.8020  209.3330  155.0860 C   0  0  0  0  0  0  0  0  0  0  0  0
  161.2280  210.8980  157.0680 C   0  0  0  0  0  2  0  0  0  0  0  0
  159.7990  212.3130  155.5160 C   0  0  2  0  0  3  0  0  0  0  0  0
  162.3730  208.8270  156.8720 O   0  0  0  0  0  1  0  0  0  0  0  0
  157.3510  212.6150  154.9480 C   0  0  0  0  0  0  0  0  0  0  0  0
  157.3760  213.0070  153.5100 C   0  0  0  0  0  2  0  0  0  0  0  0
  160.4990  211.7790  156.4690 C   0  0  0  0  0  2  0  0  0  0  0  0
  158.2030  212.0350  152.7010 C   0  0  0  0  0  2  0  0  0  0  0  0
  158.4820  212.8320  155.8020 N   0  0  0  0  0  0  0  0  0  0  0  0
  160.4570  212.4700  150.6580 C   0  0  0  0  0  0  0  0  0  0  0  0
  160.1700  214.2290  149.0310 C   0  0  0  0  0  2  0  0  0  0  0  0
  159.7410  213.7570  150.4080 C   0  0  0  0  0  2  0  0  0  0  0  0
  161.5070  211.9010  149.3360 S   0  0  0  0  0  0  0  0  0  0  0  0
  161.5300  213.6140  148.7330 C   0  0  1  0  0  3  0  0  0  0  0  0
  160.4530  211.8690  151.7970 N   0  0  0  0  0  0  0  0  0  0  0  0
  162.7050  214.4480  146.8210 O   0  0  0  0  0  0  0  0  0  0  0  0
  161.8300  213.6600  147.2710 C   0  0  0  0  0  0  0  0  0  0  0  0
  161.1200  212.8100  146.3800 N   0  0  0  0  0  1  0  0  0  0  0  0
  1 11  1  1  0  0  0
  1  9  1  0  0  0  0
  2  8  2  0  0  0  0
  3 22  1  6  0  0  0
  3  7  1  0  0  0  0
  5  8  1  0  0  0  0
  7  2  1  1  0  0  0
  7 10  1  0  0  0  0
  8  1  1  0  0  0  0
 10 16  1  0  0  0  0
 10 14  1  1  0  0  0
 12  4  2  0  0  0  0
 12 16  1  0  0  0  0
 13 12  1  0  0  0  0
 14  9  1  0  0  0  0
 15  3  1  0  0  0  0
 15 13  1  0  0  0  0
 16  6  1  0  0  0  0
 17 22  2  0  0  0  0
 18 19  1  0  0  0  0
 19 17  1  0  0  0  0
 20 17  1  0  0  0  0
 21 24  1  6  0  0  0
 21 18  1  0  0  0  0
 21 20  1  0  0  0  0
 23 24  2  0  0  0  0
 25 24  1  0  0  0  0
M  END
>  <MODEL>
6

>  <REMARK>
 VINA RESULT:      -4.4      3.715      6.018
  Name = 
  2 active torsions:
  status: ('A' for Active; 'I' for Inactive)
    1  A    between atoms: C_4  and  N_22
    2  A    between atoms: C_19  and  C_20
                            x       y       z     vdW  Elec       q    Type
                         _______ _______ _______ _____ _____    ______ ____

>  <TORSDO>
F 2

$$$$
