=
 OpenBabel11072415253D

 25 28  0  0  1  0  0  0  0  0999 V2000
  163.0510  206.2250  151.9550 C   0  0  0  0  0  1  0  0  0  0  0  0
  161.5360  206.0260  151.9230 C   0  0  1  0  0  0  0  0  0  0  0  0
  160.9060  208.6120  152.9780 C   0  0  0  0  0  0  0  0  0  0  0  0
  161.4060  207.9710  148.8640 O   0  0  0  0  0  0  0  0  0  0  0  0
  160.9550  209.9610  153.5990 C   0  0  0  0  0  1  0  0  0  0  0  0
  161.2440  206.9680  149.6100 C   0  0  0  0  0  0  0  0  0  0  0  0
  161.0750  203.1950  149.3620 C   0  0  0  0  0  0  0  0  0  0  0  0
  161.3430  205.6470  149.0730 N   0  0  0  0  0  2  0  0  0  0  0  0
  160.7620  207.4100  153.8330 C   0  0  0  0  0  3  0  0  0  0  0  0
  161.1960  203.5240  152.1590 C   0  0  0  0  0  3  0  0  0  0  0  0
  161.2140  204.4910  149.9200 C   0  0  0  0  0  0  0  0  0  0  0  0
  161.2560  204.6540  151.3320 C   0  0  0  0  0  0  0  0  0  0  0  0
  161.0610  202.2520  151.6100 C   0  0  0  0  0  3  0  0  0  0  0  0
  161.0020  202.0910  150.2270 C   0  0  0  0  0  3  0  0  0  0  0  0
  161.0140  206.1870  153.3360 C   0  0  0  0  0  3  0  0  0  0  0  0
  161.0040  208.4850  151.6490 C   0  0  0  0  0  3  0  0  0  0  0  0
  160.8680  207.1100  151.0500 C   0  0  2  0  0  3  0  0  0  0  0  0
  161.3980  203.9460  146.9930 C   0  0  0  0  0  3  0  0  0  0  0  0
  160.9990  202.9480  147.8950 C   0  0  0  0  0  0  0  0  0  0  0  0
  160.5390  201.5080  146.0020 C   0  0  0  0  0  3  0  0  0  0  0  0
  160.9230  202.4990  145.1560 N   0  0  0  0  0  0  0  0  0  0  0  0
  161.3510  203.7070  145.6180 C   0  0  0  0  0  0  0  0  0  0  0  0
  160.5740  201.7150  147.3830 C   0  0  0  0  0  3  0  0  0  0  0  0
  161.7450  204.7130  144.7360 O   0  0  0  0  0  0  0  0  0  0  0  0
  160.9650  205.8820  144.5280 C   0  0  0  0  0  1  0  0  0  0  0  0
  2  1  1  1  0  0  0
  2 15  1  0  0  0  0
  3  5  1  0  0  0  0
  3  9  1  0  0  0  0
  4  6  2  0  0  0  0
  6 17  1  0  0  0  0
  7 11  2  0  0  0  0
  7 14  1  0  0  0  0
  8  6  1  0  0  0  0
  8 11  1  0  0  0  0
 11 12  1  0  0  0  0
 12  2  1  0  0  0  0
 12 10  2  0  0  0  0
 13 10  1  0  0  0  0
 14 13  2  0  0  0  0
 15  9  2  0  0  0  0
 16  3  2  0  0  0  0
 17 16  1  1  0  0  0
 17  2  1  0  0  0  0
 18 19  2  0  0  0  0
 19  7  1  0  0  0  0
 20 23  2  0  0  0  0
 21 22  2  0  0  0  0
 21 20  1  0  0  0  0
 22 18  1  0  0  0  0
 23 19  1  0  0  0  0
 24 22  1  0  0  0  0
 25 24  1  0  0  0  0
M  END
>  <MODEL>
1

>  <REMARK>
 VINA RESULT:     -11.0      0.000      0.000
  Name = 
  2 active torsions:
  status: ('A' for Active; 'I' for Inactive)
    1  A    between atoms: C_3  and  C_12
    2  A    between atoms: C_11  and  O_17
                            x       y       z     vdW  Elec       q    Type
                         _______ _______ _______ _____ _____    ______ ____

>  <TORSDO>
F 2

$$$$
=
 OpenBabel11072415253D

 25 28  0  0  1  0  0  0  0  0999 V2000
  163.0390  206.2310  152.0200 C   0  0  0  0  0  1  0  0  0  0  0  0
  161.5230  206.0500  151.9380 C   0  0  1  0  0  0  0  0  0  0  0  0
  160.8900  208.5970  153.0840 C   0  0  0  0  0  0  0  0  0  0  0  0
  161.4990  208.1220  148.9620 O   0  0  0  0  0  0  0  0  0  0  0  0
  160.9340  209.9180  153.7620 C   0  0  0  0  0  1  0  0  0  0  0  0
  161.3060  207.0910  149.6590 C   0  0  0  0  0  0  0  0  0  0  0  0
  161.1070  203.3340  149.2480 C   0  0  0  0  0  0  0  0  0  0  0  0
  161.4070  205.7930  149.0700 N   0  0  0  0  0  2  0  0  0  0  0  0
  160.7100  207.3610  153.8820 C   0  0  0  0  0  3  0  0  0  0  0  0
  161.1530  203.5450  152.0590 C   0  0  0  0  0  3  0  0  0  0  0  0
  161.2430  204.6040  149.8640 C   0  0  0  0  0  0  0  0  0  0  0  0
  161.2470  204.7080  151.2830 C   0  0  0  0  0  0  0  0  0  0  0  0
  161.0200  202.2980  151.4530 C   0  0  0  0  0  3  0  0  0  0  0  0
  160.9990  202.1960  150.0640 C   0  0  0  0  0  3  0  0  0  0  0  0
  160.9630  206.1580  153.3410 C   0  0  0  0  0  3  0  0  0  0  0  0
  161.0240  208.5250  151.7530 C   0  0  0  0  0  3  0  0  0  0  0  0
  160.8910  207.1770  151.0930 C   0  0  2  0  0  3  0  0  0  0  0  0
  160.7550  201.8940  147.2280 C   0  0  0  0  0  3  0  0  0  0  0  0
  161.0710  203.1490  147.7710 C   0  0  0  0  0  0  0  0  0  0  0  0
  161.2400  204.0130  145.5140 C   0  0  0  0  0  3  0  0  0  0  0  0
  160.9400  202.7830  145.0210 N   0  0  0  0  0  0  0  0  0  0  0  0
  160.6970  201.7240  145.8430 C   0  0  0  0  0  0  0  0  0  0  0  0
  161.3060  204.2160  146.8940 C   0  0  0  0  0  3  0  0  0  0  0  0
  160.3880  200.4680  145.3220 O   0  0  0  0  0  0  0  0  0  0  0  0
  161.1030  199.3000  145.6960 C   0  0  0  0  0  1  0  0  0  0  0  0
  2  1  1  1  0  0  0
  2 15  1  0  0  0  0
  3  5  1  0  0  0  0
  3  9  1  0  0  0  0
  4  6  2  0  0  0  0
  6 17  1  0  0  0  0
  7 11  2  0  0  0  0
  7 14  1  0  0  0  0
  8  6  1  0  0  0  0
  8 11  1  0  0  0  0
 11 12  1  0  0  0  0
 12  2  1  0  0  0  0
 12 10  2  0  0  0  0
 13 10  1  0  0  0  0
 14 13  2  0  0  0  0
 15  9  2  0  0  0  0
 16  3  2  0  0  0  0
 17 16  1  1  0  0  0
 17  2  1  0  0  0  0
 18 19  2  0  0  0  0
 19  7  1  0  0  0  0
 20 23  2  0  0  0  0
 21 20  1  0  0  0  0
 21 22  2  0  0  0  0
 22 18  1  0  0  0  0
 23 19  1  0  0  0  0
 24 25  1  0  0  0  0
 24 22  1  0  0  0  0
M  END
>  <MODEL>
2

>  <REMARK>
 VINA RESULT:     -10.5      1.027      1.881
  Name = 
  2 active torsions:
  status: ('A' for Active; 'I' for Inactive)
    1  A    between atoms: C_3  and  C_12
    2  A    between atoms: C_11  and  O_17
                            x       y       z     vdW  Elec       q    Type
                         _______ _______ _______ _____ _____    ______ ____

>  <TORSDO>
F 2

$$$$
=
 OpenBabel11072415253D

 25 28  0  0  1  0  0  0  0  0999 V2000
  159.7060  205.8090  148.6070 C   0  0  0  0  0  1  0  0  0  0  0  0
  161.1320  205.5150  149.0730 C   0  0  1  0  0  0  0  0  0  0  0  0
  162.2730  205.5150  146.4460 C   0  0  0  0  0  0  0  0  0  0  0  0
  161.9150  209.0360  148.6940 O   0  0  0  0  0  0  0  0  0  0  0  0
  162.4970  205.5110  144.9770 C   0  0  0  0  0  1  0  0  0  0  0  0
  161.7890  207.9330  149.2890 C   0  0  0  0  0  0  0  0  0  0  0  0
  161.0940  206.5980  152.7620 C   0  0  0  0  0  0  0  0  0  0  0  0
  161.4230  207.8960  150.6700 N   0  0  0  0  0  2  0  0  0  0  0  0
  162.0750  204.2350  147.1670 C   0  0  0  0  0  3  0  0  0  0  0  0
  160.8650  204.2340  151.2440 C   0  0  0  0  0  3  0  0  0  0  0  0
  161.2230  206.6440  151.3500 C   0  0  0  0  0  0  0  0  0  0  0  0
  161.1250  205.4460  150.5900 C   0  0  0  0  0  0  0  0  0  0  0  0
  160.7380  204.1900  152.6300 C   0  0  0  0  0  3  0  0  0  0  0  0
  160.8500  205.3600  153.3780 C   0  0  0  0  0  3  0  0  0  0  0  0
  161.5810  204.2260  148.4160 C   0  0  0  0  0  3  0  0  0  0  0  0
  162.2370  206.6750  147.1130 C   0  0  0  0  0  3  0  0  0  0  0  0
  162.0910  206.6350  148.6120 C   0  0  2  0  0  3  0  0  0  0  0  0
  160.9760  209.0800  153.0860 C   0  0  0  0  0  3  0  0  0  0  0  0
  161.2080  207.8060  153.6260 C   0  0  0  0  0  0  0  0  0  0  0  0
  161.5810  208.8540  155.7780 C   0  0  0  0  0  3  0  0  0  0  0  0
  161.3590  210.0740  155.2220 N   0  0  0  0  0  0  0  0  0  0  0  0
  161.0600  210.2120  153.9000 C   0  0  0  0  0  0  0  0  0  0  0  0
  161.5060  207.7030  154.9910 C   0  0  0  0  0  3  0  0  0  0  0  0
  160.8320  211.4710  153.3450 O   0  0  0  0  0  0  0  0  0  0  0  0
  159.7520  211.7180  152.4560 C   0  0  0  0  0  1  0  0  0  0  0  0
  2  1  1  6  0  0  0
  2 12  1  0  0  0  0
  3 16  2  0  0  0  0
  3  9  1  0  0  0  0
  4  6  2  0  0  0  0
  5  3  1  0  0  0  0
  6  8  1  0  0  0  0
  7 14  1  0  0  0  0
  7 19  1  0  0  0  0
  8 11  1  0  0  0  0
  9 15  2  0  0  0  0
 10 13  1  0  0  0  0
 11  7  2  0  0  0  0
 12 10  2  0  0  0  0
 12 11  1  0  0  0  0
 13 14  2  0  0  0  0
 15  2  1  0  0  0  0
 17 16  1  6  0  0  0
 17  2  1  0  0  0  0
 17  6  1  0  0  0  0
 18 19  2  0  0  0  0
 18 22  1  0  0  0  0
 19 23  1  0  0  0  0
 21 20  1  0  0  0  0
 22 21  2  0  0  0  0
 23 20  2  0  0  0  0
 24 22  1  0  0  0  0
 25 24  1  0  0  0  0
M  END
>  <MODEL>
3

>  <REMARK>
 VINA RESULT:      -8.8      2.499      6.992
  Name = 
  2 active torsions:
  status: ('A' for Active; 'I' for Inactive)
    1  A    between atoms: C_3  and  C_12
    2  A    between atoms: C_11  and  O_17
                            x       y       z     vdW  Elec       q    Type
                         _______ _______ _______ _____ _____    ______ ____

>  <TORSDO>
F 2

$$$$
=
 OpenBabel11072415253D

 25 28  0  0  1  0  0  0  0  0999 V2000
  161.9260  210.4020  155.0070 C   0  0  0  0  0  1  0  0  0  0  0  0
  160.5430  209.8350  154.6830 C   0  0  1  0  0  0  0  0  0  0  0  0
  159.0900  212.0760  155.7150 C   0  0  0  0  0  0  0  0  0  0  0  0
  160.4310  211.9580  151.7440 O   0  0  0  0  0  0  0  0  0  0  0  0
  158.6780  213.3320  156.3940 C   0  0  0  0  0  1  0  0  0  0  0  0
  160.4130  210.8820  152.4000 C   0  0  0  0  0  0  0  0  0  0  0  0
  161.2800  207.2250  151.9570 C   0  0  0  0  0  0  0  0  0  0  0  0
  160.9430  209.6830  151.8330 N   0  0  0  0  0  2  0  0  0  0  0  0
  159.1220  210.8030  156.4730 C   0  0  0  0  0  3  0  0  0  0  0  0
  160.8350  207.3170  154.7390 C   0  0  0  0  0  3  0  0  0  0  0  0
  160.9790  208.4580  152.5890 C   0  0  0  0  0  0  0  0  0  0  0  0
  160.7360  208.4970  153.9900 C   0  0  0  0  0  0  0  0  0  0  0  0
  161.1320  206.1070  154.1190 C   0  0  0  0  0  3  0  0  0  0  0  0
  161.3530  206.0640  152.7440 C   0  0  0  0  0  3  0  0  0  0  0  0
  159.7650  209.7320  155.9780 C   0  0  0  0  0  3  0  0  0  0  0  0
  159.4420  212.1000  154.4240 C   0  0  0  0  0  3  0  0  0  0  0  0
  159.7730  210.7940  153.7490 C   0  0  2  0  0  3  0  0  0  0  0  0
  161.1640  205.9240  149.8190 C   0  0  0  0  0  3  0  0  0  0  0  0
  161.5220  207.1020  150.4930 C   0  0  0  0  0  0  0  0  0  0  0  0
  162.2600  208.0170  148.3740 C   0  0  0  0  0  3  0  0  0  0  0  0
  161.9100  206.8600  147.7540 N   0  0  0  0  0  0  0  0  0  0  0  0
  161.3680  205.8160  148.4420 C   0  0  0  0  0  0  0  0  0  0  0  0
  162.0680  208.1570  149.7500 C   0  0  0  0  0  3  0  0  0  0  0  0
  161.0120  204.6350  147.7890 O   0  0  0  0  0  0  0  0  0  0  0  0
  161.2550  203.3570  148.3580 C   0  0  0  0  0  1  0  0  0  0  0  0
  2  1  1  1  0  0  0
  2 15  1  0  0  0  0
  3  5  1  0  0  0  0
  3  9  1  0  0  0  0
  4  6  2  0  0  0  0
  6 17  1  0  0  0  0
  7 11  2  0  0  0  0
  7 14  1  0  0  0  0
  8  6  1  0  0  0  0
  8 11  1  0  0  0  0
 11 12  1  0  0  0  0
 12  2  1  0  0  0  0
 12 10  2  0  0  0  0
 13 10  1  0  0  0  0
 14 13  2  0  0  0  0
 15  9  2  0  0  0  0
 16  3  2  0  0  0  0
 17 16  1  1  0  0  0
 17  2  1  0  0  0  0
 18 19  2  0  0  0  0
 19  7  1  0  0  0  0
 20 23  2  0  0  0  0
 21 20  1  0  0  0  0
 21 22  2  0  0  0  0
 22 18  1  0  0  0  0
 23 19  1  0  0  0  0
 24 25  1  0  0  0  0
 24 22  1  0  0  0  0
M  END
>  <MODEL>
4

>  <REMARK>
 VINA RESULT:      -8.7      2.454      4.891
  Name = 
  2 active torsions:
  status: ('A' for Active; 'I' for Inactive)
    1  A    between atoms: C_3  and  C_12
    2  A    between atoms: C_11  and  O_17
                            x       y       z     vdW  Elec       q    Type
                         _______ _______ _______ _____ _____    ______ ____

>  <TORSDO>
F 2

$$$$
=
 OpenBabel11072415253D

 25 28  0  0  1  0  0  0  0  0999 V2000
  159.1860  202.3470  149.0050 C   0  0  0  0  0  1  0  0  0  0  0  0
  160.7040  202.4040  149.1740 C   0  0  1  0  0  0  0  0  0  0  0  0
  161.2820  200.7110  146.9380 C   0  0  0  0  0  0  0  0  0  0  0  0
  160.8480  204.8600  146.5100 O   0  0  0  0  0  0  0  0  0  0  0  0
  161.2060  199.7670  145.7940 C   0  0  0  0  0  1  0  0  0  0  0  0
  161.0140  204.3940  147.6680 C   0  0  0  0  0  0  0  0  0  0  0  0
  161.2400  205.5960  151.2490 C   0  0  0  0  0  0  0  0  0  0  0  0
  160.9410  205.2530  148.8080 N   0  0  0  0  0  2  0  0  0  0  0  0
  161.4320  200.1910  148.3180 C   0  0  0  0  0  3  0  0  0  0  0  0
  161.0760  202.8110  151.6490 C   0  0  0  0  0  3  0  0  0  0  0  0
  161.0750  204.7270  150.1410 C   0  0  0  0  0  0  0  0  0  0  0  0
  161.0110  203.3210  150.3460 C   0  0  0  0  0  0  0  0  0  0  0  0
  161.2370  203.6650  152.7370 C   0  0  0  0  0  3  0  0  0  0  0  0
  161.3160  205.0410  152.5370 C   0  0  0  0  0  3  0  0  0  0  0  0
  161.2050  200.9880  149.3750 C   0  0  0  0  0  3  0  0  0  0  0  0
  161.2040  202.0300  146.7210 C   0  0  0  0  0  3  0  0  0  0  0  0
  161.3690  202.9590  147.8960 C   0  0  2  0  0  3  0  0  0  0  0  0
  160.8310  207.9100  152.1200 C   0  0  0  0  0  3  0  0  0  0  0  0
  161.3390  207.0760  151.1120 C   0  0  0  0  0  0  0  0  0  0  0  0
  162.0660  209.0580  149.9240 C   0  0  0  0  0  3  0  0  0  0  0  0
  161.5560  209.8370  150.9130 N   0  0  0  0  0  0  0  0  0  0  0  0
  160.9440  209.2970  152.0040 C   0  0  0  0  0  0  0  0  0  0  0  0
  161.9690  207.6680  150.0100 C   0  0  0  0  0  3  0  0  0  0  0  0
  160.4280  210.1110  153.0130 O   0  0  0  0  0  0  0  0  0  0  0  0
  159.4080  211.0660  152.7620 C   0  0  0  0  0  1  0  0  0  0  0  0
  2  1  1  6  0  0  0
  2 15  1  0  0  0  0
  2 12  1  0  0  0  0
  3  9  1  0  0  0  0
  4  6  2  0  0  0  0
  5  3  1  0  0  0  0
  6 17  1  0  0  0  0
  6  8  1  0  0  0  0
  7 14  1  0  0  0  0
  8 11  1  0  0  0  0
  9 15  2  0  0  0  0
 10 13  1  0  0  0  0
 11 12  1  0  0  0  0
 11  7  2  0  0  0  0
 12 10  2  0  0  0  0
 14 13  2  0  0  0  0
 16  3  2  0  0  0  0
 17 16  1  6  0  0  0
 17  2  1  0  0  0  0
 19  7  1  0  0  0  0
 19 18  2  0  0  0  0
 20 23  2  0  0  0  0
 20 21  1  0  0  0  0
 21 22  2  0  0  0  0
 22 18  1  0  0  0  0
 22 24  1  0  0  0  0
 23 19  1  0  0  0  0
 25 24  1  0  0  0  0
M  END
>  <MODEL>
5

>  <REMARK>
 VINA RESULT:      -8.6      1.808      6.767
  Name = 
  2 active torsions:
  status: ('A' for Active; 'I' for Inactive)
    1  A    between atoms: C_3  and  C_12
    2  A    between atoms: C_11  and  O_17
                            x       y       z     vdW  Elec       q    Type
                         _______ _______ _______ _____ _____    ______ ____

>  <TORSDO>
F 2

$$$$
=
 OpenBabel11072415253D

 25 28  0  0  1  0  0  0  0  0999 V2000
  162.9410  203.7930  147.1290 C   0  0  0  0  0  1  0  0  0  0  0  0
  161.4900  204.2750  147.1260 C   0  0  1  0  0  0  0  0  0  0  0  0
  160.4650  202.0200  145.6890 C   0  0  0  0  0  0  0  0  0  0  0  0
  160.7950  202.0070  149.8700 O   0  0  0  0  0  0  0  0  0  0  0  0
  160.3050  200.7800  144.8860 C   0  0  0  0  0  1  0  0  0  0  0  0
  160.8730  203.1110  149.2680 C   0  0  0  0  0  0  0  0  0  0  0  0
  161.3890  206.7800  150.0420 C   0  0  0  0  0  0  0  0  0  0  0  0
  161.1770  204.3050  149.9910 N   0  0  0  0  0  2  0  0  0  0  0  0
  160.6050  203.3290  145.0090 C   0  0  0  0  0  3  0  0  0  0  0  0
  161.6370  206.8040  147.2340 C   0  0  0  0  0  3  0  0  0  0  0  0
  161.3230  205.5660  149.3110 C   0  0  0  0  0  0  0  0  0  0  0  0
  161.4300  205.5850  147.8930 C   0  0  0  0  0  0  0  0  0  0  0  0
  161.7020  207.9950  147.9510 C   0  0  0  0  0  3  0  0  0  0  0  0
  161.5810  207.9810  149.3390 C   0  0  0  0  0  3  0  0  0  0  0  0
  161.0440  204.4040  145.6840 C   0  0  0  0  0  3  0  0  0  0  0  0
  160.4950  201.9500  147.0260 C   0  0  0  0  0  3  0  0  0  0  0  0
  160.5750  203.2350  147.8080 C   0  0  2  0  0  3  0  0  0  0  0  0
  160.9940  208.0670  152.1550 C   0  0  0  0  0  3  0  0  0  0  0  0
  161.2610  206.8420  151.5240 C   0  0  0  0  0  0  0  0  0  0  0  0
  161.2120  205.7810  153.7010 C   0  0  0  0  0  3  0  0  0  0  0  0
  160.9630  206.9840  154.2820 N   0  0  0  0  0  0  0  0  0  0  0  0
  160.8510  208.1230  153.5430 C   0  0  0  0  0  0  0  0  0  0  0  0
  161.3610  205.6900  152.3160 C   0  0  0  0  0  3  0  0  0  0  0  0
  160.5920  209.3510  154.1530 O   0  0  0  0  0  0  0  0  0  0  0  0
  161.5810  210.3650  154.2560 C   0  0  0  0  0  1  0  0  0  0  0  0
  2  1  1  1  0  0  0
  2 17  1  0  0  0  0
  2 12  1  0  0  0  0
  3 16  2  0  0  0  0
  5  3  1  0  0  0  0
  6  4  2  0  0  0  0
  6  8  1  0  0  0  0
  7 19  1  0  0  0  0
  9 15  2  0  0  0  0
  9  3  1  0  0  0  0
 10 12  2  0  0  0  0
 10 13  1  0  0  0  0
 11  8  1  0  0  0  0
 11  7  2  0  0  0  0
 12 11  1  0  0  0  0
 13 14  2  0  0  0  0
 14  7  1  0  0  0  0
 15  2  1  0  0  0  0
 17 16  1  6  0  0  0
 17  6  1  0  0  0  0
 18 22  1  0  0  0  0
 19 18  2  0  0  0  0
 19 23  1  0  0  0  0
 20 21  1  0  0  0  0
 22 24  1  0  0  0  0
 22 21  2  0  0  0  0
 23 20  2  0  0  0  0
 24 25  1  0  0  0  0
M  END
>  <MODEL>
6

>  <REMARK>
 VINA RESULT:      -8.6      2.221      7.383
  Name = 
  2 active torsions:
  status: ('A' for Active; 'I' for Inactive)
    1  A    between atoms: C_3  and  C_12
    2  A    between atoms: C_11  and  O_17
                            x       y       z     vdW  Elec       q    Type
                         _______ _______ _______ _____ _____    ______ ____

>  <TORSDO>
F 2

$$$$
=
 OpenBabel11072415253D

 25 28  0  0  1  0  0  0  0  0999 V2000
  159.2030  202.8340  149.4020 C   0  0  0  0  0  1  0  0  0  0  0  0
  160.7180  202.8500  149.6040 C   0  0  1  0  0  0  0  0  0  0  0  0
  161.2900  201.0400  147.4600 C   0  0  0  0  0  0  0  0  0  0  0  0
  161.0000  205.1760  146.8360 O   0  0  0  0  0  0  0  0  0  0  0  0
  161.2080  200.0470  146.3580 C   0  0  0  0  0  1  0  0  0  0  0  0
  161.1250  204.7590  148.0170 C   0  0  0  0  0  0  0  0  0  0  0  0
  161.3120  206.1150  151.5450 C   0  0  0  0  0  0  0  0  0  0  0  0
  161.0560  205.6700  149.1150 N   0  0  0  0  0  2  0  0  0  0  0  0
  161.3920  200.5790  148.8650 C   0  0  0  0  0  3  0  0  0  0  0  0
  161.0480  203.3580  152.0660 C   0  0  0  0  0  3  0  0  0  0  0  0
  161.1430  205.2020  150.4740 C   0  0  0  0  0  0  0  0  0  0  0  0
  161.0290  203.8100  150.7400 C   0  0  0  0  0  0  0  0  0  0  0  0
  161.2130  204.2550  153.1180 C   0  0  0  0  0  3  0  0  0  0  0  0
  161.3420  205.6180  152.8580 C   0  0  0  0  0  3  0  0  0  0  0  0
  161.1680  201.4300  149.8790 C   0  0  0  0  0  3  0  0  0  0  0  0
  161.2600  202.3490  147.1820 C   0  0  0  0  0  3  0  0  0  0  0  0
  161.4280  203.3250  148.3180 C   0  0  2  0  0  3  0  0  0  0  0  0
  161.8350  208.0860  150.0880 C   0  0  0  0  0  3  0  0  0  0  0  0
  161.4620  207.5830  151.3440 C   0  0  0  0  0  0  0  0  0  0  0  0
  161.3250  209.8650  152.1470 C   0  0  0  0  0  3  0  0  0  0  0  0
  161.6970  210.3180  150.9200 N   0  0  0  0  0  0  0  0  0  0  0  0
  161.9530  209.4630  149.8910 C   0  0  0  0  0  0  0  0  0  0  0  0
  161.1980  208.4940  152.3760 C   0  0  0  0  0  3  0  0  0  0  0  0
  162.3310  209.9440  148.6370 O   0  0  0  0  0  0  0  0  0  0  0  0
  162.1610  211.3050  148.2690 C   0  0  0  0  0  1  0  0  0  0  0  0
  2  1  1  6  0  0  0
  2 15  1  0  0  0  0
  2 12  1  0  0  0  0
  3  9  1  0  0  0  0
  4  6  2  0  0  0  0
  5  3  1  0  0  0  0
  6 17  1  0  0  0  0
  6  8  1  0  0  0  0
  7 14  1  0  0  0  0
  8 11  1  0  0  0  0
  9 15  2  0  0  0  0
 10 13  1  0  0  0  0
 11 12  1  0  0  0  0
 11  7  2  0  0  0  0
 12 10  2  0  0  0  0
 14 13  2  0  0  0  0
 16  3  2  0  0  0  0
 17 16  1  6  0  0  0
 17  2  1  0  0  0  0
 18 19  2  0  0  0  0
 19  7  1  0  0  0  0
 19 23  1  0  0  0  0
 20 23  2  0  0  0  0
 21 20  1  0  0  0  0
 22 18  1  0  0  0  0
 22 21  2  0  0  0  0
 24 22  1  0  0  0  0
 25 24  1  0  0  0  0
M  END
>  <MODEL>
7

>  <REMARK>
 VINA RESULT:      -8.4      1.856      6.353
  Name = 
  2 active torsions:
  status: ('A' for Active; 'I' for Inactive)
    1  A    between atoms: C_3  and  C_12
    2  A    between atoms: C_11  and  O_17
                            x       y       z     vdW  Elec       q    Type
                         _______ _______ _______ _____ _____    ______ ____

>  <TORSDO>
F 2

$$$$
=
 OpenBabel11072415253D

 25 28  0  0  1  0  0  0  0  0999 V2000
  159.7050  209.6300  153.0000 C   0  0  0  0  0  1  0  0  0  0  0  0
  161.2070  209.3420  152.9630 C   0  0  1  0  0  0  0  0  0  0  0  0
  161.6040  209.6490  155.7830 C   0  0  0  0  0  0  0  0  0  0  0  0
  160.5250  205.9640  154.0950 O   0  0  0  0  0  0  0  0  0  0  0  0
  161.4560  209.9500  157.2300 C   0  0  0  0  0  1  0  0  0  0  0  0
  160.9600  206.8670  153.3300 C   0  0  0  0  0  0  0  0  0  0  0  0
  161.6560  207.4370  149.6540 C   0  0  0  0  0  0  0  0  0  0  0  0
  160.9740  206.6680  151.9160 N   0  0  0  0  0  2  0  0  0  0  0  0
  162.0700  210.7030  154.8510 C   0  0  0  0  0  3  0  0  0  0  0  0
  161.9560  210.0570  150.6490 C   0  0  0  0  0  3  0  0  0  0  0  0
  161.4170  207.7090  151.0250 C   0  0  0  0  0  0  0  0  0  0  0  0
  161.5880  209.0280  151.5270 C   0  0  0  0  0  0  0  0  0  0  0  0
  162.1890  209.7900  149.3030 C   0  0  0  0  0  3  0  0  0  0  0  0
  162.0390  208.4940  148.8130 C   0  0  0  0  0  3  0  0  0  0  0  0
  161.9270  210.5510  153.5240 C   0  0  0  0  0  3  0  0  0  0  0  0
  161.3050  208.4280  155.3220 C   0  0  0  0  0  3  0  0  0  0  0  0
  161.5470  208.1350  153.8630 C   0  0  2  0  0  3  0  0  0  0  0  0
  161.0690  205.0080  149.8510 C   0  0  0  0  0  3  0  0  0  0  0  0
  161.5210  206.0770  149.0620 C   0  0  0  0  0  0  0  0  0  0  0  0
  161.6370  204.5560  147.1800 C   0  0  0  0  0  3  0  0  0  0  0  0
  161.2060  203.5410  147.9740 N   0  0  0  0  0  0  0  0  0  0  0  0
  160.9190  203.7380  149.2910 C   0  0  0  0  0  0  0  0  0  0  0  0
  161.7970  205.8380  147.7090 C   0  0  0  0  0  3  0  0  0  0  0  0
  160.4750  202.6860  150.0930 O   0  0  0  0  0  0  0  0  0  0  0  0
  160.7230  201.3280  149.7600 C   0  0  0  0  0  1  0  0  0  0  0  0
  2  1  1  1  0  0  0
  2 15  1  0  0  0  0
  2 17  1  0  0  0  0
  3  5  1  0  0  0  0
  6 17  1  0  0  0  0
  6  4  2  0  0  0  0
  7 11  1  0  0  0  0
  8  6  1  0  0  0  0
  9  3  1  0  0  0  0
 10 12  1  0  0  0  0
 11 12  2  0  0  0  0
 11  8  1  0  0  0  0
 12  2  1  0  0  0  0
 13 10  2  0  0  0  0
 14 13  1  0  0  0  0
 14  7  2  0  0  0  0
 15  9  2  0  0  0  0
 16  3  2  0  0  0  0
 17 16  1  1  0  0  0
 19  7  1  0  0  0  0
 19 18  2  0  0  0  0
 20 23  2  0  0  0  0
 20 21  1  0  0  0  0
 21 22  2  0  0  0  0
 22 18  1  0  0  0  0
 22 24  1  0  0  0  0
 23 19  1  0  0  0  0
 25 24  1  0  0  0  0
M  END
>  <MODEL>
8

>  <REMARK>
 VINA RESULT:      -8.2      2.379      4.603
  Name = 
  2 active torsions:
  status: ('A' for Active; 'I' for Inactive)
    1  A    between atoms: C_3  and  C_12
    2  A    between atoms: C_11  and  O_17
                            x       y       z     vdW  Elec       q    Type
                         _______ _______ _______ _____ _____    ______ ____

>  <TORSDO>
F 2

$$$$
=
 OpenBabel11072415253D

 25 28  0  0  1  0  0  0  0  0999 V2000
  159.7380  209.4460  153.1320 C   0  0  0  0  0  1  0  0  0  0  0  0
  161.2220  209.0790  153.0810 C   0  0  1  0  0  0  0  0  0  0  0  0
  161.7770  209.8540  155.7820 C   0  0  0  0  0  0  0  0  0  0  0  0
  160.4550  205.9910  154.8230 O   0  0  0  0  0  0  0  0  0  0  0  0
  161.7170  210.4120  157.1570 C   0  0  0  0  0  1  0  0  0  0  0  0
  160.8880  206.7220  153.8930 C   0  0  0  0  0  0  0  0  0  0  0  0
  161.4170  206.6020  150.1470 C   0  0  0  0  0  0  0  0  0  0  0  0
  160.8210  206.2780  152.5360 N   0  0  0  0  0  2  0  0  0  0  0  0
  162.2390  210.7040  154.6580 C   0  0  0  0  0  3  0  0  0  0  0  0
  161.8810  209.3370  150.6470 C   0  0  0  0  0  3  0  0  0  0  0  0
  161.2620  207.1220  151.4570 C   0  0  0  0  0  0  0  0  0  0  0  0
  161.5150  208.4990  151.7090 C   0  0  0  0  0  0  0  0  0  0  0  0
  162.0330  208.8260  149.3610 C   0  0  0  0  0  3  0  0  0  0  0  0
  161.8020  207.4740  149.1160 C   0  0  0  0  0  3  0  0  0  0  0  0
  162.0220  210.3290  153.3870 C   0  0  0  0  0  3  0  0  0  0  0  0
  161.4030  208.5880  155.5580 C   0  0  0  0  0  3  0  0  0  0  0  0
  161.5560  208.0320  154.1660 C   0  0  2  0  0  3  0  0  0  0  0  0
  161.3000  204.7340  148.4820 C   0  0  0  0  0  3  0  0  0  0  0  0
  161.1940  205.1680  149.8120 C   0  0  0  0  0  0  0  0  0  0  0  0
  160.7360  202.8790  150.4590 C   0  0  0  0  0  3  0  0  0  0  0  0
  160.8370  202.4930  149.1600 N   0  0  0  0  0  0  0  0  0  0  0  0
  161.1140  203.3850  148.1690 C   0  0  0  0  0  0  0  0  0  0  0  0
  160.9160  204.2200  150.8050 C   0  0  0  0  0  3  0  0  0  0  0  0
  161.2170  202.9720  146.8400 O   0  0  0  0  0  0  0  0  0  0  0  0
  161.5810  203.8670  145.7990 C   0  0  0  0  0  1  0  0  0  0  0  0
  2  1  1  1  0  0  0
  2 15  1  0  0  0  0
  2 17  1  0  0  0  0
  3  5  1  0  0  0  0
  6 17  1  0  0  0  0
  6  4  2  0  0  0  0
  7 11  1  0  0  0  0
  8  6  1  0  0  0  0
  9  3  1  0  0  0  0
 10 12  1  0  0  0  0
 11 12  2  0  0  0  0
 11  8  1  0  0  0  0
 12  2  1  0  0  0  0
 13 10  2  0  0  0  0
 14 13  1  0  0  0  0
 14  7  2  0  0  0  0
 15  9  2  0  0  0  0
 16  3  2  0  0  0  0
 17 16  1  1  0  0  0
 18 19  2  0  0  0  0
 19  7  1  0  0  0  0
 19 23  1  0  0  0  0
 20 23  2  0  0  0  0
 21 20  1  0  0  0  0
 22 18  1  0  0  0  0
 22 21  2  0  0  0  0
 24 22  1  0  0  0  0
 25 24  1  0  0  0  0
M  END
>  <MODEL>
9

>  <REMARK>
 VINA RESULT:      -8.2      2.154      4.138
  Name = 
  2 active torsions:
  status: ('A' for Active; 'I' for Inactive)
    1  A    between atoms: C_3  and  C_12
    2  A    between atoms: C_11  and  O_17
                            x       y       z     vdW  Elec       q    Type
                         _______ _______ _______ _____ _____    ______ ____

>  <TORSDO>
F 2

$$$$
