=
 OpenBabel11072411513D

 32 35  0  0  1  0  0  0  0  0999 V2000
  157.0790  213.0400  148.3370 C   0  0  0  0  0  2  0  0  0  0  0  0
  158.6830  214.4530  147.2540 F   0  0  0  0  0  0  0  0  0  0  0  0
  157.2640  213.6290  149.6040 O   0  0  0  0  0  0  0  0  0  0  0  0
  158.1220  212.5890  155.5410 N   0  0  0  0  0  2  0  0  0  0  0  0
  160.1420  211.4550  156.2300 C   0  0  0  0  0  2  0  0  0  0  0  0
  160.8470  212.7300  150.2280 C   0  0  2  0  0  3  0  0  0  0  0  0
  160.4370  214.0950  149.6910 C   0  0  0  0  0  2  0  0  0  0  0  0
  158.2100  212.8280  150.2690 C   0  0  1  0  0  3  0  0  0  0  0  0
  162.3120  210.4050  151.2420 C   0  0  0  0  0  2  0  0  0  0  0  0
  158.6440  211.5770  156.4420 C   0  0  0  0  0  2  0  0  0  0  0  0
  158.7580  211.8590  152.4890 C   0  0  0  0  0  2  0  0  0  0  0  0
  161.0300  209.9420  151.9160 C   0  0  0  0  0  2  0  0  0  0  0  0
  160.5090  210.0570  155.7470 C   0  0  1  0  0  3  0  0  0  0  0  0
  156.9560  213.5300  152.3430 C   0  0  0  0  0  2  0  0  0  0  0  0
  157.1300  214.4530  153.5340 C   0  0  0  0  0  2  0  0  0  0  0  0
  162.0620  210.5970  149.7490 C   0  0  0  0  0  2  0  0  0  0  0  0
  160.8410  210.6420  153.2640 C   0  0  2  0  0  3  0  0  0  0  0  0
  159.4710  212.4800  148.1330 O   0  0  0  0  0  0  0  0  0  0  0  0
  161.9290  212.0740  149.3840 C   0  0  0  0  0  2  0  0  0  0  0  0
  155.9690  212.5730  156.4420 O   0  0  0  0  0  0  0  0  0  0  0  0
  156.2970  213.9960  154.6350 N   0  0  0  0  0  2  0  0  0  0  0  0
  156.7610  213.0260  155.5750 C   0  0  0  0  0  0  0  0  0  0  0  0
  159.5350  212.8920  149.4840 C   0  0  2  0  0  0  0  0  0  0  0  0
  158.1430  212.5050  146.2850 F   0  0  0  0  0  0  0  0  0  0  0  0
  160.0810  209.7810  154.2960 C   0  0  1  0  0  3  0  0  0  0  0  0
  158.3110  213.1310  151.7750 C   0  0  2  0  0  3  0  0  0  0  0  0
  158.3750  213.1250  147.4980 C   0  0  0  0  0  0  0  0  0  0  0  0
  160.1620  212.0030  153.0710 C   0  0  0  0  0  2  0  0  0  0  0  0
  160.2180  208.4150  154.0280 O   0  0  0  0  0  1  0  0  0  0  0  0
  162.3120  208.6740  156.4750 O   0  0  0  0  0  1  0  0  0  0  0  0
  162.9290  210.7170  155.6400 O   0  0  0  0  0  0  0  0  0  0  0  0
  161.9630  209.7780  155.9820 C   0  0  0  0  0  0  0  0  0  0  0  0
  1  3  1  0  0  0  0
  2 27  1  0  0  0  0
  4 22  1  0  0  0  0
  4 10  1  0  0  0  0
  5 10  1  0  0  0  0
  6 19  1  6  0  0  0
  7  6  1  0  0  0  0
  8  3  1  6  0  0  0
  8 26  1  0  0  0  0
  9 12  1  0  0  0  0
 11 28  1  0  0  0  0
 13 32  1  6  0  0  0
 13  5  1  0  0  0  0
 14 15  1  0  0  0  0
 15 21  1  0  0  0  0
 16  9  1  0  0  0  0
 17 12  1  6  0  0  0
 17 25  1  0  0  0  0
 18 23  1  0  0  0  0
 19 16  1  0  0  0  0
 21 22  1  0  0  0  0
 22 20  2  0  0  0  0
 23  7  1  6  0  0  0
 23  6  1  0  0  0  0
 23  8  1  0  0  0  0
 24 27  1  0  0  0  0
 25 29  1  6  0  0  0
 25 13  1  0  0  0  0
 26 14  1  1  0  0  0
 26 11  1  0  0  0  0
 27 18  1  0  0  0  0
 27  1  1  0  0  0  0
 28 17  1  0  0  0  0
 31 32  2  0  0  0  0
 32 30  1  0  0  0  0
M  END
>  <MODEL>
1

>  <REMARK>
 VINA RESULT:      -4.5      0.000      0.000
  Name = 
  1 active torsions:
  status: ('A' for Active; 'I' for Inactive)
    1  A    between atoms: C_14  and  C_26
                            x       y       z     vdW  Elec       q    Type
                         _______ _______ _______ _____ _____    ______ ____

>  <TORSDO>
F 1

$$$$
=
 OpenBabel11072411513D

 32 35  0  0  1  0  0  0  0  0999 V2000
  160.0560  205.9910  154.0100 C   0  0  0  0  0  2  0  0  0  0  0  0
  162.0140  207.0640  154.8820 F   0  0  0  0  0  0  0  0  0  0  0  0
  160.7830  205.0250  153.2860 O   0  0  0  0  0  0  0  0  0  0  0  0
  161.3930  202.1700  147.9440 N   0  0  0  0  0  2  0  0  0  0  0  0
  161.9950  203.4780  146.0030 C   0  0  0  0  0  2  0  0  0  0  0  0
  162.5890  207.2410  150.8650 C   0  0  2  0  0  3  0  0  0  0  0  0
  163.2470  206.7300  152.1410 C   0  0  0  0  0  2  0  0  0  0  0  0
  160.9140  205.5350  151.9820 C   0  0  1  0  0  3  0  0  0  0  0  0
  161.9920  208.5210  148.2990 C   0  0  0  0  0  2  0  0  0  0  0  0
  161.1180  202.3580  146.5300 C   0  0  0  0  0  2  0  0  0  0  0  0
  160.8660  204.8650  149.5910 C   0  0  0  0  0  2  0  0  0  0  0  0
  160.8910  207.4930  148.0890 C   0  0  0  0  0  2  0  0  0  0  0  0
  161.1480  204.6380  145.4930 C   0  0  1  0  0  3  0  0  0  0  0  0
  160.8760  203.1040  151.3110 C   0  0  0  0  0  2  0  0  0  0  0  0
  161.8310  202.0310  150.8200 C   0  0  0  0  0  2  0  0  0  0  0  0
  161.7660  209.2480  149.6210 C   0  0  0  0  0  2  0  0  0  0  0  0
  161.4620  206.1930  147.5170 C   0  0  2  0  0  3  0  0  0  0  0  0
  161.2070  207.8550  152.8790 O   0  0  0  0  0  0  0  0  0  0  0  0
  162.7130  208.7480  150.7100 C   0  0  0  0  0  2  0  0  0  0  0  0
  160.0710  200.2580  148.1560 O   0  0  0  0  0  0  0  0  0  0  0  0
  161.0900  201.0040  150.1060 N   0  0  0  0  0  2  0  0  0  0  0  0
  160.8130  201.1110  148.7090 C   0  0  0  0  0  0  0  0  0  0  0  0
  161.7350  206.8370  152.0530 C   0  0  2  0  0  0  0  0  0  0  0  0
  160.0930  208.2180  154.8310 F   0  0  0  0  0  0  0  0  0  0  0  0
  160.4640  205.4340  146.6170 C   0  0  1  0  0  3  0  0  0  0  0  0
  161.4070  204.4880  150.9670 C   0  0  2  0  0  3  0  0  0  0  0  0
  160.8660  207.3010  154.1440 C   0  0  0  0  0  0  0  0  0  0  0  0
  161.9850  205.2960  148.6450 C   0  0  0  0  0  2  0  0  0  0  0  0
  159.5160  206.2960  146.0570 O   0  0  0  0  0  1  0  0  0  0  0  0
  163.0950  205.8840  144.9030 O   0  0  0  0  0  1  0  0  0  0  0  0
  161.4230  205.8930  143.3370 O   0  0  0  0  0  0  0  0  0  0  0  0
  161.9410  205.5100  144.5680 C   0  0  0  0  0  0  0  0  0  0  0  0
  1 27  1  0  0  0  0
  3  1  1  0  0  0  0
  4 22  1  0  0  0  0
  5 10  1  0  0  0  0
  6 19  1  1  0  0  0
  6 23  1  0  0  0  0
  6  7  1  0  0  0  0
  8 23  1  0  0  0  0
  8  3  1  1  0  0  0
  9 16  1  0  0  0  0
 10  4  1  0  0  0  0
 12  9  1  0  0  0  0
 13 32  1  1  0  0  0
 13  5  1  0  0  0  0
 13 25  1  0  0  0  0
 15 14  1  0  0  0  0
 16 19  1  0  0  0  0
 17 12  1  1  0  0  0
 17 28  1  0  0  0  0
 18 27  1  0  0  0  0
 20 22  2  0  0  0  0
 21 15  1  0  0  0  0
 22 21  1  0  0  0  0
 23  7  1  1  0  0  0
 23 18  1  0  0  0  0
 25 29  1  6  0  0  0
 25 17  1  0  0  0  0
 26 11  1  6  0  0  0
 26 14  1  0  0  0  0
 26  8  1  0  0  0  0
 27 24  1  0  0  0  0
 27  2  1  0  0  0  0
 28 11  1  0  0  0  0
 31 32  2  0  0  0  0
 32 30  1  0  0  0  0
M  END
>  <MODEL>
2

>  <REMARK>
 VINA RESULT:      -4.0      6.997     10.188
  Name = 
  1 active torsions:
  status: ('A' for Active; 'I' for Inactive)
    1  A    between atoms: C_14  and  C_26
                            x       y       z     vdW  Elec       q    Type
                         _______ _______ _______ _____ _____    ______ ____

>  <TORSDO>
F 1

$$$$
=
 OpenBabel11072411513D

 32 35  0  0  1  0  0  0  0  0999 V2000
  159.5620  210.0460  153.8490 C   0  0  0  0  0  2  0  0  0  0  0  0
  161.4430  211.4560  154.3140 F   0  0  0  0  0  0  0  0  0  0  0  0
  160.3370  208.8730  153.7460 O   0  0  0  0  0  0  0  0  0  0  0  0
  161.4360  203.8580  150.4740 N   0  0  0  0  0  2  0  0  0  0  0  0
  162.2750  204.1150  148.2220 C   0  0  0  0  0  2  0  0  0  0  0  0
  162.4460  209.7380  150.7730 C   0  0  2  0  0  3  0  0  0  0  0  0
  162.9520  209.9060  152.2010 C   0  0  0  0  0  2  0  0  0  0  0  0
  160.6180  208.7130  152.3770 C   0  0  1  0  0  3  0  0  0  0  0  0
  162.1580  209.6430  147.8600 C   0  0  0  0  0  2  0  0  0  0  0  0
  161.3190  203.3510  149.1190 C   0  0  0  0  0  2  0  0  0  0  0  0
  160.8080  206.9960  150.5930 C   0  0  0  0  0  2  0  0  0  0  0  0
  161.0590  208.6070  148.0430 C   0  0  0  0  0  2  0  0  0  0  0  0
  161.5160  204.8750  147.1400 C   0  0  1  0  0  3  0  0  0  0  0  0
  160.5890  206.2520  152.9300 C   0  0  0  0  0  2  0  0  0  0  0  0
  161.5630  205.1010  153.1060 C   0  0  0  0  0  2  0  0  0  0  0  0
  161.8110  210.9000  148.6520 C   0  0  0  0  0  2  0  0  0  0  0  0
  161.6540  207.2070  148.2150 C   0  0  2  0  0  3  0  0  0  0  0  0
  160.8740  211.1890  152.1030 O   0  0  0  0  0  0  0  0  0  0  0  0
  162.6240  210.9980  149.9410 C   0  0  0  0  0  2  0  0  0  0  0  0
  160.0510  202.2360  151.4200 O   0  0  0  0  0  0  0  0  0  0  0  0
  160.8760  203.8390  152.8850 N   0  0  0  0  0  2  0  0  0  0  0  0
  160.7520  203.2690  151.5820 C   0  0  0  0  0  0  0  0  0  0  0  0
  161.4600  209.9170  151.9130 C   0  0  2  0  0  0  0  0  0  0  0  0
  159.5690  212.3970  153.5230 F   0  0  0  0  0  0  0  0  0  0  0  0
  160.7370  206.0870  147.6780 C   0  0  1  0  0  3  0  0  0  0  0  0
  161.1900  207.3260  152.0330 C   0  0  2  0  0  3  0  0  0  0  0  0
  160.3870  211.2870  153.4350 C   0  0  0  0  0  0  0  0  0  0  0  0
  162.0310  206.9610  149.6800 C   0  0  0  0  0  2  0  0  0  0  0  0
  159.8770  206.5580  146.6820 O   0  0  0  0  0  1  0  0  0  0  0  0
  163.6570  204.9910  146.0930 O   0  0  0  0  0  1  0  0  0  0  0  0
  161.9170  205.8030  144.8430 O   0  0  0  0  0  0  0  0  0  0  0  0
  162.4250  205.2310  146.0030 C   0  0  0  0  0  0  0  0  0  0  0  0
  3  1  1  0  0  0  0
  4 22  1  0  0  0  0
  5 10  1  0  0  0  0
  6 19  1  6  0  0  0
  6 23  1  0  0  0  0
  6  7  1  0  0  0  0
  8  3  1  1  0  0  0
  9 12  1  0  0  0  0
  9 16  1  0  0  0  0
 10  4  1  0  0  0  0
 13 32  1  6  0  0  0
 13 25  1  0  0  0  0
 13  5  1  0  0  0  0
 14 15  1  0  0  0  0
 16 19  1  0  0  0  0
 17 12  1  1  0  0  0
 17 28  1  0  0  0  0
 18 27  1  0  0  0  0
 20 22  2  0  0  0  0
 21 15  1  0  0  0  0
 22 21  1  0  0  0  0
 23 18  1  0  0  0  0
 23  7  1  1  0  0  0
 23  8  1  0  0  0  0
 25 29  1  6  0  0  0
 25 17  1  0  0  0  0
 26 11  1  6  0  0  0
 26  8  1  0  0  0  0
 26 14  1  0  0  0  0
 27 24  1  0  0  0  0
 27  1  1  0  0  0  0
 27  2  1  0  0  0  0
 28 11  1  0  0  0  0
 31 32  2  0  0  0  0
 32 30  1  0  0  0  0
M  END
>  <MODEL>
3

>  <REMARK>
 VINA RESULT:      -4.0      5.310      8.087
  Name = 
  1 active torsions:
  status: ('A' for Active; 'I' for Inactive)
    1  A    between atoms: C_14  and  C_26
                            x       y       z     vdW  Elec       q    Type
                         _______ _______ _______ _____ _____    ______ ____

>  <TORSDO>
F 1

$$$$
=
 OpenBabel11072411513D

 32 35  0  0  1  0  0  0  0  0999 V2000
  160.8330  205.3620  150.7810 C   0  0  0  0  0  2  0  0  0  0  0  0
  162.5700  204.4160  152.1340 F   0  0  0  0  0  0  0  0  0  0  0  0
  161.4430  206.6310  150.7050 O   0  0  0  0  0  0  0  0  0  0  0  0
  160.5950  212.6410  151.1760 N   0  0  0  0  0  2  0  0  0  0  0  0
  159.9320  213.5450  153.3170 C   0  0  0  0  0  2  0  0  0  0  0  0
  161.3550  207.6180  154.3170 C   0  0  2  0  0  3  0  0  0  0  0  0
  162.5990  207.0190  153.6720 C   0  0  0  0  0  2  0  0  0  0  0  0
  160.8680  207.3990  151.7330 C   0  0  1  0  0  3  0  0  0  0  0  0
  159.4080  208.8120  156.1500 C   0  0  0  0  0  2  0  0  0  0  0  0
  159.7200  213.6060  151.8160 C   0  0  0  0  0  2  0  0  0  0  0  0
  160.0360  209.6790  152.2570 C   0  0  0  0  0  2  0  0  0  0  0  0
  158.6710  209.3660  154.9410 C   0  0  0  0  0  2  0  0  0  0  0  0
  158.6520  213.1240  154.0300 C   0  0  1  0  0  3  0  0  0  0  0  0
  161.2670  209.3270  150.1550 C   0  0  0  0  0  2  0  0  0  0  0  0
  162.2010  210.5130  150.0020 C   0  0  0  0  0  2  0  0  0  0  0  0
  159.5460  207.2990  156.0140 C   0  0  0  0  0  2  0  0  0  0  0  0
  159.3060  210.6760  154.4690 C   0  0  2  0  0  3  0  0  0  0  0  0
  160.8160  205.4040  153.2450 O   0  0  0  0  0  0  0  0  0  0  0  0
  160.9590  206.8960  155.5950 C   0  0  0  0  0  2  0  0  0  0  0  0
  160.0990  213.3260  149.0000 O   0  0  0  0  0  0  0  0  0  0  0  0
  161.5660  211.5350  149.1850 N   0  0  0  0  0  2  0  0  0  0  0  0
  160.7200  212.5330  149.7560 C   0  0  0  0  0  0  0  0  0  0  0  0
  161.2270  206.7460  153.0820 C   0  0  2  0  0  0  0  0  0  0  0  0
  160.5550  203.4340  152.1360 F   0  0  0  0  0  0  0  0  0  0  0  0
  158.2940  211.6440  153.8190 C   0  0  1  0  0  3  0  0  0  0  0  0
  161.1800  208.9020  151.6150 C   0  0  2  0  0  3  0  0  0  0  0  0
  161.2060  204.6520  152.1030 C   0  0  0  0  0  0  0  0  0  0  0  0
  160.4840  210.3930  153.5300 C   0  0  0  0  0  2  0  0  0  0  0  0
  156.9930  211.4160  154.2800 O   0  0  0  0  0  1  0  0  0  0  0  0
  159.8100  213.5670  156.0690 O   0  0  0  0  0  0  0  0  0  0  0  0
  157.5340  213.8140  156.1690 O   0  0  0  0  0  1  0  0  0  0  0  0
  158.7000  213.5060  155.4780 C   0  0  0  0  0  0  0  0  0  0  0  0
  1 27  1  0  0  0  0
  3  1  1  0  0  0  0
  4 10  1  0  0  0  0
  5 13  1  0  0  0  0
  6  7  1  1  0  0  0
  6 19  1  0  0  0  0
  8  3  1  6  0  0  0
  8 23  1  0  0  0  0
 10  5  1  0  0  0  0
 11 28  1  0  0  0  0
 12  9  1  0  0  0  0
 13 32  1  1  0  0  0
 15 14  1  0  0  0  0
 16  9  1  0  0  0  0
 17 28  1  6  0  0  0
 17 12  1  0  0  0  0
 19 16  1  0  0  0  0
 20 22  2  0  0  0  0
 21 22  1  0  0  0  0
 21 15  1  0  0  0  0
 22  4  1  0  0  0  0
 23 18  1  0  0  0  0
 23  7  1  6  0  0  0
 23  6  1  0  0  0  0
 25 13  1  0  0  0  0
 25 29  1  1  0  0  0
 25 17  1  0  0  0  0
 26 14  1  6  0  0  0
 26  8  1  0  0  0  0
 26 11  1  0  0  0  0
 27  2  1  0  0  0  0
 27 24  1  0  0  0  0
 27 18  1  0  0  0  0
 32 30  2  0  0  0  0
 32 31  1  0  0  0  0
M  END
>  <MODEL>
4

>  <REMARK>
 VINA RESULT:      -2.7      3.985      6.819
  Name = 
  1 active torsions:
  status: ('A' for Active; 'I' for Inactive)
    1  A    between atoms: C_14  and  C_26
                            x       y       z     vdW  Elec       q    Type
                         _______ _______ _______ _____ _____    ______ ____

>  <TORSDO>
F 1

$$$$
