=
 OpenBabel11072412253D

 33 36  0  0  1  0  0  0  0  0999 V2000
  159.3280  210.0410  155.7670 C   0  0  0  0  0  2  0  0  0  0  0  0
  160.1860  211.1380  153.6550 N   0  0  0  0  0  0  0  0  0  0  0  0
  158.4960  212.3380  153.0560 C   0  0  0  0  0  0  0  0  0  0  0  0
  160.5490  210.3590  156.6120 C   0  0  0  0  0  2  0  0  0  0  0  0
  159.7440  211.9590  152.7160 N   0  0  0  0  0  0  0  0  0  0  0  0
  162.3280  210.5830  154.8460 C   0  0  0  0  0  2  0  0  0  0  0  0
  159.2290  210.9650  154.5940 C   0  0  0  0  0  0  0  0  0  0  0  0
  161.4920  210.4860  153.5640 C   0  0  1  0  0  3  0  0  0  0  0  0
  158.1220  211.7200  154.2350 C   0  0  0  0  0  0  0  0  0  0  0  0
  161.7970  209.7420  156.0000 C   0  0  0  0  0  2  0  0  0  0  0  0
  160.8420  206.7760  153.0830 C   0  0  0  0  0  3  0  0  0  0  0  0
  161.8030  208.9430  151.5810 C   0  0  0  0  0  0  0  0  0  0  0  0
  160.9450  208.0350  153.6660 C   0  0  0  0  0  3  0  0  0  0  0  0
  161.7230  207.6510  150.9960 C   0  0  0  0  0  0  0  0  0  0  0  0
  161.2240  206.5800  151.7530 C   0  0  0  0  0  0  0  0  0  0  0  0
  162.2640  210.3620  150.6350 Cl  0  0  0  0  0  0  0  0  0  0  0  0
  161.4240  209.1230  152.9290 C   0  0  0  0  0  0  0  0  0  0  0  0
  161.9390  204.3150  151.5240 O   0  0  0  0  0  1  0  0  0  0  0  0
  161.1200  205.3160  151.1700 O   0  0  0  0  0  0  0  0  0  0  0  0
  161.3220  207.7020  148.5340 C   0  0  0  0  0  1  0  0  0  0  0  0
  162.1050  207.3800  149.6730 O   0  0  0  0  0  0  0  0  0  0  0  0
  157.4350  214.4480  152.7880 O   0  0  0  0  0  1  0  0  0  0  0  0
  157.6190  213.1950  152.1980 C   0  0  1  0  0  3  0  0  0  0  0  0
  160.1540  213.7400  149.2360 C   0  0  0  0  0  0  0  0  0  0  0  0
  159.3330  213.5640  148.1990 C   0  0  0  0  0  3  0  0  0  0  0  0
  161.4940  214.0120  148.9970 O   0  0  0  0  0  1  0  0  0  0  0  0
  158.1980  213.3430  150.8280 C   0  0  0  0  0  0  0  0  0  0  0  0
  159.6730  213.6530  150.6660 C   0  0  0  0  0  2  0  0  0  0  0  0
  157.1470  213.1080  147.4280 O   0  0  0  0  0  0  0  0  0  0  0  0
  157.9140  213.2720  148.4120 C   0  0  0  0  0  0  0  0  0  0  0  0
  157.3940  213.1640  149.7780 C   0  0  0  0  0  3  0  0  0  0  0  0
  155.8630  210.9170  154.7880 C   0  0  0  0  0  2  0  0  0  0  0  0
  156.8110  211.8390  154.8940 C   0  0  0  0  0  3  0  0  0  0  0  0
  1  4  1  0  0  0  0
  2  7  1  0  0  0  0
  3  9  1  0  0  0  0
  5  3  2  0  0  0  0
  5  2  1  0  0  0  0
  6 10  1  0  0  0  0
  7  1  1  0  0  0  0
  8 17  1  1  0  0  0
  8  2  1  0  0  0  0
  8  6  1  0  0  0  0
  9  7  2  0  0  0  0
  9 33  1  0  0  0  0
 10  4  1  0  0  0  0
 11 13  1  0  0  0  0
 12 17  1  0  0  0  0
 14 12  2  0  0  0  0
 14 15  1  0  0  0  0
 15 11  2  0  0  0  0
 16 12  1  0  0  0  0
 17 13  2  0  0  0  0
 19 18  1  0  0  0  0
 19 15  1  0  0  0  0
 20 21  1  0  0  0  0
 21 14  1  0  0  0  0
 23 22  1  1  0  0  0
 23  3  1  0  0  0  0
 24 28  1  0  0  0  0
 25 30  1  0  0  0  0
 25 24  2  0  0  0  0
 26 24  1  0  0  0  0
 27 23  1  0  0  0  0
 28 27  1  0  0  0  0
 29 30  2  0  0  0  0
 30 31  1  0  0  0  0
 31 27  2  0  0  0  0
 32 33  2  0  0  0  0
M  END
>  <MODEL>
1

>  <REMARK>
 VINA RESULT:      -7.1      0.000      0.000
  Name = 
  6 active torsions:
  status: ('A' for Active; 'I' for Inactive)
    1  A    between atoms: C_9  and  C_23
    2  A    between atoms: C_15  and  C_23
    3  A    between atoms: C_16  and  O_22
    4  A    between atoms: C_19  and  C_33
    5  A    between atoms: C_20  and  O_21
    6  A    between atoms: C_25  and  C_26
                            x       y       z     vdW  Elec       q    Type
                         _______ _______ _______ _____ _____    ______ ____

>  <TORSDO>
F 6

$$$$
=
 OpenBabel11072412253D

 33 36  0  0  1  0  0  0  0  0999 V2000
  159.3360  209.9390  155.8250 C   0  0  0  0  0  2  0  0  0  0  0  0
  160.2340  211.0710  153.7470 N   0  0  0  0  0  0  0  0  0  0  0  0
  158.5620  212.2970  153.1480 C   0  0  0  0  0  0  0  0  0  0  0  0
  160.5470  210.2300  156.6930 C   0  0  0  0  0  2  0  0  0  0  0  0
  159.8110  211.9150  152.8190 N   0  0  0  0  0  0  0  0  0  0  0  0
  162.3530  210.4750  154.9580 C   0  0  0  0  0  2  0  0  0  0  0  0
  159.2610  210.8870  154.6690 C   0  0  0  0  0  0  0  0  0  0  0  0
  161.5350  210.4110  153.6630 C   0  0  1  0  0  3  0  0  0  0  0  0
  158.1660  211.6580  154.3090 C   0  0  0  0  0  0  0  0  0  0  0  0
  161.7980  209.6160  156.0870 C   0  0  0  0  0  2  0  0  0  0  0  0
  160.9010  206.7070  153.1110 C   0  0  0  0  0  3  0  0  0  0  0  0
  161.8260  208.9120  151.6430 C   0  0  0  0  0  0  0  0  0  0  0  0
  161.0050  207.9540  153.7190 C   0  0  0  0  0  3  0  0  0  0  0  0
  161.7450  207.6340  151.0310 C   0  0  0  0  0  0  0  0  0  0  0  0
  161.2640  206.5430  151.7720 C   0  0  0  0  0  0  0  0  0  0  0  0
  162.2640  210.3550  150.7210 Cl  0  0  0  0  0  0  0  0  0  0  0  0
  161.4660  209.0610  152.9990 C   0  0  0  0  0  0  0  0  0  0  0  0
  161.8400  204.2320  151.6240 O   0  0  0  0  0  1  0  0  0  0  0  0
  161.1590  205.2910  151.1630 O   0  0  0  0  0  0  0  0  0  0  0  0
  161.2990  207.7180  148.5780 C   0  0  0  0  0  1  0  0  0  0  0  0
  162.1080  207.3930  149.6970 O   0  0  0  0  0  0  0  0  0  0  0  0
  157.6050  214.4530  152.8570 O   0  0  0  0  0  1  0  0  0  0  0  0
  157.7040  213.1780  152.2950 C   0  0  1  0  0  3  0  0  0  0  0  0
  157.9830  213.1270  148.3690 C   0  0  0  0  0  0  0  0  0  0  0  0
  159.2600  213.4830  148.2270 C   0  0  0  0  0  3  0  0  0  0  0  0
  157.2180  212.8910  147.2350 O   0  0  0  0  0  1  0  0  0  0  0  0
  158.2460  213.2610  150.9050 C   0  0  0  0  0  0  0  0  0  0  0  0
  157.3370  212.9730  149.7260 C   0  0  0  0  0  2  0  0  0  0  0  0
  161.3020  214.0780  149.2570 O   0  0  0  0  0  0  0  0  0  0  0  0
  160.0970  213.7440  149.4000 C   0  0  0  0  0  0  0  0  0  0  0  0
  159.5210  213.6220  150.7410 C   0  0  0  0  0  3  0  0  0  0  0  0
  155.8670  210.9030  154.7520 C   0  0  0  0  0  2  0  0  0  0  0  0
  156.8460  211.7750  154.9510 C   0  0  0  0  0  3  0  0  0  0  0  0
  1  4  1  0  0  0  0
  2  7  1  0  0  0  0
  3  9  1  0  0  0  0
  5  3  2  0  0  0  0
  5  2  1  0  0  0  0
  6 10  1  0  0  0  0
  7  1  1  0  0  0  0
  8 17  1  1  0  0  0
  8  2  1  0  0  0  0
  8  6  1  0  0  0  0
  9  7  2  0  0  0  0
  9 33  1  0  0  0  0
 10  4  1  0  0  0  0
 11 13  1  0  0  0  0
 12 17  1  0  0  0  0
 14 12  2  0  0  0  0
 14 15  1  0  0  0  0
 15 11  2  0  0  0  0
 16 12  1  0  0  0  0
 17 13  2  0  0  0  0
 19 18  1  0  0  0  0
 19 15  1  0  0  0  0
 20 21  1  0  0  0  0
 21 14  1  0  0  0  0
 23 22  1  1  0  0  0
 23  3  1  0  0  0  0
 24 28  1  0  0  0  0
 25 24  2  0  0  0  0
 25 30  1  0  0  0  0
 26 24  1  0  0  0  0
 27 23  1  0  0  0  0
 28 27  1  0  0  0  0
 29 30  2  0  0  0  0
 30 31  1  0  0  0  0
 31 27  2  0  0  0  0
 32 33  2  0  0  0  0
M  END
>  <MODEL>
2

>  <REMARK>
 VINA RESULT:      -7.0      0.143      1.444
  Name = 
  6 active torsions:
  status: ('A' for Active; 'I' for Inactive)
    1  A    between atoms: C_9  and  C_23
    2  A    between atoms: C_15  and  C_23
    3  A    between atoms: C_16  and  O_22
    4  A    between atoms: C_19  and  C_33
    5  A    between atoms: C_20  and  O_21
    6  A    between atoms: C_25  and  C_26
                            x       y       z     vdW  Elec       q    Type
                         _______ _______ _______ _____ _____    ______ ____

>  <TORSDO>
F 6

$$$$
=
 OpenBabel11072412253D

 33 36  0  0  1  0  0  0  0  0999 V2000
  160.4690  212.7230  156.4450 C   0  0  0  0  0  2  0  0  0  0  0  0
  159.0530  210.8970  155.4130 N   0  0  0  0  0  0  0  0  0  0  0  0
  160.2740  209.1480  155.7370 C   0  0  0  0  0  0  0  0  0  0  0  0
  159.3480  213.3430  157.2610 C   0  0  0  0  0  2  0  0  0  0  0  0
  159.1270  209.5940  155.1890 N   0  0  0  0  0  0  0  0  0  0  0  0
  157.3260  212.6460  155.9340 C   0  0  0  0  0  2  0  0  0  0  0  0
  160.1530  211.3050  156.0860 C   0  0  0  0  0  0  0  0  0  0  0  0
  157.9580  211.7140  154.8930 C   0  0  1  0  0  3  0  0  0  0  0  0
  160.9650  210.2020  156.3050 C   0  0  0  0  0  0  0  0  0  0  0  0
  158.2210  213.8060  156.3530 C   0  0  0  0  0  2  0  0  0  0  0  0
  159.8250  212.6800  151.7300 C   0  0  0  0  0  3  0  0  0  0  0  0
  157.2960  213.0940  152.8760 C   0  0  0  0  0  0  0  0  0  0  0  0
  159.5290  212.1390  152.9770 C   0  0  0  0  0  3  0  0  0  0  0  0
  157.6090  213.6680  151.6150 C   0  0  0  0  0  0  0  0  0  0  0  0
  158.8710  213.4380  151.0460 C   0  0  0  0  0  0  0  0  0  0  0  0
  155.6750  213.2060  153.5690 Cl  0  0  0  0  0  0  0  0  0  0  0  0
  158.2730  212.3390  153.5600 C   0  0  0  0  0  0  0  0  0  0  0  0
  160.0890  213.4220  148.9940 O   0  0  0  0  0  1  0  0  0  0  0  0
  159.1690  213.9800  149.7940 O   0  0  0  0  0  0  0  0  0  0  0  0
  155.8210  213.9430  149.8970 C   0  0  0  0  0  1  0  0  0  0  0  0
  156.7070  214.4530  150.8810 O   0  0  0  0  0  0  0  0  0  0  0  0
  159.8510  206.8530  156.1900 O   0  0  0  0  0  1  0  0  0  0  0  0
  160.7650  207.7390  155.6150 C   0  0  1  0  0  3  0  0  0  0  0  0
  161.5260  208.0000  151.7620 C   0  0  0  0  0  0  0  0  0  0  0  0
  161.5450  206.7050  151.4460 C   0  0  0  0  0  3  0  0  0  0  0  0
  161.7670  208.9410  150.7700 O   0  0  0  0  0  1  0  0  0  0  0  0
  161.0090  207.3830  154.1850 C   0  0  0  0  0  0  0  0  0  0  0  0
  161.2510  208.4810  153.1680 C   0  0  0  0  0  2  0  0  0  0  0  0
  161.3160  204.4640  152.1590 O   0  0  0  0  0  0  0  0  0  0  0  0
  161.2980  205.6840  152.4660 C   0  0  0  0  0  0  0  0  0  0  0  0
  161.0380  206.0910  153.8490 C   0  0  0  0  0  3  0  0  0  0  0  0
  163.3370  210.8140  156.5310 C   0  0  0  0  0  2  0  0  0  0  0  0
  162.2870  210.1200  156.9490 C   0  0  0  0  0  3  0  0  0  0  0  0
  1  4  1  0  0  0  0
  2  7  1  0  0  0  0
  3  9  1  0  0  0  0
  5  2  1  0  0  0  0
  5  3  2  0  0  0  0
  6 10  1  0  0  0  0
  7  9  2  0  0  0  0
  7  1  1  0  0  0  0
  8 17  1  6  0  0  0
  8  2  1  0  0  0  0
  8  6  1  0  0  0  0
  9 33  1  0  0  0  0
 10  4  1  0  0  0  0
 11 13  1  0  0  0  0
 12 17  1  0  0  0  0
 12 16  1  0  0  0  0
 13 17  2  0  0  0  0
 14 12  2  0  0  0  0
 15 14  1  0  0  0  0
 15 11  2  0  0  0  0
 18 19  1  0  0  0  0
 19 15  1  0  0  0  0
 20 21  1  0  0  0  0
 21 14  1  0  0  0  0
 23  3  1  0  0  0  0
 23 22  1  6  0  0  0
 24 28  1  0  0  0  0
 25 24  2  0  0  0  0
 25 30  1  0  0  0  0
 26 24  1  0  0  0  0
 27 23  1  0  0  0  0
 28 27  1  0  0  0  0
 29 30  2  0  0  0  0
 30 31  1  0  0  0  0
 31 27  2  0  0  0  0
 32 33  2  0  0  0  0
M  END
>  <MODEL>
3

>  <REMARK>
 VINA RESULT:      -6.6      2.261      6.707
  Name = 
  6 active torsions:
  status: ('A' for Active; 'I' for Inactive)
    1  A    between atoms: C_9  and  C_23
    2  A    between atoms: C_15  and  C_23
    3  A    between atoms: C_16  and  O_22
    4  A    between atoms: C_19  and  C_33
    5  A    between atoms: C_20  and  O_21
    6  A    between atoms: C_25  and  C_26
                            x       y       z     vdW  Elec       q    Type
                         _______ _______ _______ _____ _____    ______ ____

>  <TORSDO>
F 6

$$$$
=
 OpenBabel11072412253D

 33 36  0  0  1  0  0  0  0  0999 V2000
  159.2700  210.7310  152.8090 C   0  0  0  0  0  2  0  0  0  0  0  0
  161.2360  211.1590  151.2740 N   0  0  0  0  0  0  0  0  0  0  0  0
  160.5570  212.8680  150.1440 C   0  0  0  0  0  0  0  0  0  0  0  0
  160.0920  210.6180  154.0820 C   0  0  0  0  0  2  0  0  0  0  0  0
  161.5650  211.9840  150.2930 N   0  0  0  0  0  0  0  0  0  0  0  0
  162.3290  209.9180  153.1660 C   0  0  0  0  0  2  0  0  0  0  0  0
  160.0150  211.4870  151.7530 C   0  0  0  0  0  0  0  0  0  0  0  0
  162.0840  210.0310  151.6570 C   0  0  1  0  0  3  0  0  0  0  0  0
  159.5450  212.5810  151.0410 C   0  0  0  0  0  0  0  0  0  0  0  0
  161.1040  209.4900  153.9650 C   0  0  0  0  0  2  0  0  0  0  0  0
  160.8190  206.5000  151.0620 C   0  0  0  0  0  3  0  0  0  0  0  0
  161.8250  208.6430  149.5550 C   0  0  0  0  0  0  0  0  0  0  0  0
  161.2030  207.6770  151.6960 C   0  0  0  0  0  3  0  0  0  0  0  0
  161.4580  207.4320  148.9110 C   0  0  0  0  0  0  0  0  0  0  0  0
  160.9390  206.3740  149.6750 C   0  0  0  0  0  0  0  0  0  0  0  0
  162.3270  210.0660  148.6350 Cl  0  0  0  0  0  0  0  0  0  0  0  0
  161.7080  208.7510  150.9570 C   0  0  0  0  0  0  0  0  0  0  0  0
  160.5670  204.0170  149.6840 O   0  0  0  0  0  1  0  0  0  0  0  0
  160.5520  205.1930  149.0400 O   0  0  0  0  0  0  0  0  0  0  0  0
  162.1770  206.0960  146.9310 C   0  0  0  0  0  1  0  0  0  0  0  0
  161.5670  207.2300  147.5270 O   0  0  0  0  0  0  0  0  0  0  0  0
  161.7800  214.4520  148.8630 O   0  0  0  0  0  1  0  0  0  0  0  0
  160.5100  213.9090  149.0710 C   0  0  1  0  0  3  0  0  0  0  0  0
  158.0480  212.5870  146.2990 C   0  0  0  0  0  0  0  0  0  0  0  0
  158.9230  212.3020  145.3340 C   0  0  0  0  0  3  0  0  0  0  0  0
  156.6960  212.3770  146.0670 O   0  0  0  0  0  1  0  0  0  0  0  0
  159.9720  213.3370  147.7990 C   0  0  0  0  0  0  0  0  0  0  0  0
  158.4790  213.1320  147.6410 C   0  0  0  0  0  2  0  0  0  0  0  0
  161.1770  212.2410  144.6260 O   0  0  0  0  0  0  0  0  0  0  0  0
  160.3580  212.5130  145.5420 C   0  0  0  0  0  0  0  0  0  0  0  0
  160.8320  213.0510  146.8190 C   0  0  0  0  0  3  0  0  0  0  0  0
  157.8760  213.9380  152.2350 C   0  0  0  0  0  2  0  0  0  0  0  0
  158.2570  213.2870  151.1440 C   0  0  0  0  0  3  0  0  0  0  0  0
  1  4  1  0  0  0  0
  2  8  1  0  0  0  0
  2  7  1  0  0  0  0
  3  5  2  0  0  0  0
  3  9  1  0  0  0  0
  5  2  1  0  0  0  0
  6 10  1  0  0  0  0
  7  1  1  0  0  0  0
  8 17  1  1  0  0  0
  8  6  1  0  0  0  0
  9 33  1  0  0  0  0
  9  7  2  0  0  0  0
 10  4  1  0  0  0  0
 11 13  1  0  0  0  0
 12 17  1  0  0  0  0
 14 12  2  0  0  0  0
 14 15  1  0  0  0  0
 15 11  2  0  0  0  0
 16 12  1  0  0  0  0
 17 13  2  0  0  0  0
 19 15  1  0  0  0  0
 19 18  1  0  0  0  0
 20 21  1  0  0  0  0
 21 14  1  0  0  0  0
 23 22  1  6  0  0  0
 23  3  1  0  0  0  0
 24 28  1  0  0  0  0
 25 30  1  0  0  0  0
 25 24  2  0  0  0  0
 26 24  1  0  0  0  0
 27 23  1  0  0  0  0
 28 27  1  0  0  0  0
 29 30  2  0  0  0  0
 30 31  1  0  0  0  0
 31 27  2  0  0  0  0
 33 32  2  0  0  0  0
M  END
>  <MODEL>
4

>  <REMARK>
 VINA RESULT:      -5.5      2.043      3.314
  Name = 
  6 active torsions:
  status: ('A' for Active; 'I' for Inactive)
    1  A    between atoms: C_9  and  C_23
    2  A    between atoms: C_15  and  C_23
    3  A    between atoms: C_16  and  O_22
    4  A    between atoms: C_19  and  C_33
    5  A    between atoms: C_20  and  O_21
    6  A    between atoms: C_25  and  C_26
                            x       y       z     vdW  Elec       q    Type
                         _______ _______ _______ _____ _____    ______ ____

>  <TORSDO>
F 6

$$$$
=
 OpenBabel11072412253D

 33 36  0  0  1  0  0  0  0  0999 V2000
  162.3560  210.8530  148.2150 C   0  0  0  0  0  2  0  0  0  0  0  0
  161.2240  212.1670  150.0580 N   0  0  0  0  0  0  0  0  0  0  0  0
  161.0870  210.6990  151.6340 C   0  0  0  0  0  0  0  0  0  0  0  0
  163.4040  211.9050  147.8980 C   0  0  0  0  0  2  0  0  0  0  0  0
  160.7760  211.9640  151.2870 N   0  0  0  0  0  0  0  0  0  0  0  0
  162.2540  214.0010  148.6840 C   0  0  0  0  0  2  0  0  0  0  0  0
  161.8070  211.0380  149.5950 C   0  0  0  0  0  0  0  0  0  0  0  0
  160.9980  213.4230  149.3460 C   0  0  1  0  0  3  0  0  0  0  0  0
  161.7290  210.0690  150.5850 C   0  0  0  0  0  0  0  0  0  0  0  0
  162.7420  213.2070  147.4780 C   0  0  0  0  0  2  0  0  0  0  0  0
  158.6760  212.7980  146.4060 C   0  0  0  0  0  3  0  0  0  0  0  0
  158.5310  213.8730  148.9950 C   0  0  0  0  0  0  0  0  0  0  0  0
  159.8180  212.8620  147.1980 C   0  0  0  0  0  3  0  0  0  0  0  0
  157.3710  213.8320  148.1750 C   0  0  0  0  0  0  0  0  0  0  0  0
  157.4540  213.2750  146.8890 C   0  0  0  0  0  0  0  0  0  0  0  0
  158.4580  214.4070  150.6780 Cl  0  0  0  0  0  0  0  0  0  0  0  0
  159.7590  213.3970  148.4890 C   0  0  0  0  0  0  0  0  0  0  0  0
  155.8230  214.2970  145.4790 O   0  0  0  0  0  1  0  0  0  0  0  0
  156.3090  213.2090  146.0940 O   0  0  0  0  0  0  0  0  0  0  0  0
  155.4350  213.8570  149.7490 C   0  0  0  0  0  1  0  0  0  0  0  0
  156.1180  214.3070  148.5890 O   0  0  0  0  0  0  0  0  0  0  0  0
  161.7760  209.5370  153.5890 O   0  0  0  0  0  1  0  0  0  0  0  0
  160.6660  210.0580  152.9190 C   0  0  1  0  0  3  0  0  0  0  0  0
  157.8580  212.3510  154.4530 C   0  0  0  0  0  0  0  0  0  0  0  0
  158.5220  212.8580  155.4920 C   0  0  0  0  0  3  0  0  0  0  0  0
  156.5350  212.7190  154.2520 O   0  0  0  0  0  1  0  0  0  0  0  0
  159.9420  211.0340  153.7880 C   0  0  0  0  0  0  0  0  0  0  0  0
  158.4990  211.3850  153.4830 C   0  0  0  0  0  2  0  0  0  0  0  0
  160.5370  212.9750  156.7210 O   0  0  0  0  0  0  0  0  0  0  0  0
  159.9180  212.4900  155.7380 C   0  0  0  0  0  0  0  0  0  0  0  0
  160.5870  211.5490  154.8380 C   0  0  0  0  0  3  0  0  0  0  0  0
  161.4020  207.6710  150.1390 C   0  0  0  0  0  2  0  0  0  0  0  0
  162.1720  208.6640  150.5630 C   0  0  0  0  0  3  0  0  0  0  0  0
  1  7  1  0  0  0  0
  2  5  1  0  0  0  0
  3 23  1  0  0  0  0
  4  1  1  0  0  0  0
  5  3  2  0  0  0  0
  6  8  1  0  0  0  0
  7  2  1  0  0  0  0
  7  9  2  0  0  0  0
  8 17  1  6  0  0  0
  8  2  1  0  0  0  0
  9  3  1  0  0  0  0
 10  4  1  0  0  0  0
 10  6  1  0  0  0  0
 11 15  2  0  0  0  0
 11 13  1  0  0  0  0
 12 16  1  0  0  0  0
 13 17  2  0  0  0  0
 14 21  1  0  0  0  0
 14 12  2  0  0  0  0
 15 14  1  0  0  0  0
 17 12  1  0  0  0  0
 18 19  1  0  0  0  0
 19 15  1  0  0  0  0
 21 20  1  0  0  0  0
 23 22  1  1  0  0  0
 23 27  1  0  0  0  0
 24 25  2  0  0  0  0
 25 30  1  0  0  0  0
 26 24  1  0  0  0  0
 27 31  2  0  0  0  0
 28 27  1  0  0  0  0
 28 24  1  0  0  0  0
 30 29  2  0  0  0  0
 31 30  1  0  0  0  0
 32 33  2  0  0  0  0
 33  9  1  0  0  0  0
M  END
>  <MODEL>
5

>  <REMARK>
 VINA RESULT:      -4.6      2.621      7.416
  Name = 
  6 active torsions:
  status: ('A' for Active; 'I' for Inactive)
    1  A    between atoms: C_9  and  C_23
    2  A    between atoms: C_15  and  C_23
    3  A    between atoms: C_16  and  O_22
    4  A    between atoms: C_19  and  C_33
    5  A    between atoms: C_20  and  O_21
    6  A    between atoms: C_25  and  C_26
                            x       y       z     vdW  Elec       q    Type
                         _______ _______ _______ _____ _____    ______ ____

>  <TORSDO>
F 6

$$$$
=
 OpenBabel11072412253D

 33 36  0  0  1  0  0  0  0  0999 V2000
  158.5560  210.2290  154.4980 C   0  0  0  0  0  2  0  0  0  0  0  0
  160.5480  211.1710  153.2560 N   0  0  0  0  0  0  0  0  0  0  0  0
  159.7080  212.9300  152.3320 C   0  0  0  0  0  0  0  0  0  0  0  0
  159.2800  210.0240  155.8170 C   0  0  0  0  0  2  0  0  0  0  0  0
  160.8230  212.1840  152.4490 N   0  0  0  0  0  0  0  0  0  0  0  0
  161.6640  209.8010  155.0420 C   0  0  0  0  0  2  0  0  0  0  0  0
  159.2570  211.2430  153.6500 C   0  0  0  0  0  0  0  0  0  0  0  0
  161.5260  210.1250  153.5500 C   0  0  1  0  0  3  0  0  0  0  0  0
  158.6830  212.3620  153.0660 C   0  0  0  0  0  0  0  0  0  0  0  0
  160.4590  209.0820  155.6370 C   0  0  0  0  0  2  0  0  0  0  0  0
  160.8170  206.6120  152.2930 C   0  0  0  0  0  3  0  0  0  0  0  0
  161.7060  209.0650  151.2580 C   0  0  0  0  0  0  0  0  0  0  0  0
  160.9650  207.7100  153.1340 C   0  0  0  0  0  3  0  0  0  0  0  0
  161.5810  207.9360  150.4050 C   0  0  0  0  0  0  0  0  0  0  0  0
  161.1180  206.7200  150.9320 C   0  0  0  0  0  0  0  0  0  0  0  0
  162.1230  210.6620  150.6270 Cl  0  0  0  0  0  0  0  0  0  0  0  0
  161.4080  208.9370  152.6310 C   0  0  0  0  0  0  0  0  0  0  0  0
  161.1020  204.3650  150.5470 O   0  0  0  0  0  1  0  0  0  0  0  0
  160.9680  205.6180  150.0880 O   0  0  0  0  0  0  0  0  0  0  0  0
  162.8980  207.1930  148.4210 C   0  0  0  0  0  1  0  0  0  0  0  0
  161.8800  207.9690  149.0340 O   0  0  0  0  0  0  0  0  0  0  0  0
  160.8330  214.4500  150.8930 O   0  0  0  0  0  1  0  0  0  0  0  0
  159.5870  214.1170  151.4280 C   0  0  1  0  0  3  0  0  0  0  0  0
  157.9950  213.0230  147.9980 C   0  0  0  0  0  0  0  0  0  0  0  0
  156.7110  213.2800  148.2510 C   0  0  0  0  0  3  0  0  0  0  0  0
  158.3460  212.4950  146.7630 O   0  0  0  0  0  1  0  0  0  0  0  0
  158.6030  213.8530  150.3340 C   0  0  0  0  0  0  0  0  0  0  0  0
  159.0830  213.2860  149.0130 C   0  0  0  0  0  2  0  0  0  0  0  0
  155.0880  214.0750  149.7730 O   0  0  0  0  0  0  0  0  0  0  0  0
  156.3010  213.8340  149.5430 C   0  0  0  0  0  0  0  0  0  0  0  0
  157.3120  214.0980  150.5700 C   0  0  0  0  0  3  0  0  0  0  0  0
  156.7490  213.2990  154.2630 C   0  0  0  0  0  2  0  0  0  0  0  0
  157.2980  212.8570  153.1400 C   0  0  0  0  0  3  0  0  0  0  0  0
  1  4  1  0  0  0  0
  2  8  1  0  0  0  0
  2  7  1  0  0  0  0
  3  5  2  0  0  0  0
  3  9  1  0  0  0  0
  5  2  1  0  0  0  0
  6 10  1  0  0  0  0
  7  1  1  0  0  0  0
  8 17  1  6  0  0  0
  8  6  1  0  0  0  0
  9 33  1  0  0  0  0
  9  7  2  0  0  0  0
 10  4  1  0  0  0  0
 11 13  1  0  0  0  0
 12 17  1  0  0  0  0
 14 15  1  0  0  0  0
 14 12  2  0  0  0  0
 15 11  2  0  0  0  0
 16 12  1  0  0  0  0
 17 13  2  0  0  0  0
 19 18  1  0  0  0  0
 19 15  1  0  0  0  0
 20 21  1  0  0  0  0
 21 14  1  0  0  0  0
 23 22  1  6  0  0  0
 23  3  1  0  0  0  0
 24 25  2  0  0  0  0
 24 28  1  0  0  0  0
 25 30  1  0  0  0  0
 26 24  1  0  0  0  0
 27 31  2  0  0  0  0
 27 23  1  0  0  0  0
 28 27  1  0  0  0  0
 30 29  2  0  0  0  0
 30 31  1  0  0  0  0
 33 32  2  0  0  0  0
M  END
>  <MODEL>
6

>  <REMARK>
 VINA RESULT:      -4.2      1.289      1.800
  Name = 
  6 active torsions:
  status: ('A' for Active; 'I' for Inactive)
    1  A    between atoms: C_9  and  C_23
    2  A    between atoms: C_15  and  C_23
    3  A    between atoms: C_16  and  O_22
    4  A    between atoms: C_19  and  C_33
    5  A    between atoms: C_20  and  O_21
    6  A    between atoms: C_25  and  C_26
                            x       y       z     vdW  Elec       q    Type
                         _______ _______ _______ _____ _____    ______ ____

>  <TORSDO>
F 6

$$$$
=
 OpenBabel11072412253D

 33 36  0  0  1  0  0  0  0  0999 V2000
  160.8420  211.9070  155.2570 C   0  0  0  0  0  2  0  0  0  0  0  0
  159.7950  210.1750  153.7380 N   0  0  0  0  0  0  0  0  0  0  0  0
  160.7370  208.3560  154.4190 C   0  0  0  0  0  0  0  0  0  0  0  0
  159.5370  212.5800  155.6440 C   0  0  0  0  0  2  0  0  0  0  0  0
  159.8800  208.8730  153.5160 N   0  0  0  0  0  0  0  0  0  0  0  0
  158.0820  212.0120  153.6700 C   0  0  0  0  0  2  0  0  0  0  0  0
  160.6050  210.5130  154.7670 C   0  0  0  0  0  0  0  0  0  0  0  0
  158.9940  211.0570  152.8910 C   0  0  1  0  0  3  0  0  0  0  0  0
  161.2330  209.3640  155.2250 C   0  0  0  0  0  0  0  0  0  0  0  0
  158.8270  213.1160  154.4120 C   0  0  0  0  0  2  0  0  0  0  0  0
  161.7620  211.6780  150.3670 C   0  0  0  0  0  3  0  0  0  0  0  0
  159.2740  212.7780  151.0550 C   0  0  0  0  0  0  0  0  0  0  0  0
  161.0300  211.1380  151.4190 C   0  0  0  0  0  3  0  0  0  0  0  0
  160.0340  213.3440  149.9970 C   0  0  0  0  0  0  0  0  0  0  0  0
  161.2690  212.7730  149.6520 C   0  0  0  0  0  0  0  0  0  0  0  0
  157.6420  213.3430  151.4300 Cl  0  0  0  0  0  0  0  0  0  0  0  0
  159.7900  211.6780  151.7740 C   0  0  0  0  0  0  0  0  0  0  0  0
  162.1160  212.6700  147.4240 O   0  0  0  0  0  1  0  0  0  0  0  0
  162.0040  213.3130  148.5950 O   0  0  0  0  0  0  0  0  0  0  0  0
  158.6950  214.3820  148.1660 C   0  0  0  0  0  1  0  0  0  0  0  0
  159.6090  214.4530  149.2500 O   0  0  0  0  0  0  0  0  0  0  0  0
  160.3130  206.1650  155.2370 O   0  0  0  0  0  1  0  0  0  0  0  0
  161.1700  206.9240  154.4360 C   0  0  1  0  0  3  0  0  0  0  0  0
  161.5310  206.6150  150.5290 C   0  0  0  0  0  0  0  0  0  0  0  0
  161.3830  205.2970  150.3900 C   0  0  0  0  0  3  0  0  0  0  0  0
  161.7570  207.3910  149.4000 O   0  0  0  0  0  1  0  0  0  0  0  0
  161.2200  206.3670  153.0500 C   0  0  0  0  0  0  0  0  0  0  0  0
  161.4610  207.2950  151.8760 C   0  0  0  0  0  2  0  0  0  0  0  0
  161.0070  203.2030  151.4190 O   0  0  0  0  0  0  0  0  0  0  0  0
  161.1470  204.4460  151.5580 C   0  0  0  0  0  0  0  0  0  0  0  0
  161.0810  205.0490  152.8910 C   0  0  0  0  0  3  0  0  0  0  0  0
  162.5830  210.1840  157.1120 C   0  0  0  0  0  2  0  0  0  0  0  0
  162.2370  209.2020  156.2900 C   0  0  0  0  0  3  0  0  0  0  0  0
  1  4  1  0  0  0  0
  2  7  1  0  0  0  0
  3 23  1  0  0  0  0
  3  9  1  0  0  0  0
  5  2  1  0  0  0  0
  5  3  2  0  0  0  0
  6 10  1  0  0  0  0
  7  9  2  0  0  0  0
  7  1  1  0  0  0  0
  8 17  1  1  0  0  0
  8  6  1  0  0  0  0
  8  2  1  0  0  0  0
  9 33  1  0  0  0  0
 10  4  1  0  0  0  0
 11 13  1  0  0  0  0
 12 16  1  0  0  0  0
 12 17  1  0  0  0  0
 13 17  2  0  0  0  0
 14 12  2  0  0  0  0
 15 14  1  0  0  0  0
 15 11  2  0  0  0  0
 18 19  1  0  0  0  0
 19 15  1  0  0  0  0
 20 21  1  0  0  0  0
 21 14  1  0  0  0  0
 23 22  1  1  0  0  0
 24 28  1  0  0  0  0
 25 24  2  0  0  0  0
 25 30  1  0  0  0  0
 26 24  1  0  0  0  0
 27 23  1  0  0  0  0
 28 27  1  0  0  0  0
 29 30  2  0  0  0  0
 30 31  1  0  0  0  0
 31 27  2  0  0  0  0
 33 32  2  0  0  0  0
M  END
>  <MODEL>
7

>  <REMARK>
 VINA RESULT:      -4.1      1.961      6.514
  Name = 
  6 active torsions:
  status: ('A' for Active; 'I' for Inactive)
    1  A    between atoms: C_9  and  C_23
    2  A    between atoms: C_15  and  C_23
    3  A    between atoms: C_16  and  O_22
    4  A    between atoms: C_19  and  C_33
    5  A    between atoms: C_20  and  O_21
    6  A    between atoms: C_25  and  C_26
                            x       y       z     vdW  Elec       q    Type
                         _______ _______ _______ _____ _____    ______ ____

>  <TORSDO>
F 6

$$$$
