=
 OpenBabel11072412583D

 48 52  0  0  1  0  0  0  0  0999 V2000
  162.4170  206.8470  146.4730 O   0  0  0  0  0  1  0  0  0  0  0  0
  161.2930  209.1000  150.8610 C   0  0  0  0  0  2  0  0  0  0  0  0
  163.2720  208.9430  148.3290 C   0  0  0  0  0  1  0  0  0  0  0  0
  159.4150  206.4430  148.2140 C   0  0  0  0  0  1  0  0  0  0  0  0
  161.1490  208.8570  152.3880 C   0  0  2  0  0  3  0  0  0  0  0  0
  160.7340  204.4540  146.3990 O   0  0  0  0  0  1  0  0  0  0  0  0
  162.1050  206.3270  151.8940 C   0  0  0  0  0  2  0  0  0  0  0  0
  161.8500  206.9980  147.7720 C   0  0  1  0  0  3  0  0  0  0  0  0
  160.2180  203.7830  151.4430 C   0  0  0  0  0  1  0  0  0  0  0  0
  161.9730  207.8690  150.2150 C   0  0  2  0  0  3  0  0  0  0  0  0
  160.9260  205.9090  148.3030 C   0  0  1  0  0  0  0  0  0  0  0  0
  162.7530  207.6880  148.8390 C   0  0  2  0  0  3  0  0  0  0  0  0
  161.8200  207.4420  152.9060 C   0  0  0  0  0  2  0  0  0  0  0  0
  161.3680  206.6080  150.6760 N   0  0  1  0  0  0  0  0  0  0  0  0
  160.6510  203.5700  148.6300 C   0  0  1  0  0  3  0  0  0  0  0  0
  161.5690  205.5530  149.7480 C   0  0  1  0  0  3  0  0  0  0  0  0
  160.7540  204.2830  150.0280 C   0  0  2  0  0  3  0  0  0  0  0  0
  161.2920  204.5790  147.6510 C   0  0  1  0  0  3  0  0  0  0  0  0
  161.4270  202.3560  148.6270 N   0  0  0  0  0  0  0  0  0  0  0  0
  161.1990  201.5460  147.4270 C   0  0  0  0  0  3  0  0  0  0  0  0
  161.9860  200.2060  147.4360 C   0  0  0  0  0  1  0  0  0  0  0  0
  159.7000  201.3150  147.2310 C   0  0  0  0  0  1  0  0  0  0  0  0
  160.2440  200.9740  150.2860 O   0  0  0  0  0  1  0  0  0  0  0  0
  161.4780  201.4910  149.8880 C   0  0  0  0  0  2  0  0  0  0  0  0
  160.0430  209.4080  153.0740 O   0  0  0  0  0  0  0  0  0  0  0  0
  159.5010  210.9500  155.1380 C   0  0  0  0  0  1  0  0  0  0  0  0
  161.7900  210.7340  153.9260 C   0  0  0  0  0  1  0  0  0  0  0  0
  160.3010  210.7110  153.7200 C   0  0  0  0  0  0  0  0  0  0  0  0
  159.7680  211.9040  152.7730 C   0  0  1  0  0  3  0  0  0  0  0  0
  158.0370  213.6700  153.4380 C   0  0  0  0  0  2  0  0  0  0  0  0
  159.2210  213.0980  153.4290 N   0  0  0  0  0  0  0  0  0  0  0  0
  160.6120  212.1120  151.5140 C   0  0  0  0  0  2  0  0  0  0  0  0
  159.8810  213.0700  150.8810 C   0  0  0  0  0  2  0  0  0  0  0  0
  159.9580  212.3030  144.5910 C   0  0  2  0  0  3  0  0  0  0  0  0
  162.4840  213.0350  147.9490 C   0  0  1  0  0  3  0  0  0  0  0  0
  158.6120  214.4070  148.8990 C   0  0  0  0  0  2  0  0  0  0  0  0
  160.2860  211.2230  143.5520 C   0  0  0  0  0  1  0  0  0  0  0  0
  159.9970  213.6970  146.3080 C   0  0  2  0  0  3  0  0  0  0  0  0
  159.7830  213.8980  148.6460 C   0  0  0  0  0  0  0  0  0  0  0  0
  161.8450  212.3130  149.1610 C   0  0  0  0  0  2  0  0  0  0  0  0
  159.6840  213.5190  144.2350 C   0  0  0  0  0  2  0  0  0  0  0  0
  160.4980  214.3840  147.4740 N   0  0  0  0  0  0  0  0  0  0  0  0
  161.9210  214.4530  147.6610 C   0  0  0  0  0  2  0  0  0  0  0  0
  159.9110  210.9950  146.8000 C   0  0  0  0  0  1  0  0  0  0  0  0
  160.4490  212.2500  145.9970 C   0  0  1  0  0  3  0  0  0  0  0  0
  159.6800  214.4430  145.3120 N   0  0  0  0  0  2  0  0  0  0  0  0
  160.3610  212.7140  149.4740 C   0  0  1  0  0  3  0  0  0  0  0  0
  163.8560  213.0400  148.0120 O   0  0  0  0  0  1  0  0  0  0  0  0
  2  5  1  0  0  0  0
  5 13  1  0  0  0  0
  5 25  1  6  0  0  0
  6 18  1  0  0  0  0
  7 13  1  0  0  0  0
  8  1  1  6  0  0  0
  8 11  1  0  0  0  0
  8 12  1  0  0  0  0
 10 14  1  0  0  0  0
 10  2  1  6  0  0  0
 11  4  1  1  0  0  0
 11 16  1  0  0  0  0
 12  3  1  6  0  0  0
 12 10  1  0  0  0  0
 14  7  1  1  0  0  0
 15 19  1  1  0  0  0
 15 17  1  0  0  0  0
 16 17  1  0  0  0  0
 16 14  1  0  0  0  0
 17  9  1  0  0  0  0
 18 11  1  0  0  0  0
 18 15  1  0  0  0  0
 19 24  1  0  0  0  0
 20 21  1  0  0  0  0
 20 19  1  0  0  0  0
 22 20  1  0  0  0  0
 24 23  1  0  0  0  0
 25 28  1  0  0  0  0
 28 27  1  0  0  0  0
 28 26  1  0  0  0  0
 29 31  1  0  0  0  0
 29 28  1  0  0  0  0
 31 30  2  0  0  0  0
 32 29  1  0  0  0  0
 33 32  1  0  0  0  0
 34 45  1  0  0  0  0
 35 48  1  0  0  0  0
 35 40  1  0  0  0  0
 37 34  1  0  0  0  0
 38 42  1  0  0  0  0
 39 36  2  0  0  0  0
 39 47  1  0  0  0  0
 40 47  1  0  0  0  0
 41 34  1  0  0  0  0
 41 46  1  0  0  0  0
 42 43  1  0  0  0  0
 42 39  1  0  0  0  0
 43 35  1  0  0  0  0
 45 38  1  0  0  0  0
 45 44  1  0  0  0  0
 46 38  1  0  0  0  0
 47 33  1  0  0  0  0
M  END
>  <MODEL>
1

>  <REMARK>
 VINA RESULT:      -1.7      0.000      0.000
  Name = 
  10 active torsions:
  status: ('A' for Active; 'I' for Inactive)
    1  A    between atoms: N_2  and  C_22
    2  A    between atoms: N_2  and  C_37
    3  A    between atoms: N_2  and  C_39
    4  A    between atoms: C_10  and  O_25
    5  A    between atoms: N_11  and  C_46
    6  A    between atoms: C_13  and  C_15
    7  A    between atoms: C_13  and  C_47
    8  A    between atoms: C_15  and  C_46
    9  A    between atoms: O_25  and  C_28
   10  A    between atoms: C_28  and  C_46
                            x       y       z     vdW  Elec       q    Type
                         _______ _______ _______ _____ _____    ______ ____

>  <TORSDO>
F 10

$$$$
=
 OpenBabel11072412583D

 48 52  0  0  1  0  0  0  0  0999 V2000
  162.4430  205.8890  151.2050 O   0  0  0  0  0  1  0  0  0  0  0  0
  161.4780  209.7370  148.0640 C   0  0  0  0  0  2  0  0  0  0  0  0
  163.3320  207.1960  148.7410 C   0  0  0  0  0  1  0  0  0  0  0  0
  159.5420  207.8370  151.2650 C   0  0  0  0  0  1  0  0  0  0  0  0
  161.4160  211.2850  147.9700 C   0  0  2  0  0  3  0  0  0  0  0  0
  160.8240  206.4290  153.5820 O   0  0  0  0  0  1  0  0  0  0  0  0
  162.4140  211.3020  150.5320 C   0  0  0  0  0  2  0  0  0  0  0  0
  161.9370  207.1530  150.7820 C   0  0  1  0  0  3  0  0  0  0  0  0
  160.5760  211.5190  153.1410 C   0  0  0  0  0  1  0  0  0  0  0  0
  162.1580  209.3380  149.3960 C   0  0  2  0  0  3  0  0  0  0  0  0
  161.0710  207.9580  151.7430 C   0  0  1  0  0  0  0  0  0  0  0  0
  162.8730  207.9940  149.8620 C   0  0  2  0  0  3  0  0  0  0  0  0
  162.1500  212.0620  149.2280 C   0  0  0  0  0  2  0  0  0  0  0  0
  161.6100  210.0940  150.5350 N   0  0  1  0  0  0  0  0  0  0  0  0
  160.8750  208.8000  153.9580 C   0  0  1  0  0  3  0  0  0  0  0  0
  161.7930  209.4080  151.7640 C   0  0  1  0  0  3  0  0  0  0  0  0
  161.0270  210.0020  152.9550 C   0  0  2  0  0  3  0  0  0  0  0  0
  161.4390  207.5910  153.1770 C   0  0  1  0  0  3  0  0  0  0  0  0
  161.6820  209.0190  155.1310 N   0  0  0  0  0  0  0  0  0  0  0  0
  160.8830  209.0920  156.3580 C   0  0  0  0  0  3  0  0  0  0  0  0
  159.5170  209.8050  156.1540 C   0  0  0  0  0  1  0  0  0  0  0  0
  160.7040  207.6920  156.9470 C   0  0  0  0  0  1  0  0  0  0  0  0
  163.2700  210.4430  156.3620 O   0  0  0  0  0  1  0  0  0  0  0  0
  162.7730  210.0920  155.1060 C   0  0  0  0  0  2  0  0  0  0  0  0
  160.3310  211.8940  147.3000 O   0  0  0  0  0  0  0  0  0  0  0  0
  160.8750  214.4360  147.7250 C   0  0  0  0  0  1  0  0  0  0  0  0
  161.8820  212.9270  145.8630 C   0  0  0  0  0  1  0  0  0  0  0  0
  160.6420  213.1940  146.6700 C   0  0  0  0  0  0  0  0  0  0  0  0
  159.3890  213.6800  145.7760 C   0  0  1  0  0  3  0  0  0  0  0  0
  157.1970  213.8650  147.0850 C   0  0  0  0  0  2  0  0  0  0  0  0
  158.2660  214.3210  146.4730 N   0  0  0  0  0  0  0  0  0  0  0  0
  159.7910  214.2450  144.4120 C   0  0  0  0  0  2  0  0  0  0  0  0
  158.9500  213.5500  143.5980 C   0  0  0  0  0  2  0  0  0  0  0  0
  163.6800  212.4440  139.5280 C   0  0  2  0  0  3  0  0  0  0  0  0
  159.6100  213.7040  139.7360 C   0  0  1  0  0  3  0  0  0  0  0  0
  160.4200  211.3280  143.1240 C   0  0  0  0  0  2  0  0  0  0  0  0
  164.7260  213.2200  138.7180 C   0  0  0  0  0  1  0  0  0  0  0  0
  161.8120  211.7230  140.4700 C   0  0  2  0  0  3  0  0  0  0  0  0
  160.1940  212.1390  142.1320 C   0  0  0  0  0  0  0  0  0  0  0  0
  159.4370  214.4530  141.0810 C   0  0  0  0  0  2  0  0  0  0  0  0
  163.5220  211.1670  139.3760 C   0  0  0  0  0  2  0  0  0  0  0  0
  160.4060  211.6380  140.7810 N   0  0  0  0  0  0  0  0  0  0  0  0
  159.4680  212.1600  139.8250 C   0  0  0  0  0  2  0  0  0  0  0  0
  162.7520  214.2180  141.1370 C   0  0  0  0  0  1  0  0  0  0  0  0
  162.4490  213.0790  140.0780 C   0  0  1  0  0  3  0  0  0  0  0  0
  162.3430  210.6600  139.9830 N   0  0  0  0  0  2  0  0  0  0  0  0
  159.8400  213.6380  142.3590 C   0  0  1  0  0  3  0  0  0  0  0  0
  158.8160  214.2270  138.7450 O   0  0  0  0  0  1  0  0  0  0  0  0
  5 25  1  1  0  0  0
  5  2  1  0  0  0  0
  5 13  1  0  0  0  0
  8  1  1  1  0  0  0
  8 11  1  0  0  0  0
 10  2  1  6  0  0  0
 10 12  1  0  0  0  0
 10 14  1  0  0  0  0
 11  4  1  6  0  0  0
 11 16  1  0  0  0  0
 11 18  1  0  0  0  0
 12  3  1  6  0  0  0
 12  8  1  0  0  0  0
 13  7  1  0  0  0  0
 14  7  1  1  0  0  0
 14 16  1  0  0  0  0
 15 19  1  1  0  0  0
 16 17  1  0  0  0  0
 17  9  1  0  0  0  0
 17 15  1  0  0  0  0
 18  6  1  0  0  0  0
 18 15  1  0  0  0  0
 19 20  1  0  0  0  0
 20 22  1  0  0  0  0
 21 20  1  0  0  0  0
 24 19  1  0  0  0  0
 24 23  1  0  0  0  0
 27 28  1  0  0  0  0
 28 25  1  0  0  0  0
 28 26  1  0  0  0  0
 29 31  1  0  0  0  0
 29 28  1  0  0  0  0
 31 30  2  0  0  0  0
 32 29  1  0  0  0  0
 33 32  1  0  0  0  0
 34 45  1  0  0  0  0
 35 43  1  0  0  0  0
 35 40  1  0  0  0  0
 37 34  1  0  0  0  0
 38 42  1  0  0  0  0
 39 47  1  0  0  0  0
 39 36  2  0  0  0  0
 40 47  1  0  0  0  0
 41 34  1  0  0  0  0
 41 46  1  0  0  0  0
 42 39  1  0  0  0  0
 43 42  1  0  0  0  0
 45 38  1  0  0  0  0
 45 44  1  0  0  0  0
 46 38  1  0  0  0  0
 47 33  1  0  0  0  0
 48 35  1  0  0  0  0
M  END
>  <MODEL>
2

>  <REMARK>
 VINA RESULT:      -0.6      3.466      7.295
  Name = 
  10 active torsions:
  status: ('A' for Active; 'I' for Inactive)
    1  A    between atoms: N_2  and  C_22
    2  A    between atoms: N_2  and  C_37
    3  A    between atoms: N_2  and  C_39
    4  A    between atoms: C_10  and  O_25
    5  A    between atoms: N_11  and  C_46
    6  A    between atoms: C_13  and  C_15
    7  A    between atoms: C_13  and  C_47
    8  A    between atoms: C_15  and  C_46
    9  A    between atoms: O_25  and  C_28
   10  A    between atoms: C_28  and  C_46
                            x       y       z     vdW  Elec       q    Type
                         _______ _______ _______ _____ _____    ______ ____

>  <TORSDO>
F 10

$$$$
=
 OpenBabel11072412583D

 48 52  0  0  1  0  0  0  0  0999 V2000
  157.4120  213.6440  144.7550 O   0  0  0  0  0  1  0  0  0  0  0  0
  158.4180  212.8730  149.6520 C   0  0  0  0  0  2  0  0  0  0  0  0
  156.6650  214.4530  147.4670 C   0  0  0  0  0  1  0  0  0  0  0  0
  159.3580  211.0250  146.0050 C   0  0  0  0  0  1  0  0  0  0  0  0
  159.5270  212.9950  150.7330 C   0  0  2  0  0  3  0  0  0  0  0  0
  159.5990  212.3340  143.3170 O   0  0  0  0  0  1  0  0  0  0  0  0
  161.0360  214.2220  148.7900 C   0  0  0  0  0  2  0  0  0  0  0  0
  158.1650  213.2610  145.9030 C   0  0  1  0  0  3  0  0  0  0  0  0
  163.1640  212.6780  146.9690 C   0  0  0  0  0  1  0  0  0  0  0  0
  158.8730  213.6200  148.3750 C   0  0  2  0  0  3  0  0  0  0  0  0
  159.5200  212.5950  145.7060 C   0  0  1  0  0  0  0  0  0  0  0  0
  158.0560  214.2040  147.1400 C   0  0  2  0  0  3  0  0  0  0  0  0
  160.8050  213.9330  150.2770 C   0  0  0  0  0  2  0  0  0  0  0  0
  160.2580  213.2790  148.0090 N   0  0  1  0  0  0  0  0  0  0  0  0
  161.6090  212.7130  144.5760 C   0  0  1  0  0  3  0  0  0  0  0  0
  160.5080  213.4900  146.6280 C   0  0  1  0  0  3  0  0  0  0  0  0
  161.8390  212.9180  146.1180 C   0  0  2  0  0  3  0  0  0  0  0  0
  160.1130  213.0480  144.3760 C   0  0  1  0  0  3  0  0  0  0  0  0
  162.4040  213.6480  143.8200 N   0  0  0  0  0  0  0  0  0  0  0  0
  162.8660  213.0900  142.5460 C   0  0  0  0  0  3  0  0  0  0  0  0
  162.0100  211.8880  142.0590 C   0  0  0  0  0  1  0  0  0  0  0  0
  162.9380  214.1930  141.4900 C   0  0  0  0  0  1  0  0  0  0  0  0
  164.7300  214.4530  143.8470 O   0  0  0  0  0  1  0  0  0  0  0  0
  163.5090  214.4370  144.5240 C   0  0  0  0  0  2  0  0  0  0  0  0
  159.7190  211.9350  151.6490 O   0  0  0  0  0  0  0  0  0  0  0  0
  159.3560  213.5040  153.7320 C   0  0  0  0  0  1  0  0  0  0  0  0
  157.5650  212.0050  152.5920 C   0  0  0  0  0  1  0  0  0  0  0  0
  159.0250  212.1000  152.9420 C   0  0  0  0  0  0  0  0  0  0  0  0
  159.5100  210.9560  153.9710 C   0  0  1  0  0  3  0  0  0  0  0  0
  159.5160  210.6850  156.5170 C   0  0  0  0  0  2  0  0  0  0  0  0
  159.0160  211.0310  155.3520 N   0  0  0  0  0  0  0  0  0  0  0  0
  159.6290  209.5680  153.3370 C   0  0  0  0  0  2  0  0  0  0  0  0
  160.9790  209.4730  153.1980 C   0  0  0  0  0  2  0  0  0  0  0  0
  161.2520  206.2470  147.7500 C   0  0  2  0  0  3  0  0  0  0  0  0
  161.8700  205.8630  151.9530 C   0  0  1  0  0  3  0  0  0  0  0  0
  162.3720  209.9200  150.9210 C   0  0  0  0  0  2  0  0  0  0  0  0
  160.4270  205.2250  146.9570 C   0  0  0  0  0  1  0  0  0  0  0  0
  162.3390  207.3500  149.3300 C   0  0  2  0  0  3  0  0  0  0  0  0
  162.1240  208.6880  151.2580 C   0  0  0  0  0  0  0  0  0  0  0  0
  160.8620  206.8140  152.6460 C   0  0  0  0  0  2  0  0  0  0  0  0
  162.4420  206.5910  147.3690 C   0  0  0  0  0  2  0  0  0  0  0  0
  162.9080  207.6370  150.6250 N   0  0  0  0  0  0  0  0  0  0  0  0
  163.1940  206.5330  151.4980 C   0  0  0  0  0  2  0  0  0  0  0  0
  159.6200  207.0320  149.5710 C   0  0  0  0  0  1  0  0  0  0  0  0
  161.0620  206.4840  149.2090 C   0  0  1  0  0  3  0  0  0  0  0  0
  163.1670  207.3190  148.3490 N   0  0  0  0  0  2  0  0  0  0  0  0
  160.9420  208.3160  152.2000 C   0  0  1  0  0  3  0  0  0  0  0  0
  162.1050  204.7290  152.6920 O   0  0  0  0  0  1  0  0  0  0  0  0
  2  5  1  0  0  0  0
  5 25  1  6  0  0  0
  6 18  1  0  0  0  0
  7 13  1  0  0  0  0
  8  1  1  6  0  0  0
  8 12  1  0  0  0  0
 10  2  1  6  0  0  0
 11  8  1  0  0  0  0
 11  4  1  1  0  0  0
 11 16  1  0  0  0  0
 12  3  1  1  0  0  0
 12 10  1  0  0  0  0
 13  5  1  0  0  0  0
 14 10  1  0  0  0  0
 14  7  1  1  0  0  0
 15 19  1  6  0  0  0
 15 17  1  0  0  0  0
 16 14  1  0  0  0  0
 17 16  1  0  0  0  0
 17  9  1  0  0  0  0
 18 15  1  0  0  0  0
 18 11  1  0  0  0  0
 19 24  1  0  0  0  0
 20 19  1  0  0  0  0
 21 20  1  0  0  0  0
 22 20  1  0  0  0  0
 23 24  1  0  0  0  0
 25 28  1  0  0  0  0
 27 28  1  0  0  0  0
 28 26  1  0  0  0  0
 28 29  1  0  0  0  0
 29 31  1  0  0  0  0
 31 30  2  0  0  0  0
 32 29  1  0  0  0  0
 33 32  1  0  0  0  0
 34 45  1  0  0  0  0
 35 40  1  0  0  0  0
 35 48  1  0  0  0  0
 36 39  2  0  0  0  0
 37 34  1  0  0  0  0
 38 42  1  0  0  0  0
 39 47  1  0  0  0  0
 41 34  1  0  0  0  0
 41 46  1  0  0  0  0
 42 39  1  0  0  0  0
 42 43  1  0  0  0  0
 43 35  1  0  0  0  0
 45 38  1  0  0  0  0
 45 44  1  0  0  0  0
 46 38  1  0  0  0  0
 47 40  1  0  0  0  0
 47 33  1  0  0  0  0
M  END
>  <MODEL>
3

>  <REMARK>
 VINA RESULT:      -0.5      2.631      8.153
  Name = 
  10 active torsions:
  status: ('A' for Active; 'I' for Inactive)
    1  A    between atoms: N_2  and  C_22
    2  A    between atoms: N_2  and  C_37
    3  A    between atoms: N_2  and  C_39
    4  A    between atoms: C_10  and  O_25
    5  A    between atoms: N_11  and  C_46
    6  A    between atoms: C_13  and  C_15
    7  A    between atoms: C_13  and  C_47
    8  A    between atoms: C_15  and  C_46
    9  A    between atoms: O_25  and  C_28
   10  A    between atoms: C_28  and  C_46
                            x       y       z     vdW  Elec       q    Type
                         _______ _______ _______ _____ _____    ______ ____

>  <TORSDO>
F 10

$$$$
