=
 OpenBabel11072415013D

 39 43  0  0  1  0  0  0  0  0999 V2000
  162.7500  207.2150  149.6760 C   0  0  0  0  0  2  0  0  0  0  0  0
  161.7130  206.3550  149.1090 N   0  0  0  0  0  0  0  0  0  0  0  0
  162.6810  205.3060  147.0850 C   0  0  0  0  0  3  0  0  0  0  0  0
  162.6270  205.0320  145.7200 C   0  0  0  0  0  0  0  0  0  0  0  0
  160.6160  206.5310  146.8960 C   0  0  0  0  0  3  0  0  0  0  0  0
  160.5830  206.2540  145.5660 N   0  0  0  0  0  0  0  0  0  0  0  0
  161.6710  206.0630  147.6970 C   0  0  0  0  0  0  0  0  0  0  0  0
  163.6020  204.3000  145.1300 F   0  0  0  0  0  0  0  0  0  0  0  0
  161.5580  205.5190  144.9670 C   0  0  0  0  0  3  0  0  0  0  0  0
  160.6290  205.9230  149.9850 C   0  0  0  0  0  2  0  0  0  0  0  0
  161.4690  202.8120  152.0260 C   0  0  0  0  0  3  0  0  0  0  0  0
  160.8250  204.4970  150.4010 C   0  0  0  0  0  0  0  0  0  0  0  0
  161.1160  201.8050  151.1250 C   0  0  0  0  0  3  0  0  0  0  0  0
  161.3270  204.1650  151.6770 C   0  0  0  0  0  0  0  0  0  0  0  0
  160.4710  203.4810  149.5070 C   0  0  0  0  0  3  0  0  0  0  0  0
  160.6170  202.1400  149.8650 C   0  0  0  0  0  3  0  0  0  0  0  0
  161.7030  205.2270  152.6300 C   0  0  0  0  0  3  0  0  0  0  0  0
  160.9270  205.6080  153.6360 C   0  0  0  0  0  3  0  0  0  0  0  0
  161.3470  206.6160  154.4930 O   0  0  0  0  0  0  0  0  0  0  0  0
  160.4180  207.2420  155.3590 C   0  0  0  0  0  1  0  0  0  0  0  0
  162.1610  208.5540  150.1310 C   0  0  2  0  0  3  0  0  0  0  0  0
  162.8580  210.1340  152.2960 O   0  0  0  0  0  1  0  0  0  0  0  0
  161.7230  209.3710  152.5830 C   0  0  1  0  0  3  0  0  0  0  0  0
  160.5720  209.8480  151.7230 C   0  0  0  0  0  2  0  0  0  0  0  0
  161.2500  208.5300  151.3880 C   0  0  1  0  0  3  0  0  0  0  0  0
  162.5140  209.5590  147.8800 C   0  0  0  0  0  2  0  0  0  0  0  0
  161.4980  209.2840  148.9700 C   0  0  2  0  0  3  0  0  0  0  0  0
  162.1080  210.6660  148.8300 C   0  0  2  0  0  3  0  0  0  0  0  0
  161.1510  211.5380  148.1730 N   0  0  0  0  0  2  0  0  0  0  0  0
  162.7930  212.8280  147.1250 O   0  0  0  0  0  0  0  0  0  0  0  0
  161.5660  212.6090  147.3240 C   0  0  0  0  0  0  0  0  0  0  0  0
  160.5280  213.4750  146.6850 C   0  0  1  0  0  3  0  0  0  0  0  0
  158.3790  213.2270  145.6210 N   0  0  0  0  0  0  0  0  0  0  0  0
  157.4310  212.6770  147.6690 F   0  0  0  0  0  0  0  0  0  0  0  0
  159.7570  212.7190  145.6270 C   0  0  1  0  0  3  0  0  0  0  0  0
  159.4730  213.8860  147.6860 C   0  0  0  0  0  2  0  0  0  0  0  0
  160.4470  212.7350  144.2640 C   0  0  0  0  0  1  0  0  0  0  0  0
  158.1350  213.6580  146.9950 C   0  0  1  0  0  3  0  0  0  0  0  0
  158.2530  214.4270  144.7960 C   0  0  0  0  0  1  0  0  0  0  0  0
  2  1  1  0  0  0  0
  2 10  1  0  0  0  0
  3  7  1  0  0  0  0
  4  3  2  0  0  0  0
  5  7  2  0  0  0  0
  6  5  1  0  0  0  0
  7  2  1  0  0  0  0
  8  4  1  0  0  0  0
  9  6  2  0  0  0  0
  9  4  1  0  0  0  0
 10 12  1  0  0  0  0
 12 14  2  0  0  0  0
 13 11  2  0  0  0  0
 14 11  1  0  0  0  0
 14 17  1  0  0  0  0
 15 16  2  0  0  0  0
 15 12  1  0  0  0  0
 16 13  1  0  0  0  0
 17 18  2  0  0  0  0
 18 19  1  0  0  0  0
 19 20  1  0  0  0  0
 21  1  1  6  0  0  0
 23 22  1  6  0  0  0
 24 23  1  0  0  0  0
 25 21  1  6  0  0  0
 25 24  1  0  0  0  0
 25 23  1  0  0  0  0
 26 28  1  0  0  0  0
 26 27  1  0  0  0  0
 27 21  1  1  0  0  0
 28 29  1  6  0  0  0
 28 27  1  0  0  0  0
 30 31  2  0  0  0  0
 31 29  1  0  0  0  0
 32 31  1  1  0  0  0
 32 36  1  0  0  0  0
 33 35  1  0  0  0  0
 33 38  1  0  0  0  0
 35 37  1  6  0  0  0
 35 32  1  0  0  0  0
 38 34  1  1  0  0  0
 38 36  1  0  0  0  0
 39 33  1  0  0  0  0
M  END
>  <MODEL>
1

>  <REMARK>
 VINA RESULT:      -7.1      0.000      0.000
  Name = 
  11 active torsions:
  status: ('A' for Active; 'I' for Inactive)
    1  A    between atoms: N_1  and  C_32
    2  A    between atoms: C_6  and  C_23
    3  A    between atoms: O_7  and  C_35
    4  A    between atoms: C_8  and  C_30
    5  A    between atoms: C_10  and  C_21
    6  A    between atoms: C_20  and  N_26
    7  A    between atoms: C_23  and  N_26
    8  A    between atoms: N_26  and  C_37
    9  A    between atoms: C_31  and  C_39
   10  A    between atoms: C_34  and  C_39
   11  A    between atoms: C_37  and  C_39
                            x       y       z     vdW  Elec       q    Type
                         _______ _______ _______ _____ _____    ______ ____

>  <TORSDO>
F 11

$$$$
=
 OpenBabel11072415013D

 39 43  0  0  1  0  0  0  0  0999 V2000
  162.5710  208.0630  149.0500 C   0  0  0  0  0  2  0  0  0  0  0  0
  161.5990  207.0300  148.6980 N   0  0  0  0  0  0  0  0  0  0  0  0
  162.6470  205.6410  146.9360 C   0  0  0  0  0  3  0  0  0  0  0  0
  162.6160  205.0730  145.6630 C   0  0  0  0  0  0  0  0  0  0  0  0
  160.4950  206.6370  146.5170 C   0  0  0  0  0  3  0  0  0  0  0  0
  160.4850  206.0750  145.2790 N   0  0  0  0  0  0  0  0  0  0  0  0
  161.5820  206.4350  147.3840 C   0  0  0  0  0  0  0  0  0  0  0  0
  163.6450  204.3050  145.2320 F   0  0  0  0  0  0  0  0  0  0  0  0
  161.5130  205.3020  144.8390 C   0  0  0  0  0  3  0  0  0  0  0  0
  160.5460  206.7250  149.6610 C   0  0  0  0  0  2  0  0  0  0  0  0
  161.1190  203.8540  152.1070 C   0  0  0  0  0  3  0  0  0  0  0  0
  160.7400  205.3550  150.2360 C   0  0  0  0  0  0  0  0  0  0  0  0
  161.0430  202.7580  151.2450 C   0  0  0  0  0  3  0  0  0  0  0  0
  160.9680  205.1620  151.6150 C   0  0  0  0  0  0  0  0  0  0  0  0
  160.6620  204.2500  149.3820 C   0  0  0  0  0  3  0  0  0  0  0  0
  160.8140  202.9560  149.8830 C   0  0  0  0  0  3  0  0  0  0  0  0
  161.0520  206.3190  152.5270 C   0  0  0  0  0  3  0  0  0  0  0  0
  161.1760  206.1990  153.8430 C   0  0  0  0  0  3  0  0  0  0  0  0
  161.2480  207.3330  154.6390 O   0  0  0  0  0  0  0  0  0  0  0  0
  160.2090  207.6220  155.5560 C   0  0  0  0  0  1  0  0  0  0  0  0
  161.8860  209.4220  149.2250 C   0  0  2  0  0  3  0  0  0  0  0  0
  160.9090  211.9880  149.5780 O   0  0  0  0  0  1  0  0  0  0  0  0
  161.3900  211.8150  148.2780 C   0  0  1  0  0  3  0  0  0  0  0  0
  162.8920  211.6370  148.3230 C   0  0  0  0  0  2  0  0  0  0  0  0
  162.0120  210.4290  148.0500 C   0  0  1  0  0  3  0  0  0  0  0  0
  162.6550  208.9880  151.5540 C   0  0  0  0  0  2  0  0  0  0  0  0
  162.2670  210.0600  150.5550 C   0  0  2  0  0  3  0  0  0  0  0  0
  161.2830  209.6240  151.6230 C   0  0  2  0  0  3  0  0  0  0  0  0
  161.2640  210.6170  152.6820 N   0  0  0  0  0  2  0  0  0  0  0  0
  158.9340  210.7530  152.7450 O   0  0  0  0  0  0  0  0  0  0  0  0
  160.0430  211.1430  153.2030 C   0  0  0  0  0  0  0  0  0  0  0  0
  160.0970  212.1710  154.2870 C   0  0  1  0  0  3  0  0  0  0  0  0
  158.6090  213.1750  155.8940 N   0  0  0  0  0  0  0  0  0  0  0  0
  158.5180  211.1690  157.0620 F   0  0  0  0  0  0  0  0  0  0  0  0
  158.7580  212.8460  154.4710 C   0  0  1  0  0  3  0  0  0  0  0  0
  160.3740  211.5300  155.6270 C   0  0  0  0  0  2  0  0  0  0  0  0
  158.5520  214.0240  153.5210 C   0  0  0  0  0  1  0  0  0  0  0  0
  159.3750  212.1490  156.5970 C   0  0  1  0  0  3  0  0  0  0  0  0
  159.2490  214.4480  156.2220 C   0  0  0  0  0  1  0  0  0  0  0  0
  2  1  1  0  0  0  0
  2 10  1  0  0  0  0
  3  7  1  0  0  0  0
  4  3  2  0  0  0  0
  5  7  2  0  0  0  0
  6  5  1  0  0  0  0
  7  2  1  0  0  0  0
  8  4  1  0  0  0  0
  9  6  2  0  0  0  0
  9  4  1  0  0  0  0
 10 12  1  0  0  0  0
 12 14  2  0  0  0  0
 13 11  2  0  0  0  0
 14 11  1  0  0  0  0
 14 17  1  0  0  0  0
 15 16  2  0  0  0  0
 15 12  1  0  0  0  0
 16 13  1  0  0  0  0
 17 18  2  0  0  0  0
 18 19  1  0  0  0  0
 19 20  1  0  0  0  0
 21  1  1  6  0  0  0
 23 24  1  0  0  0  0
 23 22  1  1  0  0  0
 25 23  1  0  0  0  0
 25 24  1  0  0  0  0
 25 21  1  1  0  0  0
 26 28  1  0  0  0  0
 27 21  1  6  0  0  0
 27 26  1  0  0  0  0
 27 28  1  0  0  0  0
 28 29  1  1  0  0  0
 29 31  1  0  0  0  0
 30 31  2  0  0  0  0
 32 31  1  6  0  0  0
 32 35  1  0  0  0  0
 32 36  1  0  0  0  0
 33 39  1  0  0  0  0
 33 38  1  0  0  0  0
 35 37  1  6  0  0  0
 35 33  1  0  0  0  0
 36 38  1  0  0  0  0
 38 34  1  6  0  0  0
M  END
>  <MODEL>
2

>  <REMARK>
 VINA RESULT:      -6.8      3.096      4.936
  Name = 
  11 active torsions:
  status: ('A' for Active; 'I' for Inactive)
    1  A    between atoms: N_1  and  C_32
    2  A    between atoms: C_6  and  C_23
    3  A    between atoms: O_7  and  C_35
    4  A    between atoms: C_8  and  C_30
    5  A    between atoms: C_10  and  C_21
    6  A    between atoms: C_20  and  N_26
    7  A    between atoms: C_23  and  N_26
    8  A    between atoms: N_26  and  C_37
    9  A    between atoms: C_31  and  C_39
   10  A    between atoms: C_34  and  C_39
   11  A    between atoms: C_37  and  C_39
                            x       y       z     vdW  Elec       q    Type
                         _______ _______ _______ _____ _____    ______ ____

>  <TORSDO>
F 11

$$$$
=
 OpenBabel11072415013D

 39 43  0  0  1  0  0  0  0  0999 V2000
  159.2780  211.0920  152.8350 C   0  0  0  0  0  2  0  0  0  0  0  0
  158.6600  212.2770  153.4270 N   0  0  0  0  0  0  0  0  0  0  0  0
  156.7600  211.1110  154.5060 C   0  0  0  0  0  3  0  0  0  0  0  0
  155.8250  211.0150  155.5350 C   0  0  0  0  0  0  0  0  0  0  0  0
  157.6410  213.1070  155.5250 C   0  0  0  0  0  3  0  0  0  0  0  0
  156.7200  212.9960  156.5180 N   0  0  0  0  0  0  0  0  0  0  0  0
  157.6870  212.1640  154.4850 C   0  0  0  0  0  0  0  0  0  0  0  0
  154.9320  209.9980  155.5540 F   0  0  0  0  0  0  0  0  0  0  0  0
  155.8200  211.9770  156.5460 C   0  0  0  0  0  3  0  0  0  0  0  0
  158.9390  213.5720  152.8150 C   0  0  0  0  0  2  0  0  0  0  0  0
  157.8190  213.8160  149.1770 C   0  0  0  0  0  3  0  0  0  0  0  0
  158.1020  213.7650  151.5880 C   0  0  0  0  0  0  0  0  0  0  0  0
  156.4600  214.0910  149.3400 C   0  0  0  0  0  3  0  0  0  0  0  0
  158.6540  213.6490  150.2950 C   0  0  0  0  0  0  0  0  0  0  0  0
  156.7390  214.0380  151.7410 C   0  0  0  0  0  3  0  0  0  0  0  0
  155.9200  214.2020  150.6220 C   0  0  0  0  0  3  0  0  0  0  0  0
  160.0900  213.3610  150.1190 C   0  0  0  0  0  3  0  0  0  0  0  0
  160.6240  213.0110  148.9560 C   0  0  0  0  0  3  0  0  0  0  0  0
  161.9850  212.7540  148.8670 O   0  0  0  0  0  0  0  0  0  0  0  0
  162.6100  212.6790  147.5990 C   0  0  0  0  0  1  0  0  0  0  0  0
  160.2010  210.3950  153.8400 C   0  0  2  0  0  3  0  0  0  0  0  0
  159.7820  210.3130  156.5760 O   0  0  0  0  0  1  0  0  0  0  0  0
  160.7430  211.2730  156.2490 C   0  0  1  0  0  3  0  0  0  0  0  0
  161.9800  210.5790  155.7200 C   0  0  0  0  0  2  0  0  0  0  0  0
  161.0680  211.3090  154.7480 C   0  0  1  0  0  3  0  0  0  0  0  0
  162.1970  209.9560  152.4170 C   0  0  0  0  0  2  0  0  0  0  0  0
  161.0400  209.3200  153.1600 C   0  0  2  0  0  3  0  0  0  0  0  0
  160.9690  209.5030  151.6560 C   0  0  2  0  0  3  0  0  0  0  0  0
  161.2420  208.2310  151.0130 N   0  0  0  0  0  2  0  0  0  0  0  0
  161.9210  209.2010  149.0000 O   0  0  0  0  0  0  0  0  0  0  0  0
  161.7230  208.1510  149.6710 C   0  0  0  0  0  0  0  0  0  0  0  0
  161.9750  206.8070  149.0670 C   0  0  1  0  0  3  0  0  0  0  0  0
  160.7330  205.0680  147.9520 N   0  0  0  0  0  0  0  0  0  0  0  0
  160.4720  206.4470  146.1000 F   0  0  0  0  0  0  0  0  0  0  0  0
  160.7460  205.9310  149.1400 C   0  0  1  0  0  3  0  0  0  0  0  0
  162.2590  206.9220  147.5880 C   0  0  0  0  0  2  0  0  0  0  0  0
  160.6240  205.1860  150.4680 C   0  0  0  0  0  1  0  0  0  0  0  0
  161.4110  205.8470  146.9190 C   0  0  1  0  0  3  0  0  0  0  0  0
  161.5470  203.8700  148.1490 C   0  0  0  0  0  1  0  0  0  0  0  0
  1  2  1  0  0  0  0
  2  7  1  0  0  0  0
  3  4  1  0  0  0  0
  4  8  1  0  0  0  0
  4  9  2  0  0  0  0
  5  6  2  0  0  0  0
  6  9  1  0  0  0  0
  7  3  2  0  0  0  0
  7  5  1  0  0  0  0
 10  2  1  0  0  0  0
 11 13  2  0  0  0  0
 11 14  1  0  0  0  0
 12 15  1  0  0  0  0
 12 10  1  0  0  0  0
 13 16  1  0  0  0  0
 14 12  2  0  0  0  0
 16 15  2  0  0  0  0
 17 14  1  0  0  0  0
 18 17  2  0  0  0  0
 19 18  1  0  0  0  0
 20 19  1  0  0  0  0
 21  1  1  6  0  0  0
 23 22  1  6  0  0  0
 24 23  1  0  0  0  0
 25 21  1  6  0  0  0
 25 24  1  0  0  0  0
 25 23  1  0  0  0  0
 26 27  1  0  0  0  0
 27 21  1  1  0  0  0
 28 29  1  6  0  0  0
 28 26  1  0  0  0  0
 28 27  1  0  0  0  0
 30 31  2  0  0  0  0
 31 29  1  0  0  0  0
 32 35  1  0  0  0  0
 32 31  1  6  0  0  0
 33 39  1  0  0  0  0
 33 35  1  0  0  0  0
 35 37  1  1  0  0  0
 36 32  1  0  0  0  0
 38 34  1  6  0  0  0
 38 36  1  0  0  0  0
 38 33  1  0  0  0  0
M  END
>  <MODEL>
3

>  <REMARK>
 VINA RESULT:      -6.7      3.889      9.117
  Name = 
  11 active torsions:
  status: ('A' for Active; 'I' for Inactive)
    1  A    between atoms: N_1  and  C_32
    2  A    between atoms: C_6  and  C_23
    3  A    between atoms: O_7  and  C_35
    4  A    between atoms: C_8  and  C_30
    5  A    between atoms: C_10  and  C_21
    6  A    between atoms: C_20  and  N_26
    7  A    between atoms: C_23  and  N_26
    8  A    between atoms: N_26  and  C_37
    9  A    between atoms: C_31  and  C_39
   10  A    between atoms: C_34  and  C_39
   11  A    between atoms: C_37  and  C_39
                            x       y       z     vdW  Elec       q    Type
                         _______ _______ _______ _____ _____    ______ ____

>  <TORSDO>
F 11

$$$$
=
 OpenBabel11072415013D

 39 43  0  0  1  0  0  0  0  0999 V2000
  162.7070  206.7080  149.8310 C   0  0  0  0  0  2  0  0  0  0  0  0
  161.7170  205.9570  149.0610 N   0  0  0  0  0  0  0  0  0  0  0  0
  160.8260  206.2050  146.7630 C   0  0  0  0  0  3  0  0  0  0  0  0
  160.9650  206.0410  145.3860 C   0  0  0  0  0  0  0  0  0  0  0  0
  162.9990  205.2150  147.0770 C   0  0  0  0  0  3  0  0  0  0  0  0
  163.1140  205.0630  145.7310 N   0  0  0  0  0  0  0  0  0  0  0  0
  161.8460  205.7940  147.6330 C   0  0  0  0  0  0  0  0  0  0  0  0
  159.9800  206.4390  144.5470 F   0  0  0  0  0  0  0  0  0  0  0  0
  162.1300  205.4610  144.8820 C   0  0  0  0  0  3  0  0  0  0  0  0
  160.5120  205.5080  149.7500 C   0  0  0  0  0  2  0  0  0  0  0  0
  161.0720  201.7700  150.2620 C   0  0  0  0  0  3  0  0  0  0  0  0
  160.7370  204.1710  150.3870 C   0  0  0  0  0  0  0  0  0  0  0  0
  161.2110  201.7140  151.6500 C   0  0  0  0  0  3  0  0  0  0  0  0
  160.8360  202.9950  149.6150 C   0  0  0  0  0  0  0  0  0  0  0  0
  160.8810  204.1050  151.7780 C   0  0  0  0  0  3  0  0  0  0  0  0
  161.1150  202.8820  152.4080 C   0  0  0  0  0  3  0  0  0  0  0  0
  160.6870  203.0510  148.1480 C   0  0  0  0  0  3  0  0  0  0  0  0
  161.1420  202.1050  147.3360 C   0  0  0  0  0  3  0  0  0  0  0  0
  160.9660  202.2260  145.9640 O   0  0  0  0  0  0  0  0  0  0  0  0
  159.9710  201.4620  145.3080 C   0  0  0  0  0  1  0  0  0  0  0  0
  162.1400  208.0570  150.2840 C   0  0  2  0  0  3  0  0  0  0  0  0
  162.7330  209.6010  152.5040 O   0  0  0  0  0  1  0  0  0  0  0  0
  161.5690  208.8570  152.7130 C   0  0  1  0  0  3  0  0  0  0  0  0
  160.4820  209.3650  151.7910 C   0  0  0  0  0  2  0  0  0  0  0  0
  161.1530  208.0380  151.4830 C   0  0  1  0  0  3  0  0  0  0  0  0
  162.6530  209.0610  148.0630 C   0  0  0  0  0  2  0  0  0  0  0  0
  161.5750  208.8370  149.1030 C   0  0  2  0  0  3  0  0  0  0  0  0
  162.2720  210.1810  149.0070 C   0  0  2  0  0  3  0  0  0  0  0  0
  161.4010  211.1160  148.3190 N   0  0  0  0  0  2  0  0  0  0  0  0
  163.0780  212.7110  148.0070 O   0  0  0  0  0  0  0  0  0  0  0  0
  161.8730  212.3750  147.8390 C   0  0  0  0  0  0  0  0  0  0  0  0
  160.9200  213.2940  147.1460 C   0  0  1  0  0  3  0  0  0  0  0  0
  159.0270  213.1440  145.6620 N   0  0  0  0  0  0  0  0  0  0  0  0
  157.7500  212.2470  147.3840 F   0  0  0  0  0  0  0  0  0  0  0  0
  160.4080  212.6880  145.8590 C   0  0  1  0  0  3  0  0  0  0  0  0
  159.6740  213.5070  147.9740 C   0  0  0  0  0  2  0  0  0  0  0  0
  161.3370  212.9400  144.6730 C   0  0  0  0  0  1  0  0  0  0  0  0
  158.5040  213.3450  147.0110 C   0  0  1  0  0  3  0  0  0  0  0  0
  158.9800  214.4530  145.0140 C   0  0  0  0  0  1  0  0  0  0  0  0
  2 10  1  0  0  0  0
  2  1  1  0  0  0  0
  3  7  1  0  0  0  0
  4  3  2  0  0  0  0
  5  7  2  0  0  0  0
  6  5  1  0  0  0  0
  7  2  1  0  0  0  0
  8  4  1  0  0  0  0
  9  4  1  0  0  0  0
  9  6  2  0  0  0  0
 10 12  1  0  0  0  0
 11 13  1  0  0  0  0
 12 15  2  0  0  0  0
 13 16  2  0  0  0  0
 14 11  2  0  0  0  0
 14 12  1  0  0  0  0
 15 16  1  0  0  0  0
 17 14  1  0  0  0  0
 18 17  2  0  0  0  0
 19 18  1  0  0  0  0
 20 19  1  0  0  0  0
 21  1  1  6  0  0  0
 23 22  1  6  0  0  0
 24 23  1  0  0  0  0
 25 21  1  6  0  0  0
 25 24  1  0  0  0  0
 25 23  1  0  0  0  0
 26 28  1  0  0  0  0
 26 27  1  0  0  0  0
 27 21  1  1  0  0  0
 28 29  1  6  0  0  0
 28 27  1  0  0  0  0
 31 30  2  0  0  0  0
 31 29  1  0  0  0  0
 32 31  1  1  0  0  0
 32 36  1  0  0  0  0
 33 35  1  0  0  0  0
 33 38  1  0  0  0  0
 35 37  1  6  0  0  0
 35 32  1  0  0  0  0
 38 34  1  1  0  0  0
 38 36  1  0  0  0  0
 39 33  1  0  0  0  0
M  END
>  <MODEL>
4

>  <REMARK>
 VINA RESULT:      -6.4      2.009      3.115
  Name = 
  11 active torsions:
  status: ('A' for Active; 'I' for Inactive)
    1  A    between atoms: N_1  and  C_32
    2  A    between atoms: C_6  and  C_23
    3  A    between atoms: O_7  and  C_35
    4  A    between atoms: C_8  and  C_30
    5  A    between atoms: C_10  and  C_21
    6  A    between atoms: C_20  and  N_26
    7  A    between atoms: C_23  and  N_26
    8  A    between atoms: N_26  and  C_37
    9  A    between atoms: C_31  and  C_39
   10  A    between atoms: C_34  and  C_39
   11  A    between atoms: C_37  and  C_39
                            x       y       z     vdW  Elec       q    Type
                         _______ _______ _______ _____ _____    ______ ____

>  <TORSDO>
F 11

$$$$
=
 OpenBabel11072415013D

 39 43  0  0  1  0  0  0  0  0999 V2000
  162.4310  207.7280  149.2360 C   0  0  0  0  0  2  0  0  0  0  0  0
  161.4500  206.7820  148.7040 N   0  0  0  0  0  0  0  0  0  0  0  0
  162.6380  205.5940  146.8850 C   0  0  0  0  0  3  0  0  0  0  0  0
  162.6940  205.1460  145.5660 C   0  0  0  0  0  0  0  0  0  0  0  0
  160.4810  206.5660  146.4370 C   0  0  0  0  0  3  0  0  0  0  0  0
  160.5570  206.1220  145.1550 N   0  0  0  0  0  0  0  0  0  0  0  0
  161.5240  206.3130  147.3430 C   0  0  0  0  0  0  0  0  0  0  0  0
  163.7700  204.4510  145.1260 F   0  0  0  0  0  0  0  0  0  0  0  0
  161.6320  205.4230  144.7050 C   0  0  0  0  0  3  0  0  0  0  0  0
  160.3040  206.4440  149.5420 C   0  0  0  0  0  2  0  0  0  0  0  0
  161.1850  203.0350  151.0120 C   0  0  0  0  0  3  0  0  0  0  0  0
  160.6600  205.3510  150.5030 C   0  0  0  0  0  0  0  0  0  0  0  0
  161.3740  203.3710  152.3540 C   0  0  0  0  0  3  0  0  0  0  0  0
  160.8270  204.0180  150.0730 C   0  0  0  0  0  0  0  0  0  0  0  0
  160.8550  205.6770  151.8490 C   0  0  0  0  0  3  0  0  0  0  0  0
  161.2100  204.6920  152.7720 C   0  0  0  0  0  3  0  0  0  0  0  0
  160.6250  203.6600  148.6560 C   0  0  0  0  0  3  0  0  0  0  0  0
  161.2140  202.6210  148.0780 C   0  0  0  0  0  3  0  0  0  0  0  0
  160.9760  202.3450  146.7380 O   0  0  0  0  0  0  0  0  0  0  0  0
  160.6830  201.0220  146.3290 C   0  0  0  0  0  1  0  0  0  0  0  0
  161.8110  209.1180  149.4100 C   0  0  2  0  0  3  0  0  0  0  0  0
  160.8300  211.6880  149.7200 O   0  0  0  0  0  1  0  0  0  0  0  0
  161.4260  211.5320  148.4660 C   0  0  1  0  0  3  0  0  0  0  0  0
  162.9160  211.3370  148.6440 C   0  0  0  0  0  2  0  0  0  0  0  0
  162.0540  210.1440  148.2700 C   0  0  1  0  0  3  0  0  0  0  0  0
  162.3450  208.5900  151.7850 C   0  0  0  0  0  2  0  0  0  0  0  0
  162.1550  209.7030  150.7750 C   0  0  2  0  0  3  0  0  0  0  0  0
  161.0490  209.3710  151.7580 C   0  0  2  0  0  3  0  0  0  0  0  0
  161.0560  210.3550  152.8260 N   0  0  0  0  0  2  0  0  0  0  0  0
  158.8780  211.0820  152.4010 O   0  0  0  0  0  0  0  0  0  0  0  0
  159.9260  211.1840  153.0970 C   0  0  0  0  0  0  0  0  0  0  0  0
  160.0050  212.1820  154.2060 C   0  0  1  0  0  3  0  0  0  0  0  0
  158.5760  213.0850  155.9240 N   0  0  0  0  0  0  0  0  0  0  0  0
  158.6250  211.0460  157.0350 F   0  0  0  0  0  0  0  0  0  0  0  0
  158.6550  212.8020  154.4860 C   0  0  1  0  0  3  0  0  0  0  0  0
  160.3810  211.5160  155.5090 C   0  0  0  0  0  2  0  0  0  0  0  0
  158.3510  213.9970  153.5840 C   0  0  0  0  0  1  0  0  0  0  0  0
  159.4180  212.0700  156.5510 C   0  0  1  0  0  3  0  0  0  0  0  0
  159.1870  214.3720  156.2520 C   0  0  0  0  0  1  0  0  0  0  0  0
  2  1  1  0  0  0  0
  2 10  1  0  0  0  0
  3  7  1  0  0  0  0
  4  3  2  0  0  0  0
  5  7  2  0  0  0  0
  6  5  1  0  0  0  0
  7  2  1  0  0  0  0
  8  4  1  0  0  0  0
  9  6  2  0  0  0  0
  9  4  1  0  0  0  0
 10 12  1  0  0  0  0
 11 13  1  0  0  0  0
 12 15  2  0  0  0  0
 13 16  2  0  0  0  0
 14 12  1  0  0  0  0
 14 11  2  0  0  0  0
 15 16  1  0  0  0  0
 17 14  1  0  0  0  0
 18 17  2  0  0  0  0
 19 18  1  0  0  0  0
 20 19  1  0  0  0  0
 21  1  1  6  0  0  0
 23 24  1  0  0  0  0
 23 22  1  1  0  0  0
 25 23  1  0  0  0  0
 25 24  1  0  0  0  0
 25 21  1  1  0  0  0
 27 21  1  6  0  0  0
 27 28  1  0  0  0  0
 27 26  1  0  0  0  0
 28 26  1  0  0  0  0
 28 29  1  1  0  0  0
 29 31  1  0  0  0  0
 30 31  2  0  0  0  0
 32 31  1  6  0  0  0
 32 35  1  0  0  0  0
 32 36  1  0  0  0  0
 33 39  1  0  0  0  0
 33 38  1  0  0  0  0
 35 37  1  6  0  0  0
 35 33  1  0  0  0  0
 36 38  1  0  0  0  0
 38 34  1  6  0  0  0
M  END
>  <MODEL>
5

>  <REMARK>
 VINA RESULT:      -6.1      3.465      5.603
  Name = 
  11 active torsions:
  status: ('A' for Active; 'I' for Inactive)
    1  A    between atoms: N_1  and  C_32
    2  A    between atoms: C_6  and  C_23
    3  A    between atoms: O_7  and  C_35
    4  A    between atoms: C_8  and  C_30
    5  A    between atoms: C_10  and  C_21
    6  A    between atoms: C_20  and  N_26
    7  A    between atoms: C_23  and  N_26
    8  A    between atoms: N_26  and  C_37
    9  A    between atoms: C_31  and  C_39
   10  A    between atoms: C_34  and  C_39
   11  A    between atoms: C_37  and  C_39
                            x       y       z     vdW  Elec       q    Type
                         _______ _______ _______ _____ _____    ______ ____

>  <TORSDO>
F 11

$$$$
=
 OpenBabel11072415013D

 39 43  0  0  1  0  0  0  0  0999 V2000
  160.4180  208.9380  152.2630 C   0  0  0  0  0  2  0  0  0  0  0  0
  160.8290  209.7590  153.4010 N   0  0  0  0  0  0  0  0  0  0  0  0
  160.1730  208.1410  155.1560 C   0  0  0  0  0  3  0  0  0  0  0  0
  160.3450  207.5990  156.4290 C   0  0  0  0  0  0  0  0  0  0  0  0
  161.9830  209.6690  155.5890 C   0  0  0  0  0  3  0  0  0  0  0  0
  162.1330  209.1270  156.8270 N   0  0  0  0  0  0  0  0  0  0  0  0
  160.9940  209.1880  154.7150 C   0  0  0  0  0  0  0  0  0  0  0  0
  159.5520  206.5870  156.8540 F   0  0  0  0  0  0  0  0  0  0  0  0
  161.3420  208.1100  157.2610 C   0  0  0  0  0  3  0  0  0  0  0  0
  160.9190  211.2020  153.2050 C   0  0  0  0  0  2  0  0  0  0  0  0
  157.7440  213.2690  152.7580 C   0  0  0  0  0  3  0  0  0  0  0  0
  159.5900  211.8500  153.4470 C   0  0  0  0  0  0  0  0  0  0  0  0
  157.0770  212.9840  153.9510 C   0  0  0  0  0  3  0  0  0  0  0  0
  159.0040  212.7070  152.4920 C   0  0  0  0  0  0  0  0  0  0  0  0
  158.9120  211.5680  154.6380 C   0  0  0  0  0  3  0  0  0  0  0  0
  157.6610  212.1340  154.8910 C   0  0  0  0  0  3  0  0  0  0  0  0
  159.7080  213.0120  151.2320 C   0  0  0  0  0  3  0  0  0  0  0  0
  159.0830  213.3800  150.1210 C   0  0  0  0  0  3  0  0  0  0  0  0
  159.8120  213.6510  148.9710 O   0  0  0  0  0  0  0  0  0  0  0  0
  161.1810  213.2980  148.9020 C   0  0  0  0  0  1  0  0  0  0  0  0
  161.4790  207.8810  151.9400 C   0  0  2  0  0  3  0  0  0  0  0  0
  160.7300  208.0860  149.2830 O   0  0  0  0  0  1  0  0  0  0  0  0
  162.1030  208.2960  149.4290 C   0  0  1  0  0  3  0  0  0  0  0  0
  162.3320  209.5880  150.1830 C   0  0  0  0  0  2  0  0  0  0  0  0
  162.5610  208.2660  150.8950 C   0  0  1  0  0  3  0  0  0  0  0  0
  161.3240  205.4770  152.5730 C   0  0  0  0  0  2  0  0  0  0  0  0
  160.8330  206.5400  151.6120 C   0  0  2  0  0  3  0  0  0  0  0  0
  161.9040  205.5580  151.1770 C   0  0  2  0  0  3  0  0  0  0  0  0
  161.2970  204.5370  150.3430 N   0  0  0  0  0  2  0  0  0  0  0  0
  161.9750  205.5310  148.3410 O   0  0  0  0  0  0  0  0  0  0  0  0
  161.3720  204.5840  148.9180 C   0  0  0  0  0  0  0  0  0  0  0  0
  160.7170  203.5040  148.1180 C   0  0  1  0  0  3  0  0  0  0  0  0
  161.3570  201.5480  146.8640 N   0  0  0  0  0  0  0  0  0  0  0  0
  161.9390  200.4740  148.8400 F   0  0  0  0  0  0  0  0  0  0  0  0
  161.6400  202.9780  147.0440 C   0  0  1  0  0  3  0  0  0  0  0  0
  160.4240  202.2960  148.9770 C   0  0  0  0  0  2  0  0  0  0  0  0
  161.5890  203.8030  145.7600 C   0  0  0  0  0  1  0  0  0  0  0  0
  160.8970  201.0910  148.1730 C   0  0  1  0  0  3  0  0  0  0  0  0
  160.2380  201.3330  145.9490 C   0  0  0  0  0  1  0  0  0  0  0  0
  1  2  1  0  0  0  0
  2  7  1  0  0  0  0
  3  4  1  0  0  0  0
  4  8  1  0  0  0  0
  4  9  2  0  0  0  0
  5  6  2  0  0  0  0
  6  9  1  0  0  0  0
  7  3  2  0  0  0  0
  7  5  1  0  0  0  0
 10  2  1  0  0  0  0
 10 12  1  0  0  0  0
 11 13  1  0  0  0  0
 12 15  2  0  0  0  0
 13 16  2  0  0  0  0
 14 11  2  0  0  0  0
 14 12  1  0  0  0  0
 15 16  1  0  0  0  0
 17 14  1  0  0  0  0
 18 17  2  0  0  0  0
 19 18  1  0  0  0  0
 20 19  1  0  0  0  0
 21  1  1  6  0  0  0
 23 22  1  1  0  0  0
 23 24  1  0  0  0  0
 23 25  1  0  0  0  0
 24 25  1  0  0  0  0
 25 21  1  1  0  0  0
 27 21  1  1  0  0  0
 27 26  1  0  0  0  0
 28 29  1  6  0  0  0
 28 27  1  0  0  0  0
 28 26  1  0  0  0  0
 30 31  2  0  0  0  0
 31 29  1  0  0  0  0
 32 31  1  1  0  0  0
 32 36  1  0  0  0  0
 33 35  1  0  0  0  0
 33 38  1  0  0  0  0
 35 37  1  6  0  0  0
 35 32  1  0  0  0  0
 38 34  1  1  0  0  0
 38 36  1  0  0  0  0
 39 33  1  0  0  0  0
M  END
>  <MODEL>
6

>  <REMARK>
 VINA RESULT:      -5.5      3.746      9.097
  Name = 
  11 active torsions:
  status: ('A' for Active; 'I' for Inactive)
    1  A    between atoms: N_1  and  C_32
    2  A    between atoms: C_6  and  C_23
    3  A    between atoms: O_7  and  C_35
    4  A    between atoms: C_8  and  C_30
    5  A    between atoms: C_10  and  C_21
    6  A    between atoms: C_20  and  N_26
    7  A    between atoms: C_23  and  N_26
    8  A    between atoms: N_26  and  C_37
    9  A    between atoms: C_31  and  C_39
   10  A    between atoms: C_34  and  C_39
   11  A    between atoms: C_37  and  C_39
                            x       y       z     vdW  Elec       q    Type
                         _______ _______ _______ _____ _____    ______ ____

>  <TORSDO>
F 11

$$$$
=
 OpenBabel11072415013D

 39 43  0  0  1  0  0  0  0  0999 V2000
  160.1490  212.2550  153.8280 C   0  0  0  0  0  2  0  0  0  0  0  0
  159.3250  211.2690  154.5250 N   0  0  0  0  0  0  0  0  0  0  0  0
  159.4700  208.9900  155.4830 C   0  0  0  0  0  3  0  0  0  0  0  0
  160.0430  208.0860  156.3750 C   0  0  0  0  0  0  0  0  0  0  0  0
  160.9300  210.7100  156.3250 C   0  0  0  0  0  3  0  0  0  0  0  0
  161.4740  209.8130  157.1890 N   0  0  0  0  0  0  0  0  0  0  0  0
  159.9070  210.3220  155.4430 C   0  0  0  0  0  0  0  0  0  0  0  0
  159.6200  206.8000  156.4120 F   0  0  0  0  0  0  0  0  0  0  0  0
  161.0560  208.5200  157.2310 C   0  0  0  0  0  3  0  0  0  0  0  0
  157.9180  211.1660  154.1510 C   0  0  0  0  0  2  0  0  0  0  0  0
  155.7310  214.0230  155.4200 C   0  0  0  0  0  3  0  0  0  0  0  0
  157.0750  212.0380  155.0300 C   0  0  0  0  0  0  0  0  0  0  0  0
  155.4640  213.5890  156.7200 C   0  0  0  0  0  3  0  0  0  0  0  0
  156.5360  213.2550  154.5620 C   0  0  0  0  0  0  0  0  0  0  0  0
  156.7990  211.6110  156.3340 C   0  0  0  0  0  3  0  0  0  0  0  0
  155.9980  212.3830  157.1770 C   0  0  0  0  0  3  0  0  0  0  0  0
  156.8190  213.7160  153.1890 C   0  0  0  0  0  3  0  0  0  0  0  0
  155.8680  214.0240  152.3160 C   0  0  0  0  0  3  0  0  0  0  0  0
  156.2100  214.4510  151.0400 O   0  0  0  0  0  0  0  0  0  0  0  0
  155.5530  213.9060  149.9110 C   0  0  0  0  0  1  0  0  0  0  0  0
  160.4700  211.7910  152.4040 C   0  0  2  0  0  3  0  0  0  0  0  0
  160.4820  214.3050  151.2440 O   0  0  0  0  0  1  0  0  0  0  0  0
  159.4240  213.5360  150.7510 C   0  0  1  0  0  3  0  0  0  0  0  0
  159.9810  212.3940  149.9280 C   0  0  0  0  0  2  0  0  0  0  0  0
  159.4150  212.1040  151.3080 C   0  0  1  0  0  3  0  0  0  0  0  0
  162.2680  210.1640  152.9720 C   0  0  0  0  0  2  0  0  0  0  0  0
  160.8800  210.3240  152.3860 C   0  0  2  0  0  3  0  0  0  0  0  0
  162.0760  210.1470  151.4700 C   0  0  2  0  0  3  0  0  0  0  0  0
  162.1080  208.7750  150.9960 N   0  0  0  0  0  2  0  0  0  0  0  0
  161.9500  209.3710  148.7440 O   0  0  0  0  0  0  0  0  0  0  0  0
  162.0430  208.4550  149.6060 C   0  0  0  0  0  0  0  0  0  0  0  0
  162.0720  207.0200  149.1880 C   0  0  1  0  0  3  0  0  0  0  0  0
  160.5150  205.2990  148.5380 N   0  0  0  0  0  0  0  0  0  0  0  0
  160.1000  206.4280  146.5500 F   0  0  0  0  0  0  0  0  0  0  0  0
  160.7920  206.3110  149.5650 C   0  0  1  0  0  3  0  0  0  0  0  0
  162.1320  206.8950  147.6830 C   0  0  0  0  0  2  0  0  0  0  0  0
  160.8080  205.7760  150.9960 C   0  0  0  0  0  1  0  0  0  0  0  0
  161.0940  205.8430  147.3130 C   0  0  1  0  0  3  0  0  0  0  0  0
  161.2330  204.0540  148.8020 C   0  0  0  0  0  1  0  0  0  0  0  0
  1  2  1  0  0  0  0
  2  7  1  0  0  0  0
  3  4  1  0  0  0  0
  4  8  1  0  0  0  0
  4  9  2  0  0  0  0
  5  6  2  0  0  0  0
  6  9  1  0  0  0  0
  7  3  2  0  0  0  0
  7  5  1  0  0  0  0
 10  2  1  0  0  0  0
 10 12  1  0  0  0  0
 11 13  1  0  0  0  0
 12 15  2  0  0  0  0
 13 16  2  0  0  0  0
 14 12  1  0  0  0  0
 14 11  2  0  0  0  0
 15 16  1  0  0  0  0
 17 14  1  0  0  0  0
 18 17  2  0  0  0  0
 19 18  1  0  0  0  0
 20 19  1  0  0  0  0
 21  1  1  1  0  0  0
 23 22  1  1  0  0  0
 23 25  1  0  0  0  0
 24 23  1  0  0  0  0
 24 25  1  0  0  0  0
 25 21  1  1  0  0  0
 27 21  1  6  0  0  0
 27 26  1  0  0  0  0
 28 29  1  1  0  0  0
 28 27  1  0  0  0  0
 28 26  1  0  0  0  0
 30 31  2  0  0  0  0
 31 29  1  0  0  0  0
 32 35  1  0  0  0  0
 32 31  1  6  0  0  0
 33 39  1  0  0  0  0
 33 35  1  0  0  0  0
 35 37  1  1  0  0  0
 36 32  1  0  0  0  0
 38 34  1  6  0  0  0
 38 36  1  0  0  0  0
 38 33  1  0  0  0  0
M  END
>  <MODEL>
7

>  <REMARK>
 VINA RESULT:      -5.3      4.557      8.895
  Name = 
  11 active torsions:
  status: ('A' for Active; 'I' for Inactive)
    1  A    between atoms: N_1  and  C_32
    2  A    between atoms: C_6  and  C_23
    3  A    between atoms: O_7  and  C_35
    4  A    between atoms: C_8  and  C_30
    5  A    between atoms: C_10  and  C_21
    6  A    between atoms: C_20  and  N_26
    7  A    between atoms: C_23  and  N_26
    8  A    between atoms: N_26  and  C_37
    9  A    between atoms: C_31  and  C_39
   10  A    between atoms: C_34  and  C_39
   11  A    between atoms: C_37  and  C_39
                            x       y       z     vdW  Elec       q    Type
                         _______ _______ _______ _____ _____    ______ ____

>  <TORSDO>
F 11

$$$$
=
 OpenBabel11072415013D

 39 43  0  0  1  0  0  0  0  0999 V2000
  159.8490  209.4480  152.7880 C   0  0  0  0  0  2  0  0  0  0  0  0
  160.4930  210.4070  153.6840 N   0  0  0  0  0  0  0  0  0  0  0  0
  162.2210  210.6900  155.4350 C   0  0  0  0  0  3  0  0  0  0  0  0
  162.8320  210.2640  156.6130 C   0  0  0  0  0  0  0  0  0  0  0  0
  160.6900  208.8370  155.5870 C   0  0  0  0  0  3  0  0  0  0  0  0
  161.3010  208.4380  156.7340 N   0  0  0  0  0  0  0  0  0  0  0  0
  161.1360  209.9790  154.9020 C   0  0  0  0  0  0  0  0  0  0  0  0
  163.8800  210.9510  157.1270 F   0  0  0  0  0  0  0  0  0  0  0  0
  162.3530  209.1220  157.2570 C   0  0  0  0  0  3  0  0  0  0  0  0
  160.3350  211.8280  153.3910 C   0  0  0  0  0  2  0  0  0  0  0  0
  156.9510  213.5870  153.2980 C   0  0  0  0  0  3  0  0  0  0  0  0
  158.9540  212.2880  153.7440 C   0  0  0  0  0  0  0  0  0  0  0  0
  156.3520  213.0610  154.4450 C   0  0  0  0  0  3  0  0  0  0  0  0
  158.2540  213.2070  152.9340 C   0  0  0  0  0  0  0  0  0  0  0  0
  158.3440  211.7650  154.8900 C   0  0  0  0  0  3  0  0  0  0  0  0
  157.0490  212.1510  155.2400 C   0  0  0  0  0  3  0  0  0  0  0  0
  158.8860  213.7660  151.7230 C   0  0  0  0  0  3  0  0  0  0  0  0
  158.4700  213.4900  150.4940 C   0  0  0  0  0  3  0  0  0  0  0  0
  159.1140  214.0520  149.4010 O   0  0  0  0  0  0  0  0  0  0  0  0
  160.2080  213.3820  148.8020 C   0  0  0  0  0  1  0  0  0  0  0  0
  160.8880  208.7060  151.9420 C   0  0  2  0  0  3  0  0  0  0  0  0
  163.1210  210.2990  151.5690 O   0  0  0  0  0  1  0  0  0  0  0  0
  162.3790  210.2000  150.3890 C   0  0  1  0  0  3  0  0  0  0  0  0
  162.4520  208.7790  149.8730 C   0  0  0  0  0  2  0  0  0  0  0  0
  161.1670  209.2660  150.5210 C   0  0  1  0  0  3  0  0  0  0  0  0
  161.3850  206.5060  152.9990 C   0  0  0  0  0  2  0  0  0  0  0  0
  160.6010  207.2100  151.9110 C   0  0  2  0  0  3  0  0  0  0  0  0
  161.8730  206.4600  151.5660 C   0  0  2  0  0  3  0  0  0  0  0  0
  161.5220  205.1800  150.9780 N   0  0  0  0  0  2  0  0  0  0  0  0
  160.4140  206.1300  149.1550 O   0  0  0  0  0  0  0  0  0  0  0  0
  160.7850  205.0860  149.7590 C   0  0  0  0  0  0  0  0  0  0  0  0
  160.4500  203.7350  149.2130 C   0  0  1  0  0  3  0  0  0  0  0  0
  161.5950  201.7130  148.5740 N   0  0  0  0  0  0  0  0  0  0  0  0
  162.0790  201.2840  150.8050 F   0  0  0  0  0  0  0  0  0  0  0  0
  161.5920  203.1710  148.4000 C   0  0  1  0  0  3  0  0  0  0  0  0
  160.2600  202.7330  150.3270 C   0  0  0  0  0  2  0  0  0  0  0  0
  161.5730  203.6380  146.9460 C   0  0  0  0  0  1  0  0  0  0  0  0
  161.0460  201.4960  149.9100 C   0  0  1  0  0  3  0  0  0  0  0  0
  160.6700  201.0600  147.6500 C   0  0  0  0  0  1  0  0  0  0  0  0
  1  2  1  0  0  0  0
  2  7  1  0  0  0  0
  3  4  1  0  0  0  0
  4  8  1  0  0  0  0
  4  9  2  0  0  0  0
  5  6  2  0  0  0  0
  6  9  1  0  0  0  0
  7  3  2  0  0  0  0
  7  5  1  0  0  0  0
 10  2  1  0  0  0  0
 10 12  1  0  0  0  0
 11 13  1  0  0  0  0
 12 15  2  0  0  0  0
 13 16  2  0  0  0  0
 14 11  2  0  0  0  0
 14 12  1  0  0  0  0
 15 16  1  0  0  0  0
 17 14  1  0  0  0  0
 18 17  2  0  0  0  0
 19 18  1  0  0  0  0
 20 19  1  0  0  0  0
 21  1  1  6  0  0  0
 23 25  1  0  0  0  0
 23 22  1  1  0  0  0
 24 23  1  0  0  0  0
 24 25  1  0  0  0  0
 25 21  1  1  0  0  0
 27 21  1  1  0  0  0
 27 26  1  0  0  0  0
 28 29  1  6  0  0  0
 28 27  1  0  0  0  0
 28 26  1  0  0  0  0
 30 31  2  0  0  0  0
 31 29  1  0  0  0  0
 32 31  1  1  0  0  0
 32 36  1  0  0  0  0
 33 38  1  0  0  0  0
 35 37  1  6  0  0  0
 35 33  1  0  0  0  0
 35 32  1  0  0  0  0
 38 36  1  0  0  0  0
 38 34  1  1  0  0  0
 39 33  1  0  0  0  0
M  END
>  <MODEL>
8

>  <REMARK>
 VINA RESULT:      -5.1      3.932      9.312
  Name = 
  11 active torsions:
  status: ('A' for Active; 'I' for Inactive)
    1  A    between atoms: N_1  and  C_32
    2  A    between atoms: C_6  and  C_23
    3  A    between atoms: O_7  and  C_35
    4  A    between atoms: C_8  and  C_30
    5  A    between atoms: C_10  and  C_21
    6  A    between atoms: C_20  and  N_26
    7  A    between atoms: C_23  and  N_26
    8  A    between atoms: N_26  and  C_37
    9  A    between atoms: C_31  and  C_39
   10  A    between atoms: C_34  and  C_39
   11  A    between atoms: C_37  and  C_39
                            x       y       z     vdW  Elec       q    Type
                         _______ _______ _______ _____ _____    ______ ____

>  <TORSDO>
F 11

$$$$
=
 OpenBabel11072415013D

 39 43  0  0  1  0  0  0  0  0999 V2000
  162.4690  207.5500  149.7310 C   0  0  0  0  0  2  0  0  0  0  0  0
  161.3480  206.6510  149.9990 N   0  0  0  0  0  0  0  0  0  0  0  0
  161.2920  206.7210  152.4740 C   0  0  0  0  0  3  0  0  0  0  0  0
  161.1490  206.0740  153.7010 C   0  0  0  0  0  0  0  0  0  0  0  0
  160.9690  204.6140  151.3540 C   0  0  0  0  0  3  0  0  0  0  0  0
  160.8340  204.0020  152.5600 N   0  0  0  0  0  0  0  0  0  0  0  0
  161.2030  205.9970  151.2760 C   0  0  0  0  0  0  0  0  0  0  0  0
  161.2350  206.7750  154.8570 F   0  0  0  0  0  0  0  0  0  0  0  0
  160.9170  204.6980  153.7250 C   0  0  0  0  0  3  0  0  0  0  0  0
  160.4630  206.3110  148.8900 C   0  0  0  0  0  2  0  0  0  0  0  0
  162.1520  203.8180  146.5480 C   0  0  0  0  0  3  0  0  0  0  0  0
  161.2430  205.7180  147.7570 C   0  0  0  0  0  0  0  0  0  0  0  0
  162.6720  204.6800  145.5800 C   0  0  0  0  0  3  0  0  0  0  0  0
  161.4330  204.3240  147.6440 C   0  0  0  0  0  0  0  0  0  0  0  0
  161.7660  206.5730  146.7810 C   0  0  0  0  0  3  0  0  0  0  0  0
  162.4780  206.0570  145.6970 C   0  0  0  0  0  3  0  0  0  0  0  0
  160.8860  203.4120  148.6670 C   0  0  0  0  0  3  0  0  0  0  0  0
  160.5090  202.1670  148.4020 C   0  0  0  0  0  3  0  0  0  0  0  0
  160.0030  201.3660  149.4160 O   0  0  0  0  0  0  0  0  0  0  0  0
  160.8260  201.0010  150.5080 C   0  0  0  0  0  1  0  0  0  0  0  0
  162.0810  209.0060  150.0090 C   0  0  2  0  0  3  0  0  0  0  0  0
  163.0850  210.3260  152.2260 O   0  0  0  0  0  1  0  0  0  0  0  0
  161.7600  209.9350  152.4380 C   0  0  1  0  0  3  0  0  0  0  0  0
  160.8550  210.7250  151.5170 C   0  0  0  0  0  2  0  0  0  0  0  0
  161.1300  209.2630  151.2090 C   0  0  1  0  0  3  0  0  0  0  0  0
  162.7610  210.1670  147.9130 C   0  0  0  0  0  2  0  0  0  0  0  0
  161.5850  209.6920  148.7420 C   0  0  2  0  0  3  0  0  0  0  0  0
  161.9930  211.1520  148.7680 C   0  0  2  0  0  3  0  0  0  0  0  0
  161.0820  211.9110  147.9290 N   0  0  0  0  0  2  0  0  0  0  0  0
  162.7080  213.4500  147.2630 O   0  0  0  0  0  0  0  0  0  0  0  0
  161.5100  213.0590  147.1960 C   0  0  0  0  0  0  0  0  0  0  0  0
  160.5170  213.7980  146.3580 C   0  0  1  0  0  3  0  0  0  0  0  0
  158.5060  213.3340  145.1130 N   0  0  0  0  0  0  0  0  0  0  0  0
  157.3620  212.9710  147.1020 F   0  0  0  0  0  0  0  0  0  0  0  0
  159.8920  212.8950  145.3200 C   0  0  1  0  0  3  0  0  0  0  0  0
  159.3470  214.2680  147.1910 C   0  0  0  0  0  2  0  0  0  0  0  0
  160.7230  212.7920  144.0430 C   0  0  0  0  0  1  0  0  0  0  0  0
  158.1000  213.9030  146.3960 C   0  0  1  0  0  3  0  0  0  0  0  0
  158.4270  214.4280  144.1470 C   0  0  0  0  0  1  0  0  0  0  0  0
  1  2  1  0  0  0  0
  2  7  1  0  0  0  0
  3  4  1  0  0  0  0
  4  9  2  0  0  0  0
  4  8  1  0  0  0  0
  5  6  2  0  0  0  0
  6  9  1  0  0  0  0
  7  5  1  0  0  0  0
  7  3  2  0  0  0  0
 10  2  1  0  0  0  0
 11 14  1  0  0  0  0
 12 10  1  0  0  0  0
 13 16  1  0  0  0  0
 13 11  2  0  0  0  0
 14 12  2  0  0  0  0
 14 17  1  0  0  0  0
 15 12  1  0  0  0  0
 16 15  2  0  0  0  0
 18 17  2  0  0  0  0
 18 19  1  0  0  0  0
 19 20  1  0  0  0  0
 21  1  1  6  0  0  0
 23 22  1  6  0  0  0
 24 23  1  0  0  0  0
 25 21  1  6  0  0  0
 25 24  1  0  0  0  0
 25 23  1  0  0  0  0
 26 27  1  0  0  0  0
 26 28  1  0  0  0  0
 27 28  1  0  0  0  0
 27 21  1  1  0  0  0
 28 29  1  6  0  0  0
 31 30  2  0  0  0  0
 31 29  1  0  0  0  0
 32 36  1  0  0  0  0
 32 31  1  1  0  0  0
 33 35  1  0  0  0  0
 33 38  1  0  0  0  0
 35 37  1  6  0  0  0
 35 32  1  0  0  0  0
 38 34  1  1  0  0  0
 38 36  1  0  0  0  0
 39 33  1  0  0  0  0
M  END
>  <MODEL>
9

>  <REMARK>
 VINA RESULT:      -4.9      2.272      4.277
  Name = 
  11 active torsions:
  status: ('A' for Active; 'I' for Inactive)
    1  A    between atoms: N_1  and  C_32
    2  A    between atoms: C_6  and  C_23
    3  A    between atoms: O_7  and  C_35
    4  A    between atoms: C_8  and  C_30
    5  A    between atoms: C_10  and  C_21
    6  A    between atoms: C_20  and  N_26
    7  A    between atoms: C_23  and  N_26
    8  A    between atoms: N_26  and  C_37
    9  A    between atoms: C_31  and  C_39
   10  A    between atoms: C_34  and  C_39
   11  A    between atoms: C_37  and  C_39
                            x       y       z     vdW  Elec       q    Type
                         _______ _______ _______ _____ _____    ______ ____

>  <TORSDO>
F 11

$$$$
