=
 OpenBabel11072412063D

 50 53  0  0  1  0  0  0  0  0999 V2000
  160.2790  205.1920  151.0980 C   0  0  1  0  0  3  0  0  0  0  0  0
  162.2070  209.1560  149.4580 C   0  0  0  0  0  2  0  0  0  0  0  0
  160.7470  207.1230  149.5190 C   0  0  0  0  0  2  0  0  0  0  0  0
  160.8720  209.4080  151.5900 C   0  0  2  0  0  3  0  0  0  0  0  0
  161.8660  208.6730  152.2680 O   0  0  0  0  0  0  0  0  0  0  0  0
  160.7250  206.0160  152.1620 O   0  0  0  0  0  0  0  0  0  0  0  0
  162.3520  211.1320  150.7810 O   0  0  0  0  0  1  0  0  0  0  0  0
  162.1050  207.7050  149.9260 C   0  0  2  0  0  3  0  0  0  0  0  0
  160.7400  205.6110  149.6880 C   0  0  0  0  0  2  0  0  0  0  0  0
  161.4650  210.1330  150.3740 C   0  0  1  0  0  3  0  0  0  0  0  0
  162.3840  207.6230  151.4540 C   0  0  2  0  0  3  0  0  0  0  0  0
  162.1100  206.2360  152.0370 C   0  0  1  0  0  3  0  0  0  0  0  0
  160.0670  203.1720  152.5800 O   0  0  0  0  0  1  0  0  0  0  0  0
  160.6780  202.6980  150.2460 C   0  0  1  0  0  3  0  0  0  0  0  0
  161.9020  203.1950  151.0110 C   0  0  0  0  0  2  0  0  0  0  0  0
  160.5280  203.7060  151.3770 C   0  0  1  0  0  0  0  0  0  0  0  0
  160.6650  203.3210  148.8870 C   0  0  0  0  0  3  0  0  0  0  0  0
  161.6990  203.1400  148.0700 C   0  0  0  0  0  3  0  0  0  0  0  0
  160.5670  204.3780  143.9820 C   0  0  0  0  0  2  0  0  0  0  0  0
  160.2510  206.4480  145.1760 O   0  0  0  0  0  1  0  0  0  0  0  0
  161.1690  202.9540  145.5940 C   0  0  0  0  0  2  0  0  0  0  0  0
  161.7850  203.7200  146.7220 C   0  0  0  0  0  0  0  0  0  0  0  0
  161.1640  205.7190  144.4110 C   0  0  1  0  0  3  0  0  0  0  0  0
  160.0760  203.6650  145.0860 O   0  0  0  0  0  0  0  0  0  0  0  0
  162.3610  204.9110  146.5090 C   0  0  0  0  0  3  0  0  0  0  0  0
  162.4950  205.5460  145.1490 C   0  0  0  0  0  2  0  0  0  0  0  0
  160.0370  210.5680  152.7270 P   0  0  2  0  0  0  0  0  0  0  0  0
  161.2120  211.3730  153.6370 O   0  0  0  0  0  0  0  0  0  0  0  0
  159.1300  209.8050  153.6660 O   0  0  0  0  0  1  0  0  0  0  0  0
  159.1460  211.7290  151.8650 O   0  0  0  0  0  0  0  0  0  0  0  0
  159.3890  212.9600  152.4950 C   0  0  1  0  0  3  0  0  0  0  0  0
  159.7840  213.9720  151.5920 O   0  0  0  0  0  0  0  0  0  0  0  0
  159.6650  213.4860  150.2820 C   0  0  0  0  0  2  0  0  0  0  0  0
  160.8150  214.0100  149.4430 C   0  0  0  0  0  2  0  0  0  0  0  0
  160.9090  213.2360  148.1420 C   0  0  0  0  0  2  0  0  0  0  0  0
  159.8490  213.6610  147.2410 N   0  0  0  0  0  2  0  0  0  0  0  0
  160.2130  213.0060  144.8820 C   0  0  0  0  0  0  0  0  0  0  0  0
  159.6340  211.9000  145.0500 O   0  0  0  0  0  0  0  0  0  0  0  0
  160.4180  213.8950  145.9810 N   0  0  0  0  0  2  0  0  0  0  0  0
  160.6620  213.4070  143.5140 C   0  0  0  0  0  2  0  0  0  0  0  0
  162.2100  212.1370  141.9780 C   0  0  0  0  0  1  0  0  0  0  0  0
  159.8230  212.2690  141.5020 N   0  0  0  0  0  1  0  0  0  0  0  0
  160.8130  212.2170  142.5670 C   0  0  2  0  0  3  0  0  0  0  0  0
  158.2590  213.3910  153.4420 C   0  0  0  0  0  2  0  0  0  0  0  0
  158.7240  213.6400  154.8730 C   0  0  0  0  0  2  0  0  0  0  0  0
  157.0110  211.9080  155.3830 C   0  0  0  0  0  1  0  0  0  0  0  0
  156.7290  214.1700  156.0440 O   0  0  0  0  0  1  0  0  0  0  0  0
  157.6860  213.1740  155.8730 C   0  0  2  0  0  3  0  0  0  0  0  0
  162.8320  206.0010  153.3600 C   0  0  0  0  0  2  0  0  0  0  0  0
  161.9980  206.2720  154.4450 O   0  0  0  0  0  1  0  0  0  0  0  0
  1  9  1  6  0  0  0
  1 16  1  0  0  0  0
  1  6  1  0  0  0  0
  2 10  1  0  0  0  0
  3  9  1  0  0  0  0
  3  8  1  0  0  0  0
  4  5  1  0  0  0  0
  4 27  1  1  0  0  0
  8  2  1  1  0  0  0
  8 11  1  0  0  0  0
 10  7  1  1  0  0  0
 10  4  1  0  0  0  0
 11 12  1  0  0  0  0
 11  5  1  1  0  0  0
 12  6  1  0  0  0  0
 12 49  1  1  0  0  0
 14 17  1  6  0  0  0
 14 15  1  0  0  0  0
 14 16  1  0  0  0  0
 15 16  1  0  0  0  0
 16 13  1  1  0  0  0
 18 17  2  0  0  0  0
 19 23  1  0  0  0  0
 19 24  1  0  0  0  0
 21 22  1  0  0  0  0
 22 18  1  0  0  0  0
 23 26  1  0  0  0  0
 23 20  1  1  0  0  0
 24 21  1  0  0  0  0
 25 22  2  0  0  0  0
 26 25  1  0  0  0  0
 27 28  2  1  0  0  0
 27 29  1  0  0  0  0
 30 31  1  0  0  0  0
 30 27  1  0  0  0  0
 31 44  1  6  0  0  0
 32 31  1  0  0  0  0
 33 32  1  0  0  0  0
 34 33  1  0  0  0  0
 35 34  1  0  0  0  0
 36 35  1  0  0  0  0
 37 38  2  0  0  0  0
 37 39  1  0  0  0  0
 39 36  1  0  0  0  0
 40 37  1  0  0  0  0
 42 43  1  0  0  0  0
 43 41  1  6  0  0  0
 43 40  1  0  0  0  0
 44 45  1  0  0  0  0
 45 48  1  0  0  0  0
 48 46  1  6  0  0  0
 48 47  1  0  0  0  0
 49 50  1  0  0  0  0
M  END
>  <MODEL>
1

>  <REMARK>
 VINA RESULT:      -5.0      0.000      0.000
  Name = 
  18 active torsions:
  status: ('A' for Active; 'I' for Inactive)
    1  A    between atoms: N_1  and  C_11
    2  A    between atoms: N_1  and  N_33
    3  A    between atoms: P_2  and  C_15
    4  A    between atoms: P_2  and  O_32
    5  A    between atoms: C_4  and  C_24
    6  A    between atoms: C_6  and  C_19
    7  A    between atoms: C_9  and  C_30
    8  A    between atoms: C_11  and  C_25
    9  A    between atoms: C_23  and  O_28
   10  A    between atoms: C_23  and  O_32
   11  A    between atoms: C_23  and  C_39
   12  A    between atoms: C_24  and  C_41
   13  A    between atoms: C_25  and  C_29
   14  A    between atoms: C_26  and  C_44
   15  A    between atoms: O_28  and  C_29
   16  A    between atoms: C_31  and  C_36
   17  A    between atoms: C_31  and  C_39
   18  A    between atoms: C_35  and  C_50
                            x       y       z     vdW  Elec       q    Type
                         _______ _______ _______ _____ _____    ______ ____

>  <TORSDO>
F 18

$$$$
=
 OpenBabel11072412063D

 50 53  0  0  1  0  0  0  0  0999 V2000
  161.1510  212.1970  142.2710 C   0  0  1  0  0  3  0  0  0  0  0  0
  159.0490  214.4230  145.8420 C   0  0  0  0  0  2  0  0  0  0  0  0
  159.3060  212.9160  143.8590 C   0  0  0  0  0  2  0  0  0  0  0  0
  160.8960  212.8260  146.5020 C   0  0  2  0  0  3  0  0  0  0  0  0
  161.8290  213.7040  145.9140 O   0  0  0  0  0  0  0  0  0  0  0  0
  162.0850  212.5210  143.2870 O   0  0  0  0  0  0  0  0  0  0  0  0
  159.9730  214.4430  148.0380 O   0  0  0  0  0  1  0  0  0  0  0  0
  159.7700  214.2230  144.5090 C   0  0  2  0  0  3  0  0  0  0  0  0
  159.7610  212.8490  142.4080 C   0  0  0  0  0  2  0  0  0  0  0  0
  159.6520  213.5920  146.9780 C   0  0  1  0  0  3  0  0  0  0  0  0
  161.3080  214.2980  144.7260 C   0  0  2  0  0  3  0  0  0  0  0  0
  162.1070  213.9150  143.4790 C   0  0  1  0  0  3  0  0  0  0  0  0
  163.1290  212.3450  140.7260 O   0  0  0  0  0  1  0  0  0  0  0  0
  160.9640  211.9680  139.6210 C   0  0  1  0  0  3  0  0  0  0  0  0
  161.0960  213.4380  140.0150 C   0  0  0  0  0  2  0  0  0  0  0  0
  161.7420  212.3700  140.8670 C   0  0  1  0  0  0  0  0  0  0  0  0
  159.5720  211.5080  139.9110 C   0  0  0  0  0  3  0  0  0  0  0  0
  158.5840  211.8370  139.0820 C   0  0  0  0  0  3  0  0  0  0  0  0
  154.1810  211.7470  138.7170 C   0  0  0  0  0  2  0  0  0  0  0  0
  154.7860  209.9370  137.2440 O   0  0  0  0  0  1  0  0  0  0  0  0
  156.1610  212.5320  139.3880 C   0  0  0  0  0  2  0  0  0  0  0  0
  157.1830  211.4430  139.2870 C   0  0  0  0  0  0  0  0  0  0  0  0
  154.4010  210.2420  138.5520 C   0  0  1  0  0  3  0  0  0  0  0  0
  155.3010  212.4730  138.2860 O   0  0  0  0  0  0  0  0  0  0  0  0
  156.8200  210.1540  139.3440 C   0  0  0  0  0  3  0  0  0  0  0  0
  155.4040  209.6930  139.5700 C   0  0  0  0  0  2  0  0  0  0  0  0
  161.6650  211.8800  147.8610 P   0  0  2  0  0  0  0  0  0  0  0  0
  163.3450  211.9240  147.6680 O   0  0  0  0  0  0  0  0  0  0  0  0
  161.2070  210.4400  147.8090 O   0  0  0  0  0  1  0  0  0  0  0  0
  161.2870  212.5620  149.3690 O   0  0  0  0  0  0  0  0  0  0  0  0
  161.1210  211.4860  150.2580 C   0  0  1  0  0  3  0  0  0  0  0  0
  162.2320  210.6150  150.2800 O   0  0  0  0  0  0  0  0  0  0  0  0
  162.2320  209.9050  151.4880 C   0  0  0  0  0  2  0  0  0  0  0  0
  162.1830  208.4160  151.2000 C   0  0  0  0  0  2  0  0  0  0  0  0
  161.4680  207.6890  152.3210 C   0  0  0  0  0  2  0  0  0  0  0  0
  161.9640  206.3240  152.4150 N   0  0  0  0  0  2  0  0  0  0  0  0
  160.9220  204.5080  151.0970 C   0  0  0  0  0  0  0  0  0  0  0  0
  160.5320  203.9120  152.1360 O   0  0  0  0  0  0  0  0  0  0  0  0
  161.7200  205.6880  151.1900 N   0  0  0  0  0  2  0  0  0  0  0  0
  160.5180  203.9930  149.7520 C   0  0  0  0  0  2  0  0  0  0  0  0
  161.1270  202.4590  147.8450 C   0  0  0  0  0  1  0  0  0  0  0  0
  161.0160  201.6140  150.1280 N   0  0  0  0  0  1  0  0  0  0  0  0
  161.3340  202.7770  149.3140 C   0  0  2  0  0  3  0  0  0  0  0  0
  160.6540  211.9210  151.6550 C   0  0  0  0  0  2  0  0  0  0  0  0
  159.6110  213.0320  151.6310 C   0  0  0  0  0  2  0  0  0  0  0  0
  158.9680  213.2620  154.0260 C   0  0  0  0  0  1  0  0  0  0  0  0
  158.2470  211.4190  152.7150 O   0  0  0  0  0  1  0  0  0  0  0  0
  158.5240  212.7820  152.6580 C   0  0  2  0  0  3  0  0  0  0  0  0
  163.5350  214.4510  143.5060 C   0  0  0  0  0  2  0  0  0  0  0  0
  164.0970  214.4530  142.2300 O   0  0  0  0  0  1  0  0  0  0  0  0
  1  9  1  6  0  0  0
  1  6  1  0  0  0  0
  2 10  1  0  0  0  0
  4 10  1  0  0  0  0
  4 27  1  1  0  0  0
  5  4  1  0  0  0  0
  6 12  1  0  0  0  0
  8  3  1  1  0  0  0
  8 11  1  0  0  0  0
  8  2  1  0  0  0  0
  9  3  1  0  0  0  0
 10  7  1  1  0  0  0
 11  5  1  1  0  0  0
 12 49  1  1  0  0  0
 12 11  1  0  0  0  0
 14 17  1  1  0  0  0
 14 15  1  0  0  0  0
 14 16  1  0  0  0  0
 15 16  1  0  0  0  0
 16 13  1  6  0  0  0
 16  1  1  0  0  0  0
 18 22  1  0  0  0  0
 18 17  2  0  0  0  0
 22 25  2  0  0  0  0
 22 21  1  0  0  0  0
 23 20  1  6  0  0  0
 23 19  1  0  0  0  0
 23 26  1  0  0  0  0
 24 19  1  0  0  0  0
 24 21  1  0  0  0  0
 25 26  1  0  0  0  0
 27 28  2  6  0  0  0
 27 30  1  0  0  0  0
 29 27  1  0  0  0  0
 30 31  1  0  0  0  0
 31 32  1  0  0  0  0
 31 44  1  1  0  0  0
 32 33  1  0  0  0  0
 34 33  1  0  0  0  0
 34 35  1  0  0  0  0
 35 36  1  0  0  0  0
 37 39  1  0  0  0  0
 37 38  2  0  0  0  0
 39 36  1  0  0  0  0
 40 37  1  0  0  0  0
 43 41  1  6  0  0  0
 43 40  1  0  0  0  0
 43 42  1  0  0  0  0
 45 44  1  0  0  0  0
 45 48  1  0  0  0  0
 48 47  1  0  0  0  0
 48 46  1  1  0  0  0
 50 49  1  0  0  0  0
M  END
>  <MODEL>
2

>  <REMARK>
 VINA RESULT:      -4.8      4.405      9.757
  Name = 
  18 active torsions:
  status: ('A' for Active; 'I' for Inactive)
    1  A    between atoms: N_1  and  C_11
    2  A    between atoms: N_1  and  N_33
    3  A    between atoms: P_2  and  C_15
    4  A    between atoms: P_2  and  O_32
    5  A    between atoms: C_4  and  C_24
    6  A    between atoms: C_6  and  C_19
    7  A    between atoms: C_9  and  C_30
    8  A    between atoms: C_11  and  C_25
    9  A    between atoms: C_23  and  O_28
   10  A    between atoms: C_23  and  O_32
   11  A    between atoms: C_23  and  C_39
   12  A    between atoms: C_24  and  C_41
   13  A    between atoms: C_25  and  C_29
   14  A    between atoms: C_26  and  C_44
   15  A    between atoms: O_28  and  C_29
   16  A    between atoms: C_31  and  C_36
   17  A    between atoms: C_31  and  C_39
   18  A    between atoms: C_35  and  C_50
                            x       y       z     vdW  Elec       q    Type
                         _______ _______ _______ _____ _____    ______ ____

>  <TORSDO>
F 18

$$$$
=
 OpenBabel11072412063D

 50 53  0  0  1  0  0  0  0  0999 V2000
  160.8150  206.5380  152.5760 C   0  0  1  0  0  3  0  0  0  0  0  0
  162.4610  210.6530  154.1490 C   0  0  0  0  0  2  0  0  0  0  0  0
  161.9950  208.7850  152.5500 C   0  0  0  0  0  2  0  0  0  0  0  0
  159.9440  210.4150  154.1810 C   0  0  2  0  0  3  0  0  0  0  0  0
  160.0740  209.4580  155.2080 O   0  0  0  0  0  0  0  0  0  0  0  0
  160.0370  207.0130  153.6620 O   0  0  0  0  0  0  0  0  0  0  0  0
  161.0890  212.1860  155.3510 O   0  0  0  0  0  1  0  0  0  0  0  0
  162.2970  209.1400  154.0090 C   0  0  2  0  0  3  0  0  0  0  0  0
  162.1380  207.2870  152.3230 C   0  0  0  0  0  2  0  0  0  0  0  0
  161.1230  211.3980  154.1990 C   0  0  1  0  0  3  0  0  0  0  0  0
  161.2190  208.6320  155.0080 C   0  0  2  0  0  3  0  0  0  0  0  0
  160.8550  207.1610  154.7970 C   0  0  1  0  0  3  0  0  0  0  0  0
  160.5190  204.3250  153.7340 O   0  0  0  0  0  1  0  0  0  0  0  0
  161.1170  204.1880  151.3520 C   0  0  1  0  0  3  0  0  0  0  0  0
  162.3580  204.5140  152.1800 C   0  0  0  0  0  2  0  0  0  0  0  0
  161.0040  205.0170  152.6250 C   0  0  1  0  0  0  0  0  0  0  0  0
  161.1330  205.0120  150.1050 C   0  0  0  0  0  3  0  0  0  0  0  0
  161.3860  204.4300  148.9360 C   0  0  0  0  0  3  0  0  0  0  0  0
  162.1780  205.3400  144.6850 C   0  0  0  0  0  2  0  0  0  0  0  0
  159.8540  204.7070  144.5770 O   0  0  0  0  0  1  0  0  0  0  0  0
  162.6830  205.0390  146.8390 C   0  0  0  0  0  2  0  0  0  0  0  0
  161.4350  205.1540  147.6580 C   0  0  0  0  0  0  0  0  0  0  0  0
  160.7190  205.7980  144.6920 C   0  0  1  0  0  3  0  0  0  0  0  0
  162.4040  204.3510  145.6530 O   0  0  0  0  0  0  0  0  0  0  0  0
  160.3890  205.8660  147.2160 C   0  0  0  0  0  3  0  0  0  0  0  0
  160.3880  206.6430  145.9260 C   0  0  0  0  0  2  0  0  0  0  0  0
  158.3420  211.2820  154.3040 P   0  0  2  0  0  0  0  0  0  0  0  0
  158.6190  212.8550  154.8580 O   0  0  0  0  0  0  0  0  0  0  0  0
  157.4440  210.5680  155.2890 O   0  0  0  0  0  1  0  0  0  0  0  0
  157.5840  211.3800  152.7870 O   0  0  0  0  0  0  0  0  0  0  0  0
  157.6990  212.7180  152.3740 C   0  0  1  0  0  3  0  0  0  0  0  0
  158.4850  212.8680  151.2100 O   0  0  0  0  0  0  0  0  0  0  0  0
  159.8390  212.7650  151.5560 C   0  0  0  0  0  2  0  0  0  0  0  0
  160.6960  213.1450  150.3640 C   0  0  0  0  0  2  0  0  0  0  0  0
  159.8180  213.5760  149.2040 C   0  0  0  0  0  2  0  0  0  0  0  0
  160.0350  212.6890  148.0700 N   0  0  0  0  0  2  0  0  0  0  0  0
  161.1040  213.5180  145.9980 C   0  0  0  0  0  0  0  0  0  0  0  0
  162.2060  212.9870  146.2980 O   0  0  0  0  0  0  0  0  0  0  0  0
  160.0000  213.4630  146.9020 N   0  0  0  0  0  2  0  0  0  0  0  0
  160.9390  214.1830  144.6690 C   0  0  0  0  0  2  0  0  0  0  0  0
  159.8740  212.0550  143.8300 C   0  0  0  0  0  1  0  0  0  0  0  0
  162.1450  212.6490  143.1720 N   0  0  0  0  0  1  0  0  0  0  0  0
  160.8370  213.1860  143.5160 C   0  0  2  0  0  3  0  0  0  0  0  0
  156.3500  213.4490  152.3030 C   0  0  0  0  0  2  0  0  0  0  0  0
  156.2600  214.4530  151.1600 C   0  0  0  0  0  2  0  0  0  0  0  0
  156.1450  214.2040  148.6860 C   0  0  0  0  0  1  0  0  0  0  0  0
  154.1870  214.4510  150.0040 O   0  0  0  0  0  1  0  0  0  0  0  0
  155.4610  213.8900  150.0010 C   0  0  2  0  0  3  0  0  0  0  0  0
  160.2160  206.5300  156.0300 C   0  0  0  0  0  2  0  0  0  0  0  0
  160.2470  207.4030  157.1170 O   0  0  0  0  0  1  0  0  0  0  0  0
  1  9  1  1  0  0  0
  1 16  1  0  0  0  0
  1  6  1  0  0  0  0
  2 10  1  0  0  0  0
  4 10  1  0  0  0  0
  4 27  1  1  0  0  0
  4  5  1  0  0  0  0
  6 12  1  0  0  0  0
  8  3  1  6  0  0  0
  8  2  1  0  0  0  0
  8 11  1  0  0  0  0
  9  3  1  0  0  0  0
 10  7  1  1  0  0  0
 11  5  1  6  0  0  0
 12 11  1  0  0  0  0
 12 49  1  1  0  0  0
 14 17  1  6  0  0  0
 14 15  1  0  0  0  0
 14 16  1  0  0  0  0
 15 16  1  0  0  0  0
 16 13  1  1  0  0  0
 18 17  2  0  0  0  0
 19 23  1  0  0  0  0
 19 24  1  0  0  0  0
 21 22  1  0  0  0  0
 22 18  1  0  0  0  0
 23 20  1  1  0  0  0
 23 26  1  0  0  0  0
 24 21  1  0  0  0  0
 25 22  2  0  0  0  0
 26 25  1  0  0  0  0
 27 28  2  1  0  0  0
 27 29  1  0  0  0  0
 30 27  1  0  0  0  0
 31 44  1  6  0  0  0
 31 30  1  0  0  0  0
 32 33  1  0  0  0  0
 32 31  1  0  0  0  0
 34 33  1  0  0  0  0
 35 34  1  0  0  0  0
 36 35  1  0  0  0  0
 37 38  2  0  0  0  0
 37 39  1  0  0  0  0
 39 36  1  0  0  0  0
 40 37  1  0  0  0  0
 42 43  1  0  0  0  0
 43 41  1  1  0  0  0
 43 40  1  0  0  0  0
 45 44  1  0  0  0  0
 48 46  1  6  0  0  0
 48 47  1  0  0  0  0
 48 45  1  0  0  0  0
 49 50  1  0  0  0  0
M  END
>  <MODEL>
3

>  <REMARK>
 VINA RESULT:      -3.6      2.311      3.093
  Name = 
  18 active torsions:
  status: ('A' for Active; 'I' for Inactive)
    1  A    between atoms: N_1  and  C_11
    2  A    between atoms: N_1  and  N_33
    3  A    between atoms: P_2  and  C_15
    4  A    between atoms: P_2  and  O_32
    5  A    between atoms: C_4  and  C_24
    6  A    between atoms: C_6  and  C_19
    7  A    between atoms: C_9  and  C_30
    8  A    between atoms: C_11  and  C_25
    9  A    between atoms: C_23  and  O_28
   10  A    between atoms: C_23  and  O_32
   11  A    between atoms: C_23  and  C_39
   12  A    between atoms: C_24  and  C_41
   13  A    between atoms: C_25  and  C_29
   14  A    between atoms: C_26  and  C_44
   15  A    between atoms: O_28  and  C_29
   16  A    between atoms: C_31  and  C_36
   17  A    between atoms: C_31  and  C_39
   18  A    between atoms: C_35  and  C_50
                            x       y       z     vdW  Elec       q    Type
                         _______ _______ _______ _____ _____    ______ ____

>  <TORSDO>
F 18

$$$$
=
 OpenBabel11072412063D

 50 53  0  0  1  0  0  0  0  0999 V2000
  161.2550  211.8200  142.3320 C   0  0  1  0  0  3  0  0  0  0  0  0
  158.6290  214.1090  145.4920 C   0  0  0  0  0  2  0  0  0  0  0  0
  159.2170  212.4610  143.7010 C   0  0  0  0  0  2  0  0  0  0  0  0
  160.5840  212.8180  146.4450 C   0  0  2  0  0  3  0  0  0  0  0  0
  161.4570  213.7420  145.8340 O   0  0  0  0  0  0  0  0  0  0  0  0
  162.0610  212.3500  143.3710 O   0  0  0  0  0  0  0  0  0  0  0  0
  159.3620  214.4520  147.7330 O   0  0  0  0  0  1  0  0  0  0  0  0
  159.4750  213.8700  144.2420 C   0  0  2  0  0  3  0  0  0  0  0  0
  159.7940  212.3100  142.3010 C   0  0  0  0  0  2  0  0  0  0  0  0
  159.2270  213.4700  146.7490 C   0  0  1  0  0  3  0  0  0  0  0  0
  160.9720  214.1500  144.5570 C   0  0  2  0  0  3  0  0  0  0  0  0
  161.9080  213.7490  143.4160 C   0  0  1  0  0  3  0  0  0  0  0  0
  163.3060  211.6780  140.8840 O   0  0  0  0  0  1  0  0  0  0  0  0
  161.1670  211.6870  139.6700 C   0  0  1  0  0  3  0  0  0  0  0  0
  161.5160  213.1060  140.1160 C   0  0  0  0  0  2  0  0  0  0  0  0
  161.9360  211.9270  140.9630 C   0  0  1  0  0  0  0  0  0  0  0  0
  159.7060  211.4550  139.8810 C   0  0  0  0  0  3  0  0  0  0  0  0
  158.8350  211.8650  138.9630 C   0  0  0  0  0  3  0  0  0  0  0  0
  154.5050  212.3010  138.1960 C   0  0  0  0  0  2  0  0  0  0  0  0
  154.9530  210.2290  137.0470 O   0  0  0  0  0  1  0  0  0  0  0  0
  156.5210  212.9100  138.9390 C   0  0  0  0  0  2  0  0  0  0  0  0
  157.3800  211.6930  139.0840 C   0  0  0  0  0  0  0  0  0  0  0  0
  154.5170  210.7730  138.2580 C   0  0  1  0  0  3  0  0  0  0  0  0
  155.7470  212.8020  137.7780 O   0  0  0  0  0  0  0  0  0  0  0  0
  156.8320  210.4860  139.2810 C   0  0  0  0  0  3  0  0  0  0  0  0
  155.3520  210.2520  139.4320 C   0  0  0  0  0  2  0  0  0  0  0  0
  161.3420  212.1060  147.9460 P   0  0  2  0  0  0  0  0  0  0  0  0
  162.9680  212.5660  148.0010 O   0  0  0  0  0  1  0  0  0  0  0  0
  161.2620  210.5970  147.8970 O   0  0  0  0  0  0  0  0  0  0  0  0
  160.5780  212.6880  149.3480 O   0  0  0  0  0  0  0  0  0  0  0  0
  160.7730  211.7100  150.3370 C   0  0  1  0  0  3  0  0  0  0  0  0
  162.0000  211.0260  150.2000 O   0  0  0  0  0  0  0  0  0  0  0  0
  162.0910  210.0460  151.1980 C   0  0  0  0  0  2  0  0  0  0  0  0
  161.7020  208.6980  150.6210 C   0  0  0  0  0  2  0  0  0  0  0  0
  161.8850  208.7010  149.1150 C   0  0  0  0  0  2  0  0  0  0  0  0
  162.6720  207.5450  148.7150 N   0  0  0  0  0  2  0  0  0  0  0  0
  161.1450  206.2980  147.2180 C   0  0  0  0  0  0  0  0  0  0  0  0
  160.5830  205.7270  148.1890 O   0  0  0  0  0  0  0  0  0  0  0  0
  162.2610  207.1640  147.4300 N   0  0  0  0  0  2  0  0  0  0  0  0
  160.6200  206.0950  145.8330 C   0  0  0  0  0  2  0  0  0  0  0  0
  161.4510  205.2540  143.6040 C   0  0  0  0  0  1  0  0  0  0  0  0
  160.6540  203.6950  145.2990 N   0  0  0  0  0  1  0  0  0  0  0  0
  161.3320  204.9650  145.0890 C   0  0  2  0  0  3  0  0  0  0  0  0
  160.5130  212.2270  151.7600 C   0  0  0  0  0  2  0  0  0  0  0  0
  159.3020  213.1460  151.8630 C   0  0  0  0  0  2  0  0  0  0  0  0
  159.5870  212.4210  154.2280 C   0  0  0  0  0  1  0  0  0  0  0  0
  157.5980  213.4790  153.4820 O   0  0  0  0  0  1  0  0  0  0  0  0
  158.9790  213.4630  153.3100 C   0  0  2  0  0  3  0  0  0  0  0  0
  163.2600  214.4530  143.4870 C   0  0  0  0  0  2  0  0  0  0  0  0
  164.2290  213.6280  144.0570 O   0  0  0  0  0  1  0  0  0  0  0  0
  1  9  1  6  0  0  0
  1  6  1  0  0  0  0
  2 10  1  0  0  0  0
  4 10  1  0  0  0  0
  4 27  1  1  0  0  0
  5  4  1  0  0  0  0
  6 12  1  0  0  0  0
  8  3  1  1  0  0  0
  8 11  1  0  0  0  0
  8  2  1  0  0  0  0
  9  3  1  0  0  0  0
 10  7  1  1  0  0  0
 11  5  1  1  0  0  0
 12 49  1  1  0  0  0
 12 11  1  0  0  0  0
 14 17  1  1  0  0  0
 14 15  1  0  0  0  0
 14 16  1  0  0  0  0
 15 16  1  0  0  0  0
 16 13  1  6  0  0  0
 16  1  1  0  0  0  0
 18 22  1  0  0  0  0
 18 17  2  0  0  0  0
 19 23  1  0  0  0  0
 21 22  1  0  0  0  0
 22 25  2  0  0  0  0
 23 20  1  6  0  0  0
 23 26  1  0  0  0  0
 24 19  1  0  0  0  0
 24 21  1  0  0  0  0
 25 26  1  0  0  0  0
 27 29  2  6  0  0  0
 27 28  1  0  0  0  0
 27 30  1  0  0  0  0
 30 31  1  0  0  0  0
 31 44  1  1  0  0  0
 32 31  1  0  0  0  0
 32 33  1  0  0  0  0
 34 33  1  0  0  0  0
 35 34  1  0  0  0  0
 36 35  1  0  0  0  0
 37 39  1  0  0  0  0
 37 38  2  0  0  0  0
 39 36  1  0  0  0  0
 40 37  1  0  0  0  0
 43 41  1  6  0  0  0
 43 42  1  0  0  0  0
 43 40  1  0  0  0  0
 44 45  1  0  0  0  0
 45 48  1  0  0  0  0
 48 47  1  0  0  0  0
 48 46  1  1  0  0  0
 49 50  1  0  0  0  0
M  END
>  <MODEL>
4

>  <REMARK>
 VINA RESULT:      -3.5      4.090      9.075
  Name = 
  18 active torsions:
  status: ('A' for Active; 'I' for Inactive)
    1  A    between atoms: N_1  and  C_11
    2  A    between atoms: N_1  and  N_33
    3  A    between atoms: P_2  and  C_15
    4  A    between atoms: P_2  and  O_32
    5  A    between atoms: C_4  and  C_24
    6  A    between atoms: C_6  and  C_19
    7  A    between atoms: C_9  and  C_30
    8  A    between atoms: C_11  and  C_25
    9  A    between atoms: C_23  and  O_28
   10  A    between atoms: C_23  and  O_32
   11  A    between atoms: C_23  and  C_39
   12  A    between atoms: C_24  and  C_41
   13  A    between atoms: C_25  and  C_29
   14  A    between atoms: C_26  and  C_44
   15  A    between atoms: O_28  and  C_29
   16  A    between atoms: C_31  and  C_36
   17  A    between atoms: C_31  and  C_39
   18  A    between atoms: C_35  and  C_50
                            x       y       z     vdW  Elec       q    Type
                         _______ _______ _______ _____ _____    ______ ____

>  <TORSDO>
F 18

$$$$
=
 OpenBabel11072412063D

 50 53  0  0  1  0  0  0  0  0999 V2000
  160.4930  206.5080  152.4230 C   0  0  1  0  0  3  0  0  0  0  0  0
  161.8390  210.9890  152.9010 C   0  0  0  0  0  2  0  0  0  0  0  0
  161.1690  208.8630  151.7610 C   0  0  0  0  0  2  0  0  0  0  0  0
  159.5840  210.4270  153.8990 C   0  0  2  0  0  3  0  0  0  0  0  0
  160.2400  209.6550  154.8800 O   0  0  0  0  0  0  0  0  0  0  0  0
  160.0850  207.0290  153.6770 O   0  0  0  0  0  0  0  0  0  0  0  0
  160.7410  212.4860  154.3940 O   0  0  0  0  0  1  0  0  0  0  0  0
  161.9050  209.4640  152.9630 C   0  0  2  0  0  3  0  0  0  0  0  0
  161.4830  207.3800  151.6270 C   0  0  0  0  0  2  0  0  0  0  0  0
  160.4990  211.5490  153.3870 C   0  0  1  0  0  3  0  0  0  0  0  0
  161.3650  208.9680  154.3340 C   0  0  2  0  0  3  0  0  0  0  0  0
  161.2150  207.4470  154.4030 C   0  0  1  0  0  3  0  0  0  0  0  0
  160.6340  204.3360  153.6830 O   0  0  0  0  0  1  0  0  0  0  0  0
  161.1710  204.1930  151.2870 C   0  0  1  0  0  3  0  0  0  0  0  0
  162.3600  204.7730  152.0510 C   0  0  0  0  0  2  0  0  0  0  0  0
  160.9530  205.0490  152.5270 C   0  0  1  0  0  0  0  0  0  0  0  0
  160.9990  204.9450  150.0070 C   0  0  0  0  0  3  0  0  0  0  0  0
  161.6680  204.5600  148.9230 C   0  0  0  0  0  3  0  0  0  0  0  0
  162.2310  205.4500  144.6310 C   0  0  0  0  0  2  0  0  0  0  0  0
  160.0440  204.4360  144.5910 O   0  0  0  0  0  1  0  0  0  0  0  0
  162.8120  205.3080  146.7820 C   0  0  0  0  0  2  0  0  0  0  0  0
  161.5750  205.2400  147.6230 C   0  0  0  0  0  0  0  0  0  0  0  0
  160.7150  205.6590  144.6550 C   0  0  1  0  0  3  0  0  0  0  0  0
  162.6340  204.5440  145.6230 O   0  0  0  0  0  0  0  0  0  0  0  0
  160.4180  205.7530  147.1830 C   0  0  0  0  0  3  0  0  0  0  0  0
  160.2680  206.4760  145.8700 C   0  0  0  0  0  2  0  0  0  0  0  0
  158.0070  211.0840  154.5410 P   0  0  2  0  0  0  0  0  0  0  0  0
  158.3440  212.2230  155.7440 O   0  0  0  0  0  1  0  0  0  0  0  0
  157.1900  209.9630  155.1450 O   0  0  0  0  0  0  0  0  0  0  0  0
  157.1230  211.8560  153.3130 O   0  0  0  0  0  0  0  0  0  0  0  0
  157.5850  213.1810  153.2680 C   0  0  1  0  0  3  0  0  0  0  0  0
  157.6670  213.6900  151.9530 O   0  0  0  0  0  0  0  0  0  0  0  0
  158.9620  213.4750  151.4610 C   0  0  0  0  0  2  0  0  0  0  0  0
  158.9890  213.7550  149.9700 C   0  0  0  0  0  2  0  0  0  0  0  0
  157.5800  213.9780  149.4540 C   0  0  0  0  0  2  0  0  0  0  0  0
  157.4360  213.3630  148.1430 N   0  0  0  0  0  2  0  0  0  0  0  0
  158.7170  213.2870  146.0270 C   0  0  0  0  0  0  0  0  0  0  0  0
  158.0770  212.2820  145.6200 O   0  0  0  0  0  0  0  0  0  0  0  0
  158.4840  213.8190  147.3320 N   0  0  0  0  0  2  0  0  0  0  0  0
  159.7080  213.9510  145.1250 C   0  0  0  0  0  2  0  0  0  0  0  0
  161.7420  213.0410  146.3100 C   0  0  0  0  0  1  0  0  0  0  0  0
  161.8760  213.7490  143.9810 N   0  0  0  0  0  1  0  0  0  0  0  0
  161.0070  213.1570  144.9870 C   0  0  2  0  0  3  0  0  0  0  0  0
  156.8490  214.1140  154.2420 C   0  0  0  0  0  2  0  0  0  0  0  0
  155.5120  213.5610  154.7220 C   0  0  0  0  0  2  0  0  0  0  0  0
  155.3800  213.5550  157.2080 C   0  0  0  0  0  1  0  0  0  0  0  0
  153.6370  214.4530  155.8720 O   0  0  0  0  0  1  0  0  0  0  0  0
  155.0190  214.3100  155.9450 C   0  0  2  0  0  3  0  0  0  0  0  0
  161.1820  206.9230  155.8350 C   0  0  0  0  0  2  0  0  0  0  0  0
  161.8890  207.7620  156.6960 O   0  0  0  0  0  1  0  0  0  0  0  0
  1  9  1  1  0  0  0
  1 16  1  0  0  0  0
  1  6  1  0  0  0  0
  2  8  1  0  0  0  0
  2 10  1  0  0  0  0
  4 27  1  1  0  0  0
  4  5  1  0  0  0  0
  6 12  1  0  0  0  0
  8  3  1  6  0  0  0
  8 11  1  0  0  0  0
  9  3  1  0  0  0  0
 10  4  1  0  0  0  0
 10  7  1  1  0  0  0
 11 12  1  0  0  0  0
 11  5  1  6  0  0  0
 12 49  1  1  0  0  0
 14 17  1  6  0  0  0
 14 15  1  0  0  0  0
 14 16  1  0  0  0  0
 15 16  1  0  0  0  0
 16 13  1  1  0  0  0
 18 17  2  0  0  0  0
 19 23  1  0  0  0  0
 19 24  1  0  0  0  0
 21 22  1  0  0  0  0
 22 18  1  0  0  0  0
 23 20  1  1  0  0  0
 23 26  1  0  0  0  0
 24 21  1  0  0  0  0
 25 22  2  0  0  0  0
 26 25  1  0  0  0  0
 27 29  2  1  0  0  0
 27 28  1  0  0  0  0
 30 27  1  0  0  0  0
 31 30  1  0  0  0  0
 31 44  1  1  0  0  0
 32 31  1  0  0  0  0
 33 32  1  0  0  0  0
 34 33  1  0  0  0  0
 35 34  1  0  0  0  0
 36 35  1  0  0  0  0
 37 39  1  0  0  0  0
 38 37  2  0  0  0  0
 39 36  1  0  0  0  0
 40 37  1  0  0  0  0
 42 43  1  0  0  0  0
 43 40  1  0  0  0  0
 43 41  1  1  0  0  0
 44 45  1  0  0  0  0
 45 48  1  0  0  0  0
 47 48  1  0  0  0  0
 48 46  1  1  0  0  0
 49 50  1  0  0  0  0
M  END
>  <MODEL>
5

>  <REMARK>
 VINA RESULT:      -3.5      1.975      2.677
  Name = 
  18 active torsions:
  status: ('A' for Active; 'I' for Inactive)
    1  A    between atoms: N_1  and  C_11
    2  A    between atoms: N_1  and  N_33
    3  A    between atoms: P_2  and  C_15
    4  A    between atoms: P_2  and  O_32
    5  A    between atoms: C_4  and  C_24
    6  A    between atoms: C_6  and  C_19
    7  A    between atoms: C_9  and  C_30
    8  A    between atoms: C_11  and  C_25
    9  A    between atoms: C_23  and  O_28
   10  A    between atoms: C_23  and  O_32
   11  A    between atoms: C_23  and  C_39
   12  A    between atoms: C_24  and  C_41
   13  A    between atoms: C_25  and  C_29
   14  A    between atoms: C_26  and  C_44
   15  A    between atoms: O_28  and  C_29
   16  A    between atoms: C_31  and  C_36
   17  A    between atoms: C_31  and  C_39
   18  A    between atoms: C_35  and  C_50
                            x       y       z     vdW  Elec       q    Type
                         _______ _______ _______ _____ _____    ______ ____

>  <TORSDO>
F 18

$$$$
=
 OpenBabel11072412063D

 50 53  0  0  1  0  0  0  0  0999 V2000
  160.3220  204.9620  151.1540 C   0  0  1  0  0  3  0  0  0  0  0  0
  162.0940  208.8510  149.1900 C   0  0  0  0  0  2  0  0  0  0  0  0
  160.6080  206.8590  149.4930 C   0  0  0  0  0  2  0  0  0  0  0  0
  161.0830  209.1650  151.4870 C   0  0  2  0  0  3  0  0  0  0  0  0
  162.1450  208.4130  152.0290 O   0  0  0  0  0  0  0  0  0  0  0  0
  160.9360  205.7870  152.1300 O   0  0  0  0  0  0  0  0  0  0  0  0
  162.4750  210.8390  150.4460 O   0  0  0  0  0  1  0  0  0  0  0  0
  162.0230  207.4090  149.6930 C   0  0  2  0  0  3  0  0  0  0  0  0
  160.5880  205.3490  149.6860 C   0  0  0  0  0  2  0  0  0  0  0  0
  161.5140  209.8590  150.1870 C   0  0  1  0  0  3  0  0  0  0  0  0
  162.5150  207.3390  151.1660 C   0  0  2  0  0  3  0  0  0  0  0  0
  162.2940  205.9670  151.8060 C   0  0  1  0  0  3  0  0  0  0  0  0
  160.1010  202.9250  152.6130 O   0  0  0  0  0  1  0  0  0  0  0  0
  160.7330  202.4770  150.2790 C   0  0  1  0  0  3  0  0  0  0  0  0
  161.9500  202.9680  151.0590 C   0  0  0  0  0  2  0  0  0  0  0  0
  160.5710  203.4720  151.4190 C   0  0  1  0  0  0  0  0  0  0  0  0
  160.7300  203.1150  148.9270 C   0  0  0  0  0  3  0  0  0  0  0  0
  161.4810  202.6010  147.9560 C   0  0  0  0  0  3  0  0  0  0  0  0
  160.2850  203.8640  143.8930 C   0  0  0  0  0  2  0  0  0  0  0  0
  160.1310  205.9610  145.0730 O   0  0  0  0  0  1  0  0  0  0  0  0
  160.8570  202.4230  145.5010 C   0  0  0  0  0  2  0  0  0  0  0  0
  161.5550  203.1630  146.5990 C   0  0  0  0  0  0  0  0  0  0  0  0
  160.9740  205.1720  144.2860 C   0  0  1  0  0  3  0  0  0  0  0  0
  159.7910  203.1920  145.0210 O   0  0  0  0  0  0  0  0  0  0  0  0
  162.1920  204.3150  146.3530 C   0  0  0  0  0  3  0  0  0  0  0  0
  162.3170  204.9270  144.9820 C   0  0  0  0  0  2  0  0  0  0  0  0
  160.4480  210.3620  152.7110 P   0  0  2  0  0  0  0  0  0  0  0  0
  158.8100  210.6400  152.3970 O   0  0  0  0  0  0  0  0  0  0  0  0
  161.1970  211.6700  152.5890 O   0  0  0  0  0  1  0  0  0  0  0  0
  160.5890  209.7520  154.2900 O   0  0  0  0  0  0  0  0  0  0  0  0
  161.3080  210.7110  155.0210 C   0  0  1  0  0  3  0  0  0  0  0  0
  160.6370  211.9510  155.1100 O   0  0  0  0  0  0  0  0  0  0  0  0
  160.3430  212.2150  156.4550 C   0  0  0  0  0  2  0  0  0  0  0  0
  160.4830  213.7020  156.7190 C   0  0  0  0  0  2  0  0  0  0  0  0
  159.1210  214.3690  156.6940 C   0  0  0  0  0  2  0  0  0  0  0  0
  158.6260  214.4200  155.3260 N   0  0  0  0  0  2  0  0  0  0  0  0
  156.4050  213.3660  155.0430 C   0  0  0  0  0  0  0  0  0  0  0  0
  155.8080  214.4380  155.3240 O   0  0  0  0  0  0  0  0  0  0  0  0
  157.8300  213.2870  155.1110 N   0  0  0  0  0  2  0  0  0  0  0  0
  155.6190  212.1730  154.6030 C   0  0  0  0  0  2  0  0  0  0  0  0
  154.6710  209.9390  155.2940 C   0  0  0  0  0  1  0  0  0  0  0  0
  155.5620  211.4770  156.9620 N   0  0  0  0  0  1  0  0  0  0  0  0
  155.7050  211.0100  155.5920 C   0  0  2  0  0  3  0  0  0  0  0  0
  161.8140  210.1880  156.3740 C   0  0  0  0  0  2  0  0  0  0  0  0
  161.9710  208.6730  156.4220 C   0  0  0  0  0  2  0  0  0  0  0  0
  160.1710  207.0540  155.8390 C   0  0  0  0  0  1  0  0  0  0  0  0
  159.7340  208.9810  157.1540 O   0  0  0  0  0  1  0  0  0  0  0  0
  160.6940  208.0070  156.8960 C   0  0  2  0  0  3  0  0  0  0  0  0
  163.1910  205.7300  153.0170 C   0  0  0  0  0  2  0  0  0  0  0  0
  162.5300  206.0460  154.2030 O   0  0  0  0  0  1  0  0  0  0  0  0
  1  9  1  6  0  0  0
  1 16  1  0  0  0  0
  1  6  1  0  0  0  0
  2 10  1  0  0  0  0
  3  9  1  0  0  0  0
  3  8  1  0  0  0  0
  4  5  1  0  0  0  0
  4 27  1  1  0  0  0
  8  2  1  1  0  0  0
  8 11  1  0  0  0  0
 10  7  1  1  0  0  0
 10  4  1  0  0  0  0
 11 12  1  0  0  0  0
 11  5  1  1  0  0  0
 12  6  1  0  0  0  0
 12 49  1  1  0  0  0
 14 17  1  6  0  0  0
 14 15  1  0  0  0  0
 14 16  1  0  0  0  0
 15 16  1  0  0  0  0
 16 13  1  1  0  0  0
 18 17  2  0  0  0  0
 19 23  1  0  0  0  0
 19 24  1  0  0  0  0
 21 22  1  0  0  0  0
 22 18  1  0  0  0  0
 23 26  1  0  0  0  0
 23 20  1  1  0  0  0
 24 21  1  0  0  0  0
 25 22  2  0  0  0  0
 26 25  1  0  0  0  0
 27 28  2  6  0  0  0
 27 30  1  0  0  0  0
 29 27  1  0  0  0  0
 30 31  1  0  0  0  0
 31 32  1  0  0  0  0
 31 44  1  1  0  0  0
 32 33  1  0  0  0  0
 33 34  1  0  0  0  0
 35 34  1  0  0  0  0
 36 35  1  0  0  0  0
 37 39  1  0  0  0  0
 37 38  2  0  0  0  0
 39 36  1  0  0  0  0
 40 37  1  0  0  0  0
 40 43  1  0  0  0  0
 43 41  1  6  0  0  0
 43 42  1  0  0  0  0
 44 45  1  0  0  0  0
 45 48  1  0  0  0  0
 48 46  1  6  0  0  0
 48 47  1  0  0  0  0
 49 50  1  0  0  0  0
M  END
>  <MODEL>
6

>  <REMARK>
 VINA RESULT:      -3.1      3.706      5.764
  Name = 
  18 active torsions:
  status: ('A' for Active; 'I' for Inactive)
    1  A    between atoms: N_1  and  C_11
    2  A    between atoms: N_1  and  N_33
    3  A    between atoms: P_2  and  C_15
    4  A    between atoms: P_2  and  O_32
    5  A    between atoms: C_4  and  C_24
    6  A    between atoms: C_6  and  C_19
    7  A    between atoms: C_9  and  C_30
    8  A    between atoms: C_11  and  C_25
    9  A    between atoms: C_23  and  O_28
   10  A    between atoms: C_23  and  O_32
   11  A    between atoms: C_23  and  C_39
   12  A    between atoms: C_24  and  C_41
   13  A    between atoms: C_25  and  C_29
   14  A    between atoms: C_26  and  C_44
   15  A    between atoms: O_28  and  C_29
   16  A    between atoms: C_31  and  C_36
   17  A    between atoms: C_31  and  C_39
   18  A    between atoms: C_35  and  C_50
                            x       y       z     vdW  Elec       q    Type
                         _______ _______ _______ _____ _____    ______ ____

>  <TORSDO>
F 18

$$$$
