=
 OpenBabel11072413143D

 34 37  0  0  1  0  0  0  0  0999 V2000
  161.3400  209.9670  151.3420 S   0  0  0  0  0  0  0  0  0  0  0  0
  160.4540  209.5370  154.5150 C   0  0  0  0  0  1  0  0  0  0  0  0
  162.0420  204.9260  151.6030 F   0  0  0  0  0  0  0  0  0  0  0  0
  160.9740  207.0880  154.3690 C   0  0  0  0  0  0  0  0  0  0  0  0
  161.5220  205.9570  152.2970 C   0  0  0  0  0  0  0  0  0  0  0  0
  160.8270  208.4730  152.2510 C   0  0  2  0  0  3  0  0  0  0  0  0
  161.0990  208.4340  153.7900 C   0  0  1  0  0  3  0  0  0  0  0  0
  161.0830  207.1940  151.4650 C   0  0  2  0  0  3  0  0  0  0  0  0
  161.4470  205.8920  153.5930 C   0  0  0  0  0  3  0  0  0  0  0  0
  160.6420  206.9950  155.5210 O   0  0  0  0  0  0  0  0  0  0  0  0
  160.3940  206.9680  150.0870 C   0  0  0  0  0  2  0  0  0  0  0  0
  161.8340  206.7350  148.0620 C   0  0  0  0  0  3  0  0  0  0  0  0
  161.1330  206.0880  149.0810 C   0  0  0  0  0  0  0  0  0  0  0  0
  161.5360  204.0310  147.8780 C   0  0  0  0  0  3  0  0  0  0  0  0
  162.1460  204.7330  146.8560 C   0  0  0  0  0  0  0  0  0  0  0  0
  162.7620  203.8790  145.3670 Cl  0  0  0  0  0  0  0  0  0  0  0  0
  162.3730  206.0710  146.9370 C   0  0  0  0  0  3  0  0  0  0  0  0
  161.0010  204.6950  148.9330 C   0  0  0  0  0  3  0  0  0  0  0  0
  160.2930  212.4280  152.8880 O   0  0  0  0  0  0  0  0  0  0  0  0
  160.3090  211.1800  152.2570 C   0  0  1  0  0  3  0  0  0  0  0  0
  159.1330  211.9350  152.1230 N   0  0  2  0  0  0  0  0  0  0  0  0
  157.6220  213.3160  150.4220 C   0  0  1  0  0  3  0  0  0  0  0  0
  159.0970  212.9210  151.0400 C   0  0  1  0  0  0  0  0  0  0  0  0
  158.2140  214.1610  151.5860 C   0  0  2  0  0  3  0  0  0  0  0  0
  157.8440  213.0950  148.9780 O   0  0  0  0  0  1  0  0  0  0  0  0
  160.9160  214.4520  150.6080 O   0  0  0  0  0  0  0  0  0  0  0  0
  160.3600  213.2590  150.3910 C   0  0  0  0  0  0  0  0  0  0  0  0
  160.5310  212.5150  149.1750 O   0  0  0  0  0  0  0  0  0  0  0  0
  161.4910  213.1620  148.5110 C   0  0  0  0  0  1  0  0  0  0  0  0
  158.1070  214.3360  154.0010 O   0  0  0  0  0  1  0  0  0  0  0  0
  157.4650  213.6430  152.9710 C   0  0  1  0  0  3  0  0  0  0  0  0
  155.4230  213.1630  154.2920 O   0  0  0  0  0  1  0  0  0  0  0  0
  155.2390  214.3110  152.2580 O   0  0  0  0  0  0  0  0  0  0  0  0
  155.9960  213.8200  153.2250 C   0  0  0  0  0  0  0  0  0  0  0  0
  3  5  1  0  0  0  0
  4 10  2  0  0  0  0
  5  9  2  0  0  0  0
  6  1  1  6  0  0  0
  6  7  1  0  0  0  0
  7  4  1  0  0  0  0
  7  2  1  1  0  0  0
  8 11  1  1  0  0  0
  8  6  1  0  0  0  0
  8  5  1  0  0  0  0
  9  4  1  0  0  0  0
 12 13  1  0  0  0  0
 13 11  1  0  0  0  0
 14 18  1  0  0  0  0
 15 17  1  0  0  0  0
 15 14  2  0  0  0  0
 16 15  1  0  0  0  0
 17 12  2  0  0  0  0
 18 13  2  0  0  0  0
 20  1  1  6  0  0  0
 20 19  1  0  0  0  0
 21 20  1  0  0  0  0
 21 19  1  1  0  0  0
 22 25  1  6  0  0  0
 22 23  1  0  0  0  0
 22 24  1  0  0  0  0
 23 27  1  6  0  0  0
 23 24  1  0  0  0  0
 23 21  1  0  0  0  0
 24 31  1  1  0  0  0
 27 26  2  0  0  0  0
 28 27  1  0  0  0  0
 29 28  1  0  0  0  0
 31 34  1  0  0  0  0
 31 30  1  1  0  0  0
 33 34  2  0  0  0  0
 34 32  1  0  0  0  0
M  END
>  <MODEL>
1

>  <REMARK>
 VINA RESULT:      -7.0      0.000      0.000
  Name = 
  9 active torsions:
  status: ('A' for Active; 'I' for Inactive)
    1  A    between atoms: C_3  and  C_34
    2  A    between atoms: S_6  and  C_11
    3  A    between atoms: S_6  and  C_20
    4  A    between atoms: O_12  and  C_14
    5  A    between atoms: C_14  and  C_28
    6  A    between atoms: N_21  and  C_28
    7  A    between atoms: C_24  and  C_34
    8  A    between atoms: C_26  and  C_29
    9  A    between atoms: C_29  and  C_31
                            x       y       z     vdW  Elec       q    Type
                         _______ _______ _______ _____ _____    ______ ____

>  <TORSDO>
F 9

$$$$
=
 OpenBabel11072413143D

 34 37  0  0  1  0  0  0  0  0999 V2000
  159.2470  211.5000  152.1560 S   0  0  0  0  0  0  0  0  0  0  0  0
  159.9890  214.4310  150.7800 C   0  0  0  0  0  1  0  0  0  0  0  0
  162.4160  209.8110  148.5410 F   0  0  0  0  0  0  0  0  0  0  0  0
  161.4220  213.3040  149.0570 C   0  0  0  0  0  0  0  0  0  0  0  0
  161.9850  210.9480  149.1190 C   0  0  0  0  0  0  0  0  0  0  0  0
  160.6340  212.0050  151.0870 C   0  0  2  0  0  3  0  0  0  0  0  0
  160.3900  213.1930  150.0990 C   0  0  1  0  0  3  0  0  0  0  0  0
  161.4320  210.8180  150.5650 C   0  0  2  0  0  3  0  0  0  0  0  0
  162.0100  212.0630  148.4500 C   0  0  0  0  0  3  0  0  0  0  0  0
  161.6510  214.3930  148.6010 O   0  0  0  0  0  0  0  0  0  0  0  0
  162.1450  209.8540  151.5590 C   0  0  0  0  0  2  0  0  0  0  0  0
  161.5660  207.8430  152.9190 C   0  0  0  0  0  3  0  0  0  0  0  0
  161.5980  208.4310  151.6530 C   0  0  0  0  0  0  0  0  0  0  0  0
  161.0510  206.2500  150.7670 C   0  0  0  0  0  3  0  0  0  0  0  0
  161.1160  205.7040  152.0350 C   0  0  0  0  0  0  0  0  0  0  0  0
  160.8640  203.9180  152.3020 Cl  0  0  0  0  0  0  0  0  0  0  0  0
  161.3060  206.4720  153.1400 C   0  0  0  0  0  3  0  0  0  0  0  0
  161.3330  207.5630  150.5780 C   0  0  0  0  0  3  0  0  0  0  0  0
  159.0720  213.8940  154.1010 O   0  0  0  0  0  0  0  0  0  0  0  0
  159.5240  212.7100  153.5100 C   0  0  1  0  0  3  0  0  0  0  0  0
  159.6090  212.7830  154.9080 N   0  0  2  0  0  0  0  0  0  0  0  0
  158.0540  210.8070  155.7800 C   0  0  1  0  0  3  0  0  0  0  0  0
  158.4110  212.4100  155.6660 C   0  0  1  0  0  0  0  0  0  0  0  0
  158.9200  211.4760  156.8850 C   0  0  2  0  0  3  0  0  0  0  0  0
  156.6500  210.7890  155.3190 O   0  0  0  0  0  1  0  0  0  0  0  0
  157.4380  213.9460  157.2580 O   0  0  0  0  0  0  0  0  0  0  0  0
  157.4720  213.4730  156.0120 C   0  0  0  0  0  0  0  0  0  0  0  0
  156.3320  213.4560  155.1400 O   0  0  0  0  0  0  0  0  0  0  0  0
  155.3730  214.0900  155.8180 C   0  0  0  0  0  1  0  0  0  0  0  0
  161.2540  212.0120  157.2600 O   0  0  0  0  0  1  0  0  0  0  0  0
  160.4940  211.0740  156.5560 C   0  0  1  0  0  3  0  0  0  0  0  0
  162.3810  209.4670  156.5040 O   0  0  0  0  0  0  0  0  0  0  0  0
  160.2800  208.7570  157.2600 O   0  0  0  0  0  1  0  0  0  0  0  0
  161.0890  209.7390  156.8990 C   0  0  0  0  0  0  0  0  0  0  0  0
  3  5  1  0  0  0  0
  4  7  1  0  0  0  0
  5  8  1  0  0  0  0
  6  1  1  6  0  0  0
  7  2  1  1  0  0  0
  7  6  1  0  0  0  0
  8  6  1  0  0  0  0
  8 11  1  1  0  0  0
  9  4  1  0  0  0  0
  9  5  2  0  0  0  0
 10  4  2  0  0  0  0
 11 13  1  0  0  0  0
 12 17  1  0  0  0  0
 13 12  2  0  0  0  0
 14 15  1  0  0  0  0
 15 16  1  0  0  0  0
 15 17  2  0  0  0  0
 18 14  2  0  0  0  0
 18 13  1  0  0  0  0
 20  1  1  1  0  0  0
 20 19  1  0  0  0  0
 20 21  1  0  0  0  0
 21 19  1  6  0  0  0
 21 23  1  0  0  0  0
 22 25  1  1  0  0  0
 22 24  1  0  0  0  0
 23 22  1  0  0  0  0
 23 27  1  1  0  0  0
 23 24  1  0  0  0  0
 24 31  1  6  0  0  0
 27 26  2  0  0  0  0
 28 29  1  0  0  0  0
 28 27  1  0  0  0  0
 31 34  1  0  0  0  0
 31 30  1  1  0  0  0
 32 34  2  0  0  0  0
 34 33  1  0  0  0  0
M  END
>  <MODEL>
2

>  <REMARK>
 VINA RESULT:      -6.4      2.757      6.111
  Name = 
  9 active torsions:
  status: ('A' for Active; 'I' for Inactive)
    1  A    between atoms: C_3  and  C_34
    2  A    between atoms: S_6  and  C_11
    3  A    between atoms: S_6  and  C_20
    4  A    between atoms: O_12  and  C_14
    5  A    between atoms: C_14  and  C_28
    6  A    between atoms: N_21  and  C_28
    7  A    between atoms: C_24  and  C_34
    8  A    between atoms: C_26  and  C_29
    9  A    between atoms: C_29  and  C_31
                            x       y       z     vdW  Elec       q    Type
                         _______ _______ _______ _____ _____    ______ ____

>  <TORSDO>
F 9

$$$$
=
 OpenBabel11072413143D

 34 37  0  0  1  0  0  0  0  0999 V2000
  162.5020  207.6870  149.0710 S   0  0  0  0  0  0  0  0  0  0  0  0
  162.7230  205.5560  151.6090 C   0  0  0  0  0  1  0  0  0  0  0  0
  159.7730  210.3330  152.4650 F   0  0  0  0  0  0  0  0  0  0  0  0
  161.2700  207.0310  153.0250 C   0  0  0  0  0  0  0  0  0  0  0  0
  160.5760  209.2570  152.3650 C   0  0  0  0  0  0  0  0  0  0  0  0
  162.2400  207.9220  150.8590 C   0  0  2  0  0  3  0  0  0  0  0  0
  161.7820  206.6800  151.6910 C   0  0  1  0  0  3  0  0  0  0  0  0
  161.5850  209.2580  151.1840 C   0  0  2  0  0  3  0  0  0  0  0  0
  160.4520  208.2760  153.2100 C   0  0  0  0  0  3  0  0  0  0  0  0
  161.3840  206.2200  153.9070 O   0  0  0  0  0  0  0  0  0  0  0  0
  162.2910  210.5920  150.7980 C   0  0  0  0  0  2  0  0  0  0  0  0
  161.9350  211.2940  148.4290 C   0  0  0  0  0  3  0  0  0  0  0  0
  161.5860  211.4740  149.7690 C   0  0  0  0  0  0  0  0  0  0  0  0
  160.3820  213.4450  149.0580 C   0  0  0  0  0  3  0  0  0  0  0  0
  160.8280  213.2660  147.7620 C   0  0  0  0  0  0  0  0  0  0  0  0
  160.3950  214.4530  146.4480 Cl  0  0  0  0  0  0  0  0  0  0  0  0
  161.5490  212.1740  147.3930 C   0  0  0  0  0  3  0  0  0  0  0  0
  160.7910  212.6020  150.0400 C   0  0  0  0  0  3  0  0  0  0  0  0
  160.0370  206.0980  148.1010 O   0  0  0  0  0  0  0  0  0  0  0  0
  161.2090  206.4120  148.7960 C   0  0  1  0  0  3  0  0  0  0  0  0
  161.0610  205.0780  148.3880 N   0  0  2  0  0  0  0  0  0  0  0  0
  162.7100  203.6550  146.8580 C   0  0  1  0  0  3  0  0  0  0  0  0
  161.4890  204.7480  147.0260 C   0  0  1  0  0  0  0  0  0  0  0  0
  161.2360  203.1610  146.8450 C   0  0  2  0  0  3  0  0  0  0  0  0
  163.6460  204.3990  145.9900 O   0  0  0  0  0  1  0  0  0  0  0  0
  159.7270  205.6190  145.6200 O   0  0  0  0  0  0  0  0  0  0  0  0
  161.0210  205.6070  145.9440 C   0  0  0  0  0  0  0  0  0  0  0  0
  162.0740  205.8730  145.0050 O   0  0  0  0  0  0  0  0  0  0  0  0
  161.5340  205.6320  143.8080 C   0  0  0  0  0  1  0  0  0  0  0  0
  159.5390  202.4500  148.4240 O   0  0  0  0  0  1  0  0  0  0  0  0
  160.9320  202.5470  148.3550 C   0  0  1  0  0  3  0  0  0  0  0  0
  161.6540  200.2230  147.8880 O   0  0  0  0  0  0  0  0  0  0  0  0
  161.3790  200.9220  150.1070 O   0  0  0  0  0  1  0  0  0  0  0  0
  161.4490  201.2170  148.8200 C   0  0  0  0  0  0  0  0  0  0  0  0
  4  9  1  0  0  0  0
  4 10  2  0  0  0  0
  5  3  1  0  0  0  0
  5  9  2  0  0  0  0
  6  1  1  6  0  0  0
  6  8  1  0  0  0  0
  6  7  1  0  0  0  0
  7  2  1  1  0  0  0
  7  4  1  0  0  0  0
  8 11  1  1  0  0  0
  8  5  1  0  0  0  0
 12 13  1  0  0  0  0
 13 18  2  0  0  0  0
 13 11  1  0  0  0  0
 14 18  1  0  0  0  0
 15 14  2  0  0  0  0
 16 15  1  0  0  0  0
 17 15  1  0  0  0  0
 17 12  2  0  0  0  0
 19 20  1  0  0  0  0
 20  1  1  6  0  0  0
 21 19  1  6  0  0  0
 21 20  1  0  0  0  0
 22 25  1  6  0  0  0
 22 23  1  0  0  0  0
 23 27  1  6  0  0  0
 23 21  1  0  0  0  0
 24 22  1  0  0  0  0
 24 23  1  0  0  0  0
 24 31  1  1  0  0  0
 26 27  2  0  0  0  0
 28 27  1  0  0  0  0
 29 28  1  0  0  0  0
 31 30  1  6  0  0  0
 31 34  1  0  0  0  0
 32 34  2  0  0  0  0
 34 33  1  0  0  0  0
M  END
>  <MODEL>
3

>  <REMARK>
 VINA RESULT:      -6.4      4.917      8.678
  Name = 
  9 active torsions:
  status: ('A' for Active; 'I' for Inactive)
    1  A    between atoms: C_3  and  C_34
    2  A    between atoms: S_6  and  C_11
    3  A    between atoms: S_6  and  C_20
    4  A    between atoms: O_12  and  C_14
    5  A    between atoms: C_14  and  C_28
    6  A    between atoms: N_21  and  C_28
    7  A    between atoms: C_24  and  C_34
    8  A    between atoms: C_26  and  C_29
    9  A    between atoms: C_29  and  C_31
                            x       y       z     vdW  Elec       q    Type
                         _______ _______ _______ _____ _____    ______ ____

>  <TORSDO>
F 9

$$$$
=
 OpenBabel11072413143D

 34 37  0  0  1  0  0  0  0  0999 V2000
  161.8730  209.2270  148.4190 S   0  0  0  0  0  0  0  0  0  0  0  0
  161.4680  210.8860  151.2680 C   0  0  0  0  0  1  0  0  0  0  0  0
  162.1250  205.2540  151.6000 F   0  0  0  0  0  0  0  0  0  0  0  0
  161.7220  208.7660  152.5840 C   0  0  0  0  0  0  0  0  0  0  0  0
  161.8220  206.5660  151.5710 C   0  0  0  0  0  0  0  0  0  0  0  0
  161.3710  208.6580  150.0750 C   0  0  2  0  0  3  0  0  0  0  0  0
  161.8810  209.4770  151.3060 C   0  0  1  0  0  3  0  0  0  0  0  0
  161.3760  207.1400  150.1990 C   0  0  2  0  0  3  0  0  0  0  0  0
  161.9500  207.2830  152.6490 C   0  0  0  0  0  3  0  0  0  0  0  0
  161.5720  209.4200  153.5820 O   0  0  0  0  0  0  0  0  0  0  0  0
  160.4580  206.2760  149.2840 C   0  0  0  0  0  2  0  0  0  0  0  0
  161.4340  204.4590  147.8790 C   0  0  0  0  0  3  0  0  0  0  0  0
  160.8500  204.8120  149.0970 C   0  0  0  0  0  0  0  0  0  0  0  0
  160.7020  202.4450  149.5640 C   0  0  0  0  0  3  0  0  0  0  0  0
  161.2050  202.1530  148.3110 C   0  0  0  0  0  0  0  0  0  0  0  0
  161.3910  200.4270  147.7530 Cl  0  0  0  0  0  0  0  0  0  0  0  0
  161.6420  203.1240  147.4660 C   0  0  0  0  0  3  0  0  0  0  0  0
  160.4850  203.7350  149.9250 C   0  0  0  0  0  3  0  0  0  0  0  0
  163.0790  212.0650  148.6080 O   0  0  0  0  0  0  0  0  0  0  0  0
  162.2440  210.9720  148.8580 C   0  0  1  0  0  3  0  0  0  0  0  0
  161.6440  212.2390  148.8960 N   0  0  2  0  0  0  0  0  0  0  0  0
  159.6300  212.5030  147.1750 C   0  0  1  0  0  3  0  0  0  0  0  0
  161.1890  212.7970  147.6190 C   0  0  1  0  0  0  0  0  0  0  0  0
  159.9660  213.7950  147.9720 C   0  0  2  0  0  3  0  0  0  0  0  0
  159.8150  211.9470  145.8190 O   0  0  0  0  0  1  0  0  0  0  0  0
  162.8340  214.4530  146.9920 O   0  0  0  0  0  0  0  0  0  0  0  0
  162.2040  213.3120  146.7060 C   0  0  0  0  0  0  0  0  0  0  0  0
  161.9760  212.8480  145.3670 O   0  0  0  0  0  0  0  0  0  0  0  0
  163.0440  213.2540  144.6770 C   0  0  0  0  0  1  0  0  0  0  0  0
  160.2490  214.4520  150.2880 O   0  0  0  0  0  1  0  0  0  0  0  0
  159.5440  213.4990  149.5480 C   0  0  1  0  0  3  0  0  0  0  0  0
  157.8210  212.9820  151.2530 O   0  0  0  0  0  1  0  0  0  0  0  0
  157.1710  213.8880  149.1930 O   0  0  0  0  0  0  0  0  0  0  0  0
  158.1300  213.5710  150.0460 C   0  0  0  0  0  0  0  0  0  0  0  0
  4  9  1  0  0  0  0
  4 10  2  0  0  0  0
  5  3  1  0  0  0  0
  5  9  2  0  0  0  0
  6  1  1  6  0  0  0
  6  8  1  0  0  0  0
  6  7  1  0  0  0  0
  7  2  1  1  0  0  0
  7  4  1  0  0  0  0
  8 11  1  1  0  0  0
  8  5  1  0  0  0  0
 12 13  1  0  0  0  0
 13 11  1  0  0  0  0
 13 18  2  0  0  0  0
 14 18  1  0  0  0  0
 15 14  2  0  0  0  0
 16 15  1  0  0  0  0
 17 12  2  0  0  0  0
 17 15  1  0  0  0  0
 19 20  1  0  0  0  0
 20  1  1  6  0  0  0
 20 21  1  0  0  0  0
 21 19  1  6  0  0  0
 22 25  1  6  0  0  0
 22 23  1  0  0  0  0
 22 24  1  0  0  0  0
 23 27  1  6  0  0  0
 23 24  1  0  0  0  0
 23 21  1  0  0  0  0
 24 31  1  1  0  0  0
 27 26  2  0  0  0  0
 28 27  1  0  0  0  0
 29 28  1  0  0  0  0
 31 34  1  0  0  0  0
 31 30  1  1  0  0  0
 33 34  2  0  0  0  0
 34 32  1  0  0  0  0
M  END
>  <MODEL>
4

>  <REMARK>
 VINA RESULT:      -6.3      2.291      3.343
  Name = 
  9 active torsions:
  status: ('A' for Active; 'I' for Inactive)
    1  A    between atoms: C_3  and  C_34
    2  A    between atoms: S_6  and  C_11
    3  A    between atoms: S_6  and  C_20
    4  A    between atoms: O_12  and  C_14
    5  A    between atoms: C_14  and  C_28
    6  A    between atoms: N_21  and  C_28
    7  A    between atoms: C_24  and  C_34
    8  A    between atoms: C_26  and  C_29
    9  A    between atoms: C_29  and  C_31
                            x       y       z     vdW  Elec       q    Type
                         _______ _______ _______ _____ _____    ______ ____

>  <TORSDO>
F 9

$$$$
=
 OpenBabel11072413143D

 34 37  0  0  1  0  0  0  0  0999 V2000
  161.9710  209.6480  150.2810 S   0  0  0  0  0  0  0  0  0  0  0  0
  161.2670  210.3770  153.4440 C   0  0  0  0  0  1  0  0  0  0  0  0
  161.4580  204.8840  152.0140 F   0  0  0  0  0  0  0  0  0  0  0  0
  161.1680  207.9390  154.0250 C   0  0  0  0  0  0  0  0  0  0  0  0
  161.2590  206.1660  152.3750 C   0  0  0  0  0  0  0  0  0  0  0  0
  161.1880  208.6560  151.5930 C   0  0  2  0  0  3  0  0  0  0  0  0
  161.5660  208.9880  153.0740 C   0  0  1  0  0  3  0  0  0  0  0  0
  161.0650  207.1850  151.2190 C   0  0  2  0  0  3  0  0  0  0  0  0
  161.2760  206.4940  153.6340 C   0  0  0  0  0  3  0  0  0  0  0  0
  160.9180  208.2650  155.1550 O   0  0  0  0  0  0  0  0  0  0  0  0
  160.2340  206.7590  149.9730 C   0  0  0  0  0  2  0  0  0  0  0  0
  161.3170  206.6690  147.7260 C   0  0  0  0  0  3  0  0  0  0  0  0
  160.9680  205.9760  148.8860 C   0  0  0  0  0  0  0  0  0  0  0  0
  161.6140  203.9590  147.7220 C   0  0  0  0  0  3  0  0  0  0  0  0
  161.8630  204.6860  146.5740 C   0  0  0  0  0  0  0  0  0  0  0  0
  162.3900  203.8610  145.0360 Cl  0  0  0  0  0  0  0  0  0  0  0  0
  161.7900  206.0430  146.5500 C   0  0  0  0  0  3  0  0  0  0  0  0
  161.1330  204.5800  148.8280 C   0  0  0  0  0  3  0  0  0  0  0  0
  161.1170  212.5610  150.8550 O   0  0  0  0  0  0  0  0  0  0  0  0
  161.0260  211.2010  150.5460 C   0  0  1  0  0  3  0  0  0  0  0  0
  160.1210  212.0520  149.8940 N   0  0  2  0  0  0  0  0  0  0  0  0
  159.5780  212.6780  147.3650 C   0  0  1  0  0  3  0  0  0  0  0  0
  160.5870  212.7020  148.6670 C   0  0  1  0  0  0  0  0  0  0  0  0
  159.5260  213.8810  148.3480 C   0  0  2  0  0  3  0  0  0  0  0  0
  160.4660  212.1260  146.3200 O   0  0  0  0  0  1  0  0  0  0  0  0
  162.3490  214.3350  148.4020 O   0  0  0  0  0  0  0  0  0  0  0  0
  161.9990  213.0620  148.5860 C   0  0  0  0  0  0  0  0  0  0  0  0
  162.7880  211.9510  148.1340 O   0  0  0  0  0  0  0  0  0  0  0  0
  163.8100  212.5030  147.4760 C   0  0  0  0  0  1  0  0  0  0  0  0
  158.4410  214.4510  150.4400 O   0  0  0  0  0  1  0  0  0  0  0  0
  158.2170  213.6270  149.3330 C   0  0  1  0  0  3  0  0  0  0  0  0
  155.7770  213.5880  149.7710 O   0  0  0  0  0  1  0  0  0  0  0  0
  156.5570  214.1200  147.6260 O   0  0  0  0  0  0  0  0  0  0  0  0
  156.8040  213.9040  148.9080 C   0  0  0  0  0  0  0  0  0  0  0  0
  3  5  1  0  0  0  0
  4 10  2  0  0  0  0
  5  9  2  0  0  0  0
  6  1  1  6  0  0  0
  6  7  1  0  0  0  0
  7  2  1  1  0  0  0
  7  4  1  0  0  0  0
  8 11  1  1  0  0  0
  8  6  1  0  0  0  0
  8  5  1  0  0  0  0
  9  4  1  0  0  0  0
 12 13  1  0  0  0  0
 13 11  1  0  0  0  0
 14 18  1  0  0  0  0
 15 14  2  0  0  0  0
 16 15  1  0  0  0  0
 17 15  1  0  0  0  0
 17 12  2  0  0  0  0
 18 13  2  0  0  0  0
 20  1  1  6  0  0  0
 20 19  1  0  0  0  0
 21 20  1  0  0  0  0
 21 19  1  1  0  0  0
 22 25  1  6  0  0  0
 22 24  1  0  0  0  0
 22 23  1  0  0  0  0
 23 27  1  6  0  0  0
 23 21  1  0  0  0  0
 24 23  1  0  0  0  0
 24 31  1  1  0  0  0
 26 27  2  0  0  0  0
 28 27  1  0  0  0  0
 29 28  1  0  0  0  0
 31 30  1  1  0  0  0
 33 34  2  0  0  0  0
 34 31  1  0  0  0  0
 34 32  1  0  0  0  0
M  END
>  <MODEL>
5

>  <REMARK>
 VINA RESULT:      -6.2      1.908      2.365
  Name = 
  9 active torsions:
  status: ('A' for Active; 'I' for Inactive)
    1  A    between atoms: C_3  and  C_34
    2  A    between atoms: S_6  and  C_11
    3  A    between atoms: S_6  and  C_20
    4  A    between atoms: O_12  and  C_14
    5  A    between atoms: C_14  and  C_28
    6  A    between atoms: N_21  and  C_28
    7  A    between atoms: C_24  and  C_34
    8  A    between atoms: C_26  and  C_29
    9  A    between atoms: C_29  and  C_31
                            x       y       z     vdW  Elec       q    Type
                         _______ _______ _______ _____ _____    ______ ____

>  <TORSDO>
F 9

$$$$
=
 OpenBabel11072413143D

 34 37  0  0  1  0  0  0  0  0999 V2000
  161.3650  207.4660  153.1880 S   0  0  0  0  0  0  0  0  0  0  0  0
  162.8910  209.7910  151.3730 C   0  0  0  0  0  1  0  0  0  0  0  0
  159.9190  205.8380  148.5810 F   0  0  0  0  0  0  0  0  0  0  0  0
  161.9530  208.8150  149.2620 C   0  0  0  0  0  0  0  0  0  0  0  0
  160.7520  206.7110  149.1790 C   0  0  0  0  0  0  0  0  0  0  0  0
  161.8230  207.4990  151.4250 C   0  0  2  0  0  3  0  0  0  0  0  0
  161.9200  208.8970  150.7300 C   0  0  1  0  0  3  0  0  0  0  0  0
  161.1810  206.3690  150.6320 C   0  0  2  0  0  3  0  0  0  0  0  0
  161.1180  207.7890  148.5500 C   0  0  0  0  0  3  0  0  0  0  0  0
  162.5270  209.6830  148.6590 O   0  0  0  0  0  0  0  0  0  0  0  0
  161.4770  204.8850  150.9990 C   0  0  0  0  0  2  0  0  0  0  0  0
  160.8220  202.5720  150.3290 C   0  0  0  0  0  3  0  0  0  0  0  0
  161.2300  203.8410  149.9130 C   0  0  0  0  0  0  0  0  0  0  0  0
  161.5130  202.8870  147.7110 C   0  0  0  0  0  3  0  0  0  0  0  0
  161.1850  201.6360  148.1960 C   0  0  0  0  0  0  0  0  0  0  0  0
  161.2070  200.1720  147.1090 Cl  0  0  0  0  0  0  0  0  0  0  0  0
  160.7730  201.4460  149.4770 C   0  0  0  0  0  3  0  0  0  0  0  0
  161.5820  203.9470  148.5550 C   0  0  0  0  0  3  0  0  0  0  0  0
  159.2320  209.6730  153.5370 O   0  0  0  0  0  0  0  0  0  0  0  0
  160.4510  209.0580  153.2380 C   0  0  1  0  0  3  0  0  0  0  0  0
  160.5190  210.3390  153.8090 N   0  0  2  0  0  0  0  0  0  0  0  0
  160.4570  211.9170  155.9510 C   0  0  1  0  0  3  0  0  0  0  0  0
  160.4680  210.4170  155.2710 C   0  0  1  0  0  0  0  0  0  0  0  0
  159.1080  211.2120  155.6350 C   0  0  2  0  0  3  0  0  0  0  0  0
  161.5760  211.8080  156.9110 O   0  0  0  0  0  1  0  0  0  0  0  0
  161.9570  208.6830  156.0580 O   0  0  0  0  0  0  0  0  0  0  0  0
  160.7250  209.1920  156.0230 C   0  0  0  0  0  0  0  0  0  0  0  0
  159.5350  208.3950  156.1310 O   0  0  0  0  0  0  0  0  0  0  0  0
  159.9400  207.2500  156.6840 C   0  0  0  0  0  1  0  0  0  0  0  0
  157.1580  211.8820  154.3590 O   0  0  0  0  0  1  0  0  0  0  0  0
  158.5490  211.8770  154.2230 C   0  0  1  0  0  3  0  0  0  0  0  0
  158.3820  214.3410  154.4440 O   0  0  0  0  0  1  0  0  0  0  0  0
  159.4370  213.4190  152.5660 O   0  0  0  0  0  0  0  0  0  0  0  0
  158.9110  213.2620  153.7690 C   0  0  0  0  0  0  0  0  0  0  0  0
  3  5  1  0  0  0  0
  4  7  1  0  0  0  0
  5  8  1  0  0  0  0
  6  1  1  1  0  0  0
  7  2  1  1  0  0  0
  7  6  1  0  0  0  0
  8 11  1  6  0  0  0
  8  6  1  0  0  0  0
  9  5  2  0  0  0  0
  9  4  1  0  0  0  0
 10  4  2  0  0  0  0
 13 12  1  0  0  0  0
 13 11  1  0  0  0  0
 14 15  2  0  0  0  0
 14 18  1  0  0  0  0
 15 17  1  0  0  0  0
 16 15  1  0  0  0  0
 17 12  2  0  0  0  0
 18 13  2  0  0  0  0
 20  1  1  1  0  0  0
 20 19  1  0  0  0  0
 20 21  1  0  0  0  0
 21 19  1  6  0  0  0
 21 23  1  0  0  0  0
 22 25  1  1  0  0  0
 23 24  1  0  0  0  0
 23 22  1  0  0  0  0
 23 27  1  1  0  0  0
 24 31  1  6  0  0  0
 24 22  1  0  0  0  0
 27 26  2  0  0  0  0
 27 28  1  0  0  0  0
 28 29  1  0  0  0  0
 31 30  1  1  0  0  0
 33 34  2  0  0  0  0
 34 31  1  0  0  0  0
 34 32  1  0  0  0  0
M  END
>  <MODEL>
6

>  <REMARK>
 VINA RESULT:      -6.1      2.562      4.877
  Name = 
  9 active torsions:
  status: ('A' for Active; 'I' for Inactive)
    1  A    between atoms: C_3  and  C_34
    2  A    between atoms: S_6  and  C_11
    3  A    between atoms: S_6  and  C_20
    4  A    between atoms: O_12  and  C_14
    5  A    between atoms: C_14  and  C_28
    6  A    between atoms: N_21  and  C_28
    7  A    between atoms: C_24  and  C_34
    8  A    between atoms: C_26  and  C_29
    9  A    between atoms: C_29  and  C_31
                            x       y       z     vdW  Elec       q    Type
                         _______ _______ _______ _____ _____    ______ ____

>  <TORSDO>
F 9

$$$$
=
 OpenBabel11072413143D

 34 37  0  0  1  0  0  0  0  0999 V2000
  162.3320  207.7300  151.8710 S   0  0  0  0  0  0  0  0  0  0  0  0
  160.8310  205.5170  153.8420 C   0  0  0  0  0  1  0  0  0  0  0  0
  161.8790  203.9480  148.4860 F   0  0  0  0  0  0  0  0  0  0  0  0
  160.8310  203.8160  151.9990 C   0  0  0  0  0  0  0  0  0  0  0  0
  161.4780  204.3150  149.7180 C   0  0  0  0  0  0  0  0  0  0  0  0
  161.3580  206.2400  151.4770 C   0  0  2  0  0  3  0  0  0  0  0  0
  161.3410  205.0880  152.5340 C   0  0  1  0  0  3  0  0  0  0  0  0
  161.4680  205.8410  150.0120 C   0  0  2  0  0  3  0  0  0  0  0  0
  161.1650  203.4070  150.5940 C   0  0  0  0  0  3  0  0  0  0  0  0
  160.2900  203.0580  152.7600 O   0  0  0  0  0  0  0  0  0  0  0  0
  161.0000  206.8190  148.8940 C   0  0  0  0  0  2  0  0  0  0  0  0
  162.2740  206.0900  146.8760 C   0  0  0  0  0  3  0  0  0  0  0  0
  161.0230  206.2930  147.4610 C   0  0  0  0  0  0  0  0  0  0  0  0
  160.0800  205.9230  145.2670 C   0  0  0  0  0  3  0  0  0  0  0  0
  161.3460  205.8160  144.7250 C   0  0  0  0  0  0  0  0  0  0  0  0
  161.5850  205.5640  142.9350 Cl  0  0  0  0  0  0  0  0  0  0  0  0
  162.4640  205.8290  145.5000 C   0  0  0  0  0  3  0  0  0  0  0  0
  159.9260  206.2030  146.5850 C   0  0  0  0  0  3  0  0  0  0  0  0
  159.5930  209.0400  152.4430 O   0  0  0  0  0  0  0  0  0  0  0  0
  160.9290  208.9010  152.0550 C   0  0  1  0  0  3  0  0  0  0  0  0
  160.5850  210.1000  152.6980 N   0  0  2  0  0  0  0  0  0  0  0  0
  160.9200  211.5210  154.9240 C   0  0  1  0  0  3  0  0  0  0  0  0
  160.6000  210.0960  154.1630 C   0  0  1  0  0  0  0  0  0  0  0  0
  159.4450  211.1260  154.6310 C   0  0  2  0  0  3  0  0  0  0  0  0
  162.0240  211.1280  155.8240 O   0  0  0  0  0  1  0  0  0  0  0  0
  159.5270  208.3510  155.4450 O   0  0  0  0  0  0  0  0  0  0  0  0
  160.6240  208.8000  154.8350 C   0  0  0  0  0  0  0  0  0  0  0  0
  161.9560  208.4580  155.2480 O   0  0  0  0  0  0  0  0  0  0  0  0
  161.8250  208.0310  156.5060 C   0  0  0  0  0  1  0  0  0  0  0  0
  157.6270  211.7000  153.1330 O   0  0  0  0  0  1  0  0  0  0  0  0
  158.9880  211.9780  153.2840 C   0  0  1  0  0  3  0  0  0  0  0  0
  158.5830  214.2500  154.1880 O   0  0  0  0  0  1  0  0  0  0  0  0
  159.3920  214.0050  152.0030 O   0  0  0  0  0  0  0  0  0  0  0  0
  159.1060  213.4710  153.1790 C   0  0  0  0  0  0  0  0  0  0  0  0
  3  5  1  0  0  0  0
  4  7  1  0  0  0  0
  4 10  2  0  0  0  0
  5  8  1  0  0  0  0
  5  9  2  0  0  0  0
  6  1  1  1  0  0  0
  6  7  1  0  0  0  0
  7  2  1  1  0  0  0
  8 11  1  6  0  0  0
  8  6  1  0  0  0  0
  9  4  1  0  0  0  0
 12 13  1  0  0  0  0
 13 11  1  0  0  0  0
 14 18  1  0  0  0  0
 15 14  2  0  0  0  0
 15 17  1  0  0  0  0
 16 15  1  0  0  0  0
 17 12  2  0  0  0  0
 18 13  2  0  0  0  0
 20  1  1  1  0  0  0
 20 19  1  0  0  0  0
 20 21  1  0  0  0  0
 21 19  1  1  0  0  0
 21 23  1  0  0  0  0
 22 25  1  1  0  0  0
 23 24  1  0  0  0  0
 23 27  1  1  0  0  0
 23 22  1  0  0  0  0
 24 31  1  6  0  0  0
 24 22  1  0  0  0  0
 27 28  1  0  0  0  0
 27 26  2  0  0  0  0
 28 29  1  0  0  0  0
 31 30  1  1  0  0  0
 33 34  2  0  0  0  0
 34 31  1  0  0  0  0
 34 32  1  0  0  0  0
M  END
>  <MODEL>
7

>  <REMARK>
 VINA RESULT:      -6.1      2.294      4.315
  Name = 
  9 active torsions:
  status: ('A' for Active; 'I' for Inactive)
    1  A    between atoms: C_3  and  C_34
    2  A    between atoms: S_6  and  C_11
    3  A    between atoms: S_6  and  C_20
    4  A    between atoms: O_12  and  C_14
    5  A    between atoms: C_14  and  C_28
    6  A    between atoms: N_21  and  C_28
    7  A    between atoms: C_24  and  C_34
    8  A    between atoms: C_26  and  C_29
    9  A    between atoms: C_29  and  C_31
                            x       y       z     vdW  Elec       q    Type
                         _______ _______ _______ _____ _____    ______ ____

>  <TORSDO>
F 9

$$$$
=
 OpenBabel11072413143D

 34 37  0  0  1  0  0  0  0  0999 V2000
  160.8650  208.0700  153.1730 S   0  0  0  0  0  0  0  0  0  0  0  0
  162.6760  210.1710  151.3450 C   0  0  0  0  0  1  0  0  0  0  0  0
  159.9790  205.9890  148.6060 F   0  0  0  0  0  0  0  0  0  0  0  0
  161.9900  208.9920  149.2400 C   0  0  0  0  0  0  0  0  0  0  0  0
  160.7520  206.9090  149.2150 C   0  0  0  0  0  0  0  0  0  0  0  0
  161.5470  207.9120  151.4910 C   0  0  2  0  0  3  0  0  0  0  0  0
  161.7710  209.2280  150.6750 C   0  0  1  0  0  3  0  0  0  0  0  0
  160.9810  206.7150  150.7400 C   0  0  2  0  0  3  0  0  0  0  0  0
  161.2260  207.9100  148.5340 C   0  0  0  0  0  3  0  0  0  0  0  0
  162.6610  209.7830  148.6320 O   0  0  0  0  0  0  0  0  0  0  0  0
  161.1860  205.2730  151.2920 C   0  0  0  0  0  2  0  0  0  0  0  0
  160.5930  202.9020  150.7880 C   0  0  0  0  0  3  0  0  0  0  0  0
  161.0520  204.1250  150.2950 C   0  0  0  0  0  0  0  0  0  0  0  0
  161.5700  202.9560  148.2430 C   0  0  0  0  0  3  0  0  0  0  0  0
  161.1820  201.7590  148.8120 C   0  0  0  0  0  0  0  0  0  0  0  0
  161.3130  200.1930  147.8860 Cl  0  0  0  0  0  0  0  0  0  0  0  0
  160.6300  201.6960  150.0520 C   0  0  0  0  0  3  0  0  0  0  0  0
  161.5520  204.0960  148.9800 C   0  0  0  0  0  3  0  0  0  0  0  0
  159.4020  210.7450  152.6740 O   0  0  0  0  0  0  0  0  0  0  0  0
  160.3880  209.8410  153.0820 C   0  0  1  0  0  3  0  0  0  0  0  0
  160.1860  210.9610  153.9030 N   0  0  2  0  0  0  0  0  0  0  0  0
  159.1370  209.5500  155.9020 C   0  0  1  0  0  3  0  0  0  0  0  0
  159.1240  210.8640  154.9090 C   0  0  1  0  0  0  0  0  0  0  0  0
  159.8630  210.8510  156.3470 C   0  0  2  0  0  3  0  0  0  0  0  0
  157.7600  209.0430  155.7290 O   0  0  0  0  0  1  0  0  0  0  0  0
  156.8680  211.3330  154.1790 O   0  0  0  0  0  0  0  0  0  0  0  0
  157.9820  211.7620  154.7750 C   0  0  0  0  0  0  0  0  0  0  0  0
  158.4030  213.1350  154.7700 O   0  0  0  0  0  0  0  0  0  0  0  0
  157.7720  213.6820  153.7290 C   0  0  0  0  0  1  0  0  0  0  0  0
  162.0880  211.8090  156.4400 O   0  0  0  0  0  1  0  0  0  0  0  0
  161.4780  210.6120  156.0550 C   0  0  1  0  0  3  0  0  0  0  0  0
  163.5020  209.8410  157.2610 O   0  0  0  0  0  1  0  0  0  0  0  0
  161.9640  208.2640  156.4600 O   0  0  0  0  0  0  0  0  0  0  0  0
  162.2780  209.5250  156.7110 C   0  0  0  0  0  0  0  0  0  0  0  0
  3  5  1  0  0  0  0
  4  7  1  0  0  0  0
  5  8  1  0  0  0  0
  6  1  1  1  0  0  0
  7  2  1  1  0  0  0
  7  6  1  0  0  0  0
  8 11  1  6  0  0  0
  8  6  1  0  0  0  0
  9  5  2  0  0  0  0
  9  4  1  0  0  0  0
 10  4  2  0  0  0  0
 13 12  1  0  0  0  0
 13 11  1  0  0  0  0
 14 15  2  0  0  0  0
 14 18  1  0  0  0  0
 15 17  1  0  0  0  0
 16 15  1  0  0  0  0
 17 12  2  0  0  0  0
 18 13  2  0  0  0  0
 19 20  1  0  0  0  0
 20  1  1  1  0  0  0
 20 21  1  0  0  0  0
 21 19  1  6  0  0  0
 21 23  1  0  0  0  0
 22 25  1  1  0  0  0
 22 24  1  0  0  0  0
 23 27  1  6  0  0  0
 23 22  1  0  0  0  0
 23 24  1  0  0  0  0
 24 31  1  6  0  0  0
 26 27  2  0  0  0  0
 28 27  1  0  0  0  0
 29 28  1  0  0  0  0
 31 30  1  1  0  0  0
 31 34  1  0  0  0  0
 33 34  2  0  0  0  0
 34 32  1  0  0  0  0
M  END
>  <MODEL>
8

>  <REMARK>
 VINA RESULT:      -6.1      2.667      5.204
  Name = 
  9 active torsions:
  status: ('A' for Active; 'I' for Inactive)
    1  A    between atoms: C_3  and  C_34
    2  A    between atoms: S_6  and  C_11
    3  A    between atoms: S_6  and  C_20
    4  A    between atoms: O_12  and  C_14
    5  A    between atoms: C_14  and  C_28
    6  A    between atoms: N_21  and  C_28
    7  A    between atoms: C_24  and  C_34
    8  A    between atoms: C_26  and  C_29
    9  A    between atoms: C_29  and  C_31
                            x       y       z     vdW  Elec       q    Type
                         _______ _______ _______ _____ _____    ______ ____

>  <TORSDO>
F 9

$$$$
=
 OpenBabel11072413143D

 34 37  0  0  1  0  0  0  0  0999 V2000
  162.3320  206.9580  151.2620 S   0  0  0  0  0  0  0  0  0  0  0  0
  161.2020  204.7310  153.4520 C   0  0  0  0  0  1  0  0  0  0  0  0
  161.0370  203.3010  147.9580 F   0  0  0  0  0  0  0  0  0  0  0  0
  160.7500  203.0900  151.6100 C   0  0  0  0  0  0  0  0  0  0  0  0
  160.9190  203.6410  149.2560 C   0  0  0  0  0  0  0  0  0  0  0  0
  161.2440  205.5120  151.0470 C   0  0  2  0  0  3  0  0  0  0  0  0
  161.4080  204.3280  152.0550 C   0  0  1  0  0  3  0  0  0  0  0  0
  161.0270  205.1560  149.5830 C   0  0  2  0  0  3  0  0  0  0  0  0
  160.7650  202.7150  150.1560 C   0  0  0  0  0  3  0  0  0  0  0  0
  160.3550  202.3250  152.4490 O   0  0  0  0  0  0  0  0  0  0  0  0
  160.3690  206.1830  148.6140 C   0  0  0  0  0  2  0  0  0  0  0  0
  159.9490  206.2580  146.1550 C   0  0  0  0  0  3  0  0  0  0  0  0
  160.8950  206.2160  147.1810 C   0  0  0  0  0  0  0  0  0  0  0  0
  162.5500  205.8260  145.4630 C   0  0  0  0  0  3  0  0  0  0  0  0
  161.5610  205.7910  144.4990 C   0  0  0  0  0  0  0  0  0  0  0  0
  161.9630  205.4570  142.7530 Cl  0  0  0  0  0  0  0  0  0  0  0  0
  160.2620  206.0660  144.7910 C   0  0  0  0  0  3  0  0  0  0  0  0
  162.2200  205.9830  146.7700 C   0  0  0  0  0  3  0  0  0  0  0  0
  161.3650  208.5220  153.7450 O   0  0  0  0  0  0  0  0  0  0  0  0
  161.3310  207.8360  152.5270 C   0  0  1  0  0  3  0  0  0  0  0  0
  160.4480  208.9190  152.6610 N   0  0  2  0  0  0  0  0  0  0  0  0
  159.9750  211.5370  152.5790 C   0  0  1  0  0  3  0  0  0  0  0  0
  160.9750  210.2490  152.3470 C   0  0  1  0  0  0  0  0  0  0  0  0
  160.9270  211.0930  153.7260 C   0  0  2  0  0  3  0  0  0  0  0  0
  160.0480  212.2020  151.2610 O   0  0  0  0  0  1  0  0  0  0  0  0
  163.3810  210.4460  152.2290 O   0  0  0  0  0  0  0  0  0  0  0  0
  162.2190  210.3210  151.5860 C   0  0  0  0  0  0  0  0  0  0  0  0
  161.9860  210.8300  150.2640 O   0  0  0  0  0  0  0  0  0  0  0  0
  161.9650  209.7490  149.4810 C   0  0  0  0  0  1  0  0  0  0  0  0
  160.8290  210.0310  155.9030 O   0  0  0  0  0  1  0  0  0  0  0  0
  160.0040  210.2180  154.7900 C   0  0  1  0  0  3  0  0  0  0  0  0
  157.7180  211.1200  154.4590 O   0  0  0  0  0  0  0  0  0  0  0  0
  158.6330  211.0550  156.6160 O   0  0  0  0  0  1  0  0  0  0  0  0
  158.6970  210.7120  155.3400 C   0  0  0  0  0  0  0  0  0  0  0  0
  3  5  1  0  0  0  0
  4  7  1  0  0  0  0
  4 10  2  0  0  0  0
  5  8  1  0  0  0  0
  5  9  2  0  0  0  0
  6  1  1  6  0  0  0
  6  7  1  0  0  0  0
  7  2  1  1  0  0  0
  8 11  1  1  0  0  0
  8  6  1  0  0  0  0
  9  4  1  0  0  0  0
 12 13  1  0  0  0  0
 13 11  1  0  0  0  0
 14 18  1  0  0  0  0
 15 17  1  0  0  0  0
 15 14  2  0  0  0  0
 16 15  1  0  0  0  0
 17 12  2  0  0  0  0
 18 13  2  0  0  0  0
 20  1  1  6  0  0  0
 20 21  1  0  0  0  0
 20 19  1  0  0  0  0
 21 19  1  1  0  0  0
 22 25  1  6  0  0  0
 22 24  1  0  0  0  0
 23 27  1  6  0  0  0
 23 22  1  0  0  0  0
 23 21  1  0  0  0  0
 23 24  1  0  0  0  0
 24 31  1  1  0  0  0
 27 26  2  0  0  0  0
 28 27  1  0  0  0  0
 29 28  1  0  0  0  0
 31 34  1  0  0  0  0
 31 30  1  1  0  0  0
 32 34  2  0  0  0  0
 34 33  1  0  0  0  0
M  END
>  <MODEL>
9

>  <REMARK>
 VINA RESULT:      -5.7      2.575      3.906
  Name = 
  9 active torsions:
  status: ('A' for Active; 'I' for Inactive)
    1  A    between atoms: C_3  and  C_34
    2  A    between atoms: S_6  and  C_11
    3  A    between atoms: S_6  and  C_20
    4  A    between atoms: O_12  and  C_14
    5  A    between atoms: C_14  and  C_28
    6  A    between atoms: N_21  and  C_28
    7  A    between atoms: C_24  and  C_34
    8  A    between atoms: C_26  and  C_29
    9  A    between atoms: C_29  and  C_31
                            x       y       z     vdW  Elec       q    Type
                         _______ _______ _______ _____ _____    ______ ____

>  <TORSDO>
F 9

$$$$
