=
 OpenBabel11072409483D

 49 56  0  0  1  0  0  0  0  0999 V2000
  160.9320  208.6930  157.2590 N   0  0  0  0  0  0  0  0  0  0  0  0
  160.3760  209.8140  155.3990 C   0  0  1  0  0  3  0  0  0  0  0  0
  161.4780  211.0370  157.0520 N   0  0  0  0  0  2  0  0  0  0  0  0
  160.2770  210.4990  152.3850 C   0  0  0  0  0  3  0  0  0  0  0  0
  160.4890  207.7060  156.2590 C   0  0  0  0  0  2  0  0  0  0  0  0
  160.3990  209.0250  152.5250 C   0  0  1  0  0  3  0  0  0  0  0  0
  160.7430  209.8610  156.7380 C   0  0  0  0  0  0  0  0  0  0  0  0
  160.5120  211.3630  153.3970 C   0  0  0  0  0  0  0  0  0  0  0  0
  161.5050  211.8450  155.8130 C   0  0  0  0  0  2  0  0  0  0  0  0
  160.3590  208.2060  153.6390 C   0  0  0  0  0  0  0  0  0  0  0  0
  161.1460  210.8600  154.6800 C   0  0  1  0  0  3  0  0  0  0  0  0
  160.5770  207.8430  151.6280 C   0  0  2  0  0  3  0  0  0  0  0  0
  160.5120  206.9880  152.7840 C   0  0  0  0  0  2  0  0  0  0  0  0
  160.2350  208.5610  155.0480 C   0  0  0  0  0  0  0  0  0  0  0  0
  162.1410  207.4680  149.5810 N   0  0  0  0  0  0  0  0  0  0  0  0
  162.8820  208.4280  151.5670 O   0  0  0  0  0  0  0  0  0  0  0  0
  161.9280  207.8810  150.9480 C   0  0  0  0  0  0  0  0  0  0  0  0
  162.2690  209.5010  148.7430 C   0  0  0  0  0  1  0  0  0  0  0  0
  162.8970  208.2590  148.7700 O   0  0  0  0  0  0  0  0  0  0  0  0
  161.7650  206.1380  149.1070 C   0  0  0  0  0  2  0  0  0  0  0  0
  161.1680  205.0380  146.8640 C   0  0  2  0  0  3  0  0  0  0  0  0
  162.2610  206.0130  146.7180 N   0  0  0  0  0  2  0  0  0  0  0  0
  161.1920  206.2490  147.6890 C   0  0  2  0  0  3  0  0  0  0  0  0
  161.7060  203.7600  147.5220 C   0  0  0  0  0  2  0  0  0  0  0  0
  160.9510  201.4380  146.9370 C   0  0  0  0  0  2  0  0  0  0  0  0
  160.6650  203.2180  150.0930 O   0  0  0  0  0  1  0  0  0  0  0  0
  160.4420  202.2050  149.1580 C   0  0  2  0  0  3  0  0  0  0  0  0
  161.5160  200.4300  147.9370 C   0  0  0  0  0  2  0  0  0  0  0  0
  161.4360  201.0800  149.3120 C   0  0  0  0  0  2  0  0  0  0  0  0
  160.6080  202.6920  147.7190 C   0  0  1  0  0  3  0  0  0  0  0  0
  160.2920  212.7760  153.2150 N   0  0  0  0  0  2  0  0  0  0  0  0
  159.0480  213.4620  153.5440 C   0  0  2  0  0  3  0  0  0  0  0  0
  155.7910  211.3700  155.5070 C   0  0  2  0  0  3  0  0  0  0  0  0
  158.0790  212.5570  154.2670 C   0  0  0  0  0  0  0  0  0  0  0  0
  156.3810  210.6210  154.3120 C   0  0  0  0  0  2  0  0  0  0  0  0
  157.2810  211.5320  153.4720 C   0  0  0  0  0  2  0  0  0  0  0  0
  157.8690  212.7260  155.5910 C   0  0  0  0  0  0  0  0  0  0  0  0
  158.5560  213.8180  156.3570 C   0  0  0  0  0  1  0  0  0  0  0  0
  156.9710  211.7960  156.3690 C   0  0  0  0  0  2  0  0  0  0  0  0
  154.5910  209.2400  155.8160 O   0  0  0  0  0  0  0  0  0  0  0  0
  154.8910  210.5030  156.2710 N   0  0  0  0  0  0  0  0  0  0  0  0
  154.2660  210.9420  157.2610 O   0  0  0  0  0  0  0  0  0  0  0  0
  156.9550  214.3200  152.1770 C   0  0  0  0  0  2  0  0  0  0  0  0
  159.4030  214.3220  149.9820 C   0  0  0  0  0  2  0  0  0  0  0  0
  156.8780  214.4520  149.5850 C   0  0  0  0  0  2  0  0  0  0  0  0
  158.2500  213.9690  149.0750 C   0  0  0  0  0  2  0  0  0  0  0  0
  158.4520  214.1410  152.3400 C   0  0  0  0  0  3  0  0  0  0  0  0
  156.3930  213.7170  150.8600 C   0  0  0  0  0  2  0  0  0  0  0  0
  159.1310  214.2500  151.2450 C   0  0  0  0  0  2  0  0  0  0  0  0
  2 14  1  6  0  0  0
  2  7  1  0  0  0  0
  4  8  2  0  0  0  0
  5  1  1  0  0  0  0
  6  4  1  6  0  0  0
  6 10  1  0  0  0  0
  7  3  1  0  0  0  0
  7  1  2  0  0  0  0
  8 11  1  0  0  0  0
  9  3  1  0  0  0  0
 10 14  2  0  0  0  0
 11  2  1  0  0  0  0
 11  9  1  1  0  0  0
 12 17  1  1  0  0  0
 12  6  1  0  0  0  0
 12 13  1  0  0  0  0
 13 10  1  0  0  0  0
 14  5  1  0  0  0  0
 15 17  1  0  0  0  0
 17 16  2  0  0  0  0
 18 19  1  0  0  0  0
 19 15  1  0  0  0  0
 20 15  1  0  0  0  0
 21 24  1  1  0  0  0
 21 23  1  0  0  0  0
 22 21  1  0  0  0  0
 22 23  1  0  0  0  0
 23 20  1  1  0  0  0
 25 30  1  0  0  0  0
 25 28  1  0  0  0  0
 27 29  1  0  0  0  0
 27 26  1  1  0  0  0
 28 29  1  0  0  0  0
 30 24  1  1  0  0  0
 30 27  1  0  0  0  0
 31  8  1  0  0  0  0
 32 31  1  6  0  0  0
 32 34  1  0  0  0  0
 33 41  1  1  0  0  0
 33 39  1  0  0  0  0
 34 37  2  0  0  0  0
 35 33  1  0  0  0  0
 36 34  1  0  0  0  0
 36 35  1  0  0  0  0
 37 38  1  0  0  0  0
 37 39  1  0  0  0  0
 40 41  2  0  0  0  0
 41 42  2  0  0  0  0
 43 47  1  0  0  0  0
 44 49  1  0  0  0  0
 45 48  1  0  0  0  0
 46 45  1  0  0  0  0
 46 44  1  0  0  0  0
 47 32  1  0  0  0  0
 48 43  1  0  0  0  0
 49 47  1  0  0  0  0
M  END
>  <MODEL>
1

>  <REMARK>
 VINA RESULT:      -5.9      0.000      0.000
  Name = 
  11 active torsions:
  status: ('A' for Active; 'I' for Inactive)
    1  A    between atoms: C_1  and  C_20
    2  A    between atoms: C_3  and  C_12
    3  A    between atoms: C_3  and  N_31
    4  A    between atoms: C_3  and  C_32
    5  A    between atoms: N_7  and  O_15
    6  A    between atoms: N_7  and  C_19
    7  A    between atoms: C_9  and  N_24
    8  A    between atoms: C_19  and  C_48
    9  A    between atoms: C_20  and  C_45
   10  A    between atoms: C_29  and  N_31
   11  A    between atoms: C_39  and  C_40
                            x       y       z     vdW  Elec       q    Type
                         _______ _______ _______ _____ _____    ______ ____

>  <TORSDO>
F 11

$$$$
=
 OpenBabel11072409483D

 49 56  0  0  1  0  0  0  0  0999 V2000
  160.1260  213.4120  147.4150 N   0  0  0  0  0  0  0  0  0  0  0  0
  160.0220  213.1460  149.6390 C   0  0  1  0  0  3  0  0  0  0  0  0
  158.1120  214.0040  148.6110 N   0  0  0  0  0  2  0  0  0  0  0  0
  160.1280  211.6810  152.3600 C   0  0  0  0  0  3  0  0  0  0  0  0
  161.3080  212.6360  147.8270 C   0  0  0  0  0  2  0  0  0  0  0  0
  161.0800  211.0150  151.4340 C   0  0  1  0  0  3  0  0  0  0  0  0
  159.5060  213.7490  148.4990 C   0  0  0  0  0  0  0  0  0  0  0  0
  159.1710  212.5430  151.9480 C   0  0  0  0  0  0  0  0  0  0  0  0
  157.7310  213.5980  149.9820 C   0  0  0  0  0  2  0  0  0  0  0  0
  161.4980  211.3480  150.1580 C   0  0  0  0  0  0  0  0  0  0  0  0
  158.8800  212.6880  150.4670 C   0  0  1  0  0  3  0  0  0  0  0  0
  161.9650  209.8110  151.4410 C   0  0  2  0  0  3  0  0  0  0  0  0
  162.4200  210.1690  150.1230 C   0  0  0  0  0  2  0  0  0  0  0  0
  161.0790  212.4500  149.3010 C   0  0  0  0  0  0  0  0  0  0  0  0
  161.6950  207.2300  151.2370 N   0  0  0  0  0  0  0  0  0  0  0  0
  159.9660  208.6210  151.9380 O   0  0  0  0  0  0  0  0  0  0  0  0
  161.1470  208.5400  151.5020 C   0  0  0  0  0  0  0  0  0  0  0  0
  162.1130  206.4350  153.2480 C   0  0  0  0  0  1  0  0  0  0  0  0
  161.3840  206.2090  152.0830 O   0  0  0  0  0  0  0  0  0  0  0  0
  162.3780  206.9170  149.9840 C   0  0  0  0  0  2  0  0  0  0  0  0
  160.9470  205.5250  148.3660 C   0  0  2  0  0  3  0  0  0  0  0  0
  161.9830  206.2930  147.6550 N   0  0  0  0  0  2  0  0  0  0  0  0
  161.3480  206.8500  148.8490 C   0  0  2  0  0  3  0  0  0  0  0  0
  161.5940  204.3250  149.0710 C   0  0  0  0  0  2  0  0  0  0  0  0
  160.1380  202.4490  148.2520 C   0  0  0  0  0  2  0  0  0  0  0  0
  161.9870  202.7270  151.3690 O   0  0  0  0  0  1  0  0  0  0  0  0
  161.0780  202.1980  150.4500 C   0  0  2  0  0  3  0  0  0  0  0  0
  160.9020  201.1270  148.3020 C   0  0  0  0  0  2  0  0  0  0  0  0
  161.7150  201.1340  149.5900 C   0  0  0  0  0  2  0  0  0  0  0  0
  160.5600  203.2490  149.4700 C   0  0  1  0  0  3  0  0  0  0  0  0
  158.3380  213.2200  152.9100 N   0  0  0  0  0  2  0  0  0  0  0  0
  158.7290  213.4910  154.2890 C   0  0  2  0  0  3  0  0  0  0  0  0
  160.4900  209.7500  155.6040 C   0  0  2  0  0  3  0  0  0  0  0  0
  159.2770  212.2610  154.9720 C   0  0  0  0  0  0  0  0  0  0  0  0
  161.1470  210.9920  156.2070 C   0  0  0  0  0  2  0  0  0  0  0  0
  160.7160  212.2630  155.4690 C   0  0  0  0  0  2  0  0  0  0  0  0
  158.5140  211.1480  155.0540 C   0  0  0  0  0  0  0  0  0  0  0  0
  157.1410  211.0970  154.4520 C   0  0  0  0  0  1  0  0  0  0  0  0
  158.9910  209.9240  155.7950 C   0  0  0  0  0  2  0  0  0  0  0  0
  160.0460  207.6210  156.7640 O   0  0  0  0  0  0  0  0  0  0  0  0
  160.9520  208.5370  156.2840 N   0  0  0  0  0  0  0  0  0  0  0  0
  162.1600  208.3840  156.5700 O   0  0  0  0  0  0  0  0  0  0  0  0
  157.6490  214.2720  156.5710 C   0  0  0  0  0  2  0  0  0  0  0  0
  155.1750  214.4420  154.4120 C   0  0  0  0  0  2  0  0  0  0  0  0
  155.0900  214.4530  156.9710 C   0  0  0  0  0  2  0  0  0  0  0  0
  154.4040  214.0500  155.6500 C   0  0  0  0  0  2  0  0  0  0  0  0
  157.6250  214.1650  155.0580 C   0  0  0  0  0  3  0  0  0  0  0  0
  156.3940  213.6690  157.2610 C   0  0  0  0  0  2  0  0  0  0  0  0
  156.4580  214.3300  154.5240 C   0  0  0  0  0  2  0  0  0  0  0  0
  1  5  1  0  0  0  0
  1  7  2  0  0  0  0
  2  7  1  6  0  0  0
  2 11  1  0  0  0  0
  3  9  1  0  0  0  0
  5 14  1  0  0  0  0
  6 12  1  0  0  0  0
  6  4  1  1  0  0  0
  7  3  1  0  0  0  0
  8  4  2  0  0  0  0
  8 31  1  0  0  0  0
 10  6  1  0  0  0  0
 11  9  1  1  0  0  0
 11  8  1  0  0  0  0
 12 17  1  6  0  0  0
 13 10  1  0  0  0  0
 13 12  1  0  0  0  0
 14  2  1  0  0  0  0
 14 10  2  0  0  0  0
 15 17  1  0  0  0  0
 15 19  1  0  0  0  0
 17 16  2  0  0  0  0
 19 18  1  0  0  0  0
 20 15  1  0  0  0  0
 21 23  1  0  0  0  0
 21 24  1  1  0  0  0
 22 21  1  0  0  0  0
 22 23  1  0  0  0  0
 23 20  1  1  0  0  0
 25 28  1  0  0  0  0
 25 30  1  0  0  0  0
 27 26  1  1  0  0  0
 28 29  1  0  0  0  0
 29 27  1  0  0  0  0
 30 24  1  6  0  0  0
 30 27  1  0  0  0  0
 32 31  1  6  0  0  0
 32 34  1  0  0  0  0
 32 47  1  0  0  0  0
 33 39  1  0  0  0  0
 33 35  1  0  0  0  0
 33 41  1  1  0  0  0
 34 37  2  0  0  0  0
 34 36  1  0  0  0  0
 36 35  1  0  0  0  0
 37 39  1  0  0  0  0
 38 37  1  0  0  0  0
 41 42  2  0  0  0  0
 41 40  2  0  0  0  0
 43 48  1  0  0  0  0
 44 49  1  0  0  0  0
 44 46  1  0  0  0  0
 45 48  1  0  0  0  0
 46 45  1  0  0  0  0
 47 43  1  0  0  0  0
 49 47  1  0  0  0  0
M  END
>  <MODEL>
2

>  <REMARK>
 VINA RESULT:      -4.5      2.311      4.928
  Name = 
  11 active torsions:
  status: ('A' for Active; 'I' for Inactive)
    1  A    between atoms: C_1  and  C_20
    2  A    between atoms: C_3  and  C_12
    3  A    between atoms: C_3  and  N_31
    4  A    between atoms: C_3  and  C_32
    5  A    between atoms: N_7  and  O_15
    6  A    between atoms: N_7  and  C_19
    7  A    between atoms: C_9  and  N_24
    8  A    between atoms: C_19  and  C_48
    9  A    between atoms: C_20  and  C_45
   10  A    between atoms: C_29  and  N_31
   11  A    between atoms: C_39  and  C_40
                            x       y       z     vdW  Elec       q    Type
                         _______ _______ _______ _____ _____    ______ ____

>  <TORSDO>
F 11

$$$$
=
 OpenBabel11072409483D

 49 56  0  0  1  0  0  0  0  0999 V2000
  160.7840  213.1970  147.7320 N   0  0  0  0  0  0  0  0  0  0  0  0
  160.4700  212.9420  149.9380 C   0  0  1  0  0  3  0  0  0  0  0  0
  158.6960  213.8750  148.7430 N   0  0  0  0  0  2  0  0  0  0  0  0
  160.2700  211.4820  152.6560 C   0  0  0  0  0  3  0  0  0  0  0  0
  161.8910  212.3750  148.2490 C   0  0  0  0  0  2  0  0  0  0  0  0
  161.2720  210.7740  151.8190 C   0  0  1  0  0  3  0  0  0  0  0  0
  160.0840  213.5630  148.7570 C   0  0  0  0  0  0  0  0  0  0  0  0
  159.3900  212.3810  152.1610 C   0  0  0  0  0  0  0  0  0  0  0  0
  158.1780  213.4890  150.0740 C   0  0  0  0  0  2  0  0  0  0  0  0
  161.8170  211.0860  150.5860 C   0  0  0  0  0  0  0  0  0  0  0  0
  159.2390  212.5340  150.6590 C   0  0  1  0  0  3  0  0  0  0  0  0
  162.1030  209.5350  151.9050 C   0  0  2  0  0  3  0  0  0  0  0  0
  162.6890  209.8710  150.6330 C   0  0  0  0  0  2  0  0  0  0  0  0
  161.5230  212.2020  149.6960 C   0  0  0  0  0  0  0  0  0  0  0  0
  161.6550  207.0350  151.3340 N   0  0  0  0  0  0  0  0  0  0  0  0
  160.1370  208.3440  152.5160 O   0  0  0  0  0  0  0  0  0  0  0  0
  161.2310  208.2990  151.8900 C   0  0  0  0  0  0  0  0  0  0  0  0
  161.6950  204.8380  151.1830 C   0  0  0  0  0  1  0  0  0  0  0  0
  161.4170  205.8970  152.0440 O   0  0  0  0  0  0  0  0  0  0  0  0
  162.1200  206.9140  149.9540 C   0  0  0  0  0  2  0  0  0  0  0  0
  160.7310  206.3300  147.8730 C   0  0  2  0  0  3  0  0  0  0  0  0
  161.5040  207.5690  147.6820 N   0  0  0  0  0  2  0  0  0  0  0  0
  160.9620  207.2370  149.0010 C   0  0  2  0  0  3  0  0  0  0  0  0
  161.6710  205.1210  147.7740 C   0  0  0  0  0  2  0  0  0  0  0  0
  160.2800  204.8690  145.6990 C   0  0  0  0  0  2  0  0  0  0  0  0
  163.8650  204.4430  146.1250 O   0  0  0  0  0  1  0  0  0  0  0  0
  162.6250  204.3810  145.4860 C   0  0  2  0  0  3  0  0  0  0  0  0
  160.8510  205.7280  144.5720 C   0  0  0  0  0  2  0  0  0  0  0  0
  162.3680  205.6140  144.6540 C   0  0  0  0  0  2  0  0  0  0  0  0
  161.4610  204.3150  146.4740 C   0  0  1  0  0  3  0  0  0  0  0  0
  158.5020  213.0940  153.0450 N   0  0  0  0  0  2  0  0  0  0  0  0
  158.7920  213.3800  154.4450 C   0  0  2  0  0  3  0  0  0  0  0  0
  160.3590  209.6200  155.9430 C   0  0  2  0  0  3  0  0  0  0  0  0
  159.2620  212.1510  155.1850 C   0  0  0  0  0  0  0  0  0  0  0  0
  161.0140  210.8570  156.5590 C   0  0  0  0  0  2  0  0  0  0  0  0
  160.6670  212.1230  155.7700 C   0  0  0  0  0  2  0  0  0  0  0  0
  158.4620  211.0620  155.2430 C   0  0  0  0  0  0  0  0  0  0  0  0
  157.1280  211.0350  154.5600 C   0  0  0  0  0  1  0  0  0  0  0  0
  158.8570  209.8410  156.0380 C   0  0  0  0  0  2  0  0  0  0  0  0
  162.0250  208.2640  157.1500 O   0  0  0  0  0  0  0  0  0  0  0  0
  160.7430  208.4110  156.6740 N   0  0  0  0  0  0  0  0  0  0  0  0
  159.9660  207.4350  156.7510 O   0  0  0  0  0  0  0  0  0  0  0  0
  157.5550  214.2150  156.6260 C   0  0  0  0  0  2  0  0  0  0  0  0
  155.2600  214.4040  154.2800 C   0  0  0  0  0  2  0  0  0  0  0  0
  154.9770  214.4530  156.8230 C   0  0  0  0  0  2  0  0  0  0  0  0
  154.3880  214.0450  155.4590 C   0  0  0  0  0  2  0  0  0  0  0  0
  157.6470  214.0870  155.1180 C   0  0  0  0  0  3  0  0  0  0  0  0
  156.2380  213.6470  157.2240 C   0  0  0  0  0  2  0  0  0  0  0  0
  156.5290  214.2670  154.4930 C   0  0  0  0  0  2  0  0  0  0  0  0
  1  5  1  0  0  0  0
  1  7  2  0  0  0  0
  2  7  1  6  0  0  0
  2 11  1  0  0  0  0
  3  7  1  0  0  0  0
  3  9  1  0  0  0  0
  5 14  1  0  0  0  0
  6 12  1  0  0  0  0
  6  4  1  1  0  0  0
  8  4  2  0  0  0  0
  8 31  1  0  0  0  0
 10 13  1  0  0  0  0
 10  6  1  0  0  0  0
 11  9  1  1  0  0  0
 11  8  1  0  0  0  0
 12 17  1  6  0  0  0
 13 12  1  0  0  0  0
 14  2  1  0  0  0  0
 14 10  2  0  0  0  0
 15 17  1  0  0  0  0
 15 19  1  0  0  0  0
 17 16  2  0  0  0  0
 18 19  1  0  0  0  0
 20 15  1  0  0  0  0
 21 24  1  1  0  0  0
 21 23  1  0  0  0  0
 22 21  1  0  0  0  0
 22 23  1  0  0  0  0
 23 20  1  1  0  0  0
 25 30  1  0  0  0  0
 27 26  1  1  0  0  0
 27 30  1  0  0  0  0
 28 29  1  0  0  0  0
 28 25  1  0  0  0  0
 29 27  1  0  0  0  0
 30 24  1  1  0  0  0
 32 31  1  6  0  0  0
 32 47  1  0  0  0  0
 32 34  1  0  0  0  0
 33 39  1  0  0  0  0
 33 35  1  0  0  0  0
 33 41  1  1  0  0  0
 34 37  2  0  0  0  0
 34 36  1  0  0  0  0
 36 35  1  0  0  0  0
 37 39  1  0  0  0  0
 38 37  1  0  0  0  0
 41 42  2  0  0  0  0
 41 40  2  0  0  0  0
 43 48  1  0  0  0  0
 44 49  1  0  0  0  0
 44 46  1  0  0  0  0
 45 48  1  0  0  0  0
 46 45  1  0  0  0  0
 47 43  1  0  0  0  0
 49 47  1  0  0  0  0
M  END
>  <MODEL>
3

>  <REMARK>
 VINA RESULT:      -4.4      2.478      5.080
  Name = 
  11 active torsions:
  status: ('A' for Active; 'I' for Inactive)
    1  A    between atoms: C_1  and  C_20
    2  A    between atoms: C_3  and  C_12
    3  A    between atoms: C_3  and  N_31
    4  A    between atoms: C_3  and  C_32
    5  A    between atoms: N_7  and  O_15
    6  A    between atoms: N_7  and  C_19
    7  A    between atoms: C_9  and  N_24
    8  A    between atoms: C_19  and  C_48
    9  A    between atoms: C_20  and  C_45
   10  A    between atoms: C_29  and  N_31
   11  A    between atoms: C_39  and  C_40
                            x       y       z     vdW  Elec       q    Type
                         _______ _______ _______ _____ _____    ______ ____

>  <TORSDO>
F 11

$$$$
