=
 OpenBabel11072412173D

 38 41  0  0  1  0  0  0  0  0999 V2000
  161.3970  204.5370  152.3880 C   0  0  0  0  0  3  0  0  0  0  0  0
  161.1590  203.9520  151.2250 C   0  0  0  0  0  3  0  0  0  0  0  0
  161.0980  207.1490  152.6360 C   0  0  0  0  0  0  0  0  0  0  0  0
  161.2380  205.9570  152.5190 C   0  0  0  0  0  0  0  0  0  0  0  0
  160.9180  208.5960  152.7840 C   0  0  2  0  0  3  0  0  0  0  0  0
  162.1070  209.2560  152.4590 O   0  0  0  0  0  1  0  0  0  0  0  0
  160.8660  210.3310  154.5890 C   0  0  0  0  0  0  0  0  0  0  0  0
  161.9170  208.8980  156.1350 N   0  0  0  0  0  0  0  0  0  0  0  0
  161.7430  210.2370  155.7260 C   0  0  0  0  0  0  0  0  0  0  0  0
  160.4540  208.9450  154.2040 C   0  0  2  0  0  3  0  0  0  0  0  0
  160.4650  211.4770  154.0310 C   0  0  0  0  0  3  0  0  0  0  0  0
  161.1220  208.0360  155.2670 C   0  0  0  0  0  3  0  0  0  0  0  0
  162.2950  211.2130  156.3000 O   0  0  0  0  0  0  0  0  0  0  0  0
  160.1590  212.2110  151.7550 N   0  0  0  0  0  0  0  0  0  0  0  0
  158.3430  213.4890  152.2530 N   0  0  0  0  0  0  0  0  0  0  0  0
  159.5200  211.5340  152.8730 C   0  0  2  0  0  3  0  0  0  0  0  0
  159.4820  213.2610  151.4480 C   0  0  0  0  0  0  0  0  0  0  0  0
  159.8820  214.1720  150.3430 C   0  0  0  0  0  1  0  0  0  0  0  0
  158.3020  212.4010  153.2150 C   0  0  0  0  0  3  0  0  0  0  0  0
  161.3130  202.4760  151.0610 C   0  0  1  0  0  3  0  0  0  0  0  0
  160.8140  201.8310  152.1970 O   0  0  0  0  0  1  0  0  0  0  0  0
  159.7050  200.9480  150.1520 O   0  0  0  0  0  1  0  0  0  0  0  0
  160.5500  202.0100  149.8250 C   0  0  2  0  0  3  0  0  0  0  0  0
  161.5210  201.5600  148.7410 C   0  0  0  0  0  2  0  0  0  0  0  0
  159.8700  201.6260  145.2530 C   0  0  0  0  0  2  0  0  0  0  0  0
  162.2580  206.4400  146.6790 C   0  0  0  0  0  2  0  0  0  0  0  0
  160.4590  201.1590  146.5640 C   0  0  0  0  0  3  0  0  0  0  0  0
  162.0070  204.6040  144.9300 C   0  0  0  0  0  3  0  0  0  0  0  0
  162.9460  205.4750  145.7140 C   0  0  0  0  0  2  0  0  0  0  0  0
  161.0660  205.8660  147.4530 C   0  0  1  0  0  3  0  0  0  0  0  0
  161.2780  203.6390  145.5000 C   0  0  0  0  0  0  0  0  0  0  0  0
  161.2380  203.4200  146.9650 C   0  0  0  0  0  0  0  0  0  0  0  0
  161.0560  202.0220  147.3970 C   0  0  0  0  0  0  0  0  0  0  0  0
  160.6320  202.7000  144.6880 O   0  0  0  0  0  0  0  0  0  0  0  0
  161.1900  204.4230  147.8530 C   0  0  0  0  0  3  0  0  0  0  0  0
  159.8450  206.3830  149.4320 O   0  0  0  0  0  1  0  0  0  0  0  0
  161.5240  207.8560  148.8970 O   0  0  0  0  0  0  0  0  0  0  0  0
  160.7760  206.7100  148.6460 C   0  0  0  0  0  0  0  0  0  0  0  0
  1  4  1  0  0  0  0
  2  1  2  0  0  0  0
  3  5  1  0  0  0  0
  4  3  3  0  0  0  0
  5  6  1  1  0  0  0
  7  9  1  0  0  0  0
  9  8  1  0  0  0  0
  9 13  2  0  0  0  0
 10  5  1  6  0  0  0
 10  7  1  0  0  0  0
 10 12  1  0  0  0  0
 11  7  2  0  0  0  0
 12  8  2  0  0  0  0
 14 16  1  0  0  0  0
 15 19  2  0  0  0  0
 16 19  1  0  0  0  0
 16 11  1  1  0  0  0
 17 14  2  0  0  0  0
 17 15  1  0  0  0  0
 18 17  1  0  0  0  0
 20  2  1  0  0  0  0
 20 21  1  1  0  0  0
 23 22  1  1  0  0  0
 23 20  1  0  0  0  0
 24 23  1  0  0  0  0
 25 27  1  0  0  0  0
 26 30  1  0  0  0  0
 27 33  2  0  0  0  0
 28 31  2  0  0  0  0
 28 29  1  0  0  0  0
 29 26  1  0  0  0  0
 30 35  1  0  0  0  0
 30 38  1  1  0  0  0
 31 32  1  0  0  0  0
 32 33  1  0  0  0  0
 32 35  2  0  0  0  0
 33 24  1  0  0  0  0
 34 25  1  0  0  0  0
 34 31  1  0  0  0  0
 38 37  2  0  0  0  0
 38 36  1  0  0  0  0
M  END
>  <MODEL>
1

>  <REMARK>
 VINA RESULT:      -8.4      0.000      0.000
  Name = 
  9 active torsions:
  status: ('A' for Active; 'I' for Inactive)
    1  A    between atoms: C_7  and  C_20
    2  A    between atoms: C_7  and  C_21
    3  A    between atoms: C_9  and  C_30
    4  A    between atoms: C_11  and  C_13
    5  A    between atoms: C_11  and  C_35
    6  A    between atoms: C_13  and  C_23
    7  A    between atoms: C_14  and  C_29
    8  A    between atoms: C_17  and  C_23
    9  A    between atoms: C_24  and  C_31
                            x       y       z     vdW  Elec       q    Type
                         _______ _______ _______ _____ _____    ______ ____

>  <TORSDO>
F 9

$$$$
=
 OpenBabel11072412173D

 38 41  0  0  1  0  0  0  0  0999 V2000
  161.2480  207.4380  153.9240 C   0  0  0  0  0  3  0  0  0  0  0  0
  160.2030  207.3370  154.7300 C   0  0  0  0  0  3  0  0  0  0  0  0
  161.1680  206.3190  151.5340 C   0  0  0  0  0  0  0  0  0  0  0  0
  161.2100  206.8290  152.6260 C   0  0  0  0  0  0  0  0  0  0  0  0
  161.1060  205.6990  150.2070 C   0  0  2  0  0  3  0  0  0  0  0  0
  159.7790  205.6530  149.7700 O   0  0  0  0  0  1  0  0  0  0  0  0
  161.1750  203.4310  149.1480 C   0  0  0  0  0  0  0  0  0  0  0  0
  160.6430  202.3570  151.1760 N   0  0  0  0  0  0  0  0  0  0  0  0
  160.5270  202.3080  149.7700 C   0  0  0  0  0  0  0  0  0  0  0  0
  161.7370  204.3010  150.2290 C   0  0  2  0  0  3  0  0  0  0  0  0
  161.2860  203.6100  147.8280 C   0  0  0  0  0  3  0  0  0  0  0  0
  161.4120  203.5420  151.5410 C   0  0  0  0  0  3  0  0  0  0  0  0
  159.9270  201.3840  149.1580 O   0  0  0  0  0  0  0  0  0  0  0  0
  161.1760  205.3660  146.1800 N   0  0  0  0  0  0  0  0  0  0  0  0
  163.0620  204.6830  145.1070 N   0  0  0  0  0  0  0  0  0  0  0  0
  162.0040  204.7720  147.2190 C   0  0  2  0  0  3  0  0  0  0  0  0
  161.7930  205.3030  145.0540 C   0  0  0  0  0  0  0  0  0  0  0  0
  161.2040  205.8240  143.7920 C   0  0  0  0  0  1  0  0  0  0  0  0
  163.2700  204.3030  146.4930 C   0  0  0  0  0  3  0  0  0  0  0  0
  160.2140  207.9630  156.0860 C   0  0  1  0  0  3  0  0  0  0  0  0
  160.4480  206.9760  157.0480 O   0  0  0  0  0  1  0  0  0  0  0  0
  162.1310  208.7950  157.2610 O   0  0  0  0  0  1  0  0  0  0  0  0
  161.3080  209.0250  156.1570 C   0  0  2  0  0  3  0  0  0  0  0  0
  160.6930  210.4130  156.2720 C   0  0  0  0  0  2  0  0  0  0  0  0
  160.7970  211.2070  152.4970 C   0  0  0  0  0  2  0  0  0  0  0  0
  156.2910  213.2030  155.0720 C   0  0  0  0  0  2  0  0  0  0  0  0
  161.1860  210.7940  153.8980 C   0  0  0  0  0  3  0  0  0  0  0  0
  158.2660  213.6700  153.5300 C   0  0  0  0  0  3  0  0  0  0  0  0
  157.4670  214.1150  154.7210 C   0  0  0  0  0  2  0  0  0  0  0  0
  156.5640  211.7000  154.9670 C   0  0  1  0  0  3  0  0  0  0  0  0
  159.0230  212.5680  153.5440 C   0  0  0  0  0  0  0  0  0  0  0  0
  159.0470  211.6240  154.6860 C   0  0  0  0  0  0  0  0  0  0  0  0
  160.3330  210.9420  154.9210 C   0  0  0  0  0  0  0  0  0  0  0  0
  159.9380  212.3540  152.5070 O   0  0  0  0  0  0  0  0  0  0  0  0
  157.9470  211.2640  155.3610 C   0  0  0  0  0  3  0  0  0  0  0  0
  155.2160  211.3240  156.8940 O   0  0  0  0  0  1  0  0  0  0  0  0
  154.9470  209.8050  155.1920 O   0  0  0  0  0  0  0  0  0  0  0  0
  155.5420  210.9380  155.7390 C   0  0  0  0  0  0  0  0  0  0  0  0
  1  2  2  0  0  0  0
  2 20  1  0  0  0  0
  3  4  3  0  0  0  0
  4  1  1  0  0  0  0
  5  6  1  1  0  0  0
  5  3  1  0  0  0  0
  7  9  1  0  0  0  0
  7 10  1  0  0  0  0
  8 12  2  0  0  0  0
  9  8  1  0  0  0  0
 10  5  1  1  0  0  0
 10 12  1  0  0  0  0
 11  7  2  0  0  0  0
 13  9  2  0  0  0  0
 14 16  1  0  0  0  0
 15 19  2  0  0  0  0
 16 11  1  6  0  0  0
 17 15  1  0  0  0  0
 17 14  2  0  0  0  0
 18 17  1  0  0  0  0
 19 16  1  0  0  0  0
 20 23  1  0  0  0  0
 20 21  1  1  0  0  0
 23 24  1  0  0  0  0
 23 22  1  1  0  0  0
 25 34  1  0  0  0  0
 25 27  1  0  0  0  0
 27 33  2  0  0  0  0
 28 31  2  0  0  0  0
 28 29  1  0  0  0  0
 29 26  1  0  0  0  0
 30 26  1  0  0  0  0
 30 35  1  0  0  0  0
 30 38  1  1  0  0  0
 31 32  1  0  0  0  0
 32 33  1  0  0  0  0
 32 35  2  0  0  0  0
 33 24  1  0  0  0  0
 34 31  1  0  0  0  0
 37 38  2  0  0  0  0
 38 36  1  0  0  0  0
M  END
>  <MODEL>
2

>  <REMARK>
 VINA RESULT:      -8.1      3.577      9.810
  Name = 
  9 active torsions:
  status: ('A' for Active; 'I' for Inactive)
    1  A    between atoms: C_7  and  C_20
    2  A    between atoms: C_7  and  C_21
    3  A    between atoms: C_9  and  C_30
    4  A    between atoms: C_11  and  C_13
    5  A    between atoms: C_11  and  C_35
    6  A    between atoms: C_13  and  C_23
    7  A    between atoms: C_14  and  C_29
    8  A    between atoms: C_17  and  C_23
    9  A    between atoms: C_24  and  C_31
                            x       y       z     vdW  Elec       q    Type
                         _______ _______ _______ _____ _____    ______ ____

>  <TORSDO>
F 9

$$$$
=
 OpenBabel11072412173D

 38 41  0  0  1  0  0  0  0  0999 V2000
  162.5190  209.8690  149.0240 C   0  0  0  0  0  3  0  0  0  0  0  0
  161.9100  211.0390  149.1370 C   0  0  0  0  0  3  0  0  0  0  0  0
  161.4420  207.7260  150.1280 C   0  0  0  0  0  0  0  0  0  0  0  0
  161.9380  208.7020  149.6240 C   0  0  0  0  0  0  0  0  0  0  0  0
  160.8280  206.5450  150.7430 C   0  0  2  0  0  3  0  0  0  0  0  0
  160.5290  206.8120  152.0830 O   0  0  0  0  0  1  0  0  0  0  0  0
  161.1420  204.2870  149.7080 C   0  0  0  0  0  0  0  0  0  0  0  0
  161.3860  203.2480  151.8080 N   0  0  0  0  0  0  0  0  0  0  0  0
  160.9390  203.0890  150.4790 C   0  0  0  0  0  0  0  0  0  0  0  0
  161.7430  205.3220  150.6070 C   0  0  2  0  0  3  0  0  0  0  0  0
  160.8780  204.4050  148.4030 C   0  0  0  0  0  3  0  0  0  0  0  0
  161.9340  204.5910  151.9600 C   0  0  0  0  0  3  0  0  0  0  0  0
  160.4300  202.0220  150.0430 O   0  0  0  0  0  0  0  0  0  0  0  0
  160.4830  205.5750  146.3330 N   0  0  0  0  0  0  0  0  0  0  0  0
  162.6970  205.7810  145.8520 N   0  0  0  0  0  0  0  0  0  0  0  0
  161.1410  205.6570  147.6280 C   0  0  2  0  0  3  0  0  0  0  0  0
  161.3640  205.6550  145.3990 C   0  0  0  0  0  0  0  0  0  0  0  0
  161.0050  205.5980  143.9580 C   0  0  0  0  0  1  0  0  0  0  0  0
  162.6340  205.7860  147.3030 C   0  0  0  0  0  3  0  0  0  0  0  0
  162.4910  212.2700  148.5210 C   0  0  1  0  0  3  0  0  0  0  0  0
  163.3470  211.9040  147.4790 O   0  0  0  0  0  1  0  0  0  0  0  0
  161.8330  213.9170  146.9080 O   0  0  0  0  0  1  0  0  0  0  0  0
  161.3710  213.1570  147.9840 C   0  0  2  0  0  3  0  0  0  0  0  0
  160.8640  214.0900  149.0750 C   0  0  0  0  0  2  0  0  0  0  0  0
  157.0720  213.5530  148.6000 C   0  0  0  0  0  2  0  0  0  0  0  0
  158.7550  213.0260  153.8730 C   0  0  0  0  0  2  0  0  0  0  0  0
  158.5180  213.9290  148.3720 C   0  0  0  0  0  3  0  0  0  0  0  0
  157.1210  214.0990  152.2390 C   0  0  0  0  0  3  0  0  0  0  0  0
  158.0630  214.3010  153.3900 C   0  0  0  0  0  2  0  0  0  0  0  0
  159.2310  212.0730  152.7720 C   0  0  1  0  0  3  0  0  0  0  0  0
  157.5450  213.7710  151.0140 C   0  0  0  0  0  0  0  0  0  0  0  0
  158.9610  213.4590  150.7090 C   0  0  0  0  0  0  0  0  0  0  0  0
  159.4190  213.8310  149.3580 C   0  0  0  0  0  0  0  0  0  0  0  0
  156.6550  213.8580  149.9370 O   0  0  0  0  0  0  0  0  0  0  0  0
  159.7400  212.7320  151.5220 C   0  0  0  0  0  3  0  0  0  0  0  0
  160.3800  209.9870  152.8050 O   0  0  0  0  0  0  0  0  0  0  0  0
  161.0650  211.5140  154.3780 O   0  0  0  0  0  1  0  0  0  0  0  0
  160.2520  211.1330  153.3140 C   0  0  0  0  0  0  0  0  0  0  0  0
  1  2  2  0  0  0  0
  1  4  1  0  0  0  0
  3  5  1  0  0  0  0
  4  3  3  0  0  0  0
  5  6  1  1  0  0  0
  7  9  1  0  0  0  0
  7 10  1  0  0  0  0
  8 12  2  0  0  0  0
  9  8  1  0  0  0  0
 10  5  1  1  0  0  0
 10 12  1  0  0  0  0
 11  7  2  0  0  0  0
 13  9  2  0  0  0  0
 14 16  1  0  0  0  0
 15 19  2  0  0  0  0
 16 11  1  1  0  0  0
 17 15  1  0  0  0  0
 17 14  2  0  0  0  0
 18 17  1  0  0  0  0
 19 16  1  0  0  0  0
 20 21  1  6  0  0  0
 20  2  1  0  0  0  0
 23 22  1  6  0  0  0
 23 20  1  0  0  0  0
 23 24  1  0  0  0  0
 24 33  1  0  0  0  0
 25 34  1  0  0  0  0
 27 25  1  0  0  0  0
 27 33  2  0  0  0  0
 28 29  1  0  0  0  0
 29 26  1  0  0  0  0
 30 38  1  1  0  0  0
 30 26  1  0  0  0  0
 31 28  2  0  0  0  0
 32 31  1  0  0  0  0
 32 35  2  0  0  0  0
 33 32  1  0  0  0  0
 34 31  1  0  0  0  0
 35 30  1  0  0  0  0
 36 38  2  0  0  0  0
 38 37  1  0  0  0  0
M  END
>  <MODEL>
3

>  <REMARK>
 VINA RESULT:      -7.5      3.479      9.557
  Name = 
  9 active torsions:
  status: ('A' for Active; 'I' for Inactive)
    1  A    between atoms: C_7  and  C_20
    2  A    between atoms: C_7  and  C_21
    3  A    between atoms: C_9  and  C_30
    4  A    between atoms: C_11  and  C_13
    5  A    between atoms: C_11  and  C_35
    6  A    between atoms: C_13  and  C_23
    7  A    between atoms: C_14  and  C_29
    8  A    between atoms: C_17  and  C_23
    9  A    between atoms: C_24  and  C_31
                            x       y       z     vdW  Elec       q    Type
                         _______ _______ _______ _____ _____    ______ ____

>  <TORSDO>
F 9

$$$$
=
 OpenBabel11072412173D

 38 41  0  0  1  0  0  0  0  0999 V2000
  161.1430  208.2300  152.0610 C   0  0  0  0  0  3  0  0  0  0  0  0
  162.0130  208.3430  151.0700 C   0  0  0  0  0  3  0  0  0  0  0  0
  160.6250  210.3140  153.5970 C   0  0  0  0  0  0  0  0  0  0  0  0
  160.8650  209.3610  152.8990 C   0  0  0  0  0  0  0  0  0  0  0  0
  160.3260  211.4780  154.4380 C   0  0  2  0  0  3  0  0  0  0  0  0
  161.1880  211.4990  155.5390 O   0  0  0  0  0  1  0  0  0  0  0  0
  158.1970  212.7860  154.6020 C   0  0  0  0  0  0  0  0  0  0  0  0
  158.0730  212.4820  156.9350 N   0  0  0  0  0  0  0  0  0  0  0  0
  157.7700  213.3420  155.8580 C   0  0  0  0  0  0  0  0  0  0  0  0
  158.8570  211.4700  154.8770 C   0  0  2  0  0  3  0  0  0  0  0  0
  157.9790  213.3460  153.4090 C   0  0  0  0  0  3  0  0  0  0  0  0
  158.7140  211.2810  156.4080 C   0  0  0  0  0  3  0  0  0  0  0  0
  157.1950  214.4530  156.0030 O   0  0  0  0  0  0  0  0  0  0  0  0
  159.7170  213.2160  151.7430 N   0  0  0  0  0  0  0  0  0  0  0  0
  158.3410  213.8400  150.0420 N   0  0  0  0  0  0  0  0  0  0  0  0
  158.4040  212.7150  152.1210 C   0  0  2  0  0  3  0  0  0  0  0  0
  159.6370  213.8110  150.6060 C   0  0  0  0  0  0  0  0  0  0  0  0
  160.8150  214.4370  149.9490 C   0  0  0  0  0  1  0  0  0  0  0  0
  157.4760  213.1450  150.9780 C   0  0  0  0  0  3  0  0  0  0  0  0
  162.3190  207.1840  150.1800 C   0  0  1  0  0  3  0  0  0  0  0  0
  161.5260  206.0940  150.5530 O   0  0  0  0  0  1  0  0  0  0  0  0
  161.6130  208.8850  148.6460 O   0  0  0  0  0  1  0  0  0  0  0  0
  162.0360  207.5570  148.7280 C   0  0  2  0  0  3  0  0  0  0  0  0
  160.9570  206.6520  148.1480 C   0  0  0  0  0  2  0  0  0  0  0  0
  163.0800  204.7020  145.5820 C   0  0  0  0  0  2  0  0  0  0  0  0
  160.1560  201.4330  148.9990 C   0  0  0  0  0  2  0  0  0  0  0  0
  162.3460  205.8050  146.3100 C   0  0  0  0  0  3  0  0  0  0  0  0
  160.7930  202.0050  146.5990 C   0  0  0  0  0  3  0  0  0  0  0  0
  159.6890  201.6950  147.5680 C   0  0  0  0  0  2  0  0  0  0  0  0
  161.2650  202.3570  149.5140 C   0  0  1  0  0  3  0  0  0  0  0  0
  161.5030  203.1360  146.6580 C   0  0  0  0  0  0  0  0  0  0  0  0
  161.3490  204.1260  147.7490 C   0  0  0  0  0  0  0  0  0  0  0  0
  161.5730  205.5340  147.3700 C   0  0  0  0  0  0  0  0  0  0  0  0
  162.3280  203.4820  145.5810 O   0  0  0  0  0  0  0  0  0  0  0  0
  161.1950  203.7790  149.0350 C   0  0  0  0  0  3  0  0  0  0  0  0
  161.9500  201.3890  151.5790 O   0  0  0  0  0  0  0  0  0  0  0  0
  160.6730  203.2890  151.7570 O   0  0  0  0  0  1  0  0  0  0  0  0
  161.3170  202.3140  151.0020 C   0  0  0  0  0  0  0  0  0  0  0  0
  1  4  1  0  0  0  0
  2  1  2  0  0  0  0
  3  5  1  0  0  0  0
  4  3  3  0  0  0  0
  5  6  1  1  0  0  0
  7 10  1  0  0  0  0
  7  9  1  0  0  0  0
  9 13  2  0  0  0  0
  9  8  1  0  0  0  0
 10  5  1  1  0  0  0
 10 12  1  0  0  0  0
 11  7  2  0  0  0  0
 12  8  2  0  0  0  0
 14 16  1  0  0  0  0
 15 17  1  0  0  0  0
 15 19  2  0  0  0  0
 16 11  1  1  0  0  0
 17 14  2  0  0  0  0
 18 17  1  0  0  0  0
 19 16  1  0  0  0  0
 20 21  1  1  0  0  0
 20  2  1  0  0  0  0
 23 22  1  1  0  0  0
 23 20  1  0  0  0  0
 24 23  1  0  0  0  0
 25 27  1  0  0  0  0
 26 30  1  0  0  0  0
 27 33  2  0  0  0  0
 28 31  2  0  0  0  0
 28 29  1  0  0  0  0
 29 26  1  0  0  0  0
 30 38  1  1  0  0  0
 31 32  1  0  0  0  0
 32 35  2  0  0  0  0
 33 32  1  0  0  0  0
 33 24  1  0  0  0  0
 34 25  1  0  0  0  0
 34 31  1  0  0  0  0
 35 30  1  0  0  0  0
 38 36  2  0  0  0  0
 38 37  1  0  0  0  0
M  END
>  <MODEL>
4

>  <REMARK>
 VINA RESULT:      -7.3      1.880      4.178
  Name = 
  9 active torsions:
  status: ('A' for Active; 'I' for Inactive)
    1  A    between atoms: C_7  and  C_20
    2  A    between atoms: C_7  and  C_21
    3  A    between atoms: C_9  and  C_30
    4  A    between atoms: C_11  and  C_13
    5  A    between atoms: C_11  and  C_35
    6  A    between atoms: C_13  and  C_23
    7  A    between atoms: C_14  and  C_29
    8  A    between atoms: C_17  and  C_23
    9  A    between atoms: C_24  and  C_31
                            x       y       z     vdW  Elec       q    Type
                         _______ _______ _______ _____ _____    ______ ____

>  <TORSDO>
F 9

$$$$
=
 OpenBabel11072412173D

 38 41  0  0  1  0  0  0  0  0999 V2000
  162.2470  208.4990  149.0080 C   0  0  0  0  0  3  0  0  0  0  0  0
  162.3320  208.2700  150.3090 C   0  0  0  0  0  3  0  0  0  0  0  0
  162.3500  206.4720  147.3190 C   0  0  0  0  0  0  0  0  0  0  0  0
  162.3040  207.4010  148.0860 C   0  0  0  0  0  0  0  0  0  0  0  0
  162.4080  205.3350  146.3950 C   0  0  2  0  0  3  0  0  0  0  0  0
  162.8120  205.7740  145.1300 O   0  0  0  0  0  1  0  0  0  0  0  0
  161.1140  203.2830  147.0140 C   0  0  0  0  0  0  0  0  0  0  0  0
  160.5660  202.8290  144.7690 N   0  0  0  0  0  0  0  0  0  0  0  0
  160.8320  202.2670  146.0360 C   0  0  0  0  0  0  0  0  0  0  0  0
  161.0560  204.6150  146.3320 C   0  0  2  0  0  3  0  0  0  0  0  0
  161.3320  203.0490  148.3120 C   0  0  0  0  0  3  0  0  0  0  0  0
  160.6470  204.2820  144.8750 C   0  0  0  0  0  3  0  0  0  0  0  0
  160.8170  201.0280  146.2590 O   0  0  0  0  0  0  0  0  0  0  0  0
  161.7910  203.5560  150.6230 N   0  0  0  0  0  0  0  0  0  0  0  0
  159.9560  204.8810  150.8540 N   0  0  0  0  0  0  0  0  0  0  0  0
  161.5820  204.1380  149.3070 C   0  0  2  0  0  3  0  0  0  0  0  0
  160.8920  203.9930  151.4320 C   0  0  0  0  0  0  0  0  0  0  0  0
  160.8320  203.5780  152.8580 C   0  0  0  0  0  1  0  0  0  0  0  0
  160.3390  205.0230  149.4600 C   0  0  0  0  0  3  0  0  0  0  0  0
  162.2730  209.3940  151.2920 C   0  0  1  0  0  3  0  0  0  0  0  0
  161.8200  210.5480  150.6460 O   0  0  0  0  0  1  0  0  0  0  0  0
  160.8310  207.7410  152.2580 O   0  0  0  0  0  1  0  0  0  0  0  0
  161.3280  209.0340  152.4330 C   0  0  2  0  0  3  0  0  0  0  0  0
  160.1630  210.0140  152.4880 C   0  0  0  0  0  2  0  0  0  0  0  0
  161.0280  211.1720  156.0660 C   0  0  0  0  0  2  0  0  0  0  0  0
  155.9700  212.7450  154.3750 C   0  0  0  0  0  2  0  0  0  0  0  0
  161.0480  210.4580  154.7340 C   0  0  0  0  0  3  0  0  0  0  0  0
  157.3790  211.6310  156.1820 C   0  0  0  0  0  3  0  0  0  0  0  0
  156.1510  211.5580  155.3210 C   0  0  0  0  0  2  0  0  0  0  0  0
  157.2460  213.2460  153.6890 C   0  0  1  0  0  3  0  0  0  0  0  0
  158.6140  211.5210  155.6820 C   0  0  0  0  0  0  0  0  0  0  0  0
  158.8880  211.4400  154.2290 C   0  0  0  0  0  0  0  0  0  0  0  0
  160.0610  210.6320  153.8450 C   0  0  0  0  0  0  0  0  0  0  0  0
  159.6910  211.3320  156.5560 O   0  0  0  0  0  0  0  0  0  0  0  0
  158.2420  212.1830  153.3200 C   0  0  0  0  0  3  0  0  0  0  0  0
  157.8070  214.4400  151.7070 O   0  0  0  0  0  0  0  0  0  0  0  0
  155.5750  214.4210  152.2460 O   0  0  0  0  0  1  0  0  0  0  0  0
  156.8970  214.0660  152.4950 C   0  0  0  0  0  0  0  0  0  0  0  0
  1  2  2  0  0  0  0
  2 20  1  0  0  0  0
  3  4  3  0  0  0  0
  4  1  1  0  0  0  0
  5  6  1  6  0  0  0
  5  3  1  0  0  0  0
  7 11  2  0  0  0  0
  8 12  2  0  0  0  0
  8  9  1  0  0  0  0
  9 13  2  0  0  0  0
  9  7  1  0  0  0  0
 10  5  1  6  0  0  0
 10  7  1  0  0  0  0
 12 10  1  0  0  0  0
 14 17  2  0  0  0  0
 15 17  1  0  0  0  0
 16 11  1  6  0  0  0
 16 19  1  0  0  0  0
 16 14  1  0  0  0  0
 17 18  1  0  0  0  0
 19 15  2  0  0  0  0
 20 21  1  6  0  0  0
 20 23  1  0  0  0  0
 23 22  1  6  0  0  0
 23 24  1  0  0  0  0
 24 33  1  0  0  0  0
 25 34  1  0  0  0  0
 26 29  1  0  0  0  0
 27 25  1  0  0  0  0
 29 28  1  0  0  0  0
 30 38  1  6  0  0  0
 30 26  1  0  0  0  0
 31 28  2  0  0  0  0
 31 34  1  0  0  0  0
 32 31  1  0  0  0  0
 33 32  1  0  0  0  0
 33 27  2  0  0  0  0
 35 30  1  0  0  0  0
 35 32  2  0  0  0  0
 36 38  2  0  0  0  0
 37 38  1  0  0  0  0
M  END
>  <MODEL>
5

>  <REMARK>
 VINA RESULT:      -7.1      3.551     10.209
  Name = 
  9 active torsions:
  status: ('A' for Active; 'I' for Inactive)
    1  A    between atoms: C_7  and  C_20
    2  A    between atoms: C_7  and  C_21
    3  A    between atoms: C_9  and  C_30
    4  A    between atoms: C_11  and  C_13
    5  A    between atoms: C_11  and  C_35
    6  A    between atoms: C_13  and  C_23
    7  A    between atoms: C_14  and  C_29
    8  A    between atoms: C_17  and  C_23
    9  A    between atoms: C_24  and  C_31
                            x       y       z     vdW  Elec       q    Type
                         _______ _______ _______ _____ _____    ______ ____

>  <TORSDO>
F 9

$$$$
=
 OpenBabel11072412173D

 38 41  0  0  1  0  0  0  0  0999 V2000
  161.2000  207.7630  153.7290 C   0  0  0  0  0  3  0  0  0  0  0  0
  161.1520  209.0840  153.8000 C   0  0  0  0  0  3  0  0  0  0  0  0
  161.2080  206.5760  151.3710 C   0  0  0  0  0  0  0  0  0  0  0  0
  161.1990  207.1170  152.4480 C   0  0  0  0  0  0  0  0  0  0  0  0
  161.2300  205.9250  150.0580 C   0  0  2  0  0  3  0  0  0  0  0  0
  159.9470  205.9400  149.5020 O   0  0  0  0  0  1  0  0  0  0  0  0
  161.1730  203.5990  149.1310 C   0  0  0  0  0  0  0  0  0  0  0  0
  160.5580  202.6780  151.2100 N   0  0  0  0  0  0  0  0  0  0  0  0
  160.4530  202.5540  149.8090 C   0  0  0  0  0  0  0  0  0  0  0  0
  161.7760  204.4960  150.1670 C   0  0  2  0  0  3  0  0  0  0  0  0
  161.3070  203.6940  147.8050 C   0  0  0  0  0  3  0  0  0  0  0  0
  161.3940  203.8350  151.5170 C   0  0  0  0  0  3  0  0  0  0  0  0
  159.8050  201.6340  149.2440 O   0  0  0  0  0  0  0  0  0  0  0  0
  161.2760  205.4330  146.1370 N   0  0  0  0  0  0  0  0  0  0  0  0
  163.0260  204.5590  144.9760 N   0  0  0  0  0  0  0  0  0  0  0  0
  162.0990  204.7740  147.1390 C   0  0  2  0  0  3  0  0  0  0  0  0
  161.8210  205.2980  144.9800 C   0  0  0  0  0  0  0  0  0  0  0  0
  161.2170  205.8600  143.7430 C   0  0  0  0  0  1  0  0  0  0  0  0
  163.2730  204.1760  146.3540 C   0  0  0  0  0  3  0  0  0  0  0  0
  161.1540  209.7830  155.1200 C   0  0  1  0  0  3  0  0  0  0  0  0
  162.1580  210.7560  155.1250 O   0  0  0  0  0  1  0  0  0  0  0  0
  158.9450  209.5540  156.0240 O   0  0  0  0  0  1  0  0  0  0  0  0
  159.7970  210.4390  155.3600 C   0  0  2  0  0  3  0  0  0  0  0  0
  159.1620  210.8450  154.0360 C   0  0  0  0  0  2  0  0  0  0  0  0
  157.7290  214.1070  155.5190 C   0  0  0  0  0  2  0  0  0  0  0  0
  157.3180  213.8060  149.9820 C   0  0  0  0  0  2  0  0  0  0  0  0
  158.2740  212.7060  155.3690 C   0  0  0  0  0  3  0  0  0  0  0  0
  156.1430  214.2420  152.2010 C   0  0  0  0  0  3  0  0  0  0  0  0
  156.1100  213.5330  150.8780 C   0  0  0  0  0  2  0  0  0  0  0  0
  158.6750  213.8430  150.6930 C   0  0  1  0  0  3  0  0  0  0  0  0
  157.0230  213.9320  153.1600 C   0  0  0  0  0  0  0  0  0  0  0  0
  158.1170  212.9530  152.9610 C   0  0  0  0  0  0  0  0  0  0  0  0
  158.5080  212.1840  154.1570 C   0  0  0  0  0  0  0  0  0  0  0  0
  156.8340  214.4400  154.4500 O   0  0  0  0  0  0  0  0  0  0  0  0
  158.8350  212.8770  151.8320 C   0  0  0  0  0  3  0  0  0  0  0  0
  160.8440  213.0950  150.0560 O   0  0  0  0  0  1  0  0  0  0  0  0
  159.6310  214.1230  148.3990 O   0  0  0  0  0  0  0  0  0  0  0  0
  159.7760  213.6650  149.7050 C   0  0  0  0  0  0  0  0  0  0  0  0
  1  2  2  0  0  0  0
  2 20  1  0  0  0  0
  3  4  3  0  0  0  0
  4  1  1  0  0  0  0
  5  6  1  1  0  0  0
  5  3  1  0  0  0  0
  7  9  1  0  0  0  0
  7 10  1  0  0  0  0
  8 12  2  0  0  0  0
  9  8  1  0  0  0  0
 10  5  1  1  0  0  0
 10 12  1  0  0  0  0
 11  7  2  0  0  0  0
 13  9  2  0  0  0  0
 14 16  1  0  0  0  0
 15 17  1  0  0  0  0
 15 19  2  0  0  0  0
 16 11  1  6  0  0  0
 17 14  2  0  0  0  0
 18 17  1  0  0  0  0
 19 16  1  0  0  0  0
 20 21  1  6  0  0  0
 20 23  1  0  0  0  0
 23 22  1  6  0  0  0
 24 33  1  0  0  0  0
 24 23  1  0  0  0  0
 26 30  1  0  0  0  0
 26 29  1  0  0  0  0
 27 25  1  0  0  0  0
 28 31  2  0  0  0  0
 29 28  1  0  0  0  0
 30 38  1  6  0  0  0
 30 35  1  0  0  0  0
 31 34  1  0  0  0  0
 32 31  1  0  0  0  0
 32 33  1  0  0  0  0
 33 27  2  0  0  0  0
 34 25  1  0  0  0  0
 35 32  2  0  0  0  0
 37 38  2  0  0  0  0
 38 36  1  0  0  0  0
M  END
>  <MODEL>
6

>  <REMARK>
 VINA RESULT:      -6.8      3.462      9.920
  Name = 
  9 active torsions:
  status: ('A' for Active; 'I' for Inactive)
    1  A    between atoms: C_7  and  C_20
    2  A    between atoms: C_7  and  C_21
    3  A    between atoms: C_9  and  C_30
    4  A    between atoms: C_11  and  C_13
    5  A    between atoms: C_11  and  C_35
    6  A    between atoms: C_13  and  C_23
    7  A    between atoms: C_14  and  C_29
    8  A    between atoms: C_17  and  C_23
    9  A    between atoms: C_24  and  C_31
                            x       y       z     vdW  Elec       q    Type
                         _______ _______ _______ _____ _____    ______ ____

>  <TORSDO>
F 9

$$$$
=
 OpenBabel11072412173D

 38 41  0  0  1  0  0  0  0  0999 V2000
  161.0150  207.1020  152.8150 C   0  0  0  0  0  3  0  0  0  0  0  0
  161.7310  206.8540  151.7300 C   0  0  0  0  0  3  0  0  0  0  0  0
  160.6660  209.5890  153.6280 C   0  0  0  0  0  0  0  0  0  0  0  0
  160.8260  208.4550  153.2520 C   0  0  0  0  0  0  0  0  0  0  0  0
  160.4650  210.9640  154.0960 C   0  0  2  0  0  3  0  0  0  0  0  0
  161.4290  211.2800  155.0580 O   0  0  0  0  0  1  0  0  0  0  0  0
  158.5960  212.5750  154.5210 C   0  0  0  0  0  0  0  0  0  0  0  0
  158.5690  212.0910  156.8260 N   0  0  0  0  0  0  0  0  0  0  0  0
  158.3450  213.0800  155.8440 C   0  0  0  0  0  0  0  0  0  0  0  0
  159.0450  211.1520  154.6430 C   0  0  2  0  0  3  0  0  0  0  0  0
  158.3990  213.2660  153.3930 C   0  0  0  0  0  3  0  0  0  0  0  0
  158.9680  210.8540  156.1620 C   0  0  0  0  0  3  0  0  0  0  0  0
  157.9720  214.2510  156.1160 O   0  0  0  0  0  0  0  0  0  0  0  0
  159.9060  213.1700  151.5150 N   0  0  0  0  0  0  0  0  0  0  0  0
  158.3510  213.9250  150.0360 N   0  0  0  0  0  0  0  0  0  0  0  0
  158.6340  212.6910  152.0330 C   0  0  2  0  0  3  0  0  0  0  0  0
  159.7050  213.8260  150.4270 C   0  0  0  0  0  0  0  0  0  0  0  0
  160.8130  214.4490  149.6550 C   0  0  0  0  0  1  0  0  0  0  0  0
  157.5850  213.2090  151.0410 C   0  0  0  0  0  3  0  0  0  0  0  0
  161.9420  205.4550  151.2500 C   0  0  1  0  0  3  0  0  0  0  0  0
  162.6610  204.7410  152.2130 O   0  0  0  0  0  1  0  0  0  0  0  0
  160.7660  203.4100  150.8250 O   0  0  0  0  0  1  0  0  0  0  0  0
  160.5940  204.7830  151.0080 C   0  0  2  0  0  3  0  0  0  0  0  0
  159.9220  205.3710  149.7740 C   0  0  0  0  0  2  0  0  0  0  0  0
  162.7390  206.8680  147.6020 C   0  0  0  0  0  2  0  0  0  0  0  0
  160.7790  202.0300  145.6860 C   0  0  0  0  0  2  0  0  0  0  0  0
  161.6400  206.6960  148.6240 C   0  0  0  0  0  3  0  0  0  0  0  0
  161.3710  204.4570  145.1820 C   0  0  0  0  0  3  0  0  0  0  0  0
  160.3570  203.3570  145.0550 C   0  0  0  0  0  2  0  0  0  0  0  0
  161.4910  202.1370  147.0380 C   0  0  1  0  0  3  0  0  0  0  0  0
  161.6740  205.0220  146.3550 C   0  0  0  0  0  0  0  0  0  0  0  0
  161.1320  204.5350  147.6460 C   0  0  0  0  0  0  0  0  0  0  0  0
  160.9190  205.5680  148.6770 C   0  0  0  0  0  0  0  0  0  0  0  0
  162.4200  206.2060  146.3720 O   0  0  0  0  0  0  0  0  0  0  0  0
  161.0040  203.2350  147.9420 C   0  0  0  0  0  3  0  0  0  0  0  0
  161.5770  199.7570  147.0910 O   0  0  0  0  0  0  0  0  0  0  0  0
  161.2610  200.7770  149.1240 O   0  0  0  0  0  1  0  0  0  0  0  0
  161.4470  200.8270  147.7460 C   0  0  0  0  0  0  0  0  0  0  0  0
  1  4  1  0  0  0  0
  2  1  2  0  0  0  0
  3  5  1  0  0  0  0
  4  3  3  0  0  0  0
  5  6  1  1  0  0  0
  7 10  1  0  0  0  0
  7  9  1  0  0  0  0
  9 13  2  0  0  0  0
  9  8  1  0  0  0  0
 10  5  1  1  0  0  0
 10 12  1  0  0  0  0
 11  7  2  0  0  0  0
 12  8  2  0  0  0  0
 14 16  1  0  0  0  0
 15 17  1  0  0  0  0
 15 19  2  0  0  0  0
 16 11  1  1  0  0  0
 17 14  2  0  0  0  0
 18 17  1  0  0  0  0
 19 16  1  0  0  0  0
 20  2  1  0  0  0  0
 20 21  1  1  0  0  0
 23 22  1  6  0  0  0
 23 20  1  0  0  0  0
 24 23  1  0  0  0  0
 25 27  1  0  0  0  0
 26 30  1  0  0  0  0
 27 33  2  0  0  0  0
 28 31  2  0  0  0  0
 29 28  1  0  0  0  0
 29 26  1  0  0  0  0
 30 38  1  1  0  0  0
 30 35  1  0  0  0  0
 31 34  1  0  0  0  0
 31 32  1  0  0  0  0
 32 35  2  0  0  0  0
 32 33  1  0  0  0  0
 33 24  1  0  0  0  0
 34 25  1  0  0  0  0
 36 38  2  0  0  0  0
 38 37  1  0  0  0  0
M  END
>  <MODEL>
7

>  <REMARK>
 VINA RESULT:      -6.6      1.980      3.749
  Name = 
  9 active torsions:
  status: ('A' for Active; 'I' for Inactive)
    1  A    between atoms: C_7  and  C_20
    2  A    between atoms: C_7  and  C_21
    3  A    between atoms: C_9  and  C_30
    4  A    between atoms: C_11  and  C_13
    5  A    between atoms: C_11  and  C_35
    6  A    between atoms: C_13  and  C_23
    7  A    between atoms: C_14  and  C_29
    8  A    between atoms: C_17  and  C_23
    9  A    between atoms: C_24  and  C_31
                            x       y       z     vdW  Elec       q    Type
                         _______ _______ _______ _____ _____    ______ ____

>  <TORSDO>
F 9

$$$$
=
 OpenBabel11072412173D

 38 41  0  0  1  0  0  0  0  0999 V2000
  161.9830  210.9490  149.0300 C   0  0  0  0  0  3  0  0  0  0  0  0
  161.8950  211.6460  147.9100 C   0  0  0  0  0  3  0  0  0  0  0  0
  162.2280  208.3220  148.9230 C   0  0  0  0  0  0  0  0  0  0  0  0
  162.1110  209.5200  148.9740 C   0  0  0  0  0  0  0  0  0  0  0  0
  162.3820  206.8650  148.8570 C   0  0  2  0  0  3  0  0  0  0  0  0
  162.8710  206.4990  147.5990 O   0  0  0  0  0  1  0  0  0  0  0  0
  161.2190  205.1310  150.2390 C   0  0  0  0  0  0  0  0  0  0  0  0
  160.4810  203.9610  148.3320 N   0  0  0  0  0  0  0  0  0  0  0  0
  160.8820  203.8490  149.6800 C   0  0  0  0  0  0  0  0  0  0  0  0
  161.0540  206.1630  149.1670 C   0  0  2  0  0  3  0  0  0  0  0  0
  161.5640  205.3380  151.5130 C   0  0  0  0  0  3  0  0  0  0  0  0
  160.5230  205.3680  147.9470 C   0  0  0  0  0  3  0  0  0  0  0  0
  160.9290  202.7520  150.2970 O   0  0  0  0  0  0  0  0  0  0  0  0
  162.1640  206.5850  153.4860 N   0  0  0  0  0  0  0  0  0  0  0  0
  160.3380  207.9370  153.3700 N   0  0  0  0  0  0  0  0  0  0  0  0
  161.8690  206.6940  152.0660 C   0  0  2  0  0  3  0  0  0  0  0  0
  161.3150  207.2820  154.1550 C   0  0  0  0  0  0  0  0  0  0  0  0
  161.3480  207.3710  155.6380 C   0  0  0  0  0  1  0  0  0  0  0  0
  160.6320  207.5970  151.9900 C   0  0  0  0  0  3  0  0  0  0  0  0
  161.7640  213.1340  147.9390 C   0  0  1  0  0  3  0  0  0  0  0  0
  162.4170  213.6770  146.8280 O   0  0  0  0  0  1  0  0  0  0  0  0
  159.9810  214.1660  146.7110 O   0  0  0  0  0  1  0  0  0  0  0  0
  160.2890  213.5230  147.9120 C   0  0  2  0  0  3  0  0  0  0  0  0
  159.9640  214.4530  149.0740 C   0  0  0  0  0  2  0  0  0  0  0  0
  156.1930  213.7180  149.4370 C   0  0  0  0  0  2  0  0  0  0  0  0
  159.0310  213.2110  154.1910 C   0  0  0  0  0  2  0  0  0  0  0  0
  157.5310  214.1750  148.9030 C   0  0  0  0  0  3  0  0  0  0  0  0
  157.0230  214.2170  152.9870 C   0  0  0  0  0  3  0  0  0  0  0  0
  158.1860  214.4530  153.9060 C   0  0  0  0  0  2  0  0  0  0  0  0
  159.2960  212.3010  152.9890 C   0  0  1  0  0  3  0  0  0  0  0  0
  157.1790  213.9290  151.6910 C   0  0  0  0  0  0  0  0  0  0  0  0
  158.5060  213.6980  151.0730 C   0  0  0  0  0  0  0  0  0  0  0  0
  158.6330  214.1120  149.6630 C   0  0  0  0  0  0  0  0  0  0  0  0
  156.0690  213.9820  150.8400 O   0  0  0  0  0  0  0  0  0  0  0  0
  159.4820  213.0040  151.6730 C   0  0  0  0  0  3  0  0  0  0  0  0
  160.8240  211.2130  154.4570 O   0  0  0  0  0  1  0  0  0  0  0  0
  161.1410  210.7960  152.2220 O   0  0  0  0  0  0  0  0  0  0  0  0
  160.4580  211.4100  153.2670 C   0  0  0  0  0  0  0  0  0  0  0  0
  2 20  1  0  0  0  0
  2  1  2  0  0  0  0
  3  4  3  0  0  0  0
  4  1  1  0  0  0  0
  5  6  1  6  0  0  0
  5  3  1  0  0  0  0
  7 11  2  0  0  0  0
  8  9  1  0  0  0  0
  9  7  1  0  0  0  0
  9 13  2  0  0  0  0
 10  5  1  6  0  0  0
 10  7  1  0  0  0  0
 12  8  2  0  0  0  0
 12 10  1  0  0  0  0
 14 17  2  0  0  0  0
 15 17  1  0  0  0  0
 16 11  1  1  0  0  0
 16 14  1  0  0  0  0
 17 18  1  0  0  0  0
 19 16  1  0  0  0  0
 19 15  2  0  0  0  0
 20 21  1  6  0  0  0
 23 22  1  6  0  0  0
 23 20  1  0  0  0  0
 23 24  1  0  0  0  0
 24 33  1  0  0  0  0
 25 34  1  0  0  0  0
 27 25  1  0  0  0  0
 27 33  2  0  0  0  0
 28 29  1  0  0  0  0
 29 26  1  0  0  0  0
 30 38  1  1  0  0  0
 30 26  1  0  0  0  0
 31 28  2  0  0  0  0
 32 35  2  0  0  0  0
 32 31  1  0  0  0  0
 33 32  1  0  0  0  0
 34 31  1  0  0  0  0
 35 30  1  0  0  0  0
 37 38  2  0  0  0  0
 38 36  1  0  0  0  0
M  END
>  <MODEL>
8

>  <REMARK>
 VINA RESULT:      -6.6      3.224      9.546
  Name = 
  9 active torsions:
  status: ('A' for Active; 'I' for Inactive)
    1  A    between atoms: C_7  and  C_20
    2  A    between atoms: C_7  and  C_21
    3  A    between atoms: C_9  and  C_30
    4  A    between atoms: C_11  and  C_13
    5  A    between atoms: C_11  and  C_35
    6  A    between atoms: C_13  and  C_23
    7  A    between atoms: C_14  and  C_29
    8  A    between atoms: C_17  and  C_23
    9  A    between atoms: C_24  and  C_31
                            x       y       z     vdW  Elec       q    Type
                         _______ _______ _______ _____ _____    ______ ____

>  <TORSDO>
F 9

$$$$
=
 OpenBabel11072412173D

 38 41  0  0  1  0  0  0  0  0999 V2000
  160.9440  206.6740  153.5940 C   0  0  0  0  0  3  0  0  0  0  0  0
  161.5140  206.9970  152.4440 C   0  0  0  0  0  3  0  0  0  0  0  0
  160.1090  208.5690  155.2320 C   0  0  0  0  0  0  0  0  0  0  0  0
  160.4900  207.7070  154.4800 C   0  0  0  0  0  0  0  0  0  0  0  0
  159.6460  209.6090  156.1560 C   0  0  2  0  0  3  0  0  0  0  0  0
  158.4130  210.1080  155.7250 O   0  0  0  0  0  1  0  0  0  0  0  0
  161.3820  210.9810  154.9840 C   0  0  0  0  0  0  0  0  0  0  0  0
  163.0670  210.3160  156.4890 N   0  0  0  0  0  0  0  0  0  0  0  0
  162.7830  210.7040  155.1630 C   0  0  0  0  0  0  0  0  0  0  0  0
  160.6880  210.7270  156.2850 C   0  0  2  0  0  3  0  0  0  0  0  0
  160.8360  211.4360  153.8520 C   0  0  0  0  0  3  0  0  0  0  0  0
  161.8290  210.3400  157.2610 C   0  0  0  0  0  3  0  0  0  0  0  0
  163.6620  210.7940  154.2660 O   0  0  0  0  0  0  0  0  0  0  0  0
  159.0180  211.7910  152.3090 N   0  0  0  0  0  0  0  0  0  0  0  0
  158.5620  213.8770  153.0930 N   0  0  0  0  0  0  0  0  0  0  0  0
  159.3790  211.7490  153.7180 C   0  0  2  0  0  3  0  0  0  0  0  0
  158.5730  212.9610  152.0160 C   0  0  0  0  0  0  0  0  0  0  0  0
  158.1230  213.3240  150.6460 C   0  0  0  0  0  1  0  0  0  0  0  0
  159.0810  213.1590  154.2430 C   0  0  0  0  0  3  0  0  0  0  0  0
  161.9940  205.9420  151.5010 C   0  0  1  0  0  3  0  0  0  0  0  0
  163.1210  205.3170  152.0430 O   0  0  0  0  0  1  0  0  0  0  0  0
  161.4440  203.6380  151.1300 O   0  0  0  0  0  1  0  0  0  0  0  0
  160.8910  204.9120  151.2720 C   0  0  2  0  0  3  0  0  0  0  0  0
  160.0970  205.2550  150.0190 C   0  0  0  0  0  2  0  0  0  0  0  0
  162.7520  206.8560  147.7220 C   0  0  0  0  0  2  0  0  0  0  0  0
  160.6920  202.0810  145.7560 C   0  0  0  0  0  2  0  0  0  0  0  0
  161.7260  206.6360  148.8090 C   0  0  0  0  0  3  0  0  0  0  0  0
  161.2360  204.5300  145.3080 C   0  0  0  0  0  3  0  0  0  0  0  0
  160.2210  203.4280  145.2070 C   0  0  0  0  0  2  0  0  0  0  0  0
  161.4940  202.1410  147.0600 C   0  0  1  0  0  3  0  0  0  0  0  0
  161.6150  205.0510  146.4790 C   0  0  0  0  0  0  0  0  0  0  0  0
  161.1640  204.5110  147.7830 C   0  0  0  0  0  0  0  0  0  0  0  0
  161.0160  205.5010  148.8660 C   0  0  0  0  0  0  0  0  0  0  0  0
  162.3550  206.2390  146.4910 O   0  0  0  0  0  0  0  0  0  0  0  0
  161.0630  203.1990  148.0360 C   0  0  0  0  0  3  0  0  0  0  0  0
  161.5830  199.7610  147.0130 O   0  0  0  0  0  0  0  0  0  0  0  0
  161.4240  200.7000  149.1030 O   0  0  0  0  0  1  0  0  0  0  0  0
  161.5030  200.8040  147.7170 C   0  0  0  0  0  0  0  0  0  0  0  0
  1  4  1  0  0  0  0
  2  1  2  0  0  0  0
  3  5  1  0  0  0  0
  4  3  3  0  0  0  0
  5  6  1  6  0  0  0
  7  9  1  0  0  0  0
  7 10  1  0  0  0  0
  8 12  2  0  0  0  0
  9  8  1  0  0  0  0
 10  5  1  6  0  0  0
 10 12  1  0  0  0  0
 11  7  2  0  0  0  0
 13  9  2  0  0  0  0
 14 16  1  0  0  0  0
 15 19  2  0  0  0  0
 16 11  1  6  0  0  0
 16 19  1  0  0  0  0
 17 14  2  0  0  0  0
 17 15  1  0  0  0  0
 18 17  1  0  0  0  0
 20 21  1  1  0  0  0
 20  2  1  0  0  0  0
 23 22  1  6  0  0  0
 23 20  1  0  0  0  0
 24 23  1  0  0  0  0
 25 27  1  0  0  0  0
 26 30  1  0  0  0  0
 27 33  2  0  0  0  0
 28 31  2  0  0  0  0
 29 28  1  0  0  0  0
 29 26  1  0  0  0  0
 30 38  1  1  0  0  0
 30 35  1  0  0  0  0
 31 34  1  0  0  0  0
 31 32  1  0  0  0  0
 32 35  2  0  0  0  0
 32 33  1  0  0  0  0
 33 24  1  0  0  0  0
 34 25  1  0  0  0  0
 36 38  2  0  0  0  0
 38 37  1  0  0  0  0
M  END
>  <MODEL>
9

>  <REMARK>
 VINA RESULT:      -6.5      1.772      3.593
  Name = 
  9 active torsions:
  status: ('A' for Active; 'I' for Inactive)
    1  A    between atoms: C_7  and  C_20
    2  A    between atoms: C_7  and  C_21
    3  A    between atoms: C_9  and  C_30
    4  A    between atoms: C_11  and  C_13
    5  A    between atoms: C_11  and  C_35
    6  A    between atoms: C_13  and  C_23
    7  A    between atoms: C_14  and  C_29
    8  A    between atoms: C_17  and  C_23
    9  A    between atoms: C_24  and  C_31
                            x       y       z     vdW  Elec       q    Type
                         _______ _______ _______ _____ _____    ______ ____

>  <TORSDO>
F 9

$$$$
