=
 OpenBabel11072413473D

 29 32  0  0  1  0  0  0  0  0999 V2000
  161.7520  206.8140  150.6770 C   0  0  2  0  0  3  0  0  0  0  0  0
  160.8910  207.3620  149.5510 C   0  0  0  0  0  1  0  0  0  0  0  0
  161.0250  205.7250  151.3810 N   0  0  0  0  0  0  0  0  0  0  0  0
  160.8420  206.9930  153.4950 C   0  0  0  0  0  2  0  0  0  0  0  0
  162.1610  207.9900  151.5800 C   0  0  0  0  0  2  0  0  0  0  0  0
  161.3640  205.7270  152.8140 C   0  0  0  0  0  2  0  0  0  0  0  0
  161.0890  208.2410  152.6440 C   0  0  2  0  0  3  0  0  0  0  0  0
  161.4150  209.4420  153.5320 C   0  0  1  0  0  3  0  0  0  0  0  0
  162.3790  210.2510  152.9230 O   0  0  0  0  0  1  0  0  0  0  0  0
  159.1750  212.2870  153.5920 C   0  0  0  0  0  2  0  0  0  0  0  0
  158.4150  212.1160  154.8750 C   0  0  0  0  0  0  0  0  0  0  0  0
  160.1650  210.2610  153.8520 C   0  0  2  0  0  3  0  0  0  0  0  0
  157.5500  212.9580  155.2270 O   0  0  0  0  0  0  0  0  0  0  0  0
  160.4220  211.6340  153.6670 O   0  0  0  0  0  0  0  0  0  0  0  0
  159.7240  210.0280  155.3050 C   0  0  0  0  0  2  0  0  0  0  0  0
  158.6280  210.9300  155.6440 N   0  0  0  0  0  2  0  0  0  0  0  0
  161.4420  204.4210  150.8290 C   0  0  1  0  0  3  0  0  0  0  0  0
  161.5630  203.3730  151.9370 C   0  0  0  0  0  2  0  0  0  0  0  0
  161.2060  202.1150  151.4520 O   0  0  0  0  0  1  0  0  0  0  0  0
  160.4400  203.9020  149.7950 C   0  0  0  0  0  2  0  0  0  0  0  0
  161.2210  201.9520  147.8270 S   0  0  0  0  0  0  0  0  0  0  0  0
  161.5330  204.6080  147.6860 C   0  0  0  0  0  2  0  0  0  0  0  0
  161.5210  202.7660  146.2720 C   0  0  2  0  0  3  0  0  0  0  0  0
  161.4230  204.8130  145.2590 N   0  0  0  0  0  2  0  0  0  0  0  0
  160.6610  204.0180  144.6230 N   0  0  0  0  0  0  0  0  0  0  0  0
  162.0730  204.1370  146.3760 C   0  0  1  0  0  3  0  0  0  0  0  0
  160.6930  202.7450  145.2410 C   0  0  0  0  0  0  0  0  0  0  0  0
  161.1060  203.6230  148.4860 C   0  0  1  0  0  3  0  0  0  0  0  0
  159.6590  201.7000  144.9930 C   0  0  0  0  0  1  0  0  0  0  0  0
  1  2  1  6  0  0  0
  1  3  1  0  0  0  0
  1  5  1  0  0  0  0
  3  6  1  0  0  0  0
  5  7  1  0  0  0  0
  6  4  1  0  0  0  0
  7  4  1  0  0  0  0
  7  8  1  1  0  0  0
  8  9  1  6  0  0  0
 10 14  1  0  0  0  0
 10 11  1  0  0  0  0
 11 13  2  0  0  0  0
 11 16  1  0  0  0  0
 12  8  1  1  0  0  0
 12 15  1  0  0  0  0
 14 12  1  0  0  0  0
 15 16  1  0  0  0  0
 17 20  1  6  0  0  0
 17  3  1  0  0  0  0
 17 18  1  0  0  0  0
 19 18  1  0  0  0  0
 21 28  1  0  0  0  0
 22 28  1  0  0  0  0
 23 27  1  1  0  0  0
 23 26  1  0  0  0  0
 23 21  1  0  0  0  0
 24 26  1  0  0  0  0
 25 27  2  0  0  0  0
 25 24  1  0  0  0  0
 26 22  1  1  0  0  0
 28 20  1  6  0  0  0
 29 27  1  0  0  0  0
M  END
>  <MODEL>
1

>  <REMARK>
 VINA RESULT:      -8.1      0.000      0.000
  Name = 
  6 active torsions:
  status: ('A' for Active; 'I' for Inactive)
    1  A    between atoms: C_2  and  C_14
    2  A    between atoms: C_2  and  C_27
    3  A    between atoms: C_8  and  C_20
    4  A    between atoms: C_8  and  C_28
    5  A    between atoms: N_11  and  C_20
    6  A    between atoms: C_17  and  C_20
                            x       y       z     vdW  Elec       q    Type
                         _______ _______ _______ _____ _____    ______ ____

>  <TORSDO>
F 6

$$$$
=
 OpenBabel11072413473D

 29 32  0  0  1  0  0  0  0  0999 V2000
  160.9790  206.8260  152.4060 C   0  0  2  0  0  3  0  0  0  0  0  0
  161.7270  206.2220  153.5830 C   0  0  0  0  0  1  0  0  0  0  0  0
  161.8300  206.7660  151.1870 N   0  0  0  0  0  0  0  0  0  0  0  0
  162.0390  209.2230  151.0160 C   0  0  0  0  0  2  0  0  0  0  0  0
  160.5350  208.2450  152.8000 C   0  0  0  0  0  2  0  0  0  0  0  0
  161.5770  207.9370  150.3310 C   0  0  0  0  0  2  0  0  0  0  0  0
  161.6460  209.2530  152.4950 C   0  0  2  0  0  3  0  0  0  0  0  0
  161.2810  210.6740  152.9270 C   0  0  1  0  0  3  0  0  0  0  0  0
  160.6530  211.3550  151.8810 O   0  0  0  0  0  1  0  0  0  0  0  0
  158.3020  211.1260  154.9350 C   0  0  0  0  0  2  0  0  0  0  0  0
  158.8370  211.4350  156.3020 C   0  0  0  0  0  0  0  0  0  0  0  0
  160.3900  210.6730  154.1680 C   0  0  2  0  0  3  0  0  0  0  0  0
  158.0560  211.6730  157.2600 O   0  0  0  0  0  0  0  0  0  0  0  0
  159.2470  211.4670  153.9460 O   0  0  0  0  0  0  0  0  0  0  0  0
  161.1530  211.2250  155.3810 C   0  0  0  0  0  2  0  0  0  0  0  0
  160.2470  211.3650  156.5180 N   0  0  0  0  0  2  0  0  0  0  0  0
  161.4820  205.5630  150.4060 C   0  0  1  0  0  3  0  0  0  0  0  0
  160.7050  204.5620  151.2650 C   0  0  0  0  0  2  0  0  0  0  0  0
  161.4640  203.4090  151.4660 O   0  0  0  0  0  1  0  0  0  0  0  0
  160.6190  205.9120  149.1900 C   0  0  0  0  0  2  0  0  0  0  0  0
  161.9190  203.8060  147.7210 S   0  0  0  0  0  0  0  0  0  0  0  0
  161.2910  206.2520  146.8300 C   0  0  0  0  0  2  0  0  0  0  0  0
  161.8400  204.1620  145.9780 C   0  0  2  0  0  3  0  0  0  0  0  0
  160.9910  205.6670  144.4810 N   0  0  0  0  0  2  0  0  0  0  0  0
  160.5160  204.5210  144.2040 N   0  0  0  0  0  0  0  0  0  0  0  0
  161.8910  205.6010  145.6280 C   0  0  1  0  0  3  0  0  0  0  0  0
  161.0170  203.5710  145.1290 C   0  0  0  0  0  0  0  0  0  0  0  0
  161.2720  205.4740  147.9190 C   0  0  1  0  0  3  0  0  0  0  0  0
  160.3940  202.2320  145.3280 C   0  0  0  0  0  1  0  0  0  0  0  0
  1  5  1  0  0  0  0
  1  2  1  1  0  0  0
  3  1  1  0  0  0  0
  4  7  1  0  0  0  0
  6  4  1  0  0  0  0
  6  3  1  0  0  0  0
  7  5  1  0  0  0  0
  7  8  1  6  0  0  0
  8  9  1  6  0  0  0
 10 11  1  0  0  0  0
 11 16  1  0  0  0  0
 11 13  2  0  0  0  0
 12  8  1  6  0  0  0
 12 15  1  0  0  0  0
 14 12  1  0  0  0  0
 14 10  1  0  0  0  0
 15 16  1  0  0  0  0
 17 20  1  6  0  0  0
 17  3  1  0  0  0  0
 17 18  1  0  0  0  0
 18 19  1  0  0  0  0
 21 28  1  0  0  0  0
 22 28  1  0  0  0  0
 23 27  1  1  0  0  0
 23 21  1  0  0  0  0
 24 26  1  0  0  0  0
 25 24  1  0  0  0  0
 25 27  2  0  0  0  0
 26 23  1  0  0  0  0
 26 22  1  1  0  0  0
 27 29  1  0  0  0  0
 28 20  1  6  0  0  0
M  END
>  <MODEL>
2

>  <REMARK>
 VINA RESULT:      -7.8      1.388      1.961
  Name = 
  6 active torsions:
  status: ('A' for Active; 'I' for Inactive)
    1  A    between atoms: C_2  and  C_14
    2  A    between atoms: C_2  and  C_27
    3  A    between atoms: C_8  and  C_20
    4  A    between atoms: C_8  and  C_28
    5  A    between atoms: N_11  and  C_20
    6  A    between atoms: C_17  and  C_20
                            x       y       z     vdW  Elec       q    Type
                         _______ _______ _______ _____ _____    ______ ____

>  <TORSDO>
F 6

$$$$
=
 OpenBabel11072413473D

 29 32  0  0  1  0  0  0  0  0999 V2000
  161.8950  206.2660  151.9970 C   0  0  2  0  0  3  0  0  0  0  0  0
  161.1940  205.5240  153.1230 C   0  0  0  0  0  1  0  0  0  0  0  0
  161.0400  207.3880  151.5270 N   0  0  0  0  0  0  0  0  0  0  0  0
  160.6830  206.3940  149.2920 C   0  0  0  0  0  2  0  0  0  0  0  0
  162.2580  205.2450  150.9060 C   0  0  0  0  0  2  0  0  0  0  0  0
  161.2150  207.5920  150.0800 C   0  0  0  0  0  2  0  0  0  0  0  0
  161.0860  205.0650  149.9370 C   0  0  2  0  0  3  0  0  0  0  0  0
  161.3700  204.0110  148.8660 C   0  0  1  0  0  3  0  0  0  0  0  0
  160.5170  202.9150  149.0230 O   0  0  0  0  0  1  0  0  0  0  0  0
  160.6780  204.0970  145.3120 C   0  0  0  0  0  2  0  0  0  0  0  0
  161.5940  205.1680  144.7970 C   0  0  0  0  0  0  0  0  0  0  0  0
  161.2330  204.5890  147.4580 C   0  0  2  0  0  3  0  0  0  0  0  0
  161.6280  205.4500  143.5710 O   0  0  0  0  0  0  0  0  0  0  0  0
  161.1850  203.5490  146.5080 O   0  0  0  0  0  0  0  0  0  0  0  0
  162.4220  205.5060  147.1330 C   0  0  0  0  0  2  0  0  0  0  0  0
  162.3610  205.9240  145.7350 N   0  0  0  0  0  2  0  0  0  0  0  0
  161.4520  208.6340  152.2030 C   0  0  1  0  0  3  0  0  0  0  0  0
  162.3410  209.4810  151.2900 C   0  0  0  0  0  2  0  0  0  0  0  0
  161.7370  210.7120  151.0350 O   0  0  0  0  0  1  0  0  0  0  0  0
  160.2410  209.4830  152.6030 C   0  0  0  0  0  2  0  0  0  0  0  0
  161.2240  208.7160  155.1970 S   0  0  0  0  0  0  0  0  0  0  0  0
  159.4210  210.6170  154.6470 C   0  0  0  0  0  2  0  0  0  0  0  0
  160.8330  209.9890  156.3800 C   0  0  2  0  0  3  0  0  0  0  0  0
  159.8960  212.0670  156.5490 N   0  0  0  0  0  2  0  0  0  0  0  0
  161.0950  212.1370  156.9660 N   0  0  0  0  0  0  0  0  0  0  0  0
  159.5630  210.7100  156.1300 C   0  0  1  0  0  3  0  0  0  0  0  0
  161.7040  210.8630  156.8570 C   0  0  0  0  0  0  0  0  0  0  0  0
  160.1710  209.6620  154.0860 C   0  0  1  0  0  3  0  0  0  0  0  0
  163.1800  210.6660  156.9010 C   0  0  0  0  0  1  0  0  0  0  0  0
  1  2  1  1  0  0  0
  3  1  1  0  0  0  0
  3 17  1  0  0  0  0
  4  7  1  0  0  0  0
  4  6  1  0  0  0  0
  5  1  1  0  0  0  0
  6  3  1  0  0  0  0
  7  8  1  6  0  0  0
  7  5  1  0  0  0  0
  8  9  1  6  0  0  0
 10 14  1  0  0  0  0
 11 10  1  0  0  0  0
 11 16  1  0  0  0  0
 12  8  1  1  0  0  0
 13 11  2  0  0  0  0
 14 12  1  0  0  0  0
 15 12  1  0  0  0  0
 16 15  1  0  0  0  0
 17 18  1  6  0  0  0
 17 20  1  0  0  0  0
 19 18  1  0  0  0  0
 23 21  1  6  0  0  0
 23 27  1  0  0  0  0
 24 25  1  0  0  0  0
 26 22  1  6  0  0  0
 26 23  1  0  0  0  0
 26 24  1  0  0  0  0
 27 29  1  0  0  0  0
 27 25  2  0  0  0  0
 28 20  1  6  0  0  0
 28 22  1  0  0  0  0
 28 21  1  0  0  0  0
M  END
>  <MODEL>
3

>  <REMARK>
 VINA RESULT:      -7.2      3.078      9.640
  Name = 
  6 active torsions:
  status: ('A' for Active; 'I' for Inactive)
    1  A    between atoms: C_2  and  C_14
    2  A    between atoms: C_2  and  C_27
    3  A    between atoms: C_8  and  C_20
    4  A    between atoms: C_8  and  C_28
    5  A    between atoms: N_11  and  C_20
    6  A    between atoms: C_17  and  C_20
                            x       y       z     vdW  Elec       q    Type
                         _______ _______ _______ _____ _____    ______ ____

>  <TORSDO>
F 6

$$$$
=
 OpenBabel11072413473D

 29 32  0  0  1  0  0  0  0  0999 V2000
  161.1070  207.8040  154.8300 C   0  0  2  0  0  3  0  0  0  0  0  0
  160.0100  206.8830  155.3380 C   0  0  0  0  0  1  0  0  0  0  0  0
  160.5660  209.1780  154.6510 N   0  0  0  0  0  0  0  0  0  0  0  0
  160.8500  209.1440  152.1960 C   0  0  0  0  0  2  0  0  0  0  0  0
  161.6970  207.1840  153.5520 C   0  0  0  0  0  2  0  0  0  0  0  0
  161.2180  209.8380  153.5080 C   0  0  0  0  0  2  0  0  0  0  0  0
  160.8880  207.6200  152.3280 C   0  0  2  0  0  3  0  0  0  0  0  0
  161.3940  206.9790  151.0340 C   0  0  1  0  0  3  0  0  0  0  0  0
  162.7870  207.0700  150.9580 O   0  0  0  0  0  1  0  0  0  0  0  0
  161.1940  203.4480  151.8130 C   0  0  0  0  0  2  0  0  0  0  0  0
  160.8920  202.8080  150.4900 C   0  0  0  0  0  0  0  0  0  0  0  0
  160.9530  205.5210  150.9190 C   0  0  2  0  0  3  0  0  0  0  0  0
  160.7750  201.5590  150.3920 O   0  0  0  0  0  0  0  0  0  0  0  0
  161.8420  204.6870  151.6260 O   0  0  0  0  0  0  0  0  0  0  0  0
  160.9200  205.0820  149.4480 C   0  0  0  0  0  2  0  0  0  0  0  0
  160.6500  203.6500  149.3610 N   0  0  0  0  0  2  0  0  0  0  0  0
  160.8610  209.9810  155.8540 C   0  0  1  0  0  3  0  0  0  0  0  0
  162.2490  209.6480  156.4050 C   0  0  0  0  0  2  0  0  0  0  0  0
  163.0930  210.7520  156.2870 O   0  0  0  0  0  1  0  0  0  0  0  0
  160.8200  211.4820  155.5510 C   0  0  0  0  0  2  0  0  0  0  0  0
  159.0520  213.7460  155.3840 S   0  0  0  0  0  0  0  0  0  0  0  0
  158.4770  211.3110  156.3380 C   0  0  0  0  0  2  0  0  0  0  0  0
  157.3680  213.1980  155.5630 C   0  0  2  0  0  3  0  0  0  0  0  0
  156.1000  211.3090  155.7940 N   0  0  0  0  0  2  0  0  0  0  0  0
  155.7250  211.9120  154.7390 N   0  0  0  0  0  0  0  0  0  0  0  0
  157.1770  212.0340  156.4600 C   0  0  1  0  0  3  0  0  0  0  0  0
  156.5070  213.0810  154.5660 C   0  0  0  0  0  0  0  0  0  0  0  0
  159.4720  212.0570  155.8420 C   0  0  1  0  0  3  0  0  0  0  0  0
  156.5920  213.8100  153.2690 C   0  0  0  0  0  1  0  0  0  0  0  0
  1  2  1  6  0  0  0
  3  1  1  0  0  0  0
  3 17  1  0  0  0  0
  4  7  1  0  0  0  0
  4  6  1  0  0  0  0
  5  1  1  0  0  0  0
  6  3  1  0  0  0  0
  7  8  1  6  0  0  0
  7  5  1  0  0  0  0
  8  9  1  1  0  0  0
 11 10  1  0  0  0  0
 12  8  1  6  0  0  0
 12 14  1  0  0  0  0
 13 11  2  0  0  0  0
 14 10  1  0  0  0  0
 15 12  1  0  0  0  0
 16 15  1  0  0  0  0
 16 11  1  0  0  0  0
 17 20  1  6  0  0  0
 17 18  1  0  0  0  0
 19 18  1  0  0  0  0
 21 23  1  0  0  0  0
 21 28  1  0  0  0  0
 23 27  1  6  0  0  0
 23 26  1  0  0  0  0
 24 26  1  0  0  0  0
 25 24  1  0  0  0  0
 26 22  1  6  0  0  0
 27 25  2  0  0  0  0
 28 20  1  6  0  0  0
 28 22  1  0  0  0  0
 29 27  1  0  0  0  0
M  END
>  <MODEL>
4

>  <REMARK>
 VINA RESULT:      -7.1      3.875      9.665
  Name = 
  6 active torsions:
  status: ('A' for Active; 'I' for Inactive)
    1  A    between atoms: C_2  and  C_14
    2  A    between atoms: C_2  and  C_27
    3  A    between atoms: C_8  and  C_20
    4  A    between atoms: C_8  and  C_28
    5  A    between atoms: N_11  and  C_20
    6  A    between atoms: C_17  and  C_20
                            x       y       z     vdW  Elec       q    Type
                         _______ _______ _______ _____ _____    ______ ____

>  <TORSDO>
F 6

$$$$
=
 OpenBabel11072413473D

 29 32  0  0  1  0  0  0  0  0999 V2000
  161.3960  208.7890  152.7720 C   0  0  2  0  0  3  0  0  0  0  0  0
  160.4550  209.8090  152.1540 C   0  0  0  0  0  1  0  0  0  0  0  0
  160.8330  207.4230  152.6100 N   0  0  0  0  0  0  0  0  0  0  0  0
  160.5050  207.0930  155.0370 C   0  0  0  0  0  2  0  0  0  0  0  0
  161.6520  209.2000  154.2330 C   0  0  0  0  0  2  0  0  0  0  0  0
  161.1860  206.5840  153.7670 C   0  0  0  0  0  2  0  0  0  0  0  0
  160.5690  208.6190  155.1450 C   0  0  2  0  0  3  0  0  0  0  0  0
  160.7390  209.0490  156.6030 C   0  0  1  0  0  3  0  0  0  0  0  0
  162.0910  209.2430  156.8990 O   0  0  0  0  0  1  0  0  0  0  0  0
  158.0350  211.4520  156.4390 C   0  0  0  0  0  2  0  0  0  0  0  0
  158.7040  212.7620  156.7370 C   0  0  0  0  0  0  0  0  0  0  0  0
  159.9430  210.3160  156.9110 C   0  0  2  0  0  3  0  0  0  0  0  0
  158.0450  213.8340  156.7420 O   0  0  0  0  0  0  0  0  0  0  0  0
  158.9660  210.5310  155.9180 O   0  0  0  0  0  0  0  0  0  0  0  0
  160.8720  211.5370  156.9680 C   0  0  0  0  0  2  0  0  0  0  0  0
  160.0840  212.7580  157.1060 N   0  0  0  0  0  2  0  0  0  0  0  0
  161.4180  206.7920  151.4100 C   0  0  1  0  0  3  0  0  0  0  0  0
  162.6140  207.5990  150.8980 C   0  0  0  0  0  2  0  0  0  0  0  0
  162.4140  207.9650  149.5670 O   0  0  0  0  0  1  0  0  0  0  0  0
  161.8990  205.3680  151.7020 C   0  0  0  0  0  2  0  0  0  0  0  0
  160.4550  204.7970  149.2780 S   0  0  0  0  0  0  0  0  0  0  0  0
  161.0840  203.0760  151.2310 C   0  0  0  0  0  2  0  0  0  0  0  0
  160.4300  203.0380  149.0030 C   0  0  2  0  0  3  0  0  0  0  0  0
  161.2170  201.0670  149.8550 N   0  0  0  0  0  2  0  0  0  0  0  0
  161.6440  201.1830  148.6630 N   0  0  0  0  0  0  0  0  0  0  0  0
  160.3920  202.2100  150.2310 C   0  0  1  0  0  3  0  0  0  0  0  0
  161.1820  202.4060  148.1170 C   0  0  0  0  0  0  0  0  0  0  0  0
  161.1550  204.3650  150.8790 C   0  0  1  0  0  3  0  0  0  0  0  0
  161.7840  203.0280  146.9040 C   0  0  0  0  0  1  0  0  0  0  0  0
  1  2  1  1  0  0  0
  1  5  1  0  0  0  0
  3  1  1  0  0  0  0
  3  6  1  0  0  0  0
  4  7  1  0  0  0  0
  5  7  1  0  0  0  0
  6  4  1  0  0  0  0
  7  8  1  1  0  0  0
  8  9  1  6  0  0  0
 10 11  1  0  0  0  0
 11 13  2  0  0  0  0
 11 16  1  0  0  0  0
 12  8  1  6  0  0  0
 12 15  1  0  0  0  0
 14 10  1  0  0  0  0
 14 12  1  0  0  0  0
 15 16  1  0  0  0  0
 17 18  1  1  0  0  0
 17 20  1  0  0  0  0
 17  3  1  0  0  0  0
 19 18  1  0  0  0  0
 21 28  1  0  0  0  0
 23 27  1  1  0  0  0
 23 21  1  0  0  0  0
 23 26  1  0  0  0  0
 24 26  1  0  0  0  0
 25 24  1  0  0  0  0
 26 22  1  1  0  0  0
 27 25  2  0  0  0  0
 28 22  1  0  0  0  0
 28 20  1  6  0  0  0
 29 27  1  0  0  0  0
M  END
>  <MODEL>
5

>  <REMARK>
 VINA RESULT:      -6.9      2.562      3.404
  Name = 
  6 active torsions:
  status: ('A' for Active; 'I' for Inactive)
    1  A    between atoms: C_2  and  C_14
    2  A    between atoms: C_2  and  C_27
    3  A    between atoms: C_8  and  C_20
    4  A    between atoms: C_8  and  C_28
    5  A    between atoms: N_11  and  C_20
    6  A    between atoms: C_17  and  C_20
                            x       y       z     vdW  Elec       q    Type
                         _______ _______ _______ _____ _____    ______ ____

>  <TORSDO>
F 6

$$$$
=
 OpenBabel11072413473D

 29 32  0  0  1  0  0  0  0  0999 V2000
  160.8890  208.1230  151.8940 C   0  0  2  0  0  3  0  0  0  0  0  0
  161.9130  209.0100  151.2060 C   0  0  0  0  0  1  0  0  0  0  0  0
  161.3860  207.7330  153.2400 N   0  0  0  0  0  0  0  0  0  0  0  0
  161.5750  205.3390  152.6550 C   0  0  0  0  0  2  0  0  0  0  0  0
  160.5830  206.9370  150.9620 C   0  0  0  0  0  2  0  0  0  0  0  0
  160.9310  206.3740  153.5780 C   0  0  0  0  0  2  0  0  0  0  0  0
  161.5870  205.8050  151.1970 C   0  0  2  0  0  3  0  0  0  0  0  0
  161.3680  204.6230  150.2510 C   0  0  1  0  0  3  0  0  0  0  0  0
  160.1040  204.0630  150.4560 O   0  0  0  0  0  1  0  0  0  0  0  0
  160.8440  206.5060  147.2020 C   0  0  0  0  0  2  0  0  0  0  0  0
  161.1080  205.5050  146.1160 C   0  0  0  0  0  0  0  0  0  0  0  0
  161.5330  205.0350  148.7890 C   0  0  2  0  0  3  0  0  0  0  0  0
  160.9940  205.8260  144.9050 O   0  0  0  0  0  0  0  0  0  0  0  0
  160.4560  205.8530  148.3900 O   0  0  0  0  0  0  0  0  0  0  0  0
  161.5820  203.7980  147.8820 C   0  0  0  0  0  2  0  0  0  0  0  0
  161.5810  204.2070  146.4800 N   0  0  0  0  0  2  0  0  0  0  0  0
  160.8280  208.6510  154.2520 C   0  0  1  0  0  3  0  0  0  0  0  0
  160.8160  207.9960  155.6350 C   0  0  0  0  0  2  0  0  0  0  0  0
  161.9560  208.3600  156.3510 O   0  0  0  0  0  1  0  0  0  0  0  0
  161.6450  209.9430  154.3480 C   0  0  0  0  0  2  0  0  0  0  0  0
  159.5070  211.5910  153.3490 S   0  0  0  0  0  0  0  0  0  0  0  0
  160.7680  211.8250  155.7000 C   0  0  0  0  0  2  0  0  0  0  0  0
  158.7920  212.5140  154.6930 C   0  0  2  0  0  3  0  0  0  0  0  0
  158.9160  212.7910  156.9590 N   0  0  0  0  0  2  0  0  0  0  0  0
  157.7350  212.4210  156.6680 N   0  0  0  0  0  0  0  0  0  0  0  0
  159.7410  212.9070  155.7610 C   0  0  1  0  0  3  0  0  0  0  0  0
  157.6360  212.2280  155.2680 C   0  0  0  0  0  0  0  0  0  0  0  0
  160.7600  211.1300  154.5560 C   0  0  1  0  0  3  0  0  0  0  0  0
  156.5320  211.4530  154.6360 C   0  0  0  0  0  1  0  0  0  0  0  0
  1  2  1  6  0  0  0
  1  3  1  0  0  0  0
  3  6  1  0  0  0  0
  3 17  1  0  0  0  0
  4  6  1  0  0  0  0
  5  7  1  0  0  0  0
  5  1  1  0  0  0  0
  7  8  1  6  0  0  0
  7  4  1  0  0  0  0
  8  9  1  6  0  0  0
 10 14  1  0  0  0  0
 11 16  1  0  0  0  0
 11 10  1  0  0  0  0
 12  8  1  1  0  0  0
 13 11  2  0  0  0  0
 14 12  1  0  0  0  0
 15 12  1  0  0  0  0
 16 15  1  0  0  0  0
 17 20  1  1  0  0  0
 17 18  1  0  0  0  0
 18 19  1  0  0  0  0
 21 28  1  0  0  0  0
 23 21  1  1  0  0  0
 23 27  1  0  0  0  0
 23 26  1  0  0  0  0
 25 24  1  0  0  0  0
 26 22  1  1  0  0  0
 26 24  1  0  0  0  0
 27 25  2  0  0  0  0
 28 20  1  1  0  0  0
 28 22  1  0  0  0  0
 29 27  1  0  0  0  0
M  END
>  <MODEL>
6

>  <REMARK>
 VINA RESULT:      -6.8      3.132      9.361
  Name = 
  6 active torsions:
  status: ('A' for Active; 'I' for Inactive)
    1  A    between atoms: C_2  and  C_14
    2  A    between atoms: C_2  and  C_27
    3  A    between atoms: C_8  and  C_20
    4  A    between atoms: C_8  and  C_28
    5  A    between atoms: N_11  and  C_20
    6  A    between atoms: C_17  and  C_20
                            x       y       z     vdW  Elec       q    Type
                         _______ _______ _______ _____ _____    ______ ____

>  <TORSDO>
F 6

$$$$
=
 OpenBabel11072413473D

 29 32  0  0  1  0  0  0  0  0999 V2000
  161.2120  207.6680  149.9330 C   0  0  2  0  0  3  0  0  0  0  0  0
  161.8030  207.8090  148.5400 C   0  0  0  0  0  1  0  0  0  0  0  0
  162.2400  208.0130  150.9520 N   0  0  0  0  0  0  0  0  0  0  0  0
  162.3440  205.7170  151.8610 C   0  0  0  0  0  2  0  0  0  0  0  0
  160.6400  206.2460  150.0670 C   0  0  0  0  0  2  0  0  0  0  0  0
  162.0590  207.1900  152.1590 C   0  0  0  0  0  2  0  0  0  0  0  0
  161.7300  205.2760  150.5300 C   0  0  2  0  0  3  0  0  0  0  0  0
  161.2310  203.8340  150.6180 C   0  0  1  0  0  3  0  0  0  0  0  0
  160.1460  203.7470  151.4960 O   0  0  0  0  0  1  0  0  0  0  0  0
  160.3360  201.3980  148.0920 C   0  0  0  0  0  2  0  0  0  0  0  0
  160.8560  201.9990  146.8180 C   0  0  0  0  0  0  0  0  0  0  0  0
  160.8440  203.2870  149.2450 C   0  0  2  0  0  3  0  0  0  0  0  0
  160.7300  201.3920  145.7240 O   0  0  0  0  0  0  0  0  0  0  0  0
  161.0540  201.8940  149.1990 O   0  0  0  0  0  0  0  0  0  0  0  0
  161.6810  203.9530  148.1430 C   0  0  0  0  0  2  0  0  0  0  0  0
  161.4140  203.3130  146.8580 N   0  0  0  0  0  2  0  0  0  0  0  0
  162.0770  209.4250  151.3510 C   0  0  1  0  0  3  0  0  0  0  0  0
  162.1810  210.3500  150.1360 C   0  0  0  0  0  2  0  0  0  0  0  0
  161.3400  211.4520  150.2960 O   0  0  0  0  0  1  0  0  0  0  0  0
  160.7200  209.6690  152.0160 C   0  0  0  0  0  2  0  0  0  0  0  0
  159.8480  211.9370  153.5580 S   0  0  0  0  0  0  0  0  0  0  0  0
  161.6590  210.0960  154.2680 C   0  0  0  0  0  2  0  0  0  0  0  0
  160.3200  211.7130  155.2610 C   0  0  2  0  0  3  0  0  0  0  0  0
  161.3030  210.2130  156.6780 N   0  0  0  0  0  2  0  0  0  0  0  0
  160.1260  210.4460  157.1000 N   0  0  0  0  0  0  0  0  0  0  0  0
  161.5890  210.9790  155.4700 C   0  0  1  0  0  3  0  0  0  0  0  0
  159.4900  211.3630  156.2290 C   0  0  0  0  0  0  0  0  0  0  0  0
  160.8640  210.4810  153.2620 C   0  0  1  0  0  3  0  0  0  0  0  0
  158.0140  211.5660  156.2090 C   0  0  0  0  0  1  0  0  0  0  0  0
  1  2  1  6  0  0  0
  1  5  1  0  0  0  0
  1  3  1  0  0  0  0
  3 17  1  0  0  0  0
  3  6  1  0  0  0  0
  4  6  1  0  0  0  0
  5  7  1  0  0  0  0
  7  8  1  1  0  0  0
  7  4  1  0  0  0  0
  8  9  1  1  0  0  0
 10 14  1  0  0  0  0
 11 16  1  0  0  0  0
 11 10  1  0  0  0  0
 12  8  1  1  0  0  0
 13 11  2  0  0  0  0
 14 12  1  0  0  0  0
 15 12  1  0  0  0  0
 16 15  1  0  0  0  0
 17 18  1  6  0  0  0
 17 20  1  0  0  0  0
 18 19  1  0  0  0  0
 23 21  1  6  0  0  0
 23 26  1  0  0  0  0
 23 27  1  0  0  0  0
 24 25  1  0  0  0  0
 26 22  1  6  0  0  0
 26 24  1  0  0  0  0
 27 25  2  0  0  0  0
 28 20  1  1  0  0  0
 28 21  1  0  0  0  0
 28 22  1  0  0  0  0
 29 27  1  0  0  0  0
M  END
>  <MODEL>
7

>  <REMARK>
 VINA RESULT:      -6.8      3.005      9.582
  Name = 
  6 active torsions:
  status: ('A' for Active; 'I' for Inactive)
    1  A    between atoms: C_2  and  C_14
    2  A    between atoms: C_2  and  C_27
    3  A    between atoms: C_8  and  C_20
    4  A    between atoms: C_8  and  C_28
    5  A    between atoms: N_11  and  C_20
    6  A    between atoms: C_17  and  C_20
                            x       y       z     vdW  Elec       q    Type
                         _______ _______ _______ _____ _____    ______ ____

>  <TORSDO>
F 6

$$$$
=
 OpenBabel11072413473D

 29 32  0  0  1  0  0  0  0  0999 V2000
  161.5700  206.7210  150.0110 C   0  0  2  0  0  3  0  0  0  0  0  0
  160.5410  206.9910  148.9260 C   0  0  0  0  0  1  0  0  0  0  0  0
  161.0380  205.7170  150.9690 N   0  0  0  0  0  0  0  0  0  0  0  0
  160.9570  207.3170  152.8520 C   0  0  0  0  0  2  0  0  0  0  0  0
  161.9530  208.0670  150.6500 C   0  0  0  0  0  2  0  0  0  0  0  0
  161.5280  205.9980  152.3290 C   0  0  0  0  0  2  0  0  0  0  0  0
  160.9820  208.4120  151.7830 C   0  0  2  0  0  3  0  0  0  0  0  0
  161.2790  209.7730  152.4130 C   0  0  1  0  0  3  0  0  0  0  0  0
  162.6590  209.9740  152.5120 O   0  0  0  0  0  1  0  0  0  0  0  0
  160.8740  212.2620  149.8140 C   0  0  0  0  0  2  0  0  0  0  0  0
  160.0810  213.3480  150.4810 C   0  0  0  0  0  0  0  0  0  0  0  0
  160.6350  210.9110  151.6230 C   0  0  2  0  0  3  0  0  0  0  0  0
  159.7740  214.3960  149.8560 O   0  0  0  0  0  0  0  0  0  0  0  0
  161.5850  211.5110  150.7730 O   0  0  0  0  0  0  0  0  0  0  0  0
  160.0720  211.9780  152.5740 C   0  0  0  0  0  2  0  0  0  0  0  0
  159.6020  213.1290  151.8090 N   0  0  0  0  0  2  0  0  0  0  0  0
  161.5230  204.3750  150.5920 C   0  0  1  0  0  3  0  0  0  0  0  0
  161.7680  203.5140  151.8340 C   0  0  0  0  0  2  0  0  0  0  0  0
  160.8870  202.4320  151.8510 O   0  0  0  0  0  1  0  0  0  0  0  0
  160.5160  203.6430  149.7000 C   0  0  0  0  0  2  0  0  0  0  0  0
  161.0440  201.7020  147.6420 S   0  0  0  0  0  0  0  0  0  0  0  0
  161.5580  204.3290  147.5600 C   0  0  0  0  0  2  0  0  0  0  0  0
  161.3330  202.5390  146.0970 C   0  0  2  0  0  3  0  0  0  0  0  0
  161.3470  204.6190  145.1480 N   0  0  0  0  0  2  0  0  0  0  0  0
  160.4950  203.9060  144.5290 N   0  0  0  0  0  0  0  0  0  0  0  0
  161.9950  203.8590  146.2120 C   0  0  1  0  0  3  0  0  0  0  0  0
  160.4560  202.6140  145.1100 C   0  0  0  0  0  0  0  0  0  0  0  0
  161.0940  203.3550  148.3520 C   0  0  1  0  0  3  0  0  0  0  0  0
  159.3320  201.6620  144.8860 C   0  0  0  0  0  1  0  0  0  0  0  0
  1  2  1  6  0  0  0
  1  5  1  0  0  0  0
  1  3  1  0  0  0  0
  3  6  1  0  0  0  0
  5  7  1  0  0  0  0
  6  4  1  0  0  0  0
  7  8  1  1  0  0  0
  7  4  1  0  0  0  0
  8  9  1  6  0  0  0
 10 11  1  0  0  0  0
 10 14  1  0  0  0  0
 11 16  1  0  0  0  0
 12  8  1  1  0  0  0
 12 15  1  0  0  0  0
 13 11  2  0  0  0  0
 14 12  1  0  0  0  0
 16 15  1  0  0  0  0
 17 20  1  6  0  0  0
 17  3  1  0  0  0  0
 17 18  1  0  0  0  0
 18 19  1  0  0  0  0
 21 28  1  0  0  0  0
 22 28  1  0  0  0  0
 23 27  1  1  0  0  0
 23 26  1  0  0  0  0
 23 21  1  0  0  0  0
 24 26  1  0  0  0  0
 25 27  2  0  0  0  0
 25 24  1  0  0  0  0
 26 22  1  1  0  0  0
 28 20  1  6  0  0  0
 29 27  1  0  0  0  0
M  END
>  <MODEL>
8

>  <REMARK>
 VINA RESULT:      -6.8      1.828      2.124
  Name = 
  6 active torsions:
  status: ('A' for Active; 'I' for Inactive)
    1  A    between atoms: C_2  and  C_14
    2  A    between atoms: C_2  and  C_27
    3  A    between atoms: C_8  and  C_20
    4  A    between atoms: C_8  and  C_28
    5  A    between atoms: N_11  and  C_20
    6  A    between atoms: C_17  and  C_20
                            x       y       z     vdW  Elec       q    Type
                         _______ _______ _______ _____ _____    ______ ____

>  <TORSDO>
F 6

$$$$
=
 OpenBabel11072413473D

 29 32  0  0  1  0  0  0  0  0999 V2000
  160.7450  207.2310  151.1320 C   0  0  2  0  0  3  0  0  0  0  0  0
  161.5820  208.2940  150.4390 C   0  0  0  0  0  1  0  0  0  0  0  0
  161.4070  206.8150  152.3970 N   0  0  0  0  0  0  0  0  0  0  0  0
  161.8410  204.5150  151.6020 C   0  0  0  0  0  2  0  0  0  0  0  0
  160.5070  206.0850  150.1340 C   0  0  0  0  0  2  0  0  0  0  0  0
  161.1590  205.3880  152.6570 C   0  0  0  0  0  2  0  0  0  0  0  0
  161.6620  205.0830  150.1910 C   0  0  2  0  0  3  0  0  0  0  0  0
  161.5080  203.9530  149.1720 C   0  0  1  0  0  3  0  0  0  0  0  0
  160.4620  203.1030  149.5410 O   0  0  0  0  0  1  0  0  0  0  0  0
  160.9840  203.9080  145.5890 C   0  0  0  0  0  2  0  0  0  0  0  0
  161.5770  205.2070  145.1260 C   0  0  0  0  0  0  0  0  0  0  0  0
  161.2760  204.4960  147.7630 C   0  0  2  0  0  3  0  0  0  0  0  0
  161.5830  205.5110  143.9050 O   0  0  0  0  0  0  0  0  0  0  0  0
  161.5720  203.5040  146.8060 O   0  0  0  0  0  0  0  0  0  0  0  0
  162.1650  205.7210  147.5020 C   0  0  0  0  0  2  0  0  0  0  0  0
  162.0500  206.1320  146.1060 N   0  0  0  0  0  2  0  0  0  0  0  0
  160.8330  207.5770  153.5230 C   0  0  1  0  0  3  0  0  0  0  0  0
  161.2480  206.9650  154.8630 C   0  0  0  0  0  2  0  0  0  0  0  0
  161.5900  207.9710  155.7670 O   0  0  0  0  0  1  0  0  0  0  0  0
  161.2950  209.0370  153.5070 C   0  0  0  0  0  2  0  0  0  0  0  0
  159.3350  210.3680  155.1420 S   0  0  0  0  0  0  0  0  0  0  0  0
  159.7120  210.6600  152.5070 C   0  0  0  0  0  2  0  0  0  0  0  0
  158.6930  211.7800  154.2680 C   0  0  2  0  0  3  0  0  0  0  0  0
  158.9390  212.9660  152.3290 N   0  0  0  0  0  2  0  0  0  0  0  0
  159.1610  213.7500  153.3050 N   0  0  0  0  0  0  0  0  0  0  0  0
  158.6090  211.6240  152.7970 C   0  0  1  0  0  3  0  0  0  0  0  0
  159.0290  213.0340  154.5200 C   0  0  0  0  0  0  0  0  0  0  0  0
  160.1320  209.9740  153.5770 C   0  0  1  0  0  3  0  0  0  0  0  0
  159.5720  213.5330  155.8150 C   0  0  0  0  0  1  0  0  0  0  0  0
  1  2  1  6  0  0  0
  1  3  1  0  0  0  0
  3  6  1  0  0  0  0
  3 17  1  0  0  0  0
  4  6  1  0  0  0  0
  5  7  1  0  0  0  0
  5  1  1  0  0  0  0
  7  8  1  6  0  0  0
  7  4  1  0  0  0  0
  8  9  1  1  0  0  0
 10 14  1  0  0  0  0
 11 10  1  0  0  0  0
 11 16  1  0  0  0  0
 12  8  1  1  0  0  0
 13 11  2  0  0  0  0
 14 12  1  0  0  0  0
 15 12  1  0  0  0  0
 16 15  1  0  0  0  0
 17 20  1  1  0  0  0
 17 18  1  0  0  0  0
 18 19  1  0  0  0  0
 22 28  1  0  0  0  0
 23 27  1  6  0  0  0
 23 21  1  0  0  0  0
 24 26  1  0  0  0  0
 24 25  1  0  0  0  0
 25 27  2  0  0  0  0
 26 22  1  6  0  0  0
 26 23  1  0  0  0  0
 27 29  1  0  0  0  0
 28 20  1  1  0  0  0
 28 21  1  0  0  0  0
M  END
>  <MODEL>
9

>  <REMARK>
 VINA RESULT:      -6.6      3.216      9.182
  Name = 
  6 active torsions:
  status: ('A' for Active; 'I' for Inactive)
    1  A    between atoms: C_2  and  C_14
    2  A    between atoms: C_2  and  C_27
    3  A    between atoms: C_8  and  C_20
    4  A    between atoms: C_8  and  C_28
    5  A    between atoms: N_11  and  C_20
    6  A    between atoms: C_17  and  C_20
                            x       y       z     vdW  Elec       q    Type
                         _______ _______ _______ _____ _____    ______ ____

>  <TORSDO>
F 6

$$$$
