=
 OpenBabel11072413473D

 29 33  0  0  1  0  0  0  0  0999 V2000
  160.2230  212.6080  157.2600 C   0  0  0  0  0  2  0  0  0  0  0  0
  161.1070  207.6510  153.7000 C   0  0  0  0  0  0  0  0  0  0  0  0
  159.0060  212.8290  156.0220 S   0  0  0  0  0  0  0  0  0  0  0  0
  159.5550  213.5590  154.8290 O   0  0  0  0  0  0  0  0  0  0  0  0
  157.7860  213.5190  156.5640 O   0  0  0  0  0  0  0  0  0  0  0  0
  160.6820  211.1730  157.0680 C   0  0  0  0  0  2  0  0  0  0  0  0
  160.4290  208.7810  153.3760 C   0  0  0  0  0  0  0  0  0  0  0  0
  160.0690  209.0380  152.0930 F   0  0  0  0  0  0  0  0  0  0  0  0
  161.5380  207.3740  155.1440 C   0  0  0  0  0  2  0  0  0  0  0  0
  160.2550  209.8630  154.3950 C   0  0  1  0  0  3  0  0  0  0  0  0
  159.5590  210.3270  156.6140 N   0  0  2  0  0  0  0  0  0  0  0  0
  159.0370  210.7360  154.2550 C   0  0  0  0  0  2  0  0  0  0  0  0
  160.0410  209.2590  155.7420 C   0  0  2  0  0  3  0  0  0  0  0  0
  161.3030  208.5160  156.1500 C   0  0  0  0  0  2  0  0  0  0  0  0
  158.7030  211.1160  155.7050 C   0  0  2  0  0  3  0  0  0  0  0  0
  161.6040  204.5240  151.7740 N   0  0  1  0  0  0  0  0  0  0  0  0
  162.5860  205.3570  151.1820 N   0  0  0  0  0  2  0  0  0  0  0  0
  161.3840  206.6430  152.7080 N   0  0  0  0  0  0  0  0  0  0  0  0
  162.5260  206.6640  151.8280 C   0  0  2  0  0  3  0  0  0  0  0  0
  160.7800  205.3370  152.6650 C   0  0  0  0  0  2  0  0  0  0  0  0
  160.9370  201.4360  147.4360 O   0  0  0  0  0  0  0  0  0  0  0  0
  161.0900  204.4530  149.3260 C   0  0  0  0  0  3  0  0  0  0  0  0
  160.7550  203.9500  150.7220 C   0  0  1  0  0  3  0  0  0  0  0  0
  160.7590  201.6380  149.7850 C   0  0  0  0  0  3  0  0  0  0  0  0
  160.9360  202.1950  148.4390 C   0  0  0  0  0  0  0  0  0  0  0  0
  161.1480  203.6370  148.2720 C   0  0  0  0  0  3  0  0  0  0  0  0
  160.6990  202.4450  150.8470 C   0  0  0  0  0  3  0  0  0  0  0  0
  162.2200  208.5170  149.9950 N   0  0  0  0  0  0  0  0  0  0  0  0
  162.3560  207.7010  150.8030 C   0  0  0  0  0  0  0  0  0  0  0  0
  2  9  1  0  0  0  0
  3  5  2  0  0  0  0
  3  1  1  0  0  0  0
  4  3  2  0  0  0  0
  6  1  1  0  0  0  0
  7  2  2  0  0  0  0
  7 10  1  0  0  0  0
  8  7  1  0  0  0  0
  9 14  1  0  0  0  0
 10 12  1  6  0  0  0
 10 13  1  0  0  0  0
 11  6  1  6  0  0  0
 13 14  1  1  0  0  0
 13 11  1  0  0  0  0
 15 12  1  6  0  0  0
 15  3  1  0  0  0  0
 15 11  1  0  0  0  0
 16 20  1  1  0  0  0
 17 16  1  0  0  0  0
 17 19  1  0  0  0  0
 18  2  1  0  0  0  0
 19 29  1  6  0  0  0
 19 18  1  0  0  0  0
 20 18  1  0  0  0  0
 21 25  2  0  0  0  0
 23 22  1  6  0  0  0
 23 27  1  0  0  0  0
 23 16  1  0  0  0  0
 24 27  2  0  0  0  0
 25 24  1  0  0  0  0
 26 25  1  0  0  0  0
 26 22  2  0  0  0  0
 28 29  3  0  0  0  0
M  END
>  <MODEL>
1

>  <REMARK>
 VINA RESULT:      -8.0      0.000      0.000
  Name = 
  3 active torsions:
  status: ('A' for Active; 'I' for Inactive)
    1  A    between atoms: N_1  and  C_12
    2  A    between atoms: C_4  and  N_10
    3  A    between atoms: C_18  and  C_29
                            x       y       z     vdW  Elec       q    Type
                         _______ _______ _______ _____ _____    ______ ____

>  <TORSDO>
F 3

$$$$
=
 OpenBabel11072413473D

 29 33  0  0  1  0  0  0  0  0999 V2000
  160.8390  204.1270  149.4150 C   0  0  0  0  0  2  0  0  0  0  0  0
  160.8130  208.6580  153.5970 C   0  0  0  0  0  0  0  0  0  0  0  0
  161.3280  205.5080  148.4570 S   0  0  0  0  0  0  0  0  0  0  0  0
  160.1420  206.2510  147.9100 O   0  0  0  0  0  0  0  0  0  0  0  0
  162.2720  205.1100  147.3560 O   0  0  0  0  0  0  0  0  0  0  0  0
  160.9620  204.6150  150.8480 C   0  0  0  0  0  2  0  0  0  0  0  0
  160.8110  208.7920  152.2470 C   0  0  0  0  0  0  0  0  0  0  0  0
  160.5490  209.9870  151.6600 F   0  0  0  0  0  0  0  0  0  0  0  0
  161.0820  207.3030  154.2580 C   0  0  0  0  0  2  0  0  0  0  0  0
  160.8880  207.5740  151.3790 C   0  0  1  0  0  3  0  0  0  0  0  0
  162.0850  205.5670  150.9750 N   0  0  2  0  0  0  0  0  0  0  0  0
  161.5100  207.7500  150.0200 C   0  0  0  0  0  2  0  0  0  0  0  0
  161.7960  206.5670  152.0000 C   0  0  2  0  0  3  0  0  0  0  0  0
  161.1810  206.0960  153.3070 C   0  0  0  0  0  2  0  0  0  0  0  0
  162.1600  206.3850  149.7470 C   0  0  2  0  0  3  0  0  0  0  0  0
  159.8890  211.8970  155.1430 N   0  0  1  0  0  0  0  0  0  0  0  0
  161.1600  211.6780  155.7310 N   0  0  0  0  0  2  0  0  0  0  0  0
  160.6300  209.8030  154.4540 N   0  0  0  0  0  0  0  0  0  0  0  0
  161.6820  210.4110  155.2300 C   0  0  2  0  0  3  0  0  0  0  0  0
  159.4990  210.6930  154.4140 C   0  0  0  0  0  2  0  0  0  0  0  0
  155.0890  213.6800  156.7520 O   0  0  0  0  0  0  0  0  0  0  0  0
  158.6380  213.6410  156.4300 C   0  0  0  0  0  3  0  0  0  0  0  0
  158.9030  212.1610  156.1990 C   0  0  1  0  0  3  0  0  0  0  0  0
  156.4320  211.8240  156.1630 C   0  0  0  0  0  3  0  0  0  0  0  0
  156.2440  213.2330  156.5310 C   0  0  0  0  0  0  0  0  0  0  0  0
  157.4070  214.1240  156.6070 C   0  0  0  0  0  3  0  0  0  0  0  0
  157.6580  211.3310  155.9840 C   0  0  0  0  0  3  0  0  0  0  0  0
  162.3120  208.8730  157.2610 N   0  0  0  0  0  0  0  0  0  0  0  0
  162.0330  209.5520  156.3660 C   0  0  0  0  0  0  0  0  0  0  0  0
  1  6  1  0  0  0  0
  2  9  1  0  0  0  0
  2 18  1  0  0  0  0
  3  1  1  0  0  0  0
  3 15  1  0  0  0  0
  4  3  2  0  0  0  0
  5  3  2  0  0  0  0
  7  2  2  0  0  0  0
  8  7  1  0  0  0  0
 10 12  1  6  0  0  0
 10 13  1  0  0  0  0
 10  7  1  0  0  0  0
 11  6  1  6  0  0  0
 11 13  1  0  0  0  0
 13 14  1  1  0  0  0
 14  9  1  0  0  0  0
 15 12  1  1  0  0  0
 15 11  1  0  0  0  0
 16 20  1  1  0  0  0
 16 17  1  0  0  0  0
 16 23  1  0  0  0  0
 18 19  1  0  0  0  0
 19 17  1  0  0  0  0
 19 29  1  1  0  0  0
 20 18  1  0  0  0  0
 22 26  2  0  0  0  0
 23 27  1  6  0  0  0
 23 22  1  0  0  0  0
 24 25  1  0  0  0  0
 25 26  1  0  0  0  0
 25 21  2  0  0  0  0
 27 24  2  0  0  0  0
 29 28  3  0  0  0  0
M  END
>  <MODEL>
2

>  <REMARK>
 VINA RESULT:      -7.3      2.885      8.936
  Name = 
  3 active torsions:
  status: ('A' for Active; 'I' for Inactive)
    1  A    between atoms: N_1  and  C_12
    2  A    between atoms: C_4  and  N_10
    3  A    between atoms: C_18  and  C_29
                            x       y       z     vdW  Elec       q    Type
                         _______ _______ _______ _____ _____    ______ ____

>  <TORSDO>
F 3

$$$$
=
 OpenBabel11072413473D

 29 33  0  0  1  0  0  0  0  0999 V2000
  159.9380  209.9300  154.7010 C   0  0  0  0  0  2  0  0  0  0  0  0
  161.2870  206.0920  150.0670 C   0  0  0  0  0  0  0  0  0  0  0  0
  160.4310  208.4860  155.5580 S   0  0  0  0  0  0  0  0  0  0  0  0
  159.2790  207.5430  155.7640 O   0  0  0  0  0  0  0  0  0  0  0  0
  161.0970  208.8190  156.8640 O   0  0  0  0  0  0  0  0  0  0  0  0
  160.3820  209.6760  153.2710 C   0  0  0  0  0  2  0  0  0  0  0  0
  161.0600  205.7610  151.3630 C   0  0  0  0  0  0  0  0  0  0  0  0
  160.8630  204.4700  151.7340 F   0  0  0  0  0  0  0  0  0  0  0  0
  161.4820  207.5510  149.6460 C   0  0  0  0  0  2  0  0  0  0  0  0
  160.8120  206.8380  152.3740 C   0  0  1  0  0  3  0  0  0  0  0  0
  161.6290  208.8830  153.2510 N   0  0  2  0  0  0  0  0  0  0  0  0
  161.1970  206.5330  153.7960 C   0  0  0  0  0  2  0  0  0  0  0  0
  161.6700  208.0200  152.0730 C   0  0  2  0  0  3  0  0  0  0  0  0
  161.2420  208.6080  150.7390 C   0  0  0  0  0  2  0  0  0  0  0  0
  161.5940  207.9060  154.3590 C   0  0  2  0  0  3  0  0  0  0  0  0
  161.9370  203.0110  148.1130 N   0  0  1  0  0  0  0  0  0  0  0  0
  162.1590  204.0020  147.1240 N   0  0  0  0  0  2  0  0  0  0  0  0
  161.4200  205.0730  149.0560 N   0  0  0  0  0  0  0  0  0  0  0  0
  161.9330  205.3090  147.7300 C   0  0  2  0  0  3  0  0  0  0  0  0
  161.3850  203.6550  149.3020 C   0  0  0  0  0  2  0  0  0  0  0  0
  160.6680  198.8900  144.9160 O   0  0  0  0  0  0  0  0  0  0  0  0
  160.5970  202.2340  146.1480 C   0  0  0  0  0  3  0  0  0  0  0  0
  160.9730  202.0250  147.6070 C   0  0  1  0  0  3  0  0  0  0  0  0
  161.3240  199.6150  147.0700 C   0  0  0  0  0  3  0  0  0  0  0  0
  160.8120  199.8520  145.7150 C   0  0  0  0  0  0  0  0  0  0  0  0
  160.5020  201.2200  145.2850 C   0  0  0  0  0  3  0  0  0  0  0  0
  161.4230  200.6210  147.9400 C   0  0  0  0  0  3  0  0  0  0  0  0
  160.1710  206.6280  146.2990 N   0  0  0  0  0  0  0  0  0  0  0  0
  160.9480  206.0470  146.9310 C   0  0  0  0  0  0  0  0  0  0  0  0
  1  3  1  0  0  0  0
  2  7  2  0  0  0  0
  3  4  2  0  0  0  0
  3  5  2  0  0  0  0
  6  1  1  0  0  0  0
  7  8  1  0  0  0  0
  7 10  1  0  0  0  0
  9  2  1  0  0  0  0
  9 14  1  0  0  0  0
 10 12  1  1  0  0  0
 11  6  1  6  0  0  0
 11 15  1  0  0  0  0
 13 14  1  6  0  0  0
 13 10  1  0  0  0  0
 13 11  1  0  0  0  0
 15 12  1  6  0  0  0
 15  3  1  0  0  0  0
 16 20  1  1  0  0  0
 17 19  1  0  0  0  0
 17 16  1  0  0  0  0
 18 20  1  0  0  0  0
 18  2  1  0  0  0  0
 19 29  1  6  0  0  0
 19 18  1  0  0  0  0
 21 25  2  0  0  0  0
 23 22  1  6  0  0  0
 23 27  1  0  0  0  0
 23 16  1  0  0  0  0
 24 27  2  0  0  0  0
 25 24  1  0  0  0  0
 26 25  1  0  0  0  0
 26 22  2  0  0  0  0
 28 29  3  0  0  0  0
M  END
>  <MODEL>
3

>  <REMARK>
 VINA RESULT:      -7.1      2.989      4.326
  Name = 
  3 active torsions:
  status: ('A' for Active; 'I' for Inactive)
    1  A    between atoms: N_1  and  C_12
    2  A    between atoms: C_4  and  N_10
    3  A    between atoms: C_18  and  C_29
                            x       y       z     vdW  Elec       q    Type
                         _______ _______ _______ _____ _____    ______ ____

>  <TORSDO>
F 3

$$$$
=
 OpenBabel11072413473D

 29 33  0  0  1  0  0  0  0  0999 V2000
  161.0210  204.2550  148.0590 C   0  0  0  0  0  2  0  0  0  0  0  0
  160.9980  207.9530  152.9920 C   0  0  0  0  0  0  0  0  0  0  0  0
  161.5780  205.7680  147.3790 S   0  0  0  0  0  0  0  0  0  0  0  0
  160.4310  206.6370  146.9480 O   0  0  0  0  0  0  0  0  0  0  0  0
  162.5420  205.5440  146.2490 O   0  0  0  0  0  0  0  0  0  0  0  0
  161.1140  204.4710  149.5590 C   0  0  0  0  0  2  0  0  0  0  0  0
  161.0410  208.3280  151.6890 C   0  0  0  0  0  0  0  0  0  0  0  0
  160.8310  209.6180  151.3230 F   0  0  0  0  0  0  0  0  0  0  0  0
  161.2080  206.4930  153.4020 C   0  0  0  0  0  2  0  0  0  0  0  0
  161.1090  207.2860  150.6160 C   0  0  1  0  0  3  0  0  0  0  0  0
  162.2590  205.3460  149.8840 N   0  0  2  0  0  0  0  0  0  0  0  0
  161.7770  207.6840  149.3280 C   0  0  0  0  0  2  0  0  0  0  0  0
  161.9690  206.1530  151.0670 C   0  0  2  0  0  3  0  0  0  0  0  0
  161.3010  205.4740  152.2510 C   0  0  0  0  0  2  0  0  0  0  0  0
  162.3950  206.3700  148.8280 C   0  0  2  0  0  3  0  0  0  0  0  0
  160.8010  211.0090  155.0800 N   0  0  1  0  0  0  0  0  0  0  0  0
  161.1450  210.0430  156.0580 N   0  0  0  0  0  2  0  0  0  0  0  0
  160.8210  208.9300  154.0380 N   0  0  0  0  0  0  0  0  0  0  0  0
  161.2570  208.7460  155.4000 C   0  0  2  0  0  3  0  0  0  0  0  0
  160.5040  210.3180  153.8280 C   0  0  0  0  0  2  0  0  0  0  0  0
  155.7280  212.6010  154.3460 O   0  0  0  0  0  0  0  0  0  0  0  0
  159.2650  212.9330  154.6340 C   0  0  0  0  0  3  0  0  0  0  0  0
  159.6080  211.7440  155.5190 C   0  0  1  0  0  3  0  0  0  0  0  0
  157.2090  211.0740  155.3800 C   0  0  0  0  0  3  0  0  0  0  0  0
  156.9140  212.3150  154.6540 C   0  0  0  0  0  0  0  0  0  0  0  0
  158.0130  213.2040  154.2590 C   0  0  0  0  0  3  0  0  0  0  0  0
  158.4570  210.7940  155.7600 C   0  0  0  0  0  3  0  0  0  0  0  0
  159.7050  207.0180  156.6220 N   0  0  0  0  0  0  0  0  0  0  0  0
  160.3890  207.7810  156.0830 C   0  0  0  0  0  0  0  0  0  0  0  0
  1  6  1  0  0  0  0
  2  9  1  0  0  0  0
  2 18  1  0  0  0  0
  3  1  1  0  0  0  0
  3 15  1  0  0  0  0
  4  3  2  0  0  0  0
  5  3  2  0  0  0  0
  7  2  2  0  0  0  0
  8  7  1  0  0  0  0
 10 12  1  6  0  0  0
 10 13  1  0  0  0  0
 10  7  1  0  0  0  0
 11  6  1  6  0  0  0
 11 13  1  0  0  0  0
 13 14  1  1  0  0  0
 14  9  1  0  0  0  0
 15 12  1  1  0  0  0
 15 11  1  0  0  0  0
 16 20  1  6  0  0  0
 16 23  1  0  0  0  0
 16 17  1  0  0  0  0
 18 19  1  0  0  0  0
 19 17  1  0  0  0  0
 19 29  1  1  0  0  0
 20 18  1  0  0  0  0
 21 25  2  0  0  0  0
 23 22  1  6  0  0  0
 23 27  1  0  0  0  0
 24 27  2  0  0  0  0
 25 24  1  0  0  0  0
 26 22  2  0  0  0  0
 26 25  1  0  0  0  0
 29 28  3  0  0  0  0
M  END
>  <MODEL>
4

>  <REMARK>
 VINA RESULT:      -6.7      2.989      8.583
  Name = 
  3 active torsions:
  status: ('A' for Active; 'I' for Inactive)
    1  A    between atoms: N_1  and  C_12
    2  A    between atoms: C_4  and  N_10
    3  A    between atoms: C_18  and  C_29
                            x       y       z     vdW  Elec       q    Type
                         _______ _______ _______ _____ _____    ______ ____

>  <TORSDO>
F 3

$$$$
=
 OpenBabel11072413473D

 29 33  0  0  1  0  0  0  0  0999 V2000
  160.5360  211.1700  157.2590 C   0  0  0  0  0  2  0  0  0  0  0  0
  161.2370  207.6300  152.2600 C   0  0  0  0  0  0  0  0  0  0  0  0
  159.4040  211.8970  156.1390 S   0  0  0  0  0  0  0  0  0  0  0  0
  160.0670  212.9330  155.2760 O   0  0  0  0  0  0  0  0  0  0  0  0
  158.2120  212.4690  156.8530 O   0  0  0  0  0  0  0  0  0  0  0  0
  160.8990  209.8480  156.6070 C   0  0  0  0  0  2  0  0  0  0  0  0
  160.6620  208.8570  152.3190 C   0  0  0  0  0  0  0  0  0  0  0  0
  160.3880  209.5580  151.1890 F   0  0  0  0  0  0  0  0  0  0  0  0
  161.5710  206.8500  153.5350 C   0  0  0  0  0  2  0  0  0  0  0  0
  160.5150  209.5480  153.6390 C   0  0  1  0  0  3  0  0  0  0  0  0
  159.7420  209.3030  155.8670 N   0  0  2  0  0  0  0  0  0  0  0  0
  159.3730  210.5190  153.7720 C   0  0  0  0  0  2  0  0  0  0  0  0
  160.1880  208.5490  154.6980 C   0  0  2  0  0  3  0  0  0  0  0  0
  161.3690  207.6070  154.8620 C   0  0  0  0  0  2  0  0  0  0  0  0
  158.9940  210.4210  155.2570 C   0  0  2  0  0  3  0  0  0  0  0  0
  161.7180  205.2760  149.4370 N   0  0  1  0  0  0  0  0  0  0  0  0
  162.6480  206.2890  149.0970 N   0  0  0  0  0  2  0  0  0  0  0  0
  161.4900  206.9910  150.9920 N   0  0  0  0  0  0  0  0  0  0  0  0
  162.5860  207.3280  150.1190 C   0  0  2  0  0  3  0  0  0  0  0  0
  160.9180  205.7400  150.5690 C   0  0  0  0  0  2  0  0  0  0  0  0
  160.8580  204.9060  144.1520 O   0  0  0  0  0  0  0  0  0  0  0  0
  160.5750  206.2560  147.4380 C   0  0  0  0  0  3  0  0  0  0  0  0
  160.8320  205.0240  148.2930 C   0  0  1  0  0  3  0  0  0  0  0  0
  161.3050  203.7800  146.1830 C   0  0  0  0  0  3  0  0  0  0  0  0
  160.9020  204.9600  145.4080 C   0  0  0  0  0  0  0  0  0  0  0  0
  160.5850  206.2120  146.1050 C   0  0  0  0  0  3  0  0  0  0  0  0
  161.2970  203.8130  147.5170 C   0  0  0  0  0  3  0  0  0  0  0  0
  162.1440  209.6460  148.9700 N   0  0  0  0  0  0  0  0  0  0  0  0
  162.3410  208.6240  149.4760 C   0  0  0  0  0  0  0  0  0  0  0  0
  2  7  2  0  0  0  0
  2  9  1  0  0  0  0
  3  5  2  0  0  0  0
  3  1  1  0  0  0  0
  4  3  2  0  0  0  0
  6  1  1  0  0  0  0
  7 10  1  0  0  0  0
  8  7  1  0  0  0  0
  9 14  1  0  0  0  0
 10 12  1  6  0  0  0
 10 13  1  0  0  0  0
 11  6  1  6  0  0  0
 13 14  1  1  0  0  0
 13 11  1  0  0  0  0
 15 12  1  6  0  0  0
 15 11  1  0  0  0  0
 15  3  1  0  0  0  0
 16 20  1  1  0  0  0
 17 16  1  0  0  0  0
 17 19  1  0  0  0  0
 18  2  1  0  0  0  0
 19 29  1  6  0  0  0
 19 18  1  0  0  0  0
 20 18  1  0  0  0  0
 21 25  2  0  0  0  0
 23 22  1  6  0  0  0
 23 16  1  0  0  0  0
 24 27  2  0  0  0  0
 25 26  1  0  0  0  0
 25 24  1  0  0  0  0
 26 22  2  0  0  0  0
 27 23  1  0  0  0  0
 28 29  3  0  0  0  0
M  END
>  <MODEL>
5

>  <REMARK>
 VINA RESULT:      -6.4      1.807      2.246
  Name = 
  3 active torsions:
  status: ('A' for Active; 'I' for Inactive)
    1  A    between atoms: N_1  and  C_12
    2  A    between atoms: C_4  and  N_10
    3  A    between atoms: C_18  and  C_29
                            x       y       z     vdW  Elec       q    Type
                         _______ _______ _______ _____ _____    ______ ____

>  <TORSDO>
F 3

$$$$
=
 OpenBabel11072413473D

 29 33  0  0  1  0  0  0  0  0999 V2000
  158.4650  213.6950  154.6450 C   0  0  0  0  0  2  0  0  0  0  0  0
  160.8610  208.4590  152.4400 C   0  0  0  0  0  0  0  0  0  0  0  0
  158.7620  212.7870  156.1110 S   0  0  0  0  0  0  0  0  0  0  0  0
  157.6020  211.8980  156.4570 O   0  0  0  0  0  0  0  0  0  0  0  0
  159.1120  213.6910  157.2600 O   0  0  0  0  0  0  0  0  0  0  0  0
  159.2240  212.9260  153.5790 C   0  0  0  0  0  2  0  0  0  0  0  0
  160.3490  208.6650  153.6790 C   0  0  0  0  0  0  0  0  0  0  0  0
  160.0830  207.6260  154.5110 F   0  0  0  0  0  0  0  0  0  0  0  0
  161.1350  209.6300  151.4920 C   0  0  0  0  0  2  0  0  0  0  0  0
  159.8690  210.0290  154.0680 C   0  0  1  0  0  3  0  0  0  0  0  0
  160.4500  212.3270  154.1470 N   0  0  2  0  0  0  0  0  0  0  0  0
  159.9240  210.3740  155.5320 C   0  0  0  0  0  2  0  0  0  0  0  0
  160.7630  211.0670  153.4780 C   0  0  2  0  0  3  0  0  0  0  0  0
  160.6440  211.0110  151.9640 C   0  0  0  0  0  2  0  0  0  0  0  0
  160.1720  211.8900  155.5310 C   0  0  2  0  0  3  0  0  0  0  0  0
  161.5440  204.8330  152.0940 N   0  0  1  0  0  0  0  0  0  0  0  0
  162.5640  205.3720  151.2710 N   0  0  0  0  0  2  0  0  0  0  0  0
  161.2280  207.1350  152.0020 N   0  0  0  0  0  0  0  0  0  0  0  0
  162.4380  206.8260  151.2830 C   0  0  2  0  0  3  0  0  0  0  0  0
  160.6410  205.9120  152.4850 C   0  0  0  0  0  2  0  0  0  0  0  0
  161.2900  200.9510  148.3960 O   0  0  0  0  0  0  0  0  0  0  0  0
  160.6690  204.1430  149.8530 C   0  0  0  0  0  3  0  0  0  0  0  0
  160.7890  203.8260  151.3360 C   0  0  1  0  0  3  0  0  0  0  0  0
  161.4660  201.5140  150.6860 C   0  0  0  0  0  3  0  0  0  0  0  0
  161.1900  201.8390  149.2810 C   0  0  0  0  0  0  0  0  0  0  0  0
  160.8320  203.2130  148.9110 C   0  0  0  0  0  3  0  0  0  0  0  0
  161.3060  202.4370  151.6360 C   0  0  0  0  0  3  0  0  0  0  0  0
  162.2700  207.6990  148.8130 N   0  0  0  0  0  0  0  0  0  0  0  0
  162.3440  207.3130  149.9020 C   0  0  0  0  0  0  0  0  0  0  0  0
  1  3  1  0  0  0  0
  2  7  2  0  0  0  0
  3  4  2  0  0  0  0
  3  5  2  0  0  0  0
  6  1  1  0  0  0  0
  7 10  1  0  0  0  0
  7  8  1  0  0  0  0
  9 14  1  0  0  0  0
  9  2  1  0  0  0  0
 10 12  1  1  0  0  0
 11  6  1  6  0  0  0
 11 15  1  0  0  0  0
 13 14  1  6  0  0  0
 13 10  1  0  0  0  0
 13 11  1  0  0  0  0
 15 12  1  6  0  0  0
 15  3  1  0  0  0  0
 16 20  1  6  0  0  0
 17 19  1  0  0  0  0
 17 16  1  0  0  0  0
 18  2  1  0  0  0  0
 18 20  1  0  0  0  0
 19 29  1  6  0  0  0
 19 18  1  0  0  0  0
 21 25  2  0  0  0  0
 23 22  1  6  0  0  0
 23 27  1  0  0  0  0
 23 16  1  0  0  0  0
 24 27  2  0  0  0  0
 25 24  1  0  0  0  0
 26 25  1  0  0  0  0
 26 22  2  0  0  0  0
 28 29  3  0  0  0  0
M  END
>  <MODEL>
6

>  <REMARK>
 VINA RESULT:      -6.4      1.523      2.112
  Name = 
  3 active torsions:
  status: ('A' for Active; 'I' for Inactive)
    1  A    between atoms: N_1  and  C_12
    2  A    between atoms: C_4  and  N_10
    3  A    between atoms: C_18  and  C_29
                            x       y       z     vdW  Elec       q    Type
                         _______ _______ _______ _____ _____    ______ ____

>  <TORSDO>
F 3

$$$$
=
 OpenBabel11072413473D

 29 33  0  0  1  0  0  0  0  0999 V2000
  161.5860  203.2830  148.2640 C   0  0  0  0  0  2  0  0  0  0  0  0
  161.2710  207.6060  152.6500 C   0  0  0  0  0  0  0  0  0  0  0  0
  160.8830  202.3950  149.5980 S   0  0  0  0  0  0  0  0  0  0  0  0
  161.9390  201.8170  150.4970 O   0  0  0  0  0  0  0  0  0  0  0  0
  159.9400  201.3280  149.1160 O   0  0  0  0  0  0  0  0  0  0  0  0
  161.4790  204.7350  148.6940 C   0  0  0  0  0  2  0  0  0  0  0  0
  161.1870  206.2620  152.8180 C   0  0  0  0  0  0  0  0  0  0  0  0
  161.2700  205.7030  154.0520 F   0  0  0  0  0  0  0  0  0  0  0  0
  161.2050  208.2330  151.2540 C   0  0  0  0  0  2  0  0  0  0  0  0
  161.2160  205.3590  151.6240 C   0  0  1  0  0  3  0  0  0  0  0  0
  160.2550  204.9470  149.4960 N   0  0  2  0  0  0  0  0  0  0  0  0
  160.5080  204.0380  151.7580 C   0  0  0  0  0  2  0  0  0  0  0  0
  160.4710  205.9890  150.4960 C   0  0  2  0  0  3  0  0  0  0  0  0
  161.2060  207.2490  150.0700 C   0  0  0  0  0  2  0  0  0  0  0  0
  160.0170  203.7510  150.3310 C   0  0  2  0  0  3  0  0  0  0  0  0
  161.9960  210.3310  155.0550 N   0  0  1  0  0  0  0  0  0  0  0  0
  161.8450  209.2330  155.9380 N   0  0  0  0  0  2  0  0  0  0  0  0
  161.3560  208.4900  153.7850 N   0  0  0  0  0  0  0  0  0  0  0  0
  161.5390  208.0470  155.1450 C   0  0  2  0  0  3  0  0  0  0  0  0
  161.6030  209.9060  153.7130 C   0  0  0  0  0  2  0  0  0  0  0  0
  157.1750  212.2170  156.4720 O   0  0  0  0  0  0  0  0  0  0  0  0
  160.0830  211.8260  154.4490 C   0  0  0  0  0  3  0  0  0  0  0  0
  161.1210  211.4280  155.4880 C   0  0  1  0  0  3  0  0  0  0  0  0
  159.2810  211.4000  157.1730 C   0  0  0  0  0  3  0  0  0  0  0  0
  158.3580  211.9260  156.1590 C   0  0  0  0  0  0  0  0  0  0  0  0
  158.8130  212.0780  154.7730 C   0  0  0  0  0  3  0  0  0  0  0  0
  160.5530  211.1450  156.8600 C   0  0  0  0  0  3  0  0  0  0  0  0
  159.3310  206.9530  156.0470 N   0  0  0  0  0  0  0  0  0  0  0  0
  160.3040  207.4350  155.6480 C   0  0  0  0  0  0  0  0  0  0  0  0
  1  6  1  0  0  0  0
  1  3  1  0  0  0  0
  2  7  2  0  0  0  0
  2 18  1  0  0  0  0
  3 15  1  0  0  0  0
  3  4  2  0  0  0  0
  5  3  2  0  0  0  0
  7  8  1  0  0  0  0
  9  2  1  0  0  0  0
 10 12  1  1  0  0  0
 10  7  1  0  0  0  0
 11  6  1  6  0  0  0
 11 15  1  0  0  0  0
 11 13  1  0  0  0  0
 13 14  1  6  0  0  0
 13 10  1  0  0  0  0
 14  9  1  0  0  0  0
 15 12  1  1  0  0  0
 16 20  1  6  0  0  0
 16 23  1  0  0  0  0
 16 17  1  0  0  0  0
 18 19  1  0  0  0  0
 19 29  1  1  0  0  0
 19 17  1  0  0  0  0
 20 18  1  0  0  0  0
 22 26  2  0  0  0  0
 23 22  1  6  0  0  0
 23 27  1  0  0  0  0
 25 21  2  0  0  0  0
 25 24  1  0  0  0  0
 26 25  1  0  0  0  0
 27 24  2  0  0  0  0
 29 28  3  0  0  0  0
M  END
>  <MODEL>
7

>  <REMARK>
 VINA RESULT:      -6.3      3.005      8.880
  Name = 
  3 active torsions:
  status: ('A' for Active; 'I' for Inactive)
    1  A    between atoms: N_1  and  C_12
    2  A    between atoms: C_4  and  N_10
    3  A    between atoms: C_18  and  C_29
                            x       y       z     vdW  Elec       q    Type
                         _______ _______ _______ _____ _____    ______ ____

>  <TORSDO>
F 3

$$$$
=
 OpenBabel11072413473D

 29 33  0  0  1  0  0  0  0  0999 V2000
  162.9110  204.8640  146.0670 C   0  0  0  0  0  2  0  0  0  0  0  0
  161.2690  208.2560  150.9480 C   0  0  0  0  0  0  0  0  0  0  0  0
  161.5410  203.9680  146.6870 S   0  0  0  0  0  0  0  0  0  0  0  0
  161.9560  202.9810  147.7410 O   0  0  0  0  0  0  0  0  0  0  0  0
  160.7780  203.2920  145.5830 O   0  0  0  0  0  0  0  0  0  0  0  0
  162.8410  206.1920  146.8010 C   0  0  0  0  0  2  0  0  0  0  0  0
  160.9100  206.9750  150.6850 C   0  0  0  0  0  0  0  0  0  0  0  0
  160.3240  206.2020  151.6340 F   0  0  0  0  0  0  0  0  0  0  0  0
  161.9560  209.1200  149.8850 C   0  0  0  0  0  2  0  0  0  0  0  0
  161.3490  206.3260  149.4090 C   0  0  1  0  0  3  0  0  0  0  0  0
  161.4350  206.5710  147.0520 N   0  0  2  0  0  0  0  0  0  0  0  0
  160.4660  205.2360  148.8650 C   0  0  0  0  0  2  0  0  0  0  0  0
  161.3210  207.3220  148.2990 C   0  0  2  0  0  3  0  0  0  0  0  0
  162.3540  208.4000  148.5840 C   0  0  0  0  0  2  0  0  0  0  0  0
  160.6560  205.3500  147.3450 C   0  0  2  0  0  3  0  0  0  0  0  0
  160.3910  210.5360  153.7350 N   0  0  1  0  0  0  0  0  0  0  0  0
  161.2250  209.6080  154.4070 N   0  0  0  0  0  2  0  0  0  0  0  0
  160.9530  208.8680  152.2150 N   0  0  0  0  0  0  0  0  0  0  0  0
  161.6670  208.6080  153.4400 C   0  0  2  0  0  3  0  0  0  0  0  0
  160.1330  210.0390  152.3860 C   0  0  0  0  0  2  0  0  0  0  0  0
  156.6650  213.4760  156.2410 O   0  0  0  0  0  0  0  0  0  0  0  0
  159.2750  211.0720  155.9090 C   0  0  0  0  0  3  0  0  0  0  0  0
  159.1160  210.6540  154.4560 C   0  0  1  0  0  3  0  0  0  0  0  0
  157.3500  212.4030  154.2480 C   0  0  0  0  0  3  0  0  0  0  0  0
  157.4470  212.6590  155.6900 C   0  0  0  0  0  0  0  0  0  0  0  0
  158.4820  211.9820  156.4790 C   0  0  0  0  0  3  0  0  0  0  0  0
  158.1370  211.4950  153.6690 C   0  0  0  0  0  3  0  0  0  0  0  0
  161.0730  206.2160  154.3400 N   0  0  0  0  0  0  0  0  0  0  0  0
  161.3350  207.2710  153.9440 C   0  0  0  0  0  0  0  0  0  0  0  0
  1  3  1  0  0  0  0
  1  6  1  0  0  0  0
  2 18  1  0  0  0  0
  3 15  1  0  0  0  0
  3  4  2  0  0  0  0
  5  3  2  0  0  0  0
  7  2  2  0  0  0  0
  7  8  1  0  0  0  0
  9  2  1  0  0  0  0
 10 12  1  6  0  0  0
 10  7  1  0  0  0  0
 11  6  1  1  0  0  0
 11 15  1  0  0  0  0
 11 13  1  0  0  0  0
 13 14  1  1  0  0  0
 13 10  1  0  0  0  0
 14  9  1  0  0  0  0
 15 12  1  1  0  0  0
 16 20  1  6  0  0  0
 16 17  1  0  0  0  0
 16 23  1  0  0  0  0
 18 20  1  0  0  0  0
 18 19  1  0  0  0  0
 19 29  1  1  0  0  0
 19 17  1  0  0  0  0
 22 26  2  0  0  0  0
 23 27  1  6  0  0  0
 23 22  1  0  0  0  0
 24 25  1  0  0  0  0
 25 21  2  0  0  0  0
 25 26  1  0  0  0  0
 27 24  2  0  0  0  0
 29 28  3  0  0  0  0
M  END
>  <MODEL>
8

>  <REMARK>
 VINA RESULT:      -6.3      3.300      9.272
  Name = 
  3 active torsions:
  status: ('A' for Active; 'I' for Inactive)
    1  A    between atoms: N_1  and  C_12
    2  A    between atoms: C_4  and  N_10
    3  A    between atoms: C_18  and  C_29
                            x       y       z     vdW  Elec       q    Type
                         _______ _______ _______ _____ _____    ______ ____

>  <TORSDO>
F 3

$$$$
=
 OpenBabel11072413473D

 29 33  0  0  1  0  0  0  0  0999 V2000
  160.8620  211.0940  153.1900 C   0  0  0  0  0  2  0  0  0  0  0  0
  161.0380  205.6650  150.2720 C   0  0  0  0  0  0  0  0  0  0  0  0
  161.0400  209.9730  154.5220 S   0  0  0  0  0  0  0  0  0  0  0  0
  159.7090  209.4670  155.0020 O   0  0  0  0  0  0  0  0  0  0  0  0
  161.8290  210.5760  155.6500 O   0  0  0  0  0  0  0  0  0  0  0  0
  161.1640  210.2540  151.9620 C   0  0  0  0  0  2  0  0  0  0  0  0
  160.8020  205.8770  151.5920 C   0  0  0  0  0  0  0  0  0  0  0  0
  160.3230  204.8870  152.3870 F   0  0  0  0  0  0  0  0  0  0  0  0
  161.5530  206.7900  149.3700 C   0  0  0  0  0  2  0  0  0  0  0  0
  160.8650  207.2670  152.1450 C   0  0  1  0  0  3  0  0  0  0  0  0
  162.1860  209.2320  152.2730 N   0  0  2  0  0  0  0  0  0  0  0  0
  161.2360  207.4010  153.5970 C   0  0  0  0  0  2  0  0  0  0  0  0
  161.9640  208.0260  151.4800 C   0  0  2  0  0  3  0  0  0  0  0  0
  161.6230  208.1900  150.0080 C   0  0  0  0  0  2  0  0  0  0  0  0
  161.9730  208.7480  153.6530 C   0  0  2  0  0  3  0  0  0  0  0  0
  160.2420  202.7280  148.1570 N   0  0  1  0  0  0  0  0  0  0  0  0
  160.1580  202.1520  149.4490 N   0  0  0  0  0  2  0  0  0  0  0  0
  160.8770  204.3550  149.6930 N   0  0  0  0  0  0  0  0  0  0  0  0
  160.4590  203.1880  150.4310 C   0  0  2  0  0  3  0  0  0  0  0  0
  160.7800  204.0800  148.2830 C   0  0  0  0  0  2  0  0  0  0  0  0
  161.2980  198.3520  145.2340 O   0  0  0  0  0  0  0  0  0  0  0  0
  161.5720  200.6170  147.9720 C   0  0  0  0  0  3  0  0  0  0  0  0
  161.1470  201.9260  147.3240 C   0  0  1  0  0  3  0  0  0  0  0  0
  160.6410  200.6240  145.2570 C   0  0  0  0  0  3  0  0  0  0  0  0
  161.2020  199.4230  145.8880 C   0  0  0  0  0  0  0  0  0  0  0  0
  161.6180  199.4690  147.2940 C   0  0  0  0  0  3  0  0  0  0  0  0
  160.5910  201.7770  145.9260 C   0  0  0  0  0  3  0  0  0  0  0  0
  162.4010  202.3640  151.9920 N   0  0  0  0  0  0  0  0  0  0  0  0
  161.5450  202.7260  151.3030 C   0  0  0  0  0  0  0  0  0  0  0  0
  1  3  1  0  0  0  0
  2  7  2  0  0  0  0
  3  4  2  0  0  0  0
  3  5  2  0  0  0  0
  6  1  1  0  0  0  0
  7 10  1  0  0  0  0
  7  8  1  0  0  0  0
  9 14  1  0  0  0  0
  9  2  1  0  0  0  0
 10 12  1  1  0  0  0
 11  6  1  6  0  0  0
 11 15  1  0  0  0  0
 13 14  1  6  0  0  0
 13 10  1  0  0  0  0
 13 11  1  0  0  0  0
 15 12  1  6  0  0  0
 15  3  1  0  0  0  0
 16 20  1  1  0  0  0
 16 17  1  0  0  0  0
 17 19  1  0  0  0  0
 18  2  1  0  0  0  0
 18 19  1  0  0  0  0
 19 29  1  1  0  0  0
 20 18  1  0  0  0  0
 21 25  2  0  0  0  0
 23 27  1  6  0  0  0
 23 22  1  0  0  0  0
 23 16  1  0  0  0  0
 24 25  1  0  0  0  0
 24 27  2  0  0  0  0
 25 26  1  0  0  0  0
 26 22  2  0  0  0  0
 29 28  3  0  0  0  0
M  END
>  <MODEL>
9

>  <REMARK>
 VINA RESULT:      -5.9      2.756      4.564
  Name = 
  3 active torsions:
  status: ('A' for Active; 'I' for Inactive)
    1  A    between atoms: N_1  and  C_12
    2  A    between atoms: C_4  and  N_10
    3  A    between atoms: C_18  and  C_29
                            x       y       z     vdW  Elec       q    Type
                         _______ _______ _______ _____ _____    ______ ____

>  <TORSDO>
F 3

$$$$
