=
 OpenBabel11072414353D

 36 40  0  0  1  0  0  0  0  0999 V2000
  160.7360  207.7760  152.8390 C   0  0  1  0  0  3  0  0  0  0  0  0
  162.0420  208.4590  150.7220 C   0  0  0  0  0  0  0  0  0  0  0  0
  160.2140  209.2220  152.8030 C   0  0  0  0  0  2  0  0  0  0  0  0
  160.8620  205.8750  150.3010 C   0  0  1  0  0  3  0  0  0  0  0  0
  160.6560  206.9740  149.2800 C   0  0  2  0  0  3  0  0  0  0  0  0
  160.8580  204.8880  148.1950 N   0  0  0  0  0  0  0  0  0  0  0  0
  161.7250  205.0230  152.3300 O   0  0  0  0  0  0  0  0  0  0  0  0
  162.4530  210.6440  149.8900 O   0  0  0  0  0  1  0  0  0  0  0  0
  161.2740  203.5090  150.3500 C   0  0  2  0  0  3  0  0  0  0  0  0
  162.5520  210.2430  152.3470 C   0  0  0  0  0  2  0  0  0  0  0  0
  161.4450  204.7690  149.5110 C   0  0  2  0  0  3  0  0  0  0  0  0
  161.9310  207.4860  151.9030 C   0  0  2  0  0  3  0  0  0  0  0  0
  161.2580  210.2860  153.1740 C   0  0  0  0  0  2  0  0  0  0  0  0
  160.5420  206.1400  148.0360 C   0  0  0  0  0  0  0  0  0  0  0  0
  161.9050  206.0510  151.3730 C   0  0  2  0  0  3  0  0  0  0  0  0
  162.0210  203.7610  151.7130 C   0  0  0  0  0  2  0  0  0  0  0  0
  161.8300  207.9590  149.3020 C   0  0  0  0  0  2  0  0  0  0  0  0
  162.3450  209.7460  150.9460 C   0  0  0  0  0  0  0  0  0  0  0  0
  160.0480  206.6480  146.8350 O   0  0  0  0  0  0  0  0  0  0  0  0
  160.4840  206.1550  145.5770 C   0  0  0  0  0  1  0  0  0  0  0  0
  161.0590  207.4090  154.1490 O   0  0  0  0  0  0  0  0  0  0  0  0
  159.8350  207.3680  154.8240 C   0  0  0  0  0  2  0  0  0  0  0  0
  160.0420  207.6990  156.2930 C   0  0  0  0  0  2  0  0  0  0  0  0
  161.4520  208.2040  156.5500 C   0  0  0  0  0  2  0  0  0  0  0  0
  161.4460  209.7070  156.7780 C   0  0  0  0  0  2  0  0  0  0  0  0
  160.0790  210.1660  157.2590 C   0  0  0  0  0  2  0  0  0  0  0  0
  160.2960  213.7520  156.6730 O   0  0  0  0  0  0  0  0  0  0  0  0
  160.5110  212.5930  157.1170 C   0  0  0  0  0  3  0  0  0  0  0  0
  158.0570  210.5320  155.3510 O   0  0  0  0  0  1  0  0  0  0  0  0
  159.7400  211.4640  156.6880 N   0  0  0  0  0  0  0  0  0  0  0  0
  158.6630  211.5680  155.7380 C   0  0  0  0  0  0  0  0  0  0  0  0
  158.2720  212.8020  155.2320 O   0  0  0  0  0  0  0  0  0  0  0  0
  161.6970  202.3310  149.6910 O   0  0  0  0  0  0  0  0  0  0  0  0
  161.0590  200.4660  148.3550 C   0  0  0  0  0  2  0  0  0  0  0  0
  160.8370  201.7290  147.5530 C   0  0  0  0  0  2  0  0  0  0  0  0
  160.5990  201.7300  149.0500 C   0  0  0  0  0  3  0  0  0  0  0  0
  1 21  1  1  0  0  0
  2 18  2  0  0  0  0
  2 12  1  0  0  0  0
  3  1  1  0  0  0  0
  3 13  1  0  0  0  0
  4 15  1  0  0  0  0
  5 17  1  0  0  0  0
  5  4  1  0  0  0  0
  6 11  1  0  0  0  0
  8 18  1  0  0  0  0
  9 16  1  0  0  0  0
 10 13  1  0  0  0  0
 11  4  1  0  0  0  0
 11  9  1  0  0  0  0
 12  1  1  0  0  0  0
 14  6  2  0  0  0  0
 14  5  1  0  0  0  0
 15 12  1  0  0  0  0
 15  7  1  0  0  0  0
 16  7  1  0  0  0  0
 17  2  1  0  0  0  0
 18 10  1  0  0  0  0
 19 14  1  0  0  0  0
 20 19  1  0  0  0  0
 21 22  1  0  0  0  0
 22 23  1  0  0  0  0
 23 24  1  0  0  0  0
 24 25  1  0  0  0  0
 25 26  1  0  0  0  0
 27 28  2  0  0  0  0
 29 31  1  0  0  0  0
 30 28  1  0  0  0  0
 30 26  1  0  0  0  0
 31 30  1  0  0  0  0
 32 31  2  0  0  0  0
 33  9  1  0  0  0  0
 34 36  1  0  0  0  0
 35 34  1  0  0  0  0
 35 36  1  0  0  0  0
 36 33  1  0  0  0  0
M  END
>  <MODEL>
1

>  <REMARK>
 VINA RESULT:      -7.0      0.000      0.000
  Name = 
  10 active torsions:
  status: ('A' for Active; 'I' for Inactive)
    1  A    between atoms: C_1  and  O_2
    2  A    between atoms: O_2  and  C_30
    3  A    between atoms: O_4  and  C_31
    4  A    between atoms: C_9  and  C_10
    5  A    between atoms: C_9  and  C_25
    6  A    between atoms: C_10  and  C_29
    7  A    between atoms: N_15  and  C_29
    8  A    between atoms: C_19  and  O_35
    9  A    between atoms: C_23  and  O_35
   10  A    between atoms: C_25  and  C_30
                            x       y       z     vdW  Elec       q    Type
                         _______ _______ _______ _____ _____    ______ ____

>  <TORSDO>
F 10

$$$$
=
 OpenBabel11072414353D

 36 40  0  0  1  0  0  0  0  0999 V2000
  160.8420  207.8920  153.6510 C   0  0  1  0  0  3  0  0  0  0  0  0
  160.8210  210.1090  154.9680 C   0  0  0  0  0  0  0  0  0  0  0  0
  160.0560  207.3420  154.8530 C   0  0  0  0  0  2  0  0  0  0  0  0
  160.1890  210.6480  152.2190 C   0  0  1  0  0  3  0  0  0  0  0  0
  159.2920  211.1790  153.3180 C   0  0  2  0  0  3  0  0  0  0  0  0
  159.4230  212.7410  151.5540 N   0  0  0  0  0  0  0  0  0  0  0  0
  162.0630  209.4420  151.4320 O   0  0  0  0  0  0  0  0  0  0  0  0
  160.3000  210.4540  157.2580 O   0  0  0  0  0  1  0  0  0  0  0  0
  161.0900  211.3740  150.1140 C   0  0  2  0  0  3  0  0  0  0  0  0
  161.6190  208.4440  156.6030 C   0  0  0  0  0  2  0  0  0  0  0  0
  160.5650  211.8600  151.4590 C   0  0  2  0  0  3  0  0  0  0  0  0
  161.4920  209.2770  153.8690 C   0  0  2  0  0  3  0  0  0  0  0  0
  160.8870  207.1770  156.1350 C   0  0  0  0  0  2  0  0  0  0  0  0
  158.8000  212.4320  152.6530 C   0  0  0  0  0  0  0  0  0  0  0  0
  161.5430  210.0940  152.5770 C   0  0  2  0  0  3  0  0  0  0  0  0
  162.3090  210.4230  150.4140 C   0  0  0  0  0  2  0  0  0  0  0  0
  160.0890  211.3930  154.6100 C   0  0  0  0  0  2  0  0  0  0  0  0
  160.8990  209.7120  156.2460 C   0  0  0  0  0  0  0  0  0  0  0  0
  157.7040  213.1530  153.1270 O   0  0  0  0  0  0  0  0  0  0  0  0
  157.8570  214.2790  153.9790 C   0  0  0  0  0  1  0  0  0  0  0  0
  161.8100  206.9710  153.2410 O   0  0  0  0  0  0  0  0  0  0  0  0
  161.2080  206.2510  152.2050 C   0  0  0  0  0  2  0  0  0  0  0  0
  161.1960  204.7680  152.5420 C   0  0  0  0  0  2  0  0  0  0  0  0
  161.5020  203.9240  151.3150 C   0  0  0  0  0  2  0  0  0  0  0  0
  160.5720  204.2920  150.1710 C   0  0  0  0  0  2  0  0  0  0  0  0
  161.1740  203.8700  148.8400 C   0  0  0  0  0  2  0  0  0  0  0  0
  161.3640  207.3740  147.8690 O   0  0  0  0  0  0  0  0  0  0  0  0
  161.2310  206.3220  148.5490 C   0  0  0  0  0  3  0  0  0  0  0  0
  161.7290  203.6510  146.1000 O   0  0  0  0  0  1  0  0  0  0  0  0
  161.3360  205.0210  147.9590 N   0  0  0  0  0  0  0  0  0  0  0  0
  161.5860  204.8170  146.5550 C   0  0  0  0  0  0  0  0  0  0  0  0
  161.6730  205.8940  145.6810 O   0  0  0  0  0  0  0  0  0  0  0  0
  161.4070  212.4230  149.2200 O   0  0  0  0  0  0  0  0  0  0  0  0
  162.8980  212.8070  147.4030 C   0  0  0  0  0  2  0  0  0  0  0  0
  161.4820  212.8230  146.8730 C   0  0  0  0  0  2  0  0  0  0  0  0
  161.8580  211.8840  148.0020 C   0  0  0  0  0  3  0  0  0  0  0  0
  1 21  1  1  0  0  0
  1 12  1  0  0  0  0
  1  3  1  0  0  0  0
  2 18  2  0  0  0  0
  3 13  1  0  0  0  0
  4 15  1  0  0  0  0
  4  5  1  0  0  0  0
  5 17  1  0  0  0  0
  6 14  2  0  0  0  0
  7 15  1  0  0  0  0
  9 16  1  0  0  0  0
  9 11  1  0  0  0  0
 11  6  1  0  0  0  0
 11  4  1  0  0  0  0
 12  2  1  0  0  0  0
 13 10  1  0  0  0  0
 14 19  1  0  0  0  0
 14  5  1  0  0  0  0
 15 12  1  0  0  0  0
 16  7  1  0  0  0  0
 17  2  1  0  0  0  0
 18 10  1  0  0  0  0
 18  8  1  0  0  0  0
 19 20  1  0  0  0  0
 22 23  1  0  0  0  0
 22 21  1  0  0  0  0
 24 23  1  0  0  0  0
 25 24  1  0  0  0  0
 26 25  1  0  0  0  0
 27 28  2  0  0  0  0
 29 31  1  0  0  0  0
 30 28  1  0  0  0  0
 30 26  1  0  0  0  0
 31 30  1  0  0  0  0
 32 31  2  0  0  0  0
 33  9  1  0  0  0  0
 34 36  1  0  0  0  0
 35 34  1  0  0  0  0
 35 36  1  0  0  0  0
 36 33  1  0  0  0  0
M  END
>  <MODEL>
2

>  <REMARK>
 VINA RESULT:      -6.9      2.341      8.145
  Name = 
  10 active torsions:
  status: ('A' for Active; 'I' for Inactive)
    1  A    between atoms: C_1  and  O_2
    2  A    between atoms: O_2  and  C_30
    3  A    between atoms: O_4  and  C_31
    4  A    between atoms: C_9  and  C_10
    5  A    between atoms: C_9  and  C_25
    6  A    between atoms: C_10  and  C_29
    7  A    between atoms: N_15  and  C_29
    8  A    between atoms: C_19  and  O_35
    9  A    between atoms: C_23  and  O_35
   10  A    between atoms: C_25  and  C_30
                            x       y       z     vdW  Elec       q    Type
                         _______ _______ _______ _____ _____    ______ ____

>  <TORSDO>
F 10

$$$$
=
 OpenBabel11072414353D

 36 40  0  0  1  0  0  0  0  0999 V2000
  160.7190  207.7310  152.8020 C   0  0  1  0  0  3  0  0  0  0  0  0
  162.0530  208.4300  150.7080 C   0  0  0  0  0  0  0  0  0  0  0  0
  160.2060  209.1810  152.7770 C   0  0  0  0  0  2  0  0  0  0  0  0
  160.8630  205.8580  150.2440 C   0  0  1  0  0  3  0  0  0  0  0  0
  160.6750  206.9700  149.2330 C   0  0  2  0  0  3  0  0  0  0  0  0
  160.8770  204.8950  148.1260 N   0  0  0  0  0  0  0  0  0  0  0  0
  161.6970  204.9780  152.2730 O   0  0  0  0  0  0  0  0  0  0  0  0
  162.4880  210.6210  149.9050 O   0  0  0  0  0  1  0  0  0  0  0  0
  161.2590  203.4890  150.2710 C   0  0  2  0  0  3  0  0  0  0  0  0
  162.5560  210.1920  152.3590 C   0  0  0  0  0  2  0  0  0  0  0  0
  161.4470  204.7570  149.4480 C   0  0  2  0  0  3  0  0  0  0  0  0
  161.9230  207.4440  151.8760 C   0  0  2  0  0  3  0  0  0  0  0  0
  161.2530  210.2340  153.1710 C   0  0  0  0  0  2  0  0  0  0  0  0
  160.5700  206.1510  147.9790 C   0  0  0  0  0  0  0  0  0  0  0  0
  161.8950  206.0150  151.3290 C   0  0  2  0  0  3  0  0  0  0  0  0
  161.9910  203.7210  151.6450 C   0  0  0  0  0  2  0  0  0  0  0  0
  161.8550  207.9470  149.2800 C   0  0  0  0  0  2  0  0  0  0  0  0
  162.3620  209.7120  150.9500 C   0  0  0  0  0  0  0  0  0  0  0  0
  160.0930  206.6750  146.7780 O   0  0  0  0  0  0  0  0  0  0  0  0
  160.4680  206.1320  145.5210 C   0  0  0  0  0  1  0  0  0  0  0  0
  161.0240  207.3470  154.1110 O   0  0  0  0  0  0  0  0  0  0  0  0
  159.8420  207.5440  154.8300 C   0  0  0  0  0  2  0  0  0  0  0  0
  160.1280  207.4970  156.3220 C   0  0  0  0  0  2  0  0  0  0  0  0
  161.0040  208.6630  156.7510 C   0  0  0  0  0  2  0  0  0  0  0  0
  160.1490  209.8120  157.2600 C   0  0  0  0  0  2  0  0  0  0  0  0
  160.5210  211.1050  156.5510 C   0  0  0  0  0  2  0  0  0  0  0  0
  157.2280  211.4220  155.0300 O   0  0  0  0  0  0  0  0  0  0  0  0
  158.2950  210.9380  155.4920 C   0  0  0  0  0  3  0  0  0  0  0  0
  160.1510  213.8830  156.6170 O   0  0  0  0  0  1  0  0  0  0  0  0
  159.3300  211.7690  156.0330 N   0  0  0  0  0  0  0  0  0  0  0  0
  159.2370  213.2060  156.0760 C   0  0  0  0  0  0  0  0  0  0  0  0
  158.1470  213.8690  155.5250 O   0  0  0  0  0  0  0  0  0  0  0  0
  161.6820  202.3160  149.6030 O   0  0  0  0  0  0  0  0  0  0  0  0
  161.0410  200.4520  148.2660 C   0  0  0  0  0  2  0  0  0  0  0  0
  160.8320  201.7150  147.4610 C   0  0  0  0  0  2  0  0  0  0  0  0
  160.5850  201.7200  148.9560 C   0  0  0  0  0  3  0  0  0  0  0  0
  1 21  1  1  0  0  0
  2 18  2  0  0  0  0
  2 12  1  0  0  0  0
  3  1  1  0  0  0  0
  3 13  1  0  0  0  0
  4 15  1  0  0  0  0
  5 17  1  0  0  0  0
  5  4  1  0  0  0  0
  6 11  1  0  0  0  0
  8 18  1  0  0  0  0
  9 16  1  0  0  0  0
 10 13  1  0  0  0  0
 11  4  1  0  0  0  0
 11  9  1  0  0  0  0
 12  1  1  0  0  0  0
 14  6  2  0  0  0  0
 14  5  1  0  0  0  0
 15 12  1  0  0  0  0
 15  7  1  0  0  0  0
 16  7  1  0  0  0  0
 17  2  1  0  0  0  0
 18 10  1  0  0  0  0
 19 14  1  0  0  0  0
 20 19  1  0  0  0  0
 21 22  1  0  0  0  0
 22 23  1  0  0  0  0
 23 24  1  0  0  0  0
 24 25  1  0  0  0  0
 26 25  1  0  0  0  0
 27 28  2  0  0  0  0
 28 30  1  0  0  0  0
 30 31  1  0  0  0  0
 30 26  1  0  0  0  0
 31 29  1  0  0  0  0
 32 31  2  0  0  0  0
 33  9  1  0  0  0  0
 34 36  1  0  0  0  0
 35 34  1  0  0  0  0
 35 36  1  0  0  0  0
 36 33  1  0  0  0  0
M  END
>  <MODEL>
3

>  <REMARK>
 VINA RESULT:      -6.8      0.516      1.228
  Name = 
  10 active torsions:
  status: ('A' for Active; 'I' for Inactive)
    1  A    between atoms: C_1  and  O_2
    2  A    between atoms: O_2  and  C_30
    3  A    between atoms: O_4  and  C_31
    4  A    between atoms: C_9  and  C_10
    5  A    between atoms: C_9  and  C_25
    6  A    between atoms: C_10  and  C_29
    7  A    between atoms: N_15  and  C_29
    8  A    between atoms: C_19  and  O_35
    9  A    between atoms: C_23  and  O_35
   10  A    between atoms: C_25  and  C_30
                            x       y       z     vdW  Elec       q    Type
                         _______ _______ _______ _____ _____    ______ ____

>  <TORSDO>
F 10

$$$$
=
 OpenBabel11072414353D

 36 40  0  0  1  0  0  0  0  0999 V2000
  160.9590  208.1820  153.7980 C   0  0  1  0  0  3  0  0  0  0  0  0
  161.0810  210.4780  154.9670 C   0  0  0  0  0  0  0  0  0  0  0  0
  160.2500  207.7300  155.0860 C   0  0  0  0  0  2  0  0  0  0  0  0
  160.2650  210.8590  152.2400 C   0  0  1  0  0  3  0  0  0  0  0  0
  159.4620  211.4810  153.3620 C   0  0  2  0  0  3  0  0  0  0  0  0
  159.5000  212.9250  151.4950 N   0  0  0  0  0  0  0  0  0  0  0  0
  162.0510  209.5560  151.4030 O   0  0  0  0  0  0  0  0  0  0  0  0
  160.7330  210.9800  157.2610 O   0  0  0  0  0  1  0  0  0  0  0  0
  161.0290  211.4260  150.0340 C   0  0  2  0  0  3  0  0  0  0  0  0
  161.9580  208.8990  156.6460 C   0  0  0  0  0  2  0  0  0  0  0  0
  160.6120  212.0100  151.3780 C   0  0  2  0  0  3  0  0  0  0  0  0
  161.6530  209.5600  153.8800 C   0  0  2  0  0  3  0  0  0  0  0  0
  161.1660  207.6250  156.3140 C   0  0  0  0  0  2  0  0  0  0  0  0
  158.9510  212.7030  152.6540 C   0  0  0  0  0  0  0  0  0  0  0  0
  161.6290  210.2930  152.5370 C   0  0  2  0  0  3  0  0  0  0  0  0
  162.2450  210.4640  150.3080 C   0  0  0  0  0  2  0  0  0  0  0  0
  160.3530  211.7550  154.5780 C   0  0  0  0  0  2  0  0  0  0  0  0
  161.2410  210.1600  156.2590 C   0  0  0  0  0  0  0  0  0  0  0  0
  157.9070  213.4810  153.1560 O   0  0  0  0  0  0  0  0  0  0  0  0
  157.0390  213.0050  154.1730 C   0  0  0  0  0  1  0  0  0  0  0  0
  161.8740  207.2120  153.3820 O   0  0  0  0  0  0  0  0  0  0  0  0
  161.1500  206.0170  153.3610 C   0  0  0  0  0  2  0  0  0  0  0  0
  161.3740  205.2960  152.0420 C   0  0  0  0  0  2  0  0  0  0  0  0
  160.8150  203.8830  152.0850 C   0  0  0  0  0  2  0  0  0  0  0  0
  161.0680  203.1700  150.7670 C   0  0  0  0  0  2  0  0  0  0  0  0
  161.1680  204.1750  149.6300 C   0  0  0  0  0  2  0  0  0  0  0  0
  160.8640  201.4350  147.2520 O   0  0  0  0  0  0  0  0  0  0  0  0
  160.8600  202.1050  148.3190 C   0  0  0  0  0  3  0  0  0  0  0  0
  161.8530  205.4530  147.2310 O   0  0  0  0  0  1  0  0  0  0  0  0
  161.2150  203.4930  148.3420 N   0  0  0  0  0  0  0  0  0  0  0  0
  161.6100  204.2190  147.1630 C   0  0  0  0  0  0  0  0  0  0  0  0
  161.7330  203.5780  145.9360 O   0  0  0  0  0  0  0  0  0  0  0  0
  161.3040  212.4080  149.0540 O   0  0  0  0  0  0  0  0  0  0  0  0
  163.2950  212.7460  147.7920 C   0  0  0  0  0  2  0  0  0  0  0  0
  162.1150  212.7870  146.8470 C   0  0  0  0  0  2  0  0  0  0  0  0
  162.0990  211.8500  148.0370 C   0  0  0  0  0  3  0  0  0  0  0  0
  1 21  1  1  0  0  0
  1 12  1  0  0  0  0
  1  3  1  0  0  0  0
  2 18  2  0  0  0  0
  3 13  1  0  0  0  0
  4 15  1  0  0  0  0
  4  5  1  0  0  0  0
  5 17  1  0  0  0  0
  6 14  2  0  0  0  0
  7 15  1  0  0  0  0
  9 16  1  0  0  0  0
  9 11  1  0  0  0  0
 11  6  1  0  0  0  0
 11  4  1  0  0  0  0
 12  2  1  0  0  0  0
 13 10  1  0  0  0  0
 14 19  1  0  0  0  0
 14  5  1  0  0  0  0
 15 12  1  0  0  0  0
 16  7  1  0  0  0  0
 17  2  1  0  0  0  0
 18 10  1  0  0  0  0
 18  8  1  0  0  0  0
 19 20  1  0  0  0  0
 22 21  1  0  0  0  0
 23 24  1  0  0  0  0
 23 22  1  0  0  0  0
 25 24  1  0  0  0  0
 26 25  1  0  0  0  0
 27 28  2  0  0  0  0
 28 30  1  0  0  0  0
 30 26  1  0  0  0  0
 31 29  1  0  0  0  0
 31 30  1  0  0  0  0
 32 31  2  0  0  0  0
 33  9  1  0  0  0  0
 34 36  1  0  0  0  0
 35 34  1  0  0  0  0
 35 36  1  0  0  0  0
 36 33  1  0  0  0  0
M  END
>  <MODEL>
4

>  <REMARK>
 VINA RESULT:      -6.8      2.372      8.458
  Name = 
  10 active torsions:
  status: ('A' for Active; 'I' for Inactive)
    1  A    between atoms: C_1  and  O_2
    2  A    between atoms: O_2  and  C_30
    3  A    between atoms: O_4  and  C_31
    4  A    between atoms: C_9  and  C_10
    5  A    between atoms: C_9  and  C_25
    6  A    between atoms: C_10  and  C_29
    7  A    between atoms: N_15  and  C_29
    8  A    between atoms: C_19  and  O_35
    9  A    between atoms: C_23  and  O_35
   10  A    between atoms: C_25  and  C_30
                            x       y       z     vdW  Elec       q    Type
                         _______ _______ _______ _____ _____    ______ ____

>  <TORSDO>
F 10

$$$$
=
 OpenBabel11072414353D

 36 40  0  0  1  0  0  0  0  0999 V2000
  160.8340  208.3970  153.5590 C   0  0  1  0  0  3  0  0  0  0  0  0
  160.8070  210.5790  154.9340 C   0  0  0  0  0  0  0  0  0  0  0  0
  160.1510  207.7860  154.7940 C   0  0  0  0  0  2  0  0  0  0  0  0
  159.9780  211.1570  152.2460 C   0  0  1  0  0  3  0  0  0  0  0  0
  159.1320  211.6220  153.4130 C   0  0  2  0  0  3  0  0  0  0  0  0
  159.0850  213.2300  151.6860 N   0  0  0  0  0  0  0  0  0  0  0  0
  161.8450  210.0510  151.3100 O   0  0  0  0  0  0  0  0  0  0  0  0
  160.4200  210.8470  157.2610 O   0  0  0  0  0  1  0  0  0  0  0  0
  160.7110  211.9710  150.1080 C   0  0  2  0  0  3  0  0  0  0  0  0
  161.7760  208.9110  156.4700 C   0  0  0  0  0  2  0  0  0  0  0  0
  160.2540  212.4010  151.4960 C   0  0  2  0  0  3  0  0  0  0  0  0
  161.4400  209.8030  153.7730 C   0  0  2  0  0  3  0  0  0  0  0  0
  161.0680  207.6260  156.0160 C   0  0  0  0  0  2  0  0  0  0  0  0
  158.5470  212.8690  152.8140 C   0  0  0  0  0  0  0  0  0  0  0  0
  161.3730  210.6520  152.5020 C   0  0  2  0  0  3  0  0  0  0  0  0
  161.9850  211.0660  150.3050 C   0  0  0  0  0  2  0  0  0  0  0  0
  160.0010  211.8390  154.6570 C   0  0  0  0  0  2  0  0  0  0  0  0
  160.9820  210.1550  156.1930 C   0  0  0  0  0  0  0  0  0  0  0  0
  157.4550  213.5300  153.3750 O   0  0  0  0  0  0  0  0  0  0  0  0
  156.3280  213.9110  152.5990 C   0  0  0  0  0  1  0  0  0  0  0  0
  161.8110  207.5290  153.0650 O   0  0  0  0  0  0  0  0  0  0  0  0
  161.1540  206.7550  152.1040 C   0  0  0  0  0  2  0  0  0  0  0  0
  161.2120  207.4460  150.7510 C   0  0  0  0  0  2  0  0  0  0  0  0
  161.7660  206.5170  149.6830 C   0  0  0  0  0  2  0  0  0  0  0  0
  160.6490  205.6970  149.0590 C   0  0  0  0  0  2  0  0  0  0  0  0
  161.2080  204.4360  148.4200 C   0  0  0  0  0  2  0  0  0  0  0  0
  160.8480  202.6060  151.5470 O   0  0  0  0  0  0  0  0  0  0  0  0
  161.0090  203.5350  150.7110 C   0  0  0  0  0  3  0  0  0  0  0  0
  160.8360  201.8200  147.4840 O   0  0  0  0  0  0  0  0  0  0  0  0
  161.0250  203.2880  149.2990 N   0  0  0  0  0  0  0  0  0  0  0  0
  160.8740  201.9710  148.7340 C   0  0  0  0  0  0  0  0  0  0  0  0
  160.7700  200.8510  149.5500 O   0  0  0  0  0  1  0  0  0  0  0  0
  160.9260  213.0540  149.2240 O   0  0  0  0  0  0  0  0  0  0  0  0
  162.6870  213.6460  147.7330 C   0  0  0  0  0  2  0  0  0  0  0  0
  161.4000  213.5580  146.9450 C   0  0  0  0  0  2  0  0  0  0  0  0
  161.6460  212.6090  148.1000 C   0  0  0  0  0  3  0  0  0  0  0  0
  1 21  1  1  0  0  0
  1 12  1  0  0  0  0
  1  3  1  0  0  0  0
  2 18  2  0  0  0  0
  3 13  1  0  0  0  0
  4 15  1  0  0  0  0
  4  5  1  0  0  0  0
  5 17  1  0  0  0  0
  6 14  2  0  0  0  0
  7 15  1  0  0  0  0
  9 16  1  0  0  0  0
  9 11  1  0  0  0  0
 11  6  1  0  0  0  0
 11  4  1  0  0  0  0
 12  2  1  0  0  0  0
 13 10  1  0  0  0  0
 14 19  1  0  0  0  0
 14  5  1  0  0  0  0
 15 12  1  0  0  0  0
 16  7  1  0  0  0  0
 17  2  1  0  0  0  0
 18 10  1  0  0  0  0
 18  8  1  0  0  0  0
 20 19  1  0  0  0  0
 22 21  1  0  0  0  0
 23 22  1  0  0  0  0
 24 23  1  0  0  0  0
 25 24  1  0  0  0  0
 26 25  1  0  0  0  0
 26 30  1  0  0  0  0
 28 27  2  0  0  0  0
 29 31  2  0  0  0  0
 30 28  1  0  0  0  0
 31 30  1  0  0  0  0
 31 32  1  0  0  0  0
 33  9  1  0  0  0  0
 34 36  1  0  0  0  0
 35 34  1  0  0  0  0
 35 36  1  0  0  0  0
 36 33  1  0  0  0  0
M  END
>  <MODEL>
5

>  <REMARK>
 VINA RESULT:      -5.8      2.490      8.514
  Name = 
  10 active torsions:
  status: ('A' for Active; 'I' for Inactive)
    1  A    between atoms: C_1  and  O_2
    2  A    between atoms: O_2  and  C_30
    3  A    between atoms: O_4  and  C_31
    4  A    between atoms: C_9  and  C_10
    5  A    between atoms: C_9  and  C_25
    6  A    between atoms: C_10  and  C_29
    7  A    between atoms: N_15  and  C_29
    8  A    between atoms: C_19  and  O_35
    9  A    between atoms: C_23  and  O_35
   10  A    between atoms: C_25  and  C_30
                            x       y       z     vdW  Elec       q    Type
                         _______ _______ _______ _____ _____    ______ ____

>  <TORSDO>
F 10

$$$$
=
 OpenBabel11072414353D

 36 40  0  0  1  0  0  0  0  0999 V2000
  160.8200  206.1300  149.7890 C   0  0  1  0  0  3  0  0  0  0  0  0
  161.6990  206.7690  152.1280 C   0  0  0  0  0  0  0  0  0  0  0  0
  160.0280  205.0500  150.5460 C   0  0  0  0  0  2  0  0  0  0  0  0
  160.9980  209.1630  150.7060 C   0  0  1  0  0  3  0  0  0  0  0  0
  160.4600  208.9300  152.1020 C   0  0  2  0  0  3  0  0  0  0  0  0
  160.9260  211.2220  151.7860 N   0  0  0  0  0  0  0  0  0  0  0  0
  162.2510  208.5370  148.8020 O   0  0  0  0  0  0  0  0  0  0  0  0
  161.5760  205.5140  154.1390 O   0  0  0  0  0  1  0  0  0  0  0  0
  161.8610  210.9720  149.3810 C   0  0  2  0  0  3  0  0  0  0  0  0
  162.0510  204.3310  151.9970 C   0  0  0  0  0  2  0  0  0  0  0  0
  161.6810  210.4700  150.8090 C   0  0  2  0  0  3  0  0  0  0  0  0
  161.9230  206.8320  150.6130 C   0  0  2  0  0  3  0  0  0  0  0  0
  160.8840  203.9000  151.0960 C   0  0  0  0  0  2  0  0  0  0  0  0
  160.3570  210.3530  152.5700 C   0  0  0  0  0  0  0  0  0  0  0  0
  162.1110  208.2900  150.1900 C   0  0  2  0  0  3  0  0  0  0  0  0
  162.7060  209.8860  148.6170 C   0  0  0  0  0  2  0  0  0  0  0  0
  161.4150  208.0430  152.9080 C   0  0  0  0  0  2  0  0  0  0  0  0
  161.7730  205.5920  152.7650 C   0  0  0  0  0  0  0  0  0  0  0  0
  159.6300  210.7200  153.7020 O   0  0  0  0  0  0  0  0  0  0  0  0
  159.4810  212.0780  154.0910 C   0  0  0  0  0  1  0  0  0  0  0  0
  161.3650  205.6000  148.6170 O   0  0  0  0  0  0  0  0  0  0  0  0
  160.5260  206.0490  147.5930 C   0  0  0  0  0  2  0  0  0  0  0  0
  161.3510  206.4400  146.3780 C   0  0  0  0  0  2  0  0  0  0  0  0
  162.6500  205.6520  146.3180 C   0  0  0  0  0  2  0  0  0  0  0  0
  162.5090  204.4650  145.3790 C   0  0  0  0  0  2  0  0  0  0  0  0
  161.9180  203.2730  146.1140 C   0  0  0  0  0  2  0  0  0  0  0  0
  159.0980  203.1980  143.8110 O   0  0  0  0  0  0  0  0  0  0  0  0
  160.0750  203.5940  144.5010 C   0  0  0  0  0  3  0  0  0  0  0  0
  161.1640  200.5760  146.2590 O   0  0  0  0  0  1  0  0  0  0  0  0
  160.7970  202.7110  145.3680 N   0  0  0  0  0  0  0  0  0  0  0  0
  160.4570  201.3210  145.5280 C   0  0  0  0  0  0  0  0  0  0  0  0
  159.3520  200.7770  144.8850 O   0  0  0  0  0  0  0  0  0  0  0  0
  162.4190  212.2690  149.3050 O   0  0  0  0  0  0  0  0  0  0  0  0
  161.7790  213.0130  147.1350 C   0  0  0  0  0  2  0  0  0  0  0  0
  162.3290  214.1930  147.9040 C   0  0  0  0  0  2  0  0  0  0  0  0
  161.5330  213.1240  148.6250 C   0  0  0  0  0  3  0  0  0  0  0  0
  1 21  1  6  0  0  0
  1  3  1  0  0  0  0
  1 12  1  0  0  0  0
  2 18  2  0  0  0  0
  2 17  1  0  0  0  0
  3 13  1  0  0  0  0
  4 11  1  0  0  0  0
  4  5  1  0  0  0  0
  5 14  1  0  0  0  0
  5 17  1  0  0  0  0
  6 14  2  0  0  0  0
  7 15  1  0  0  0  0
  9 11  1  0  0  0  0
 10 18  1  0  0  0  0
 11  6  1  0  0  0  0
 12  2  1  0  0  0  0
 13 10  1  0  0  0  0
 14 19  1  0  0  0  0
 15 12  1  0  0  0  0
 15  4  1  0  0  0  0
 16  7  1  0  0  0  0
 16  9  1  0  0  0  0
 18  8  1  0  0  0  0
 19 20  1  0  0  0  0
 22 21  1  0  0  0  0
 23 22  1  0  0  0  0
 24 23  1  0  0  0  0
 25 26  1  0  0  0  0
 25 24  1  0  0  0  0
 27 28  2  0  0  0  0
 28 30  1  0  0  0  0
 30 31  1  0  0  0  0
 30 26  1  0  0  0  0
 31 29  1  0  0  0  0
 32 31  2  0  0  0  0
 33  9  1  0  0  0  0
 34 35  1  0  0  0  0
 34 36  1  0  0  0  0
 35 36  1  0  0  0  0
 36 33  1  0  0  0  0
M  END
>  <MODEL>
6

>  <REMARK>
 VINA RESULT:      -5.7      2.682      9.463
  Name = 
  10 active torsions:
  status: ('A' for Active; 'I' for Inactive)
    1  A    between atoms: C_1  and  O_2
    2  A    between atoms: O_2  and  C_30
    3  A    between atoms: O_4  and  C_31
    4  A    between atoms: C_9  and  C_10
    5  A    between atoms: C_9  and  C_25
    6  A    between atoms: C_10  and  C_29
    7  A    between atoms: N_15  and  C_29
    8  A    between atoms: C_19  and  O_35
    9  A    between atoms: C_23  and  O_35
   10  A    between atoms: C_25  and  C_30
                            x       y       z     vdW  Elec       q    Type
                         _______ _______ _______ _____ _____    ______ ____

>  <TORSDO>
F 10

$$$$
=
 OpenBabel11072414353D

 36 40  0  0  1  0  0  0  0  0999 V2000
  162.5520  209.5960  151.6070 C   0  0  1  0  0  3  0  0  0  0  0  0
  160.7730  208.0490  152.6510 C   0  0  0  0  0  0  0  0  0  0  0  0
  162.9680  209.8560  153.0640 C   0  0  0  0  0  2  0  0  0  0  0  0
  161.9800  206.7100  150.4150 C   0  0  1  0  0  3  0  0  0  0  0  0
  161.8900  206.0100  151.7550 C   0  0  2  0  0  3  0  0  0  0  0  0
  161.5760  204.4560  150.0070 N   0  0  0  0  0  0  0  0  0  0  0  0
  161.6400  208.5570  148.9790 O   0  0  0  0  0  0  0  0  0  0  0  0
  160.0590  207.9450  154.9130 O   0  0  0  0  0  1  0  0  0  0  0  0
  161.7300  206.1890  148.0840 C   0  0  2  0  0  3  0  0  0  0  0  0
  160.5300  210.1680  153.8890 C   0  0  0  0  0  2  0  0  0  0  0  0
  161.3040  205.7780  149.4880 C   0  0  2  0  0  3  0  0  0  0  0  0
  161.2000  208.8700  151.4290 C   0  0  2  0  0  3  0  0  0  0  0  0
  161.9710  210.7020  153.8700 C   0  0  0  0  0  2  0  0  0  0  0  0
  161.7750  204.5880  151.2860 C   0  0  0  0  0  0  0  0  0  0  0  0
  161.1920  207.9730  150.1900 C   0  0  2  0  0  3  0  0  0  0  0  0
  161.2900  207.6880  147.8910 C   0  0  0  0  0  2  0  0  0  0  0  0
  160.6940  206.5330  152.5590 C   0  0  0  0  0  2  0  0  0  0  0  0
  160.4520  208.6720  153.7940 C   0  0  0  0  0  0  0  0  0  0  0  0
  161.9600  203.4990  152.1370 O   0  0  0  0  0  0  0  0  0  0  0  0
  161.3780  202.2320  151.8720 C   0  0  0  0  0  1  0  0  0  0  0  0
  162.5500  210.7910  150.8820 O   0  0  0  0  0  0  0  0  0  0  0  0
  161.2020  211.1440  150.7720 C   0  0  0  0  0  2  0  0  0  0  0  0
  161.0280  212.1980  149.6910 C   0  0  0  0  0  2  0  0  0  0  0  0
  161.9550  211.9380  148.5140 C   0  0  0  0  0  2  0  0  0  0  0  0
  162.3630  213.2480  147.8590 C   0  0  0  0  0  2  0  0  0  0  0  0
  161.2310  213.7880  147.0000 C   0  0  0  0  0  2  0  0  0  0  0  0
  162.6000  212.8400  143.7620 O   0  0  0  0  0  0  0  0  0  0  0  0
  162.4750  213.3290  144.9160 C   0  0  0  0  0  3  0  0  0  0  0  0
  159.0850  212.3620  145.8930 O   0  0  0  0  0  1  0  0  0  0  0  0
  161.2640  213.1910  145.6690 N   0  0  0  0  0  0  0  0  0  0  0  0
  160.1030  212.5040  145.1640 C   0  0  0  0  0  0  0  0  0  0  0  0
  160.0820  211.9890  143.8730 O   0  0  0  0  0  0  0  0  0  0  0  0
  161.2420  205.3290  147.0730 O   0  0  0  0  0  0  0  0  0  0  0  0
  160.4570  205.8280  144.8800 C   0  0  0  0  0  2  0  0  0  0  0  0
  161.4660  204.7060  144.7850 C   0  0  0  0  0  2  0  0  0  0  0  0
  161.6500  205.8040  145.8130 C   0  0  0  0  0  3  0  0  0  0  0  0
  1 21  1  6  0  0  0
  1  3  1  0  0  0  0
  2 18  2  0  0  0  0
  3 13  1  0  0  0  0
  4  5  1  0  0  0  0
  5 17  1  0  0  0  0
  6 14  2  0  0  0  0
  7 15  1  0  0  0  0
  9 11  1  0  0  0  0
 11  6  1  0  0  0  0
 11  4  1  0  0  0  0
 12  1  1  0  0  0  0
 12  2  1  0  0  0  0
 13 10  1  0  0  0  0
 14  5  1  0  0  0  0
 14 19  1  0  0  0  0
 15  4  1  0  0  0  0
 15 12  1  0  0  0  0
 16  9  1  0  0  0  0
 16  7  1  0  0  0  0
 17  2  1  0  0  0  0
 18 10  1  0  0  0  0
 18  8  1  0  0  0  0
 20 19  1  0  0  0  0
 22 21  1  0  0  0  0
 23 22  1  0  0  0  0
 24 23  1  0  0  0  0
 25 24  1  0  0  0  0
 26 25  1  0  0  0  0
 27 28  2  0  0  0  0
 28 30  1  0  0  0  0
 30 26  1  0  0  0  0
 31 30  1  0  0  0  0
 31 29  1  0  0  0  0
 32 31  2  0  0  0  0
 33  9  1  0  0  0  0
 34 36  1  0  0  0  0
 35 34  1  0  0  0  0
 35 36  1  0  0  0  0
 36 33  1  0  0  0  0
M  END
>  <MODEL>
7

>  <REMARK>
 VINA RESULT:      -5.1      3.318      6.681
  Name = 
  10 active torsions:
  status: ('A' for Active; 'I' for Inactive)
    1  A    between atoms: C_1  and  O_2
    2  A    between atoms: O_2  and  C_30
    3  A    between atoms: O_4  and  C_31
    4  A    between atoms: C_9  and  C_10
    5  A    between atoms: C_9  and  C_25
    6  A    between atoms: C_10  and  C_29
    7  A    between atoms: N_15  and  C_29
    8  A    between atoms: C_19  and  O_35
    9  A    between atoms: C_23  and  O_35
   10  A    between atoms: C_25  and  C_30
                            x       y       z     vdW  Elec       q    Type
                         _______ _______ _______ _____ _____    ______ ____

>  <TORSDO>
F 10

$$$$
=
 OpenBabel11072414353D

 36 40  0  0  1  0  0  0  0  0999 V2000
  162.4110  205.1820  151.7280 C   0  0  1  0  0  3  0  0  0  0  0  0
  160.6870  204.5670  149.9110 C   0  0  0  0  0  0  0  0  0  0  0  0
  162.6960  203.6710  151.7580 C   0  0  0  0  0  2  0  0  0  0  0  0
  162.1570  206.8830  149.0600 C   0  0  1  0  0  3  0  0  0  0  0  0
  162.0240  205.6920  148.1350 C   0  0  2  0  0  3  0  0  0  0  0  0
  161.9630  207.6960  146.8900 N   0  0  0  0  0  0  0  0  0  0  0  0
  161.7790  208.0140  151.1010 O   0  0  0  0  0  0  0  0  0  0  0  0
  159.8190  202.4240  149.3720 O   0  0  0  0  0  1  0  0  0  0  0  0
  162.1210  209.2820  148.9350 C   0  0  2  0  0  3  0  0  0  0  0  0
  160.1870  203.0180  151.7640 C   0  0  0  0  0  2  0  0  0  0  0  0
  161.6260  208.0080  148.2610 C   0  0  2  0  0  3  0  0  0  0  0  0
  161.1360  205.5940  150.9570 C   0  0  2  0  0  3  0  0  0  0  0  0
  161.5780  202.8240  152.3860 C   0  0  0  0  0  2  0  0  0  0  0  0
  162.0560  206.4000  146.8110 C   0  0  0  0  0  0  0  0  0  0  0  0
  161.2900  206.9610  150.2890 C   0  0  2  0  0  3  0  0  0  0  0  0
  161.5790  209.2580  150.4130 C   0  0  0  0  0  2  0  0  0  0  0  0
  160.7340  204.9180  148.4320 C   0  0  0  0  0  2  0  0  0  0  0  0
  160.2340  203.3680  150.3040 C   0  0  0  0  0  0  0  0  0  0  0  0
  162.2640  205.7300  145.6060 O   0  0  0  0  0  0  0  0  0  0  0  0
  161.2060  205.4890  144.6900 C   0  0  0  0  0  1  0  0  0  0  0  0
  162.3680  205.6940  153.0270 O   0  0  0  0  0  0  0  0  0  0  0  0
  161.0110  205.9070  153.2870 C   0  0  0  0  0  2  0  0  0  0  0  0
  160.8330  207.1680  154.1180 C   0  0  0  0  0  2  0  0  0  0  0  0
  160.0810  206.8760  155.4060 C   0  0  0  0  0  2  0  0  0  0  0  0
  160.0790  208.0980  156.3090 C   0  0  0  0  0  2  0  0  0  0  0  0
  161.0400  209.1510  155.7810 C   0  0  0  0  0  2  0  0  0  0  0  0
  158.3960  211.6450  155.5570 O   0  0  0  0  0  0  0  0  0  0  0  0
  159.0910  210.6610  155.9270 C   0  0  0  0  0  3  0  0  0  0  0  0
  161.9300  210.7030  153.6220 O   0  0  0  0  0  1  0  0  0  0  0  0
  160.3100  210.3030  155.2640 N   0  0  0  0  0  0  0  0  0  0  0  0
  160.8230  211.0250  154.1280 C   0  0  0  0  0  0  0  0  0  0  0  0
  160.1120  212.0810  153.5720 O   0  0  0  0  0  0  0  0  0  0  0  0
  161.7780  210.4610  148.2330 O   0  0  0  0  0  0  0  0  0  0  0  0
  161.4240  212.7810  148.6390 C   0  0  0  0  0  2  0  0  0  0  0  0
  162.7240  212.6180  147.8820 C   0  0  0  0  0  2  0  0  0  0  0  0
  162.3070  211.5790  148.9020 C   0  0  0  0  0  3  0  0  0  0  0  0
  1  3  1  0  0  0  0
  1 21  1  1  0  0  0
  2 18  2  0  0  0  0
  2 12  1  0  0  0  0
  3 13  1  0  0  0  0
  4 15  1  0  0  0  0
  5 17  1  0  0  0  0
  5  4  1  0  0  0  0
  6 11  1  0  0  0  0
  8 18  1  0  0  0  0
  9 16  1  0  0  0  0
 10 13  1  0  0  0  0
 11  9  1  0  0  0  0
 11  4  1  0  0  0  0
 12  1  1  0  0  0  0
 14  6  2  0  0  0  0
 14  5  1  0  0  0  0
 15 12  1  0  0  0  0
 15  7  1  0  0  0  0
 16  7  1  0  0  0  0
 17  2  1  0  0  0  0
 18 10  1  0  0  0  0
 19 14  1  0  0  0  0
 20 19  1  0  0  0  0
 21 22  1  0  0  0  0
 22 23  1  0  0  0  0
 23 24  1  0  0  0  0
 24 25  1  0  0  0  0
 26 25  1  0  0  0  0
 27 28  2  0  0  0  0
 29 31  1  0  0  0  0
 30 26  1  0  0  0  0
 30 28  1  0  0  0  0
 31 30  1  0  0  0  0
 32 31  2  0  0  0  0
 33 36  1  0  0  0  0
 33  9  1  0  0  0  0
 34 36  1  0  0  0  0
 35 34  1  0  0  0  0
 35 36  1  0  0  0  0
M  END
>  <MODEL>
8

>  <REMARK>
 VINA RESULT:      -5.1      1.938      5.189
  Name = 
  10 active torsions:
  status: ('A' for Active; 'I' for Inactive)
    1  A    between atoms: C_1  and  O_2
    2  A    between atoms: O_2  and  C_30
    3  A    between atoms: O_4  and  C_31
    4  A    between atoms: C_9  and  C_10
    5  A    between atoms: C_9  and  C_25
    6  A    between atoms: C_10  and  C_29
    7  A    between atoms: N_15  and  C_29
    8  A    between atoms: C_19  and  O_35
    9  A    between atoms: C_23  and  O_35
   10  A    between atoms: C_25  and  C_30
                            x       y       z     vdW  Elec       q    Type
                         _______ _______ _______ _____ _____    ______ ____

>  <TORSDO>
F 10

$$$$
=
 OpenBabel11072414353D

 36 40  0  0  1  0  0  0  0  0999 V2000
  162.5580  206.4710  150.8080 C   0  0  1  0  0  3  0  0  0  0  0  0
  160.7590  204.6460  151.1060 C   0  0  0  0  0  0  0  0  0  0  0  0
  163.1520  205.8870  152.1010 C   0  0  0  0  0  2  0  0  0  0  0  0
  161.5800  204.7120  148.3540 C   0  0  1  0  0  3  0  0  0  0  0  0
  161.5680  203.3980  149.1080 C   0  0  2  0  0  3  0  0  0  0  0  0
  160.9150  203.0530  146.8660 N   0  0  0  0  0  0  0  0  0  0  0  0
  161.2680  207.0490  148.1970 O   0  0  0  0  0  0  0  0  0  0  0  0
  160.2890  203.3460  153.0360 O   0  0  0  0  0  1  0  0  0  0  0  0
  161.0280  205.5480  146.1710 C   0  0  2  0  0  3  0  0  0  0  0  0
  160.8610  205.7570  153.3060 C   0  0  0  0  0  2  0  0  0  0  0  0
  160.7190  204.4500  147.1810 C   0  0  2  0  0  3  0  0  0  0  0  0
  161.1290  205.9910  150.4670 C   0  0  2  0  0  3  0  0  0  0  0  0
  162.3360  206.1820  153.3680 C   0  0  0  0  0  2  0  0  0  0  0  0
  161.2640  202.4630  147.9720 C   0  0  0  0  0  0  0  0  0  0  0  0
  160.8990  205.9120  148.9570 C   0  0  2  0  0  3  0  0  0  0  0  0
  160.7180  206.9210  146.8770 C   0  0  0  0  0  2  0  0  0  0  0  0
  160.5230  203.4270  150.2290 C   0  0  0  0  0  2  0  0  0  0  0  0
  160.6270  204.5550  152.4370 C   0  0  0  0  0  0  0  0  0  0  0  0
  161.4330  201.0820  148.0700 O   0  0  0  0  0  0  0  0  0  0  0  0
  161.2080  200.2180  146.9670 C   0  0  0  0  0  1  0  0  0  0  0  0
  162.5930  207.8680  150.8460 O   0  0  0  0  0  0  0  0  0  0  0  0
  161.2850  208.2550  151.1500 C   0  0  0  0  0  2  0  0  0  0  0  0
  161.2940  209.5930  151.8720 C   0  0  0  0  0  2  0  0  0  0  0  0
  160.4340  209.5470  153.1250 C   0  0  0  0  0  2  0  0  0  0  0  0
  160.3940  210.9130  153.7920 C   0  0  0  0  0  2  0  0  0  0  0  0
  159.1940  211.0160  154.7200 C   0  0  0  0  0  2  0  0  0  0  0  0
  157.7230  213.4690  152.4680 O   0  0  0  0  0  0  0  0  0  0  0  0
  158.5460  212.7060  153.0390 C   0  0  0  0  0  3  0  0  0  0  0  0
  156.5330  211.0450  155.6040 O   0  0  0  0  0  1  0  0  0  0  0  0
  158.1640  211.8680  154.1380 N   0  0  0  0  0  0  0  0  0  0  0  0
  156.8280  211.8450  154.6760 C   0  0  0  0  0  0  0  0  0  0  0  0
  155.8460  212.6990  154.1880 O   0  0  0  0  0  0  0  0  0  0  0  0
  160.3510  205.3880  144.9400 O   0  0  0  0  0  0  0  0  0  0  0  0
  162.5640  205.4830  144.0630 C   0  0  0  0  0  2  0  0  0  0  0  0
  161.5940  205.8270  142.9550 C   0  0  0  0  0  2  0  0  0  0  0  0
  161.2150  204.7970  144.0010 C   0  0  0  0  0  3  0  0  0  0  0  0
  1 21  1  1  0  0  0
  1  3  1  0  0  0  0
  2 18  2  0  0  0  0
  3 13  1  0  0  0  0
  4 15  1  0  0  0  0
  4  5  1  0  0  0  0
  5 17  1  0  0  0  0
  6 11  1  0  0  0  0
  6 14  2  0  0  0  0
  7 15  1  0  0  0  0
  9 16  1  0  0  0  0
  9 11  1  0  0  0  0
 10 13  1  0  0  0  0
 11  4  1  0  0  0  0
 12  1  1  0  0  0  0
 12  2  1  0  0  0  0
 14 19  1  0  0  0  0
 14  5  1  0  0  0  0
 15 12  1  0  0  0  0
 16  7  1  0  0  0  0
 17  2  1  0  0  0  0
 18  8  1  0  0  0  0
 18 10  1  0  0  0  0
 20 19  1  0  0  0  0
 21 22  1  0  0  0  0
 22 23  1  0  0  0  0
 23 24  1  0  0  0  0
 24 25  1  0  0  0  0
 25 26  1  0  0  0  0
 27 28  2  0  0  0  0
 28 30  1  0  0  0  0
 30 31  1  0  0  0  0
 30 26  1  0  0  0  0
 31 29  1  0  0  0  0
 32 31  2  0  0  0  0
 33  9  1  0  0  0  0
 35 36  1  0  0  0  0
 35 34  1  0  0  0  0
 36 34  1  0  0  0  0
 36 33  1  0  0  0  0
M  END
>  <MODEL>
9

>  <REMARK>
 VINA RESULT:      -4.5      2.204      4.495
  Name = 
  10 active torsions:
  status: ('A' for Active; 'I' for Inactive)
    1  A    between atoms: C_1  and  O_2
    2  A    between atoms: O_2  and  C_30
    3  A    between atoms: O_4  and  C_31
    4  A    between atoms: C_9  and  C_10
    5  A    between atoms: C_9  and  C_25
    6  A    between atoms: C_10  and  C_29
    7  A    between atoms: N_15  and  C_29
    8  A    between atoms: C_19  and  O_35
    9  A    between atoms: C_23  and  O_35
   10  A    between atoms: C_25  and  C_30
                            x       y       z     vdW  Elec       q    Type
                         _______ _______ _______ _____ _____    ______ ____

>  <TORSDO>
F 10

$$$$
