=
 OpenBabel11072410343D

 54 56  0  0  1  0  0  0  0  0999 V2000
  161.5530  209.3680  149.8820 C   0  0  1  0  0  3  0  0  0  0  0  0
  162.3220  210.1040  148.7950 C   0  0  0  0  0  2  0  0  0  0  0  0
  161.4560  210.4380  147.7560 O   0  0  0  0  0  0  0  0  0  0  0  0
  160.6030  211.4040  148.2890 C   0  0  0  0  0  2  0  0  0  0  0  0
  161.7620  214.4520  144.3040 C   0  0  0  0  0  3  0  0  0  0  0  0
  161.0230  212.8730  146.2630 C   0  0  1  0  0  3  0  0  0  0  0  0
  160.0750  213.7380  148.3100 O   0  0  0  0  0  1  0  0  0  0  0  0
  159.6570  212.6780  145.6530 C   0  0  0  0  0  3  0  0  0  0  0  0
  161.7000  214.1910  145.7990 C   0  0  1  0  0  3  0  0  0  0  0  0
  163.2870  212.1380  148.0900 F   0  0  0  0  0  0  0  0  0  0  0  0
  160.7470  212.3000  143.4850 C   0  0  2  0  0  3  0  0  0  0  0  0
  159.5300  212.3940  144.3550 C   0  0  0  0  0  3  0  0  0  0  0  0
  161.3610  213.6520  143.2990 C   0  0  0  0  0  3  0  0  0  0  0  0
  163.0020  214.2700  146.3230 O   0  0  0  0  0  0  0  0  0  0  0  0
  162.8770  214.4480  147.7120 C   0  0  0  0  0  2  0  0  0  0  0  0
  160.9900  212.8060  147.8070 C   0  0  1  0  0  0  0  0  0  0  0  0
  162.3830  213.1510  148.3580 C   0  0  1  0  0  3  0  0  0  0  0  0
  159.2470  211.6070  141.7760 O   0  0  0  0  0  0  0  0  0  0  0  0
  160.4450  211.6640  142.1670 C   0  0  0  0  0  0  0  0  0  0  0  0
  161.4870  211.1020  141.3680 N   0  0  0  0  0  2  0  0  0  0  0  0
  161.2230  210.6240  140.0790 N   0  0  0  0  0  1  0  0  0  0  0  0
  161.8030  207.8530  149.8460 C   0  0  1  0  0  3  0  0  0  0  0  0
  162.3970  207.3810  148.5530 C   0  0  0  0  0  0  0  0  0  0  0  0
  163.5010  207.8400  148.1450 O   0  0  0  0  0  0  0  0  0  0  0  0
  161.6980  206.4360  147.8010 O   0  0  0  0  0  0  0  0  0  0  0  0
  162.3160  205.6090  146.8220 C   0  0  0  0  0  2  0  0  0  0  0  0
  161.3010  204.6820  146.1680 C   0  0  0  0  0  2  0  0  0  0  0  0
  161.7840  203.3060  146.1560 N   0  0  0  0  0  2  0  0  0  0  0  0
  160.2280  201.5600  145.4710 C   0  0  0  0  0  1  0  0  0  0  0  0
  160.7160  202.4280  146.6190 C   0  0  1  0  0  3  0  0  0  0  0  0
  161.0210  200.2030  147.4950 O   0  0  0  0  0  1  0  0  0  0  0  0
  161.1380  201.5610  147.8210 C   0  0  2  0  0  3  0  0  0  0  0  0
  160.2930  203.2600  149.3110 O   0  0  0  0  0  1  0  0  0  0  0  0
  159.1110  201.2050  149.3120 C   0  0  0  0  0  1  0  0  0  0  0  0
  160.4710  201.8810  149.1810 C   0  0  1  0  0  0  0  0  0  0  0  0
  161.3730  201.4260  150.3290 C   0  0  0  0  0  2  0  0  0  0  0  0
  161.8660  202.5130  151.0600 O   0  0  0  0  0  1  0  0  0  0  0  0
  162.6060  207.3620  151.0500 C   0  0  0  0  0  2  0  0  0  0  0  0
  160.8220  205.7890  151.6810 C   0  0  0  0  0  2  0  0  0  0  0  0
  162.1220  206.0320  151.5340 C   0  0  0  0  0  3  0  0  0  0  0  0
  161.8170  209.9820  151.2520 C   0  0  0  0  0  2  0  0  0  0  0  0
  160.6170  210.8070  151.6850 C   0  0  0  0  0  2  0  0  0  0  0  0
  160.6830  211.1060  153.1830 C   0  0  1  0  0  3  0  0  0  0  0  0
  159.5590  212.0700  153.5970 C   0  0  2  0  0  3  0  0  0  0  0  0
  159.6310  213.2620  152.8670 O   0  0  0  0  0  1  0  0  0  0  0  0
  159.6350  212.4070  155.0810 C   0  0  0  0  0  2  0  0  0  0  0  0
  157.6700  211.5260  155.5550 C   0  0  0  0  0  1  0  0  0  0  0  0
  158.3660  212.7350  155.5610 O   0  0  0  0  0  0  0  0  0  0  0  0
  160.5450  209.7940  153.9480 C   0  0  0  0  0  2  0  0  0  0  0  0
  161.6780  209.5920  154.9400 C   0  0  1  0  0  3  0  0  0  0  0  0
  162.3140  210.8200  155.1490 O   0  0  0  0  0  1  0  0  0  0  0  0
  161.1430  208.9700  156.2400 C   0  0  0  0  0  3  0  0  0  0  0  0
  161.1900  207.4480  156.2620 C   0  0  0  0  0  2  0  0  0  0  0  0
  159.8910  208.1630  155.9520 C   0  0  0  0  0  2  0  0  0  0  0  0
  1  2  1  6  0  0  0
  1 41  1  0  0  0  0
  3  4  1  0  0  0  0
  3  2  1  0  0  0  0
  6  8  1  1  0  0  0
  6 16  1  0  0  0  0
  9  5  1  6  0  0  0
  9  6  1  0  0  0  0
  9 14  1  0  0  0  0
 11 19  1  6  0  0  0
 11 12  1  0  0  0  0
 12  8  2  0  0  0  0
 13 11  1  0  0  0  0
 13  5  2  0  0  0  0
 14 15  1  0  0  0  0
 15 17  1  0  0  0  0
 16  4  1  0  0  0  0
 16  7  1  1  0  0  0
 16 17  1  0  0  0  0
 17 10  1  6  0  0  0
 18 19  2  0  0  0  0
 20 19  1  0  0  0  0
 21 20  1  0  0  0  0
 22  1  1  0  0  0  0
 22 38  1  1  0  0  0
 23 22  1  0  0  0  0
 24 23  2  0  0  0  0
 25 23  1  0  0  0  0
 26 25  1  0  0  0  0
 27 26  1  0  0  0  0
 28 27  1  0  0  0  0
 28 30  1  0  0  0  0
 30 29  1  6  0  0  0
 30 32  1  0  0  0  0
 32 31  1  6  0  0  0
 32 35  1  0  0  0  0
 35 33  1  0  0  0  0
 35 34  1  1  0  0  0
 35 36  1  0  0  0  0
 36 37  1  0  0  0  0
 38 40  1  0  0  0  0
 40 39  2  0  0  0  0
 41 42  1  0  0  0  0
 43 42  1  6  0  0  0
 43 44  1  0  0  0  0
 43 49  1  0  0  0  0
 44 45  1  6  0  0  0
 44 46  1  0  0  0  0
 46 48  1  0  0  0  0
 47 48  1  0  0  0  0
 49 50  1  0  0  0  0
 50 51  1  1  0  0  0
 50 52  1  0  0  0  0
 52 53  1  0  0  0  0
 54 52  1  0  0  0  0
 54 53  1  0  0  0  0
M  END
>  <MODEL>
1

>  <REMARK>
 VINA RESULT:      -4.7      0.000      0.000
  Name = 
  26 active torsions:
  status: ('A' for Active; 'I' for Inactive)
    1  A    between atoms: C_2  and  C_6
    2  A    between atoms: C_2  and  O_21
    3  A    between atoms: C_6  and  C_23
    4  A    between atoms: C_6  and  C_45
    5  A    between atoms: C_7  and  O_37
    6  A    between atoms: C_7  and  C_45
    7  A    between atoms: C_8  and  C_29
    8  A    between atoms: C_8  and  O_43
    9  A    between atoms: C_14  and  C_28
   10  A    between atoms: C_14  and  C_40
   11  A    between atoms: C_15  and  O_37
   12  A    between atoms: C_15  and  C_47
   13  A    between atoms: C_16  and  C_32
   14  A    between atoms: C_19  and  C_29
   15  A    between atoms: C_19  and  C_41
   16  A    between atoms: C_19  and  C_50
   17  A    between atoms: O_21  and  C_35
   18  A    between atoms: C_22  and  C_40
   19  A    between atoms: C_23  and  C_52
   20  A    between atoms: C_25  and  C_30
   21  A    between atoms: C_26  and  C_41
   22  A    between atoms: C_26  and  C_45
   23  A    between atoms: C_28  and  N_38
   24  A    between atoms: C_32  and  C_50
   25  A    between atoms: C_34  and  C_35
   26  A    between atoms: C_34  and  N_38
                            x       y       z     vdW  Elec       q    Type
                         _______ _______ _______ _____ _____    ______ ____

>  <TORSDO>
F 26

$$$$
=
 OpenBabel11072410343D

 54 56  0  0  1  0  0  0  0  0999 V2000
  161.4320  209.3270  151.7290 C   0  0  1  0  0  3  0  0  0  0  0  0
  162.2590  208.0520  151.6790 C   0  0  0  0  0  2  0  0  0  0  0  0
  162.1340  207.4640  150.4220 O   0  0  0  0  0  0  0  0  0  0  0  0
  161.0240  206.6250  150.5210 C   0  0  0  0  0  2  0  0  0  0  0  0
  161.4410  202.3710  147.6500 C   0  0  0  0  0  3  0  0  0  0  0  0
  161.3320  204.6130  149.0050 C   0  0  1  0  0  3  0  0  0  0  0  0
  162.7520  205.0180  150.9180 O   0  0  0  0  0  1  0  0  0  0  0  0
  162.3120  205.2790  148.0730 C   0  0  0  0  0  3  0  0  0  0  0  0
  161.4620  203.0660  149.0000 C   0  0  1  0  0  3  0  0  0  0  0  0
  159.1840  204.6080  151.1010 F   0  0  0  0  0  0  0  0  0  0  0  0
  161.0350  204.3730  146.1810 C   0  0  2  0  0  3  0  0  0  0  0  0
  162.1630  205.1790  146.7500 C   0  0  0  0  0  3  0  0  0  0  0  0
  161.2570  202.9140  146.4340 C   0  0  0  0  0  3  0  0  0  0  0  0
  160.4640  202.4990  149.8120 O   0  0  0  0  0  0  0  0  0  0  0  0
  160.7700  202.8400  151.1410 C   0  0  0  0  0  2  0  0  0  0  0  0
  161.4390  205.1510  150.4510 C   0  0  1  0  0  0  0  0  0  0  0  0
  160.5150  204.3330  151.3660 C   0  0  1  0  0  3  0  0  0  0  0  0
  159.8900  204.0600  144.1210 O   0  0  0  0  0  0  0  0  0  0  0  0
  160.8350  204.6400  144.7250 C   0  0  0  0  0  0  0  0  0  0  0  0
  161.7120  205.5140  144.0120 N   0  0  0  0  0  2  0  0  0  0  0  0
  161.4490  205.8650  142.6830 N   0  0  0  0  0  1  0  0  0  0  0  0
  161.1960  209.8110  153.1670 C   0  0  1  0  0  3  0  0  0  0  0  0
  160.6420  208.7470  154.0660 C   0  0  0  0  0  0  0  0  0  0  0  0
  160.4700  207.5700  153.6420 O   0  0  0  0  0  0  0  0  0  0  0  0
  160.3060  209.0880  155.3770 O   0  0  0  0  0  0  0  0  0  0  0  0
  159.1230  209.8030  155.7160 C   0  0  0  0  0  2  0  0  0  0  0  0
  159.3740  210.7580  156.8740 C   0  0  0  0  0  2  0  0  0  0  0  0
  159.7040  212.0930  156.3880 N   0  0  0  0  0  2  0  0  0  0  0  0
  158.8370  214.3690  156.3340 C   0  0  0  0  0  1  0  0  0  0  0  0
  158.4850  212.8910  156.3410 C   0  0  1  0  0  3  0  0  0  0  0  0
  157.8320  213.4200  154.0820 O   0  0  0  0  0  1  0  0  0  0  0  0
  157.5870  212.5360  155.1400 C   0  0  2  0  0  3  0  0  0  0  0  0
  155.3960  212.0850  154.2360 O   0  0  0  0  0  1  0  0  0  0  0  0
  155.7940  211.2800  156.4310 C   0  0  0  0  0  1  0  0  0  0  0  0
  156.0720  212.3880  155.4210 C   0  0  1  0  0  0  0  0  0  0  0  0
  155.5030  213.7060  155.9480 C   0  0  0  0  0  2  0  0  0  0  0  0
  154.8970  214.4500  154.9290 O   0  0  0  0  0  1  0  0  0  0  0  0
  162.4310  210.4780  153.7710 C   0  0  0  0  0  2  0  0  0  0  0  0
  163.3550  210.9590  156.0010 C   0  0  0  0  0  2  0  0  0  0  0  0
  162.5120  210.2570  155.2490 C   0  0  0  0  0  3  0  0  0  0  0  0
  162.0300  210.4030  150.8290 C   0  0  0  0  0  2  0  0  0  0  0  0
  160.9760  211.4500  150.5080 C   0  0  0  0  0  2  0  0  0  0  0  0
  161.5850  212.5950  149.7000 C   0  0  1  0  0  3  0  0  0  0  0  0
  162.1530  212.0810  148.3670 C   0  0  2  0  0  3  0  0  0  0  0  0
  163.4910  212.4620  148.2150 O   0  0  0  0  0  1  0  0  0  0  0  0
  161.3600  212.6170  147.1810 C   0  0  0  0  0  2  0  0  0  0  0  0
  159.5540  212.4050  145.9340 C   0  0  0  0  0  1  0  0  0  0  0  0
  160.3760  211.6990  146.8130 O   0  0  0  0  0  0  0  0  0  0  0  0
  160.5010  213.6340  149.4340 C   0  0  0  0  0  2  0  0  0  0  0  0
  159.3370  213.5020  150.4020 C   0  0  1  0  0  3  0  0  0  0  0  0
  159.6990  214.0860  151.6200 O   0  0  0  0  0  1  0  0  0  0  0  0
  158.0680  214.1240  149.7970 C   0  0  0  0  0  3  0  0  0  0  0  0
  156.9050  214.2300  150.7730 C   0  0  0  0  0  2  0  0  0  0  0  0
  156.9510  213.0980  149.7670 C   0  0  0  0  0  2  0  0  0  0  0  0
  1 41  1  6  0  0  0
  1 22  1  0  0  0  0
  2  1  1  0  0  0  0
  3  4  1  0  0  0  0
  3  2  1  0  0  0  0
  6  8  1  6  0  0  0
  6 16  1  0  0  0  0
  9  5  1  6  0  0  0
  9  6  1  0  0  0  0
  9 14  1  0  0  0  0
 11 19  1  6  0  0  0
 11 13  1  0  0  0  0
 11 12  1  0  0  0  0
 12  8  2  0  0  0  0
 13  5  2  0  0  0  0
 14 15  1  0  0  0  0
 15 17  1  0  0  0  0
 16  4  1  0  0  0  0
 16  7  1  1  0  0  0
 16 17  1  0  0  0  0
 17 10  1  6  0  0  0
 18 19  2  0  0  0  0
 20 19  1  0  0  0  0
 21 20  1  0  0  0  0
 22 38  1  1  0  0  0
 22 23  1  0  0  0  0
 23 25  1  0  0  0  0
 24 23  2  0  0  0  0
 25 26  1  0  0  0  0
 26 27  1  0  0  0  0
 28 27  1  0  0  0  0
 30 29  1  6  0  0  0
 30 28  1  0  0  0  0
 32 31  1  6  0  0  0
 32 35  1  0  0  0  0
 32 30  1  0  0  0  0
 33 35  1  0  0  0  0
 35 36  1  0  0  0  0
 35 34  1  1  0  0  0
 37 36  1  0  0  0  0
 38 40  1  0  0  0  0
 40 39  2  0  0  0  0
 42 41  1  0  0  0  0
 43 49  1  6  0  0  0
 43 42  1  0  0  0  0
 44 45  1  6  0  0  0
 44 43  1  0  0  0  0
 46 44  1  0  0  0  0
 47 48  1  0  0  0  0
 48 46  1  0  0  0  0
 49 50  1  0  0  0  0
 50 51  1  1  0  0  0
 52 50  1  0  0  0  0
 52 53  1  0  0  0  0
 54 52  1  0  0  0  0
 54 53  1  0  0  0  0
M  END
>  <MODEL>
2

>  <REMARK>
 VINA RESULT:      -4.1      3.184      9.384
  Name = 
  26 active torsions:
  status: ('A' for Active; 'I' for Inactive)
    1  A    between atoms: C_2  and  C_6
    2  A    between atoms: C_2  and  O_21
    3  A    between atoms: C_6  and  C_23
    4  A    between atoms: C_6  and  C_45
    5  A    between atoms: C_7  and  O_37
    6  A    between atoms: C_7  and  C_45
    7  A    between atoms: C_8  and  C_29
    8  A    between atoms: C_8  and  O_43
    9  A    between atoms: C_14  and  C_28
   10  A    between atoms: C_14  and  C_40
   11  A    between atoms: C_15  and  O_37
   12  A    between atoms: C_15  and  C_47
   13  A    between atoms: C_16  and  C_32
   14  A    between atoms: C_19  and  C_29
   15  A    between atoms: C_19  and  C_41
   16  A    between atoms: C_19  and  C_50
   17  A    between atoms: O_21  and  C_35
   18  A    between atoms: C_22  and  C_40
   19  A    between atoms: C_23  and  C_52
   20  A    between atoms: C_25  and  C_30
   21  A    between atoms: C_26  and  C_41
   22  A    between atoms: C_26  and  C_45
   23  A    between atoms: C_28  and  N_38
   24  A    between atoms: C_32  and  C_50
   25  A    between atoms: C_34  and  C_35
   26  A    between atoms: C_34  and  N_38
                            x       y       z     vdW  Elec       q    Type
                         _______ _______ _______ _____ _____    ______ ____

>  <TORSDO>
F 26

$$$$
=
 OpenBabel11072410343D

 54 56  0  0  1  0  0  0  0  0999 V2000
  160.5340  212.6210  151.4800 C   0  0  1  0  0  3  0  0  0  0  0  0
  161.3630  211.3460  151.4950 C   0  0  0  0  0  2  0  0  0  0  0  0
  160.6190  210.3120  152.0600 O   0  0  0  0  0  0  0  0  0  0  0  0
  161.3350  209.1490  151.7750 C   0  0  0  0  0  2  0  0  0  0  0  0
  160.9590  204.4700  153.8890 C   0  0  0  0  0  3  0  0  0  0  0  0
  161.2620  206.7900  152.7050 C   0  0  1  0  0  3  0  0  0  0  0  0
  162.7860  208.4630  153.5500 O   0  0  0  0  0  1  0  0  0  0  0  0
  162.3090  206.2310  151.7760 C   0  0  0  0  0  3  0  0  0  0  0  0
  161.1340  205.9720  154.0190 C   0  0  1  0  0  3  0  0  0  0  0  0
  159.2070  208.8080  153.5470 F   0  0  0  0  0  0  0  0  0  0  0  0
  160.8430  204.3010  151.3820 C   0  0  2  0  0  3  0  0  0  0  0  0
  162.1060  205.0730  151.1440 C   0  0  0  0  0  3  0  0  0  0  0  0
  160.8290  203.7380  152.7680 C   0  0  0  0  0  3  0  0  0  0  0  0
  160.0820  206.4820  154.8000 O   0  0  0  0  0  0  0  0  0  0  0  0
  160.4810  207.7520  155.2520 C   0  0  0  0  0  2  0  0  0  0  0  0
  161.5000  208.2830  153.0280 C   0  0  1  0  0  0  0  0  0  0  0  0
  160.4810  208.7410  154.0840 C   0  0  1  0  0  3  0  0  0  0  0  0
  159.7440  203.3640  149.4930 O   0  0  0  0  0  0  0  0  0  0  0  0
  160.6460  203.2240  150.3650 C   0  0  0  0  0  0  0  0  0  0  0  0
  161.4420  202.0380  150.3890 N   0  0  0  0  0  2  0  0  0  0  0  0
  161.3470  201.0910  149.3620 N   0  0  0  0  0  1  0  0  0  0  0  0
  160.3810  213.1980  150.0660 C   0  0  1  0  0  3  0  0  0  0  0  0
  161.2090  212.4820  149.0410 C   0  0  0  0  0  0  0  0  0  0  0  0
  161.9380  213.1280  148.2370 O   0  0  0  0  0  0  0  0  0  0  0  0
  161.1460  211.0890  148.9840 O   0  0  0  0  0  0  0  0  0  0  0  0
  162.2420  210.2770  148.5790 C   0  0  0  0  0  2  0  0  0  0  0  0
  161.9860  208.8110  148.9020 C   0  0  0  0  0  2  0  0  0  0  0  0
  162.5260  207.9460  147.8600 N   0  0  0  0  0  2  0  0  0  0  0  0
  160.4900  206.8660  148.6510 C   0  0  0  0  0  1  0  0  0  0  0  0
  161.7630  206.7030  147.8380 C   0  0  1  0  0  3  0  0  0  0  0  0
  160.0610  206.2710  146.1870 O   0  0  0  0  0  1  0  0  0  0  0  0
  161.4440  206.2260  146.4090 C   0  0  2  0  0  3  0  0  0  0  0  0
  163.3790  205.0400  145.5910 O   0  0  0  0  0  1  0  0  0  0  0  0
  162.0000  203.8460  147.1050 C   0  0  0  0  0  1  0  0  0  0  0  0
  162.0470  204.8680  145.9750 C   0  0  1  0  0  0  0  0  0  0  0  0
  161.2900  204.3180  144.7650 C   0  0  0  0  0  2  0  0  0  0  0  0
  160.9240  202.9790  144.9500 O   0  0  0  0  0  1  0  0  0  0  0  0
  158.9190  213.3120  149.6340 C   0  0  0  0  0  2  0  0  0  0  0  0
  157.9550  214.3040  147.5990 C   0  0  0  0  0  2  0  0  0  0  0  0
  158.7100  214.4490  148.6840 C   0  0  0  0  0  3  0  0  0  0  0  0
  159.2000  212.4150  152.1870 C   0  0  0  0  0  2  0  0  0  0  0  0
  159.0630  213.4070  153.3300 C   0  0  0  0  0  2  0  0  0  0  0  0
  158.4350  212.7360  154.5510 C   0  0  1  0  0  3  0  0  0  0  0  0
  159.4280  212.6980  155.7240 C   0  0  2  0  0  3  0  0  0  0  0  0
  159.8160  213.9910  156.0920 O   0  0  0  0  0  1  0  0  0  0  0  0
  160.6770  211.9010  155.3690 C   0  0  0  0  0  2  0  0  0  0  0  0
  162.3680  211.1210  156.5500 C   0  0  0  0  0  1  0  0  0  0  0  0
  160.9860  211.0130  156.4000 O   0  0  0  0  0  0  0  0  0  0  0  0
  157.1910  213.5230  154.9520 C   0  0  0  0  0  2  0  0  0  0  0  0
  155.9770  212.6240  155.1100 C   0  0  1  0  0  3  0  0  0  0  0  0
  155.0090  213.0100  154.1780 O   0  0  0  0  0  1  0  0  0  0  0  0
  156.3850  211.1480  154.9680 C   0  0  0  0  0  3  0  0  0  0  0  0
  155.2110  210.1790  154.9690 C   0  0  0  0  0  2  0  0  0  0  0  0
  156.0240  210.3870  156.2300 C   0  0  0  0  0  2  0  0  0  0  0  0
  1  2  1  6  0  0  0
  1 41  1  0  0  0  0
  2  3  1  0  0  0  0
  4  3  1  0  0  0  0
  4 16  1  0  0  0  0
  6  8  1  6  0  0  0
  6 16  1  0  0  0  0
  6  9  1  0  0  0  0
  9  5  1  6  0  0  0
  9 14  1  0  0  0  0
 11 19  1  6  0  0  0
 11 13  1  0  0  0  0
 12 11  1  0  0  0  0
 12  8  2  0  0  0  0
 13  5  2  0  0  0  0
 14 15  1  0  0  0  0
 16  7  1  1  0  0  0
 16 17  1  0  0  0  0
 17 10  1  6  0  0  0
 17 15  1  0  0  0  0
 18 19  2  0  0  0  0
 19 20  1  0  0  0  0
 21 20  1  0  0  0  0
 22 38  1  6  0  0  0
 22  1  1  0  0  0  0
 23 22  1  0  0  0  0
 24 23  2  0  0  0  0
 25 23  1  0  0  0  0
 26 27  1  0  0  0  0
 26 25  1  0  0  0  0
 28 27  1  0  0  0  0
 30 28  1  0  0  0  0
 30 29  1  1  0  0  0
 32 31  1  1  0  0  0
 32 30  1  0  0  0  0
 33 35  1  0  0  0  0
 35 32  1  0  0  0  0
 35 34  1  1  0  0  0
 36 37  1  0  0  0  0
 36 35  1  0  0  0  0
 39 40  2  0  0  0  0
 40 38  1  0  0  0  0
 41 42  1  0  0  0  0
 43 42  1  6  0  0  0
 43 49  1  0  0  0  0
 43 44  1  0  0  0  0
 44 45  1  6  0  0  0
 46 44  1  0  0  0  0
 46 48  1  0  0  0  0
 48 47  1  0  0  0  0
 49 50  1  0  0  0  0
 50 51  1  6  0  0  0
 52 53  1  0  0  0  0
 52 50  1  0  0  0  0
 52 54  1  0  0  0  0
 53 54  1  0  0  0  0
M  END
>  <MODEL>
3

>  <REMARK>
 VINA RESULT:      -3.4      3.249      7.522
  Name = 
  26 active torsions:
  status: ('A' for Active; 'I' for Inactive)
    1  A    between atoms: C_2  and  C_6
    2  A    between atoms: C_2  and  O_21
    3  A    between atoms: C_6  and  C_23
    4  A    between atoms: C_6  and  C_45
    5  A    between atoms: C_7  and  O_37
    6  A    between atoms: C_7  and  C_45
    7  A    between atoms: C_8  and  C_29
    8  A    between atoms: C_8  and  O_43
    9  A    between atoms: C_14  and  C_28
   10  A    between atoms: C_14  and  C_40
   11  A    between atoms: C_15  and  O_37
   12  A    between atoms: C_15  and  C_47
   13  A    between atoms: C_16  and  C_32
   14  A    between atoms: C_19  and  C_29
   15  A    between atoms: C_19  and  C_41
   16  A    between atoms: C_19  and  C_50
   17  A    between atoms: O_21  and  C_35
   18  A    between atoms: C_22  and  C_40
   19  A    between atoms: C_23  and  C_52
   20  A    between atoms: C_25  and  C_30
   21  A    between atoms: C_26  and  C_41
   22  A    between atoms: C_26  and  C_45
   23  A    between atoms: C_28  and  N_38
   24  A    between atoms: C_32  and  C_50
   25  A    between atoms: C_34  and  C_35
   26  A    between atoms: C_34  and  N_38
                            x       y       z     vdW  Elec       q    Type
                         _______ _______ _______ _____ _____    ______ ____

>  <TORSDO>
F 26

$$$$
=
 OpenBabel11072410343D

 54 56  0  0  1  0  0  0  0  0999 V2000
  160.9060  205.0030  146.2700 C   0  0  1  0  0  3  0  0  0  0  0  0
  160.4470  206.4090  146.6250 C   0  0  0  0  0  2  0  0  0  0  0  0
  161.5240  207.1370  147.1290 O   0  0  0  0  0  0  0  0  0  0  0  0
  160.9990  207.8760  148.1900 C   0  0  0  0  0  2  0  0  0  0  0  0
  162.7110  210.6080  152.2050 C   0  0  0  0  0  3  0  0  0  0  0  0
  161.8690  209.0780  150.2490 C   0  0  1  0  0  3  0  0  0  0  0  0
  163.3160  208.4230  148.4280 O   0  0  0  0  0  1  0  0  0  0  0  0
  162.1940  207.8270  151.0250 C   0  0  0  0  0  3  0  0  0  0  0  0
  162.7000  210.3030  150.7170 C   0  0  1  0  0  3  0  0  0  0  0  0
  160.4890  210.6170  148.0720 F   0  0  0  0  0  0  0  0  0  0  0  0
  161.1060  208.8330  152.9830 C   0  0  2  0  0  3  0  0  0  0  0  0
  161.8230  207.7060  152.3010 C   0  0  0  0  0  3  0  0  0  0  0  0
  162.0320  209.9910  153.1890 C   0  0  0  0  0  3  0  0  0  0  0  0
  162.2880  211.4550  150.0250 O   0  0  0  0  0  0  0  0  0  0  0  0
  162.6820  211.2950  148.6850 C   0  0  0  0  0  2  0  0  0  0  0  0
  162.0260  208.8800  148.7230 C   0  0  1  0  0  0  0  0  0  0  0  0
  161.8170  210.2260  148.0130 C   0  0  1  0  0  3  0  0  0  0  0  0
  160.4530  207.1740  154.5560 O   0  0  0  0  0  0  0  0  0  0  0  0
  160.4920  208.4040  154.2760 C   0  0  0  0  0  0  0  0  0  0  0  0
  159.9280  209.3620  155.1740 N   0  0  0  0  0  2  0  0  0  0  0  0
  159.4710  208.9750  156.4390 N   0  0  0  0  0  1  0  0  0  0  0  0
  160.7640  204.7070  144.7710 C   0  0  1  0  0  3  0  0  0  0  0  0
  161.7020  205.5050  143.9170 C   0  0  0  0  0  0  0  0  0  0  0  0
  162.8480  205.8230  144.3440 O   0  0  0  0  0  0  0  0  0  0  0  0
  161.2800  205.9030  142.6480 O   0  0  0  0  0  0  0  0  0  0  0  0
  162.1800  206.2170  141.5920 C   0  0  0  0  0  2  0  0  0  0  0  0
  161.5540  207.2020  140.6140 C   0  0  0  0  0  2  0  0  0  0  0  0
  162.5740  208.0340  139.9870 N   0  0  0  0  0  2  0  0  0  0  0  0
  160.9770  208.4010  138.1840 C   0  0  0  0  0  1  0  0  0  0  0  0
  161.9170  209.0570  139.1810 C   0  0  1  0  0  3  0  0  0  0  0  0
  159.8580  210.2470  139.5690 O   0  0  0  0  0  1  0  0  0  0  0  0
  161.1700  210.0990  140.0360 C   0  0  2  0  0  3  0  0  0  0  0  0
  162.0710  211.7060  141.5930 O   0  0  0  0  0  1  0  0  0  0  0  0
  163.2140  211.5190  139.5240 C   0  0  0  0  0  1  0  0  0  0  0  0
  161.8650  211.4690  140.2320 C   0  0  1  0  0  0  0  0  0  0  0  0
  160.9730  212.5920  139.7010 C   0  0  0  0  0  2  0  0  0  0  0  0
  161.5460  213.8510  139.9170 O   0  0  0  0  0  1  0  0  0  0  0  0
  160.8450  203.2130  144.4570 C   0  0  0  0  0  2  0  0  0  0  0  0
  159.3580  201.2760  144.7650 C   0  0  0  0  0  2  0  0  0  0  0  0
  159.4950  202.5680  144.4800 C   0  0  0  0  0  3  0  0  0  0  0  0
  162.3100  204.7340  146.8000 C   0  0  0  0  0  2  0  0  0  0  0  0
  162.3490  203.3830  147.4930 C   0  0  0  0  0  2  0  0  0  0  0  0
  161.0690  203.1530  148.2950 C   0  0  1  0  0  3  0  0  0  0  0  0
  160.4820  201.7630  147.9990 C   0  0  2  0  0  3  0  0  0  0  0  0
  159.6720  201.3280  149.0540 O   0  0  0  0  0  1  0  0  0  0  0  0
  161.5810  200.7310  147.7770 C   0  0  0  0  0  2  0  0  0  0  0  0
  161.4600  198.9550  146.4750 C   0  0  0  0  0  1  0  0  0  0  0  0
  161.6050  200.3420  146.4370 O   0  0  0  0  0  0  0  0  0  0  0  0
  161.3970  203.2700  149.7800 C   0  0  0  0  0  2  0  0  0  0  0  0
  160.9310  204.5940  150.3630 C   0  0  1  0  0  3  0  0  0  0  0  0
  160.0710  205.2080  149.4480 O   0  0  0  0  0  1  0  0  0  0  0  0
  160.2780  204.3700  151.7360 C   0  0  0  0  0  3  0  0  0  0  0  0
  161.2470  204.4700  152.9060 C   0  0  0  0  0  2  0  0  0  0  0  0
  160.8340  203.1120  152.3770 C   0  0  0  0  0  2  0  0  0  0  0  0
  1  2  1  6  0  0  0
  1 41  1  0  0  0  0
  2  3  1  0  0  0  0
  3  4  1  0  0  0  0
  4 16  1  0  0  0  0
  5 13  2  0  0  0  0
  6  9  1  0  0  0  0
  6  8  1  1  0  0  0
  8 12  2  0  0  0  0
  9  5  1  1  0  0  0
 11 13  1  0  0  0  0
 11 19  1  1  0  0  0
 12 11  1  0  0  0  0
 14  9  1  0  0  0  0
 15 14  1  0  0  0  0
 16  7  1  6  0  0  0
 16  6  1  0  0  0  0
 17 10  1  1  0  0  0
 17 15  1  0  0  0  0
 17 16  1  0  0  0  0
 19 18  2  0  0  0  0
 19 20  1  0  0  0  0
 20 21  1  0  0  0  0
 22 38  1  1  0  0  0
 22  1  1  0  0  0  0
 23 24  2  0  0  0  0
 23 22  1  0  0  0  0
 25 23  1  0  0  0  0
 26 25  1  0  0  0  0
 27 26  1  0  0  0  0
 28 27  1  0  0  0  0
 30 29  1  6  0  0  0
 30 28  1  0  0  0  0
 30 32  1  0  0  0  0
 32 31  1  6  0  0  0
 32 35  1  0  0  0  0
 35 34  1  6  0  0  0
 35 33  1  0  0  0  0
 36 37  1  0  0  0  0
 36 35  1  0  0  0  0
 38 40  1  0  0  0  0
 40 39  2  0  0  0  0
 41 42  1  0  0  0  0
 43 42  1  6  0  0  0
 43 49  1  0  0  0  0
 44 43  1  0  0  0  0
 44 45  1  1  0  0  0
 46 44  1  0  0  0  0
 48 47  1  0  0  0  0
 48 46  1  0  0  0  0
 49 50  1  0  0  0  0
 50 51  1  6  0  0  0
 50 52  1  0  0  0  0
 52 54  1  0  0  0  0
 52 53  1  0  0  0  0
 54 53  1  0  0  0  0
M  END
>  <MODEL>
4

>  <REMARK>
 VINA RESULT:      -3.4      3.313      9.569
  Name = 
  26 active torsions:
  status: ('A' for Active; 'I' for Inactive)
    1  A    between atoms: C_2  and  C_6
    2  A    between atoms: C_2  and  O_21
    3  A    between atoms: C_6  and  C_23
    4  A    between atoms: C_6  and  C_45
    5  A    between atoms: C_7  and  O_37
    6  A    between atoms: C_7  and  C_45
    7  A    between atoms: C_8  and  C_29
    8  A    between atoms: C_8  and  O_43
    9  A    between atoms: C_14  and  C_28
   10  A    between atoms: C_14  and  C_40
   11  A    between atoms: C_15  and  O_37
   12  A    between atoms: C_15  and  C_47
   13  A    between atoms: C_16  and  C_32
   14  A    between atoms: C_19  and  C_29
   15  A    between atoms: C_19  and  C_41
   16  A    between atoms: C_19  and  C_50
   17  A    between atoms: O_21  and  C_35
   18  A    between atoms: C_22  and  C_40
   19  A    between atoms: C_23  and  C_52
   20  A    between atoms: C_25  and  C_30
   21  A    between atoms: C_26  and  C_41
   22  A    between atoms: C_26  and  C_45
   23  A    between atoms: C_28  and  N_38
   24  A    between atoms: C_32  and  C_50
   25  A    between atoms: C_34  and  C_35
   26  A    between atoms: C_34  and  N_38
                            x       y       z     vdW  Elec       q    Type
                         _______ _______ _______ _____ _____    ______ ____

>  <TORSDO>
F 26

$$$$
=
 OpenBabel11072410343D

 54 56  0  0  1  0  0  0  0  0999 V2000
  161.3110  211.9140  149.6910 C   0  0  1  0  0  3  0  0  0  0  0  0
  161.3270  210.6670  148.8200 C   0  0  0  0  0  2  0  0  0  0  0  0
  162.1040  209.6830  149.4300 O   0  0  0  0  0  0  0  0  0  0  0  0
  161.6680  208.4790  148.8750 C   0  0  0  0  0  2  0  0  0  0  0  0
  161.4630  203.3930  149.6470 C   0  0  0  0  0  3  0  0  0  0  0  0
  161.6680  205.9540  149.1240 C   0  0  1  0  0  3  0  0  0  0  0  0
  163.2700  207.3630  150.2580 O   0  0  0  0  0  1  0  0  0  0  0  0
  162.6250  205.6930  147.9880 C   0  0  0  0  0  3  0  0  0  0  0  0
  161.6570  204.8060  150.1690 C   0  0  1  0  0  3  0  0  0  0  0  0
  159.7070  207.6220  150.6670 F   0  0  0  0  0  0  0  0  0  0  0  0
  161.1200  203.9150  147.2100 C   0  0  2  0  0  3  0  0  0  0  0  0
  162.3600  204.7490  147.0840 C   0  0  0  0  0  3  0  0  0  0  0  0
  161.2290  202.9940  148.3840 C   0  0  0  0  0  3  0  0  0  0  0  0
  160.6820  205.0600  151.1500 O   0  0  0  0  0  0  0  0  0  0  0  0
  161.1250  206.1660  151.8960 C   0  0  0  0  0  2  0  0  0  0  0  0
  161.9410  207.3070  149.8230 C   0  0  1  0  0  0  0  0  0  0  0  0
  161.0250  207.4370  151.0490 C   0  0  1  0  0  3  0  0  0  0  0  0
  161.3410  203.5410  144.8730 O   0  0  0  0  0  0  0  0  0  0  0  0
  160.8270  203.1550  145.9580 C   0  0  0  0  0  0  0  0  0  0  0  0
  159.9550  202.0220  145.9750 N   0  0  0  0  0  2  0  0  0  0  0  0
  159.7840  201.2330  144.8320 N   0  0  0  0  0  1  0  0  0  0  0  0
  161.3080  213.2040  148.8570 C   0  0  1  0  0  3  0  0  0  0  0  0
  161.6890  212.9840  147.4240 C   0  0  0  0  0  0  0  0  0  0  0  0
  162.7710  213.4500  146.9670 O   0  0  0  0  0  0  0  0  0  0  0  0
  160.8190  212.2680  146.6020 O   0  0  0  0  0  0  0  0  0  0  0  0
  160.2280  212.8160  145.4290 C   0  0  0  0  0  2  0  0  0  0  0  0
  161.1420  213.8530  144.7900 C   0  0  0  0  0  2  0  0  0  0  0  0
  160.6430  214.2500  143.4790 N   0  0  0  0  0  2  0  0  0  0  0  0
  163.0610  214.1080  143.2160 C   0  0  0  0  0  1  0  0  0  0  0  0
  161.7190  214.1110  142.5040 C   0  0  1  0  0  3  0  0  0  0  0  0
  162.3100  211.8010  142.1560 O   0  0  0  0  0  1  0  0  0  0  0  0
  161.5640  212.8580  141.6210 C   0  0  2  0  0  3  0  0  0  0  0  0
  161.9170  214.3930  139.7940 O   0  0  0  0  0  1  0  0  0  0  0  0
  163.1290  212.3580  139.6830 C   0  0  0  0  0  1  0  0  0  0  0  0
  161.8300  213.0350  140.1060 C   0  0  1  0  0  0  0  0  0  0  0  0
  160.6700  212.4530  139.2970 C   0  0  0  0  0  2  0  0  0  0  0  0
  160.8520  212.6460  137.9220 O   0  0  0  0  0  1  0  0  0  0  0  0
  159.9970  213.9800  148.9830 C   0  0  0  0  0  2  0  0  0  0  0  0
  157.7020  213.4550  148.2670 C   0  0  0  0  0  2  0  0  0  0  0  0
  158.9940  213.5400  147.9630 C   0  0  0  0  0  3  0  0  0  0  0  0
  160.1760  211.8590  150.7060 C   0  0  0  0  0  2  0  0  0  0  0  0
  160.6470  211.1540  151.9670 C   0  0  0  0  0  2  0  0  0  0  0  0
  160.1270  211.8730  153.2110 C   0  0  1  0  0  3  0  0  0  0  0  0
  158.6320  212.2040  153.0650 C   0  0  2  0  0  3  0  0  0  0  0  0
  158.4550  213.4900  152.5440 O   0  0  0  0  0  1  0  0  0  0  0  0
  157.9120  212.1230  154.4060 C   0  0  0  0  0  2  0  0  0  0  0  0
  156.1380  211.3190  155.4420 C   0  0  0  0  0  1  0  0  0  0  0  0
  157.0320  211.0390  154.4090 O   0  0  0  0  0  0  0  0  0  0  0  0
  160.3400  210.9690  154.4210 C   0  0  0  0  0  2  0  0  0  0  0  0
  161.5620  210.0810  154.2590 C   0  0  1  0  0  3  0  0  0  0  0  0
  162.6670  210.7330  154.8150 O   0  0  0  0  0  1  0  0  0  0  0  0
  161.3050  208.7020  154.8880 C   0  0  0  0  0  3  0  0  0  0  0  0
  159.8630  208.2280  154.7720 C   0  0  0  0  0  2  0  0  0  0  0  0
  160.3590  208.8380  156.0670 C   0  0  0  0  0  2  0  0  0  0  0  0
  1  2  1  6  0  0  0
  1 41  1  0  0  0  0
  2  3  1  0  0  0  0
  4  3  1  0  0  0  0
  4 16  1  0  0  0  0
  6  8  1  6  0  0  0
  6 16  1  0  0  0  0
  6  9  1  0  0  0  0
  9  5  1  6  0  0  0
  9 14  1  0  0  0  0
 11 19  1  6  0  0  0
 11 13  1  0  0  0  0
 12 11  1  0  0  0  0
 12  8  2  0  0  0  0
 13  5  2  0  0  0  0
 14 15  1  0  0  0  0
 16  7  1  1  0  0  0
 16 17  1  0  0  0  0
 17 10  1  6  0  0  0
 17 15  1  0  0  0  0
 18 19  2  0  0  0  0
 19 20  1  0  0  0  0
 21 20  1  0  0  0  0
 22 38  1  6  0  0  0
 22  1  1  0  0  0  0
 23 22  1  0  0  0  0
 24 23  2  0  0  0  0
 25 23  1  0  0  0  0
 26 25  1  0  0  0  0
 27 26  1  0  0  0  0
 28 27  1  0  0  0  0
 30 29  1  1  0  0  0
 30 28  1  0  0  0  0
 32 31  1  1  0  0  0
 32 30  1  0  0  0  0
 33 35  1  0  0  0  0
 35 34  1  6  0  0  0
 35 32  1  0  0  0  0
 36 35  1  0  0  0  0
 37 36  1  0  0  0  0
 40 39  2  0  0  0  0
 40 38  1  0  0  0  0
 41 42  1  0  0  0  0
 43 42  1  6  0  0  0
 43 49  1  0  0  0  0
 44 45  1  1  0  0  0
 44 43  1  0  0  0  0
 44 46  1  0  0  0  0
 46 48  1  0  0  0  0
 48 47  1  0  0  0  0
 50 49  1  0  0  0  0
 50 51  1  1  0  0  0
 50 52  1  0  0  0  0
 52 54  1  0  0  0  0
 53 52  1  0  0  0  0
 53 54  1  0  0  0  0
M  END
>  <MODEL>
5

>  <REMARK>
 VINA RESULT:      -3.4      2.207      8.544
  Name = 
  26 active torsions:
  status: ('A' for Active; 'I' for Inactive)
    1  A    between atoms: C_2  and  C_6
    2  A    between atoms: C_2  and  O_21
    3  A    between atoms: C_6  and  C_23
    4  A    between atoms: C_6  and  C_45
    5  A    between atoms: C_7  and  O_37
    6  A    between atoms: C_7  and  C_45
    7  A    between atoms: C_8  and  C_29
    8  A    between atoms: C_8  and  O_43
    9  A    between atoms: C_14  and  C_28
   10  A    between atoms: C_14  and  C_40
   11  A    between atoms: C_15  and  O_37
   12  A    between atoms: C_15  and  C_47
   13  A    between atoms: C_16  and  C_32
   14  A    between atoms: C_19  and  C_29
   15  A    between atoms: C_19  and  C_41
   16  A    between atoms: C_19  and  C_50
   17  A    between atoms: O_21  and  C_35
   18  A    between atoms: C_22  and  C_40
   19  A    between atoms: C_23  and  C_52
   20  A    between atoms: C_25  and  C_30
   21  A    between atoms: C_26  and  C_41
   22  A    between atoms: C_26  and  C_45
   23  A    between atoms: C_28  and  N_38
   24  A    between atoms: C_32  and  C_50
   25  A    between atoms: C_34  and  C_35
   26  A    between atoms: C_34  and  N_38
                            x       y       z     vdW  Elec       q    Type
                         _______ _______ _______ _____ _____    ______ ____

>  <TORSDO>
F 26

$$$$
=
 OpenBabel11072410343D

 54 56  0  0  1  0  0  0  0  0999 V2000
  161.4990  209.1950  149.8540 C   0  0  1  0  0  3  0  0  0  0  0  0
  162.4390  209.8590  148.8590 C   0  0  0  0  0  2  0  0  0  0  0  0
  161.7050  210.3460  147.7790 O   0  0  0  0  0  0  0  0  0  0  0  0
  160.8020  211.2540  148.3320 C   0  0  0  0  0  2  0  0  0  0  0  0
  161.8600  214.3980  144.3940 C   0  0  0  0  0  3  0  0  0  0  0  0
  161.1770  212.7600  146.3250 C   0  0  1  0  0  3  0  0  0  0  0  0
  160.1100  213.5450  148.3460 O   0  0  0  0  0  1  0  0  0  0  0  0
  159.8470  212.4730  145.6730 C   0  0  0  0  0  3  0  0  0  0  0  0
  161.7730  214.1250  145.8860 C   0  0  1  0  0  3  0  0  0  0  0  0
  163.4330  212.1760  148.2160 F   0  0  0  0  0  0  0  0  0  0  0  0
  161.0240  212.1850  143.5380 C   0  0  2  0  0  3  0  0  0  0  0  0
  159.7780  212.1890  144.3720 C   0  0  0  0  0  3  0  0  0  0  0  0
  161.5470  213.5780  143.3750 C   0  0  0  0  0  3  0  0  0  0  0  0
  163.0500  214.2930  146.4490 O   0  0  0  0  0  0  0  0  0  0  0  0
  162.8720  214.4530  147.8340 C   0  0  0  0  0  2  0  0  0  0  0  0
  161.1040  212.6830  147.8670 C   0  0  1  0  0  0  0  0  0  0  0  0
  162.4510  213.1210  148.4610 C   0  0  1  0  0  3  0  0  0  0  0  0
  161.6730  210.7300  141.7730 O   0  0  0  0  0  0  0  0  0  0  0  0
  160.8070  211.5370  142.2090 C   0  0  0  0  0  0  0  0  0  0  0  0
  159.6520  211.8420  141.4250 N   0  0  0  0  0  2  0  0  0  0  0  0
  159.3830  211.1400  140.2440 N   0  0  0  0  0  1  0  0  0  0  0  0
  161.6170  207.6640  149.8320 C   0  0  1  0  0  3  0  0  0  0  0  0
  162.7850  207.1710  149.0320 C   0  0  0  0  0  0  0  0  0  0  0  0
  163.9630  207.2790  149.4770 O   0  0  0  0  0  0  0  0  0  0  0  0
  162.5470  206.6050  147.7790 O   0  0  0  0  0  0  0  0  0  0  0  0
  161.4520  206.9830  146.9510 C   0  0  0  0  0  2  0  0  0  0  0  0
  160.9190  205.7890  146.1710 C   0  0  0  0  0  2  0  0  0  0  0  0
  161.9930  204.8580  145.8430 N   0  0  0  0  0  2  0  0  0  0  0  0
  160.8970  203.8130  147.7520 C   0  0  0  0  0  1  0  0  0  0  0  0
  161.7300  203.5850  146.5020 C   0  0  1  0  0  3  0  0  0  0  0  0
  159.9930  203.1700  144.8840 O   0  0  0  0  0  1  0  0  0  0  0  0
  161.0520  202.5620  145.5710 C   0  0  2  0  0  3  0  0  0  0  0  0
  159.5830  201.4300  147.1140 O   0  0  0  0  0  1  0  0  0  0  0  0
  160.1440  200.2260  145.1490 C   0  0  0  0  0  1  0  0  0  0  0  0
  160.6220  201.2160  146.2050 C   0  0  1  0  0  0  0  0  0  0  0  0
  161.7890  200.6040  146.9810 C   0  0  0  0  0  2  0  0  0  0  0  0
  161.5000  200.4920  148.3460 O   0  0  0  0  0  1  0  0  0  0  0  0
  161.5930  207.0540  151.2340 C   0  0  0  0  0  2  0  0  0  0  0  0
  161.2050  204.8760  152.3120 C   0  0  0  0  0  2  0  0  0  0  0  0
  161.3400  205.5800  151.1910 C   0  0  0  0  0  3  0  0  0  0  0  0
  161.6730  209.7850  151.2490 C   0  0  0  0  0  2  0  0  0  0  0  0
  160.5220  210.7290  151.5550 C   0  0  0  0  0  2  0  0  0  0  0  0
  160.0930  210.5970  153.0160 C   0  0  1  0  0  3  0  0  0  0  0  0
  161.0960  209.7380  153.8040 C   0  0  2  0  0  3  0  0  0  0  0  0
  160.4510  208.6680  154.4330 O   0  0  0  0  0  1  0  0  0  0  0  0
  161.8160  210.5600  154.8670 C   0  0  0  0  0  2  0  0  0  0  0  0
  161.0190  210.2030  156.8920 C   0  0  0  0  0  1  0  0  0  0  0  0
  162.0170  209.7870  156.0110 O   0  0  0  0  0  0  0  0  0  0  0  0
  160.0130  211.9910  153.6280 C   0  0  0  0  0  2  0  0  0  0  0  0
  158.6120  212.3180  154.1180 C   0  0  1  0  0  3  0  0  0  0  0  0
  157.8680  212.8180  153.0450 O   0  0  0  0  0  1  0  0  0  0  0  0
  157.9700  211.0770  154.7600 C   0  0  0  0  0  3  0  0  0  0  0  0
  156.4480  211.0710  154.7090 C   0  0  0  0  0  2  0  0  0  0  0  0
  157.1630  211.4830  155.9790 C   0  0  0  0  0  2  0  0  0  0  0  0
  1  2  1  6  0  0  0
  1 41  1  0  0  0  0
  3  4  1  0  0  0  0
  3  2  1  0  0  0  0
  6  8  1  6  0  0  0
  6 16  1  0  0  0  0
  9  5  1  6  0  0  0
  9  6  1  0  0  0  0
  9 14  1  0  0  0  0
 11 19  1  6  0  0  0
 11 12  1  0  0  0  0
 12  8  2  0  0  0  0
 13 11  1  0  0  0  0
 13  5  2  0  0  0  0
 14 15  1  0  0  0  0
 15 17  1  0  0  0  0
 16  4  1  0  0  0  0
 16  7  1  1  0  0  0
 16 17  1  0  0  0  0
 17 10  1  6  0  0  0
 18 19  2  0  0  0  0
 20 19  1  0  0  0  0
 21 20  1  0  0  0  0
 22  1  1  0  0  0  0
 22 38  1  1  0  0  0
 23 24  2  0  0  0  0
 23 22  1  0  0  0  0
 25 23  1  0  0  0  0
 26 25  1  0  0  0  0
 27 26  1  0  0  0  0
 28 27  1  0  0  0  0
 28 30  1  0  0  0  0
 30 29  1  1  0  0  0
 32 31  1  1  0  0  0
 32 35  1  0  0  0  0
 32 30  1  0  0  0  0
 35 34  1  6  0  0  0
 35 36  1  0  0  0  0
 35 33  1  0  0  0  0
 36 37  1  0  0  0  0
 40 38  1  0  0  0  0
 40 39  2  0  0  0  0
 41 42  1  0  0  0  0
 43 42  1  6  0  0  0
 43 49  1  0  0  0  0
 43 44  1  0  0  0  0
 44 45  1  1  0  0  0
 44 46  1  0  0  0  0
 46 48  1  0  0  0  0
 48 47  1  0  0  0  0
 49 50  1  0  0  0  0
 50 51  1  6  0  0  0
 50 52  1  0  0  0  0
 52 54  1  0  0  0  0
 53 52  1  0  0  0  0
 53 54  1  0  0  0  0
M  END
>  <MODEL>
6

>  <REMARK>
 VINA RESULT:      -3.0      1.465      2.464
  Name = 
  26 active torsions:
  status: ('A' for Active; 'I' for Inactive)
    1  A    between atoms: C_2  and  C_6
    2  A    between atoms: C_2  and  O_21
    3  A    between atoms: C_6  and  C_23
    4  A    between atoms: C_6  and  C_45
    5  A    between atoms: C_7  and  O_37
    6  A    between atoms: C_7  and  C_45
    7  A    between atoms: C_8  and  C_29
    8  A    between atoms: C_8  and  O_43
    9  A    between atoms: C_14  and  C_28
   10  A    between atoms: C_14  and  C_40
   11  A    between atoms: C_15  and  O_37
   12  A    between atoms: C_15  and  C_47
   13  A    between atoms: C_16  and  C_32
   14  A    between atoms: C_19  and  C_29
   15  A    between atoms: C_19  and  C_41
   16  A    between atoms: C_19  and  C_50
   17  A    between atoms: O_21  and  C_35
   18  A    between atoms: C_22  and  C_40
   19  A    between atoms: C_23  and  C_52
   20  A    between atoms: C_25  and  C_30
   21  A    between atoms: C_26  and  C_41
   22  A    between atoms: C_26  and  C_45
   23  A    between atoms: C_28  and  N_38
   24  A    between atoms: C_32  and  C_50
   25  A    between atoms: C_34  and  C_35
   26  A    between atoms: C_34  and  N_38
                            x       y       z     vdW  Elec       q    Type
                         _______ _______ _______ _____ _____    ______ ____

>  <TORSDO>
F 26

$$$$
=
 OpenBabel11072410343D

 54 56  0  0  1  0  0  0  0  0999 V2000
  162.0090  210.1930  149.8700 C   0  0  1  0  0  3  0  0  0  0  0  0
  161.9160  210.4540  151.3660 C   0  0  0  0  0  2  0  0  0  0  0  0
  160.5780  210.5910  151.7320 O   0  0  0  0  0  0  0  0  0  0  0  0
  160.5480  211.6860  152.5960 C   0  0  0  0  0  2  0  0  0  0  0  0
  159.4570  207.8510  155.8530 C   0  0  0  0  0  3  0  0  0  0  0  0
  160.1700  209.7490  154.1900 C   0  0  1  0  0  3  0  0  0  0  0  0
  160.7970  211.9510  154.9610 O   0  0  0  0  0  1  0  0  0  0  0  0
  161.6040  209.2820  154.1990 C   0  0  0  0  0  3  0  0  0  0  0  0
  159.3960  209.3180  155.4650 C   0  0  1  0  0  3  0  0  0  0  0  0
  157.8310  211.2470  153.0550 F   0  0  0  0  0  0  0  0  0  0  0  0
  160.7930  206.9830  153.9060 C   0  0  2  0  0  3  0  0  0  0  0  0
  161.8950  207.9880  154.0500 C   0  0  0  0  0  3  0  0  0  0  0  0
  160.0490  206.8370  155.1960 C   0  0  0  0  0  3  0  0  0  0  0  0
  158.0470  209.6970  155.3570 O   0  0  0  0  0  0  0  0  0  0  0  0
  158.0070  211.1020  155.4190 C   0  0  0  0  0  2  0  0  0  0  0  0
  160.0520  211.2770  153.9870 C   0  0  1  0  0  0  0  0  0  0  0  0
  158.5800  211.6940  154.1290 C   0  0  1  0  0  3  0  0  0  0  0  0
  162.5440  205.4890  153.3100 O   0  0  0  0  0  0  0  0  0  0  0  0
  161.3000  205.6610  153.4290 C   0  0  0  0  0  0  0  0  0  0  0  0
  160.3960  204.6100  153.0830 N   0  0  0  0  0  2  0  0  0  0  0  0
  160.8710  203.3330  152.7620 N   0  0  0  0  0  1  0  0  0  0  0  0
  161.6120  208.7550  149.5050 C   0  0  1  0  0  3  0  0  0  0  0  0
  162.2830  208.2520  148.2630 C   0  0  0  0  0  0  0  0  0  0  0  0
  163.4100  208.7020  147.9130 O   0  0  0  0  0  0  0  0  0  0  0  0
  161.6320  207.2870  147.4940 O   0  0  0  0  0  0  0  0  0  0  0  0
  162.3010  206.1730  146.9130 C   0  0  0  0  0  2  0  0  0  0  0  0
  161.3190  205.2570  146.1980 C   0  0  0  0  0  2  0  0  0  0  0  0
  161.8210  203.8880  146.1510 N   0  0  0  0  0  2  0  0  0  0  0  0
  160.2800  202.1050  145.5330 C   0  0  0  0  0  1  0  0  0  0  0  0
  160.7900  202.9900  146.6570 C   0  0  1  0  0  3  0  0  0  0  0  0
  161.7360  200.8990  147.3930 O   0  0  0  0  0  1  0  0  0  0  0  0
  161.2740  202.1410  147.8480 C   0  0  2  0  0  3  0  0  0  0  0  0
  160.2050  203.1880  149.7400 O   0  0  0  0  0  1  0  0  0  0  0  0
  158.8980  201.5950  148.5670 C   0  0  0  0  0  1  0  0  0  0  0  0
  160.2950  201.9840  149.0380 C   0  0  1  0  0  0  0  0  0  0  0  0
  160.8140  200.9240  150.0100 C   0  0  0  0  0  2  0  0  0  0  0  0
  162.0730  201.2630  150.5190 O   0  0  0  0  0  1  0  0  0  0  0  0
  161.7820  207.7850  150.6740 C   0  0  0  0  0  2  0  0  0  0  0  0
  160.1130  206.2000  149.8030 C   0  0  0  0  0  2  0  0  0  0  0  0
  161.3210  206.4060  150.3200 C   0  0  0  0  0  3  0  0  0  0  0  0
  161.2350  211.2430  149.0810 C   0  0  0  0  0  2  0  0  0  0  0  0
  162.1460  211.8860  148.0490 C   0  0  0  0  0  2  0  0  0  0  0  0
  161.3820  212.9280  147.2330 C   0  0  1  0  0  3  0  0  0  0  0  0
  160.8520  214.0500  148.1400 C   0  0  2  0  0  3  0  0  0  0  0  0
  160.9480  213.6900  149.4890 O   0  0  0  0  0  1  0  0  0  0  0  0
  159.3950  214.3750  147.8300 C   0  0  0  0  0  2  0  0  0  0  0  0
  157.5390  213.5090  147.0130 C   0  0  0  0  0  1  0  0  0  0  0  0
  158.6390  213.2030  147.8140 O   0  0  0  0  0  0  0  0  0  0  0  0
  162.3230  213.5120  146.1850 C   0  0  0  0  0  2  0  0  0  0  0  0
  161.8980  213.1470  144.7720 C   0  0  1  0  0  3  0  0  0  0  0  0
  160.5420  212.8070  144.7860 O   0  0  0  0  0  1  0  0  0  0  0  0
  162.2120  214.3020  143.8070 C   0  0  0  0  0  3  0  0  0  0  0  0
  162.0170  213.9520  142.3390 C   0  0  0  0  0  2  0  0  0  0  0  0
  163.4070  213.9460  142.9430 C   0  0  0  0  0  2  0  0  0  0  0  0
  1 41  1  6  0  0  0
  1  2  1  0  0  0  0
  2  3  1  0  0  0  0
  3  4  1  0  0  0  0
  4 16  1  0  0  0  0
  6  8  1  1  0  0  0
  6  9  1  0  0  0  0
  9  5  1  6  0  0  0
 11 19  1  1  0  0  0
 11 12  1  0  0  0  0
 11 13  1  0  0  0  0
 12  8  2  0  0  0  0
 13  5  2  0  0  0  0
 14 15  1  0  0  0  0
 14  9  1  0  0  0  0
 16 17  1  0  0  0  0
 16  6  1  0  0  0  0
 16  7  1  1  0  0  0
 17 10  1  6  0  0  0
 17 15  1  0  0  0  0
 18 19  2  0  0  0  0
 20 19  1  0  0  0  0
 21 20  1  0  0  0  0
 22  1  1  0  0  0  0
 22 38  1  1  0  0  0
 23 22  1  0  0  0  0
 24 23  2  0  0  0  0
 25 23  1  0  0  0  0
 26 25  1  0  0  0  0
 27 26  1  0  0  0  0
 28 27  1  0  0  0  0
 28 30  1  0  0  0  0
 30 29  1  6  0  0  0
 30 32  1  0  0  0  0
 32 31  1  6  0  0  0
 32 35  1  0  0  0  0
 35 34  1  6  0  0  0
 35 33  1  0  0  0  0
 35 36  1  0  0  0  0
 36 37  1  0  0  0  0
 39 40  2  0  0  0  0
 40 38  1  0  0  0  0
 42 41  1  0  0  0  0
 43 49  1  6  0  0  0
 43 42  1  0  0  0  0
 43 44  1  0  0  0  0
 44 45  1  1  0  0  0
 46 44  1  0  0  0  0
 47 48  1  0  0  0  0
 48 46  1  0  0  0  0
 50 51  1  1  0  0  0
 50 49  1  0  0  0  0
 52 50  1  0  0  0  0
 53 54  1  0  0  0  0
 53 52  1  0  0  0  0
 54 52  1  0  0  0  0
M  END
>  <MODEL>
7

>  <REMARK>
 VINA RESULT:      -2.9      2.465      7.908
  Name = 
  26 active torsions:
  status: ('A' for Active; 'I' for Inactive)
    1  A    between atoms: C_2  and  C_6
    2  A    between atoms: C_2  and  O_21
    3  A    between atoms: C_6  and  C_23
    4  A    between atoms: C_6  and  C_45
    5  A    between atoms: C_7  and  O_37
    6  A    between atoms: C_7  and  C_45
    7  A    between atoms: C_8  and  C_29
    8  A    between atoms: C_8  and  O_43
    9  A    between atoms: C_14  and  C_28
   10  A    between atoms: C_14  and  C_40
   11  A    between atoms: C_15  and  O_37
   12  A    between atoms: C_15  and  C_47
   13  A    between atoms: C_16  and  C_32
   14  A    between atoms: C_19  and  C_29
   15  A    between atoms: C_19  and  C_41
   16  A    between atoms: C_19  and  C_50
   17  A    between atoms: O_21  and  C_35
   18  A    between atoms: C_22  and  C_40
   19  A    between atoms: C_23  and  C_52
   20  A    between atoms: C_25  and  C_30
   21  A    between atoms: C_26  and  C_41
   22  A    between atoms: C_26  and  C_45
   23  A    between atoms: C_28  and  N_38
   24  A    between atoms: C_32  and  C_50
   25  A    between atoms: C_34  and  C_35
   26  A    between atoms: C_34  and  N_38
                            x       y       z     vdW  Elec       q    Type
                         _______ _______ _______ _____ _____    ______ ____

>  <TORSDO>
F 26

$$$$
=
 OpenBabel11072410343D

 54 56  0  0  1  0  0  0  0  0999 V2000
  162.3930  210.0050  149.8360 C   0  0  1  0  0  3  0  0  0  0  0  0
  162.6500  210.0130  151.3360 C   0  0  0  0  0  2  0  0  0  0  0  0
  161.4360  210.0990  152.0160 O   0  0  0  0  0  0  0  0  0  0  0  0
  161.7530  210.6510  153.2570 C   0  0  0  0  0  2  0  0  0  0  0  0
  158.4200  210.3410  157.1700 C   0  0  0  0  0  3  0  0  0  0  0  0
  159.9880  210.5220  155.0750 C   0  0  1  0  0  3  0  0  0  0  0  0
  160.7700  208.5640  153.8950 O   0  0  0  0  0  1  0  0  0  0  0  0
  158.8080  210.6730  154.1480 C   0  0  0  0  0  3  0  0  0  0  0  0
  159.6150  209.8050  156.4010 C   0  0  1  0  0  3  0  0  0  0  0  0
  162.8900  210.7540  155.8040 F   0  0  0  0  0  0  0  0  0  0  0  0
  157.8660  212.3150  155.7110 C   0  0  2  0  0  3  0  0  0  0  0  0
  157.8230  211.5250  154.4390 C   0  0  0  0  0  3  0  0  0  0  0  0
  157.6620  211.4170  156.8910 C   0  0  0  0  0  3  0  0  0  0  0  0
  160.7270  209.7780  157.2600 O   0  0  0  0  0  0  0  0  0  0  0  0
  161.6730  208.9120  156.6840 C   0  0  0  0  0  2  0  0  0  0  0  0
  161.1790  209.8050  154.3990 C   0  0  1  0  0  0  0  0  0  0  0  0
  162.2820  209.5640  155.4400 C   0  0  1  0  0  3  0  0  0  0  0  0
  157.0940  214.4470  156.4270 O   0  0  0  0  0  0  0  0  0  0  0  0
  156.8730  213.4310  155.7110 C   0  0  0  0  0  0  0  0  0  0  0  0
  155.6750  213.3470  154.9370 N   0  0  0  0  0  2  0  0  0  0  0  0
  154.8100  214.4430  154.8340 N   0  0  0  0  0  1  0  0  0  0  0  0
  161.4030  208.9080  149.4220 C   0  0  1  0  0  3  0  0  0  0  0  0
  161.9370  208.0000  148.3550 C   0  0  0  0  0  0  0  0  0  0  0  0
  163.1450  208.0750  147.9910 O   0  0  0  0  0  0  0  0  0  0  0  0
  161.0700  207.0830  147.7600 O   0  0  0  0  0  0  0  0  0  0  0  0
  161.3890  206.3680  146.5720 C   0  0  0  0  0  2  0  0  0  0  0  0
  160.6250  205.0530  146.5020 C   0  0  0  0  0  2  0  0  0  0  0  0
  161.5410  203.9210  146.4340 N   0  0  0  0  0  2  0  0  0  0  0  0
  160.7690  201.9080  145.2980 C   0  0  0  0  0  1  0  0  0  0  0  0
  160.7790  202.6890  146.6010 C   0  0  1  0  0  3  0  0  0  0  0  0
  161.2040  200.4620  147.4190 O   0  0  0  0  0  1  0  0  0  0  0  0
  161.3040  201.8170  147.7580 C   0  0  2  0  0  3  0  0  0  0  0  0
  160.7600  203.4680  149.4310 O   0  0  0  0  0  1  0  0  0  0  0  0
  159.2730  201.6280  149.2740 C   0  0  0  0  0  1  0  0  0  0  0  0
  160.7190  202.0980  149.1640 C   0  0  1  0  0  0  0  0  0  0  0  0
  161.5600  201.3980  150.2330 C   0  0  0  0  0  2  0  0  0  0  0  0
  161.2940  201.9030  151.5110 O   0  0  0  0  0  1  0  0  0  0  0  0
  160.8650  208.1210  150.6170 C   0  0  0  0  0  2  0  0  0  0  0  0
  161.9940  205.9790  151.0570 C   0  0  0  0  0  2  0  0  0  0  0  0
  161.0300  206.6460  150.4280 C   0  0  0  0  0  3  0  0  0  0  0  0
  161.9880  211.3900  149.3430 C   0  0  0  0  0  2  0  0  0  0  0  0
  161.6430  211.3290  147.8650 C   0  0  0  0  0  2  0  0  0  0  0  0
  160.9080  212.5970  147.4320 C   0  0  1  0  0  3  0  0  0  0  0  0
  161.5640  213.8450  148.0440 C   0  0  2  0  0  3  0  0  0  0  0  0
  162.8190  213.5360  148.5810 O   0  0  0  0  0  1  0  0  0  0  0  0
  160.7000  214.4430  149.1480 C   0  0  0  0  0  2  0  0  0  0  0  0
  158.7350  214.1770  150.1140 C   0  0  0  0  0  1  0  0  0  0  0  0
  159.8500  213.4660  149.6690 O   0  0  0  0  0  0  0  0  0  0  0  0
  160.9460  212.6870  145.9100 C   0  0  0  0  0  2  0  0  0  0  0  0
  159.5730  212.9640  145.3220 C   0  0  1  0  0  3  0  0  0  0  0  0
  159.3810  214.3480  145.2650 O   0  0  0  0  0  1  0  0  0  0  0  0
  159.4350  212.2870  143.9490 C   0  0  0  0  0  3  0  0  0  0  0  0
  160.0950  213.0540  142.8110 C   0  0  0  0  0  2  0  0  0  0  0  0
  158.5980  213.1510  143.0250 C   0  0  0  0  0  2  0  0  0  0  0  0
  1 41  1  1  0  0  0
  1  2  1  0  0  0  0
  2  3  1  0  0  0  0
  3  4  1  0  0  0  0
  4 16  1  0  0  0  0
  6  8  1  6  0  0  0
  6  9  1  0  0  0  0
  8 12  2  0  0  0  0
  9  5  1  1  0  0  0
  9 14  1  0  0  0  0
 11 19  1  6  0  0  0
 11 13  1  0  0  0  0
 12 11  1  0  0  0  0
 13  5  2  0  0  0  0
 15 14  1  0  0  0  0
 16  7  1  6  0  0  0
 16  6  1  0  0  0  0
 16 17  1  0  0  0  0
 17 10  1  1  0  0  0
 17 15  1  0  0  0  0
 19 18  2  0  0  0  0
 20 19  1  0  0  0  0
 21 20  1  0  0  0  0
 22  1  1  0  0  0  0
 22 38  1  1  0  0  0
 23 22  1  0  0  0  0
 24 23  2  0  0  0  0
 25 23  1  0  0  0  0
 26 25  1  0  0  0  0
 27 26  1  0  0  0  0
 28 27  1  0  0  0  0
 28 30  1  0  0  0  0
 30 29  1  6  0  0  0
 30 32  1  0  0  0  0
 32 31  1  6  0  0  0
 32 35  1  0  0  0  0
 35 34  1  1  0  0  0
 35 33  1  0  0  0  0
 35 36  1  0  0  0  0
 36 37  1  0  0  0  0
 40 38  1  0  0  0  0
 40 39  2  0  0  0  0
 42 41  1  0  0  0  0
 43 49  1  6  0  0  0
 43 42  1  0  0  0  0
 43 44  1  0  0  0  0
 44 45  1  1  0  0  0
 44 46  1  0  0  0  0
 46 48  1  0  0  0  0
 48 47  1  0  0  0  0
 50 51  1  6  0  0  0
 50 49  1  0  0  0  0
 52 50  1  0  0  0  0
 53 54  1  0  0  0  0
 53 52  1  0  0  0  0
 54 52  1  0  0  0  0
M  END
>  <MODEL>
8

>  <REMARK>
 VINA RESULT:      -2.9      3.412      8.113
  Name = 
  26 active torsions:
  status: ('A' for Active; 'I' for Inactive)
    1  A    between atoms: C_2  and  C_6
    2  A    between atoms: C_2  and  O_21
    3  A    between atoms: C_6  and  C_23
    4  A    between atoms: C_6  and  C_45
    5  A    between atoms: C_7  and  O_37
    6  A    between atoms: C_7  and  C_45
    7  A    between atoms: C_8  and  C_29
    8  A    between atoms: C_8  and  O_43
    9  A    between atoms: C_14  and  C_28
   10  A    between atoms: C_14  and  C_40
   11  A    between atoms: C_15  and  O_37
   12  A    between atoms: C_15  and  C_47
   13  A    between atoms: C_16  and  C_32
   14  A    between atoms: C_19  and  C_29
   15  A    between atoms: C_19  and  C_41
   16  A    between atoms: C_19  and  C_50
   17  A    between atoms: O_21  and  C_35
   18  A    between atoms: C_22  and  C_40
   19  A    between atoms: C_23  and  C_52
   20  A    between atoms: C_25  and  C_30
   21  A    between atoms: C_26  and  C_41
   22  A    between atoms: C_26  and  C_45
   23  A    between atoms: C_28  and  N_38
   24  A    between atoms: C_32  and  C_50
   25  A    between atoms: C_34  and  C_35
   26  A    between atoms: C_34  and  N_38
                            x       y       z     vdW  Elec       q    Type
                         _______ _______ _______ _____ _____    ______ ____

>  <TORSDO>
F 26

$$$$
=
 OpenBabel11072410343D

 54 56  0  0  1  0  0  0  0  0999 V2000
  161.2410  206.8590  152.2030 C   0  0  1  0  0  3  0  0  0  0  0  0
  161.0230  207.1180  153.6860 C   0  0  0  0  0  2  0  0  0  0  0  0
  161.1760  208.4770  153.9500 O   0  0  0  0  0  0  0  0  0  0  0  0
  160.0010  208.8570  154.5980 C   0  0  0  0  0  2  0  0  0  0  0  0
  158.9850  213.1620  157.2340 C   0  0  0  0  0  3  0  0  0  0  0  0
  159.3420  210.9260  155.9120 C   0  0  1  0  0  3  0  0  0  0  0  0
  160.1940  208.9340  156.9830 O   0  0  0  0  0  1  0  0  0  0  0  0
  157.9140  210.5040  156.1480 C   0  0  0  0  0  3  0  0  0  0  0  0
  159.8470  211.9390  156.9750 C   0  0  1  0  0  3  0  0  0  0  0  0
  161.9870  210.8150  154.4970 F   0  0  0  0  0  0  0  0  0  0  0  0
  157.2040  212.7640  155.5020 C   0  0  2  0  0  3  0  0  0  0  0  0
  156.9120  211.3600  155.9400 C   0  0  0  0  0  3  0  0  0  0  0  0
  157.8520  213.5320  156.6110 C   0  0  0  0  0  3  0  0  0  0  0  0
  161.1460  212.3660  156.6510 O   0  0  0  0  0  0  0  0  0  0  0  0
  162.0000  211.2640  156.8300 C   0  0  0  0  0  2  0  0  0  0  0  0
  160.3050  209.7180  155.8290 C   0  0  1  0  0  0  0  0  0  0  0  0
  161.7510  210.2300  155.7300 C   0  0  1  0  0  3  0  0  0  0  0  0
  155.4210  214.3160  155.7560 O   0  0  0  0  0  0  0  0  0  0  0  0
  155.9780  213.4630  155.0110 C   0  0  0  0  0  0  0  0  0  0  0  0
  155.4220  213.1580  153.7310 N   0  0  0  0  0  2  0  0  0  0  0  0
  154.3540  213.9030  153.2180 N   0  0  0  0  0  1  0  0  0  0  0  0
  160.6110  205.5360  151.7450 C   0  0  1  0  0  3  0  0  0  0  0  0
  160.9210  205.1940  150.3190 C   0  0  0  0  0  0  0  0  0  0  0  0
  160.2640  205.7160  149.3740 O   0  0  0  0  0  0  0  0  0  0  0  0
  161.9400  204.2780  150.0560 O   0  0  0  0  0  0  0  0  0  0  0  0
  161.7420  203.0920  149.2940 C   0  0  0  0  0  2  0  0  0  0  0  0
  161.1220  203.4080  147.9410 C   0  0  0  0  0  2  0  0  0  0  0  0
  162.0840  203.2020  146.8640 N   0  0  0  0  0  2  0  0  0  0  0  0
  160.5740  201.8060  145.5580 C   0  0  0  0  0  1  0  0  0  0  0  0
  161.3630  203.1040  145.6010 C   0  0  1  0  0  3  0  0  0  0  0  0
  159.5620  204.0290  144.2940 O   0  0  0  0  0  1  0  0  0  0  0  0
  160.4440  204.3140  145.3440 C   0  0  2  0  0  3  0  0  0  0  0  0
  162.3090  205.7370  145.9090 O   0  0  0  0  0  1  0  0  0  0  0  0
  161.4880  205.9380  143.6930 C   0  0  0  0  0  1  0  0  0  0  0  0
  161.1340  205.6870  145.1540 C   0  0  1  0  0  0  0  0  0  0  0  0
  160.2220  206.8080  145.6530 C   0  0  0  0  0  2  0  0  0  0  0  0
  160.5810  207.2330  146.9370 O   0  0  0  0  0  1  0  0  0  0  0  0
  160.9330  204.3760  152.6880 C   0  0  0  0  0  2  0  0  0  0  0  0
  161.3040  202.0700  151.9140 C   0  0  0  0  0  2  0  0  0  0  0  0
  160.4550  203.0680  152.1400 C   0  0  0  0  0  3  0  0  0  0  0  0
  160.7920  208.0520  151.3670 C   0  0  0  0  0  2  0  0  0  0  0  0
  161.8790  209.1140  151.3610 C   0  0  0  0  0  2  0  0  0  0  0  0
  161.3410  210.4300  150.7990 C   0  0  1  0  0  3  0  0  0  0  0  0
  160.7840  211.3170  151.9250 C   0  0  2  0  0  3  0  0  0  0  0  0
  159.6500  210.7370  152.5040 O   0  0  0  0  0  1  0  0  0  0  0  0
  160.4090  212.7010  151.4080 C   0  0  0  0  0  2  0  0  0  0  0  0
  158.8280  213.5750  152.6740 C   0  0  0  0  0  1  0  0  0  0  0  0
  160.2090  213.5720  152.4800 O   0  0  0  0  0  0  0  0  0  0  0  0
  162.4760  211.1550  150.0840 C   0  0  0  0  0  2  0  0  0  0  0  0
  162.2890  211.1580  148.5770 C   0  0  1  0  0  3  0  0  0  0  0  0
  161.5470  210.0290  148.2150 O   0  0  0  0  0  1  0  0  0  0  0  0
  161.6310  212.4720  148.1250 C   0  0  0  0  0  3  0  0  0  0  0  0
  161.9010  212.8300  146.6700 C   0  0  0  0  0  2  0  0  0  0  0  0
  162.6980  213.4920  147.7750 C   0  0  0  0  0  2  0  0  0  0  0  0
  1 41  1  6  0  0  0
  1  2  1  0  0  0  0
  2  3  1  0  0  0  0
  3  4  1  0  0  0  0
  4 16  1  0  0  0  0
  6  8  1  1  0  0  0
  6  9  1  0  0  0  0
  9  5  1  6  0  0  0
 11 19  1  1  0  0  0
 11 12  1  0  0  0  0
 11 13  1  0  0  0  0
 12  8  2  0  0  0  0
 13  5  2  0  0  0  0
 14 15  1  0  0  0  0
 14  9  1  0  0  0  0
 16  6  1  0  0  0  0
 16  7  1  1  0  0  0
 17 10  1  6  0  0  0
 17 16  1  0  0  0  0
 17 15  1  0  0  0  0
 19 18  2  0  0  0  0
 20 19  1  0  0  0  0
 21 20  1  0  0  0  0
 22  1  1  0  0  0  0
 22 38  1  1  0  0  0
 23 22  1  0  0  0  0
 24 23  2  0  0  0  0
 25 23  1  0  0  0  0
 26 25  1  0  0  0  0
 27 26  1  0  0  0  0
 28 27  1  0  0  0  0
 30 29  1  1  0  0  0
 30 28  1  0  0  0  0
 32 31  1  6  0  0  0
 32 30  1  0  0  0  0
 35 34  1  6  0  0  0
 35 32  1  0  0  0  0
 35 36  1  0  0  0  0
 35 33  1  0  0  0  0
 36 37  1  0  0  0  0
 39 40  2  0  0  0  0
 40 38  1  0  0  0  0
 42 41  1  0  0  0  0
 43 49  1  1  0  0  0
 43 42  1  0  0  0  0
 43 44  1  0  0  0  0
 44 45  1  6  0  0  0
 46 44  1  0  0  0  0
 46 48  1  0  0  0  0
 48 47  1  0  0  0  0
 50 51  1  1  0  0  0
 50 49  1  0  0  0  0
 52 50  1  0  0  0  0
 53 54  1  0  0  0  0
 53 52  1  0  0  0  0
 54 52  1  0  0  0  0
M  END
>  <MODEL>
9

>  <REMARK>
 VINA RESULT:      -2.4      3.407      7.828
  Name = 
  26 active torsions:
  status: ('A' for Active; 'I' for Inactive)
    1  A    between atoms: C_2  and  C_6
    2  A    between atoms: C_2  and  O_21
    3  A    between atoms: C_6  and  C_23
    4  A    between atoms: C_6  and  C_45
    5  A    between atoms: C_7  and  O_37
    6  A    between atoms: C_7  and  C_45
    7  A    between atoms: C_8  and  C_29
    8  A    between atoms: C_8  and  O_43
    9  A    between atoms: C_14  and  C_28
   10  A    between atoms: C_14  and  C_40
   11  A    between atoms: C_15  and  O_37
   12  A    between atoms: C_15  and  C_47
   13  A    between atoms: C_16  and  C_32
   14  A    between atoms: C_19  and  C_29
   15  A    between atoms: C_19  and  C_41
   16  A    between atoms: C_19  and  C_50
   17  A    between atoms: O_21  and  C_35
   18  A    between atoms: C_22  and  C_40
   19  A    between atoms: C_23  and  C_52
   20  A    between atoms: C_25  and  C_30
   21  A    between atoms: C_26  and  C_41
   22  A    between atoms: C_26  and  C_45
   23  A    between atoms: C_28  and  N_38
   24  A    between atoms: C_32  and  C_50
   25  A    between atoms: C_34  and  C_35
   26  A    between atoms: C_34  and  N_38
                            x       y       z     vdW  Elec       q    Type
                         _______ _______ _______ _____ _____    ______ ____

>  <TORSDO>
F 26

$$$$
