=
 OpenBabel11072409483D

 49 57  0  0  1  0  0  0  0  0999 V2000
  160.2880  212.2870  149.3640 N   0  0  0  0  0  0  0  0  0  0  0  0
  160.8130  212.0720  140.1160 C   0  0  2  0  0  3  0  0  0  0  0  0
  161.1950  211.4060  138.7850 C   0  0  2  0  0  3  0  0  0  0  0  0
  158.8420  213.3690  145.9590 C   0  0  1  0  0  3  0  0  0  0  0  0
  161.5050  212.9210  147.2410 C   0  0  2  0  0  3  0  0  0  0  0  0
  160.0940  214.0780  143.9830 O   0  0  0  0  0  0  0  0  0  0  0  0
  161.8080  210.1740  138.9970 O   0  0  0  0  0  0  0  0  0  0  0  0
  162.1830  212.2460  138.0300 C   0  0  0  0  0  2  0  0  0  0  0  0
  161.7490  211.7340  141.3130 C   0  0  1  0  0  3  0  0  0  0  0  0
  156.4780  212.6950  147.3490 N   0  0  0  0  0  2  0  0  0  0  0  0
  163.2290  211.8990  140.9770 C   0  0  0  0  0  2  0  0  0  0  0  0
  157.6140  212.8230  145.1850 C   0  0  2  0  0  3  0  0  0  0  0  0
  160.3330  214.4530  141.6970 C   0  0  0  0  0  1  0  0  0  0  0  0
  162.7910  210.9670  148.1160 C   0  0  0  0  0  2  0  0  0  0  0  0
  158.9970  212.6010  147.2910 C   0  0  1  0  0  3  0  0  0  0  0  0
  163.7890  210.6590  140.2810 C   0  0  0  0  0  2  0  0  0  0  0  0
  161.9010  211.4750  146.9900 C   0  0  0  0  0  2  0  0  0  0  0  0
  161.4730  212.4540  142.6550 C   0  0  1  0  0  3  0  0  0  0  0  0
  159.0560  211.4010  141.6910 O   0  0  0  0  0  0  0  0  0  0  0  0
  160.2340  213.0260  148.0930 C   0  0  1  0  0  3  0  0  0  0  0  0
  160.1970  213.3590  142.7550 C   0  0  1  0  0  0  0  0  0  0  0  0
  160.1350  213.2480  145.1190 C   0  0  1  0  0  3  0  0  0  0  0  0
  156.7950  213.9350  144.5340 C   0  0  0  0  0  2  0  0  0  0  0  0
  163.1820  210.4510  138.8920 C   0  0  2  0  0  3  0  0  0  0  0  0
  161.5090  211.4830  143.6580 O   0  0  0  0  0  1  0  0  0  0  0  0
  159.3220  211.8170  140.3740 C   0  0  0  0  0  2  0  0  0  0  0  0
  161.3010  211.7110  149.9510 C   0  0  0  0  0  0  0  0  0  0  0  0
  161.3500  213.6920  145.9380 C   0  0  0  0  0  2  0  0  0  0  0  0
  162.5610  211.6510  149.3460 O   0  0  0  0  0  0  0  0  0  0  0  0
  156.6730  212.0060  146.0760 C   0  0  0  0  0  2  0  0  0  0  0  0
  157.6190  213.3460  142.2030 C   0  0  0  0  0  2  0  0  0  0  0  0
  157.3910  214.4530  143.2310 C   0  0  0  0  0  2  0  0  0  0  0  0
  163.4060  211.5780  138.0780 O   0  0  0  0  0  0  0  0  0  0  0  0
  157.7160  212.6980  148.1400 C   0  0  0  0  0  2  0  0  0  0  0  0
  158.8960  212.5400  142.5100 C   0  0  1  0  0  3  0  0  0  0  0  0
  161.0410  209.1230  152.8350 C   0  0  0  0  0  0  0  0  0  0  0  0
  163.1590  208.2070  150.3620 C   0  0  0  0  0  1  0  0  0  0  0  0
  161.1250  211.1050  151.2910 C   0  0  0  0  0  0  0  0  0  0  0  0
  161.7620  209.7740  151.6810 C   0  0  2  0  0  3  0  0  0  0  0  0
  160.4820  211.8190  152.2260 C   0  0  0  0  0  3  0  0  0  0  0  0
  160.3830  211.3550  153.6530 C   0  0  2  0  0  3  0  0  0  0  0  0
  161.4780  211.8200  154.3590 F   0  0  0  0  0  0  0  0  0  0  0  0
  160.8880  207.3480  152.7080 S   0  0  0  0  0  0  0  0  0  0  0  0
  160.7560  207.6340  150.9220 C   0  0  1  0  0  3  0  0  0  0  0  0
  161.7460  208.7450  150.5470 C   0  0  2  0  0  3  0  0  0  0  0  0
  160.3450  209.8540  153.7290 C   0  0  0  0  0  0  0  0  0  0  0  0
  159.5290  209.2120  154.8040 C   0  0  0  0  0  1  0  0  0  0  0  0
  160.3270  206.6260  149.0010 C   0  0  0  0  0  1  0  0  0  0  0  0
  160.9950  206.4540  150.2130 O   0  0  0  0  0  0  0  0  0  0  0  0
  1 27  2  0  0  0  0
  2 26  1  1  0  0  0
  2  9  1  0  0  0  0
  3  8  1  1  0  0  0
  3  7  1  0  0  0  0
  3  2  1  0  0  0  0
  4 15  1  0  0  0  0
  5 20  1  0  0  0  0
  6 22  1  0  0  0  0
  8 33  1  0  0  0  0
  9 18  1  0  0  0  0
 10 34  1  0  0  0  0
 11  9  1  0  0  0  0
 12  4  1  0  0  0  0
 12 30  1  0  0  0  0
 13 21  1  0  0  0  0
 14 29  1  0  0  0  0
 15 20  1  0  0  0  0
 15 34  1  0  0  0  0
 16 11  1  0  0  0  0
 17  5  1  0  0  0  0
 17 14  1  0  0  0  0
 18 21  1  0  0  0  0
 18 25  1  0  0  0  0
 19 35  1  0  0  0  0
 20  1  1  0  0  0  0
 21  6  1  0  0  0  0
 22 28  1  0  0  0  0
 22  4  1  0  0  0  0
 23 12  1  0  0  0  0
 24  7  1  0  0  0  0
 24 16  1  0  0  0  0
 26 19  1  0  0  0  0
 27 38  1  0  0  0  0
 28  5  1  0  0  0  0
 29 27  1  0  0  0  0
 30 10  1  0  0  0  0
 31 35  1  0  0  0  0
 31 32  1  0  0  0  0
 32 23  1  0  0  0  0
 33 24  1  0  0  0  0
 35 21  1  0  0  0  0
 36 46  2  0  0  0  0
 37 45  1  0  0  0  0
 38 39  1  0  0  0  0
 38 40  2  0  0  0  0
 39 36  1  0  0  0  0
 40 41  1  0  0  0  0
 41 46  1  0  0  0  0
 41 42  1  0  0  0  0
 43 36  1  0  0  0  0
 44 43  1  0  0  0  0
 45 44  1  0  0  0  0
 45 39  1  0  0  0  0
 46 47  1  0  0  0  0
 48 49  1  0  0  0  0
 49 44  1  0  0  0  0
M  END
>  <MODEL>
1

>  <REMARK>
 VINA RESULT:       4.0      0.000      0.000
  Name = 
  2 active torsions:
  status: ('A' for Active; 'I' for Inactive)
    1  A    between atoms: C_10  and  C_37
    2  A    between atoms: O_27  and  C_43
                            x       y       z     vdW  Elec       q    Type
                         _______ _______ _______ _____ _____    ______ ____

>  <TORSDO>
F 2

$$$$
=
 OpenBabel11072409483D

 49 57  0  0  1  0  0  0  0  0999 V2000
  160.6760  212.8710  146.4870 N   0  0  0  0  0  0  0  0  0  0  0  0
  157.8320  211.4540  155.1910 C   0  0  2  0  0  3  0  0  0  0  0  0
  156.7490  211.1830  156.2460 C   0  0  2  0  0  3  0  0  0  0  0  0
  161.4470  211.5650  150.0310 C   0  0  1  0  0  3  0  0  0  0  0  0
  159.9730  213.8150  148.7250 C   0  0  2  0  0  3  0  0  0  0  0  0
  160.8230  212.6040  152.1540 O   0  0  0  0  0  0  0  0  0  0  0  0
  155.4860  211.1110  155.6640 O   0  0  0  0  0  0  0  0  0  0  0  0
  156.6890  212.2980  157.2500 C   0  0  0  0  0  2  0  0  0  0  0  0
  157.3630  212.2940  153.9670 C   0  0  1  0  0  3  0  0  0  0  0  0
  162.5510  209.5000  148.4520 N   0  0  0  0  0  2  0  0  0  0  0  0
  156.6040  213.5560  154.3670 C   0  0  0  0  0  2  0  0  0  0  0  0
  161.4780  210.1100  150.5660 C   0  0  2  0  0  3  0  0  0  0  0  0
  160.4030  212.5630  154.4440 C   0  0  0  0  0  1  0  0  0  0  0  0
  157.9400  214.0630  147.2970 C   0  0  0  0  0  2  0  0  0  0  0  0
  161.0930  211.5560  148.5260 C   0  0  1  0  0  3  0  0  0  0  0  0
  155.1290  213.2630  154.6410 C   0  0  0  0  0  2  0  0  0  0  0  0
  158.5390  213.3620  148.5090 C   0  0  0  0  0  2  0  0  0  0  0  0
  158.4340  212.6830  152.9200 C   0  0  1  0  0  3  0  0  0  0  0  0
  158.6560  209.9350  153.4500 O   0  0  0  0  0  0  0  0  0  0  0  0
  160.9670  212.9610  147.9270 C   0  0  1  0  0  3  0  0  0  0  0  0
  159.8760  212.0920  153.0890 C   0  0  1  0  0  0  0  0  0  0  0  0
  160.4310  212.4300  150.8130 C   0  0  1  0  0  3  0  0  0  0  0  0
  162.6440  209.8660  151.5220 C   0  0  0  0  0  2  0  0  0  0  0  0
  154.9340  212.3850  155.8790 C   0  0  2  0  0  3  0  0  0  0  0  0
  157.8980  212.4070  151.6600 O   0  0  0  0  0  1  0  0  0  0  0  0
  158.5050  210.1210  154.8360 C   0  0  0  0  0  2  0  0  0  0  0  0
  159.8170  213.5390  145.7670 C   0  0  0  0  0  0  0  0  0  0  0  0
  160.3370  213.8310  150.2030 C   0  0  0  0  0  2  0  0  0  0  0  0
  158.9290  214.4520  146.3450 O   0  0  0  0  0  0  0  0  0  0  0  0
  161.5650  209.0720  149.4420 C   0  0  0  0  0  2  0  0  0  0  0  0
  161.1230  209.8160  153.5580 C   0  0  0  0  0  2  0  0  0  0  0  0
  162.3970  210.3830  152.9330 C   0  0  0  0  0  2  0  0  0  0  0  0
  155.5030  212.9940  157.0140 O   0  0  0  0  0  0  0  0  0  0  0  0
  162.0860  210.6900  147.7280 C   0  0  0  0  0  2  0  0  0  0  0  0
  159.8650  210.5360  153.0350 C   0  0  1  0  0  3  0  0  0  0  0  0
  160.8820  213.1660  142.0510 C   0  0  0  0  0  0  0  0  0  0  0  0
  163.2350  212.1450  144.2570 C   0  0  0  0  0  1  0  0  0  0  0  0
  159.7740  213.3360  144.3000 C   0  0  0  0  0  0  0  0  0  0  0  0
  160.9610  212.7930  143.5100 C   0  0  2  0  0  3  0  0  0  0  0  0
  158.6040  213.5250  143.6730 C   0  0  0  0  0  3  0  0  0  0  0  0
  158.4220  213.2020  142.2160 C   0  0  2  0  0  3  0  0  0  0  0  0
  158.0300  211.8810  142.0880 F   0  0  0  0  0  0  0  0  0  0  0  0
  162.4510  213.5920  141.3090 S   0  0  0  0  0  0  0  0  0  0  0  0
  162.8680  214.2760  142.9360 C   0  0  1  0  0  3  0  0  0  0  0  0
  162.3080  213.3270  144.0050 C   0  0  2  0  0  3  0  0  0  0  0  0
  159.7000  213.4150  141.4540 C   0  0  0  0  0  0  0  0  0  0  0  0
  159.6200  213.9030  140.0430 C   0  0  0  0  0  1  0  0  0  0  0  0
  164.7280  214.4360  141.7500 C   0  0  0  0  0  1  0  0  0  0  0  0
  164.2490  214.4500  143.0590 O   0  0  0  0  0  0  0  0  0  0  0  0
  1 20  1  0  0  0  0
  2 26  1  6  0  0  0
  2  3  1  0  0  0  0
  3  8  1  1  0  0  0
  4 12  1  0  0  0  0
  4 22  1  0  0  0  0
  5 28  1  0  0  0  0
  6 21  1  0  0  0  0
  7 24  1  0  0  0  0
  7  3  1  0  0  0  0
  9 11  1  0  0  0  0
  9  2  1  0  0  0  0
 10 30  1  0  0  0  0
 11 16  1  0  0  0  0
 12 23  1  0  0  0  0
 14 17  1  0  0  0  0
 15  4  1  0  0  0  0
 16 24  1  0  0  0  0
 17  5  1  0  0  0  0
 18 21  1  0  0  0  0
 18  9  1  0  0  0  0
 19 26  1  0  0  0  0
 20 15  1  0  0  0  0
 20  5  1  0  0  0  0
 21 13  1  0  0  0  0
 22  6  1  0  0  0  0
 23 32  1  0  0  0  0
 24 33  1  0  0  0  0
 25 18  1  0  0  0  0
 27 29  1  0  0  0  0
 27  1  2  0  0  0  0
 28 22  1  0  0  0  0
 29 14  1  0  0  0  0
 30 12  1  0  0  0  0
 32 31  1  0  0  0  0
 33  8  1  0  0  0  0
 34 10  1  0  0  0  0
 34 15  1  0  0  0  0
 35 21  1  0  0  0  0
 35 19  1  0  0  0  0
 35 31  1  0  0  0  0
 36 39  1  0  0  0  0
 38 27  1  0  0  0  0
 39 45  1  0  0  0  0
 39 38  1  0  0  0  0
 40 38  2  0  0  0  0
 41 40  1  0  0  0  0
 42 41  1  0  0  0  0
 43 36  1  0  0  0  0
 43 44  1  0  0  0  0
 44 49  1  0  0  0  0
 44 45  1  0  0  0  0
 45 37  1  0  0  0  0
 46 36  2  0  0  0  0
 46 41  1  0  0  0  0
 47 46  1  0  0  0  0
 48 49  1  0  0  0  0
M  END
>  <MODEL>
2

>  <REMARK>
 VINA RESULT:       5.7      4.162     11.276
  Name = 
  2 active torsions:
  status: ('A' for Active; 'I' for Inactive)
    1  A    between atoms: C_10  and  C_37
    2  A    between atoms: O_27  and  C_43
                            x       y       z     vdW  Elec       q    Type
                         _______ _______ _______ _____ _____    ______ ____

>  <TORSDO>
F 2

$$$$
=
 OpenBabel11072409483D

 49 57  0  0  1  0  0  0  0  0999 V2000
  160.1080  211.9340  149.4100 N   0  0  0  0  0  0  0  0  0  0  0  0
  160.9420  212.1380  140.1840 C   0  0  2  0  0  3  0  0  0  0  0  0
  161.3550  211.5270  138.8370 C   0  0  2  0  0  3  0  0  0  0  0  0
  158.8010  213.2060  146.0140 C   0  0  1  0  0  3  0  0  0  0  0  0
  161.4100  212.6400  147.3600 C   0  0  2  0  0  3  0  0  0  0  0  0
  160.1340  213.9780  144.1160 O   0  0  0  0  0  0  0  0  0  0  0  0
  161.9360  210.2730  139.0100 O   0  0  0  0  0  0  0  0  0  0  0  0
  162.3850  212.3800  138.1550 C   0  0  0  0  0  2  0  0  0  0  0  0
  161.8300  211.7250  141.3940 C   0  0  1  0  0  3  0  0  0  0  0  0
  156.3780  212.5190  147.2920 N   0  0  0  0  0  2  0  0  0  0  0  0
  163.3230  211.8730  141.1150 C   0  0  0  0  0  2  0  0  0  0  0  0
  157.5890  212.7230  145.1750 C   0  0  2  0  0  3  0  0  0  0  0  0
  160.4570  214.4530  141.8590 C   0  0  0  0  0  1  0  0  0  0  0  0
  162.6250  210.6200  148.1840 C   0  0  0  0  0  2  0  0  0  0  0  0
  158.8960  212.3730  147.3130 C   0  0  1  0  0  3  0  0  0  0  0  0
  163.8810  210.6550  140.3810 C   0  0  0  0  0  2  0  0  0  0  0  0
  161.7840  211.1990  147.0550 C   0  0  0  0  0  2  0  0  0  0  0  0
  161.5240  212.3870  142.7590 C   0  0  1  0  0  3  0  0  0  0  0  0
  159.1200  211.4330  141.6670 O   0  0  0  0  0  0  0  0  0  0  0  0
  160.1120  212.7330  148.1740 C   0  0  1  0  0  3  0  0  0  0  0  0
  160.2630  213.3150  142.8600 C   0  0  1  0  0  0  0  0  0  0  0  0
  160.1190  213.0950  145.2130 C   0  0  1  0  0  3  0  0  0  0  0  0
  156.8150  213.8820  144.5510 C   0  0  0  0  0  2  0  0  0  0  0  0
  163.3170  210.5250  138.9640 C   0  0  2  0  0  3  0  0  0  0  0  0
  161.5050  211.3700  143.7160 O   0  0  0  0  0  1  0  0  0  0  0  0
  159.4380  211.9040  140.3810 C   0  0  0  0  0  2  0  0  0  0  0  0
  161.0890  211.3100  150.0020 C   0  0  0  0  0  0  0  0  0  0  0  0
  161.3150  213.4740  146.0900 C   0  0  0  0  0  2  0  0  0  0  0  0
  162.3680  211.2510  149.4370 O   0  0  0  0  0  0  0  0  0  0  0  0
  156.6030  211.8850  145.9950 C   0  0  0  0  0  2  0  0  0  0  0  0
  157.7050  213.3830  142.2230 C   0  0  0  0  0  2  0  0  0  0  0  0
  157.4650  214.4460  143.2940 C   0  0  0  0  0  2  0  0  0  0  0  0
  163.5920  211.6830  138.2120 O   0  0  0  0  0  0  0  0  0  0  0  0
  157.5890  212.4590  148.1230 C   0  0  0  0  0  2  0  0  0  0  0  0
  158.9550  212.5370  142.5330 C   0  0  1  0  0  3  0  0  0  0  0  0
  159.9760  210.6280  153.6600 C   0  0  0  0  0  0  0  0  0  0  0  0
  157.9710  212.7880  152.0010 C   0  0  0  0  0  1  0  0  0  0  0  0
  160.8560  210.6460  151.3060 C   0  0  0  0  0  0  0  0  0  0  0  0
  159.7080  211.0350  152.2320 C   0  0  2  0  0  3  0  0  0  0  0  0
  161.6150  209.5860  151.6170 C   0  0  0  0  0  3  0  0  0  0  0  0
  161.3580  208.7560  152.8440 C   0  0  2  0  0  3  0  0  0  0  0  0
  160.4600  207.7510  152.5330 F   0  0  0  0  0  0  0  0  0  0  0  0
  159.4330  211.8120  154.8830 S   0  0  0  0  0  0  0  0  0  0  0  0
  159.8730  213.0670  153.6500 C   0  0  1  0  0  3  0  0  0  0  0  0
  159.4490  212.5430  152.2700 C   0  0  2  0  0  3  0  0  0  0  0  0
  160.7940  209.5980  153.9540 C   0  0  0  0  0  0  0  0  0  0  0  0
  161.1620  209.2640  155.3630 C   0  0  0  0  0  1  0  0  0  0  0  0
  158.4820  214.0320  155.0730 C   0  0  0  0  0  1  0  0  0  0  0  0
  159.2730  214.2920  153.9540 O   0  0  0  0  0  0  0  0  0  0  0  0
  1 27  2  0  0  0  0
  2 26  1  1  0  0  0
  2  9  1  0  0  0  0
  3  8  1  1  0  0  0
  3  7  1  0  0  0  0
  3  2  1  0  0  0  0
  4 15  1  0  0  0  0
  5 20  1  0  0  0  0
  6 22  1  0  0  0  0
  8 33  1  0  0  0  0
  9 18  1  0  0  0  0
 10 34  1  0  0  0  0
 11  9  1  0  0  0  0
 12 30  1  0  0  0  0
 12  4  1  0  0  0  0
 13 21  1  0  0  0  0
 14 29  1  0  0  0  0
 15 34  1  0  0  0  0
 15 20  1  0  0  0  0
 16 11  1  0  0  0  0
 17  5  1  0  0  0  0
 17 14  1  0  0  0  0
 18 21  1  0  0  0  0
 18 25  1  0  0  0  0
 19 35  1  0  0  0  0
 20  1  1  0  0  0  0
 21  6  1  0  0  0  0
 22  4  1  0  0  0  0
 22 28  1  0  0  0  0
 23 12  1  0  0  0  0
 24  7  1  0  0  0  0
 24 16  1  0  0  0  0
 26 19  1  0  0  0  0
 27 38  1  0  0  0  0
 28  5  1  0  0  0  0
 29 27  1  0  0  0  0
 30 10  1  0  0  0  0
 31 35  1  0  0  0  0
 31 32  1  0  0  0  0
 32 23  1  0  0  0  0
 33 24  1  0  0  0  0
 35 21  1  0  0  0  0
 36 46  2  0  0  0  0
 36 43  1  0  0  0  0
 37 45  1  0  0  0  0
 38 40  2  0  0  0  0
 38 39  1  0  0  0  0
 39 45  1  0  0  0  0
 39 36  1  0  0  0  0
 40 41  1  0  0  0  0
 41 46  1  0  0  0  0
 42 41  1  0  0  0  0
 44 49  1  0  0  0  0
 44 43  1  0  0  0  0
 45 44  1  0  0  0  0
 46 47  1  0  0  0  0
 49 48  1  0  0  0  0
M  END
>  <MODEL>
3

>  <REMARK>
 VINA RESULT:       6.5      1.560      2.721
  Name = 
  2 active torsions:
  status: ('A' for Active; 'I' for Inactive)
    1  A    between atoms: C_10  and  C_37
    2  A    between atoms: O_27  and  C_43
                            x       y       z     vdW  Elec       q    Type
                         _______ _______ _______ _____ _____    ______ ____

>  <TORSDO>
F 2

$$$$
