=
 OpenBabel11072413183D

 27 31  0  0  1  0  0  0  0  0999 V2000
  161.3990  205.6740  148.5670 C   0  0  0  0  0  2  0  0  0  0  0  0
  161.5920  207.9750  148.2970 C   0  0  0  0  0  2  0  0  0  0  0  0
  161.3250  206.4280  152.2620 C   0  0  0  0  0  2  0  0  0  0  0  0
  161.1960  207.5940  149.6890 C   0  0  1  0  0  3  0  0  0  0  0  0
  161.7180  206.2620  149.8590 N   0  0  1  0  0  0  0  0  0  0  0  0
  160.9830  205.6570  150.9720 C   0  0  1  0  0  3  0  0  0  0  0  0
  161.0660  207.9480  152.1140 C   0  0  2  0  0  3  0  0  0  0  0  0
  161.5570  206.7200  147.5520 N   0  0  0  0  0  2  0  0  0  0  0  0
  161.7000  208.4780  150.8100 C   0  0  0  0  0  2  0  0  0  0  0  0
  159.2820  212.3580  152.4350 C   0  0  0  0  0  2  0  0  0  0  0  0
  160.2670  211.3320  152.0800 N   0  0  0  0  0  2  0  0  0  0  0  0
  161.5610  208.6870  153.2840 N   0  0  1  0  0  0  0  0  0  0  0  0
  161.1760  211.0840  153.2130 C   0  0  1  0  0  3  0  0  0  0  0  0
  159.0610  211.0580  154.5510 C   0  0  1  0  0  3  0  0  0  0  0  0
  157.9600  210.7920  155.7950 S   0  0  0  0  0  0  0  0  0  0  0  0
  158.4940  211.9060  153.6190 C   0  0  0  0  0  0  0  0  0  0  0  0
  157.2390  212.3350  153.9080 N   0  0  0  0  0  0  0  0  0  0  0  0
  160.4440  210.5010  154.4160 C   0  0  1  0  0  3  0  0  0  0  0  0
  162.1240  209.9680  152.8360 C   0  0  0  0  0  2  0  0  0  0  0  0
  160.4220  209.0150  154.1480 C   0  0  0  0  0  2  0  0  0  0  0  0
  155.6760  212.0320  155.5580 O   0  0  0  0  0  0  0  0  0  0  0  0
  156.8120  211.7960  155.0720 C   0  0  0  0  0  0  0  0  0  0  0  0
  161.3550  204.1860  151.1470 C   0  0  0  0  0  2  0  0  0  0  0  0
  160.3230  203.3440  150.6540 O   0  0  0  0  0  0  0  0  0  0  0  0
  161.1290  201.0810  150.3610 O   0  0  0  0  0  1  0  0  0  0  0  0
  160.6040  202.2550  149.8320 C   0  0  0  0  0  0  0  0  0  0  0  0
  160.3780  202.3350  148.5970 O   0  0  0  0  0  0  0  0  0  0  0  0
  4  2  1  6  0  0  0
  4  5  1  0  0  0  0
  4  9  1  0  0  0  0
  5  1  1  6  0  0  0
  5  6  1  0  0  0  0
  6 23  1  1  0  0  0
  6  3  1  0  0  0  0
  7  9  1  6  0  0  0
  7  3  1  0  0  0  0
  7 12  1  0  0  0  0
  8  2  1  0  0  0  0
  8  1  1  0  0  0  0
 10 16  1  0  0  0  0
 11 10  1  0  0  0  0
 11 13  1  0  0  0  0
 12 19  1  6  0  0  0
 12 20  1  0  0  0  0
 13 19  1  6  0  0  0
 13 18  1  0  0  0  0
 14 16  1  1  0  0  0
 14 15  1  0  0  0  0
 16 17  2  0  0  0  0
 17 22  1  0  0  0  0
 18 20  1  6  0  0  0
 18 14  1  0  0  0  0
 22 21  2  0  0  0  0
 22 15  1  0  0  0  0
 24 23  1  0  0  0  0
 26 25  1  0  0  0  0
 26 24  1  0  0  0  0
 27 26  2  0  0  0  0
M  END
>  <MODEL>
1

>  <REMARK>
 VINA RESULT:      -7.0      0.000      0.000
  Name = 
  4 active torsions:
  status: ('A' for Active; 'I' for Inactive)
    1  A    between atoms: C_5  and  O_9
    2  A    between atoms: C_5  and  C_11
    3  A    between atoms: N_8  and  C_18
    4  A    between atoms: O_9  and  C_25
                            x       y       z     vdW  Elec       q    Type
                         _______ _______ _______ _____ _____    ______ ____

>  <TORSDO>
F 4

$$$$
=
 OpenBabel11072413183D

 27 31  0  0  1  0  0  0  0  0999 V2000
  161.8960  206.6820  149.5190 C   0  0  0  0  0  2  0  0  0  0  0  0
  162.0030  209.0050  149.5490 C   0  0  0  0  0  2  0  0  0  0  0  0
  161.2430  206.9760  153.2230 C   0  0  0  0  0  2  0  0  0  0  0  0
  161.4290  208.4420  150.8120 C   0  0  1  0  0  3  0  0  0  0  0  0
  161.9910  207.1190  150.9040 N   0  0  1  0  0  0  0  0  0  0  0  0
  161.1340  206.3570  151.8150 C   0  0  1  0  0  3  0  0  0  0  0  0
  160.9260  208.4930  153.2130 C   0  0  2  0  0  3  0  0  0  0  0  0
  162.1450  207.8490  148.6680 N   0  0  0  0  0  2  0  0  0  0  0  0
  161.7150  209.2000  152.0900 C   0  0  0  0  0  2  0  0  0  0  0  0
  159.3910  212.9940  153.5510 C   0  0  0  0  0  2  0  0  0  0  0  0
  160.3640  211.9230  153.3190 N   0  0  0  0  0  2  0  0  0  0  0  0
  161.2050  209.1010  154.5220 N   0  0  1  0  0  0  0  0  0  0  0  0
  160.9930  211.5190  154.5880 C   0  0  1  0  0  3  0  0  0  0  0  0
  158.6440  211.5620  155.4500 C   0  0  1  0  0  3  0  0  0  0  0  0
  157.2880  211.2920  156.4090 S   0  0  0  0  0  0  0  0  0  0  0  0
  158.3420  212.5190  154.5000 C   0  0  0  0  0  0  0  0  0  0  0  0
  157.0830  213.0240  154.5590 N   0  0  0  0  0  0  0  0  0  0  0  0
  159.9860  210.9080  155.5560 C   0  0  1  0  0  3  0  0  0  0  0  0
  161.9290  210.3630  154.3170 C   0  0  0  0  0  2  0  0  0  0  0  0
  159.9300  209.4530  155.1570 C   0  0  0  0  0  2  0  0  0  0  0  0
  155.1880  212.7230  155.8150 O   0  0  0  0  0  0  0  0  0  0  0  0
  156.3850  212.4350  155.5560 C   0  0  0  0  0  0  0  0  0  0  0  0
  161.5550  204.8900  151.8740 C   0  0  0  0  0  2  0  0  0  0  0  0
  160.5110  204.0480  151.4060 O   0  0  0  0  0  0  0  0  0  0  0  0
  160.8570  203.5040  149.0740 O   0  0  0  0  0  0  0  0  0  0  0  0
  160.7300  203.1090  150.4010 C   0  0  0  0  0  0  0  0  0  0  0  0
  160.8150  201.8890  150.6980 O   0  0  0  0  0  1  0  0  0  0  0  0
  4  2  1  6  0  0  0
  4  5  1  0  0  0  0
  4  9  1  0  0  0  0
  5  1  1  6  0  0  0
  5  6  1  0  0  0  0
  6 23  1  1  0  0  0
  6  3  1  0  0  0  0
  7  9  1  6  0  0  0
  7  3  1  0  0  0  0
  7 12  1  0  0  0  0
  8  1  1  0  0  0  0
  8  2  1  0  0  0  0
 10 16  1  0  0  0  0
 11 10  1  0  0  0  0
 11 13  1  0  0  0  0
 12 19  1  6  0  0  0
 12 20  1  0  0  0  0
 13 19  1  6  0  0  0
 13 18  1  0  0  0  0
 14 16  1  1  0  0  0
 14 18  1  0  0  0  0
 14 15  1  0  0  0  0
 16 17  2  0  0  0  0
 17 22  1  0  0  0  0
 18 20  1  6  0  0  0
 22 21  2  0  0  0  0
 22 15  1  0  0  0  0
 24 23  1  0  0  0  0
 25 26  2  0  0  0  0
 26 27  1  0  0  0  0
 26 24  1  0  0  0  0
M  END
>  <MODEL>
2

>  <REMARK>
 VINA RESULT:      -6.6      1.181      1.395
  Name = 
  4 active torsions:
  status: ('A' for Active; 'I' for Inactive)
    1  A    between atoms: C_5  and  O_9
    2  A    between atoms: C_5  and  C_11
    3  A    between atoms: N_8  and  C_18
    4  A    between atoms: O_9  and  C_25
                            x       y       z     vdW  Elec       q    Type
                         _______ _______ _______ _____ _____    ______ ____

>  <TORSDO>
F 4

$$$$
=
 OpenBabel11072413183D

 27 31  0  0  1  0  0  0  0  0999 V2000
  156.2700  212.9830  154.3750 C   0  0  0  0  0  2  0  0  0  0  0  0
  157.2540  211.3120  155.6590 C   0  0  0  0  0  2  0  0  0  0  0  0
  159.2570  212.5670  152.1090 C   0  0  0  0  0  2  0  0  0  0  0  0
  157.8800  211.4370  154.3050 C   0  0  1  0  0  3  0  0  0  0  0  0
  157.6420  212.8050  153.9230 N   0  0  1  0  0  0  0  0  0  0  0  0
  157.7890  212.8710  152.4680 C   0  0  1  0  0  3  0  0  0  0  0  0
  159.7320  211.2200  152.7090 C   0  0  2  0  0  3  0  0  0  0  0  0
  156.1090  212.2170  155.6150 N   0  0  0  0  0  2  0  0  0  0  0  0
  159.3610  211.1370  154.2050 C   0  0  0  0  0  2  0  0  0  0  0  0
  160.9250  206.6790  151.8810 C   0  0  0  0  0  2  0  0  0  0  0  0
  160.7210  207.8870  152.6860 N   0  0  0  0  0  2  0  0  0  0  0  0
  161.1760  211.0300  152.5090 N   0  0  1  0  0  0  0  0  0  0  0  0
  161.9300  208.7270  152.6610 C   0  0  1  0  0  3  0  0  0  0  0  0
  161.8740  208.2600  150.2030 C   0  0  1  0  0  3  0  0  0  0  0  0
  162.1530  208.3730  148.5480 S   0  0  0  0  0  0  0  0  0  0  0  0
  161.2380  207.0630  150.4730 C   0  0  0  0  0  0  0  0  0  0  0  0
  161.0070  206.2690  149.3970 N   0  0  0  0  0  0  0  0  0  0  0  0
  162.2320  209.2550  151.2630 C   0  0  1  0  0  3  0  0  0  0  0  0
  161.6540  209.9950  153.4360 C   0  0  0  0  0  2  0  0  0  0  0  0
  161.3970  210.5080  151.1560 C   0  0  0  0  0  2  0  0  0  0  0  0
  161.3470  206.3360  147.1310 O   0  0  0  0  0  0  0  0  0  0  0  0
  161.4500  206.8650  148.2670 C   0  0  0  0  0  0  0  0  0  0  0  0
  157.4140  214.2530  151.9350 C   0  0  0  0  0  2  0  0  0  0  0  0
  157.5420  214.2990  150.5210 O   0  0  0  0  0  0  0  0  0  0  0  0
  155.2580  214.0540  149.7610 O   0  0  0  0  0  1  0  0  0  0  0  0
  156.6020  213.7010  149.6860 C   0  0  0  0  0  0  0  0  0  0  0  0
  156.9720  212.8340  148.8530 O   0  0  0  0  0  0  0  0  0  0  0  0
  1  8  1  0  0  0  0
  3  6  1  0  0  0  0
  4  9  1  1  0  0  0
  4  2  1  0  0  0  0
  5  4  1  0  0  0  0
  5  1  1  6  0  0  0
  6 23  1  1  0  0  0
  6  5  1  0  0  0  0
  7  3  1  1  0  0  0
  7  9  1  0  0  0  0
  8  2  1  0  0  0  0
 10 11  1  0  0  0  0
 12 20  1  6  0  0  0
 12  7  1  0  0  0  0
 12 19  1  0  0  0  0
 13 11  1  0  0  0  0
 13 19  1  1  0  0  0
 14 15  1  1  0  0  0
 14 16  1  0  0  0  0
 14 18  1  0  0  0  0
 16 10  1  0  0  0  0
 17 16  2  0  0  0  0
 18 20  1  6  0  0  0
 18 13  1  0  0  0  0
 21 22  2  0  0  0  0
 22 15  1  0  0  0  0
 22 17  1  0  0  0  0
 24 23  1  0  0  0  0
 26 25  1  0  0  0  0
 26 24  1  0  0  0  0
 27 26  2  0  0  0  0
M  END
>  <MODEL>
3

>  <REMARK>
 VINA RESULT:      -6.2      3.130      8.265
  Name = 
  4 active torsions:
  status: ('A' for Active; 'I' for Inactive)
    1  A    between atoms: C_5  and  O_9
    2  A    between atoms: C_5  and  C_11
    3  A    between atoms: N_8  and  C_18
    4  A    between atoms: O_9  and  C_25
                            x       y       z     vdW  Elec       q    Type
                         _______ _______ _______ _____ _____    ______ ____

>  <TORSDO>
F 4

$$$$
=
 OpenBabel11072413183D

 27 31  0  0  1  0  0  0  0  0999 V2000
  161.5090  206.4350  150.4170 C   0  0  0  0  0  2  0  0  0  0  0  0
  161.4430  204.5360  151.7570 C   0  0  0  0  0  2  0  0  0  0  0  0
  160.9380  208.3370  153.6240 C   0  0  0  0  0  2  0  0  0  0  0  0
  161.5680  205.7950  152.5560 C   0  0  1  0  0  3  0  0  0  0  0  0
  160.9810  206.8110  151.7200 N   0  0  1  0  0  0  0  0  0  0  0  0
  161.4820  208.1000  152.2030 C   0  0  1  0  0  3  0  0  0  0  0  0
  161.2690  207.1580  154.5750 C   0  0  2  0  0  3  0  0  0  0  0  0
  161.5710  204.9710  150.3700 N   0  0  0  0  0  2  0  0  0  0  0  0
  160.8990  205.8140  153.9140 C   0  0  0  0  0  2  0  0  0  0  0  0
  161.9710  211.4460  156.5380 C   0  0  0  0  0  2  0  0  0  0  0  0
  162.2150  210.0190  156.3110 N   0  0  0  0  0  2  0  0  0  0  0  0
  160.5950  207.3170  155.8710 N   0  0  1  0  0  0  0  0  0  0  0  0
  161.3570  209.2070  157.1910 C   0  0  1  0  0  3  0  0  0  0  0  0
  159.5670  210.7930  156.4520 C   0  0  1  0  0  3  0  0  0  0  0  0
  158.0570  211.4630  156.1350 S   0  0  0  0  0  0  0  0  0  0  0  0
  160.5380  211.7580  156.2640 C   0  0  0  0  0  0  0  0  0  0  0  0
  160.0810  212.9840  155.9020 N   0  0  0  0  0  0  0  0  0  0  0  0
  159.8770  209.3900  156.8740 C   0  0  1  0  0  3  0  0  0  0  0  0
  161.5810  207.7470  156.8720 C   0  0  0  0  0  2  0  0  0  0  0  0
  159.6160  208.4030  155.7610 C   0  0  0  0  0  2  0  0  0  0  0  0
  158.0660  213.9820  155.4520 O   0  0  0  0  0  0  0  0  0  0  0  0
  158.7340  212.9690  155.7840 C   0  0  0  0  0  0  0  0  0  0  0  0
  161.0370  209.2430  151.2930 C   0  0  0  0  0  2  0  0  0  0  0  0
  162.1560  209.8440  150.6560 O   0  0  0  0  0  0  0  0  0  0  0  0
  162.3310  211.4540  148.8580 O   0  0  0  0  0  1  0  0  0  0  0  0
  162.1420  210.1480  149.2960 C   0  0  0  0  0  0  0  0  0  0  0  0
  161.9570  209.2300  148.4560 O   0  0  0  0  0  0  0  0  0  0  0  0
  4  2  1  6  0  0  0
  4  9  1  0  0  0  0
  5  1  1  6  0  0  0
  5  6  1  0  0  0  0
  5  4  1  0  0  0  0
  6 23  1  6  0  0  0
  6  3  1  0  0  0  0
  7  3  1  6  0  0  0
  7 12  1  0  0  0  0
  8  1  1  0  0  0  0
  8  2  1  0  0  0  0
  9  7  1  0  0  0  0
 11 10  1  0  0  0  0
 11 13  1  0  0  0  0
 12 20  1  6  0  0  0
 12 19  1  0  0  0  0
 13 19  1  6  0  0  0
 14 15  1  1  0  0  0
 14 18  1  0  0  0  0
 16 14  1  0  0  0  0
 16 10  1  0  0  0  0
 17 16  2  0  0  0  0
 18 20  1  6  0  0  0
 18 13  1  0  0  0  0
 21 22  2  0  0  0  0
 22 17  1  0  0  0  0
 22 15  1  0  0  0  0
 24 23  1  0  0  0  0
 25 26  1  0  0  0  0
 26 24  1  0  0  0  0
 27 26  2  0  0  0  0
M  END
>  <MODEL>
4

>  <REMARK>
 VINA RESULT:      -6.1      3.288      4.485
  Name = 
  4 active torsions:
  status: ('A' for Active; 'I' for Inactive)
    1  A    between atoms: C_5  and  O_9
    2  A    between atoms: C_5  and  C_11
    3  A    between atoms: N_8  and  C_18
    4  A    between atoms: O_9  and  C_25
                            x       y       z     vdW  Elec       q    Type
                         _______ _______ _______ _____ _____    ______ ____

>  <TORSDO>
F 4

$$$$
=
 OpenBabel11072413183D

 27 31  0  0  1  0  0  0  0  0999 V2000
  158.1900  211.9130  154.9950 C   0  0  0  0  0  2  0  0  0  0  0  0
  159.2010  210.3770  156.4190 C   0  0  0  0  0  2  0  0  0  0  0  0
  160.4290  210.4500  152.3350 C   0  0  0  0  0  2  0  0  0  0  0  0
  159.4850  210.0930  154.9770 C   0  0  1  0  0  3  0  0  0  0  0  0
  159.3660  211.3740  154.3280 N   0  0  1  0  0  0  0  0  0  0  0  0
  159.1570  211.1100  152.9030 C   0  0  1  0  0  3  0  0  0  0  0  0
  160.8320  209.1870  153.1370 C   0  0  2  0  0  3  0  0  0  0  0  0
  158.2280  211.4650  156.3910 N   0  0  0  0  0  2  0  0  0  0  0  0
  160.8330  209.4880  154.6510 C   0  0  0  0  0  2  0  0  0  0  0  0
  160.5020  205.1510  150.6200 C   0  0  0  0  0  2  0  0  0  0  0  0
  160.7050  205.9720  151.8170 N   0  0  0  0  0  2  0  0  0  0  0  0
  162.1370  208.6730  152.6960 N   0  0  1  0  0  0  0  0  0  0  0  0
  162.1190  206.3680  151.9320 C   0  0  1  0  0  3  0  0  0  0  0  0
  161.8860  206.8930  149.4960 C   0  0  1  0  0  3  0  0  0  0  0  0
  162.1660  207.5300  147.9640 S   0  0  0  0  0  0  0  0  0  0  0  0
  160.9040  205.9240  149.4090 C   0  0  0  0  0  0  0  0  0  0  0  0
  160.4190  205.6950  148.1630 N   0  0  0  0  0  0  0  0  0  0  0  0
  162.5560  207.2680  150.7810 C   0  0  1  0  0  3  0  0  0  0  0  0
  162.2710  207.2760  153.1310 C   0  0  0  0  0  2  0  0  0  0  0  0
  162.1630  208.6550  151.2300 C   0  0  0  0  0  2  0  0  0  0  0  0
  160.7350  206.5020  146.0400 O   0  0  0  0  0  0  0  0  0  0  0  0
  161.0150  206.5130  147.2660 C   0  0  0  0  0  0  0  0  0  0  0  0
  158.8720  212.4000  152.1360 C   0  0  0  0  0  2  0  0  0  0  0  0
  159.9850  212.7650  151.3330 O   0  0  0  0  0  0  0  0  0  0  0  0
  160.7340  213.2660  149.0870 O   0  0  0  0  0  0  0  0  0  0  0  0
  159.8200  213.4330  150.1220 C   0  0  0  0  0  0  0  0  0  0  0  0
  158.8310  214.1950  149.9620 O   0  0  0  0  0  1  0  0  0  0  0  0
  1  8  1  0  0  0  0
  3  6  1  0  0  0  0
  4  9  1  1  0  0  0
  4  2  1  0  0  0  0
  5  4  1  0  0  0  0
  5  1  1  1  0  0  0
  6 23  1  6  0  0  0
  6  5  1  0  0  0  0
  7  3  1  6  0  0  0
  7  9  1  0  0  0  0
  8  2  1  0  0  0  0
 10 11  1  0  0  0  0
 11 13  1  0  0  0  0
 12 20  1  6  0  0  0
 12 19  1  0  0  0  0
 12  7  1  0  0  0  0
 13 19  1  1  0  0  0
 14 15  1  6  0  0  0
 14 18  1  0  0  0  0
 16 14  1  0  0  0  0
 16 10  1  0  0  0  0
 17 16  2  0  0  0  0
 18 20  1  1  0  0  0
 18 13  1  0  0  0  0
 21 22  2  0  0  0  0
 22 15  1  0  0  0  0
 22 17  1  0  0  0  0
 24 23  1  0  0  0  0
 25 26  2  0  0  0  0
 26 24  1  0  0  0  0
 27 26  1  0  0  0  0
M  END
>  <MODEL>
5

>  <REMARK>
 VINA RESULT:      -5.9      3.429      7.993
  Name = 
  4 active torsions:
  status: ('A' for Active; 'I' for Inactive)
    1  A    between atoms: C_5  and  O_9
    2  A    between atoms: C_5  and  C_11
    3  A    between atoms: N_8  and  C_18
    4  A    between atoms: O_9  and  C_25
                            x       y       z     vdW  Elec       q    Type
                         _______ _______ _______ _____ _____    ______ ____

>  <TORSDO>
F 4

$$$$
=
 OpenBabel11072413183D

 27 31  0  0  1  0  0  0  0  0999 V2000
  161.5760  207.7750  150.0640 C   0  0  0  0  0  2  0  0  0  0  0  0
  161.3230  205.6480  150.9710 C   0  0  0  0  0  2  0  0  0  0  0  0
  161.0740  209.0000  153.5970 C   0  0  0  0  0  2  0  0  0  0  0  0
  161.5270  206.6970  152.0200 C   0  0  1  0  0  3  0  0  0  0  0  0
  161.0460  207.9110  151.4130 N   0  0  1  0  0  0  0  0  0  0  0  0
  161.6350  209.0230  152.1610 C   0  0  1  0  0  3  0  0  0  0  0  0
  161.2860  207.6250  154.2780 C   0  0  2  0  0  3  0  0  0  0  0  0
  161.5220  206.3540  149.7090 N   0  0  0  0  0  2  0  0  0  0  0  0
  160.8270  206.4850  153.3450 C   0  0  0  0  0  2  0  0  0  0  0  0
  162.2250  211.3640  157.0850 C   0  0  0  0  0  2  0  0  0  0  0  0
  162.3790  209.9990  156.5730 N   0  0  0  0  0  2  0  0  0  0  0  0
  160.5930  207.5630  155.5730 N   0  0  1  0  0  0  0  0  0  0  0  0
  161.4470  209.0870  157.2600 C   0  0  1  0  0  3  0  0  0  0  0  0
  159.7850  210.9110  156.8440 C   0  0  1  0  0  3  0  0  0  0  0  0
  158.3310  211.7360  156.6560 S   0  0  0  0  0  0  0  0  0  0  0  0
  160.8220  211.8240  156.8670 C   0  0  0  0  0  0  0  0  0  0  0  0
  160.4560  213.1270  156.7590 N   0  0  0  0  0  0  0  0  0  0  0  0
  159.9910  209.4340  156.9720 C   0  0  1  0  0  3  0  0  0  0  0  0
  161.5810  207.7110  156.6510 C   0  0  0  0  0  2  0  0  0  0  0  0
  159.6910  208.7150  155.6790 C   0  0  0  0  0  2  0  0  0  0  0  0
  158.5240  214.3340  156.5030 O   0  0  0  0  0  0  0  0  0  0  0  0
  159.1150  213.2310  156.6270 C   0  0  0  0  0  0  0  0  0  0  0  0
  161.3070  210.3650  151.5110 C   0  0  0  0  0  2  0  0  0  0  0  0
  160.8110  211.2840  152.4750 O   0  0  0  0  0  0  0  0  0  0  0  0
  158.4590  211.6740  152.8860 O   0  0  0  0  0  1  0  0  0  0  0  0
  159.6480  212.0160  152.2500 C   0  0  0  0  0  0  0  0  0  0  0  0
  159.6730  212.9980  151.4650 O   0  0  0  0  0  0  0  0  0  0  0  0
  3  7  1  0  0  0  0
  4  2  1  6  0  0  0
  4  9  1  0  0  0  0
  5  1  1  6  0  0  0
  5  4  1  0  0  0  0
  5  6  1  0  0  0  0
  6 23  1  6  0  0  0
  6  3  1  0  0  0  0
  7  9  1  6  0  0  0
  7 12  1  0  0  0  0
  8  1  1  0  0  0  0
  8  2  1  0  0  0  0
 11 10  1  0  0  0  0
 11 13  1  0  0  0  0
 12 20  1  6  0  0  0
 12 19  1  0  0  0  0
 13 19  1  6  0  0  0
 14 15  1  1  0  0  0
 14 16  1  0  0  0  0
 14 18  1  0  0  0  0
 16 10  1  0  0  0  0
 17 16  2  0  0  0  0
 18 20  1  6  0  0  0
 18 13  1  0  0  0  0
 21 22  2  0  0  0  0
 22 15  1  0  0  0  0
 22 17  1  0  0  0  0
 23 24  1  0  0  0  0
 26 24  1  0  0  0  0
 26 25  1  0  0  0  0
 27 26  2  0  0  0  0
M  END
>  <MODEL>
6

>  <REMARK>
 VINA RESULT:      -5.8      3.769      5.135
  Name = 
  4 active torsions:
  status: ('A' for Active; 'I' for Inactive)
    1  A    between atoms: C_5  and  O_9
    2  A    between atoms: C_5  and  C_11
    3  A    between atoms: N_8  and  C_18
    4  A    between atoms: O_9  and  C_25
                            x       y       z     vdW  Elec       q    Type
                         _______ _______ _______ _____ _____    ______ ____

>  <TORSDO>
F 4

$$$$
=
 OpenBabel11072413183D

 27 31  0  0  1  0  0  0  0  0999 V2000
  161.4180  206.7670  151.2200 C   0  0  0  0  0  2  0  0  0  0  0  0
  161.2920  205.1450  152.8820 C   0  0  0  0  0  2  0  0  0  0  0  0
  160.8710  209.2330  154.0220 C   0  0  0  0  0  2  0  0  0  0  0  0
  161.4430  206.5250  153.4400 C   0  0  1  0  0  3  0  0  0  0  0  0
  160.8890  207.3860  152.4270 N   0  0  1  0  0  0  0  0  0  0  0  0
  161.4200  208.7280  152.6730 C   0  0  1  0  0  3  0  0  0  0  0  0
  161.1640  208.2390  155.1740 C   0  0  2  0  0  3  0  0  0  0  0  0
  161.4420  205.3170  151.4400 N   0  0  0  0  0  2  0  0  0  0  0  0
  160.7640  206.8060  154.7640 C   0  0  0  0  0  2  0  0  0  0  0  0
  160.0160  212.8670  155.2420 C   0  0  0  0  0  2  0  0  0  0  0  0
  160.8320  211.6830  155.5270 N   0  0  0  0  0  2  0  0  0  0  0  0
  160.4830  208.6470  156.4120 N   0  0  1  0  0  0  0  0  0  0  0  0
  160.3890  211.0460  156.7790 C   0  0  1  0  0  3  0  0  0  0  0  0
  158.1020  211.3760  155.8170 C   0  0  1  0  0  3  0  0  0  0  0  0
  156.4500  211.2280  155.5350 S   0  0  0  0  0  0  0  0  0  0  0  0
  158.5830  212.4680  155.1200 C   0  0  0  0  0  0  0  0  0  0  0  0
  157.6570  213.1620  154.4100 N   0  0  0  0  0  0  0  0  0  0  0  0
  158.9670  210.5050  156.6730 C   0  0  1  0  0  3  0  0  0  0  0  0
  161.2000  209.7890  156.9960 C   0  0  0  0  0  2  0  0  0  0  0  0
  159.1410  209.1310  156.0720 C   0  0  0  0  0  2  0  0  0  0  0  0
  155.4110  213.0390  153.9690 O   0  0  0  0  0  0  0  0  0  0  0  0
  156.4390  212.5900  154.5370 C   0  0  0  0  0  0  0  0  0  0  0  0
  161.0120  209.6980  151.5660 C   0  0  0  0  0  2  0  0  0  0  0  0
  162.1530  210.1550  150.8520 O   0  0  0  0  0  0  0  0  0  0  0  0
  162.1450  209.1210  148.6640 O   0  0  0  0  0  0  0  0  0  0  0  0
  162.1470  210.2590  149.4630 C   0  0  0  0  0  0  0  0  0  0  0  0
  162.1420  211.3970  148.9260 O   0  0  0  0  0  1  0  0  0  0  0  0
  1  8  1  0  0  0  0
  4  2  1  6  0  0  0
  4  9  1  0  0  0  0
  5  1  1  6  0  0  0
  5  6  1  0  0  0  0
  5  4  1  0  0  0  0
  6 23  1  6  0  0  0
  6  3  1  0  0  0  0
  7  3  1  6  0  0  0
  7 12  1  0  0  0  0
  8  2  1  0  0  0  0
  9  7  1  0  0  0  0
 10 11  1  0  0  0  0
 11 13  1  0  0  0  0
 12 20  1  6  0  0  0
 12 19  1  0  0  0  0
 13 19  1  6  0  0  0
 14 16  1  1  0  0  0
 14 18  1  0  0  0  0
 15 14  1  0  0  0  0
 16 10  1  0  0  0  0
 17 22  1  0  0  0  0
 17 16  2  0  0  0  0
 18 20  1  6  0  0  0
 18 13  1  0  0  0  0
 21 22  2  0  0  0  0
 22 15  1  0  0  0  0
 24 23  1  0  0  0  0
 25 26  2  0  0  0  0
 26 24  1  0  0  0  0
 27 26  1  0  0  0  0
M  END
>  <MODEL>
7

>  <REMARK>
 VINA RESULT:      -5.5      3.164      4.394
  Name = 
  4 active torsions:
  status: ('A' for Active; 'I' for Inactive)
    1  A    between atoms: C_5  and  O_9
    2  A    between atoms: C_5  and  C_11
    3  A    between atoms: N_8  and  C_18
    4  A    between atoms: O_9  and  C_25
                            x       y       z     vdW  Elec       q    Type
                         _______ _______ _______ _____ _____    ______ ____

>  <TORSDO>
F 4

$$$$
=
 OpenBabel11072413183D

 27 31  0  0  1  0  0  0  0  0999 V2000
  162.1380  207.7240  150.6910 C   0  0  0  0  0  2  0  0  0  0  0  0
  162.2260  209.4850  152.2070 C   0  0  0  0  0  2  0  0  0  0  0  0
  161.4160  210.3860  148.1170 C   0  0  0  0  0  2  0  0  0  0  0  0
  162.2480  209.9530  150.7850 C   0  0  1  0  0  3  0  0  0  0  0  0
  161.5810  208.9080  150.0520 N   0  0  1  0  0  0  0  0  0  0  0  0
  161.9770  209.0530  148.6500 C   0  0  1  0  0  3  0  0  0  0  0  0
  161.8420  211.5860  149.0000 C   0  0  2  0  0  3  0  0  0  0  0  0
  162.3180  208.0320  152.1130 N   0  0  0  0  0  2  0  0  0  0  0  0
  161.5810  211.2790  150.4890 C   0  0  0  0  0  2  0  0  0  0  0  0
  163.3130  213.2070  144.7640 C   0  0  0  0  0  2  0  0  0  0  0  0
  163.2720  213.1220  146.2270 N   0  0  0  0  0  2  0  0  0  0  0  0
  161.1570  212.8190  148.5840 N   0  0  1  0  0  0  0  0  0  0  0  0
  162.2290  214.0140  146.7610 C   0  0  1  0  0  3  0  0  0  0  0  0
  160.8320  213.0280  144.9340 C   0  0  1  0  0  3  0  0  0  0  0  0
  159.5050  212.5590  144.0120 S   0  0  0  0  0  0  0  0  0  0  0  0
  161.9860  212.8180  144.2030 C   0  0  0  0  0  0  0  0  0  0  0  0
  161.8040  212.3220  142.9530 N   0  0  0  0  0  0  0  0  0  0  0  0
  160.8320  213.5890  146.3210 C   0  0  1  0  0  3  0  0  0  0  0  0
  162.1650  213.8390  148.2610 C   0  0  0  0  0  2  0  0  0  0  0  0
  160.4250  212.5530  147.3410 C   0  0  0  0  0  2  0  0  0  0  0  0
  160.0550  211.6610  141.6250 O   0  0  0  0  0  0  0  0  0  0  0  0
  160.4880  212.1210  142.7120 C   0  0  0  0  0  0  0  0  0  0  0  0
  161.4410  207.9030  147.8000 C   0  0  0  0  0  2  0  0  0  0  0  0
  162.4710  206.9690  147.5100 O   0  0  0  0  0  0  0  0  0  0  0  0
  161.7910  204.6470  147.4370 O   0  0  0  0  0  1  0  0  0  0  0  0
  162.2140  205.8040  146.7900 C   0  0  0  0  0  0  0  0  0  0  0  0
  162.3660  205.7980  145.5420 O   0  0  0  0  0  0  0  0  0  0  0  0
  1  8  1  0  0  0  0
  3  6  1  0  0  0  0
  4  9  1  1  0  0  0
  4  2  1  0  0  0  0
  5  1  1  1  0  0  0
  5  4  1  0  0  0  0
  6 23  1  6  0  0  0
  6  5  1  0  0  0  0
  7  3  1  6  0  0  0
  7  9  1  0  0  0  0
  8  2  1  0  0  0  0
 10 11  1  0  0  0  0
 11 13  1  0  0  0  0
 12 20  1  6  0  0  0
 12  7  1  0  0  0  0
 13 19  1  1  0  0  0
 14 15  1  6  0  0  0
 14 18  1  0  0  0  0
 16 10  1  0  0  0  0
 16 14  1  0  0  0  0
 17 16  2  0  0  0  0
 18 13  1  0  0  0  0
 18 20  1  1  0  0  0
 19 12  1  0  0  0  0
 21 22  2  0  0  0  0
 22 17  1  0  0  0  0
 22 15  1  0  0  0  0
 24 23  1  0  0  0  0
 26 25  1  0  0  0  0
 26 24  1  0  0  0  0
 27 26  2  0  0  0  0
M  END
>  <MODEL>
8

>  <REMARK>
 VINA RESULT:      -5.4      5.431      7.505
  Name = 
  4 active torsions:
  status: ('A' for Active; 'I' for Inactive)
    1  A    between atoms: C_5  and  O_9
    2  A    between atoms: C_5  and  C_11
    3  A    between atoms: N_8  and  C_18
    4  A    between atoms: O_9  and  C_25
                            x       y       z     vdW  Elec       q    Type
                         _______ _______ _______ _____ _____    ______ ____

>  <TORSDO>
F 4

$$$$
=
 OpenBabel11072413183D

 27 31  0  0  1  0  0  0  0  0999 V2000
  156.3350  213.5550  154.4750 C   0  0  0  0  0  2  0  0  0  0  0  0
  157.5440  212.4730  156.1410 C   0  0  0  0  0  2  0  0  0  0  0  0
  159.1080  212.4420  152.1730 C   0  0  0  0  0  2  0  0  0  0  0  0
  158.0270  212.1270  154.7670 C   0  0  1  0  0  3  0  0  0  0  0  0
  157.6650  213.2650  153.9610 N   0  0  1  0  0  0  0  0  0  0  0  0
  157.6660  212.8150  152.5670 C   0  0  1  0  0  3  0  0  0  0  0  0
  159.7250  211.4080  153.1480 C   0  0  2  0  0  3  0  0  0  0  0  0
  156.3450  213.2730  155.9140 N   0  0  0  0  0  2  0  0  0  0  0  0
  159.5070  211.8500  154.6100 C   0  0  0  0  0  2  0  0  0  0  0  0
  160.9910  206.8120  153.2330 C   0  0  0  0  0  2  0  0  0  0  0  0
  160.8170  208.1650  153.7680 N   0  0  0  0  0  2  0  0  0  0  0  0
  161.1520  211.1970  152.8640 N   0  0  1  0  0  0  0  0  0  0  0  0
  161.9920  208.9950  153.4500 C   0  0  1  0  0  3  0  0  0  0  0  0
  161.7410  207.9940  151.1700 C   0  0  2  0  0  3  0  0  0  0  0  0
  161.8730  207.7400  149.5120 S   0  0  0  0  0  0  0  0  0  0  0  0
  161.1690  206.8790  151.7530 C   0  0  0  0  0  0  0  0  0  0  0  0
  160.8730  205.8620  150.9030 N   0  0  0  0  0  0  0  0  0  0  0  0
  162.1550  209.2040  151.9480 C   0  0  1  0  0  3  0  0  0  0  0  0
  161.7410  210.3990  153.9490 C   0  0  0  0  0  2  0  0  0  0  0  0
  161.2730  210.3910  151.6450 C   0  0  0  0  0  2  0  0  0  0  0  0
  161.0160  205.4290  148.6560 O   0  0  0  0  0  0  0  0  0  0  0  0
  161.1980  206.1990  149.6340 C   0  0  0  0  0  0  0  0  0  0  0  0
  157.1530  213.9090  151.6330 C   0  0  0  0  0  2  0  0  0  0  0  0
  156.9060  213.3860  150.3350 O   0  0  0  0  0  0  0  0  0  0  0  0
  157.3070  213.4350  147.9490 O   0  0  0  0  0  0  0  0  0  0  0  0
  157.7060  213.7320  149.2480 C   0  0  0  0  0  0  0  0  0  0  0  0
  158.8000  214.3210  149.4440 O   0  0  0  0  0  1  0  0  0  0  0  0
  1  8  1  0  0  0  0
  3  6  1  0  0  0  0
  4  9  1  1  0  0  0
  4  2  1  0  0  0  0
  5  1  1  1  0  0  0
  5  4  1  0  0  0  0
  6 23  1  6  0  0  0
  6  5  1  0  0  0  0
  7  3  1  6  0  0  0
  7  9  1  0  0  0  0
  8  2  1  0  0  0  0
 10 11  1  0  0  0  0
 12 20  1  6  0  0  0
 12  7  1  0  0  0  0
 12 19  1  0  0  0  0
 13 11  1  0  0  0  0
 13 19  1  1  0  0  0
 14 15  1  6  0  0  0
 14 16  1  0  0  0  0
 14 18  1  0  0  0  0
 15 22  1  0  0  0  0
 16 10  1  0  0  0  0
 17 16  2  0  0  0  0
 18 20  1  6  0  0  0
 18 13  1  0  0  0  0
 21 22  2  0  0  0  0
 22 17  1  0  0  0  0
 24 23  1  0  0  0  0
 25 26  2  0  0  0  0
 26 27  1  0  0  0  0
 26 24  1  0  0  0  0
M  END
>  <MODEL>
9

>  <REMARK>
 VINA RESULT:      -5.1      3.187      8.185
  Name = 
  4 active torsions:
  status: ('A' for Active; 'I' for Inactive)
    1  A    between atoms: C_5  and  O_9
    2  A    between atoms: C_5  and  C_11
    3  A    between atoms: N_8  and  C_18
    4  A    between atoms: O_9  and  C_25
                            x       y       z     vdW  Elec       q    Type
                         _______ _______ _______ _____ _____    ______ ____

>  <TORSDO>
F 4

$$$$
