=
 OpenBabel11072413143D

 34 39  0  0  1  0  0  0  0  0999 V2000
  160.9740  211.3570  157.2110 N   0  0  0  0  0  2  0  0  0  0  0  0
  160.7270  207.7780  155.0860 C   0  0  0  0  0  0  0  0  0  0  0  0
  160.7990  210.2590  156.5530 C   0  0  0  0  0  0  0  0  0  0  0  0
  160.4880  210.3180  155.0830 C   0  0  1  0  0  3  0  0  0  0  0  0
  160.7130  209.0010  154.3830 C   0  0  0  0  0  0  0  0  0  0  0  0
  160.8230  208.9950  152.9890 C   0  0  0  0  0  3  0  0  0  0  0  0
  160.8560  206.5730  154.3810 C   0  0  0  0  0  3  0  0  0  0  0  0
  160.9680  206.5790  152.9900 C   0  0  0  0  0  3  0  0  0  0  0  0
  160.5600  206.7030  157.2000 O   0  0  0  0  0  0  0  0  0  0  0  0
  160.6550  207.7820  156.5560 C   0  0  0  0  0  0  0  0  0  0  0  0
  160.9570  207.7880  152.2890 C   0  0  0  0  0  0  0  0  0  0  0  0
  160.7300  209.0190  157.2610 N   0  0  0  0  0  2  0  0  0  0  0  0
  162.0080  207.1730  148.1740 C   0  0  1  0  0  3  0  0  0  0  0  0
  162.2640  208.6090  150.3170 C   0  0  1  0  0  3  0  0  0  0  0  0
  161.9840  210.0940  150.4710 C   0  0  0  0  0  1  0  0  0  0  0  0
  161.1960  206.4560  150.3420 O   0  0  0  0  0  0  0  0  0  0  0  0
  161.0690  207.7730  150.7970 C   0  0  1  0  0  3  0  0  0  0  0  0
  160.8810  206.5120  148.9770 C   0  0  2  0  0  3  0  0  0  0  0  0
  161.6700  208.5240  147.9570 O   0  0  0  0  0  0  0  0  0  0  0  0
  162.7140  208.2970  148.8730 C   0  0  2  0  0  3  0  0  0  0  0  0
  161.1510  204.9030  147.0560 C   0  0  0  0  0  3  0  0  0  0  0  0
  161.0160  204.0450  149.4200 C   0  0  0  0  0  2  0  0  0  0  0  0
  160.7800  202.6750  148.8000 C   0  0  0  0  0  2  0  0  0  0  0  0
  160.5690  205.1200  148.4320 C   0  0  1  0  0  3  0  0  0  0  0  0
  162.0700  203.5880  145.3410 O   0  0  0  0  0  1  0  0  0  0  0  0
  161.6480  202.5150  147.5510 C   0  0  0  0  0  2  0  0  0  0  0  0
  161.5890  203.7120  146.6370 C   0  0  0  0  0  0  0  0  0  0  0  0
  159.1070  210.7400  154.8980 N   0  0  0  0  0  2  0  0  0  0  0  0
  157.8490  212.7870  154.3090 C   0  0  1  0  0  3  0  0  0  0  0  0
  159.1420  212.0350  154.2280 C   0  0  2  0  0  3  0  0  0  0  0  0
  158.2100  212.0350  153.1740 O   0  0  0  0  0  0  0  0  0  0  0  0
  155.7890  211.5680  154.4250 O   0  0  0  0  0  0  0  0  0  0  0  0
  156.7440  212.0950  155.0530 C   0  0  0  0  0  0  0  0  0  0  0  0
  156.7550  212.0690  156.4410 O   0  0  0  0  0  1  0  0  0  0  0  0
  2 10  1  0  0  0  0
  3  1  2  0  0  0  0
  3 12  1  0  0  0  0
  4 28  1  1  0  0  0
  4  3  1  0  0  0  0
  5  4  1  0  0  0  0
  5  2  1  0  0  0  0
  6  5  2  0  0  0  0
  7  2  2  0  0  0  0
  8  7  1  0  0  0  0
 10  9  2  0  0  0  0
 10 12  1  0  0  0  0
 11  6  1  0  0  0  0
 11  8  2  0  0  0  0
 13 19  1  6  0  0  0
 13 20  1  0  0  0  0
 13 18  1  0  0  0  0
 14 15  1  6  0  0  0
 14 17  1  0  0  0  0
 16 17  1  0  0  0  0
 17 11  1  1  0  0  0
 18 16  1  1  0  0  0
 20 19  1  6  0  0  0
 20 14  1  0  0  0  0
 23 22  1  0  0  0  0
 24 21  1  6  0  0  0
 24 18  1  0  0  0  0
 24 22  1  0  0  0  0
 25 27  1  0  0  0  0
 26 23  1  0  0  0  0
 27 21  2  0  0  0  0
 27 26  1  0  0  0  0
 29 33  1  1  0  0  0
 30 29  1  0  0  0  0
 30 28  1  1  0  0  0
 31 30  1  0  0  0  0
 31 29  1  0  0  0  0
 32 33  2  0  0  0  0
 33 34  1  0  0  0  0
M  END
>  <MODEL>
1

>  <REMARK>
 VINA RESULT:      -9.1      0.000      0.000
  Name = 
  5 active torsions:
  status: ('A' for Active; 'I' for Inactive)
    1  A    between atoms: C_3  and  C_19
    2  A    between atoms: C_11  and  N_17
    3  A    between atoms: N_17  and  C_23
    4  A    between atoms: C_20  and  C_32
    5  A    between atoms: C_21  and  C_24
                            x       y       z     vdW  Elec       q    Type
                         _______ _______ _______ _____ _____    ______ ____

>  <TORSDO>
F 5

$$$$
=
 OpenBabel11072413143D

 34 39  0  0  1  0  0  0  0  0999 V2000
  161.8050  211.1480  156.5080 N   0  0  0  0  0  2  0  0  0  0  0  0
  160.9480  207.5050  154.6690 C   0  0  0  0  0  0  0  0  0  0  0  0
  161.4440  210.0470  155.9360 C   0  0  0  0  0  0  0  0  0  0  0  0
  161.1560  210.0400  154.4610 C   0  0  1  0  0  3  0  0  0  0  0  0
  161.1510  208.6510  153.8710 C   0  0  0  0  0  0  0  0  0  0  0  0
  161.2650  208.5130  152.4840 C   0  0  0  0  0  3  0  0  0  0  0  0
  160.8680  206.2430  154.0640 C   0  0  0  0  0  3  0  0  0  0  0  0
  160.9870  206.1160  152.6790 C   0  0  0  0  0  3  0  0  0  0  0  0
  160.5850  206.6500  156.8580 O   0  0  0  0  0  0  0  0  0  0  0  0
  160.8710  207.6410  156.1320 C   0  0  0  0  0  0  0  0  0  0  0  0
  161.1890  207.2480  151.8850 C   0  0  0  0  0  0  0  0  0  0  0  0
  161.1570  208.9000  156.7380 N   0  0  0  0  0  2  0  0  0  0  0  0
  162.3910  206.5100  147.8320 C   0  0  1  0  0  3  0  0  0  0  0  0
  162.1790  208.1960  149.7890 C   0  0  1  0  0  3  0  0  0  0  0  0
  161.4480  209.5280  149.7840 C   0  0  0  0  0  1  0  0  0  0  0  0
  161.8390  205.8370  150.0930 O   0  0  0  0  0  0  0  0  0  0  0  0
  161.3040  207.0930  150.4010 C   0  0  1  0  0  3  0  0  0  0  0  0
  161.5250  205.6300  148.7430 C   0  0  2  0  0  3  0  0  0  0  0  0
  161.6470  207.6530  147.4760 O   0  0  0  0  0  0  0  0  0  0  0  0
  162.7080  207.8720  148.3750 C   0  0  2  0  0  3  0  0  0  0  0  0
  160.9190  203.2540  149.3210 C   0  0  0  0  0  3  0  0  0  0  0  0
  161.2530  203.9290  146.9170 C   0  0  0  0  0  2  0  0  0  0  0  0
  161.3130  202.4380  146.6140 C   0  0  0  0  0  2  0  0  0  0  0  0
  161.6670  204.1570  148.3700 C   0  0  1  0  0  3  0  0  0  0  0  0
  159.7140  201.3160  149.8770 O   0  0  0  0  0  1  0  0  0  0  0  0
  160.3000  201.6920  147.4830 C   0  0  0  0  0  2  0  0  0  0  0  0
  160.3460  202.1100  148.9310 C   0  0  0  0  0  0  0  0  0  0  0  0
  159.8700  210.6780  154.2170 N   0  0  0  0  0  2  0  0  0  0  0  0
  159.1200  212.8980  153.4230 C   0  0  1  0  0  3  0  0  0  0  0  0
  160.1090  211.7810  153.2930 C   0  0  2  0  0  3  0  0  0  0  0  0
  159.0060  211.9070  152.4280 O   0  0  0  0  0  0  0  0  0  0  0  0
  156.9950  212.0920  154.1820 O   0  0  0  0  0  0  0  0  0  0  0  0
  158.0590  212.7030  154.4660 C   0  0  0  0  0  0  0  0  0  0  0  0
  158.2330  213.2310  155.7380 O   0  0  0  0  0  1  0  0  0  0  0  0
  2 10  1  0  0  0  0
  3  1  2  0  0  0  0
  3 12  1  0  0  0  0
  4 28  1  1  0  0  0
  4  3  1  0  0  0  0
  5  4  1  0  0  0  0
  5  2  2  0  0  0  0
  6  5  1  0  0  0  0
  7  2  1  0  0  0  0
  8  7  2  0  0  0  0
 10 12  1  0  0  0  0
 10  9  2  0  0  0  0
 11  6  2  0  0  0  0
 11  8  1  0  0  0  0
 13 19  1  6  0  0  0
 13 20  1  0  0  0  0
 13 18  1  0  0  0  0
 14 15  1  6  0  0  0
 14 17  1  0  0  0  0
 16 17  1  0  0  0  0
 17 11  1  1  0  0  0
 18 16  1  1  0  0  0
 20 19  1  6  0  0  0
 20 14  1  0  0  0  0
 23 22  1  0  0  0  0
 23 26  1  0  0  0  0
 24 22  1  6  0  0  0
 24 18  1  0  0  0  0
 24 21  1  0  0  0  0
 26 27  1  0  0  0  0
 27 21  2  0  0  0  0
 27 25  1  0  0  0  0
 29 33  1  1  0  0  0
 30 29  1  0  0  0  0
 30 28  1  1  0  0  0
 31 30  1  0  0  0  0
 31 29  1  0  0  0  0
 32 33  2  0  0  0  0
 33 34  1  0  0  0  0
M  END
>  <MODEL>
2

>  <REMARK>
 VINA RESULT:      -8.5      1.323      1.648
  Name = 
  5 active torsions:
  status: ('A' for Active; 'I' for Inactive)
    1  A    between atoms: C_3  and  C_19
    2  A    between atoms: C_11  and  N_17
    3  A    between atoms: N_17  and  C_23
    4  A    between atoms: C_20  and  C_32
    5  A    between atoms: C_21  and  C_24
                            x       y       z     vdW  Elec       q    Type
                         _______ _______ _______ _____ _____    ______ ____

>  <TORSDO>
F 5

$$$$
=
 OpenBabel11072413143D

 34 39  0  0  1  0  0  0  0  0999 V2000
  159.1590  210.9440  154.7850 N   0  0  0  0  0  2  0  0  0  0  0  0
  161.1840  209.7720  151.3340 C   0  0  0  0  0  0  0  0  0  0  0  0
  159.8700  210.5830  153.7700 C   0  0  0  0  0  0  0  0  0  0  0  0
  160.3390  209.1590  153.6620 C   0  0  1  0  0  3  0  0  0  0  0  0
  160.7890  208.7930  152.2700 C   0  0  0  0  0  0  0  0  0  0  0  0
  160.8970  207.4390  151.9360 C   0  0  0  0  0  3  0  0  0  0  0  0
  161.6740  209.3790  150.0810 C   0  0  0  0  0  3  0  0  0  0  0  0
  161.7740  208.0250  149.7570 C   0  0  0  0  0  3  0  0  0  0  0  0
  161.4730  212.0910  150.8910 O   0  0  0  0  0  0  0  0  0  0  0  0
  161.0320  211.1980  151.6640 C   0  0  0  0  0  0  0  0  0  0  0  0
  161.3830  207.0510  150.6800 C   0  0  0  0  0  0  0  0  0  0  0  0
  160.3450  211.5750  152.8570 N   0  0  0  0  0  2  0  0  0  0  0  0
  160.8990  203.0380  149.2350 C   0  0  1  0  0  3  0  0  0  0  0  0
  160.5760  204.7310  151.1720 C   0  0  1  0  0  3  0  0  0  0  0  0
  161.0970  204.6150  152.5950 C   0  0  0  0  0  1  0  0  0  0  0  0
  161.2130  205.4250  148.9610 O   0  0  0  0  0  0  0  0  0  0  0  0
  161.5070  205.6040  150.3180 C   0  0  1  0  0  3  0  0  0  0  0  0
  161.7450  204.1690  148.6370 C   0  0  2  0  0  3  0  0  0  0  0  0
  161.5090  202.6080  150.4310 O   0  0  0  0  0  0  0  0  0  0  0  0
  160.3100  203.3280  150.5850 C   0  0  2  0  0  3  0  0  0  0  0  0
  161.2100  202.7480  146.6260 C   0  0  0  0  0  3  0  0  0  0  0  0
  161.3640  205.2530  146.4050 C   0  0  0  0  0  2  0  0  0  0  0  0
  161.4200  205.0140  144.9020 C   0  0  0  0  0  2  0  0  0  0  0  0
  161.8770  204.0070  147.1250 C   0  0  1  0  0  3  0  0  0  0  0  0
  160.0720  201.4600  145.0260 O   0  0  0  0  0  1  0  0  0  0  0  0
  160.4810  203.8670  144.5250 C   0  0  0  0  0  2  0  0  0  0  0  0
  160.6250  202.6680  145.4260 C   0  0  0  0  0  0  0  0  0  0  0  0
  161.4290  208.9370  154.6020 N   0  0  0  0  0  2  0  0  0  0  0  0
  161.1830  208.7870  157.0590 C   0  0  1  0  0  3  0  0  0  0  0  0
  160.8810  208.1820  155.7220 C   0  0  2  0  0  3  0  0  0  0  0  0
  161.9380  207.7210  156.5300 O   0  0  0  0  0  0  0  0  0  0  0  0
  163.2490  210.0020  157.0520 O   0  0  0  0  0  1  0  0  0  0  0  0
  161.9910  210.0520  157.0280 C   0  0  0  0  0  0  0  0  0  0  0  0
  161.3500  211.2830  157.0100 O   0  0  0  0  0  0  0  0  0  0  0  0
  2 10  1  0  0  0  0
  2  5  1  0  0  0  0
  3  1  2  0  0  0  0
  4  3  1  0  0  0  0
  4 28  1  1  0  0  0
  5  4  1  0  0  0  0
  6  5  2  0  0  0  0
  7  2  2  0  0  0  0
  8  7  1  0  0  0  0
  8 11  2  0  0  0  0
  9 10  2  0  0  0  0
 10 12  1  0  0  0  0
 11  6  1  0  0  0  0
 12  3  1  0  0  0  0
 13 19  1  1  0  0  0
 13 20  1  0  0  0  0
 14 15  1  1  0  0  0
 16 17  1  0  0  0  0
 17 11  1  1  0  0  0
 17 14  1  0  0  0  0
 18 16  1  6  0  0  0
 18 13  1  0  0  0  0
 20 19  1  1  0  0  0
 20 14  1  0  0  0  0
 21 24  1  0  0  0  0
 23 22  1  0  0  0  0
 24 22  1  6  0  0  0
 24 18  1  0  0  0  0
 25 27  1  0  0  0  0
 26 23  1  0  0  0  0
 26 27  1  0  0  0  0
 27 21  2  0  0  0  0
 29 33  1  6  0  0  0
 30 28  1  6  0  0  0
 30 31  1  0  0  0  0
 30 29  1  0  0  0  0
 31 29  1  0  0  0  0
 33 32  1  0  0  0  0
 34 33  2  0  0  0  0
M  END
>  <MODEL>
3

>  <REMARK>
 VINA RESULT:      -8.1      2.258      4.475
  Name = 
  5 active torsions:
  status: ('A' for Active; 'I' for Inactive)
    1  A    between atoms: C_3  and  C_19
    2  A    between atoms: C_11  and  N_17
    3  A    between atoms: N_17  and  C_23
    4  A    between atoms: C_20  and  C_32
    5  A    between atoms: C_21  and  C_24
                            x       y       z     vdW  Elec       q    Type
                         _______ _______ _______ _____ _____    ______ ____

>  <TORSDO>
F 5

$$$$
=
 OpenBabel11072413143D

 34 39  0  0  1  0  0  0  0  0999 V2000
  158.1690  212.4060  154.2860 N   0  0  0  0  0  2  0  0  0  0  0  0
  160.8050  210.8300  151.4660 C   0  0  0  0  0  0  0  0  0  0  0  0
  159.0590  211.9330  153.4780 C   0  0  0  0  0  0  0  0  0  0  0  0
  159.5840  210.5400  153.6880 C   0  0  1  0  0  3  0  0  0  0  0  0
  160.2830  209.9880  152.4710 C   0  0  0  0  0  0  0  0  0  0  0  0
  160.4910  208.6070  152.3870 C   0  0  0  0  0  3  0  0  0  0  0  0
  161.5200  210.2750  150.3960 C   0  0  0  0  0  3  0  0  0  0  0  0
  161.7180  208.8950  150.3210 C   0  0  0  0  0  3  0  0  0  0  0  0
  161.0950  213.0640  150.7030 O   0  0  0  0  0  0  0  0  0  0  0  0
  160.5520  212.2790  151.5270 C   0  0  0  0  0  0  0  0  0  0  0  0
  161.2020  208.0570  151.3120 C   0  0  0  0  0  0  0  0  0  0  0  0
  159.6550  212.7960  152.5080 N   0  0  0  0  0  2  0  0  0  0  0  0
  160.9260  203.7860  150.9880 C   0  0  1  0  0  3  0  0  0  0  0  0
  161.0460  205.8700  152.5240 C   0  0  1  0  0  3  0  0  0  0  0  0
  162.0620  206.1530  153.6180 C   0  0  0  0  0  1  0  0  0  0  0  0
  160.6990  206.0500  150.1530 O   0  0  0  0  0  0  0  0  0  0  0  0
  161.4330  206.5810  151.2190 C   0  0  1  0  0  3  0  0  0  0  0  0
  161.2840  204.8020  149.8960 C   0  0  2  0  0  3  0  0  0  0  0  0
  161.9960  203.7160  151.9030 O   0  0  0  0  0  0  0  0  0  0  0  0
  160.8300  204.3490  152.3760 C   0  0  2  0  0  3  0  0  0  0  0  0
  161.2260  205.2600  147.4180 C   0  0  0  0  0  3  0  0  0  0  0  0
  161.4780  202.9020  148.2680 C   0  0  0  0  0  2  0  0  0  0  0  0
  161.1360  202.4640  146.8500 C   0  0  0  0  0  2  0  0  0  0  0  0
  160.8800  204.2840  148.5180 C   0  0  1  0  0  3  0  0  0  0  0  0
  161.8440  205.8290  145.2250 O   0  0  0  0  0  1  0  0  0  0  0  0
  161.7860  203.4150  145.8440 C   0  0  0  0  0  2  0  0  0  0  0  0
  161.5840  204.8680  146.1920 C   0  0  0  0  0  0  0  0  0  0  0  0
  160.4980  210.5340  154.8210 N   0  0  0  0  0  2  0  0  0  0  0  0
  160.4190  209.6330  157.1230 C   0  0  1  0  0  3  0  0  0  0  0  0
  159.6920  210.3390  156.0200 C   0  0  2  0  0  3  0  0  0  0  0  0
  159.5390  208.9590  156.2530 O   0  0  0  0  0  0  0  0  0  0  0  0
  162.1040  208.0860  156.4090 O   0  0  0  0  0  0  0  0  0  0  0  0
  161.8360  209.2460  156.8190 C   0  0  0  0  0  0  0  0  0  0  0  0
  162.8630  210.1570  157.0260 O   0  0  0  0  0  1  0  0  0  0  0  0
  2 10  1  0  0  0  0
  2  5  1  0  0  0  0
  3  4  1  0  0  0  0
  3  1  2  0  0  0  0
  4 28  1  1  0  0  0
  5  4  1  0  0  0  0
  6  5  2  0  0  0  0
  7  2  2  0  0  0  0
  8  7  1  0  0  0  0
  8 11  2  0  0  0  0
  9 10  2  0  0  0  0
 10 12  1  0  0  0  0
 11  6  1  0  0  0  0
 12  3  1  0  0  0  0
 13 19  1  1  0  0  0
 13 20  1  0  0  0  0
 14 15  1  1  0  0  0
 16 17  1  0  0  0  0
 17 11  1  1  0  0  0
 17 14  1  0  0  0  0
 18 16  1  1  0  0  0
 18 13  1  0  0  0  0
 20 19  1  1  0  0  0
 20 14  1  0  0  0  0
 22 24  1  0  0  0  0
 23 22  1  0  0  0  0
 24 21  1  6  0  0  0
 24 18  1  0  0  0  0
 25 27  1  0  0  0  0
 26 27  1  0  0  0  0
 26 23  1  0  0  0  0
 27 21  2  0  0  0  0
 29 33  1  6  0  0  0
 30 28  1  6  0  0  0
 30 31  1  0  0  0  0
 30 29  1  0  0  0  0
 31 29  1  0  0  0  0
 32 33  2  0  0  0  0
 33 34  1  0  0  0  0
M  END
>  <MODEL>
4

>  <REMARK>
 VINA RESULT:      -7.7      2.073      4.258
  Name = 
  5 active torsions:
  status: ('A' for Active; 'I' for Inactive)
    1  A    between atoms: C_3  and  C_19
    2  A    between atoms: C_11  and  N_17
    3  A    between atoms: N_17  and  C_23
    4  A    between atoms: C_20  and  C_32
    5  A    between atoms: C_21  and  C_24
                            x       y       z     vdW  Elec       q    Type
                         _______ _______ _______ _____ _____    ______ ____

>  <TORSDO>
F 5

$$$$
=
 OpenBabel11072413143D

 34 39  0  0  1  0  0  0  0  0999 V2000
  159.8950  202.0030  146.2590 N   0  0  0  0  0  2  0  0  0  0  0  0
  161.0660  202.8950  150.1600 C   0  0  0  0  0  0  0  0  0  0  0  0
  160.3520  202.2660  147.4380 C   0  0  0  0  0  0  0  0  0  0  0  0
  160.9560  203.6140  147.7150 C   0  0  1  0  0  3  0  0  0  0  0  0
  161.0640  203.9170  149.1890 C   0  0  0  0  0  0  0  0  0  0  0  0
  161.2530  205.2450  149.5870 C   0  0  0  0  0  3  0  0  0  0  0  0
  161.2530  203.2190  151.5110 C   0  0  0  0  0  3  0  0  0  0  0  0
  161.4380  204.5480  151.8980 C   0  0  0  0  0  3  0  0  0  0  0  0
  160.9270  200.5580  150.5820 O   0  0  0  0  0  0  0  0  0  0  0  0
  160.8250  201.5010  149.7520 C   0  0  0  0  0  0  0  0  0  0  0  0
  161.4340  205.5650  150.9390 C   0  0  0  0  0  0  0  0  0  0  0  0
  160.4360  201.2190  148.4090 N   0  0  0  0  0  2  0  0  0  0  0  0
  161.1120  209.7110  152.0000 C   0  0  1  0  0  3  0  0  0  0  0  0
  161.6200  207.9430  150.1740 C   0  0  1  0  0  3  0  0  0  0  0  0
  162.8870  207.8080  149.3470 C   0  0  0  0  0  1  0  0  0  0  0  0
  160.6570  207.3490  152.2950 O   0  0  0  0  0  0  0  0  0  0  0  0
  161.6430  206.9820  151.3720 C   0  0  1  0  0  3  0  0  0  0  0  0
  161.1620  208.4920  152.9300 C   0  0  2  0  0  3  0  0  0  0  0  0
  162.3860  209.8860  151.4240 O   0  0  0  0  0  0  0  0  0  0  0  0
  161.3830  209.4200  150.5530 C   0  0  2  0  0  3  0  0  0  0  0  0
  160.4060  207.5730  155.1510 C   0  0  0  0  0  3  0  0  0  0  0  0
  160.9640  210.0180  154.9130 C   0  0  0  0  0  2  0  0  0  0  0  0
  160.2600  210.2040  156.2500 C   0  0  0  0  0  2  0  0  0  0  0  0
  160.4110  208.7690  154.2300 C   0  0  1  0  0  3  0  0  0  0  0  0
  160.3750  206.5380  157.2600 O   0  0  0  0  0  1  0  0  0  0  0  0
  160.5730  209.0220  157.1690 C   0  0  0  0  0  2  0  0  0  0  0  0
  160.4240  207.6880  156.4830 C   0  0  0  0  0  0  0  0  0  0  0  0
  162.2740  203.6880  147.1030 N   0  0  0  0  0  2  0  0  0  0  0  0
  162.1600  205.9130  146.0260 C   0  0  1  0  0  3  0  0  0  0  0  0
  162.6920  205.0840  147.1550 C   0  0  2  0  0  3  0  0  0  0  0  0
  163.4630  205.3780  146.0150 O   0  0  0  0  0  0  0  0  0  0  0  0
  161.8150  204.3880  144.2100 O   0  0  0  0  0  0  0  0  0  0  0  0
  161.2980  205.1810  145.0390 C   0  0  0  0  0  0  0  0  0  0  0  0
  159.9280  205.4070  145.0150 O   0  0  0  0  0  1  0  0  0  0  0  0
  1  3  2  0  0  0  0
  2  7  1  0  0  0  0
  3  4  1  0  0  0  0
  3 12  1  0  0  0  0
  4 28  1  1  0  0  0
  4  5  1  0  0  0  0
  5  6  1  0  0  0  0
  5  2  2  0  0  0  0
  6 11  2  0  0  0  0
  7  8  2  0  0  0  0
 10  2  1  0  0  0  0
 10  9  2  0  0  0  0
 11  8  1  0  0  0  0
 12 10  1  0  0  0  0
 13 19  1  1  0  0  0
 13 18  1  0  0  0  0
 14 15  1  1  0  0  0
 14 20  1  0  0  0  0
 14 17  1  0  0  0  0
 17 11  1  6  0  0  0
 17 16  1  0  0  0  0
 18 16  1  6  0  0  0
 18 24  1  0  0  0  0
 20 19  1  1  0  0  0
 20 13  1  0  0  0  0
 21 27  2  0  0  0  0
 22 23  1  0  0  0  0
 23 26  1  0  0  0  0
 24 22  1  1  0  0  0
 24 21  1  0  0  0  0
 27 26  1  0  0  0  0
 27 25  1  0  0  0  0
 29 33  1  6  0  0  0
 29 30  1  0  0  0  0
 30 28  1  6  0  0  0
 31 29  1  0  0  0  0
 31 30  1  0  0  0  0
 32 33  2  0  0  0  0
 34 33  1  0  0  0  0
M  END
>  <MODEL>
5

>  <REMARK>
 VINA RESULT:      -7.2      4.269      8.968
  Name = 
  5 active torsions:
  status: ('A' for Active; 'I' for Inactive)
    1  A    between atoms: C_3  and  C_19
    2  A    between atoms: C_11  and  N_17
    3  A    between atoms: N_17  and  C_23
    4  A    between atoms: C_20  and  C_32
    5  A    between atoms: C_21  and  C_24
                            x       y       z     vdW  Elec       q    Type
                         _______ _______ _______ _____ _____    ______ ____

>  <TORSDO>
F 5

$$$$
=
 OpenBabel11072413143D

 34 39  0  0  1  0  0  0  0  0999 V2000
  159.2480  214.3770  154.9760 N   0  0  0  0  0  2  0  0  0  0  0  0
  160.4070  210.3730  154.8880 C   0  0  0  0  0  0  0  0  0  0  0  0
  159.5110  213.1130  154.9580 C   0  0  0  0  0  0  0  0  0  0  0  0
  159.2700  212.3240  153.7010 C   0  0  1  0  0  3  0  0  0  0  0  0
  159.9870  210.9970  153.6950 C   0  0  0  0  0  0  0  0  0  0  0  0
  160.1590  210.3340  152.4750 C   0  0  0  0  0  3  0  0  0  0  0  0
  160.9950  209.1010  154.8390 C   0  0  0  0  0  3  0  0  0  0  0  0
  161.1640  208.4510  153.6150 C   0  0  0  0  0  3  0  0  0  0  0  0
  160.5380  210.5100  157.2600 O   0  0  0  0  0  0  0  0  0  0  0  0
  160.2690  211.0840  156.1700 C   0  0  0  0  0  0  0  0  0  0  0  0
  160.7510  209.0650  152.4300 C   0  0  0  0  0  0  0  0  0  0  0  0
  159.8600  212.4510  156.1760 N   0  0  0  0  0  2  0  0  0  0  0  0
  161.9660  206.5690  149.1570 C   0  0  1  0  0  3  0  0  0  0  0  0
  162.1820  208.8410  150.3870 C   0  0  1  0  0  3  0  0  0  0  0  0
  161.9580  210.2270  149.8090 C   0  0  0  0  0  1  0  0  0  0  0  0
  161.0250  206.9690  151.3540 O   0  0  0  0  0  0  0  0  0  0  0  0
  160.9320  208.3480  151.1300 C   0  0  1  0  0  3  0  0  0  0  0  0
  160.7760  206.3810  150.1060 C   0  0  2  0  0  3  0  0  0  0  0  0
  161.6960  207.6640  148.3120 O   0  0  0  0  0  0  0  0  0  0  0  0
  162.6860  207.8790  149.2890 C   0  0  2  0  0  3  0  0  0  0  0  0
  160.8350  204.0930  149.0510 C   0  0  0  0  0  3  0  0  0  0  0  0
  161.0310  204.3430  151.5500 C   0  0  0  0  0  2  0  0  0  0  0  0
  160.7510  202.8480  151.6180 C   0  0  0  0  0  2  0  0  0  0  0  0
  160.4320  204.9020  150.2610 C   0  0  1  0  0  3  0  0  0  0  0  0
  161.5570  202.1370  147.9700 O   0  0  0  0  0  1  0  0  0  0  0  0
  161.4530  202.1370  150.4610 C   0  0  0  0  0  2  0  0  0  0  0  0
  161.2460  202.8240  149.1350 C   0  0  0  0  0  0  0  0  0  0  0  0
  157.8410  212.1080  153.5330 N   0  0  0  0  0  2  0  0  0  0  0  0
  156.1660  213.1870  154.9990 C   0  0  1  0  0  3  0  0  0  0  0  0
  157.1740  213.3500  153.9030 C   0  0  2  0  0  3  0  0  0  0  0  0
  155.7960  213.2310  153.6400 O   0  0  0  0  0  0  0  0  0  0  0  0
  156.7080  211.3960  156.4970 O   0  0  0  0  0  1  0  0  0  0  0  0
  156.0070  211.7910  155.5280 C   0  0  0  0  0  0  0  0  0  0  0  0
  155.1120  210.9190  154.9240 O   0  0  0  0  0  0  0  0  0  0  0  0
  2 10  1  0  0  0  0
  3  1  2  0  0  0  0
  3 12  1  0  0  0  0
  4 28  1  1  0  0  0
  4  3  1  0  0  0  0
  5  4  1  0  0  0  0
  5  2  2  0  0  0  0
  6  5  1  0  0  0  0
  7  2  1  0  0  0  0
  8  7  2  0  0  0  0
 10 12  1  0  0  0  0
 10  9  2  0  0  0  0
 11  6  2  0  0  0  0
 11  8  1  0  0  0  0
 13 19  1  6  0  0  0
 13 20  1  0  0  0  0
 13 18  1  0  0  0  0
 14 15  1  6  0  0  0
 14 17  1  0  0  0  0
 17 16  1  0  0  0  0
 17 11  1  1  0  0  0
 18 24  1  0  0  0  0
 18 16  1  1  0  0  0
 20 19  1  6  0  0  0
 20 14  1  0  0  0  0
 21 27  2  0  0  0  0
 22 23  1  0  0  0  0
 24 21  1  6  0  0  0
 24 22  1  0  0  0  0
 25 27  1  0  0  0  0
 26 23  1  0  0  0  0
 27 26  1  0  0  0  0
 29 33  1  6  0  0  0
 30 28  1  6  0  0  0
 30 29  1  0  0  0  0
 31 30  1  0  0  0  0
 31 29  1  0  0  0  0
 33 32  1  0  0  0  0
 34 33  2  0  0  0  0
M  END
>  <MODEL>
6

>  <REMARK>
 VINA RESULT:      -7.1      1.696      2.359
  Name = 
  5 active torsions:
  status: ('A' for Active; 'I' for Inactive)
    1  A    between atoms: C_3  and  C_19
    2  A    between atoms: C_11  and  N_17
    3  A    between atoms: N_17  and  C_23
    4  A    between atoms: C_20  and  C_32
    5  A    between atoms: C_21  and  C_24
                            x       y       z     vdW  Elec       q    Type
                         _______ _______ _______ _____ _____    ______ ____

>  <TORSDO>
F 5

$$$$
=
 OpenBabel11072413143D

 34 39  0  0  1  0  0  0  0  0999 V2000
  159.4630  201.5980  148.1490 N   0  0  0  0  0  2  0  0  0  0  0  0
  161.4870  203.7850  151.0640 C   0  0  0  0  0  0  0  0  0  0  0  0
  160.1750  202.2510  149.0060 C   0  0  0  0  0  0  0  0  0  0  0  0
  160.7280  203.5980  148.6360 C   0  0  1  0  0  3  0  0  0  0  0  0
  161.1720  204.3990  149.8340 C   0  0  0  0  0  0  0  0  0  0  0  0
  161.3570  205.7780  149.6870 C   0  0  0  0  0  3  0  0  0  0  0  0
  161.9760  204.5620  152.1240 C   0  0  0  0  0  3  0  0  0  0  0  0
  162.1530  205.9380  151.9670 C   0  0  0  0  0  3  0  0  0  0  0  0
  161.6240  201.7510  152.2890 O   0  0  0  0  0  0  0  0  0  0  0  0
  161.2540  202.3420  151.2390 C   0  0  0  0  0  0  0  0  0  0  0  0
  161.8400  206.5510  150.7510 C   0  0  0  0  0  0  0  0  0  0  0  0
  160.5690  201.6130  150.2230 N   0  0  0  0  0  2  0  0  0  0  0  0
  161.4910  210.7980  150.2440 C   0  0  1  0  0  3  0  0  0  0  0  0
  161.8260  208.4740  149.1460 C   0  0  1  0  0  3  0  0  0  0  0  0
  162.9780  208.0300  148.2610 C   0  0  0  0  0  1  0  0  0  0  0  0
  161.1750  208.7180  151.4470 O   0  0  0  0  0  0  0  0  0  0  0  0
  162.0460  208.0250  150.5980 C   0  0  1  0  0  3  0  0  0  0  0  0
  161.7120  210.0100  151.5410 C   0  0  2  0  0  3  0  0  0  0  0  0
  162.6700  210.7340  149.4740 O   0  0  0  0  0  0  0  0  0  0  0  0
  161.5810  209.9900  148.9830 C   0  0  2  0  0  3  0  0  0  0  0  0
  160.0790  211.7620  152.3250 C   0  0  0  0  0  3  0  0  0  0  0  0
  160.6020  209.7720  153.7800 C   0  0  0  0  0  2  0  0  0  0  0  0
  159.9410  210.5520  154.9070 C   0  0  0  0  0  2  0  0  0  0  0  0
  161.1280  210.7570  152.7370 C   0  0  1  0  0  3  0  0  0  0  0  0
  158.1250  213.0220  152.6560 O   0  0  0  0  0  1  0  0  0  0  0  0
  158.7290  211.3140  154.3690 C   0  0  0  0  0  2  0  0  0  0  0  0
  159.0210  212.0550  153.0880 C   0  0  0  0  0  0  0  0  0  0  0  0
  161.8480  203.4260  147.7220 N   0  0  0  0  0  2  0  0  0  0  0  0
  161.7590  203.9040  145.2960 C   0  0  1  0  0  3  0  0  0  0  0  0
  161.2910  203.0440  146.4300 C   0  0  2  0  0  3  0  0  0  0  0  0
  160.5160  204.1070  145.9280 O   0  0  0  0  0  0  0  0  0  0  0  0
  162.3290  206.2040  145.6570 O   0  0  0  0  0  0  0  0  0  0  0  0
  162.7090  205.0040  145.6690 C   0  0  0  0  0  0  0  0  0  0  0  0
  164.0250  204.7020  145.9940 O   0  0  0  0  0  1  0  0  0  0  0  0
  1  3  2  0  0  0  0
  2 10  1  0  0  0  0
  2  7  1  0  0  0  0
  3 12  1  0  0  0  0
  4 28  1  6  0  0  0
  4  3  1  0  0  0  0
  4  5  1  0  0  0  0
  5  2  2  0  0  0  0
  6  5  1  0  0  0  0
  6 11  2  0  0  0  0
  8  7  2  0  0  0  0
 10  9  2  0  0  0  0
 11  8  1  0  0  0  0
 12 10  1  0  0  0  0
 13 19  1  6  0  0  0
 13 18  1  0  0  0  0
 14 15  1  6  0  0  0
 14 17  1  0  0  0  0
 17 11  1  6  0  0  0
 17 16  1  0  0  0  0
 18 16  1  6  0  0  0
 18 24  1  0  0  0  0
 20 14  1  0  0  0  0
 20 19  1  6  0  0  0
 20 13  1  0  0  0  0
 21 27  2  0  0  0  0
 22 23  1  0  0  0  0
 24 21  1  6  0  0  0
 24 22  1  0  0  0  0
 25 27  1  0  0  0  0
 26 23  1  0  0  0  0
 27 26  1  0  0  0  0
 29 33  1  1  0  0  0
 29 31  1  0  0  0  0
 29 30  1  0  0  0  0
 30 28  1  1  0  0  0
 31 30  1  0  0  0  0
 32 33  2  0  0  0  0
 33 34  1  0  0  0  0
M  END
>  <MODEL>
7

>  <REMARK>
 VINA RESULT:      -6.6      3.840      8.683
  Name = 
  5 active torsions:
  status: ('A' for Active; 'I' for Inactive)
    1  A    between atoms: C_3  and  C_19
    2  A    between atoms: C_11  and  N_17
    3  A    between atoms: N_17  and  C_23
    4  A    between atoms: C_20  and  C_32
    5  A    between atoms: C_21  and  C_24
                            x       y       z     vdW  Elec       q    Type
                         _______ _______ _______ _____ _____    ______ ____

>  <TORSDO>
F 5

$$$$
=
 OpenBabel11072413143D

 34 39  0  0  1  0  0  0  0  0999 V2000
  160.1000  202.8030  147.9300 N   0  0  0  0  0  2  0  0  0  0  0  0
  161.3550  203.9850  151.7260 C   0  0  0  0  0  0  0  0  0  0  0  0
  160.5770  203.1910  149.0660 C   0  0  0  0  0  0  0  0  0  0  0  0
  160.6850  204.6620  149.3600 C   0  0  1  0  0  3  0  0  0  0  0  0
  160.8620  204.9550  150.8290 C   0  0  0  0  0  0  0  0  0  0  0  0
  160.6110  206.2520  151.2880 C   0  0  0  0  0  3  0  0  0  0  0  0
  161.5820  204.3290  153.0670 C   0  0  0  0  0  3  0  0  0  0  0  0
  161.3240  205.6260  153.5140 C   0  0  0  0  0  3  0  0  0  0  0  0
  162.1190  201.7500  152.0110 O   0  0  0  0  0  0  0  0  0  0  0  0
  161.5810  202.6070  151.2590 C   0  0  0  0  0  0  0  0  0  0  0  0
  160.8340  206.5900  152.6290 C   0  0  0  0  0  0  0  0  0  0  0  0
  161.1530  202.2290  149.9520 N   0  0  0  0  0  2  0  0  0  0  0  0
  161.0240  210.6170  154.1010 C   0  0  1  0  0  3  0  0  0  0  0  0
  160.8230  208.0880  154.6360 C   0  0  1  0  0  3  0  0  0  0  0  0
  159.7210  207.3960  155.4210 C   0  0  0  0  0  1  0  0  0  0  0  0
  161.3850  208.8890  152.4410 O   0  0  0  0  0  0  0  0  0  0  0  0
  160.5730  207.9770  153.1250 C   0  0  1  0  0  3  0  0  0  0  0  0
  160.7920  210.1400  152.6620 C   0  0  2  0  0  3  0  0  0  0  0  0
  159.8760  210.3200  154.8620 O   0  0  0  0  0  0  0  0  0  0  0  0
  161.0100  209.5350  155.1420 C   0  0  2  0  0  3  0  0  0  0  0  0
  161.9860  210.5250  150.4770 C   0  0  0  0  0  3  0  0  0  0  0  0
  160.1760  212.1070  151.2300 C   0  0  0  0  0  2  0  0  0  0  0  0
  160.7000  213.0530  150.1590 C   0  0  0  0  0  2  0  0  0  0  0  0
  161.3030  211.1700  151.6590 C   0  0  1  0  0  3  0  0  0  0  0  0
  162.6330  210.4120  148.2220 O   0  0  0  0  0  1  0  0  0  0  0  0
  161.1080  212.2570  148.9190 C   0  0  0  0  0  2  0  0  0  0  0  0
  161.9430  211.0450  149.2460 C   0  0  0  0  0  0  0  0  0  0  0  0
  161.8010  205.2230  148.6120 N   0  0  0  0  0  2  0  0  0  0  0  0
  161.4870  206.1530  146.3410 C   0  0  1  0  0  3  0  0  0  0  0  0
  161.2710  206.3220  147.8140 C   0  0  2  0  0  3  0  0  0  0  0  0
  162.3310  206.9530  147.1360 O   0  0  0  0  0  0  0  0  0  0  0  0
  163.4560  204.8190  146.0460 O   0  0  0  0  0  1  0  0  0  0  0  0
  162.2050  204.9000  145.9330 C   0  0  0  0  0  0  0  0  0  0  0  0
  161.4920  203.8380  145.3930 O   0  0  0  0  0  0  0  0  0  0  0  0
  1  3  2  0  0  0  0
  2  7  1  0  0  0  0
  3  4  1  0  0  0  0
  3 12  1  0  0  0  0
  4 28  1  6  0  0  0
  4  5  1  0  0  0  0
  5  6  1  0  0  0  0
  5  2  2  0  0  0  0
  6 11  2  0  0  0  0
  7  8  2  0  0  0  0
 10  2  1  0  0  0  0
 10  9  2  0  0  0  0
 11  8  1  0  0  0  0
 12 10  1  0  0  0  0
 13 19  1  1  0  0  0
 13 20  1  0  0  0  0
 14 20  1  0  0  0  0
 14 15  1  1  0  0  0
 16 17  1  0  0  0  0
 17 11  1  6  0  0  0
 17 14  1  0  0  0  0
 18 16  1  1  0  0  0
 18 13  1  0  0  0  0
 20 19  1  1  0  0  0
 22 24  1  0  0  0  0
 23 22  1  0  0  0  0
 24 21  1  6  0  0  0
 24 18  1  0  0  0  0
 25 27  1  0  0  0  0
 26 27  1  0  0  0  0
 26 23  1  0  0  0  0
 27 21  2  0  0  0  0
 29 33  1  1  0  0  0
 29 31  1  0  0  0  0
 29 30  1  0  0  0  0
 30 28  1  1  0  0  0
 31 30  1  0  0  0  0
 33 32  1  0  0  0  0
 34 33  2  0  0  0  0
M  END
>  <MODEL>
8

>  <REMARK>
 VINA RESULT:      -6.6      3.579      8.140
  Name = 
  5 active torsions:
  status: ('A' for Active; 'I' for Inactive)
    1  A    between atoms: C_3  and  C_19
    2  A    between atoms: C_11  and  N_17
    3  A    between atoms: N_17  and  C_23
    4  A    between atoms: C_20  and  C_32
    5  A    between atoms: C_21  and  C_24
                            x       y       z     vdW  Elec       q    Type
                         _______ _______ _______ _____ _____    ______ ____

>  <TORSDO>
F 5

$$$$
=
 OpenBabel11072413143D

 34 39  0  0  1  0  0  0  0  0999 V2000
  159.8840  201.7140  148.0700 N   0  0  0  0  0  2  0  0  0  0  0  0
  161.5550  203.9540  151.1640 C   0  0  0  0  0  0  0  0  0  0  0  0
  160.4870  202.4070  148.9780 C   0  0  0  0  0  0  0  0  0  0  0  0
  160.7280  203.8730  148.7520 C   0  0  1  0  0  3  0  0  0  0  0  0
  161.0560  204.6160  150.0230 C   0  0  0  0  0  0  0  0  0  0  0  0
  160.9420  206.0100  150.0320 C   0  0  0  0  0  3  0  0  0  0  0  0
  161.9250  204.6980  152.2940 C   0  0  0  0  0  3  0  0  0  0  0  0
  161.8030  206.0880  152.2920 C   0  0  0  0  0  3  0  0  0  0  0  0
  162.1760  201.8750  152.1390 O   0  0  0  0  0  0  0  0  0  0  0  0
  161.6370  202.4840  151.1760 C   0  0  0  0  0  0  0  0  0  0  0  0
  161.3080  206.7490  151.1650 C   0  0  0  0  0  0  0  0  0  0  0  0
  161.0680  201.7390  150.1010 N   0  0  0  0  0  2  0  0  0  0  0  0
  161.9210  210.9970  151.1670 C   0  0  1  0  0  3  0  0  0  0  0  0
  161.6020  208.8210  152.5410 C   0  0  1  0  0  3  0  0  0  0  0  0
  160.5410  208.5400  153.5910 C   0  0  0  0  0  1  0  0  0  0  0  0
  161.9920  208.7890  150.1690 O   0  0  0  0  0  0  0  0  0  0  0  0
  161.1940  208.2410  151.1790 C   0  0  1  0  0  3  0  0  0  0  0  0
  161.5120  210.0950  149.9960 C   0  0  2  0  0  3  0  0  0  0  0  0
  160.8380  211.0830  152.0650 O   0  0  0  0  0  0  0  0  0  0  0  0
  161.9390  210.3280  152.5100 C   0  0  2  0  0  3  0  0  0  0  0  0
  160.8470  211.2260  147.8440 C   0  0  0  0  0  3  0  0  0  0  0  0
  163.0790  211.7220  148.9020 C   0  0  0  0  0  2  0  0  0  0  0  0
  163.4560  212.3500  147.5670 C   0  0  0  0  0  2  0  0  0  0  0  0
  161.9880  210.6790  148.6680 C   0  0  1  0  0  3  0  0  0  0  0  0
  159.8930  212.6990  146.2830 O   0  0  0  0  0  1  0  0  0  0  0  0
  162.2520  213.0930  146.9850 C   0  0  0  0  0  2  0  0  0  0  0  0
  160.9800  212.2850  147.0400 C   0  0  0  0  0  0  0  0  0  0  0  0
  161.8110  204.0430  147.7940 N   0  0  0  0  0  2  0  0  0  0  0  0
  161.7230  205.6330  145.9010 C   0  0  1  0  0  3  0  0  0  0  0  0
  161.8050  205.4420  147.3850 C   0  0  2  0  0  3  0  0  0  0  0  0
  162.9450  205.6990  146.6000 O   0  0  0  0  0  0  0  0  0  0  0  0
  162.7070  203.6960  144.8900 O   0  0  0  0  0  1  0  0  0  0  0  0
  161.6640  204.3730  145.0900 C   0  0  0  0  0  0  0  0  0  0  0  0
  160.4620  203.9690  144.5240 O   0  0  0  0  0  0  0  0  0  0  0  0
  1  3  2  0  0  0  0
  2 10  1  0  0  0  0
  2  7  1  0  0  0  0
  3 12  1  0  0  0  0
  4 28  1  6  0  0  0
  4  3  1  0  0  0  0
  4  5  1  0  0  0  0
  5  6  1  0  0  0  0
  5  2  2  0  0  0  0
  6 11  2  0  0  0  0
  8  7  2  0  0  0  0
 10  9  2  0  0  0  0
 11  8  1  0  0  0  0
 12 10  1  0  0  0  0
 13 19  1  1  0  0  0
 13 20  1  0  0  0  0
 14 15  1  1  0  0  0
 16 17  1  0  0  0  0
 17 11  1  1  0  0  0
 17 14  1  0  0  0  0
 18 16  1  1  0  0  0
 18 13  1  0  0  0  0
 20 19  1  1  0  0  0
 20 14  1  0  0  0  0
 23 22  1  0  0  0  0
 24 21  1  1  0  0  0
 24 22  1  0  0  0  0
 24 18  1  0  0  0  0
 25 27  1  0  0  0  0
 26 27  1  0  0  0  0
 26 23  1  0  0  0  0
 27 21  2  0  0  0  0
 29 33  1  6  0  0  0
 29 31  1  0  0  0  0
 29 30  1  0  0  0  0
 30 28  1  6  0  0  0
 31 30  1  0  0  0  0
 32 33  1  0  0  0  0
 34 33  2  0  0  0  0
M  END
>  <MODEL>
9

>  <REMARK>
 VINA RESULT:      -6.5      4.253      8.333
  Name = 
  5 active torsions:
  status: ('A' for Active; 'I' for Inactive)
    1  A    between atoms: C_3  and  C_19
    2  A    between atoms: C_11  and  N_17
    3  A    between atoms: N_17  and  C_23
    4  A    between atoms: C_20  and  C_32
    5  A    between atoms: C_21  and  C_24
                            x       y       z     vdW  Elec       q    Type
                         _______ _______ _______ _____ _____    ______ ____

>  <TORSDO>
F 5

$$$$
