=
 OpenBabel11072414163D

 34 36  0  0  1  0  0  0  0  0999 V2000
  162.3040  209.6300  151.8010 N   0  0  0  0  0  0  0  0  0  0  0  0
  161.3010  204.9510  149.8200 C   0  0  2  0  0  3  0  0  0  0  0  0
  161.5290  206.3250  149.1920 C   0  0  0  0  0  2  0  0  0  0  0  0
  162.2140  204.7520  151.0350 C   0  0  0  0  0  2  0  0  0  0  0  0
  161.9340  208.3750  152.4600 C   0  0  2  0  0  3  0  0  0  0  0  0
  161.5480  208.7290  149.6170 N   0  0  0  0  0  2  0  0  0  0  0  0
  162.1550  207.2200  151.4630 C   0  0  2  0  0  3  0  0  0  0  0  0
  161.2780  207.4250  150.2160 C   0  0  2  0  0  3  0  0  0  0  0  0
  162.1590  210.9610  149.8760 O   0  0  0  0  0  0  0  0  0  0  0  0
  161.9940  209.8330  150.4110 C   0  0  0  0  0  0  0  0  0  0  0  0
  161.9550  205.8350  152.0770 C   0  0  0  0  0  2  0  0  0  0  0  0
  163.0880  210.6090  152.5370 C   0  0  0  0  0  1  0  0  0  0  0  0
  159.8710  209.6470  152.5610 O   0  0  0  0  0  1  0  0  0  0  0  0
  160.4790  208.4580  152.9760 C   0  0  2  0  0  3  0  0  0  0  0  0
  160.3060  209.5270  155.2290 C   0  0  0  0  0  3  0  0  0  0  0  0
  160.3310  207.0370  156.5020 C   0  0  0  0  0  3  0  0  0  0  0  0
  160.3920  208.3570  154.4670 C   0  0  0  0  0  0  0  0  0  0  0  0
  160.2390  208.2080  157.2590 C   0  0  0  0  0  3  0  0  0  0  0  0
  160.4100  207.1090  155.1080 C   0  0  0  0  0  3  0  0  0  0  0  0
  160.2270  209.4530  156.6220 C   0  0  0  0  0  3  0  0  0  0  0  0
  161.4390  203.8350  148.7730 C   0  0  2  0  0  3  0  0  0  0  0  0
  161.2290  204.3790  147.3570 C   0  0  0  0  0  2  0  0  0  0  0  0
  162.5360  204.5340  146.5910 C   0  0  0  0  0  2  0  0  0  0  0  0
  162.3930  205.5880  145.5070 C   0  0  0  0  0  2  0  0  0  0  0  0
  160.6400  204.4830  144.1180 O   0  0  0  0  0  0  0  0  0  0  0  0
  160.2040  206.4690  145.1750 O   0  0  0  0  0  1  0  0  0  0  0  0
  161.0240  205.5510  144.9190 C   0  0  0  0  0  0  0  0  0  0  0  0
  160.5990  202.5660  149.0680 C   0  0  1  0  0  3  0  0  0  0  0  0
  161.6500  200.5640  148.2600 O   0  0  0  0  0  0  0  0  0  0  0  0
  160.7840  201.4620  148.0650 C   0  0  0  0  0  0  0  0  0  0  0  0
  159.9860  201.4460  146.9220 O   0  0  0  0  0  0  0  0  0  0  0  0
  160.5410  201.3300  145.6220 C   0  0  0  0  0  1  0  0  0  0  0  0
  160.7350  202.1040  150.3930 O   0  0  0  0  0  0  0  0  0  0  0  0
  159.8490  201.1370  150.5580 O   0  0  0  0  0  1  0  0  0  0  0  0
  1  5  1  0  0  0  0
  1 12  1  0  0  0  0
  2 21  1  6  0  0  0
  2  4  1  0  0  0  0
  3  2  1  0  0  0  0
  4 11  1  0  0  0  0
  5 14  1  6  0  0  0
  6  8  1  0  0  0  0
  6 10  1  0  0  0  0
  7 11  1  1  0  0  0
  7  5  1  0  0  0  0
  8  3  1  6  0  0  0
  8  7  1  0  0  0  0
  9 10  2  0  0  0  0
 10  1  1  0  0  0  0
 14 13  1  1  0  0  0
 14 17  1  0  0  0  0
 15 20  1  0  0  0  0
 16 18  1  0  0  0  0
 17 19  1  0  0  0  0
 17 15  2  0  0  0  0
 19 16  2  0  0  0  0
 20 18  2  0  0  0  0
 21 22  1  6  0  0  0
 21 28  1  0  0  0  0
 23 22  1  0  0  0  0
 24 23  1  0  0  0  0
 25 27  2  0  0  0  0
 27 26  1  0  0  0  0
 27 24  1  0  0  0  0
 28 30  1  6  0  0  0
 28 33  1  0  0  0  0
 30 29  2  0  0  0  0
 31 30  1  0  0  0  0
 32 31  1  0  0  0  0
 33 34  1  0  0  0  0
M  END
>  <MODEL>
1

>  <REMARK>
 VINA RESULT:      -7.2      0.000      0.000
  Name = 
  11 active torsions:
  status: ('A' for Active; 'I' for Inactive)
    1  A    between atoms: C_2  and  C_19
    2  A    between atoms: C_2  and  C_25
    3  A    between atoms: C_3  and  O_16
    4  A    between atoms: C_3  and  C_34
    5  A    between atoms: C_5  and  C_25
    6  A    between atoms: C_11  and  C_26
    7  A    between atoms: C_13  and  C_19
    8  A    between atoms: C_13  and  C_23
    9  A    between atoms: C_18  and  C_26
   10  A    between atoms: C_25  and  C_34
   11  A    between atoms: O_28  and  C_34
                            x       y       z     vdW  Elec       q    Type
                         _______ _______ _______ _____ _____    ______ ____

>  <TORSDO>
F 11

$$$$
=
 OpenBabel11072414163D

 34 36  0  0  1  0  0  0  0  0999 V2000
  160.7850  208.8360  153.3850 N   0  0  0  0  0  0  0  0  0  0  0  0
  161.6440  205.2260  149.7730 C   0  0  2  0  0  3  0  0  0  0  0  0
  161.7410  205.2220  151.2970 C   0  0  0  0  0  2  0  0  0  0  0  0
  160.4530  206.0710  149.3080 C   0  0  0  0  0  2  0  0  0  0  0  0
  160.8320  208.9410  151.9250 C   0  0  2  0  0  3  0  0  0  0  0  0
  161.9180  206.6320  153.2830 N   0  0  0  0  0  2  0  0  0  0  0  0
  160.7130  207.5230  151.3330 C   0  0  2  0  0  3  0  0  0  0  0  0
  161.8770  206.6470  151.8240 C   0  0  2  0  0  3  0  0  0  0  0  0
  161.5430  207.7240  155.3060 O   0  0  0  0  0  0  0  0  0  0  0  0
  161.4360  207.7400  154.0510 C   0  0  0  0  0  0  0  0  0  0  0  0
  160.5900  207.5040  149.8100 C   0  0  0  0  0  2  0  0  0  0  0  0
  159.9760  209.7830  154.1350 C   0  0  0  0  0  1  0  0  0  0  0  0
  162.7720  210.2350  152.5920 O   0  0  0  0  0  1  0  0  0  0  0  0
  162.1230  209.6710  151.4890 C   0  0  2  0  0  3  0  0  0  0  0  0
  161.0680  211.8370  150.8220 C   0  0  0  0  0  3  0  0  0  0  0  0
  162.1340  211.6550  148.2420 C   0  0  0  0  0  3  0  0  0  0  0  0
  161.8630  210.7400  150.4740 C   0  0  0  0  0  0  0  0  0  0  0  0
  161.3450  212.7520  148.5970 C   0  0  0  0  0  3  0  0  0  0  0  0
  162.3920  210.6470  149.1770 C   0  0  0  0  0  3  0  0  0  0  0  0
  160.8120  212.8440  149.8870 C   0  0  0  0  0  3  0  0  0  0  0  0
  161.6220  203.7940  149.2170 C   0  0  2  0  0  3  0  0  0  0  0  0
  161.2220  203.7830  147.7390 C   0  0  0  0  0  2  0  0  0  0  0  0
  162.4060  204.0260  146.8110 C   0  0  0  0  0  2  0  0  0  0  0  0
  162.2960  205.3950  146.1610 C   0  0  0  0  0  2  0  0  0  0  0  0
  160.0930  206.3510  145.4870 O   0  0  0  0  0  1  0  0  0  0  0  0
  161.0740  204.6990  144.2370 O   0  0  0  0  0  0  0  0  0  0  0  0
  161.1200  205.4470  145.2470 C   0  0  0  0  0  0  0  0  0  0  0  0
  160.8180  202.7820  150.0720 C   0  0  1  0  0  3  0  0  0  0  0  0
  159.1340  201.3890  149.0780 O   0  0  0  0  0  0  0  0  0  0  0  0
  160.3610  201.5670  149.3150 C   0  0  0  0  0  0  0  0  0  0  0  0
  161.3120  200.6450  148.8790 O   0  0  0  0  0  0  0  0  0  0  0  0
  161.4160  200.2630  147.5170 C   0  0  0  0  0  1  0  0  0  0  0  0
  161.4590  202.4410  151.2800 O   0  0  0  0  0  0  0  0  0  0  0  0
  160.5910  202.6570  152.2530 O   0  0  0  0  0  1  0  0  0  0  0  0
  1 10  1  0  0  0  0
  1 12  1  0  0  0  0
  2 21  1  1  0  0  0
  2  3  1  0  0  0  0
  4  2  1  0  0  0  0
  4 11  1  0  0  0  0
  5 14  1  1  0  0  0
  5  1  1  0  0  0  0
  6 10  1  0  0  0  0
  7 11  1  6  0  0  0
  7  8  1  0  0  0  0
  7  5  1  0  0  0  0
  8  3  1  1  0  0  0
  8  6  1  0  0  0  0
 10  9  2  0  0  0  0
 14 13  1  1  0  0  0
 16 18  2  0  0  0  0
 16 19  1  0  0  0  0
 17 15  1  0  0  0  0
 17 14  1  0  0  0  0
 18 20  1  0  0  0  0
 19 17  2  0  0  0  0
 20 15  2  0  0  0  0
 21 22  1  6  0  0  0
 21 28  1  0  0  0  0
 23 22  1  0  0  0  0
 24 23  1  0  0  0  0
 26 27  2  0  0  0  0
 27 25  1  0  0  0  0
 27 24  1  0  0  0  0
 28 30  1  6  0  0  0
 28 33  1  0  0  0  0
 29 30  2  0  0  0  0
 31 30  1  0  0  0  0
 32 31  1  0  0  0  0
 33 34  1  0  0  0  0
M  END
>  <MODEL>
2

>  <REMARK>
 VINA RESULT:      -7.0      1.745      3.948
  Name = 
  11 active torsions:
  status: ('A' for Active; 'I' for Inactive)
    1  A    between atoms: C_2  and  C_19
    2  A    between atoms: C_2  and  C_25
    3  A    between atoms: C_3  and  O_16
    4  A    between atoms: C_3  and  C_34
    5  A    between atoms: C_5  and  C_25
    6  A    between atoms: C_11  and  C_26
    7  A    between atoms: C_13  and  C_19
    8  A    between atoms: C_13  and  C_23
    9  A    between atoms: C_18  and  C_26
   10  A    between atoms: C_25  and  C_34
   11  A    between atoms: O_28  and  C_34
                            x       y       z     vdW  Elec       q    Type
                         _______ _______ _______ _____ _____    ______ ____

>  <TORSDO>
F 11

$$$$
=
 OpenBabel11072414163D

 34 36  0  0  1  0  0  0  0  0999 V2000
  160.8990  208.3800  153.0950 N   0  0  0  0  0  0  0  0  0  0  0  0
  161.4240  205.3710  148.9130 C   0  0  2  0  0  3  0  0  0  0  0  0
  161.5910  205.1170  150.4100 C   0  0  0  0  0  2  0  0  0  0  0  0
  160.2510  206.3240  148.6520 C   0  0  0  0  0  2  0  0  0  0  0  0
  160.8830  208.7170  151.6700 C   0  0  2  0  0  3  0  0  0  0  0  0
  161.9240  206.1810  152.5830 N   0  0  0  0  0  2  0  0  0  0  0  0
  160.6710  207.4190  150.8660 C   0  0  2  0  0  3  0  0  0  0  0  0
  161.8160  206.4320  151.1490 C   0  0  2  0  0  3  0  0  0  0  0  0
  161.6940  206.9440  154.7700 O   0  0  0  0  0  0  0  0  0  0  0  0
  161.5300  207.1670  153.5410 C   0  0  0  0  0  0  0  0  0  0  0  0
  160.4770  207.6510  149.3680 C   0  0  0  0  0  2  0  0  0  0  0  0
  160.1700  209.2230  154.0290 C   0  0  0  0  0  1  0  0  0  0  0  0
  162.8360  209.9380  152.4270 O   0  0  0  0  0  1  0  0  0  0  0  0
  162.1830  209.4600  151.2880 C   0  0  2  0  0  3  0  0  0  0  0  0
  161.1430  211.6710  150.7620 C   0  0  0  0  0  3  0  0  0  0  0  0
  162.2440  211.6690  148.1910 C   0  0  0  0  0  3  0  0  0  0  0  0
  161.9400  210.5990  150.3470 C   0  0  0  0  0  0  0  0  0  0  0  0
  161.4520  212.7410  148.6120 C   0  0  0  0  0  3  0  0  0  0  0  0
  162.4870  210.5970  149.0550 C   0  0  0  0  0  3  0  0  0  0  0  0
  160.9010  212.7420  149.8970 C   0  0  0  0  0  3  0  0  0  0  0  0
  161.3100  204.0490  148.1380 C   0  0  2  0  0  3  0  0  0  0  0  0
  161.4960  202.8470  149.0680 C   0  0  0  0  0  2  0  0  0  0  0  0
  160.6450  201.6530  148.6570 C   0  0  0  0  0  2  0  0  0  0  0  0
  161.5270  200.5120  148.1800 C   0  0  0  0  0  2  0  0  0  0  0  0
  161.6470  198.9490  146.2390 O   0  0  0  0  0  1  0  0  0  0  0  0
  160.4960  200.9240  146.0720 O   0  0  0  0  0  0  0  0  0  0  0  0
  161.2020  200.1530  146.7700 C   0  0  0  0  0  0  0  0  0  0  0  0
  162.1850  203.9720  146.8610 C   0  0  1  0  0  3  0  0  0  0  0  0
  160.8890  203.2940  144.9570 O   0  0  0  0  0  0  0  0  0  0  0  0
  161.4360  204.2420  145.5870 C   0  0  0  0  0  0  0  0  0  0  0  0
  161.3530  205.5510  145.1150 O   0  0  0  0  0  0  0  0  0  0  0  0
  160.1420  206.2890  145.1580 C   0  0  0  0  0  1  0  0  0  0  0  0
  163.3680  204.7340  146.9490 O   0  0  0  0  0  0  0  0  0  0  0  0
  164.1300  204.3850  145.9290 O   0  0  0  0  0  1  0  0  0  0  0  0
  1 10  1  0  0  0  0
  1 12  1  0  0  0  0
  2 21  1  6  0  0  0
  2  3  1  0  0  0  0
  4  2  1  0  0  0  0
  4 11  1  0  0  0  0
  5 14  1  6  0  0  0
  5  1  1  0  0  0  0
  6 10  1  0  0  0  0
  7 11  1  6  0  0  0
  7  8  1  0  0  0  0
  7  5  1  0  0  0  0
  8  3  1  6  0  0  0
  8  6  1  0  0  0  0
 10  9  2  0  0  0  0
 14 13  1  1  0  0  0
 16 18  2  0  0  0  0
 16 19  1  0  0  0  0
 17 15  1  0  0  0  0
 17 14  1  0  0  0  0
 18 20  1  0  0  0  0
 19 17  2  0  0  0  0
 20 15  2  0  0  0  0
 21 22  1  1  0  0  0
 23 22  1  0  0  0  0
 24 23  1  0  0  0  0
 25 27  1  0  0  0  0
 26 27  2  0  0  0  0
 27 24  1  0  0  0  0
 28 30  1  6  0  0  0
 28 33  1  0  0  0  0
 28 21  1  0  0  0  0
 29 30  2  0  0  0  0
 31 32  1  0  0  0  0
 31 30  1  0  0  0  0
 34 33  1  0  0  0  0
M  END
>  <MODEL>
3

>  <REMARK>
 VINA RESULT:      -6.2      2.072      4.892
  Name = 
  11 active torsions:
  status: ('A' for Active; 'I' for Inactive)
    1  A    between atoms: C_2  and  C_19
    2  A    between atoms: C_2  and  C_25
    3  A    between atoms: C_3  and  O_16
    4  A    between atoms: C_3  and  C_34
    5  A    between atoms: C_5  and  C_25
    6  A    between atoms: C_11  and  C_26
    7  A    between atoms: C_13  and  C_19
    8  A    between atoms: C_13  and  C_23
    9  A    between atoms: C_18  and  C_26
   10  A    between atoms: C_25  and  C_34
   11  A    between atoms: O_28  and  C_34
                            x       y       z     vdW  Elec       q    Type
                         _______ _______ _______ _____ _____    ______ ____

>  <TORSDO>
F 11

$$$$
=
 OpenBabel11072414163D

 34 36  0  0  1  0  0  0  0  0999 V2000
  162.1230  206.7090  151.8230 N   0  0  0  0  0  0  0  0  0  0  0  0
  161.1780  211.1800  149.3870 C   0  0  2  0  0  3  0  0  0  0  0  0
  161.1010  210.7520  150.8510 C   0  0  0  0  0  2  0  0  0  0  0  0
  162.3730  210.5180  148.6900 C   0  0  0  0  0  2  0  0  0  0  0  0
  162.0580  207.0210  150.3930 C   0  0  2  0  0  3  0  0  0  0  0  0
  160.9650  208.8350  152.3590 N   0  0  0  0  0  2  0  0  0  0  0  0
  162.1550  208.5500  150.2240 C   0  0  2  0  0  3  0  0  0  0  0  0
  160.9880  209.2340  150.9550 C   0  0  2  0  0  3  0  0  0  0  0  0
  161.3780  207.2220  153.9860 O   0  0  0  0  0  0  0  0  0  0  0  0
  161.4690  207.5630  152.7770 C   0  0  0  0  0  0  0  0  0  0  0  0
  162.2570  209.0000  148.7680 C   0  0  0  0  0  2  0  0  0  0  0  0
  162.9520  205.6000  152.2670 C   0  0  0  0  0  1  0  0  0  0  0  0
  160.1510  205.5490  150.6770 O   0  0  0  0  0  1  0  0  0  0  0  0
  160.7700  206.4250  149.7810 C   0  0  2  0  0  3  0  0  0  0  0  0
  161.4000  204.3600  148.5200 C   0  0  0  0  0  3  0  0  0  0  0  0
  161.1550  205.6830  146.0690 C   0  0  0  0  0  3  0  0  0  0  0  0
  161.0250  205.7070  148.4920 C   0  0  0  0  0  0  0  0  0  0  0  0
  161.5220  204.3350  146.1020 C   0  0  0  0  0  3  0  0  0  0  0  0
  160.9080  206.3710  147.2610 C   0  0  0  0  0  3  0  0  0  0  0  0
  161.6450  203.6730  147.3280 C   0  0  0  0  0  3  0  0  0  0  0  0
  161.1780  212.7110  149.2590 C   0  0  2  0  0  3  0  0  0  0  0  0
  160.2950  213.3540  150.3330 C   0  0  0  0  0  2  0  0  0  0  0  0
  159.0500  214.0110  149.7500 C   0  0  0  0  0  2  0  0  0  0  0  0
  157.7980  213.4110  150.3650 C   0  0  0  0  0  2  0  0  0  0  0  0
  156.6520  214.0230  148.2350 O   0  0  0  0  0  0  0  0  0  0  0  0
  155.4950  214.0080  150.2130 O   0  0  0  0  0  1  0  0  0  0  0  0
  156.5870  213.8420  149.6100 C   0  0  0  0  0  0  0  0  0  0  0  0
  160.8820  213.2400  147.8330 C   0  0  1  0  0  3  0  0  0  0  0  0
  162.9940  214.3790  147.9120 O   0  0  0  0  0  0  0  0  0  0  0  0
  162.0280  213.9810  147.2040 C   0  0  0  0  0  0  0  0  0  0  0  0
  162.0070  214.2190  145.8300 O   0  0  0  0  0  0  0  0  0  0  0  0
  162.8490  213.5110  144.9340 C   0  0  0  0  0  1  0  0  0  0  0  0
  160.3550  212.2560  146.9720 O   0  0  0  0  0  0  0  0  0  0  0  0
  159.1050  212.5980  146.7130 O   0  0  0  0  0  1  0  0  0  0  0  0
  1 12  1  0  0  0  0
  1 10  1  0  0  0  0
  2 21  1  1  0  0  0
  2  3  1  0  0  0  0
  4 11  1  0  0  0  0
  4  2  1  0  0  0  0
  5 14  1  1  0  0  0
  5  1  1  0  0  0  0
  6 10  1  0  0  0  0
  7 11  1  6  0  0  0
  7  5  1  0  0  0  0
  7  8  1  0  0  0  0
  8  3  1  1  0  0  0
  8  6  1  0  0  0  0
 10  9  2  0  0  0  0
 14 13  1  1  0  0  0
 16 18  2  0  0  0  0
 16 19  1  0  0  0  0
 17 15  1  0  0  0  0
 17 14  1  0  0  0  0
 18 20  1  0  0  0  0
 19 17  2  0  0  0  0
 20 15  2  0  0  0  0
 21 22  1  1  0  0  0
 23 22  1  0  0  0  0
 23 24  1  0  0  0  0
 25 27  2  0  0  0  0
 27 26  1  0  0  0  0
 27 24  1  0  0  0  0
 28 33  1  6  0  0  0
 28 21  1  0  0  0  0
 30 28  1  0  0  0  0
 30 29  2  0  0  0  0
 31 30  1  0  0  0  0
 32 31  1  0  0  0  0
 34 33  1  0  0  0  0
M  END
>  <MODEL>
4

>  <REMARK>
 VINA RESULT:      -5.9      3.625      8.717
  Name = 
  11 active torsions:
  status: ('A' for Active; 'I' for Inactive)
    1  A    between atoms: C_2  and  C_19
    2  A    between atoms: C_2  and  C_25
    3  A    between atoms: C_3  and  O_16
    4  A    between atoms: C_3  and  C_34
    5  A    between atoms: C_5  and  C_25
    6  A    between atoms: C_11  and  C_26
    7  A    between atoms: C_13  and  C_19
    8  A    between atoms: C_13  and  C_23
    9  A    between atoms: C_18  and  C_26
   10  A    between atoms: C_25  and  C_34
   11  A    between atoms: O_28  and  C_34
                            x       y       z     vdW  Elec       q    Type
                         _______ _______ _______ _____ _____    ______ ____

>  <TORSDO>
F 11

$$$$
=
 OpenBabel11072414163D

 34 36  0  0  1  0  0  0  0  0999 V2000
  161.0080  208.3440  152.6860 N   0  0  0  0  0  0  0  0  0  0  0  0
  161.4750  205.3930  148.4560 C   0  0  2  0  0  3  0  0  0  0  0  0
  161.6780  205.1220  149.9460 C   0  0  0  0  0  2  0  0  0  0  0  0
  160.2860  206.3350  148.2330 C   0  0  0  0  0  2  0  0  0  0  0  0
  160.9570  208.6980  151.2660 C   0  0  2  0  0  3  0  0  0  0  0  0
  162.0460  206.1630  152.1250 N   0  0  0  0  0  2  0  0  0  0  0  0
  160.7420  207.4080  150.4510 C   0  0  2  0  0  3  0  0  0  0  0  0
  161.9040  206.4310  150.6960 C   0  0  2  0  0  3  0  0  0  0  0  0
  161.8550  206.8970  154.3260 O   0  0  0  0  0  0  0  0  0  0  0  0
  161.6620  207.1330  153.1040 C   0  0  0  0  0  0  0  0  0  0  0  0
  160.5130  207.6560  148.9610 C   0  0  0  0  0  2  0  0  0  0  0  0
  160.2900  209.1670  153.6460 C   0  0  0  0  0  1  0  0  0  0  0  0
  162.9470  209.8750  151.9980 O   0  0  0  0  0  1  0  0  0  0  0  0
  162.2410  209.4600  150.8650 C   0  0  2  0  0  3  0  0  0  0  0  0
  161.2010  211.7070  150.5180 C   0  0  0  0  0  3  0  0  0  0  0  0
  162.1480  211.8280  147.8890 C   0  0  0  0  0  3  0  0  0  0  0  0
  161.9580  210.6490  150.0010 C   0  0  0  0  0  0  0  0  0  0  0  0
  161.3970  212.8850  148.4120 C   0  0  0  0  0  3  0  0  0  0  0  0
  162.4270  210.7100  148.6800 C   0  0  0  0  0  3  0  0  0  0  0  0
  160.9230  212.8240  149.7260 C   0  0  0  0  0  3  0  0  0  0  0  0
  161.3590  204.0790  147.6680 C   0  0  2  0  0  3  0  0  0  0  0  0
  161.8160  202.8870  148.5130 C   0  0  0  0  0  2  0  0  0  0  0  0
  160.6810  201.9170  148.8180 C   0  0  0  0  0  2  0  0  0  0  0  0
  160.9580  201.1680  150.1100 C   0  0  0  0  0  2  0  0  0  0  0  0
  160.2140  203.0210  151.6050 O   0  0  0  0  0  0  0  0  0  0  0  0
  162.2940  202.0930  151.8520 O   0  0  0  0  0  1  0  0  0  0  0  0
  161.2040  202.1230  151.2270 C   0  0  0  0  0  0  0  0  0  0  0  0
  162.0070  204.1110  146.2610 C   0  0  1  0  0  3  0  0  0  0  0  0
  160.7220  205.4080  144.7010 O   0  0  0  0  0  0  0  0  0  0  0  0
  161.0220  204.2610  145.1350 C   0  0  0  0  0  0  0  0  0  0  0  0
  160.4500  203.1170  144.5800 O   0  0  0  0  0  0  0  0  0  0  0  0
  160.4510  201.8730  145.2610 C   0  0  0  0  0  1  0  0  0  0  0  0
  163.0700  205.0320  146.1580 O   0  0  0  0  0  0  0  0  0  0  0  0
  164.1830  204.3280  146.0610 O   0  0  0  0  0  1  0  0  0  0  0  0
  1 10  1  0  0  0  0
  1 12  1  0  0  0  0
  2 21  1  6  0  0  0
  2  3  1  0  0  0  0
  4  2  1  0  0  0  0
  4 11  1  0  0  0  0
  5 14  1  6  0  0  0
  5  1  1  0  0  0  0
  6 10  1  0  0  0  0
  7 11  1  6  0  0  0
  7  8  1  0  0  0  0
  7  5  1  0  0  0  0
  8  3  1  6  0  0  0
  8  6  1  0  0  0  0
 10  9  2  0  0  0  0
 14 13  1  1  0  0  0
 16 18  2  0  0  0  0
 16 19  1  0  0  0  0
 17 15  1  0  0  0  0
 17 14  1  0  0  0  0
 18 20  1  0  0  0  0
 19 17  2  0  0  0  0
 20 15  2  0  0  0  0
 21 22  1  1  0  0  0
 22 23  1  0  0  0  0
 23 24  1  0  0  0  0
 24 27  1  0  0  0  0
 27 25  2  0  0  0  0
 27 26  1  0  0  0  0
 28 30  1  6  0  0  0
 28 21  1  0  0  0  0
 29 30  2  0  0  0  0
 31 30  1  0  0  0  0
 31 32  1  0  0  0  0
 33 28  1  0  0  0  0
 34 33  1  0  0  0  0
M  END
>  <MODEL>
5

>  <REMARK>
 VINA RESULT:      -5.9      2.063      5.175
  Name = 
  11 active torsions:
  status: ('A' for Active; 'I' for Inactive)
    1  A    between atoms: C_2  and  C_19
    2  A    between atoms: C_2  and  C_25
    3  A    between atoms: C_3  and  O_16
    4  A    between atoms: C_3  and  C_34
    5  A    between atoms: C_5  and  C_25
    6  A    between atoms: C_11  and  C_26
    7  A    between atoms: C_13  and  C_19
    8  A    between atoms: C_13  and  C_23
    9  A    between atoms: C_18  and  C_26
   10  A    between atoms: C_25  and  C_34
   11  A    between atoms: O_28  and  C_34
                            x       y       z     vdW  Elec       q    Type
                         _______ _______ _______ _____ _____    ______ ____

>  <TORSDO>
F 11

$$$$
=
 OpenBabel11072414163D

 34 36  0  0  1  0  0  0  0  0999 V2000
  162.4550  209.7640  151.6080 N   0  0  0  0  0  0  0  0  0  0  0  0
  160.8810  205.5370  149.0650 C   0  0  2  0  0  3  0  0  0  0  0  0
  161.2690  206.9430  148.6130 C   0  0  0  0  0  2  0  0  0  0  0  0
  161.7730  205.0740  150.2230 C   0  0  0  0  0  2  0  0  0  0  0  0
  161.9410  208.4870  152.1080 C   0  0  2  0  0  3  0  0  0  0  0  0
  161.5810  209.2520  149.3450 N   0  0  0  0  0  2  0  0  0  0  0  0
  162.0140  207.4540  150.9660 C   0  0  2  0  0  3  0  0  0  0  0  0
  161.1590  207.9230  149.7770 C   0  0  2  0  0  3  0  0  0  0  0  0
  162.4570  211.3430  149.8740 O   0  0  0  0  0  0  0  0  0  0  0  0
  162.1620  210.1820  150.2640 C   0  0  0  0  0  0  0  0  0  0  0  0
  161.6530  206.0340  151.4010 C   0  0  0  0  0  2  0  0  0  0  0  0
  163.3570  210.5380  152.4450 C   0  0  0  0  0  1  0  0  0  0  0  0
  160.0270  209.9520  152.3720 O   0  0  0  0  0  1  0  0  0  0  0  0
  160.5110  208.6740  152.6640 C   0  0  2  0  0  3  0  0  0  0  0  0
  160.2860  209.5440  154.9970 C   0  0  0  0  0  3  0  0  0  0  0  0
  160.4560  206.9640  156.0620 C   0  0  0  0  0  3  0  0  0  0  0  0
  160.4350  208.4470  154.1420 C   0  0  0  0  0  0  0  0  0  0  0  0
  160.3010  208.0630  156.9120 C   0  0  0  0  0  3  0  0  0  0  0  0
  160.5260  207.1540  154.6790 C   0  0  0  0  0  3  0  0  0  0  0  0
  160.2160  209.3530  156.3790 C   0  0  0  0  0  3  0  0  0  0  0  0
  160.8750  204.5580  147.8800 C   0  0  2  0  0  3  0  0  0  0  0  0
  161.6500  203.2810  148.2160 C   0  0  0  0  0  2  0  0  0  0  0  0
  160.7830  202.0320  148.1330 C   0  0  0  0  0  2  0  0  0  0  0  0
  161.2810  200.9750  149.1030 C   0  0  0  0  0  2  0  0  0  0  0  0
  161.6110  201.9580  151.3720 O   0  0  0  0  0  1  0  0  0  0  0  0
  159.6450  200.9110  150.8350 O   0  0  0  0  0  0  0  0  0  0  0  0
  160.8000  201.2640  150.4840 C   0  0  0  0  0  0  0  0  0  0  0  0
  161.2910  205.1830  146.5250 C   0  0  1  0  0  3  0  0  0  0  0  0
  162.7100  203.9530  145.0280 O   0  0  0  0  0  0  0  0  0  0  0  0
  161.5360  204.1770  145.4350 C   0  0  0  0  0  0  0  0  0  0  0  0
  160.4500  203.4960  144.8860 O   0  0  0  0  0  0  0  0  0  0  0  0
  160.3190  202.0870  144.9900 C   0  0  0  0  0  1  0  0  0  0  0  0
  160.4340  206.2200  146.1020 O   0  0  0  0  0  0  0  0  0  0  0  0
  160.0910  205.9540  144.8540 O   0  0  0  0  0  1  0  0  0  0  0  0
  1  5  1  0  0  0  0
  1 12  1  0  0  0  0
  2 21  1  6  0  0  0
  2  4  1  0  0  0  0
  3  2  1  0  0  0  0
  4 11  1  0  0  0  0
  5 14  1  6  0  0  0
  6  8  1  0  0  0  0
  6 10  1  0  0  0  0
  7 11  1  1  0  0  0
  7  5  1  0  0  0  0
  8  3  1  6  0  0  0
  8  7  1  0  0  0  0
  9 10  2  0  0  0  0
 10  1  1  0  0  0  0
 14 13  1  1  0  0  0
 14 17  1  0  0  0  0
 15 20  1  0  0  0  0
 16 18  1  0  0  0  0
 17 19  1  0  0  0  0
 17 15  2  0  0  0  0
 19 16  2  0  0  0  0
 20 18  2  0  0  0  0
 21 22  1  1  0  0  0
 23 22  1  0  0  0  0
 23 24  1  0  0  0  0
 24 27  1  0  0  0  0
 27 26  2  0  0  0  0
 27 25  1  0  0  0  0
 28 30  1  6  0  0  0
 28 21  1  0  0  0  0
 29 30  2  0  0  0  0
 31 32  1  0  0  0  0
 31 30  1  0  0  0  0
 33 28  1  0  0  0  0
 34 33  1  0  0  0  0
M  END
>  <MODEL>
6

>  <REMARK>
 VINA RESULT:      -5.8      1.076      3.354
  Name = 
  11 active torsions:
  status: ('A' for Active; 'I' for Inactive)
    1  A    between atoms: C_2  and  C_19
    2  A    between atoms: C_2  and  C_25
    3  A    between atoms: C_3  and  O_16
    4  A    between atoms: C_3  and  C_34
    5  A    between atoms: C_5  and  C_25
    6  A    between atoms: C_11  and  C_26
    7  A    between atoms: C_13  and  C_19
    8  A    between atoms: C_13  and  C_23
    9  A    between atoms: C_18  and  C_26
   10  A    between atoms: C_25  and  C_34
   11  A    between atoms: O_28  and  C_34
                            x       y       z     vdW  Elec       q    Type
                         _______ _______ _______ _____ _____    ______ ____

>  <TORSDO>
F 11

$$$$
=
 OpenBabel11072414163D

 34 36  0  0  1  0  0  0  0  0999 V2000
  161.8660  204.8980  151.6960 N   0  0  0  0  0  0  0  0  0  0  0  0
  161.0450  209.9810  152.2510 C   0  0  2  0  0  3  0  0  0  0  0  0
  160.7870  208.7760  153.1540 C   0  0  0  0  0  2  0  0  0  0  0  0
  162.3560  209.8070  151.4760 C   0  0  0  0  0  2  0  0  0  0  0  0
  161.9840  205.9940  150.7310 C   0  0  2  0  0  3  0  0  0  0  0  0
  160.5400  206.3470  153.2090 N   0  0  0  0  0  2  0  0  0  0  0  0
  162.0270  207.3230  151.5090 C   0  0  2  0  0  3  0  0  0  0  0  0
  160.7370  207.4950  152.3290 C   0  0  2  0  0  3  0  0  0  0  0  0
  160.8040  204.0700  153.6150 O   0  0  0  0  0  0  0  0  0  0  0  0
  161.0440  205.0530  152.8650 C   0  0  0  0  0  0  0  0  0  0  0  0
  162.3070  208.5400  150.6290 C   0  0  0  0  0  2  0  0  0  0  0  0
  162.6800  203.7070  151.5140 C   0  0  0  0  0  1  0  0  0  0  0  0
  159.8280  205.0500  150.1480 O   0  0  0  0  0  1  0  0  0  0  0  0
  160.8250  205.9270  149.7110 C   0  0  2  0  0  3  0  0  0  0  0  0
  161.3350  204.1480  148.0300 C   0  0  0  0  0  3  0  0  0  0  0  0
  162.0990  206.0500  146.1280 C   0  0  0  0  0  3  0  0  0  0  0  0
  161.2820  205.5090  148.3480 C   0  0  0  0  0  0  0  0  0  0  0  0
  162.1440  204.6890  145.8130 C   0  0  0  0  0  3  0  0  0  0  0  0
  161.6710  206.4620  147.3940 C   0  0  0  0  0  3  0  0  0  0  0  0
  161.7620  203.7380  146.7640 C   0  0  0  0  0  3  0  0  0  0  0  0
  160.9850  211.2920  153.0490 C   0  0  2  0  0  3  0  0  0  0  0  0
  161.5410  211.1020  154.4630 C   0  0  0  0  0  2  0  0  0  0  0  0
  160.6060  211.6440  155.5370 C   0  0  0  0  0  2  0  0  0  0  0  0
  160.9820  211.0860  156.8980 C   0  0  0  0  0  2  0  0  0  0  0  0
  162.2320  208.9350  157.0770 O   0  0  0  0  0  1  0  0  0  0  0  0
  159.9790  208.9370  156.6610 O   0  0  0  0  0  0  0  0  0  0  0  0
  161.0310  209.5970  156.8580 C   0  0  0  0  0  0  0  0  0  0  0  0
  159.6070  212.0000  153.0280 C   0  0  1  0  0  3  0  0  0  0  0  0
  159.0040  214.2480  152.4390 O   0  0  0  0  0  0  0  0  0  0  0  0
  159.5280  213.1590  152.0740 C   0  0  0  0  0  0  0  0  0  0  0  0
  160.0420  213.0120  150.7860 O   0  0  0  0  0  0  0  0  0  0  0  0
  160.3760  214.1310  149.9810 C   0  0  0  0  0  1  0  0  0  0  0  0
  158.5260  211.1090  152.8660 O   0  0  0  0  0  0  0  0  0  0  0  0
  157.6100  211.4470  153.7560 O   0  0  0  0  0  1  0  0  0  0  0  0
  1 10  1  0  0  0  0
  2 21  1  1  0  0  0
  2  3  1  0  0  0  0
  4  2  1  0  0  0  0
  5 14  1  6  0  0  0
  5  7  1  0  0  0  0
  5  1  1  0  0  0  0
  7 11  1  6  0  0  0
  7  8  1  0  0  0  0
  8  3  1  1  0  0  0
  8  6  1  0  0  0  0
 10  6  1  0  0  0  0
 10  9  2  0  0  0  0
 11  4  1  0  0  0  0
 12  1  1  0  0  0  0
 14 13  1  1  0  0  0
 15 17  1  0  0  0  0
 16 19  1  0  0  0  0
 17 14  1  0  0  0  0
 18 16  2  0  0  0  0
 18 20  1  0  0  0  0
 19 17  2  0  0  0  0
 20 15  2  0  0  0  0
 21 22  1  1  0  0  0
 22 23  1  0  0  0  0
 23 24  1  0  0  0  0
 26 27  2  0  0  0  0
 27 24  1  0  0  0  0
 27 25  1  0  0  0  0
 28 30  1  6  0  0  0
 28 21  1  0  0  0  0
 30 29  2  0  0  0  0
 31 30  1  0  0  0  0
 32 31  1  0  0  0  0
 33 28  1  0  0  0  0
 33 34  1  0  0  0  0
M  END
>  <MODEL>
7

>  <REMARK>
 VINA RESULT:      -5.8      2.712      9.206
  Name = 
  11 active torsions:
  status: ('A' for Active; 'I' for Inactive)
    1  A    between atoms: C_2  and  C_19
    2  A    between atoms: C_2  and  C_25
    3  A    between atoms: C_3  and  O_16
    4  A    between atoms: C_3  and  C_34
    5  A    between atoms: C_5  and  C_25
    6  A    between atoms: C_11  and  C_26
    7  A    between atoms: C_13  and  C_19
    8  A    between atoms: C_13  and  C_23
    9  A    between atoms: C_18  and  C_26
   10  A    between atoms: C_25  and  C_34
   11  A    between atoms: O_28  and  C_34
                            x       y       z     vdW  Elec       q    Type
                         _______ _______ _______ _____ _____    ______ ____

>  <TORSDO>
F 11

$$$$
=
 OpenBabel11072414163D

 34 36  0  0  1  0  0  0  0  0999 V2000
  162.1830  206.2830  151.9610 N   0  0  0  0  0  0  0  0  0  0  0  0
  160.4700  211.1300  151.3340 C   0  0  2  0  0  3  0  0  0  0  0  0
  160.4640  210.1650  152.5180 C   0  0  0  0  0  2  0  0  0  0  0  0
  161.7650  210.9900  150.5260 C   0  0  0  0  0  2  0  0  0  0  0  0
  162.0690  207.1050  150.7540 C   0  0  2  0  0  3  0  0  0  0  0  0
  160.6650  207.8220  153.1760 N   0  0  0  0  0  2  0  0  0  0  0  0
  161.8940  208.5750  151.1830 C   0  0  2  0  0  3  0  0  0  0  0  0
  160.6210  208.7280  152.0320 C   0  0  2  0  0  3  0  0  0  0  0  0
  161.3510  205.7970  154.0990 O   0  0  0  0  0  0  0  0  0  0  0  0
  161.3840  206.5860  153.1180 C   0  0  0  0  0  0  0  0  0  0  0  0
  161.9200  209.5610  150.0160 C   0  0  0  0  0  2  0  0  0  0  0  0
  163.1940  205.2390  152.0110 C   0  0  0  0  0  1  0  0  0  0  0  0
  160.0900  205.7130  150.5880 O   0  0  0  0  0  1  0  0  0  0  0  0
  160.9090  206.5910  149.8720 C   0  0  2  0  0  3  0  0  0  0  0  0
  161.8690  206.6790  147.5650 C   0  0  0  0  0  3  0  0  0  0  0  0
  161.8070  203.8920  147.3440 C   0  0  0  0  0  3  0  0  0  0  0  0
  161.3910  205.9080  148.6300 C   0  0  0  0  0  0  0  0  0  0  0  0
  162.2890  204.6670  146.2860 C   0  0  0  0  0  3  0  0  0  0  0  0
  161.3560  204.5100  148.5150 C   0  0  0  0  0  3  0  0  0  0  0  0
  162.3200  206.0610  146.3960 C   0  0  0  0  0  3  0  0  0  0  0  0
  160.1990  212.5710  151.7940 C   0  0  2  0  0  3  0  0  0  0  0  0
  159.7100  212.6030  153.2450 C   0  0  0  0  0  2  0  0  0  0  0  0
  158.9420  213.8770  153.5750 C   0  0  0  0  0  2  0  0  0  0  0  0
  158.0020  213.6410  154.7440 C   0  0  0  0  0  2  0  0  0  0  0  0
  156.7950  211.4770  154.4590 O   0  0  0  0  0  1  0  0  0  0  0  0
  155.8070  213.4490  153.8380 O   0  0  0  0  0  0  0  0  0  0  0  0
  156.8120  212.8570  154.3090 C   0  0  0  0  0  0  0  0  0  0  0  0
  159.3080  213.3980  150.8340 C   0  0  1  0  0  3  0  0  0  0  0  0
  159.3990  213.3470  148.4350 O   0  0  0  0  0  0  0  0  0  0  0  0
  159.9530  213.7050  149.5110 C   0  0  0  0  0  0  0  0  0  0  0  0
  161.1660  214.3920  149.4930 O   0  0  0  0  0  0  0  0  0  0  0  0
  161.9860  214.4340  148.3360 C   0  0  0  0  0  1  0  0  0  0  0  0
  158.0120  212.8660  150.6780 O   0  0  0  0  0  0  0  0  0  0  0  0
  157.1640  213.8710  150.8030 O   0  0  0  0  0  1  0  0  0  0  0  0
  1 12  1  0  0  0  0
  1 10  1  0  0  0  0
  2 21  1  1  0  0  0
  2  3  1  0  0  0  0
  4  2  1  0  0  0  0
  5 14  1  1  0  0  0
  5  7  1  0  0  0  0
  5  1  1  0  0  0  0
  7 11  1  6  0  0  0
  7  8  1  0  0  0  0
  8  3  1  1  0  0  0
  8  6  1  0  0  0  0
 10  6  1  0  0  0  0
 10  9  2  0  0  0  0
 11  4  1  0  0  0  0
 14 13  1  1  0  0  0
 15 17  1  0  0  0  0
 16 19  1  0  0  0  0
 17 14  1  0  0  0  0
 18 20  1  0  0  0  0
 18 16  2  0  0  0  0
 19 17  2  0  0  0  0
 20 15  2  0  0  0  0
 21 22  1  1  0  0  0
 22 23  1  0  0  0  0
 23 24  1  0  0  0  0
 26 27  2  0  0  0  0
 27 25  1  0  0  0  0
 27 24  1  0  0  0  0
 28 30  1  6  0  0  0
 28 21  1  0  0  0  0
 29 30  2  0  0  0  0
 31 30  1  0  0  0  0
 32 31  1  0  0  0  0
 33 34  1  0  0  0  0
 33 28  1  0  0  0  0
M  END
>  <MODEL>
8

>  <REMARK>
 VINA RESULT:      -5.8      3.255      9.202
  Name = 
  11 active torsions:
  status: ('A' for Active; 'I' for Inactive)
    1  A    between atoms: C_2  and  C_19
    2  A    between atoms: C_2  and  C_25
    3  A    between atoms: C_3  and  O_16
    4  A    between atoms: C_3  and  C_34
    5  A    between atoms: C_5  and  C_25
    6  A    between atoms: C_11  and  C_26
    7  A    between atoms: C_13  and  C_19
    8  A    between atoms: C_13  and  C_23
    9  A    between atoms: C_18  and  C_26
   10  A    between atoms: C_25  and  C_34
   11  A    between atoms: O_28  and  C_34
                            x       y       z     vdW  Elec       q    Type
                         _______ _______ _______ _____ _____    ______ ____

>  <TORSDO>
F 11

$$$$
=
 OpenBabel11072414163D

 34 36  0  0  1  0  0  0  0  0999 V2000
  161.8900  204.8980  151.6990 N   0  0  0  0  0  0  0  0  0  0  0  0
  160.9340  209.9720  152.0990 C   0  0  2  0  0  3  0  0  0  0  0  0
  160.7030  208.7890  153.0370 C   0  0  0  0  0  2  0  0  0  0  0  0
  162.2540  209.8090  151.3360 C   0  0  0  0  0  2  0  0  0  0  0  0
  161.9860  205.9680  150.7030 C   0  0  2  0  0  3  0  0  0  0  0  0
  160.5180  206.3570  153.1620 N   0  0  0  0  0  2  0  0  0  0  0  0
  161.9890  207.3200  151.4420 C   0  0  2  0  0  3  0  0  0  0  0  0
  160.6900  207.4830  152.2490 C   0  0  2  0  0  3  0  0  0  0  0  0
  160.8380  204.1000  153.6370 O   0  0  0  0  0  0  0  0  0  0  0  0
  161.0570  205.0660  152.8600 C   0  0  0  0  0  0  0  0  0  0  0  0
  162.2430  208.5180  150.5270 C   0  0  0  0  0  2  0  0  0  0  0  0
  162.7360  203.7240  151.5580 C   0  0  0  0  0  1  0  0  0  0  0  0
  159.8510  204.9610  150.1430 O   0  0  0  0  0  1  0  0  0  0  0  0
  160.8340  205.8410  149.6800 C   0  0  2  0  0  3  0  0  0  0  0  0
  161.2130  204.0270  148.0010 C   0  0  0  0  0  3  0  0  0  0  0  0
  162.2990  205.8380  146.1680 C   0  0  0  0  0  3  0  0  0  0  0  0
  161.3080  205.3820  148.3360 C   0  0  0  0  0  0  0  0  0  0  0  0
  162.1950  204.4840  145.8360 C   0  0  0  0  0  3  0  0  0  0  0  0
  161.8590  206.2880  147.4160 C   0  0  0  0  0  3  0  0  0  0  0  0
  161.6520  203.5780  146.7530 C   0  0  0  0  0  3  0  0  0  0  0  0
  160.8370  211.3050  152.8580 C   0  0  2  0  0  3  0  0  0  0  0  0
  160.8730  211.0810  154.3720 C   0  0  0  0  0  2  0  0  0  0  0  0
  162.2640  210.7160  154.8750 C   0  0  0  0  0  2  0  0  0  0  0  0
  162.2350  210.4530  156.3710 C   0  0  0  0  0  2  0  0  0  0  0  0
  161.8600  207.9870  156.3500 O   0  0  0  0  0  0  0  0  0  0  0  0
  160.2950  209.3920  157.2610 O   0  0  0  0  0  1  0  0  0  0  0  0
  161.4000  209.2560  156.6760 C   0  0  0  0  0  0  0  0  0  0  0  0
  159.6710  212.2210  152.4070 C   0  0  1  0  0  3  0  0  0  0  0  0
  158.9920  213.6180  154.2370 O   0  0  0  0  0  0  0  0  0  0  0  0
  158.7370  212.6140  153.5160 C   0  0  0  0  0  0  0  0  0  0  0  0
  157.5870  211.8560  153.7320 O   0  0  0  0  0  0  0  0  0  0  0  0
  157.2690  211.3240  155.0090 C   0  0  0  0  0  1  0  0  0  0  0  0
  160.0970  213.3350  151.6550 O   0  0  0  0  0  0  0  0  0  0  0  0
  160.1300  212.9590  150.3900 O   0  0  0  0  0  1  0  0  0  0  0  0
  1 10  1  0  0  0  0
  2 21  1  1  0  0  0
  2  3  1  0  0  0  0
  4  2  1  0  0  0  0
  5 14  1  6  0  0  0
  5  7  1  0  0  0  0
  5  1  1  0  0  0  0
  7 11  1  6  0  0  0
  7  8  1  0  0  0  0
  8  3  1  1  0  0  0
  8  6  1  0  0  0  0
 10  6  1  0  0  0  0
 10  9  2  0  0  0  0
 11  4  1  0  0  0  0
 12  1  1  0  0  0  0
 14 13  1  1  0  0  0
 15 17  1  0  0  0  0
 16 19  1  0  0  0  0
 17 14  1  0  0  0  0
 18 16  2  0  0  0  0
 18 20  1  0  0  0  0
 19 17  2  0  0  0  0
 20 15  2  0  0  0  0
 21 22  1  1  0  0  0
 22 23  1  0  0  0  0
 23 24  1  0  0  0  0
 24 27  1  0  0  0  0
 25 27  2  0  0  0  0
 27 26  1  0  0  0  0
 28 33  1  1  0  0  0
 28 21  1  0  0  0  0
 28 30  1  0  0  0  0
 30 31  1  0  0  0  0
 30 29  2  0  0  0  0
 31 32  1  0  0  0  0
 34 33  1  0  0  0  0
M  END
>  <MODEL>
9

>  <REMARK>
 VINA RESULT:      -5.5      2.722      9.245
  Name = 
  11 active torsions:
  status: ('A' for Active; 'I' for Inactive)
    1  A    between atoms: C_2  and  C_19
    2  A    between atoms: C_2  and  C_25
    3  A    between atoms: C_3  and  O_16
    4  A    between atoms: C_3  and  C_34
    5  A    between atoms: C_5  and  C_25
    6  A    between atoms: C_11  and  C_26
    7  A    between atoms: C_13  and  C_19
    8  A    between atoms: C_13  and  C_23
    9  A    between atoms: C_18  and  C_26
   10  A    between atoms: C_25  and  C_34
   11  A    between atoms: O_28  and  C_34
                            x       y       z     vdW  Elec       q    Type
                         _______ _______ _______ _____ _____    ______ ____

>  <TORSDO>
F 11

$$$$
