=
 OpenBabel11072414113D

 28 32  0  0  0  0  0  0  0  0999 V2000
  161.1480  205.4290  148.1080 C   0  0  0  0  0  0  0  0  0  0  0  0
  161.1190  203.7620  146.3300 C   0  0  0  0  0  0  0  0  0  0  0  0
  161.0590  204.6880  150.4410 C   0  0  0  0  0  0  0  0  0  0  0  0
  161.1680  207.0640  149.9270 C   0  0  0  0  0  3  0  0  0  0  0  0
  160.7100  206.1100  145.7380 C   0  0  0  0  0  2  0  0  0  0  0  0
  161.0370  203.3540  150.0160 C   0  0  0  0  0  3  0  0  0  0  0  0
  161.0990  204.7850  145.3790 O   0  0  0  0  0  0  0  0  0  0  0  0
  161.0740  206.3260  152.2300 C   0  0  0  0  0  3  0  0  0  0  0  0
  161.1260  205.7340  149.4850 C   0  0  0  0  0  0  0  0  0  0  0  0
  161.0740  201.7110  148.2410 C   0  0  0  0  0  3  0  0  0  0  0  0
  161.0330  204.9940  151.8120 C   0  0  0  0  0  0  0  0  0  0  0  0
  161.1180  201.4010  146.8780 C   0  0  0  0  0  0  0  0  0  0  0  0
  161.0680  203.0460  148.6570 C   0  0  0  0  0  0  0  0  0  0  0  0
  161.1390  202.4250  145.9240 C   0  0  0  0  0  3  0  0  0  0  0  0
  161.1470  207.3590  151.2930 C   0  0  0  0  0  0  0  0  0  0  0  0
  161.1090  204.0810  147.6990 C   0  0  0  0  0  0  0  0  0  0  0  0
  161.3360  206.5120  147.0720 C   0  0  0  0  0  2  0  0  0  0  0  0
  161.1360  200.0760  146.4700 O   0  0  0  0  0  1  0  0  0  0  0  0
  160.9680  203.9840  152.7670 O   0  0  0  0  0  1  0  0  0  0  0  0
  161.1760  208.7760  151.7500 C   0  0  0  0  0  2  0  0  0  0  0  0
  162.3310  209.5110  151.0970 C   0  0  0  0  0  2  0  0  0  0  0  0
  161.7970  210.6660  150.2790 C   0  0  0  0  0  2  0  0  0  0  0  0
  162.1420  210.4530  148.8180 C   0  0  0  0  0  2  0  0  0  0  0  0
  160.9810  212.1760  147.4390 C   0  0  0  0  0  3  0  0  0  0  0  0
  161.3500  213.3790  146.8680 C   0  0  0  0  0  3  0  0  0  0  0  0
  162.6390  213.6380  147.1750 N   0  0  0  0  0  0  0  0  0  0  0  0
  162.0540  211.7120  148.0990 N   0  0  0  0  0  0  0  0  0  0  0  0
  163.0460  212.5970  147.9260 C   0  0  0  0  0  3  0  0  0  0  0  0
  1  9  1  0  0  0  0
  2 16  1  0  0  0  0
  3 11  1  0  0  0  0
  4 15  2  0  0  0  0
  5 17  1  0  0  0  0
  6  3  1  0  0  0  0
  7  5  1  0  0  0  0
  7  2  1  0  0  0  0
  9  4  1  0  0  0  0
  9  3  2  0  0  0  0
 10 13  1  0  0  0  0
 11  8  2  0  0  0  0
 11 19  1  0  0  0  0
 12 10  2  0  0  0  0
 13  6  2  0  0  0  0
 14  2  2  0  0  0  0
 14 12  1  0  0  0  0
 15 20  1  0  0  0  0
 15  8  1  0  0  0  0
 16  1  2  0  0  0  0
 16 13  1  0  0  0  0
 17  1  1  0  0  0  0
 18 12  1  0  0  0  0
 21 20  1  0  0  0  0
 22 21  1  0  0  0  0
 23 22  1  0  0  0  0
 24 27  1  0  0  0  0
 25 26  1  0  0  0  0
 25 24  2  0  0  0  0
 26 28  2  0  0  0  0
 27 23  1  0  0  0  0
 28 27  1  0  0  0  0
M  END
>  <MODEL>
1

>  <REMARK>
 VINA RESULT:     -10.1      0.000      0.000
  Name = 
  5 active torsions:
  status: ('A' for Active; 'I' for Inactive)
    1  A    between atoms: C_3  and  C_4
    2  A    between atoms: C_3  and  C_23
    3  A    between atoms: C_4  and  N_22
    4  A    between atoms: C_11  and  C_21
    5  A    between atoms: C_11  and  C_23
                            x       y       z     vdW  Elec       q    Type
                         _______ _______ _______ _____ _____    ______ ____

>  <TORSDO>
F 5

$$$$
=
 OpenBabel11072414113D

 28 32  0  0  0  0  0  0  0  0999 V2000
  161.2790  205.9260  148.8080 C   0  0  0  0  0  0  0  0  0  0  0  0
  161.2020  203.9900  147.3310 C   0  0  0  0  0  0  0  0  0  0  0  0
  161.1700  205.5840  151.2320 C   0  0  0  0  0  0  0  0  0  0  0  0
  161.3450  207.8390  150.3320 C   0  0  0  0  0  3  0  0  0  0  0  0
  160.8580  206.2180  146.3560 C   0  0  0  0  0  2  0  0  0  0  0  0
  161.1110  204.1990  151.0330 C   0  0  0  0  0  3  0  0  0  0  0  0
  161.2100  204.8410  146.2230 O   0  0  0  0  0  0  0  0  0  0  0  0
  161.2320  207.4950  152.7250 C   0  0  0  0  0  3  0  0  0  0  0  0
  161.2650  206.4560  150.1150 C   0  0  0  0  0  0  0  0  0  0  0  0
  161.1010  202.2850  149.5540 C   0  0  0  0  0  3  0  0  0  0  0  0
  161.1540  206.1130  152.5330 C   0  0  0  0  0  0  0  0  0  0  0  0
  161.1360  201.7530  148.2610 C   0  0  0  0  0  0  0  0  0  0  0  0
  161.1330  203.6700  149.7430 C   0  0  0  0  0  0  0  0  0  0  0  0
  161.1850  202.6040  147.1510 C   0  0  0  0  0  3  0  0  0  0  0  0
  161.3330  208.3560  151.6310 C   0  0  0  0  0  0  0  0  0  0  0  0
  161.2020  204.5310  148.6280 C   0  0  0  0  0  0  0  0  0  0  0  0
  161.4960  206.8180  147.6080 C   0  0  0  0  0  2  0  0  0  0  0  0
  161.1170  200.3790  148.0790 O   0  0  0  0  0  1  0  0  0  0  0  0
  161.0620  205.2770  153.6420 O   0  0  0  0  0  1  0  0  0  0  0  0
  161.4010  209.8280  151.8470 C   0  0  0  0  0  2  0  0  0  0  0  0
  160.1770  210.3010  152.6070 C   0  0  0  0  0  2  0  0  0  0  0  0
  160.6090  211.1680  153.7690 C   0  0  0  0  0  2  0  0  0  0  0  0
  159.8350  210.7690  155.0110 C   0  0  0  0  0  2  0  0  0  0  0  0
  159.8390  208.4880  156.0180 C   0  0  0  0  0  3  0  0  0  0  0  0
  160.7970  207.6810  156.6010 C   0  0  0  0  0  3  0  0  0  0  0  0
  161.9870  208.3170  156.5760 N   0  0  0  0  0  0  0  0  0  0  0  0
  160.4590  209.6140  155.6340 N   0  0  0  0  0  0  0  0  0  0  0  0
  161.7490  209.5020  155.9820 C   0  0  0  0  0  3  0  0  0  0  0  0
  1  9  1  0  0  0  0
  2 16  1  0  0  0  0
  3 11  1  0  0  0  0
  4 15  2  0  0  0  0
  5 17  1  0  0  0  0
  6  3  1  0  0  0  0
  7  5  1  0  0  0  0
  7  2  1  0  0  0  0
  9  4  1  0  0  0  0
  9  3  2  0  0  0  0
 10 13  1  0  0  0  0
 11  8  2  0  0  0  0
 11 19  1  0  0  0  0
 12 10  2  0  0  0  0
 13  6  2  0  0  0  0
 14  2  2  0  0  0  0
 14 12  1  0  0  0  0
 15 20  1  0  0  0  0
 15  8  1  0  0  0  0
 16  1  2  0  0  0  0
 16 13  1  0  0  0  0
 17  1  1  0  0  0  0
 18 12  1  0  0  0  0
 20 21  1  0  0  0  0
 21 22  1  0  0  0  0
 22 23  1  0  0  0  0
 23 27  1  0  0  0  0
 24 25  2  0  0  0  0
 26 25  1  0  0  0  0
 27 28  1  0  0  0  0
 27 24  1  0  0  0  0
 28 26  2  0  0  0  0
M  END
>  <MODEL>
2

>  <REMARK>
 VINA RESULT:     -10.1      3.140      4.494
  Name = 
  5 active torsions:
  status: ('A' for Active; 'I' for Inactive)
    1  A    between atoms: C_3  and  C_4
    2  A    between atoms: C_3  and  C_23
    3  A    between atoms: C_4  and  N_22
    4  A    between atoms: C_11  and  C_21
    5  A    between atoms: C_11  and  C_23
                            x       y       z     vdW  Elec       q    Type
                         _______ _______ _______ _____ _____    ______ ____

>  <TORSDO>
F 5

$$$$
=
 OpenBabel11072414113D

 28 32  0  0  0  0  0  0  0  0999 V2000
  161.0050  204.4670  150.6050 C   0  0  0  0  0  0  0  0  0  0  0  0
  160.9620  202.6250  149.0100 C   0  0  0  0  0  0  0  0  0  0  0  0
  161.4070  206.7420  149.7910 C   0  0  0  0  0  0  0  0  0  0  0  0
  161.0640  206.3470  152.1680 C   0  0  0  0  0  3  0  0  0  0  0  0
  161.1250  202.0950  151.4030 C   0  0  0  0  0  2  0  0  0  0  0  0
  161.4820  206.2580  148.4790 C   0  0  0  0  0  3  0  0  0  0  0  0
  160.7990  201.7220  150.0640 O   0  0  0  0  0  0  0  0  0  0  0  0
  161.4680  208.5920  151.3580 C   0  0  0  0  0  3  0  0  0  0  0  0
  161.1570  205.8450  150.8620 C   0  0  0  0  0  0  0  0  0  0  0  0
  161.3720  204.4270  146.9030 C   0  0  0  0  0  3  0  0  0  0  0  0
  161.5620  208.1140  150.0490 C   0  0  0  0  0  0  0  0  0  0  0  0
  161.2000  203.0640  146.6390 C   0  0  0  0  0  0  0  0  0  0  0  0
  161.3240  204.8980  148.2180 C   0  0  0  0  0  0  0  0  0  0  0  0
  160.9970  202.1640  147.6910 C   0  0  0  0  0  3  0  0  0  0  0  0
  161.2140  207.7150  152.4150 C   0  0  0  0  0  0  0  0  0  0  0  0
  161.0990  203.9970  149.2800 C   0  0  0  0  0  0  0  0  0  0  0  0
  160.6230  203.5050  151.7060 C   0  0  0  0  0  2  0  0  0  0  0  0
  161.2360  202.6030  145.3320 O   0  0  0  0  0  1  0  0  0  0  0  0
  161.8070  209.0110  149.0140 O   0  0  0  0  0  1  0  0  0  0  0  0
  161.1300  208.2340  153.8080 C   0  0  0  0  0  2  0  0  0  0  0  0
  160.7690  207.1110  154.7620 C   0  0  0  0  0  2  0  0  0  0  0  0
  159.9190  207.6590  155.8870 C   0  0  0  0  0  2  0  0  0  0  0  0
  160.7690  207.8170  157.1320 C   0  0  0  0  0  2  0  0  0  0  0  0
  160.6150  210.3060  157.1360 C   0  0  0  0  0  3  0  0  0  0  0  0
  161.5310  211.3390  157.1830 C   0  0  0  0  0  3  0  0  0  0  0  0
  162.7760  210.8240  157.2610 N   0  0  0  0  0  0  0  0  0  0  0  0
  161.3140  209.1620  157.1930 N   0  0  0  0  0  0  0  0  0  0  0  0
  162.6130  209.4870  157.2610 C   0  0  0  0  0  3  0  0  0  0  0  0
  1  9  1  0  0  0  0
  1 17  1  0  0  0  0
  2 16  1  0  0  0  0
  2  7  1  0  0  0  0
  3 11  2  0  0  0  0
  3  9  1  0  0  0  0
  4 15  1  0  0  0  0
  5 17  1  0  0  0  0
  6  3  1  0  0  0  0
  7  5  1  0  0  0  0
  8 15  2  0  0  0  0
  9  4  2  0  0  0  0
 10 13  1  0  0  0  0
 11  8  1  0  0  0  0
 12 10  2  0  0  0  0
 12 14  1  0  0  0  0
 13  6  2  0  0  0  0
 13 16  1  0  0  0  0
 14  2  2  0  0  0  0
 15 20  1  0  0  0  0
 16  1  2  0  0  0  0
 18 12  1  0  0  0  0
 19 11  1  0  0  0  0
 20 21  1  0  0  0  0
 21 22  1  0  0  0  0
 22 23  1  0  0  0  0
 23 27  1  0  0  0  0
 24 25  2  0  0  0  0
 24 27  1  0  0  0  0
 25 26  1  0  0  0  0
 26 28  2  0  0  0  0
 27 28  1  0  0  0  0
M  END
>  <MODEL>
3

>  <REMARK>
 VINA RESULT:     -10.0      3.752      5.645
  Name = 
  5 active torsions:
  status: ('A' for Active; 'I' for Inactive)
    1  A    between atoms: C_3  and  C_4
    2  A    between atoms: C_3  and  C_23
    3  A    between atoms: C_4  and  N_22
    4  A    between atoms: C_11  and  C_21
    5  A    between atoms: C_11  and  C_23
                            x       y       z     vdW  Elec       q    Type
                         _______ _______ _______ _____ _____    ______ ____

>  <TORSDO>
F 5

$$$$
=
 OpenBabel11072414113D

 28 32  0  0  0  0  0  0  0  0999 V2000
  161.1310  204.2270  149.2480 C   0  0  0  0  0  0  0  0  0  0  0  0
  161.1660  203.3790  146.9630 C   0  0  0  0  0  0  0  0  0  0  0  0
  161.5360  206.6100  149.6440 C   0  0  0  0  0  0  0  0  0  0  0  0
  161.1130  205.1230  151.5240 C   0  0  0  0  0  3  0  0  0  0  0  0
  161.2500  201.7630  148.8100 C   0  0  0  0  0  2  0  0  0  0  0  0
  161.6630  206.8170  148.2650 C   0  0  0  0  0  3  0  0  0  0  0  0
  160.9760  202.0820  147.4460 O   0  0  0  0  0  0  0  0  0  0  0  0
  161.5200  207.4780  151.9090 C   0  0  0  0  0  3  0  0  0  0  0  0
  161.2580  205.3100  150.1410 C   0  0  0  0  0  0  0  0  0  0  0  0
  161.6300  205.9700  145.9990 C   0  0  0  0  0  3  0  0  0  0  0  0
  161.6650  207.6880  150.5360 C   0  0  0  0  0  0  0  0  0  0  0  0
  161.4830  204.9040  145.1060 C   0  0  0  0  0  0  0  0  0  0  0  0
  161.5300  205.7510  147.3760 C   0  0  0  0  0  0  0  0  0  0  0  0
  161.2530  203.6100  145.5870 C   0  0  0  0  0  3  0  0  0  0  0  0
  161.2380  206.2020  152.4030 C   0  0  0  0  0  0  0  0  0  0  0  0
  161.2780  204.4520  147.8650 C   0  0  0  0  0  0  0  0  0  0  0  0
  160.7210  202.8570  149.7360 C   0  0  0  0  0  2  0  0  0  0  0  0
  161.5710  205.1280  143.7400 O   0  0  0  0  0  1  0  0  0  0  0  0
  161.9370  208.9700  150.0690 O   0  0  0  0  0  1  0  0  0  0  0  0
  161.0990  205.9870  153.8700 C   0  0  0  0  0  2  0  0  0  0  0  0
  161.1310  207.3180  154.5970 C   0  0  0  0  0  2  0  0  0  0  0  0
  160.0630  207.3330  155.6690 C   0  0  0  0  0  2  0  0  0  0  0  0
  160.4000  208.3890  156.7040 C   0  0  0  0  0  2  0  0  0  0  0  0
  161.1560  210.6660  156.0230 C   0  0  0  0  0  3  0  0  0  0  0  0
  160.5390  211.7750  155.4760 C   0  0  0  0  0  3  0  0  0  0  0  0
  159.2340  211.4980  155.2680 N   0  0  0  0  0  0  0  0  0  0  0  0
  160.2170  209.7140  156.1380 N   0  0  0  0  0  0  0  0  0  0  0  0
  159.0640  210.2300  155.6870 C   0  0  0  0  0  3  0  0  0  0  0  0
  1 17  1  0  0  0  0
  1  9  1  0  0  0  0
  2  7  1  0  0  0  0
  2 16  1  0  0  0  0
  3  9  2  0  0  0  0
  3 11  1  0  0  0  0
  4 15  2  0  0  0  0
  5 17  1  0  0  0  0
  6  3  1  0  0  0  0
  7  5  1  0  0  0  0
  8 15  1  0  0  0  0
  9  4  1  0  0  0  0
 10 13  1  0  0  0  0
 11  8  2  0  0  0  0
 12 14  1  0  0  0  0
 12 10  2  0  0  0  0
 13 16  1  0  0  0  0
 13  6  2  0  0  0  0
 14  2  2  0  0  0  0
 15 20  1  0  0  0  0
 16  1  2  0  0  0  0
 18 12  1  0  0  0  0
 19 11  1  0  0  0  0
 20 21  1  0  0  0  0
 21 22  1  0  0  0  0
 22 23  1  0  0  0  0
 24 27  1  0  0  0  0
 25 24  2  0  0  0  0
 26 25  1  0  0  0  0
 26 28  2  0  0  0  0
 27 23  1  0  0  0  0
 28 27  1  0  0  0  0
M  END
>  <MODEL>
4

>  <REMARK>
 VINA RESULT:     -10.0      3.420      5.186
  Name = 
  5 active torsions:
  status: ('A' for Active; 'I' for Inactive)
    1  A    between atoms: C_3  and  C_4
    2  A    between atoms: C_3  and  C_23
    3  A    between atoms: C_4  and  N_22
    4  A    between atoms: C_11  and  C_21
    5  A    between atoms: C_11  and  C_23
                            x       y       z     vdW  Elec       q    Type
                         _______ _______ _______ _____ _____    ______ ____

>  <TORSDO>
F 5

$$$$
=
 OpenBabel11072414113D

 28 32  0  0  0  0  0  0  0  0999 V2000
  161.2180  205.0860  148.2670 C   0  0  0  0  0  0  0  0  0  0  0  0
  161.1220  203.7590  146.2260 C   0  0  0  0  0  0  0  0  0  0  0  0
  161.0030  203.9620  150.4330 C   0  0  0  0  0  0  0  0  0  0  0  0
  161.3020  206.3760  150.3440 C   0  0  0  0  0  3  0  0  0  0  0  0
  160.9050  206.1990  146.0450 C   0  0  0  0  0  2  0  0  0  0  0  0
  160.8960  202.7280  149.7810 C   0  0  0  0  0  3  0  0  0  0  0  0
  161.2060  204.9290  145.4670 O   0  0  0  0  0  0  0  0  0  0  0  0
  161.0820  205.2610  152.4810 C   0  0  0  0  0  3  0  0  0  0  0  0
  161.1760  205.1500  149.6750 C   0  0  0  0  0  0  0  0  0  0  0  0
  160.8680  201.4180  147.7470 C   0  0  0  0  0  3  0  0  0  0  0  0
  160.9580  204.0280  151.8360 C   0  0  0  0  0  0  0  0  0  0  0  0
  160.9310  201.3460  146.3520 C   0  0  0  0  0  0  0  0  0  0  0  0
  160.9460  202.6580  148.3900 C   0  0  0  0  0  0  0  0  0  0  0  0
  161.0560  202.5150  145.5920 C   0  0  0  0  0  3  0  0  0  0  0  0
  161.2600  206.4320  151.7400 C   0  0  0  0  0  0  0  0  0  0  0  0
  161.0930  203.8360  147.6290 C   0  0  0  0  0  0  0  0  0  0  0  0
  161.5170  206.3140  147.4390 C   0  0  0  0  0  2  0  0  0  0  0  0
  160.8640  200.1140  145.7200 O   0  0  0  0  0  1  0  0  0  0  0  0
  160.7890  202.8760  152.5980 O   0  0  0  0  0  1  0  0  0  0  0  0
  161.3790  207.7420  152.4370 C   0  0  0  0  0  2  0  0  0  0  0  0
  161.4170  208.8700  151.4240 C   0  0  0  0  0  2  0  0  0  0  0  0
  161.8430  210.1490  152.1110 C   0  0  0  0  0  2  0  0  0  0  0  0
  160.6240  210.8450  152.6830 C   0  0  0  0  0  2  0  0  0  0  0  0
  160.1000  211.9520  154.8560 C   0  0  0  0  0  3  0  0  0  0  0  0
  160.6630  211.9380  156.1180 C   0  0  0  0  0  3  0  0  0  0  0  0
  161.7250  211.1050  156.1190 N   0  0  0  0  0  0  0  0  0  0  0  0
  160.8250  211.1160  154.0960 N   0  0  0  0  0  0  0  0  0  0  0  0
  161.8030  210.6190  154.8660 C   0  0  0  0  0  3  0  0  0  0  0  0
  1  9  1  0  0  0  0
  2 16  1  0  0  0  0
  3 11  1  0  0  0  0
  4 15  2  0  0  0  0
  5 17  1  0  0  0  0
  6  3  1  0  0  0  0
  7  5  1  0  0  0  0
  7  2  1  0  0  0  0
  9  4  1  0  0  0  0
  9  3  2  0  0  0  0
 10 13  1  0  0  0  0
 11  8  2  0  0  0  0
 11 19  1  0  0  0  0
 12 10  2  0  0  0  0
 13  6  2  0  0  0  0
 14  2  2  0  0  0  0
 14 12  1  0  0  0  0
 15 20  1  0  0  0  0
 15  8  1  0  0  0  0
 16  1  2  0  0  0  0
 16 13  1  0  0  0  0
 17  1  1  0  0  0  0
 18 12  1  0  0  0  0
 21 22  1  0  0  0  0
 21 20  1  0  0  0  0
 22 23  1  0  0  0  0
 23 27  1  0  0  0  0
 24 25  2  0  0  0  0
 25 26  1  0  0  0  0
 27 24  1  0  0  0  0
 27 28  1  0  0  0  0
 28 26  2  0  0  0  0
M  END
>  <MODEL>
5

>  <REMARK>
 VINA RESULT:      -9.9      2.723      3.563
  Name = 
  5 active torsions:
  status: ('A' for Active; 'I' for Inactive)
    1  A    between atoms: C_3  and  C_4
    2  A    between atoms: C_3  and  C_23
    3  A    between atoms: C_4  and  N_22
    4  A    between atoms: C_11  and  C_21
    5  A    between atoms: C_11  and  C_23
                            x       y       z     vdW  Elec       q    Type
                         _______ _______ _______ _____ _____    ______ ____

>  <TORSDO>
F 5

$$$$
=
 OpenBabel11072414113D

 28 32  0  0  0  0  0  0  0  0999 V2000
  161.2600  205.2050  148.2650 C   0  0  0  0  0  0  0  0  0  0  0  0
  161.1450  203.8620  146.2350 C   0  0  0  0  0  0  0  0  0  0  0  0
  161.0380  204.1010  150.4410 C   0  0  0  0  0  0  0  0  0  0  0  0
  161.3620  206.5110  150.3310 C   0  0  0  0  0  3  0  0  0  0  0  0
  160.9530  206.3020  146.0340 C   0  0  0  0  0  2  0  0  0  0  0  0
  160.9170  202.8620  149.7990 C   0  0  0  0  0  3  0  0  0  0  0  0
  161.2400  205.0250  145.4660 O   0  0  0  0  0  0  0  0  0  0  0  0
  161.1360  205.4150  152.4770 C   0  0  0  0  0  3  0  0  0  0  0  0
  161.2210  205.2800  149.6730 C   0  0  0  0  0  0  0  0  0  0  0  0
  160.8700  201.5370  147.7760 C   0  0  0  0  0  3  0  0  0  0  0  0
  160.9970  204.1780  151.8430 C   0  0  0  0  0  0  0  0  0  0  0  0
  160.9290  201.4530  146.3810 C   0  0  0  0  0  0  0  0  0  0  0  0
  160.9630  202.7800  148.4080 C   0  0  0  0  0  0  0  0  0  0  0  0
  161.0650  202.6130  145.6120 C   0  0  0  0  0  3  0  0  0  0  0  0
  161.3240  206.5780  151.7270 C   0  0  0  0  0  0  0  0  0  0  0  0
  161.1210  203.9510  147.6370 C   0  0  0  0  0  0  0  0  0  0  0  0
  161.5690  206.4230  147.4270 C   0  0  0  0  0  2  0  0  0  0  0  0
  160.8480  200.2160  145.7590 O   0  0  0  0  0  1  0  0  0  0  0  0
  160.8180  203.0350  152.6150 O   0  0  0  0  0  1  0  0  0  0  0  0
  161.4580  207.8920  152.4130 C   0  0  0  0  0  2  0  0  0  0  0  0
  160.7920  207.8400  153.7750 C   0  0  0  0  0  2  0  0  0  0  0  0
  161.1800  209.0650  154.5730 C   0  0  0  0  0  2  0  0  0  0  0  0
  161.4310  210.2240  153.6300 C   0  0  0  0  0  2  0  0  0  0  0  0
  159.9060  211.7510  152.3780 C   0  0  0  0  0  3  0  0  0  0  0  0
  158.6690  212.3130  152.6280 C   0  0  0  0  0  3  0  0  0  0  0  0
  158.2260  211.8910  153.8310 N   0  0  0  0  0  0  0  0  0  0  0  0
  160.2050  210.9800  153.4350 N   0  0  0  0  0  0  0  0  0  0  0  0
  159.1890  211.0780  154.3050 C   0  0  0  0  0  3  0  0  0  0  0  0
  1  9  1  0  0  0  0
  2 16  1  0  0  0  0
  3 11  1  0  0  0  0
  4 15  2  0  0  0  0
  5 17  1  0  0  0  0
  6  3  1  0  0  0  0
  7  5  1  0  0  0  0
  7  2  1  0  0  0  0
  9  4  1  0  0  0  0
  9  3  2  0  0  0  0
 10 13  1  0  0  0  0
 11  8  2  0  0  0  0
 11 19  1  0  0  0  0
 12 10  2  0  0  0  0
 13  6  2  0  0  0  0
 14  2  2  0  0  0  0
 14 12  1  0  0  0  0
 15 20  1  0  0  0  0
 15  8  1  0  0  0  0
 16  1  2  0  0  0  0
 16 13  1  0  0  0  0
 17  1  1  0  0  0  0
 18 12  1  0  0  0  0
 20 21  1  0  0  0  0
 21 22  1  0  0  0  0
 23 22  1  0  0  0  0
 24 25  2  0  0  0  0
 24 27  1  0  0  0  0
 25 26  1  0  0  0  0
 26 28  2  0  0  0  0
 27 23  1  0  0  0  0
 27 28  1  0  0  0  0
M  END
>  <MODEL>
6

>  <REMARK>
 VINA RESULT:      -9.7      2.778      3.218
  Name = 
  5 active torsions:
  status: ('A' for Active; 'I' for Inactive)
    1  A    between atoms: C_3  and  C_4
    2  A    between atoms: C_3  and  C_23
    3  A    between atoms: C_4  and  N_22
    4  A    between atoms: C_11  and  C_21
    5  A    between atoms: C_11  and  C_23
                            x       y       z     vdW  Elec       q    Type
                         _______ _______ _______ _____ _____    ______ ____

>  <TORSDO>
F 5

$$$$
=
 OpenBabel11072414113D

 28 32  0  0  0  0  0  0  0  0999 V2000
  161.5750  205.9640  148.5510 C   0  0  0  0  0  0  0  0  0  0  0  0
  161.3100  203.6520  147.8280 C   0  0  0  0  0  0  0  0  0  0  0  0
  161.2360  206.5230  150.9120 C   0  0  0  0  0  0  0  0  0  0  0  0
  161.8230  208.2720  149.3230 C   0  0  0  0  0  3  0  0  0  0  0  0
  161.3870  205.4100  146.1150 C   0  0  0  0  0  2  0  0  0  0  0  0
  160.9790  205.1760  151.1930 C   0  0  0  0  0  3  0  0  0  0  0  0
  161.5310  204.0450  146.5060 O   0  0  0  0  0  0  0  0  0  0  0  0
  161.4810  208.8190  151.6560 C   0  0  0  0  0  3  0  0  0  0  0  0
  161.5470  206.9220  149.5850 C   0  0  0  0  0  0  0  0  0  0  0  0
  160.7830  202.8760  150.4700 C   0  0  0  0  0  3  0  0  0  0  0  0
  161.2060  207.4800  151.9410 C   0  0  0  0  0  0  0  0  0  0  0  0
  160.8310  201.9180  149.4530 C   0  0  0  0  0  0  0  0  0  0  0  0
  161.0140  204.2230  150.1760 C   0  0  0  0  0  0  0  0  0  0  0  0
  161.0930  202.3050  148.1330 C   0  0  0  0  0  3  0  0  0  0  0  0
  161.7950  209.2160  150.3540 C   0  0  0  0  0  0  0  0  0  0  0  0
  161.2980  204.6160  148.8510 C   0  0  0  0  0  0  0  0  0  0  0  0
  162.0150  206.3370  147.1540 C   0  0  0  0  0  2  0  0  0  0  0  0
  160.6140  200.5810  149.7510 O   0  0  0  0  0  1  0  0  0  0  0  0
  160.9040  207.1110  153.2480 O   0  0  0  0  0  1  0  0  0  0  0  0
  162.0730  210.6480  150.0600 C   0  0  0  0  0  2  0  0  0  0  0  0
  161.9560  210.9070  148.5700 C   0  0  0  0  0  2  0  0  0  0  0  0
  162.4310  212.3100  148.2630 C   0  0  0  0  0  2  0  0  0  0  0  0
  161.2720  213.1330  147.7370 C   0  0  0  0  0  2  0  0  0  0  0  0
  160.1720  212.5660  145.5710 C   0  0  0  0  0  3  0  0  0  0  0  0
  160.5550  212.6030  144.2440 C   0  0  0  0  0  3  0  0  0  0  0  0
  161.8150  213.0800  144.1600 N   0  0  0  0  0  0  0  0  0  0  0  0
  161.2070  213.0300  146.2890 N   0  0  0  0  0  0  0  0  0  0  0  0
  162.1910  213.3290  145.4290 C   0  0  0  0  0  3  0  0  0  0  0  0
  1 16  2  0  0  0  0
  1  9  1  0  0  0  0
  2 14  2  0  0  0  0
  2 16  1  0  0  0  0
  3  6  1  0  0  0  0
  3 11  1  0  0  0  0
  4  9  1  0  0  0  0
  4 15  2  0  0  0  0
  5  7  1  0  0  0  0
  5 17  1  0  0  0  0
  7  2  1  0  0  0  0
  8 11  2  0  0  0  0
  9  3  2  0  0  0  0
 11 19  1  0  0  0  0
 12 18  1  0  0  0  0
 12 10  2  0  0  0  0
 13 10  1  0  0  0  0
 13  6  2  0  0  0  0
 14 12  1  0  0  0  0
 15  8  1  0  0  0  0
 16 13  1  0  0  0  0
 17  1  1  0  0  0  0
 20 15  1  0  0  0  0
 21 20  1  0  0  0  0
 22 21  1  0  0  0  0
 23 22  1  0  0  0  0
 24 27  1  0  0  0  0
 25 24  2  0  0  0  0
 26 25  1  0  0  0  0
 26 28  2  0  0  0  0
 27 23  1  0  0  0  0
 28 27  1  0  0  0  0
M  END
>  <MODEL>
7

>  <REMARK>
 VINA RESULT:      -9.6      1.521      2.307
  Name = 
  5 active torsions:
  status: ('A' for Active; 'I' for Inactive)
    1  A    between atoms: C_3  and  C_4
    2  A    between atoms: C_3  and  C_23
    3  A    between atoms: C_4  and  N_22
    4  A    between atoms: C_11  and  C_21
    5  A    between atoms: C_11  and  C_23
                            x       y       z     vdW  Elec       q    Type
                         _______ _______ _______ _____ _____    ______ ____

>  <TORSDO>
F 5

$$$$
=
 OpenBabel11072414113D

 28 32  0  0  0  0  0  0  0  0999 V2000
  161.0870  204.7770  150.6460 C   0  0  0  0  0  0  0  0  0  0  0  0
  160.9870  202.8060  149.2170 C   0  0  0  0  0  0  0  0  0  0  0  0
  161.5210  206.9650  149.6350 C   0  0  0  0  0  0  0  0  0  0  0  0
  161.2040  206.7830  152.0410 C   0  0  0  0  0  3  0  0  0  0  0  0
  161.1750  202.4800  151.6440 C   0  0  0  0  0  2  0  0  0  0  0  0
  161.5670  206.3690  148.3680 C   0  0  0  0  0  3  0  0  0  0  0  0
  160.8230  202.0010  150.3460 O   0  0  0  0  0  0  0  0  0  0  0  0
  161.6390  208.9420  151.0360 C   0  0  0  0  0  3  0  0  0  0  0  0
  161.2690  206.1680  150.7820 C   0  0  0  0  0  0  0  0  0  0  0  0
  161.4000  204.4120  146.9570 C   0  0  0  0  0  3  0  0  0  0  0  0
  161.7040  208.3510  149.7720 C   0  0  0  0  0  0  0  0  0  0  0  0
  161.1990  203.0360  146.8130 C   0  0  0  0  0  0  0  0  0  0  0  0
  161.3800  204.9950  148.2270 C   0  0  0  0  0  0  0  0  0  0  0  0
  160.9940  202.2340  147.9420 C   0  0  0  0  0  3  0  0  0  0  0  0
  161.3840  208.1630  152.1680 C   0  0  0  0  0  0  0  0  0  0  0  0
  161.1530  204.1940  149.3660 C   0  0  0  0  0  0  0  0  0  0  0  0
  160.7030  203.9210  151.8310 C   0  0  0  0  0  2  0  0  0  0  0  0
  161.2080  202.4640  145.5500 O   0  0  0  0  0  1  0  0  0  0  0  0
  161.9520  209.1510  148.6600 O   0  0  0  0  0  1  0  0  0  0  0  0
  161.3290  208.8010  153.5120 C   0  0  0  0  0  2  0  0  0  0  0  0
  161.8310  210.2310  153.4310 C   0  0  0  0  0  2  0  0  0  0  0  0
  160.8020  211.1610  154.0370 C   0  0  0  0  0  2  0  0  0  0  0  0
  159.7180  210.3440  154.7120 C   0  0  0  0  0  2  0  0  0  0  0  0
  157.8660  211.3740  156.0270 C   0  0  0  0  0  3  0  0  0  0  0  0
  156.7660  212.1500  155.7190 C   0  0  0  0  0  3  0  0  0  0  0  0
  156.7500  212.3890  154.3910 N   0  0  0  0  0  0  0  0  0  0  0  0
  158.5200  211.1490  154.8770 N   0  0  0  0  0  0  0  0  0  0  0  0
  157.8350  211.7600  153.8990 C   0  0  0  0  0  3  0  0  0  0  0  0
  1  9  1  0  0  0  0
  1 17  1  0  0  0  0
  2 16  1  0  0  0  0
  2  7  1  0  0  0  0
  3 11  2  0  0  0  0
  3  9  1  0  0  0  0
  4 15  1  0  0  0  0
  5 17  1  0  0  0  0
  6  3  1  0  0  0  0
  7  5  1  0  0  0  0
  8 15  2  0  0  0  0
  9  4  2  0  0  0  0
 10 13  1  0  0  0  0
 11  8  1  0  0  0  0
 12 10  2  0  0  0  0
 12 14  1  0  0  0  0
 13  6  2  0  0  0  0
 13 16  1  0  0  0  0
 14  2  2  0  0  0  0
 15 20  1  0  0  0  0
 16  1  2  0  0  0  0
 18 12  1  0  0  0  0
 19 11  1  0  0  0  0
 21 20  1  0  0  0  0
 21 22  1  0  0  0  0
 22 23  1  0  0  0  0
 23 27  1  0  0  0  0
 25 24  2  0  0  0  0
 26 25  1  0  0  0  0
 27 24  1  0  0  0  0
 28 26  2  0  0  0  0
 28 27  1  0  0  0  0
M  END
>  <MODEL>
8

>  <REMARK>
 VINA RESULT:      -9.6      3.421      5.042
  Name = 
  5 active torsions:
  status: ('A' for Active; 'I' for Inactive)
    1  A    between atoms: C_3  and  C_4
    2  A    between atoms: C_3  and  C_23
    3  A    between atoms: C_4  and  N_22
    4  A    between atoms: C_11  and  C_21
    5  A    between atoms: C_11  and  C_23
                            x       y       z     vdW  Elec       q    Type
                         _______ _______ _______ _____ _____    ______ ____

>  <TORSDO>
F 5

$$$$
=
 OpenBabel11072414113D

 28 32  0  0  0  0  0  0  0  0999 V2000
  161.0860  204.7990  150.7010 C   0  0  0  0  0  0  0  0  0  0  0  0
  160.9840  202.8070  149.3010 C   0  0  0  0  0  0  0  0  0  0  0  0
  161.5270  206.9710  149.6570 C   0  0  0  0  0  0  0  0  0  0  0  0
  161.2060  206.8260  152.0660 C   0  0  0  0  0  3  0  0  0  0  0  0
  161.1670  202.5170  151.7330 C   0  0  0  0  0  2  0  0  0  0  0  0
  161.5740  206.3560  148.4000 C   0  0  0  0  0  3  0  0  0  0  0  0
  160.8160  202.0190  150.4420 O   0  0  0  0  0  0  0  0  0  0  0  0
  161.6470  208.9680  151.0290 C   0  0  0  0  0  3  0  0  0  0  0  0
  161.2710  206.1920  150.8160 C   0  0  0  0  0  0  0  0  0  0  0  0
  161.4050  204.3780  147.0180 C   0  0  0  0  0  3  0  0  0  0  0  0
  161.7140  208.3580  149.7740 C   0  0  0  0  0  0  0  0  0  0  0  0
  161.2010  203.0000  146.8950 C   0  0  0  0  0  0  0  0  0  0  0  0
  161.3840  204.9800  148.2790 C   0  0  0  0  0  0  0  0  0  0  0  0
  160.9920  202.2150  148.0340 C   0  0  0  0  0  3  0  0  0  0  0  0
  161.3890  208.2070  152.1720 C   0  0  0  0  0  0  0  0  0  0  0  0
  161.1540  204.1960  149.4290 C   0  0  0  0  0  0  0  0  0  0  0  0
  160.6990  203.9620  151.8980 C   0  0  0  0  0  2  0  0  0  0  0  0
  161.2100  202.4090  145.6400 O   0  0  0  0  0  1  0  0  0  0  0  0
  161.9650  209.1400  148.6510 O   0  0  0  0  0  1  0  0  0  0  0  0
  161.3330  208.8650  153.5060 C   0  0  0  0  0  2  0  0  0  0  0  0
  161.8730  210.2800  153.4120 C   0  0  0  0  0  2  0  0  0  0  0  0
  160.8430  211.2490  153.9490 C   0  0  0  0  0  2  0  0  0  0  0  0
  159.5640  211.1240  153.1450 C   0  0  0  0  0  2  0  0  0  0  0  0
  158.2850  213.2530  153.3640 C   0  0  0  0  0  3  0  0  0  0  0  0
  158.1060  214.3690  152.5700 C   0  0  0  0  0  3  0  0  0  0  0  0
  158.8260  214.2260  151.4370 N   0  0  0  0  0  0  0  0  0  0  0  0
  159.1230  212.4370  152.7070 N   0  0  0  0  0  0  0  0  0  0  0  0
  159.4350  213.0310  151.5460 C   0  0  0  0  0  3  0  0  0  0  0  0
  1  9  1  0  0  0  0
  1 17  1  0  0  0  0
  2 16  1  0  0  0  0
  2  7  1  0  0  0  0
  3 11  2  0  0  0  0
  3  9  1  0  0  0  0
  4 15  1  0  0  0  0
  5 17  1  0  0  0  0
  6  3  1  0  0  0  0
  7  5  1  0  0  0  0
  8 15  2  0  0  0  0
  9  4  2  0  0  0  0
 10 13  1  0  0  0  0
 11  8  1  0  0  0  0
 12 10  2  0  0  0  0
 12 14  1  0  0  0  0
 13  6  2  0  0  0  0
 13 16  1  0  0  0  0
 14  2  2  0  0  0  0
 15 20  1  0  0  0  0
 16  1  2  0  0  0  0
 18 12  1  0  0  0  0
 19 11  1  0  0  0  0
 21 20  1  0  0  0  0
 21 22  1  0  0  0  0
 23 22  1  0  0  0  0
 25 24  2  0  0  0  0
 26 28  2  0  0  0  0
 26 25  1  0  0  0  0
 27 23  1  0  0  0  0
 27 24  1  0  0  0  0
 28 27  1  0  0  0  0
M  END
>  <MODEL>
9

>  <REMARK>
 VINA RESULT:      -9.4      2.819      4.144
  Name = 
  5 active torsions:
  status: ('A' for Active; 'I' for Inactive)
    1  A    between atoms: C_3  and  C_4
    2  A    between atoms: C_3  and  C_23
    3  A    between atoms: C_4  and  N_22
    4  A    between atoms: C_11  and  C_21
    5  A    between atoms: C_11  and  C_23
                            x       y       z     vdW  Elec       q    Type
                         _______ _______ _______ _____ _____    ______ ____

>  <TORSDO>
F 5

$$$$
