=
 OpenBabel11072413483D

 29 32  0  0  1  0  0  0  0  0999 V2000
  160.9550  206.4610  151.0820 C   0  0  0  0  0  3  0  0  0  0  0  0
  160.8290  205.7550  148.6730 C   0  0  1  0  0  3  0  0  0  0  0  0
  161.5150  207.4790  147.2040 O   0  0  0  0  0  0  0  0  0  0  0  0
  161.6480  209.9880  151.3100 N   0  0  0  0  0  0  0  0  0  0  0  0
  161.4950  207.0760  148.3570 C   0  0  0  0  0  0  0  0  0  0  0  0
  161.3650  208.7870  151.7200 C   0  0  0  0  0  0  0  0  0  0  0  0
  161.2960  204.7700  147.8000 O   0  0  0  0  0  1  0  0  0  0  0  0
  161.0870  205.3140  150.1210 C   0  0  2  0  0  3  0  0  0  0  0  0
  162.0360  210.2630  149.9570 C   0  0  0  0  0  3  0  0  0  0  0  0
  160.9450  208.5640  153.0710 N   0  0  0  0  0  2  0  0  0  0  0  0
  162.2330  209.3010  149.1030 N   0  0  0  0  0  0  0  0  0  0  0  0
  162.1570  207.8790  149.4550 C   0  0  1  0  0  3  0  0  0  0  0  0
  161.4590  207.6590  150.7780 C   0  0  0  0  0  0  0  0  0  0  0  0
  159.5210  211.5730  156.2840 O   0  0  0  0  0  1  0  0  0  0  0  0
  162.0390  208.9970  157.0480 C   0  0  0  0  0  1  0  0  0  0  0  0
  162.0830  211.4490  157.2590 C   0  0  0  0  0  1  0  0  0  0  0  0
  159.6780  209.5790  154.9540 C   0  0  2  0  0  3  0  0  0  0  0  0
  160.8430  209.6290  154.0570 C   0  0  1  0  0  0  0  0  0  0  0  0
  162.3270  210.4060  154.7450 S   0  0  0  0  0  0  0  0  0  0  0  0
  159.7510  210.4810  153.8580 O   0  0  0  0  0  0  0  0  0  0  0  0
  160.0620  210.2810  156.2560 C   0  0  1  0  0  3  0  0  0  0  0  0
  161.5910  210.2950  156.4010 C   0  0  0  0  0  0  0  0  0  0  0  0
  160.1300  204.1880  150.5090 C   0  0  0  0  0  2  0  0  0  0  0  0
  162.3040  203.2310  151.3270 C   0  0  0  0  0  1  0  0  0  0  0  0
  160.1890  202.5800  152.3760 C   0  0  0  0  0  1  0  0  0  0  0  0
  160.8340  202.9390  151.0500 C   0  0  0  0  0  0  0  0  0  0  0  0
  160.6720  201.7840  150.0930 C   0  0  0  0  0  0  0  0  0  0  0  0
  159.7020  201.8380  149.0970 O   0  0  0  0  0  0  0  0  0  0  0  0
  161.4500  200.7930  150.1380 O   0  0  0  0  0  1  0  0  0  0  0  0
  2  7  1  6  0  0  0
  2  8  1  0  0  0  0
  3  5  2  0  0  0  0
  4  6  2  0  0  0  0
  5  2  1  0  0  0  0
  6 10  1  0  0  0  0
  8 23  1  1  0  0  0
  8  1  1  0  0  0  0
  9  4  1  0  0  0  0
 11 12  1  0  0  0  0
 11  9  2  0  0  0  0
 12  5  1  6  0  0  0
 12 13  1  0  0  0  0
 13  1  2  0  0  0  0
 13  6  1  0  0  0  0
 17 20  1  6  0  0  0
 17 21  1  0  0  0  0
 18 10  1  6  0  0  0
 18 19  1  0  0  0  0
 18 17  1  0  0  0  0
 19 22  1  0  0  0  0
 20 18  1  0  0  0  0
 21 14  1  6  0  0  0
 21 22  1  0  0  0  0
 22 15  1  0  0  0  0
 22 16  1  0  0  0  0
 23 26  1  0  0  0  0
 26 24  1  0  0  0  0
 26 25  1  0  0  0  0
 27 29  1  0  0  0  0
 27 26  1  0  0  0  0
 28 27  2  0  0  0  0
M  END
>  <MODEL>
1

>  <REMARK>
 VINA RESULT:      -6.7      0.000      0.000
  Name = 
  4 active torsions:
  status: ('A' for Active; 'I' for Inactive)
    1  A    between atoms: C_2  and  C_28
    2  A    between atoms: C_15  and  N_20
    3  A    between atoms: C_17  and  C_18
    4  A    between atoms: C_18  and  C_28
                            x       y       z     vdW  Elec       q    Type
                         _______ _______ _______ _____ _____    ______ ____

>  <TORSDO>
F 4

$$$$
=
 OpenBabel11072413483D

 29 32  0  0  1  0  0  0  0  0999 V2000
  160.8980  205.3730  150.6050 C   0  0  0  0  0  3  0  0  0  0  0  0
  160.9500  205.2060  148.0990 C   0  0  1  0  0  3  0  0  0  0  0  0
  161.7570  207.1890  147.0910 O   0  0  0  0  0  0  0  0  0  0  0  0
  161.5980  208.7500  151.6420 N   0  0  0  0  0  0  0  0  0  0  0  0
  161.6470  206.5470  148.1260 C   0  0  0  0  0  0  0  0  0  0  0  0
  161.2750  207.4970  151.7610 C   0  0  0  0  0  0  0  0  0  0  0  0
  161.4740  204.4210  147.0690 O   0  0  0  0  0  1  0  0  0  0  0  0
  161.0940  204.4570  149.4320 C   0  0  2  0  0  3  0  0  0  0  0  0
  162.0880  209.3010  150.4120 C   0  0  0  0  0  3  0  0  0  0  0  0
  160.7520  206.9980  152.9970 N   0  0  0  0  0  2  0  0  0  0  0  0
  162.3420  208.5410  149.3870 N   0  0  0  0  0  0  0  0  0  0  0  0
  162.2300  207.0790  149.4160 C   0  0  1  0  0  3  0  0  0  0  0  0
  161.4320  206.5960  150.6060 C   0  0  0  0  0  0  0  0  0  0  0  0
  160.8430  208.7910  157.2610 O   0  0  0  0  0  1  0  0  0  0  0  0
  162.5470  210.4450  154.4460 C   0  0  0  0  0  1  0  0  0  0  0  0
  160.8320  211.2400  156.0230 C   0  0  0  0  0  1  0  0  0  0  0  0
  161.4820  207.5430  155.3100 C   0  0  2  0  0  3  0  0  0  0  0  0
  160.5840  207.8270  154.1810 C   0  0  1  0  0  0  0  0  0  0  0  0
  160.0180  209.5420  154.0430 S   0  0  0  0  0  0  0  0  0  0  0  0
  160.1230  207.1270  155.3000 O   0  0  0  0  0  0  0  0  0  0  0  0
  161.6440  208.8340  156.1120 C   0  0  1  0  0  3  0  0  0  0  0  0
  161.3060  210.0390  155.2210 C   0  0  0  0  0  0  0  0  0  0  0  0
  160.1020  203.2970  149.4960 C   0  0  0  0  0  2  0  0  0  0  0  0
  161.9720  202.0780  150.6480 C   0  0  0  0  0  1  0  0  0  0  0  0
  159.7580  201.0520  150.4530 C   0  0  0  0  0  1  0  0  0  0  0  0
  160.7610  201.9340  149.7350 C   0  0  0  0  0  0  0  0  0  0  0  0
  161.1340  201.2900  148.4220 C   0  0  0  0  0  0  0  0  0  0  0  0
  162.0230  200.2200  148.4010 O   0  0  0  0  0  1  0  0  0  0  0  0
  160.5990  201.6640  147.3440 O   0  0  0  0  0  0  0  0  0  0  0  0
  1 13  2  0  0  0  0
  2  7  1  6  0  0  0
  2  5  1  0  0  0  0
  2  8  1  0  0  0  0
  3  5  2  0  0  0  0
  4  6  2  0  0  0  0
  6 10  1  0  0  0  0
  8 23  1  6  0  0  0
  8  1  1  0  0  0  0
  9  4  1  0  0  0  0
 11 12  1  0  0  0  0
 11  9  2  0  0  0  0
 12  5  1  6  0  0  0
 12 13  1  0  0  0  0
 13  6  1  0  0  0  0
 15 22  1  0  0  0  0
 17 20  1  1  0  0  0
 17 21  1  0  0  0  0
 18 10  1  6  0  0  0
 18 20  1  0  0  0  0
 18 17  1  0  0  0  0
 19 18  1  0  0  0  0
 19 22  1  0  0  0  0
 21 14  1  1  0  0  0
 22 16  1  0  0  0  0
 22 21  1  0  0  0  0
 23 26  1  0  0  0  0
 26 25  1  0  0  0  0
 26 24  1  0  0  0  0
 27 26  1  0  0  0  0
 28 27  1  0  0  0  0
 29 27  2  0  0  0  0
M  END
>  <MODEL>
2

>  <REMARK>
 VINA RESULT:      -6.3      1.606      1.924
  Name = 
  4 active torsions:
  status: ('A' for Active; 'I' for Inactive)
    1  A    between atoms: C_2  and  C_28
    2  A    between atoms: C_15  and  N_20
    3  A    between atoms: C_17  and  C_18
    4  A    between atoms: C_18  and  C_28
                            x       y       z     vdW  Elec       q    Type
                         _______ _______ _______ _____ _____    ______ ____

>  <TORSDO>
F 4

$$$$
=
 OpenBabel11072413483D

 29 32  0  0  1  0  0  0  0  0999 V2000
  160.9470  206.7000  151.4880 C   0  0  0  0  0  3  0  0  0  0  0  0
  160.8490  206.3640  149.0000 C   0  0  1  0  0  3  0  0  0  0  0  0
  161.4850  208.3100  147.8130 O   0  0  0  0  0  0  0  0  0  0  0  0
  161.5330  210.1710  152.2530 N   0  0  0  0  0  0  0  0  0  0  0  0
  161.4740  207.7370  148.8920 C   0  0  0  0  0  0  0  0  0  0  0  0
  161.2850  208.9140  152.4740 C   0  0  0  0  0  0  0  0  0  0  0  0
  161.3470  205.5370  147.9910 O   0  0  0  0  0  1  0  0  0  0  0  0
  161.1160  205.7160  150.3660 C   0  0  2  0  0  3  0  0  0  0  0  0
  161.9140  210.6590  150.9590 C   0  0  0  0  0  3  0  0  0  0  0  0
  160.8690  208.4770  153.7730 N   0  0  0  0  0  2  0  0  0  0  0  0
  162.1420  209.8440  149.9710 N   0  0  0  0  0  0  0  0  0  0  0  0
  162.1100  208.3830  150.1030 C   0  0  1  0  0  3  0  0  0  0  0  0
  161.4150  207.9460  151.3730 C   0  0  0  0  0  0  0  0  0  0  0  0
  161.5900  211.4300  157.2600 O   0  0  0  0  0  1  0  0  0  0  0  0
  159.6890  212.4220  154.2670 C   0  0  0  0  0  1  0  0  0  0  0  0
  159.1120  212.4440  156.6590 C   0  0  0  0  0  1  0  0  0  0  0  0
  161.8770  210.2600  155.1820 C   0  0  2  0  0  3  0  0  0  0  0  0
  160.7330  209.3770  154.9080 C   0  0  1  0  0  0  0  0  0  0  0  0
  159.1120  210.0210  155.3960 S   0  0  0  0  0  0  0  0  0  0  0  0
  161.6140  209.0990  155.9590 O   0  0  0  0  0  0  0  0  0  0  0  0
  161.3430  211.5080  155.8840 C   0  0  1  0  0  3  0  0  0  0  0  0
  159.8470  211.6710  155.5770 C   0  0  0  0  0  0  0  0  0  0  0  0
  160.1930  204.5170  150.5730 C   0  0  0  0  0  2  0  0  0  0  0  0
  162.3600  203.5830  151.4350 C   0  0  0  0  0  1  0  0  0  0  0  0
  160.2240  202.7940  152.3350 C   0  0  0  0  0  1  0  0  0  0  0  0
  160.9170  203.2600  151.0690 C   0  0  0  0  0  0  0  0  0  0  0  0
  160.8420  202.1650  150.0340 C   0  0  0  0  0  0  0  0  0  0  0  0
  160.5560  202.4790  148.7090 O   0  0  0  0  0  0  0  0  0  0  0  0
  161.1030  200.9700  150.3380 O   0  0  0  0  0  1  0  0  0  0  0  0
  2  7  1  6  0  0  0
  2  8  1  0  0  0  0
  3  5  2  0  0  0  0
  4  6  2  0  0  0  0
  5  2  1  0  0  0  0
  6 10  1  0  0  0  0
  8 23  1  1  0  0  0
  8  1  1  0  0  0  0
  9  4  1  0  0  0  0
 11 12  1  0  0  0  0
 11  9  2  0  0  0  0
 12  5  1  6  0  0  0
 12 13  1  0  0  0  0
 13  1  2  0  0  0  0
 13  6  1  0  0  0  0
 15 22  1  0  0  0  0
 17 21  1  0  0  0  0
 17 20  1  1  0  0  0
 18 10  1  6  0  0  0
 18 17  1  0  0  0  0
 18 19  1  0  0  0  0
 18 20  1  0  0  0  0
 19 22  1  0  0  0  0
 21 14  1  1  0  0  0
 22 21  1  0  0  0  0
 22 16  1  0  0  0  0
 23 26  1  0  0  0  0
 26 24  1  0  0  0  0
 26 25  1  0  0  0  0
 27 29  1  0  0  0  0
 27 26  1  0  0  0  0
 28 27  2  0  0  0  0
M  END
>  <MODEL>
3

>  <REMARK>
 VINA RESULT:      -6.2      1.410      1.732
  Name = 
  4 active torsions:
  status: ('A' for Active; 'I' for Inactive)
    1  A    between atoms: C_2  and  C_28
    2  A    between atoms: C_15  and  N_20
    3  A    between atoms: C_17  and  C_18
    4  A    between atoms: C_18  and  C_28
                            x       y       z     vdW  Elec       q    Type
                         _______ _______ _______ _____ _____    ______ ____

>  <TORSDO>
F 4

$$$$
=
 OpenBabel11072413483D

 29 32  0  0  1  0  0  0  0  0999 V2000
  161.4510  204.5610  148.5710 C   0  0  0  0  0  3  0  0  0  0  0  0
  161.5720  202.2050  147.7030 C   0  0  1  0  0  3  0  0  0  0  0  0
  161.1190  200.6110  149.3920 O   0  0  0  0  0  0  0  0  0  0  0  0
  161.1320  204.5510  152.1580 N   0  0  0  0  0  0  0  0  0  0  0  0
  161.0610  201.7860  149.0640 C   0  0  0  0  0  0  0  0  0  0  0  0
  161.2730  205.0420  150.9630 C   0  0  0  0  0  0  0  0  0  0  0  0
  161.0280  201.3770  146.7190 O   0  0  0  0  0  1  0  0  0  0  0  0
  161.2250  203.6670  147.3850 C   0  0  2  0  0  3  0  0  0  0  0  0
  160.8170  203.1700  152.3850 C   0  0  0  0  0  3  0  0  0  0  0  0
  161.6270  206.4190  150.7840 N   0  0  0  0  0  2  0  0  0  0  0  0
  160.5440  202.3690  151.3970 N   0  0  0  0  0  0  0  0  0  0  0  0
  160.4560  202.8090  150.0000 C   0  0  1  0  0  3  0  0  0  0  0  0
  161.0870  204.1670  149.7940 C   0  0  0  0  0  0  0  0  0  0  0  0
  161.6040  210.0690  153.6250 O   0  0  0  0  0  1  0  0  0  0  0  0
  159.8420  206.9530  154.4900 C   0  0  0  0  0  1  0  0  0  0  0  0
  161.5810  208.2360  155.6680 C   0  0  0  0  0  1  0  0  0  0  0  0
  160.9360  208.5230  151.9130 C   0  0  2  0  0  3  0  0  0  0  0  0
  161.8130  207.3420  151.8930 C   0  0  1  0  0  0  0  0  0  0  0  0
  162.3680  206.7520  153.5120 S   0  0  0  0  0  0  0  0  0  0  0  0
  162.2970  208.5970  151.5080 O   0  0  0  0  0  0  0  0  0  0  0  0
  160.7830  208.9640  153.3680 C   0  0  1  0  0  3  0  0  0  0  0  0
  161.0990  207.7840  154.2990 C   0  0  0  0  0  0  0  0  0  0  0  0
  162.0440  204.1570  146.1920 C   0  0  0  0  0  2  0  0  0  0  0  0
  162.1220  205.4530  144.0420 C   0  0  0  0  0  1  0  0  0  0  0  0
  160.2410  203.9620  144.5240 C   0  0  0  0  0  1  0  0  0  0  0  0
  161.2220  204.9310  145.1550 C   0  0  0  0  0  0  0  0  0  0  0  0
  160.4560  206.0500  145.8160 C   0  0  0  0  0  0  0  0  0  0  0  0
  161.1240  206.9730  146.6140 O   0  0  0  0  0  1  0  0  0  0  0  0
  159.2240  206.2030  145.6010 O   0  0  0  0  0  0  0  0  0  0  0  0
  1 13  2  0  0  0  0
  2  7  1  6  0  0  0
  2  5  1  0  0  0  0
  4  9  1  0  0  0  0
  5  3  2  0  0  0  0
  6  4  2  0  0  0  0
  8 23  1  6  0  0  0
  8  2  1  0  0  0  0
  8  1  1  0  0  0  0
 10  6  1  0  0  0  0
 11  9  2  0  0  0  0
 12  5  1  6  0  0  0
 12 11  1  0  0  0  0
 13 12  1  0  0  0  0
 13  6  1  0  0  0  0
 17 20  1  6  0  0  0
 17 21  1  0  0  0  0
 18 10  1  6  0  0  0
 18 17  1  0  0  0  0
 18 19  1  0  0  0  0
 19 22  1  0  0  0  0
 20 18  1  0  0  0  0
 21 14  1  1  0  0  0
 21 22  1  0  0  0  0
 22 15  1  0  0  0  0
 22 16  1  0  0  0  0
 24 26  1  0  0  0  0
 25 26  1  0  0  0  0
 26 27  1  0  0  0  0
 26 23  1  0  0  0  0
 27 28  1  0  0  0  0
 29 27  2  0  0  0  0
M  END
>  <MODEL>
4

>  <REMARK>
 VINA RESULT:      -5.9      2.825      5.137
  Name = 
  4 active torsions:
  status: ('A' for Active; 'I' for Inactive)
    1  A    between atoms: C_2  and  C_28
    2  A    between atoms: C_15  and  N_20
    3  A    between atoms: C_17  and  C_18
    4  A    between atoms: C_18  and  C_28
                            x       y       z     vdW  Elec       q    Type
                         _______ _______ _______ _____ _____    ______ ____

>  <TORSDO>
F 4

$$$$
=
 OpenBabel11072413483D

 29 32  0  0  1  0  0  0  0  0999 V2000
  161.4790  206.6780  148.0640 C   0  0  0  0  0  3  0  0  0  0  0  0
  161.6800  204.3030  148.8590 C   0  0  1  0  0  3  0  0  0  0  0  0
  161.4870  204.1330  151.2110 O   0  0  0  0  0  0  0  0  0  0  0  0
  161.4820  208.9350  150.8710 N   0  0  0  0  0  0  0  0  0  0  0  0
  161.3220  204.8380  150.2270 C   0  0  0  0  0  0  0  0  0  0  0  0
  161.4830  208.5620  149.6260 C   0  0  0  0  0  0  0  0  0  0  0  0
  161.1080  203.0420  148.6800 O   0  0  0  0  0  1  0  0  0  0  0  0
  161.2100  205.2380  147.7350 C   0  0  2  0  0  3  0  0  0  0  0  0
  161.2820  208.0080  151.9470 C   0  0  0  0  0  3  0  0  0  0  0  0
  161.7260  209.5160  148.5860 N   0  0  0  0  0  2  0  0  0  0  0  0
  160.9760  206.7640  151.7180 N   0  0  0  0  0  0  0  0  0  0  0  0
  160.7350  206.2240  150.3750 C   0  0  1  0  0  3  0  0  0  0  0  0
  161.2530  207.1460  149.2940 C   0  0  0  0  0  0  0  0  0  0  0  0
  162.8670  213.9910  148.3180 O   0  0  0  0  0  1  0  0  0  0  0  0
  159.3510  212.9160  148.5290 C   0  0  0  0  0  1  0  0  0  0  0  0
  160.6860  214.4440  149.9210 C   0  0  0  0  0  1  0  0  0  0  0  0
  162.2220  211.7700  147.6650 C   0  0  2  0  0  3  0  0  0  0  0  0
  161.9470  210.9310  148.8410 C   0  0  1  0  0  0  0  0  0  0  0  0
  161.1320  211.7650  150.2260 S   0  0  0  0  0  0  0  0  0  0  0  0
  163.2480  211.3590  148.5590 O   0  0  0  0  0  0  0  0  0  0  0  0
  161.7640  213.1920  147.9910 C   0  0  1  0  0  3  0  0  0  0  0  0
  160.7280  213.1500  149.1250 C   0  0  0  0  0  0  0  0  0  0  0  0
  161.8850  204.8630  146.4170 C   0  0  0  0  0  2  0  0  0  0  0  0
  159.8130  205.9030  145.4510 C   0  0  0  0  0  1  0  0  0  0  0  0
  161.7430  205.4270  144.0220 C   0  0  0  0  0  1  0  0  0  0  0  0
  160.9460  204.9150  145.2060 C   0  0  0  0  0  0  0  0  0  0  0  0
  160.4180  203.5380  144.8870 C   0  0  0  0  0  0  0  0  0  0  0  0
  160.9870  202.4190  145.4870 O   0  0  0  0  0  1  0  0  0  0  0  0
  159.4190  203.3880  144.1340 O   0  0  0  0  0  0  0  0  0  0  0  0
  1 13  2  0  0  0  0
  2  7  1  6  0  0  0
  2  5  1  0  0  0  0
  4  9  1  0  0  0  0
  5 12  1  0  0  0  0
  5  3  2  0  0  0  0
  6  4  2  0  0  0  0
  8 23  1  6  0  0  0
  8  1  1  0  0  0  0
  8  2  1  0  0  0  0
 10  6  1  0  0  0  0
 11  9  2  0  0  0  0
 12 13  1  6  0  0  0
 12 11  1  0  0  0  0
 13  6  1  0  0  0  0
 15 22  1  0  0  0  0
 17 21  1  0  0  0  0
 17 20  1  1  0  0  0
 17 18  1  0  0  0  0
 18 10  1  6  0  0  0
 18 19  1  0  0  0  0
 20 18  1  0  0  0  0
 21 14  1  1  0  0  0
 21 22  1  0  0  0  0
 22 16  1  0  0  0  0
 22 19  1  0  0  0  0
 25 26  1  0  0  0  0
 26 24  1  0  0  0  0
 26 23  1  0  0  0  0
 27 26  1  0  0  0  0
 27 28  1  0  0  0  0
 29 27  2  0  0  0  0
M  END
>  <MODEL>
5

>  <REMARK>
 VINA RESULT:      -5.9      3.515      5.686
  Name = 
  4 active torsions:
  status: ('A' for Active; 'I' for Inactive)
    1  A    between atoms: C_2  and  C_28
    2  A    between atoms: C_15  and  N_20
    3  A    between atoms: C_17  and  C_18
    4  A    between atoms: C_18  and  C_28
                            x       y       z     vdW  Elec       q    Type
                         _______ _______ _______ _____ _____    ______ ____

>  <TORSDO>
F 4

$$$$
=
 OpenBabel11072413483D

 29 32  0  0  1  0  0  0  0  0999 V2000
  161.3160  210.1470  152.0590 C   0  0  0  0  0  3  0  0  0  0  0  0
  160.8920  207.8410  152.9630 C   0  0  1  0  0  3  0  0  0  0  0  0
  161.3730  206.1580  151.3700 O   0  0  0  0  0  0  0  0  0  0  0  0
  162.0080  209.9910  148.5270 N   0  0  0  0  0  0  0  0  0  0  0  0
  161.5020  207.3340  151.6750 C   0  0  0  0  0  0  0  0  0  0  0  0
  161.7870  210.5320  149.6890 C   0  0  0  0  0  0  0  0  0  0  0  0
  161.2510  207.0010  154.0190 O   0  0  0  0  0  1  0  0  0  0  0  0
  161.3340  209.2760  153.2830 C   0  0  2  0  0  3  0  0  0  0  0  0
  162.2180  208.5820  148.3670 C   0  0  0  0  0  3  0  0  0  0  0  0
  161.5440  211.9390  149.7970 N   0  0  0  0  0  2  0  0  0  0  0  0
  162.3120  207.7930  149.3980 N   0  0  0  0  0  0  0  0  0  0  0  0
  162.2920  208.2680  150.7860 C   0  0  1  0  0  3  0  0  0  0  0  0
  161.7690  209.6830  150.8910 C   0  0  0  0  0  0  0  0  0  0  0  0
  162.6310  214.2990  145.9690 O   0  0  0  0  0  1  0  0  0  0  0  0
  159.8170  211.9240  146.0260 C   0  0  0  0  0  1  0  0  0  0  0  0
  159.9370  214.3130  145.4450 C   0  0  0  0  0  1  0  0  0  0  0  0
  162.5440  212.5390  147.6020 C   0  0  2  0  0  3  0  0  0  0  0  0
  161.5600  212.8380  148.6530 C   0  0  1  0  0  0  0  0  0  0  0  0
  160.0480  213.6650  148.0970 S   0  0  0  0  0  0  0  0  0  0  0  0
  162.7350  213.5890  148.5410 O   0  0  0  0  0  0  0  0  0  0  0  0
  161.9990  213.0890  146.2840 C   0  0  1  0  0  3  0  0  0  0  0  0
  160.4740  213.2450  146.3840 C   0  0  0  0  0  0  0  0  0  0  0  0
  160.4420  209.8750  154.3690 C   0  0  0  0  0  2  0  0  0  0  0  0
  162.6090  210.6770  155.3540 C   0  0  0  0  0  1  0  0  0  0  0  0
  160.4720  211.3780  156.3220 C   0  0  0  0  0  1  0  0  0  0  0  0
  161.1900  210.2160  155.6620 C   0  0  0  0  0  0  0  0  0  0  0  0
  161.1860  209.0350  156.6020 C   0  0  0  0  0  0  0  0  0  0  0  0
  159.9890  208.4010  156.9150 O   0  0  0  0  0  0  0  0  0  0  0  0
  162.2650  208.5690  157.0580 O   0  0  0  0  0  1  0  0  0  0  0  0
  1  8  1  0  0  0  0
  2  8  1  0  0  0  0
  2  7  1  1  0  0  0
  3  5  2  0  0  0  0
  4  6  2  0  0  0  0
  5  2  1  0  0  0  0
  6 10  1  0  0  0  0
  6 13  1  0  0  0  0
  8 23  1  1  0  0  0
  9  4  1  0  0  0  0
  9 11  2  0  0  0  0
 12 11  1  6  0  0  0
 12 13  1  0  0  0  0
 12  5  1  0  0  0  0
 13  1  2  0  0  0  0
 15 22  1  0  0  0  0
 16 22  1  0  0  0  0
 17 20  1  1  0  0  0
 17 18  1  0  0  0  0
 18 10  1  1  0  0  0
 19 18  1  0  0  0  0
 20 18  1  0  0  0  0
 21 14  1  1  0  0  0
 21 22  1  0  0  0  0
 21 17  1  0  0  0  0
 22 19  1  0  0  0  0
 23 26  1  0  0  0  0
 24 26  1  0  0  0  0
 26 25  1  0  0  0  0
 26 27  1  0  0  0  0
 27 28  2  0  0  0  0
 27 29  1  0  0  0  0
M  END
>  <MODEL>
6

>  <REMARK>
 VINA RESULT:      -5.6      3.533      7.506
  Name = 
  4 active torsions:
  status: ('A' for Active; 'I' for Inactive)
    1  A    between atoms: C_2  and  C_28
    2  A    between atoms: C_15  and  N_20
    3  A    between atoms: C_17  and  C_18
    4  A    between atoms: C_18  and  C_28
                            x       y       z     vdW  Elec       q    Type
                         _______ _______ _______ _____ _____    ______ ____

>  <TORSDO>
F 4

$$$$
=
 OpenBabel11072413483D

 29 32  0  0  1  0  0  0  0  0999 V2000
  159.7840  210.0910  152.3890 C   0  0  0  0  0  3  0  0  0  0  0  0
  158.8190  210.9770  154.5330 C   0  0  1  0  0  3  0  0  0  0  0  0
  159.5570  209.7480  156.4160 O   0  0  0  0  0  0  0  0  0  0  0  0
  161.5070  206.9860  152.9900 N   0  0  0  0  0  0  0  0  0  0  0  0
  159.7300  209.9920  155.2310 C   0  0  0  0  0  0  0  0  0  0  0  0
  161.0080  207.9730  152.3090 C   0  0  0  0  0  0  0  0  0  0  0  0
  158.7280  212.1510  155.2840 O   0  0  0  0  0  1  0  0  0  0  0  0
  159.3150  211.3160  153.1200 C   0  0  2  0  0  3  0  0  0  0  0  0
  161.5810  207.0040  154.4220 C   0  0  0  0  0  3  0  0  0  0  0  0
  160.9190  207.8950  150.8810 N   0  0  0  0  0  2  0  0  0  0  0  0
  161.2540  208.0660  155.1000 N   0  0  0  0  0  0  0  0  0  0  0  0
  160.8650  209.3360  154.4780 C   0  0  1  0  0  3  0  0  0  0  0  0
  160.5140  209.1660  153.0170 C   0  0  0  0  0  0  0  0  0  0  0  0
  161.5810  203.7180  149.0070 O   0  0  0  0  0  1  0  0  0  0  0  0
  160.4650  206.5780  146.9740 C   0  0  0  0  0  1  0  0  0  0  0  0
  162.3960  205.0670  146.7610 C   0  0  0  0  0  1  0  0  0  0  0  0
  160.4920  205.5990  150.0310 C   0  0  2  0  0  3  0  0  0  0  0  0
  161.3980  206.7540  150.1170 C   0  0  1  0  0  0  0  0  0  0  0  0
  162.5150  206.9800  148.7090 S   0  0  0  0  0  0  0  0  0  0  0  0
  161.6250  205.6100  150.8900 O   0  0  0  0  0  0  0  0  0  0  0  0
  160.8090  204.8540  148.7340 C   0  0  1  0  0  3  0  0  0  0  0  0
  161.5130  205.8050  147.7540 C   0  0  0  0  0  0  0  0  0  0  0  0
  158.2120  212.0140  152.3260 C   0  0  0  0  0  2  0  0  0  0  0  0
  158.6080  214.4530  152.7790 C   0  0  0  0  0  1  0  0  0  0  0  0
  160.0810  213.2190  151.2620 C   0  0  0  0  0  1  0  0  0  0  0  0
  158.6420  213.3560  151.7220 C   0  0  0  0  0  0  0  0  0  0  0  0
  157.7760  213.7040  150.5370 C   0  0  0  0  0  0  0  0  0  0  0  0
  158.2670  213.5420  149.2460 O   0  0  0  0  0  0  0  0  0  0  0  0
  156.5830  214.0790  150.6970 O   0  0  0  0  0  1  0  0  0  0  0  0
  1 13  2  0  0  0  0
  1  8  1  0  0  0  0
  2  5  1  0  0  0  0
  2  7  1  1  0  0  0
  4  9  1  0  0  0  0
  5  3  2  0  0  0  0
  6  4  2  0  0  0  0
  6 13  1  0  0  0  0
  8 23  1  6  0  0  0
  8  2  1  0  0  0  0
  9 11  2  0  0  0  0
 10  6  1  0  0  0  0
 12 13  1  6  0  0  0
 12 11  1  0  0  0  0
 12  5  1  0  0  0  0
 15 22  1  0  0  0  0
 16 22  1  0  0  0  0
 17 18  1  0  0  0  0
 17 20  1  1  0  0  0
 18 10  1  1  0  0  0
 18 20  1  0  0  0  0
 19 18  1  0  0  0  0
 21 14  1  1  0  0  0
 21 17  1  0  0  0  0
 22 19  1  0  0  0  0
 22 21  1  0  0  0  0
 25 26  1  0  0  0  0
 26 23  1  0  0  0  0
 26 24  1  0  0  0  0
 27 29  1  0  0  0  0
 27 26  1  0  0  0  0
 28 27  2  0  0  0  0
M  END
>  <MODEL>
7

>  <REMARK>
 VINA RESULT:      -5.5      3.191      8.637
  Name = 
  4 active torsions:
  status: ('A' for Active; 'I' for Inactive)
    1  A    between atoms: C_2  and  C_28
    2  A    between atoms: C_15  and  N_20
    3  A    between atoms: C_17  and  C_18
    4  A    between atoms: C_18  and  C_28
                            x       y       z     vdW  Elec       q    Type
                         _______ _______ _______ _____ _____    ______ ____

>  <TORSDO>
F 4

$$$$
=
 OpenBabel11072413483D

 29 32  0  0  1  0  0  0  0  0999 V2000
  160.8130  208.4760  151.7940 C   0  0  0  0  0  3  0  0  0  0  0  0
  161.5430  208.0330  149.4310 C   0  0  1  0  0  3  0  0  0  0  0  0
  162.0200  210.0320  148.2570 O   0  0  0  0  0  0  0  0  0  0  0  0
  160.2980  212.0060  152.2960 N   0  0  0  0  0  0  0  0  0  0  0  0
  161.8260  209.5160  149.3480 C   0  0  0  0  0  0  0  0  0  0  0  0
  160.3030  210.7370  152.5790 C   0  0  0  0  0  0  0  0  0  0  0  0
  162.5020  207.3270  148.7000 O   0  0  0  0  0  1  0  0  0  0  0  0
  161.5380  207.5290  150.8810 C   0  0  2  0  0  3  0  0  0  0  0  0
  160.9200  212.5280  151.1130 C   0  0  0  0  0  3  0  0  0  0  0  0
  159.6360  210.2550  153.7520 N   0  0  0  0  0  2  0  0  0  0  0  0
  161.6190  211.7640  150.3260 N   0  0  0  0  0  0  0  0  0  0  0  0
  161.8980  210.3510  150.6070 C   0  0  1  0  0  3  0  0  0  0  0  0
  160.9830  209.7950  151.6740 C   0  0  0  0  0  0  0  0  0  0  0  0
  158.5250  213.0570  157.2610 O   0  0  0  0  0  1  0  0  0  0  0  0
  158.5330  214.2530  153.7780 C   0  0  0  0  0  1  0  0  0  0  0  0
  156.7810  214.2460  155.5070 C   0  0  0  0  0  1  0  0  0  0  0  0
  159.8190  211.9290  155.5800 C   0  0  2  0  0  3  0  0  0  0  0  0
  158.9570  211.1300  154.6950 C   0  0  1  0  0  0  0  0  0  0  0  0
  157.3510  211.8630  154.2950 S   0  0  0  0  0  0  0  0  0  0  0  0
  159.1390  210.7660  156.0340 O   0  0  0  0  0  0  0  0  0  0  0  0
  159.0450  213.1900  155.9670 C   0  0  1  0  0  3  0  0  0  0  0  0
  157.9450  213.4570  154.9290 C   0  0  0  0  0  0  0  0  0  0  0  0
  160.9090  206.1390  150.9560 C   0  0  0  0  0  2  0  0  0  0  0  0
  163.1640  205.4530  151.8250 C   0  0  0  0  0  1  0  0  0  0  0  0
  161.2040  205.4060  153.2910 C   0  0  0  0  0  1  0  0  0  0  0  0
  161.6680  205.1670  151.8670 C   0  0  0  0  0  0  0  0  0  0  0  0
  161.3690  203.7400  151.4820 C   0  0  0  0  0  0  0  0  0  0  0  0
  161.2070  203.4000  150.1430 O   0  0  0  0  0  0  0  0  0  0  0  0
  161.3300  202.8300  152.3540 O   0  0  0  0  0  1  0  0  0  0  0  0
  2  7  1  6  0  0  0
  2  8  1  0  0  0  0
  3  5  2  0  0  0  0
  4  6  2  0  0  0  0
  5  2  1  0  0  0  0
  6 10  1  0  0  0  0
  8 23  1  6  0  0  0
  8  1  1  0  0  0  0
  9  4  1  0  0  0  0
 11 12  1  0  0  0  0
 11  9  2  0  0  0  0
 12  5  1  6  0  0  0
 12 13  1  0  0  0  0
 13  1  2  0  0  0  0
 13  6  1  0  0  0  0
 15 22  1  0  0  0  0
 17 21  1  0  0  0  0
 17 20  1  1  0  0  0
 18 10  1  6  0  0  0
 18 17  1  0  0  0  0
 18 20  1  0  0  0  0
 19 18  1  0  0  0  0
 19 22  1  0  0  0  0
 21 14  1  1  0  0  0
 22 16  1  0  0  0  0
 22 21  1  0  0  0  0
 23 26  1  0  0  0  0
 24 26  1  0  0  0  0
 26 25  1  0  0  0  0
 27 26  1  0  0  0  0
 27 29  1  0  0  0  0
 28 27  2  0  0  0  0
M  END
>  <MODEL>
8

>  <REMARK>
 VINA RESULT:      -5.0      2.549      3.257
  Name = 
  4 active torsions:
  status: ('A' for Active; 'I' for Inactive)
    1  A    between atoms: C_2  and  C_28
    2  A    between atoms: C_15  and  N_20
    3  A    between atoms: C_17  and  C_18
    4  A    between atoms: C_18  and  C_28
                            x       y       z     vdW  Elec       q    Type
                         _______ _______ _______ _____ _____    ______ ____

>  <TORSDO>
F 4

$$$$
=
 OpenBabel11072413483D

 29 32  0  0  1  0  0  0  0  0999 V2000
  161.1800  206.8420  150.0060 C   0  0  0  0  0  3  0  0  0  0  0  0
  161.9520  204.4810  149.6230 C   0  0  1  0  0  3  0  0  0  0  0  0
  161.9580  203.2120  151.6210 O   0  0  0  0  0  0  0  0  0  0  0  0
  160.8730  207.4950  153.5340 N   0  0  0  0  0  0  0  0  0  0  0  0
  161.5760  204.2330  151.0670 C   0  0  0  0  0  0  0  0  0  0  0  0
  160.8730  207.7450  152.2590 C   0  0  0  0  0  0  0  0  0  0  0  0
  161.6610  203.3500  148.8580 O   0  0  0  0  0  1  0  0  0  0  0  0
  161.2130  205.6940  149.0380 C   0  0  2  0  0  3  0  0  0  0  0  0
  160.9540  206.1590  154.0520 C   0  0  0  0  0  3  0  0  0  0  0  0
  160.8300  209.0970  151.7870 N   0  0  0  0  0  2  0  0  0  0  0  0
  160.9150  205.1260  153.2610 N   0  0  0  0  0  0  0  0  0  0  0  0
  160.7100  205.2240  151.8120 C   0  0  1  0  0  3  0  0  0  0  0  0
  160.9390  206.6280  151.3020 C   0  0  0  0  0  0  0  0  0  0  0  0
  159.5840  212.9420  154.0380 O   0  0  0  0  0  1  0  0  0  0  0  0
  159.7220  209.6800  155.7410 C   0  0  0  0  0  1  0  0  0  0  0  0
  160.8160  211.8310  156.2240 C   0  0  0  0  0  1  0  0  0  0  0  0
  159.4370  210.8970  152.7850 C   0  0  2  0  0  3  0  0  0  0  0  0
  160.7510  210.2460  152.6760 C   0  0  1  0  0  0  0  0  0  0  0  0
  161.8070  210.3640  154.1420 S   0  0  0  0  0  0  0  0  0  0  0  0
  160.4950  211.4530  152.0170 O   0  0  0  0  0  0  0  0  0  0  0  0
  159.3610  211.5640  154.1590 C   0  0  1  0  0  3  0  0  0  0  0  0
  160.3680  210.9000  155.1090 C   0  0  0  0  0  0  0  0  0  0  0  0
  161.8650  206.1280  147.7260 C   0  0  0  0  0  2  0  0  0  0  0  0
  160.0900  204.5680  146.8730 C   0  0  0  0  0  1  0  0  0  0  0  0
  160.7880  206.5010  145.5410 C   0  0  0  0  0  1  0  0  0  0  0  0
  161.2880  205.4290  146.4900 C   0  0  0  0  0  0  0  0  0  0  0  0
  162.3530  204.6140  145.7980 C   0  0  0  0  0  0  0  0  0  0  0  0
  163.6770  204.7030  146.2170 O   0  0  0  0  0  1  0  0  0  0  0  0
  162.0520  203.7990  144.8860 O   0  0  0  0  0  0  0  0  0  0  0  0
  1 13  2  0  0  0  0
  2  7  1  6  0  0  0
  2  5  1  0  0  0  0
  4  9  1  0  0  0  0
  5  3  2  0  0  0  0
  6  4  2  0  0  0  0
  8 23  1  6  0  0  0
  8  2  1  0  0  0  0
  8  1  1  0  0  0  0
 10  6  1  0  0  0  0
 11  9  2  0  0  0  0
 12  5  1  6  0  0  0
 12 11  1  0  0  0  0
 13 12  1  0  0  0  0
 13  6  1  0  0  0  0
 17 20  1  6  0  0  0
 17 21  1  0  0  0  0
 18 10  1  6  0  0  0
 18 17  1  0  0  0  0
 18 19  1  0  0  0  0
 19 22  1  0  0  0  0
 20 18  1  0  0  0  0
 21 14  1  6  0  0  0
 21 22  1  0  0  0  0
 22 15  1  0  0  0  0
 22 16  1  0  0  0  0
 25 26  1  0  0  0  0
 26 24  1  0  0  0  0
 26 23  1  0  0  0  0
 27 28  1  0  0  0  0
 27 26  1  0  0  0  0
 29 27  2  0  0  0  0
M  END
>  <MODEL>
9

>  <REMARK>
 VINA RESULT:      -4.6      2.066      3.881
  Name = 
  4 active torsions:
  status: ('A' for Active; 'I' for Inactive)
    1  A    between atoms: C_2  and  C_28
    2  A    between atoms: C_15  and  N_20
    3  A    between atoms: C_17  and  C_18
    4  A    between atoms: C_18  and  C_28
                            x       y       z     vdW  Elec       q    Type
                         _______ _______ _______ _____ _____    ______ ____

>  <TORSDO>
F 4

$$$$
