=
 OpenBabel11072411133D

 30 33  0  0  1  0  0  0  0  0999 V2000
  161.0800  207.3040  152.3860 C   0  0  0  0  0  0  0  0  0  0  0  0
  162.1100  209.5080  148.2970 O   0  0  0  0  0  0  0  0  0  0  0  0
  161.1000  208.2600  154.6180 C   0  0  0  0  0  3  0  0  0  0  0  0
  160.9660  207.5300  150.9120 C   0  0  2  0  0  3  0  0  0  0  0  0
  161.3730  206.4330  149.9360 C   0  0  2  0  0  3  0  0  0  0  0  0
  161.7800  208.7380  150.5360 C   0  0  1  0  0  3  0  0  0  0  0  0
  161.7100  211.1220  150.7350 O   0  0  0  0  0  1  0  0  0  0  0  0
  161.1670  205.8560  154.3260 C   0  0  0  0  0  3  0  0  0  0  0  0
  161.1600  206.9750  155.1630 C   0  0  0  0  0  3  0  0  0  0  0  0
  161.0410  208.4400  153.2300 C   0  0  0  0  0  0  0  0  0  0  0  0
  161.0180  209.8550  152.6580 C   0  0  1  0  0  3  0  0  0  0  0  0
  161.1210  206.0190  152.9390 C   0  0  0  0  0  3  0  0  0  0  0  0
  161.8430  208.5950  149.0620 C   0  0  0  0  0  0  0  0  0  0  0  0
  161.0570  209.9480  151.1100 C   0  0  2  0  0  3  0  0  0  0  0  0
  161.6100  207.1870  148.6210 C   0  0  1  0  0  3  0  0  0  0  0  0
  160.3550  211.7970  153.7770 C   0  0  0  0  0  1  0  0  0  0  0  0
  159.8610  210.5810  153.1590 N   0  0  0  0  0  2  0  0  0  0  0  0
  160.2390  205.4340  149.7770 C   0  0  0  0  0  2  0  0  0  0  0  0
  160.5290  204.1790  150.5800 C   0  0  0  0  0  2  0  0  0  0  0  0
  161.0330  202.1290  147.5780 C   0  0  0  0  0  0  0  0  0  0  0  0
  160.7500  201.7660  150.0130 C   0  0  0  0  0  2  0  0  0  0  0  0
  161.2710  203.1670  149.7270 C   0  0  1  0  0  3  0  0  0  0  0  0
  160.7790  202.0170  146.3910 O   0  0  0  0  0  0  0  0  0  0  0  0
  161.0670  203.4520  148.2460 C   0  0  0  0  0  2  0  0  0  0  0  0
  161.2490  200.7060  148.6260 S   0  0  0  0  0  0  0  0  0  0  0  0
  162.8000  206.6670  147.9660 N   0  0  0  0  0  2  0  0  0  0  0  0
  162.3840  206.1100  146.6890 C   0  0  0  0  0  2  0  0  0  0  0  0
  160.9450  206.4960  146.4040 C   0  0  0  0  0  2  0  0  0  0  0  0
  161.6110  205.1600  144.7820 C   0  0  0  0  0  1  0  0  0  0  0  0
  160.4720  205.7570  145.3210 O   0  0  0  0  0  0  0  0  0  0  0  0
  1 12  2  0  0  0  0
  1 10  1  0  0  0  0
  2 13  2  0  0  0  0
  3  9  1  0  0  0  0
  4  1  1  1  0  0  0
  5 18  1  6  0  0  0
  5  4  1  0  0  0  0
  6 13  1  6  0  0  0
  6  4  1  0  0  0  0
  6 14  1  0  0  0  0
  8  9  2  0  0  0  0
 10  3  2  0  0  0  0
 11 17  1  6  0  0  0
 11 10  1  0  0  0  0
 12  8  1  0  0  0  0
 14  7  1  1  0  0  0
 14 11  1  0  0  0  0
 15 26  1  1  0  0  0
 15 13  1  0  0  0  0
 15  5  1  0  0  0  0
 17 16  1  0  0  0  0
 18 19  1  0  0  0  0
 20 24  1  0  0  0  0
 20 25  1  0  0  0  0
 22 21  1  0  0  0  0
 22 19  1  1  0  0  0
 23 20  2  0  0  0  0
 24 22  1  0  0  0  0
 25 21  1  0  0  0  0
 27 26  1  0  0  0  0
 28 27  1  0  0  0  0
 29 30  1  0  0  0  0
 30 28  1  0  0  0  0
M  END
>  <MODEL>
1

>  <REMARK>
 VINA RESULT:      -8.0      0.000      0.000
  Name = 
  8 active torsions:
  status: ('A' for Active; 'I' for Inactive)
    1  A    between atoms: C_5  and  C_9
    2  A    between atoms: C_5  and  C_16
    3  A    between atoms: C_10  and  N_17
    4  A    between atoms: C_10  and  C_25
    5  A    between atoms: C_12  and  C_16
    6  A    between atoms: N_17  and  C_26
    7  A    between atoms: C_20  and  N_28
    8  A    between atoms: C_25  and  O_27
                            x       y       z     vdW  Elec       q    Type
                         _______ _______ _______ _____ _____    ______ ____

>  <TORSDO>
F 8

$$$$
=
 OpenBabel11072411133D

 30 33  0  0  1  0  0  0  0  0999 V2000
  161.1200  204.6320  150.0320 C   0  0  0  0  0  0  0  0  0  0  0  0
  161.7510  209.2390  149.0290 O   0  0  0  0  0  0  0  0  0  0  0  0
  160.7290  202.8240  148.4590 C   0  0  0  0  0  3  0  0  0  0  0  0
  161.6700  206.0000  150.2780 C   0  0  2  0  0  3  0  0  0  0  0  0
  161.2960  206.7600  151.5440 C   0  0  2  0  0  3  0  0  0  0  0  0
  161.2880  206.8970  149.1330 C   0  0  1  0  0  3  0  0  0  0  0  0
  161.8510  207.2680  146.8360 O   0  0  0  0  0  1  0  0  0  0  0  0
  160.1890  202.5320  150.8030 C   0  0  0  0  0  3  0  0  0  0  0  0
  160.2320  202.0340  149.4990 C   0  0  0  0  0  3  0  0  0  0  0  0
  161.1950  204.1200  148.7150 C   0  0  0  0  0  0  0  0  0  0  0  0
  161.6950  204.9780  147.5550 C   0  0  1  0  0  3  0  0  0  0  0  0
  160.6380  203.8280  151.0720 C   0  0  0  0  0  3  0  0  0  0  0  0
  161.5870  208.2330  149.7000 C   0  0  0  0  0  0  0  0  0  0  0  0
  162.0910  206.4310  147.9270 C   0  0  2  0  0  3  0  0  0  0  0  0
  161.5970  208.2220  151.1930 C   0  0  1  0  0  3  0  0  0  0  0  0
  162.4880  204.2550  145.4790 C   0  0  0  0  0  1  0  0  0  0  0  0
  162.8120  204.3250  146.8920 N   0  0  0  0  0  2  0  0  0  0  0  0
  162.1690  206.3020  152.7010 C   0  0  0  0  0  2  0  0  0  0  0  0
  161.3100  205.9710  153.9080 C   0  0  0  0  0  2  0  0  0  0  0  0
  161.5690  208.8260  156.1990 C   0  0  0  0  0  0  0  0  0  0  0  0
  160.0450  206.9060  155.8370 C   0  0  0  0  0  2  0  0  0  0  0  0
  160.8090  207.2440  154.5650 C   0  0  1  0  0  3  0  0  0  0  0  0
  162.3370  209.5480  156.8130 O   0  0  0  0  0  0  0  0  0  0  0  0
  161.9700  208.1530  154.9400 C   0  0  0  0  0  2  0  0  0  0  0  0
  159.9590  208.4190  156.8370 S   0  0  0  0  0  0  0  0  0  0  0  0
  160.5370  209.0770  151.7040 N   0  0  0  0  0  2  0  0  0  0  0  0
  161.1560  210.3130  152.1570 C   0  0  0  0  0  2  0  0  0  0  0  0
  160.1710  211.1040  152.9970 C   0  0  0  0  0  2  0  0  0  0  0  0
  159.7930  212.1850  154.8800 C   0  0  0  0  0  1  0  0  0  0  0  0
  160.7910  211.5120  154.1760 O   0  0  0  0  0  0  0  0  0  0  0  0
  1 12  1  0  0  0  0
  2 13  2  0  0  0  0
  3 10  1  0  0  0  0
  3  9  2  0  0  0  0
  4  1  1  6  0  0  0
  4  5  1  0  0  0  0
  5 18  1  1  0  0  0
  6 13  1  1  0  0  0
  6  4  1  0  0  0  0
  8 12  2  0  0  0  0
  9  8  1  0  0  0  0
 10  1  2  0  0  0  0
 11 17  1  1  0  0  0
 11 14  1  0  0  0  0
 11 10  1  0  0  0  0
 13 15  1  0  0  0  0
 14  7  1  6  0  0  0
 14  6  1  0  0  0  0
 15  5  1  0  0  0  0
 15 26  1  1  0  0  0
 16 17  1  0  0  0  0
 18 19  1  0  0  0  0
 20 23  2  0  0  0  0
 20 25  1  0  0  0  0
 21 25  1  0  0  0  0
 22 19  1  1  0  0  0
 22 24  1  0  0  0  0
 22 21  1  0  0  0  0
 24 20  1  0  0  0  0
 26 27  1  0  0  0  0
 27 28  1  0  0  0  0
 28 30  1  0  0  0  0
 30 29  1  0  0  0  0
M  END
>  <MODEL>
2

>  <REMARK>
 VINA RESULT:      -7.9      2.736      7.233
  Name = 
  8 active torsions:
  status: ('A' for Active; 'I' for Inactive)
    1  A    between atoms: C_5  and  C_9
    2  A    between atoms: C_5  and  C_16
    3  A    between atoms: C_10  and  N_17
    4  A    between atoms: C_10  and  C_25
    5  A    between atoms: C_12  and  C_16
    6  A    between atoms: N_17  and  C_26
    7  A    between atoms: C_20  and  N_28
    8  A    between atoms: C_25  and  O_27
                            x       y       z     vdW  Elec       q    Type
                         _______ _______ _______ _____ _____    ______ ____

>  <TORSDO>
F 8

$$$$
=
 OpenBabel11072411133D

 30 33  0  0  1  0  0  0  0  0999 V2000
  161.1040  207.5930  152.6700 C   0  0  0  0  0  0  0  0  0  0  0  0
  161.9690  209.6050  148.4460 O   0  0  0  0  0  0  0  0  0  0  0  0
  161.0810  208.6810  154.8400 C   0  0  0  0  0  3  0  0  0  0  0  0
  160.9660  207.7230  151.1860 C   0  0  2  0  0  3  0  0  0  0  0  0
  161.4320  206.5960  150.2730 C   0  0  2  0  0  3  0  0  0  0  0  0
  161.7020  208.9520  150.7300 C   0  0  1  0  0  3  0  0  0  0  0  0
  161.4890  211.3360  150.7880 O   0  0  0  0  0  1  0  0  0  0  0  0
  161.2920  206.2710  154.6920 C   0  0  0  0  0  3  0  0  0  0  0  0
  161.2230  207.4360  155.4600 C   0  0  0  0  0  3  0  0  0  0  0  0
  161.0010  208.7730  153.4450 C   0  0  0  0  0  0  0  0  0  0  0  0
  160.8880  210.1470  152.7900 C   0  0  1  0  0  3  0  0  0  0  0  0
  161.2270  206.3480  153.2970 C   0  0  0  0  0  3  0  0  0  0  0  0
  161.7640  208.7250  149.2670 C   0  0  0  0  0  0  0  0  0  0  0  0
  160.9110  210.1490  151.2390 C   0  0  2  0  0  3  0  0  0  0  0  0
  161.6140  207.2820  148.9130 C   0  0  1  0  0  3  0  0  0  0  0  0
  160.1290  212.0430  153.9270 C   0  0  0  0  0  1  0  0  0  0  0  0
  159.6930  210.8300  153.2590 N   0  0  0  0  0  2  0  0  0  0  0  0
  160.3600  205.5220  150.1860 C   0  0  0  0  0  2  0  0  0  0  0  0
  160.9700  204.1510  150.4130 C   0  0  0  0  0  2  0  0  0  0  0  0
  161.1750  201.0750  148.4210 C   0  0  0  0  0  0  0  0  0  0  0  0
  161.1280  203.5190  148.0110 C   0  0  0  0  0  2  0  0  0  0  0  0
  160.4920  203.1780  149.3510 C   0  0  1  0  0  3  0  0  0  0  0  0
  161.6180  199.9400  148.3800 O   0  0  0  0  0  0  0  0  0  0  0  0
  160.8820  201.7510  149.7080 C   0  0  0  0  0  2  0  0  0  0  0  0
  160.9750  202.0540  146.9480 S   0  0  0  0  0  0  0  0  0  0  0  0
  162.8290  206.7960  148.2780 N   0  0  0  0  0  2  0  0  0  0  0  0
  162.4850  206.4210  146.9160 C   0  0  0  0  0  2  0  0  0  0  0  0
  160.9870  206.5370  146.7130 C   0  0  0  0  0  2  0  0  0  0  0  0
  161.8060  205.4760  144.9620 C   0  0  0  0  0  1  0  0  0  0  0  0
  160.6600  206.1230  145.4220 O   0  0  0  0  0  0  0  0  0  0  0  0
  1 12  2  0  0  0  0
  1 10  1  0  0  0  0
  2 13  2  0  0  0  0
  3  9  1  0  0  0  0
  4  1  1  1  0  0  0
  5 18  1  6  0  0  0
  5  4  1  0  0  0  0
  6 13  1  6  0  0  0
  6  4  1  0  0  0  0
  6 14  1  0  0  0  0
  8  9  2  0  0  0  0
 10  3  2  0  0  0  0
 11 17  1  6  0  0  0
 11 10  1  0  0  0  0
 12  8  1  0  0  0  0
 14  7  1  1  0  0  0
 14 11  1  0  0  0  0
 15 26  1  1  0  0  0
 15 13  1  0  0  0  0
 15  5  1  0  0  0  0
 17 16  1  0  0  0  0
 18 19  1  0  0  0  0
 20 24  1  0  0  0  0
 21 22  1  0  0  0  0
 22 24  1  0  0  0  0
 22 19  1  1  0  0  0
 23 20  2  0  0  0  0
 25 21  1  0  0  0  0
 25 20  1  0  0  0  0
 27 26  1  0  0  0  0
 28 27  1  0  0  0  0
 29 30  1  0  0  0  0
 30 28  1  0  0  0  0
M  END
>  <MODEL>
3

>  <REMARK>
 VINA RESULT:      -7.7      0.818      1.036
  Name = 
  8 active torsions:
  status: ('A' for Active; 'I' for Inactive)
    1  A    between atoms: C_5  and  C_9
    2  A    between atoms: C_5  and  C_16
    3  A    between atoms: C_10  and  N_17
    4  A    between atoms: C_10  and  C_25
    5  A    between atoms: C_12  and  C_16
    6  A    between atoms: N_17  and  C_26
    7  A    between atoms: C_20  and  N_28
    8  A    between atoms: C_25  and  O_27
                            x       y       z     vdW  Elec       q    Type
                         _______ _______ _______ _____ _____    ______ ____

>  <TORSDO>
F 8

$$$$
=
 OpenBabel11072411133D

 30 33  0  0  1  0  0  0  0  0999 V2000
  160.5900  209.8520  152.9490 C   0  0  0  0  0  0  0  0  0  0  0  0
  161.7570  205.5560  151.2720 O   0  0  0  0  0  0  0  0  0  0  0  0
  159.6320  210.3740  155.1180 C   0  0  0  0  0  3  0  0  0  0  0  0
  161.3880  208.9050  152.1120 C   0  0  2  0  0  3  0  0  0  0  0  0
  161.3790  209.0310  150.5930 C   0  0  2  0  0  3  0  0  0  0  0  0
  160.9500  207.4970  152.4090 C   0  0  1  0  0  3  0  0  0  0  0  0
  161.1350  205.8550  154.1410 O   0  0  0  0  0  1  0  0  0  0  0  0
  159.4920  211.9810  153.3110 C   0  0  0  0  0  3  0  0  0  0  0  0
  159.2140  211.6150  154.6300 C   0  0  0  0  0  3  0  0  0  0  0  0
  160.3390  209.4890  154.2940 C   0  0  0  0  0  0  0  0  0  0  0  0
  160.7490  208.1230  154.8390 C   0  0  1  0  0  3  0  0  0  0  0  0
  160.1840  211.1040  152.4710 C   0  0  0  0  0  3  0  0  0  0  0  0
  161.5590  206.7600  151.2770 C   0  0  0  0  0  0  0  0  0  0  0  0
  161.4340  207.1790  153.8170 C   0  0  2  0  0  3  0  0  0  0  0  0
  161.8410  207.6500  150.1110 C   0  0  1  0  0  3  0  0  0  0  0  0
  160.9190  207.6720  157.1260 C   0  0  0  0  0  1  0  0  0  0  0  0
  161.6060  208.2830  156.0030 N   0  0  0  0  0  2  0  0  0  0  0  0
  162.3650  210.1020  150.1560 C   0  0  0  0  0  2  0  0  0  0  0  0
  162.0420  210.5690  148.7480 C   0  0  0  0  0  2  0  0  0  0  0  0
  160.9640  213.7480  147.2640 C   0  0  0  0  0  0  0  0  0  0  0  0
  163.0870  212.6990  147.9940 C   0  0  0  0  0  2  0  0  0  0  0  0
  161.8970  212.0790  148.7130 C   0  0  1  0  0  3  0  0  0  0  0  0
  160.1810  214.2750  146.4920 O   0  0  0  0  0  0  0  0  0  0  0  0
  160.6330  212.4850  147.9670 C   0  0  0  0  0  2  0  0  0  0  0  0
  162.6100  214.3800  147.5030 S   0  0  0  0  0  0  0  0  0  0  0  0
  161.0440  207.2390  148.9660 N   0  0  0  0  0  2  0  0  0  0  0  0
  161.9670  206.8760  147.9030 C   0  0  0  0  0  2  0  0  0  0  0  0
  161.5250  205.5750  147.2600 C   0  0  0  0  0  2  0  0  0  0  0  0
  161.4780  203.4220  147.7350 C   0  0  0  0  0  1  0  0  0  0  0  0
  161.1440  204.6740  148.2530 O   0  0  0  0  0  0  0  0  0  0  0  0
  1 10  1  0  0  0  0
  2 13  2  0  0  0  0
  4  6  1  0  0  0  0
  4  1  1  1  0  0  0
  5 18  1  1  0  0  0
  5  4  1  0  0  0  0
  6 13  1  6  0  0  0
  6 14  1  0  0  0  0
  8  9  2  0  0  0  0
  9  3  1  0  0  0  0
 10 11  1  0  0  0  0
 10  3  2  0  0  0  0
 11 17  1  1  0  0  0
 12  1  2  0  0  0  0
 12  8  1  0  0  0  0
 14  7  1  1  0  0  0
 14 11  1  0  0  0  0
 15 26  1  6  0  0  0
 15  5  1  0  0  0  0
 15 13  1  0  0  0  0
 17 16  1  0  0  0  0
 19 18  1  0  0  0  0
 20 25  1  0  0  0  0
 20 24  1  0  0  0  0
 21 22  1  0  0  0  0
 22 19  1  6  0  0  0
 23 20  2  0  0  0  0
 24 22  1  0  0  0  0
 25 21  1  0  0  0  0
 27 26  1  0  0  0  0
 28 27  1  0  0  0  0
 28 30  1  0  0  0  0
 29 30  1  0  0  0  0
M  END
>  <MODEL>
4

>  <REMARK>
 VINA RESULT:      -7.2      3.755      6.167
  Name = 
  8 active torsions:
  status: ('A' for Active; 'I' for Inactive)
    1  A    between atoms: C_5  and  C_9
    2  A    between atoms: C_5  and  C_16
    3  A    between atoms: C_10  and  N_17
    4  A    between atoms: C_10  and  C_25
    5  A    between atoms: C_12  and  C_16
    6  A    between atoms: N_17  and  C_26
    7  A    between atoms: C_20  and  N_28
    8  A    between atoms: C_25  and  O_27
                            x       y       z     vdW  Elec       q    Type
                         _______ _______ _______ _____ _____    ______ ____

>  <TORSDO>
F 8

$$$$
=
 OpenBabel11072411133D

 30 33  0  0  1  0  0  0  0  0999 V2000
  161.5260  204.5520  147.4270 C   0  0  0  0  0  0  0  0  0  0  0  0
  160.7870  202.2170  151.5060 O   0  0  0  0  0  0  0  0  0  0  0  0
  162.0410  203.5940  145.2560 C   0  0  0  0  0  3  0  0  0  0  0  0
  160.9220  204.3670  148.7820 C   0  0  2  0  0  3  0  0  0  0  0  0
  161.2200  205.3640  149.8960 C   0  0  2  0  0  3  0  0  0  0  0  0
  161.3220  203.0200  149.3190 C   0  0  1  0  0  3  0  0  0  0  0  0
  160.8420  200.7000  148.9750 O   0  0  0  0  0  1  0  0  0  0  0  0
  162.4930  205.9350  145.6890 C   0  0  0  0  0  3  0  0  0  0  0  0
  162.5210  204.8340  144.8280 C   0  0  0  0  0  3  0  0  0  0  0  0
  161.5220  203.4420  146.5490 C   0  0  0  0  0  0  0  0  0  0  0  0
  161.0420  202.0670  147.0070 C   0  0  1  0  0  3  0  0  0  0  0  0
  161.9920  205.7960  146.9860 C   0  0  0  0  0  3  0  0  0  0  0  0
  160.9560  203.1590  150.7490 C   0  0  0  0  0  0  0  0  0  0  0  0
  160.5840  201.9820  148.4860 C   0  0  2  0  0  3  0  0  0  0  0  0
  160.8850  204.5880  151.1760 C   0  0  1  0  0  3  0  0  0  0  0  0
  160.4540  200.3840  145.4960 C   0  0  0  0  0  1  0  0  0  0  0  0
  159.9750  201.5930  146.1390 N   0  0  0  0  0  2  0  0  0  0  0  0
  160.3150  206.5780  149.7600 C   0  0  0  0  0  2  0  0  0  0  0  0
  161.1480  207.8410  149.6380 C   0  0  0  0  0  2  0  0  0  0  0  0
  160.8260  209.6260  152.8280 C   0  0  0  0  0  0  0  0  0  0  0  0
  162.3640  209.6170  150.8860 C   0  0  0  0  0  2  0  0  0  0  0  0
  161.6290  208.2910  151.0040 C   0  0  1  0  0  3  0  0  0  0  0  0
  160.0410  210.0960  153.6350 O   0  0  0  0  0  0  0  0  0  0  0  0
  160.4560  208.4860  151.9550 C   0  0  0  0  0  2  0  0  0  0  0  0
  162.4230  210.3580  152.5420 S   0  0  0  0  0  0  0  0  0  0  0  0
  161.8950  204.8560  152.1890 N   0  0  0  0  0  2  0  0  0  0  0  0
  161.2030  205.0370  153.4540 C   0  0  0  0  0  2  0  0  0  0  0  0
  161.5830  206.3740  154.0620 C   0  0  0  0  0  2  0  0  0  0  0  0
  161.2770  207.6880  155.8060 C   0  0  0  0  0  1  0  0  0  0  0  0
  160.6310  206.7390  155.0120 O   0  0  0  0  0  0  0  0  0  0  0  0
  3 10  1  0  0  0  0
  4  1  1  6  0  0  0
  4  6  1  0  0  0  0
  4  5  1  0  0  0  0
  5 18  1  6  0  0  0
  5 15  1  0  0  0  0
  6 13  1  1  0  0  0
  8 12  2  0  0  0  0
  9  3  2  0  0  0  0
  9  8  1  0  0  0  0
 10 11  1  0  0  0  0
 10  1  2  0  0  0  0
 11 17  1  6  0  0  0
 11 14  1  0  0  0  0
 12  1  1  0  0  0  0
 13 15  1  0  0  0  0
 13  2  2  0  0  0  0
 14  7  1  1  0  0  0
 14  6  1  0  0  0  0
 15 26  1  1  0  0  0
 16 17  1  0  0  0  0
 19 18  1  0  0  0  0
 20 23  2  0  0  0  0
 21 22  1  0  0  0  0
 21 25  1  0  0  0  0
 22 19  1  6  0  0  0
 22 24  1  0  0  0  0
 24 20  1  0  0  0  0
 25 20  1  0  0  0  0
 26 27  1  0  0  0  0
 27 28  1  0  0  0  0
 28 30  1  0  0  0  0
 30 29  1  0  0  0  0
M  END
>  <MODEL>
5

>  <REMARK>
 VINA RESULT:      -7.1      3.125      8.201
  Name = 
  8 active torsions:
  status: ('A' for Active; 'I' for Inactive)
    1  A    between atoms: C_5  and  C_9
    2  A    between atoms: C_5  and  C_16
    3  A    between atoms: C_10  and  N_17
    4  A    between atoms: C_10  and  C_25
    5  A    between atoms: C_12  and  C_16
    6  A    between atoms: N_17  and  C_26
    7  A    between atoms: C_20  and  N_28
    8  A    between atoms: C_25  and  O_27
                            x       y       z     vdW  Elec       q    Type
                         _______ _______ _______ _____ _____    ______ ____

>  <TORSDO>
F 8

$$$$
=
 OpenBabel11072411133D

 30 33  0  0  1  0  0  0  0  0999 V2000
  161.4390  208.9860  150.9210 C   0  0  0  0  0  0  0  0  0  0  0  0
  161.1480  205.4330  154.0710 O   0  0  0  0  0  0  0  0  0  0  0  0
  162.1220  208.8380  148.5950 C   0  0  0  0  0  3  0  0  0  0  0  0
  160.8800  208.2950  152.1230 C   0  0  2  0  0  3  0  0  0  0  0  0
  160.9870  208.9440  153.4970 C   0  0  2  0  0  3  0  0  0  0  0  0
  161.5240  206.9430  152.2560 C   0  0  1  0  0  3  0  0  0  0  0  0
  161.4850  204.7890  151.2110 O   0  0  0  0  0  1  0  0  0  0  0  0
  162.1310  210.9790  149.7290 C   0  0  0  0  0  3  0  0  0  0  0  0
  162.3630  210.2140  148.5830 C   0  0  0  0  0  3  0  0  0  0  0  0
  161.6420  208.2120  149.7530 C   0  0  0  0  0  0  0  0  0  0  0  0
  161.4270  206.7010  149.7530 C   0  0  1  0  0  3  0  0  0  0  0  0
  161.6640  210.3680  150.8960 C   0  0  0  0  0  3  0  0  0  0  0  0
  161.1390  206.5740  153.6390 C   0  0  0  0  0  0  0  0  0  0  0  0
  160.9930  206.0910  151.1110 C   0  0  2  0  0  3  0  0  0  0  0  0
  160.8030  207.7710  154.4680 C   0  0  1  0  0  3  0  0  0  0  0  0
  161.1400  205.4160  147.8220 C   0  0  0  0  0  1  0  0  0  0  0  0
  160.4660  206.3300  148.7250 N   0  0  0  0  0  2  0  0  0  0  0  0
  159.8720  209.9610  153.6780 C   0  0  0  0  0  2  0  0  0  0  0  0
  160.4380  211.2750  154.1870 C   0  0  0  0  0  2  0  0  0  0  0  0
  157.1420  211.7380  155.7340 C   0  0  0  0  0  0  0  0  0  0  0  0
  158.7490  213.0880  154.4160 C   0  0  0  0  0  2  0  0  0  0  0  0
  159.4540  211.9440  155.1290 C   0  0  1  0  0  3  0  0  0  0  0  0
  156.0780  211.2040  155.9980 O   0  0  0  0  0  0  0  0  0  0  0  0
  158.3950  210.9560  155.5970 C   0  0  0  0  0  2  0  0  0  0  0  0
  157.2480  213.4750  155.3620 S   0  0  0  0  0  0  0  0  0  0  0  0
  161.7450  207.8940  155.5700 N   0  0  0  0  0  2  0  0  0  0  0  0
  160.9940  208.3280  156.7360 C   0  0  0  0  0  2  0  0  0  0  0  0
  161.5650  209.6330  157.2580 C   0  0  0  0  0  2  0  0  0  0  0  0
  163.3170  210.9490  157.0170 C   0  0  0  0  0  1  0  0  0  0  0  0
  162.9540  209.6090  157.1490 O   0  0  0  0  0  0  0  0  0  0  0  0
  3 10  1  0  0  0  0
  4  1  1  6  0  0  0
  4  6  1  0  0  0  0
  4  5  1  0  0  0  0
  5 18  1  1  0  0  0
  5 15  1  0  0  0  0
  6 13  1  1  0  0  0
  8 12  2  0  0  0  0
  9  3  2  0  0  0  0
  9  8  1  0  0  0  0
 10 11  1  0  0  0  0
 10  1  2  0  0  0  0
 11 17  1  6  0  0  0
 11 14  1  0  0  0  0
 12  1  1  0  0  0  0
 13  2  2  0  0  0  0
 13 15  1  0  0  0  0
 14  7  1  1  0  0  0
 14  6  1  0  0  0  0
 15 26  1  1  0  0  0
 16 17  1  0  0  0  0
 18 19  1  0  0  0  0
 20 23  2  0  0  0  0
 21 22  1  0  0  0  0
 21 25  1  0  0  0  0
 22 19  1  6  0  0  0
 22 24  1  0  0  0  0
 24 20  1  0  0  0  0
 25 20  1  0  0  0  0
 26 27  1  0  0  0  0
 27 28  1  0  0  0  0
 29 30  1  0  0  0  0
 30 28  1  0  0  0  0
M  END
>  <MODEL>
6

>  <REMARK>
 VINA RESULT:      -6.9      4.111      8.618
  Name = 
  8 active torsions:
  status: ('A' for Active; 'I' for Inactive)
    1  A    between atoms: C_5  and  C_9
    2  A    between atoms: C_5  and  C_16
    3  A    between atoms: C_10  and  N_17
    4  A    between atoms: C_10  and  C_25
    5  A    between atoms: C_12  and  C_16
    6  A    between atoms: N_17  and  C_26
    7  A    between atoms: C_20  and  N_28
    8  A    between atoms: C_25  and  O_27
                            x       y       z     vdW  Elec       q    Type
                         _______ _______ _______ _____ _____    ______ ____

>  <TORSDO>
F 8

$$$$
=
 OpenBabel11072411133D

 30 33  0  0  1  0  0  0  0  0999 V2000
  160.9150  209.4410  152.6270 C   0  0  0  0  0  0  0  0  0  0  0  0
  161.1900  204.7840  153.5650 O   0  0  0  0  0  0  0  0  0  0  0  0
  160.2960  211.2160  154.1640 C   0  0  0  0  0  3  0  0  0  0  0  0
  161.4550  208.0590  152.4400 C   0  0  2  0  0  3  0  0  0  0  0  0
  161.3000  207.3520  151.0990 C   0  0  2  0  0  3  0  0  0  0  0  0
  160.8340  207.1460  153.4600 C   0  0  1  0  0  3  0  0  0  0  0  0
  160.9420  206.6860  155.8070 O   0  0  0  0  0  1  0  0  0  0  0  0
  160.2170  211.5970  151.7720 C   0  0  0  0  0  3  0  0  0  0  0  0
  160.0300  212.0560  153.0790 C   0  0  0  0  0  3  0  0  0  0  0  0
  160.7580  209.9100  153.9530 C   0  0  0  0  0  0  0  0  0  0  0  0
  161.0020  209.0000  155.1540 C   0  0  1  0  0  3  0  0  0  0  0  0
  160.6640  210.2930  151.5450 C   0  0  0  0  0  3  0  0  0  0  0  0
  161.1890  205.8150  152.9120 C   0  0  0  0  0  0  0  0  0  0  0  0
  161.4110  207.5440  154.8110 C   0  0  2  0  0  3  0  0  0  0  0  0
  161.4800  205.8690  151.4480 C   0  0  1  0  0  3  0  0  0  0  0  0
  161.3020  210.0050  157.2420 C   0  0  0  0  0  1  0  0  0  0  0  0
  161.9960  209.5890  156.0370 N   0  0  0  0  0  2  0  0  0  0  0  0
  162.3900  207.8080  150.1430 C   0  0  0  0  0  2  0  0  0  0  0  0
  161.8020  208.0850  148.7710 C   0  0  0  0  0  2  0  0  0  0  0  0
  162.5560  205.3260  146.4720 C   0  0  0  0  0  0  0  0  0  0  0  0
  160.8140  207.0700  146.7250 C   0  0  0  0  0  2  0  0  0  0  0  0
  161.4960  206.7830  148.0550 C   0  0  1  0  0  3  0  0  0  0  0  0
  163.4450  204.7010  145.9190 O   0  0  0  0  0  0  0  0  0  0  0  0
  162.7730  206.0070  147.7720 C   0  0  0  0  0  2  0  0  0  0  0  0
  160.9730  205.5800  145.7000 S   0  0  0  0  0  0  0  0  0  0  0  0
  160.5060  205.0720  150.7170 N   0  0  0  0  0  2  0  0  0  0  0  0
  161.2150  203.9390  150.1450 C   0  0  0  0  0  2  0  0  0  0  0  0
  160.4720  202.6550  150.4620 C   0  0  0  0  0  2  0  0  0  0  0  0
  161.1330  201.3610  148.8040 C   0  0  0  0  0  1  0  0  0  0  0  0
  160.0300  202.0700  149.2770 O   0  0  0  0  0  0  0  0  0  0  0  0
  1 10  1  0  0  0  0
  4  1  1  6  0  0  0
  4  6  1  0  0  0  0
  5 18  1  6  0  0  0
  5 15  1  0  0  0  0
  5  4  1  0  0  0  0
  6 13  1  6  0  0  0
  6 14  1  0  0  0  0
  8  9  2  0  0  0  0
  9  3  1  0  0  0  0
 10  3  2  0  0  0  0
 10 11  1  0  0  0  0
 11 17  1  1  0  0  0
 12  8  1  0  0  0  0
 12  1  2  0  0  0  0
 13  2  2  0  0  0  0
 14 11  1  0  0  0  0
 14  7  1  1  0  0  0
 15 26  1  6  0  0  0
 15 13  1  0  0  0  0
 17 16  1  0  0  0  0
 19 18  1  0  0  0  0
 20 24  1  0  0  0  0
 21 22  1  0  0  0  0
 22 19  1  6  0  0  0
 23 20  2  0  0  0  0
 24 22  1  0  0  0  0
 25 20  1  0  0  0  0
 25 21  1  0  0  0  0
 27 28  1  0  0  0  0
 27 26  1  0  0  0  0
 29 30  1  0  0  0  0
 30 28  1  0  0  0  0
M  END
>  <MODEL>
7

>  <REMARK>
 VINA RESULT:      -6.7      2.625      4.447
  Name = 
  8 active torsions:
  status: ('A' for Active; 'I' for Inactive)
    1  A    between atoms: C_5  and  C_9
    2  A    between atoms: C_5  and  C_16
    3  A    between atoms: C_10  and  N_17
    4  A    between atoms: C_10  and  C_25
    5  A    between atoms: C_12  and  C_16
    6  A    between atoms: N_17  and  C_26
    7  A    between atoms: C_20  and  N_28
    8  A    between atoms: C_25  and  O_27
                            x       y       z     vdW  Elec       q    Type
                         _______ _______ _______ _____ _____    ______ ____

>  <TORSDO>
F 8

$$$$
=
 OpenBabel11072411133D

 30 33  0  0  1  0  0  0  0  0999 V2000
  161.4370  208.3200  150.8140 C   0  0  0  0  0  0  0  0  0  0  0  0
  160.8610  207.2830  155.4220 O   0  0  0  0  0  0  0  0  0  0  0  0
  162.2040  206.8320  149.0560 C   0  0  0  0  0  3  0  0  0  0  0  0
  160.8000  208.4700  152.1590 C   0  0  2  0  0  3  0  0  0  0  0  0
  160.8810  209.7990  152.9000 C   0  0  2  0  0  3  0  0  0  0  0  0
  161.3770  207.4430  153.0930 C   0  0  1  0  0  3  0  0  0  0  0  0
  161.2810  205.0850  153.4990 O   0  0  0  0  0  1  0  0  0  0  0  0
  162.2650  209.2320  148.7270 C   0  0  0  0  0  3  0  0  0  0  0  0
  162.5070  207.9380  148.2580 C   0  0  0  0  0  3  0  0  0  0  0  0
  161.6500  207.0080  150.3310 C   0  0  0  0  0  0  0  0  0  0  0  0
  161.3670  205.7840  151.1990 C   0  0  1  0  0  3  0  0  0  0  0  0
  161.7240  209.4240  150.0020 C   0  0  0  0  0  3  0  0  0  0  0  0
  160.9210  207.9580  154.4060 C   0  0  0  0  0  0  0  0  0  0  0  0
  160.8530  206.0900  152.6300 C   0  0  2  0  0  3  0  0  0  0  0  0
  160.6060  209.4170  154.3600 C   0  0  1  0  0  3  0  0  0  0  0  0
  161.0770  203.5990  150.4220 C   0  0  0  0  0  1  0  0  0  0  0  0
  160.4330  204.8960  150.5270 N   0  0  0  0  0  2  0  0  0  0  0  0
  159.8070  210.7450  152.3890 C   0  0  0  0  0  2  0  0  0  0  0  0
  160.0830  212.1590  152.8670 C   0  0  0  0  0  2  0  0  0  0  0  0
  158.0090  213.3260  150.0730 C   0  0  0  0  0  0  0  0  0  0  0  0
  160.4130  212.9310  150.5240 C   0  0  0  0  0  2  0  0  0  0  0  0
  159.6470  213.1650  151.8180 C   0  0  1  0  0  3  0  0  0  0  0  0
  156.9390  213.1980  149.5010 O   0  0  0  0  0  0  0  0  0  0  0  0
  158.1610  213.0250  151.5170 C   0  0  0  0  0  2  0  0  0  0  0  0
  159.4940  213.7530  149.1910 S   0  0  0  0  0  0  0  0  0  0  0  0
  161.5090  210.1480  155.2360 N   0  0  0  0  0  2  0  0  0  0  0  0
  160.6900  210.9160  156.1600 C   0  0  0  0  0  2  0  0  0  0  0  0
  159.2640  210.3970  156.1360 C   0  0  0  0  0  2  0  0  0  0  0  0
  157.3250  211.0850  155.3460 C   0  0  0  0  0  1  0  0  0  0  0  0
  158.3790  211.4730  156.1730 O   0  0  0  0  0  0  0  0  0  0  0  0
  3 10  2  0  0  0  0
  4  1  1  6  0  0  0
  4  5  1  0  0  0  0
  4  6  1  0  0  0  0
  5 18  1  6  0  0  0
  5 15  1  0  0  0  0
  6 13  1  1  0  0  0
  8 12  1  0  0  0  0
  9  8  2  0  0  0  0
  9  3  1  0  0  0  0
 10  1  1  0  0  0  0
 10 11  1  0  0  0  0
 11 17  1  6  0  0  0
 11 14  1  0  0  0  0
 12  1  2  0  0  0  0
 13  2  2  0  0  0  0
 14  6  1  0  0  0  0
 14  7  1  1  0  0  0
 15 13  1  0  0  0  0
 15 26  1  1  0  0  0
 16 17  1  0  0  0  0
 18 19  1  0  0  0  0
 20 24  1  0  0  0  0
 21 22  1  0  0  0  0
 22 19  1  1  0  0  0
 23 20  2  0  0  0  0
 24 22  1  0  0  0  0
 25 20  1  0  0  0  0
 25 21  1  0  0  0  0
 26 27  1  0  0  0  0
 28 27  1  0  0  0  0
 28 30  1  0  0  0  0
 29 30  1  0  0  0  0
M  END
>  <MODEL>
8

>  <REMARK>
 VINA RESULT:      -6.7      3.939      8.257
  Name = 
  8 active torsions:
  status: ('A' for Active; 'I' for Inactive)
    1  A    between atoms: C_5  and  C_9
    2  A    between atoms: C_5  and  C_16
    3  A    between atoms: C_10  and  N_17
    4  A    between atoms: C_10  and  C_25
    5  A    between atoms: C_12  and  C_16
    6  A    between atoms: N_17  and  C_26
    7  A    between atoms: C_20  and  N_28
    8  A    between atoms: C_25  and  O_27
                            x       y       z     vdW  Elec       q    Type
                         _______ _______ _______ _____ _____    ______ ____

>  <TORSDO>
F 8

$$$$
=
 OpenBabel11072411133D

 30 33  0  0  1  0  0  0  0  0999 V2000
  161.6050  204.5100  147.4160 C   0  0  0  0  0  0  0  0  0  0  0  0
  160.6140  202.1640  151.4350 O   0  0  0  0  0  0  0  0  0  0  0  0
  162.0910  203.5550  145.2370 C   0  0  0  0  0  3  0  0  0  0  0  0
  160.9610  204.3460  148.7560 C   0  0  2  0  0  3  0  0  0  0  0  0
  161.3090  205.2990  149.8930 C   0  0  2  0  0  3  0  0  0  0  0  0
  161.2510  202.9650  149.2740 C   0  0  1  0  0  3  0  0  0  0  0  0
  160.6090  200.6930  148.8770 O   0  0  0  0  0  1  0  0  0  0  0  0
  162.7050  205.8480  145.7220 C   0  0  0  0  0  3  0  0  0  0  0  0
  162.6690  204.7650  144.8410 C   0  0  0  0  0  3  0  0  0  0  0  0
  161.5370  203.4200  146.5170 C   0  0  0  0  0  0  0  0  0  0  0  0
  160.9490  202.0750  146.9390 C   0  0  1  0  0  3  0  0  0  0  0  0
  162.1690  205.7250  147.0070 C   0  0  0  0  0  3  0  0  0  0  0  0
  160.8670  203.1050  150.6990 C   0  0  0  0  0  0  0  0  0  0  0  0
  160.4560  201.9980  148.4070 C   0  0  2  0  0  3  0  0  0  0  0  0
  160.8920  204.5280  151.1520 C   0  0  1  0  0  3  0  0  0  0  0  0
  160.3330  200.5590  145.2700 C   0  0  0  0  0  1  0  0  0  0  0  0
  159.8680  201.6970  146.0430 N   0  0  0  0  0  2  0  0  0  0  0  0
  160.4980  206.5780  149.7630 C   0  0  0  0  0  2  0  0  0  0  0  0
  161.1140  207.4860  148.7140 C   0  0  0  0  0  2  0  0  0  0  0  0
  161.7120  210.2070  151.1020 C   0  0  0  0  0  0  0  0  0  0  0  0
  161.7730  209.8850  148.6460 C   0  0  0  0  0  2  0  0  0  0  0  0
  161.9560  208.5610  149.3750 C   0  0  1  0  0  3  0  0  0  0  0  0
  161.3610  210.7030  152.1600 O   0  0  0  0  0  0  0  0  0  0  0  0
  161.5400  208.7610  150.8250 C   0  0  0  0  0  2  0  0  0  0  0  0
  162.3310  211.2020  149.7630 S   0  0  0  0  0  0  0  0  0  0  0  0
  161.8980  204.7020  152.1880 N   0  0  0  0  0  2  0  0  0  0  0  0
  161.2060  205.1070  153.4010 C   0  0  0  0  0  2  0  0  0  0  0  0
  161.4630  206.5770  153.6730 C   0  0  0  0  0  2  0  0  0  0  0  0
  160.8300  208.3940  154.7510 C   0  0  0  0  0  1  0  0  0  0  0  0
  160.6110  207.0180  154.6840 O   0  0  0  0  0  0  0  0  0  0  0  0
  3 10  1  0  0  0  0
  4  1  1  6  0  0  0
  4  6  1  0  0  0  0
  4  5  1  0  0  0  0
  5 18  1  6  0  0  0
  5 15  1  0  0  0  0
  6 13  1  1  0  0  0
  8 12  2  0  0  0  0
  9  3  2  0  0  0  0
  9  8  1  0  0  0  0
 10 11  1  0  0  0  0
 10  1  2  0  0  0  0
 11 17  1  6  0  0  0
 11 14  1  0  0  0  0
 12  1  1  0  0  0  0
 13 15  1  0  0  0  0
 13  2  2  0  0  0  0
 14  7  1  1  0  0  0
 14  6  1  0  0  0  0
 15 26  1  1  0  0  0
 16 17  1  0  0  0  0
 19 18  1  0  0  0  0
 20 23  2  0  0  0  0
 21 22  1  0  0  0  0
 21 25  1  0  0  0  0
 22 19  1  6  0  0  0
 22 24  1  0  0  0  0
 24 20  1  0  0  0  0
 25 20  1  0  0  0  0
 26 27  1  0  0  0  0
 27 28  1  0  0  0  0
 28 30  1  0  0  0  0
 30 29  1  0  0  0  0
M  END
>  <MODEL>
9

>  <REMARK>
 VINA RESULT:      -6.5      3.041      8.132
  Name = 
  8 active torsions:
  status: ('A' for Active; 'I' for Inactive)
    1  A    between atoms: C_5  and  C_9
    2  A    between atoms: C_5  and  C_16
    3  A    between atoms: C_10  and  N_17
    4  A    between atoms: C_10  and  C_25
    5  A    between atoms: C_12  and  C_16
    6  A    between atoms: N_17  and  C_26
    7  A    between atoms: C_20  and  N_28
    8  A    between atoms: C_25  and  O_27
                            x       y       z     vdW  Elec       q    Type
                         _______ _______ _______ _____ _____    ______ ____

>  <TORSDO>
F 8

$$$$
