=
 OpenBabel11072413133D

 34 36  0  0  1  0  0  0  0  0999 V2000
  161.9300  206.1910  153.2330 C   0  0  0  0  0  2  0  0  0  0  0  0
  161.1830  208.3490  152.2520 C   0  0  0  0  0  2  0  0  0  0  0  0
  161.4940  206.1940  154.6960 C   0  0  0  0  0  2  0  0  0  0  0  0
  159.3810  210.2840  156.1260 C   0  0  0  0  0  3  0  0  0  0  0  0
  161.7510  210.9660  156.6070 C   0  0  0  0  0  1  0  0  0  0  0  0
  161.2920  207.5860  155.2030 C   0  0  0  0  0  0  0  0  0  0  0  0
  160.4800  211.2690  155.8330 C   0  0  1  0  0  3  0  0  0  0  0  0
  162.0560  208.0550  156.0310 O   0  0  0  0  0  0  0  0  0  0  0  0
  160.7390  211.5460  154.3440 C   0  0  1  0  0  3  0  0  0  0  0  0
  160.8920  206.8460  152.3170 C   0  0  1  0  0  3  0  0  0  0  0  0
  160.1750  208.3990  154.6210 C   0  0  1  0  0  3  0  0  0  0  0  0
  159.2500  209.0550  155.6080 C   0  0  0  0  0  3  0  0  0  0  0  0
  160.5220  209.1930  153.3520 C   0  0  1  0  0  3  0  0  0  0  0  0
  161.4390  210.3780  153.6400 C   0  0  0  0  0  2  0  0  0  0  0  0
  159.5000  212.0580  153.5920 C   0  0  2  0  0  3  0  0  0  0  0  0
  159.8000  212.2460  152.1130 C   0  0  0  0  0  1  0  0  0  0  0  0
  158.9280  213.6490  154.2700 S   0  0  0  0  0  0  0  0  0  0  0  0
  155.6780  211.4020  154.9160 N   0  0  0  0  0  0  0  0  0  0  0  0
  155.5580  209.9580  155.0030 C   0  0  0  0  0  1  0  0  0  0  0  0
  156.0510  213.3710  156.4240 C   0  0  0  0  0  2  0  0  0  0  0  0
  155.5600  211.9170  156.2820 C   0  0  0  0  0  2  0  0  0  0  0  0
  157.1780  213.1820  154.1420 C   0  0  2  0  0  3  0  0  0  0  0  0
  156.3350  214.0540  155.0820 C   0  0  1  0  0  3  0  0  0  0  0  0
  157.0220  211.6830  154.4250 C   0  0  0  0  0  2  0  0  0  0  0  0
  155.0380  214.4530  154.4030 C   0  0  0  0  0  1  0  0  0  0  0  0
  160.9600  206.2380  150.9130 C   0  0  2  0  0  3  0  0  0  0  0  0
  160.9930  204.7440  150.9860 C   0  0  0  0  0  0  0  0  0  0  0  0
  160.3810  204.0790  152.0420 O   0  0  0  0  0  1  0  0  0  0  0  0
  161.5750  204.0870  150.0840 O   0  0  0  0  0  0  0  0  0  0  0  0
  162.1000  206.6920  150.2390 O   0  0  0  0  0  0  0  0  0  0  0  0
  160.1400  206.6940  148.5070 O   0  0  0  0  0  1  0  0  0  0  0  0
  161.5760  207.1300  148.6860 P   0  0  0  0  0  0  0  0  0  0  0  0
  161.6730  208.8080  148.4970 O   0  0  0  0  0  1  0  0  0  0  0  0
  162.5350  206.3750  147.5130 O   0  0  0  0  0  0  0  0  0  0  0  0
  1  3  1  0  0  0  0
  2 10  1  0  0  0  0
  3  6  1  0  0  0  0
  6  8  2  0  0  0  0
  7  4  1  0  0  0  0
  7  5  1  6  0  0  0
  9 15  1  6  0  0  0
  9  7  1  0  0  0  0
 10 26  1  6  0  0  0
 10  1  1  0  0  0  0
 11  6  1  0  0  0  0
 11 12  1  1  0  0  0
 12  4  2  0  0  0  0
 13  2  1  6  0  0  0
 13 14  1  0  0  0  0
 13 11  1  0  0  0  0
 14  9  1  0  0  0  0
 15 16  1  6  0  0  0
 15 17  1  0  0  0  0
 18 19  1  0  0  0  0
 18 21  1  0  0  0  0
 21 20  1  0  0  0  0
 22 17  1  1  0  0  0
 22 24  1  0  0  0  0
 22 23  1  0  0  0  0
 23 25  1  6  0  0  0
 23 20  1  0  0  0  0
 24 18  1  0  0  0  0
 26 30  1  1  0  0  0
 26 27  1  0  0  0  0
 27 28  1  0  0  0  0
 29 27  2  0  0  0  0
 31 32  1  0  0  0  0
 32 30  1  0  0  0  0
 33 32  1  0  0  0  0
 34 32  2  0  0  0  0
M  END
>  <MODEL>
1

>  <REMARK>
 VINA RESULT:      -6.4      0.000      0.000
  Name = 
  7 active torsions:
  status: ('A' for Active; 'I' for Inactive)
    1  A    between atoms: C_5  and  S_19
    2  A    between atoms: C_5  and  C_21
    3  A    between atoms: C_7  and  C_20
    4  A    between atoms: C_13  and  S_19
    5  A    between atoms: P_18  and  O_27
    6  A    between atoms: C_20  and  C_22
    7  A    between atoms: C_20  and  O_27
                            x       y       z     vdW  Elec       q    Type
                         _______ _______ _______ _____ _____    ______ ____

>  <TORSDO>
F 7

$$$$
=
 OpenBabel11072413133D

 34 36  0  0  1  0  0  0  0  0999 V2000
  160.2950  208.6700  155.0060 C   0  0  0  0  0  2  0  0  0  0  0  0
  160.4520  209.0240  152.5510 C   0  0  0  0  0  2  0  0  0  0  0  0
  161.0370  207.3710  155.3160 C   0  0  0  0  0  2  0  0  0  0  0  0
  162.7340  205.0820  151.4280 C   0  0  0  0  0  3  0  0  0  0  0  0
  160.4510  204.0330  151.4430 C   0  0  0  0  0  1  0  0  0  0  0  0
  161.1220  206.4890  154.1120 C   0  0  0  0  0  0  0  0  0  0  0  0
  161.4540  204.8660  150.6660 C   0  0  1  0  0  3  0  0  0  0  0  0
  160.4950  205.4430  154.0710 O   0  0  0  0  0  0  0  0  0  0  0  0
  160.8310  206.1280  150.0480 C   0  0  1  0  0  3  0  0  0  0  0  0
  160.9870  209.4860  153.9110 C   0  0  1  0  0  3  0  0  0  0  0  0
  161.9380  206.9570  152.9440 C   0  0  1  0  0  3  0  0  0  0  0  0
  162.9410  205.9770  152.4040 C   0  0  0  0  0  3  0  0  0  0  0  0
  161.1970  207.8350  151.9240 C   0  0  1  0  0  3  0  0  0  0  0  0
  160.1890  207.0420  151.0980 C   0  0  0  0  0  2  0  0  0  0  0  0
  161.7750  206.8690  149.0880 C   0  0  2  0  0  3  0  0  0  0  0  0
  161.8520  208.3470  149.4340 C   0  0  0  0  0  1  0  0  0  0  0  0
  161.2170  206.7100  147.3610 S   0  0  0  0  0  0  0  0  0  0  0  0
  161.5140  202.7330  147.0040 N   0  0  0  0  0  0  0  0  0  0  0  0
  160.7650  201.6890  147.6800 C   0  0  0  0  0  1  0  0  0  0  0  0
  161.4060  204.0870  144.8960 C   0  0  0  0  0  2  0  0  0  0  0  0
  161.0100  202.7910  145.6300 C   0  0  0  0  0  2  0  0  0  0  0  0
  162.0650  205.1200  147.1350 C   0  0  2  0  0  3  0  0  0  0  0  0
  162.4340  204.9320  145.6570 C   0  0  1  0  0  3  0  0  0  0  0  0
  161.1870  203.9850  147.6760 C   0  0  0  0  0  2  0  0  0  0  0  0
  163.8180  204.3210  145.5370 C   0  0  0  0  0  1  0  0  0  0  0  0
  160.7080  210.9790  154.1020 C   0  0  2  0  0  3  0  0  0  0  0  0
  161.2390  211.4500  155.4200 C   0  0  0  0  0  0  0  0  0  0  0  0
  162.5070  211.0700  155.8420 O   0  0  0  0  0  0  0  0  0  0  0  0
  160.5350  212.1990  156.1460 O   0  0  0  0  0  1  0  0  0  0  0  0
  159.3320  211.2310  154.0440 O   0  0  0  0  0  0  0  0  0  0  0  0
  157.8920  212.2130  152.0940 O   0  0  0  0  0  1  0  0  0  0  0  0
  159.1370  212.4760  152.9080 P   0  0  0  0  0  0  0  0  0  0  0  0
  158.9780  213.9610  153.7020 O   0  0  0  0  0  1  0  0  0  0  0  0
  160.4750  212.5330  151.8720 O   0  0  0  0  0  0  0  0  0  0  0  0
  1  3  1  0  0  0  0
  2 10  1  0  0  0  0
  4 12  2  0  0  0  0
  6  3  1  0  0  0  0
  7  4  1  0  0  0  0
  7  5  1  1  0  0  0
  8  6  2  0  0  0  0
  9 15  1  1  0  0  0
  9  7  1  0  0  0  0
  9 14  1  0  0  0  0
 10 26  1  1  0  0  0
 10  1  1  0  0  0  0
 11 12  1  6  0  0  0
 11  6  1  0  0  0  0
 13 14  1  1  0  0  0
 13  2  1  0  0  0  0
 13 11  1  0  0  0  0
 15 16  1  1  0  0  0
 17 15  1  0  0  0  0
 18 24  1  0  0  0  0
 18 19  1  0  0  0  0
 20 21  1  0  0  0  0
 20 23  1  0  0  0  0
 21 18  1  0  0  0  0
 22 17  1  6  0  0  0
 22 24  1  0  0  0  0
 23 25  1  1  0  0  0
 23 22  1  0  0  0  0
 26 30  1  1  0  0  0
 26 27  1  0  0  0  0
 27 28  2  0  0  0  0
 27 29  1  0  0  0  0
 31 32  1  0  0  0  0
 32 33  1  0  0  0  0
 32 30  1  0  0  0  0
 34 32  2  0  0  0  0
M  END
>  <MODEL>
2

>  <REMARK>
 VINA RESULT:      -5.3      4.564      8.737
  Name = 
  7 active torsions:
  status: ('A' for Active; 'I' for Inactive)
    1  A    between atoms: C_5  and  S_19
    2  A    between atoms: C_5  and  C_21
    3  A    between atoms: C_7  and  C_20
    4  A    between atoms: C_13  and  S_19
    5  A    between atoms: P_18  and  O_27
    6  A    between atoms: C_20  and  C_22
    7  A    between atoms: C_20  and  O_27
                            x       y       z     vdW  Elec       q    Type
                         _______ _______ _______ _____ _____    ______ ____

>  <TORSDO>
F 7

$$$$
=
 OpenBabel11072413133D

 34 36  0  0  1  0  0  0  0  0999 V2000
  162.0860  206.2440  153.2960 C   0  0  0  0  0  2  0  0  0  0  0  0
  161.4640  208.3510  152.1340 C   0  0  0  0  0  2  0  0  0  0  0  0
  161.4870  206.3170  154.6990 C   0  0  0  0  0  2  0  0  0  0  0  0
  159.2380  210.4660  155.6800 C   0  0  0  0  0  3  0  0  0  0  0  0
  161.5400  211.1760  156.3940 C   0  0  0  0  0  1  0  0  0  0  0  0
  161.2320  207.7310  155.1120 C   0  0  0  0  0  0  0  0  0  0  0  0
  160.3670  211.4390  155.4670 C   0  0  1  0  0  3  0  0  0  0  0  0
  161.8990  208.2410  155.9980 O   0  0  0  0  0  0  0  0  0  0  0  0
  160.7950  211.6450  154.0050 C   0  0  1  0  0  3  0  0  0  0  0  0
  161.1620  206.8520  152.2370 C   0  0  1  0  0  3  0  0  0  0  0  0
  160.1920  208.5130  154.3670 C   0  0  1  0  0  3  0  0  0  0  0  0
  159.1630  209.2130  155.2100 C   0  0  0  0  0  3  0  0  0  0  0  0
  160.6840  209.2450  153.1090 C   0  0  1  0  0  3  0  0  0  0  0  0
  161.5670  210.4450  153.4430 C   0  0  0  0  0  2  0  0  0  0  0  0
  159.6510  212.1170  153.0930 C   0  0  2  0  0  3  0  0  0  0  0  0
  160.1290  212.2720  151.6580 C   0  0  0  0  0  1  0  0  0  0  0  0
  158.9790  213.7150  153.6530 S   0  0  0  0  0  0  0  0  0  0  0  0
  155.5820  211.9040  154.7520 N   0  0  0  0  0  0  0  0  0  0  0  0
  155.3930  210.6760  155.5040 C   0  0  0  0  0  1  0  0  0  0  0  0
  155.7710  214.3710  155.1600 C   0  0  0  0  0  2  0  0  0  0  0  0
  155.2550  213.0070  155.6580 C   0  0  0  0  0  2  0  0  0  0  0  0
  157.2590  213.1600  153.4760 C   0  0  2  0  0  3  0  0  0  0  0  0
  156.3040  214.3360  153.7230 C   0  0  1  0  0  3  0  0  0  0  0  0
  156.9990  211.9770  154.4180 C   0  0  0  0  0  2  0  0  0  0  0  0
  155.1570  214.2950  152.7310 C   0  0  0  0  0  1  0  0  0  0  0  0
  161.3870  206.1780  150.8820 C   0  0  2  0  0  3  0  0  0  0  0  0
  161.5520  207.2030  149.8040 C   0  0  0  0  0  0  0  0  0  0  0  0
  162.7950  207.7750  149.5640 O   0  0  0  0  0  1  0  0  0  0  0  0
  160.5600  207.5440  149.1080 O   0  0  0  0  0  0  0  0  0  0  0  0
  160.3060  205.3460  150.5640 O   0  0  0  0  0  0  0  0  0  0  0  0
  162.0360  203.4820  151.1780 O   0  0  0  0  0  1  0  0  0  0  0  0
  160.9840  203.8440  150.1570 P   0  0  0  0  0  0  0  0  0  0  0  0
  159.7830  202.6530  150.1520 O   0  0  0  0  0  1  0  0  0  0  0  0
  161.7020  203.9250  148.6260 O   0  0  0  0  0  0  0  0  0  0  0  0
  1  3  1  0  0  0  0
  2 10  1  0  0  0  0
  3  6  1  0  0  0  0
  6  8  2  0  0  0  0
  7  4  1  0  0  0  0
  7  5  1  1  0  0  0
  9 15  1  6  0  0  0
  9  7  1  0  0  0  0
 10 26  1  6  0  0  0
 10  1  1  0  0  0  0
 11  6  1  0  0  0  0
 11 12  1  1  0  0  0
 12  4  2  0  0  0  0
 13  2  1  6  0  0  0
 13 14  1  0  0  0  0
 13 11  1  0  0  0  0
 14  9  1  0  0  0  0
 15 16  1  6  0  0  0
 15 17  1  0  0  0  0
 18 19  1  0  0  0  0
 18 21  1  0  0  0  0
 20 21  1  0  0  0  0
 22 17  1  1  0  0  0
 22 23  1  0  0  0  0
 22 24  1  0  0  0  0
 23 25  1  6  0  0  0
 23 20  1  0  0  0  0
 24 18  1  0  0  0  0
 26 27  1  6  0  0  0
 28 27  1  0  0  0  0
 29 27  2  0  0  0  0
 30 26  1  0  0  0  0
 32 30  1  0  0  0  0
 32 31  1  0  0  0  0
 33 32  1  0  0  0  0
 34 32  2  0  0  0  0
M  END
>  <MODEL>
3

>  <REMARK>
 VINA RESULT:      -5.2      1.121      2.116
  Name = 
  7 active torsions:
  status: ('A' for Active; 'I' for Inactive)
    1  A    between atoms: C_5  and  S_19
    2  A    between atoms: C_5  and  C_21
    3  A    between atoms: C_7  and  C_20
    4  A    between atoms: C_13  and  S_19
    5  A    between atoms: P_18  and  O_27
    6  A    between atoms: C_20  and  C_22
    7  A    between atoms: C_20  and  O_27
                            x       y       z     vdW  Elec       q    Type
                         _______ _______ _______ _____ _____    ______ ____

>  <TORSDO>
F 7

$$$$
=
 OpenBabel11072413133D

 34 36  0  0  1  0  0  0  0  0999 V2000
  161.9460  206.5220  153.3770 C   0  0  0  0  0  2  0  0  0  0  0  0
  161.0300  208.5500  152.2720 C   0  0  0  0  0  2  0  0  0  0  0  0
  161.5410  206.5970  154.8480 C   0  0  0  0  0  2  0  0  0  0  0  0
  159.1740  210.6200  156.0500 C   0  0  0  0  0  3  0  0  0  0  0  0
  161.5000  211.4950  156.4240 C   0  0  0  0  0  1  0  0  0  0  0  0
  161.2510  208.0020  155.2650 C   0  0  0  0  0  0  0  0  0  0  0  0
  160.1960  211.6560  155.6630 C   0  0  1  0  0  3  0  0  0  0  0  0
  161.9970  208.5790  156.0400 O   0  0  0  0  0  0  0  0  0  0  0  0
  160.4040  211.8470  154.1530 C   0  0  1  0  0  3  0  0  0  0  0  0
  160.8470  207.0390  152.4450 C   0  0  1  0  0  3  0  0  0  0  0  0
  160.0690  208.6950  154.6560 C   0  0  1  0  0  3  0  0  0  0  0  0
  159.1200  209.3520  155.6190 C   0  0  0  0  0  3  0  0  0  0  0  0
  160.3340  209.4210  153.3280 C   0  0  1  0  0  3  0  0  0  0  0  0
  161.1710  210.6830  153.5130 C   0  0  0  0  0  2  0  0  0  0  0  0
  159.1180  212.2190  153.3990 C   0  0  2  0  0  3  0  0  0  0  0  0
  158.7580  211.1520  152.3770 C   0  0  0  0  0  1  0  0  0  0  0  0
  159.3000  213.8110  152.5310 S   0  0  0  0  0  0  0  0  0  0  0  0
  158.5390  213.4260  148.6190 N   0  0  0  0  0  0  0  0  0  0  0  0
  157.3460  213.7810  147.8730 C   0  0  0  0  0  1  0  0  0  0  0  0
  160.7360  214.4380  149.2840 C   0  0  0  0  0  2  0  0  0  0  0  0
  159.5540  214.4310  148.2950 C   0  0  0  0  0  2  0  0  0  0  0  0
  159.3550  213.0200  150.8960 C   0  0  2  0  0  3  0  0  0  0  0  0
  160.7290  213.2490  150.2530 C   0  0  1  0  0  3  0  0  0  0  0  0
  158.2000  213.5410  150.0320 C   0  0  0  0  0  2  0  0  0  0  0  0
  161.1950  211.9880  149.5500 C   0  0  0  0  0  1  0  0  0  0  0  0
  160.9290  206.3420  151.0850 C   0  0  2  0  0  3  0  0  0  0  0  0
  160.9420  204.8550  151.2540 C   0  0  0  0  0  0  0  0  0  0  0  0
  159.7990  204.1870  151.6760 O   0  0  0  0  0  1  0  0  0  0  0  0
  161.9910  204.2060  151.0070 O   0  0  0  0  0  0  0  0  0  0  0  0
  162.0860  206.7370  150.4030 O   0  0  0  0  0  0  0  0  0  0  0  0
  160.1650  206.6300  148.6300 O   0  0  0  0  0  1  0  0  0  0  0  0
  161.5900  207.0950  148.8200 P   0  0  0  0  0  0  0  0  0  0  0  0
  161.6680  208.7650  148.5560 O   0  0  0  0  0  1  0  0  0  0  0  0
  162.5860  206.3030  147.7040 O   0  0  0  0  0  0  0  0  0  0  0  0
  1  3  1  0  0  0  0
  2 10  1  0  0  0  0
  3  6  1  0  0  0  0
  6  8  2  0  0  0  0
  7  4  1  0  0  0  0
  7  5  1  1  0  0  0
  9 15  1  6  0  0  0
  9  7  1  0  0  0  0
 10 26  1  6  0  0  0
 10  1  1  0  0  0  0
 11  6  1  0  0  0  0
 11 12  1  1  0  0  0
 12  4  2  0  0  0  0
 13  2  1  6  0  0  0
 13 14  1  0  0  0  0
 13 11  1  0  0  0  0
 14  9  1  0  0  0  0
 15 16  1  6  0  0  0
 17 15  1  0  0  0  0
 18 24  1  0  0  0  0
 19 18  1  0  0  0  0
 20 23  1  0  0  0  0
 21 18  1  0  0  0  0
 21 20  1  0  0  0  0
 22 17  1  1  0  0  0
 23 25  1  6  0  0  0
 23 22  1  0  0  0  0
 24 22  1  0  0  0  0
 26 30  1  1  0  0  0
 26 27  1  0  0  0  0
 27 28  1  0  0  0  0
 29 27  2  0  0  0  0
 31 32  1  0  0  0  0
 32 30  1  0  0  0  0
 33 32  1  0  0  0  0
 34 32  2  0  0  0  0
M  END
>  <MODEL>
4

>  <REMARK>
 VINA RESULT:      -4.9      2.134      3.601
  Name = 
  7 active torsions:
  status: ('A' for Active; 'I' for Inactive)
    1  A    between atoms: C_5  and  S_19
    2  A    between atoms: C_5  and  C_21
    3  A    between atoms: C_7  and  C_20
    4  A    between atoms: C_13  and  S_19
    5  A    between atoms: P_18  and  O_27
    6  A    between atoms: C_20  and  C_22
    7  A    between atoms: C_20  and  O_27
                            x       y       z     vdW  Elec       q    Type
                         _______ _______ _______ _____ _____    ______ ____

>  <TORSDO>
F 7

$$$$
=
 OpenBabel11072413133D

 34 36  0  0  1  0  0  0  0  0999 V2000
  162.3570  206.3950  151.9360 C   0  0  0  0  0  2  0  0  0  0  0  0
  161.6860  208.7870  151.8720 C   0  0  0  0  0  2  0  0  0  0  0  0
  161.7770  205.8050  153.2200 C   0  0  0  0  0  2  0  0  0  0  0  0
  159.4800  208.9980  156.0070 C   0  0  0  0  0  3  0  0  0  0  0  0
  161.7810  209.3480  156.9530 C   0  0  0  0  0  1  0  0  0  0  0  0
  161.5070  206.8670  154.2360 C   0  0  0  0  0  0  0  0  0  0  0  0
  160.5910  209.9820  156.2560 C   0  0  1  0  0  3  0  0  0  0  0  0
  162.1780  206.9280  155.2530 O   0  0  0  0  0  0  0  0  0  0  0  0
  160.9950  210.8430  155.0490 C   0  0  1  0  0  3  0  0  0  0  0  0
  161.4080  207.4020  151.2790 C   0  0  1  0  0  3  0  0  0  0  0  0
  160.4450  207.8820  153.9390 C   0  0  1  0  0  3  0  0  0  0  0  0
  159.4170  208.0990  155.0150 C   0  0  0  0  0  3  0  0  0  0  0  0
  160.9080  209.1200  153.1540 C   0  0  1  0  0  3  0  0  0  0  0  0
  161.7770  210.0500  153.9950 C   0  0  0  0  0  2  0  0  0  0  0  0
  159.8310  211.6580  154.4610 C   0  0  2  0  0  3  0  0  0  0  0  0
  160.1500  212.1220  153.0500 C   0  0  0  0  0  1  0  0  0  0  0  0
  159.4720  213.1240  155.4820 S   0  0  0  0  0  0  0  0  0  0  0  0
  155.5980  213.4450  156.4410 N   0  0  0  0  0  0  0  0  0  0  0  0
  154.9310  214.4400  157.2600 C   0  0  0  0  0  1  0  0  0  0  0  0
  156.1730  213.0400  154.0330 C   0  0  0  0  0  2  0  0  0  0  0  0
  155.2500  213.7410  155.0500 C   0  0  0  0  0  2  0  0  0  0  0  0
  157.8130  212.5280  155.9210 C   0  0  2  0  0  3  0  0  0  0  0  0
  157.1020  211.9990  154.6680 C   0  0  1  0  0  3  0  0  0  0  0  0
  157.0310  213.6480  156.6190 C   0  0  0  0  0  2  0  0  0  0  0  0
  156.3350  210.7320  154.9980 C   0  0  0  0  0  1  0  0  0  0  0  0
  161.6240  207.4290  149.7640 C   0  0  2  0  0  3  0  0  0  0  0  0
  161.9550  208.8140  149.3030 C   0  0  0  0  0  0  0  0  0  0  0  0
  161.4100  209.9170  149.9480 O   0  0  0  0  0  1  0  0  0  0  0  0
  162.7350  208.9790  148.3290 O   0  0  0  0  0  0  0  0  0  0  0  0
  160.4750  206.9840  149.0980 O   0  0  0  0  0  0  0  0  0  0  0  0
  160.1790  205.9780  146.7020 O   0  0  0  0  0  0  0  0  0  0  0  0
  161.0130  205.8500  147.9550 P   0  0  0  0  0  0  0  0  0  0  0  0
  162.6350  206.1410  147.5750 O   0  0  0  0  0  1  0  0  0  0  0  0
  160.8520  204.2820  148.5710 O   0  0  0  0  0  1  0  0  0  0  0  0
  1  3  1  0  0  0  0
  3  6  1  0  0  0  0
  4  7  1  0  0  0  0
  6  8  2  0  0  0  0
  7  5  1  6  0  0  0
  9 15  1  6  0  0  0
  9  7  1  0  0  0  0
 10 26  1  6  0  0  0
 10  2  1  0  0  0  0
 10  1  1  0  0  0  0
 11  6  1  0  0  0  0
 11 12  1  1  0  0  0
 12  4  2  0  0  0  0
 13  2  1  6  0  0  0
 13 11  1  0  0  0  0
 13 14  1  0  0  0  0
 14  9  1  0  0  0  0
 15 16  1  6  0  0  0
 15 17  1  0  0  0  0
 18 24  1  0  0  0  0
 18 19  1  0  0  0  0
 20 23  1  0  0  0  0
 20 21  1  0  0  0  0
 21 18  1  0  0  0  0
 22 17  1  6  0  0  0
 22 24  1  0  0  0  0
 23 25  1  1  0  0  0
 23 22  1  0  0  0  0
 26 30  1  6  0  0  0
 27 26  1  0  0  0  0
 27 28  1  0  0  0  0
 29 27  2  0  0  0  0
 31 32  2  0  0  0  0
 32 34  1  0  0  0  0
 32 30  1  0  0  0  0
 33 32  1  0  0  0  0
M  END
>  <MODEL>
5

>  <REMARK>
 VINA RESULT:      -4.6      1.375      2.540
  Name = 
  7 active torsions:
  status: ('A' for Active; 'I' for Inactive)
    1  A    between atoms: C_5  and  S_19
    2  A    between atoms: C_5  and  C_21
    3  A    between atoms: C_7  and  C_20
    4  A    between atoms: C_13  and  S_19
    5  A    between atoms: P_18  and  O_27
    6  A    between atoms: C_20  and  C_22
    7  A    between atoms: C_20  and  O_27
                            x       y       z     vdW  Elec       q    Type
                         _______ _______ _______ _____ _____    ______ ____

>  <TORSDO>
F 7

$$$$
=
 OpenBabel11072413133D

 34 36  0  0  1  0  0  0  0  0999 V2000
  160.2000  208.3930  155.3450 C   0  0  0  0  0  2  0  0  0  0  0  0
  160.6810  209.0020  152.9840 C   0  0  0  0  0  2  0  0  0  0  0  0
  160.7390  206.9800  155.5570 C   0  0  0  0  0  2  0  0  0  0  0  0
  162.5840  204.9460  151.5960 C   0  0  0  0  0  3  0  0  0  0  0  0
  160.2050  204.2170  151.2480 C   0  0  0  0  0  1  0  0  0  0  0  0
  160.8550  206.2390  154.2650 C   0  0  0  0  0  0  0  0  0  0  0  0
  161.3840  204.9920  150.6890 C   0  0  1  0  0  3  0  0  0  0  0  0
  160.1150  205.2980  154.0280 O   0  0  0  0  0  0  0  0  0  0  0  0
  160.9940  206.3880  150.1790 C   0  0  1  0  0  3  0  0  0  0  0  0
  161.1070  209.2300  154.4390 C   0  0  1  0  0  3  0  0  0  0  0  0
  161.8500  206.7240  153.2540 C   0  0  1  0  0  3  0  0  0  0  0  0
  162.7840  205.6870  152.6950 C   0  0  0  0  0  3  0  0  0  0  0  0
  161.3440  207.8050  152.2870 C   0  0  1  0  0  3  0  0  0  0  0  0
  160.3490  207.2540  151.2690 C   0  0  0  0  0  2  0  0  0  0  0  0
  162.1250  207.1020  149.4220 C   0  0  2  0  0  3  0  0  0  0  0  0
  162.5920  208.3360  150.1770 C   0  0  0  0  0  1  0  0  0  0  0  0
  161.5830  207.6150  147.7600 S   0  0  0  0  0  0  0  0  0  0  0  0
  160.7810  204.6170  145.2300 N   0  0  0  0  0  0  0  0  0  0  0  0
  160.0750  204.6450  143.9620 C   0  0  0  0  0  1  0  0  0  0  0  0
  163.1240  204.8070  146.1060 C   0  0  0  0  0  2  0  0  0  0  0  0
  162.2040  204.4640  144.9180 C   0  0  0  0  0  2  0  0  0  0  0  0
  161.1470  205.9190  147.2760 C   0  0  2  0  0  3  0  0  0  0  0  0
  162.3700  205.0040  147.4260 C   0  0  1  0  0  3  0  0  0  0  0  0
  160.5760  205.9200  145.8530 C   0  0  0  0  0  2  0  0  0  0  0  0
  161.9540  203.6660  148.0060 C   0  0  0  0  0  1  0  0  0  0  0  0
  160.9900  210.7140  154.7920 C   0  0  2  0  0  3  0  0  0  0  0  0
  161.9630  211.0790  155.8690 C   0  0  0  0  0  0  0  0  0  0  0  0
  161.5410  211.7970  156.9820 O   0  0  0  0  0  1  0  0  0  0  0  0
  163.1670  210.7280  155.7690 O   0  0  0  0  0  0  0  0  0  0  0  0
  159.6920  211.0140  155.2240 O   0  0  0  0  0  0  0  0  0  0  0  0
  157.7140  212.0970  153.8990 O   0  0  0  0  0  1  0  0  0  0  0  0
  159.1680  212.3040  154.2530 P   0  0  0  0  0  0  0  0  0  0  0  0
  159.3310  213.7610  155.0960 O   0  0  0  0  0  1  0  0  0  0  0  0
  160.0820  212.3710  152.8310 O   0  0  0  0  0  0  0  0  0  0  0  0
  1  3  1  0  0  0  0
  2 10  1  0  0  0  0
  4 12  2  0  0  0  0
  6  3  1  0  0  0  0
  7  5  1  1  0  0  0
  7  4  1  0  0  0  0
  8  6  2  0  0  0  0
  9 15  1  1  0  0  0
  9  7  1  0  0  0  0
  9 14  1  0  0  0  0
 10 26  1  1  0  0  0
 10  1  1  0  0  0  0
 11 12  1  6  0  0  0
 11  6  1  0  0  0  0
 13 14  1  6  0  0  0
 13  2  1  0  0  0  0
 13 11  1  0  0  0  0
 15 16  1  1  0  0  0
 17 15  1  0  0  0  0
 18 24  1  0  0  0  0
 19 18  1  0  0  0  0
 20 23  1  0  0  0  0
 21 18  1  0  0  0  0
 21 20  1  0  0  0  0
 22 23  1  0  0  0  0
 22 17  1  6  0  0  0
 23 25  1  6  0  0  0
 24 22  1  0  0  0  0
 26 30  1  1  0  0  0
 26 27  1  0  0  0  0
 27 28  1  0  0  0  0
 29 27  2  0  0  0  0
 31 32  1  0  0  0  0
 32 33  1  0  0  0  0
 32 30  1  0  0  0  0
 34 32  2  0  0  0  0
M  END
>  <MODEL>
6

>  <REMARK>
 VINA RESULT:      -4.3      4.628      8.591
  Name = 
  7 active torsions:
  status: ('A' for Active; 'I' for Inactive)
    1  A    between atoms: C_5  and  S_19
    2  A    between atoms: C_5  and  C_21
    3  A    between atoms: C_7  and  C_20
    4  A    between atoms: C_13  and  S_19
    5  A    between atoms: P_18  and  O_27
    6  A    between atoms: C_20  and  C_22
    7  A    between atoms: C_20  and  O_27
                            x       y       z     vdW  Elec       q    Type
                         _______ _______ _______ _____ _____    ______ ____

>  <TORSDO>
F 7

$$$$
=
 OpenBabel11072413133D

 34 36  0  0  1  0  0  0  0  0999 V2000
  161.3880  202.1560  148.3380 C   0  0  0  0  0  2  0  0  0  0  0  0
  161.6480  204.6150  148.0890 C   0  0  0  0  0  2  0  0  0  0  0  0
  160.8720  201.9060  149.7540 C   0  0  0  0  0  2  0  0  0  0  0  0
  160.4570  205.8830  152.4450 C   0  0  0  0  0  3  0  0  0  0  0  0
  162.8540  205.3730  152.9990 C   0  0  0  0  0  1  0  0  0  0  0  0
  161.2000  203.0440  150.6650 C   0  0  0  0  0  0  0  0  0  0  0  0
  161.8780  206.3770  152.4120 C   0  0  1  0  0  3  0  0  0  0  0  0
  162.0170  202.8980  151.5600 O   0  0  0  0  0  0  0  0  0  0  0  0
  162.3470  206.9500  151.0650 C   0  0  1  0  0  3  0  0  0  0  0  0
  160.7770  203.4120  147.7110 C   0  0  1  0  0  3  0  0  0  0  0  0
  160.5530  204.3710  150.4070 C   0  0  1  0  0  3  0  0  0  0  0  0
  159.8890  205.0240  151.5870 C   0  0  0  0  0  3  0  0  0  0  0  0
  161.2910  205.2910  149.4210 C   0  0  1  0  0  3  0  0  0  0  0  0
  162.5780  205.8610  150.0110 C   0  0  0  0  0  2  0  0  0  0  0  0
  161.4820  208.1150  150.5600 C   0  0  2  0  0  3  0  0  0  0  0  0
  161.5800  208.2510  149.0490 C   0  0  0  0  0  1  0  0  0  0  0  0
  161.9960  209.6920  151.3150 S   0  0  0  0  0  0  0  0  0  0  0  0
  160.2620  209.5570  154.9220 N   0  0  0  0  0  0  0  0  0  0  0  0
  160.6450  208.8030  156.1010 C   0  0  0  0  0  1  0  0  0  0  0  0
  160.6530  211.8150  153.9010 C   0  0  0  0  0  2  0  0  0  0  0  0
  160.6250  210.9530  155.1780 C   0  0  0  0  0  2  0  0  0  0  0  0
  160.6170  209.6830  152.4980 C   0  0  2  0  0  3  0  0  0  0  0  0
  160.0710  211.1060  152.6720 C   0  0  1  0  0  3  0  0  0  0  0  0
  161.0760  209.0570  153.8200 C   0  0  0  0  0  2  0  0  0  0  0  0
  158.5560  211.0810  152.7410 C   0  0  0  0  0  1  0  0  0  0  0  0
  160.7120  203.2710  146.1890 C   0  0  2  0  0  3  0  0  0  0  0  0
  160.4630  201.8470  145.8010 C   0  0  0  0  0  0  0  0  0  0  0  0
  161.2040  200.8230  146.3780 O   0  0  0  0  0  1  0  0  0  0  0  0
  159.5740  201.5760  144.9520 O   0  0  0  0  0  0  0  0  0  0  0  0
  161.9100  203.7030  145.6060 O   0  0  0  0  0  0  0  0  0  0  0  0
  162.6540  206.2040  145.4190 O   0  0  0  0  0  1  0  0  0  0  0  0
  161.5840  205.2400  144.9640 P   0  0  0  0  0  0  0  0  0  0  0  0
  161.5820  205.1700  143.2740 O   0  0  0  0  0  0  0  0  0  0  0  0
  160.0770  205.7890  145.5060 O   0  0  0  0  0  1  0  0  0  0  0  0
  1  3  1  0  0  0  0
  3  6  1  0  0  0  0
  6  8  2  0  0  0  0
  7  4  1  0  0  0  0
  7  5  1  6  0  0  0
  9 15  1  6  0  0  0
  9  7  1  0  0  0  0
 10 26  1  6  0  0  0
 10  2  1  0  0  0  0
 10  1  1  0  0  0  0
 11  6  1  0  0  0  0
 11 12  1  1  0  0  0
 12  4  2  0  0  0  0
 13  2  1  6  0  0  0
 13 14  1  0  0  0  0
 13 11  1  0  0  0  0
 14  9  1  0  0  0  0
 15 16  1  6  0  0  0
 15 17  1  0  0  0  0
 18 21  1  0  0  0  0
 18 19  1  0  0  0  0
 20 21  1  0  0  0  0
 22 17  1  6  0  0  0
 22 23  1  0  0  0  0
 22 24  1  0  0  0  0
 23 25  1  1  0  0  0
 23 20  1  0  0  0  0
 24 18  1  0  0  0  0
 26 30  1  6  0  0  0
 27 26  1  0  0  0  0
 27 28  1  0  0  0  0
 29 27  2  0  0  0  0
 32 31  1  0  0  0  0
 32 34  1  0  0  0  0
 32 30  1  0  0  0  0
 33 32  2  0  0  0  0
M  END
>  <MODEL>
7

>  <REMARK>
 VINA RESULT:      -4.3      3.126      5.661
  Name = 
  7 active torsions:
  status: ('A' for Active; 'I' for Inactive)
    1  A    between atoms: C_5  and  S_19
    2  A    between atoms: C_5  and  C_21
    3  A    between atoms: C_7  and  C_20
    4  A    between atoms: C_13  and  S_19
    5  A    between atoms: P_18  and  O_27
    6  A    between atoms: C_20  and  C_22
    7  A    between atoms: C_20  and  O_27
                            x       y       z     vdW  Elec       q    Type
                         _______ _______ _______ _____ _____    ______ ____

>  <TORSDO>
F 7

$$$$
=
 OpenBabel11072413133D

 34 36  0  0  1  0  0  0  0  0999 V2000
  160.3240  208.9420  154.1000 C   0  0  0  0  0  2  0  0  0  0  0  0
  160.2090  208.5260  151.6530 C   0  0  0  0  0  2  0  0  0  0  0  0
  161.2580  207.8850  154.6860 C   0  0  0  0  0  2  0  0  0  0  0  0
  162.8860  204.6790  151.4770 C   0  0  0  0  0  3  0  0  0  0  0  0
  160.7750  203.4650  152.0960 C   0  0  0  0  0  1  0  0  0  0  0  0
  161.3510  206.6850  153.8000 C   0  0  0  0  0  0  0  0  0  0  0  0
  161.5830  204.1100  150.9840 C   0  0  1  0  0  3  0  0  0  0  0  0
  160.8680  205.6220  154.1550 O   0  0  0  0  0  0  0  0  0  0  0  0
  160.7440  205.0470  150.1020 C   0  0  1  0  0  3  0  0  0  0  0  0
  160.7980  209.4410  152.7320 C   0  0  1  0  0  3  0  0  0  0  0  0
  161.9870  206.8450  152.4520 C   0  0  1  0  0  3  0  0  0  0  0  0
  163.0590  205.8500  152.1060 C   0  0  0  0  0  3  0  0  0  0  0  0
  161.0460  207.2820  151.3190 C   0  0  1  0  0  3  0  0  0  0  0  0
  160.0820  206.1740  150.9030 C   0  0  0  0  0  2  0  0  0  0  0  0
  161.4890  205.5430  148.8520 C   0  0  2  0  0  3  0  0  0  0  0  0
  160.5160  206.0830  147.8170 C   0  0  0  0  0  1  0  0  0  0  0  0
  162.4580  204.2020  148.0880 S   0  0  0  0  0  0  0  0  0  0  0  0
  160.1400  201.6180  146.0920 N   0  0  0  0  0  0  0  0  0  0  0  0
  159.9540  201.4620  144.6610 C   0  0  0  0  0  1  0  0  0  0  0  0
  161.5840  200.7090  147.9310 C   0  0  0  0  0  2  0  0  0  0  0  0
  160.9670  200.4930  146.5350 C   0  0  0  0  0  2  0  0  0  0  0  0
  160.9850  203.1850  147.7800 C   0  0  2  0  0  3  0  0  0  0  0  0
  161.0230  201.9320  148.6650 C   0  0  1  0  0  3  0  0  0  0  0  0
  160.8900  202.8540  146.2860 C   0  0  0  0  0  2  0  0  0  0  0  0
  159.6390  201.6360  149.2120 C   0  0  0  0  0  1  0  0  0  0  0  0
  160.3400  210.8830  152.5030 C   0  0  2  0  0  3  0  0  0  0  0  0
  160.9610  211.4420  151.2610 C   0  0  0  0  0  0  0  0  0  0  0  0
  162.0050  210.7730  150.6360 O   0  0  0  0  0  0  0  0  0  0  0  0
  160.5300  212.5220  150.7780 O   0  0  0  0  0  1  0  0  0  0  0  0
  160.6910  211.6870  153.5940 O   0  0  0  0  0  0  0  0  0  0  0  0
  158.0770  211.6110  153.5120 O   0  0  0  0  0  0  0  0  0  0  0  0
  159.2300  212.2920  154.2120 P   0  0  0  0  0  0  0  0  0  0  0  0
  159.1340  211.9790  155.8720 O   0  0  0  0  0  1  0  0  0  0  0  0
  159.1320  213.9610  153.9470 O   0  0  0  0  0  1  0  0  0  0  0  0
  1  3  1  0  0  0  0
  2 10  1  0  0  0  0
  4 12  2  0  0  0  0
  6  8  2  0  0  0  0
  6  3  1  0  0  0  0
  7  4  1  0  0  0  0
  7  5  1  1  0  0  0
  9 15  1  6  0  0  0
  9 14  1  0  0  0  0
  9  7  1  0  0  0  0
 10 26  1  6  0  0  0
 10  1  1  0  0  0  0
 11 12  1  6  0  0  0
 11  6  1  0  0  0  0
 13 14  1  1  0  0  0
 13  2  1  0  0  0  0
 13 11  1  0  0  0  0
 15 16  1  6  0  0  0
 17 15  1  0  0  0  0
 18 24  1  0  0  0  0
 18 21  1  0  0  0  0
 19 18  1  0  0  0  0
 20 23  1  0  0  0  0
 21 20  1  0  0  0  0
 22 17  1  6  0  0  0
 22 23  1  0  0  0  0
 23 25  1  6  0  0  0
 24 22  1  0  0  0  0
 26 27  1  6  0  0  0
 26 30  1  0  0  0  0
 28 27  2  0  0  0  0
 29 27  1  0  0  0  0
 30 32  1  0  0  0  0
 31 32  2  0  0  0  0
 32 33  1  0  0  0  0
 34 32  1  0  0  0  0
M  END
>  <MODEL>
8

>  <REMARK>
 VINA RESULT:      -4.2      4.787      9.134
  Name = 
  7 active torsions:
  status: ('A' for Active; 'I' for Inactive)
    1  A    between atoms: C_5  and  S_19
    2  A    between atoms: C_5  and  C_21
    3  A    between atoms: C_7  and  C_20
    4  A    between atoms: C_13  and  S_19
    5  A    between atoms: P_18  and  O_27
    6  A    between atoms: C_20  and  C_22
    7  A    between atoms: C_20  and  O_27
                            x       y       z     vdW  Elec       q    Type
                         _______ _______ _______ _____ _____    ______ ____

>  <TORSDO>
F 7

$$$$
=
 OpenBabel11072413133D

 34 36  0  0  1  0  0  0  0  0999 V2000
  161.5030  210.3900  153.9610 C   0  0  0  0  0  2  0  0  0  0  0  0
  161.3450  207.9220  154.2020 C   0  0  0  0  0  2  0  0  0  0  0  0
  161.3470  210.7010  152.4740 C   0  0  0  0  0  2  0  0  0  0  0  0
  160.9520  206.8060  149.6630 C   0  0  0  0  0  3  0  0  0  0  0  0
  163.4600  206.9540  149.6490 C   0  0  0  0  0  1  0  0  0  0  0  0
  161.6960  209.5200  151.6280 C   0  0  0  0  0  0  0  0  0  0  0  0
  162.2450  206.1090  149.9890 C   0  0  1  0  0  3  0  0  0  0  0  0
  162.7000  209.5370  150.9340 O   0  0  0  0  0  0  0  0  0  0  0  0
  162.3250  205.4850  151.3910 C   0  0  1  0  0  3  0  0  0  0  0  0
  160.5960  209.2420  154.4120 C   0  0  1  0  0  3  0  0  0  0  0  0
  160.8240  208.3040  151.7100 C   0  0  1  0  0  3  0  0  0  0  0  0
  160.3430  207.7460  150.3990 C   0  0  0  0  0  3  0  0  0  0  0  0
  161.1900  207.2940  152.8080 C   0  0  1  0  0  3  0  0  0  0  0  0
  162.4770  206.5370  152.4960 C   0  0  0  0  0  2  0  0  0  0  0  0
  161.2110  204.4630  151.6710 C   0  0  2  0  0  3  0  0  0  0  0  0
  160.8280  204.4640  153.1420 C   0  0  0  0  0  1  0  0  0  0  0  0
  161.7330  202.7790  151.2120 S   0  0  0  0  0  0  0  0  0  0  0  0
  160.9300  202.8500  147.2900 N   0  0  0  0  0  0  0  0  0  0  0  0
  161.5820  203.5960  146.2300 C   0  0  0  0  0  1  0  0  0  0  0  0
  161.0830  200.6090  148.4080 C   0  0  0  0  0  2  0  0  0  0  0  0
  161.3590  201.4560  147.1500 C   0  0  0  0  0  2  0  0  0  0  0  0
  160.6840  202.7570  149.7290 C   0  0  2  0  0  3  0  0  0  0  0  0
  160.2120  201.3240  149.4470 C   0  0  1  0  0  3  0  0  0  0  0  0
  161.4460  203.3730  148.5500 C   0  0  0  0  0  2  0  0  0  0  0  0
  158.7590  201.3290  149.0100 C   0  0  0  0  0  1  0  0  0  0  0  0
  160.2240  209.4040  155.8880 C   0  0  2  0  0  3  0  0  0  0  0  0
  160.5870  208.1750  156.6610 C   0  0  0  0  0  0  0  0  0  0  0  0
  159.7080  207.1010  156.7250 O   0  0  0  0  0  0  0  0  0  0  0  0
  161.6970  208.1130  157.2510 O   0  0  0  0  0  1  0  0  0  0  0  0
  158.8510  209.6430  156.0230 O   0  0  0  0  0  0  0  0  0  0  0  0
  157.5960  211.6120  157.2030 O   0  0  0  0  0  1  0  0  0  0  0  0
  158.6900  211.3240  156.2020 P   0  0  0  0  0  0  0  0  0  0  0  0
  160.1440  211.9840  156.7630 O   0  0  0  0  0  1  0  0  0  0  0  0
  158.2860  212.0310  154.7190 O   0  0  0  0  0  0  0  0  0  0  0  0
  1 10  1  0  0  0  0
  2 10  1  0  0  0  0
  3  1  1  0  0  0  0
  4  7  1  0  0  0  0
  4 12  2  0  0  0  0
  6 11  1  0  0  0  0
  6  3  1  0  0  0  0
  7  5  1  1  0  0  0
  7  9  1  0  0  0  0
  8  6  2  0  0  0  0
  9 15  1  1  0  0  0
  9 14  1  0  0  0  0
 10 26  1  1  0  0  0
 11 12  1  6  0  0  0
 11 13  1  0  0  0  0
 13 14  1  6  0  0  0
 13  2  1  0  0  0  0
 15 16  1  1  0  0  0
 17 15  1  0  0  0  0
 18 24  1  0  0  0  0
 19 18  1  0  0  0  0
 20 23  1  0  0  0  0
 21 18  1  0  0  0  0
 21 20  1  0  0  0  0
 22 17  1  1  0  0  0
 23 25  1  6  0  0  0
 23 22  1  0  0  0  0
 24 22  1  0  0  0  0
 26 30  1  6  0  0  0
 26 27  1  0  0  0  0
 27 28  2  0  0  0  0
 27 29  1  0  0  0  0
 30 32  1  0  0  0  0
 32 33  1  0  0  0  0
 32 31  1  0  0  0  0
 34 32  2  0  0  0  0
M  END
>  <MODEL>
9

>  <REMARK>
 VINA RESULT:      -4.1      4.717      8.983
  Name = 
  7 active torsions:
  status: ('A' for Active; 'I' for Inactive)
    1  A    between atoms: C_5  and  S_19
    2  A    between atoms: C_5  and  C_21
    3  A    between atoms: C_7  and  C_20
    4  A    between atoms: C_13  and  S_19
    5  A    between atoms: P_18  and  O_27
    6  A    between atoms: C_20  and  C_22
    7  A    between atoms: C_20  and  O_27
                            x       y       z     vdW  Elec       q    Type
                         _______ _______ _______ _____ _____    ______ ____

>  <TORSDO>
F 7

$$$$
