=
 OpenBabel11072413213D

 44 49  0  0  1  0  0  0  0  0999 V2000
  159.7150  210.5210  153.5900 C   0  0  0  0  0  2  0  0  0  0  0  0
  159.1570  211.1290  154.8760 C   0  0  1  0  0  3  0  0  0  0  0  0
  160.6740  208.6960  155.0500 C   0  0  0  0  0  0  0  0  0  0  0  0
  160.6340  209.6220  156.1390 N   0  0  0  0  0  2  0  0  0  0  0  0
  159.9720  209.0190  153.7530 C   0  0  2  0  0  3  0  0  0  0  0  0
  160.2320  211.0130  155.9550 C   0  0  0  0  0  2  0  0  0  0  0  0
  161.2090  207.5680  155.2180 O   0  0  0  0  0  0  0  0  0  0  0  0
  159.8710  206.0210  148.0580 O   0  0  0  0  0  1  0  0  0  0  0  0
  160.9640  204.0760  150.0870 C   0  0  1  0  0  3  0  0  0  0  0  0
  162.8440  207.9100  148.5570 C   0  0  1  0  0  3  0  0  0  0  0  0
  160.9560  206.3350  151.2530 C   0  0  0  0  0  0  0  0  0  0  0  0
  162.0540  208.0480  149.8040 C   0  0  0  0  0  0  0  0  0  0  0  0
  161.0580  204.8460  151.4030 C   0  0  0  0  0  2  0  0  0  0  0  0
  161.7380  204.7610  148.9520 C   0  0  2  0  0  3  0  0  0  0  0  0
  160.7770  207.0100  152.3890 C   0  0  0  0  0  3  0  0  0  0  0  0
  162.0460  206.9320  147.7170 C   0  0  0  0  0  2  0  0  0  0  0  0
  162.1850  209.0980  150.6150 C   0  0  0  0  0  3  0  0  0  0  0  0
  160.6980  208.4780  152.5600 C   0  0  0  0  0  0  0  0  0  0  0  0
  160.9720  207.0370  149.9110 C   0  0  1  0  0  3  0  0  0  0  0  0
  161.3670  209.3650  151.8100 C   0  0  0  0  0  3  0  0  0  0  0  0
  161.1240  206.1530  148.6560 C   0  0  1  0  0  0  0  0  0  0  0  0
  162.9250  209.1300  147.8820 O   0  0  0  0  0  1  0  0  0  0  0  0
  161.2640  202.7020  150.2470 O   0  0  0  0  0  0  0  0  0  0  0  0
  161.2070  202.3710  151.6110 C   0  0  0  0  0  1  0  0  0  0  0  0
  162.0490  204.5550  146.5490 O   0  0  0  0  0  1  0  0  0  0  0  0
  161.9070  203.8270  147.7320 C   0  0  2  0  0  3  0  0  0  0  0  0
  161.1410  201.8680  146.5980 O   0  0  0  0  0  1  0  0  0  0  0  0
  160.8060  202.7840  147.5940 C   0  0  0  0  0  2  0  0  0  0  0  0
  158.7930  212.6040  154.6710 C   0  0  2  0  0  3  0  0  0  0  0  0
  155.9330  213.7330  149.7590 C   0  0  0  0  0  3  0  0  0  0  0  0
  160.9460  213.0240  150.1230 S   0  0  0  0  0  0  0  0  0  0  0  0
  158.3280  213.3220  150.1860 N   0  0  0  0  0  2  0  0  0  0  0  0
  159.5350  213.1290  150.9380 C   0  0  0  0  0  0  0  0  0  0  0  0
  158.3850  212.8680  153.2180 C   0  0  1  0  0  3  0  0  0  0  0  0
  154.7370  214.1360  150.3500 C   0  0  0  0  0  3  0  0  0  0  0  0
  157.5930  214.1530  153.1160 C   0  0  0  0  0  2  0  0  0  0  0  0
  157.0210  213.6930  150.6420 C   0  0  0  0  0  0  0  0  0  0  0  0
  155.0610  214.4450  151.9730 S   0  0  0  0  0  0  0  0  0  0  0  0
  159.5550  212.9360  152.3570 N   0  0  0  0  0  2  0  0  0  0  0  0
  156.6910  214.0700  151.9400 C   0  0  0  0  0  0  0  0  0  0  0  0
  159.8980  213.4780  155.0590 N   0  0  0  0  0  2  0  0  0  0  0  0
  158.0340  213.9250  156.5450 C   0  0  0  0  0  1  0  0  0  0  0  0
  159.3910  214.3990  156.0640 C   0  0  0  0  0  3  0  0  0  0  0  0
  160.3470  214.4530  157.2410 C   0  0  0  0  0  1  0  0  0  0  0  0
  1  5  1  0  0  0  0
  1  2  1  0  0  0  0
  2 29  1  6  0  0  0
  2  6  1  0  0  0  0
  3  7  2  0  0  0  0
  3  4  1  0  0  0  0
  5 18  1  6  0  0  0
  5  3  1  0  0  0  0
  6  4  1  0  0  0  0
  9 23  1  1  0  0  0
  9 13  1  0  0  0  0
 10 22  1  6  0  0  0
 10 12  1  0  0  0  0
 11 13  1  0  0  0  0
 11 15  2  0  0  0  0
 12 17  2  0  0  0  0
 14 26  1  6  0  0  0
 14  9  1  0  0  0  0
 15 18  1  0  0  0  0
 16 10  1  0  0  0  0
 16 21  1  0  0  0  0
 17 20  1  0  0  0  0
 19 12  1  1  0  0  0
 19 11  1  0  0  0  0
 20 18  2  0  0  0  0
 21  8  1  6  0  0  0
 21 14  1  0  0  0  0
 21 19  1  0  0  0  0
 23 24  1  0  0  0  0
 26 25  1  6  0  0  0
 27 28  1  0  0  0  0
 28 26  1  0  0  0  0
 29 41  1  6  0  0  0
 30 35  2  0  0  0  0
 30 37  1  0  0  0  0
 31 33  2  0  0  0  0
 32 37  1  0  0  0  0
 32 33  1  0  0  0  0
 33 39  1  0  0  0  0
 34 29  1  1  0  0  0
 35 38  1  0  0  0  0
 36 34  1  0  0  0  0
 37 40  2  0  0  0  0
 39 34  1  0  0  0  0
 40 38  1  0  0  0  0
 40 36  1  0  0  0  0
 41 43  1  0  0  0  0
 43 42  1  0  0  0  0
 43 44  1  0  0  0  0
M  END
>  <MODEL>
1

>  <REMARK>
 VINA RESULT:      -7.3      0.000      0.000
  Name = 
  8 active torsions:
  status: ('A' for Active; 'I' for Inactive)
    1  A    between atoms: C_3  and  O_10
    2  A    between atoms: C_9  and  C_38
    3  A    between atoms: C_11  and  C_38
    4  A    between atoms: C_20  and  C_34
    5  A    between atoms: C_22  and  C_32
    6  A    between atoms: C_23  and  C_32
    7  A    between atoms: C_28  and  N_37
    8  A    between atoms: N_37  and  C_38
                            x       y       z     vdW  Elec       q    Type
                         _______ _______ _______ _____ _____    ______ ____

>  <TORSDO>
F 8

$$$$
=
 OpenBabel11072413213D

 44 49  0  0  1  0  0  0  0  0999 V2000
  160.3620  209.1890  154.4240 C   0  0  0  0  0  2  0  0  0  0  0  0
  159.8740  209.3490  155.8640 C   0  0  1  0  0  3  0  0  0  0  0  0
  160.6890  206.7440  154.9680 C   0  0  0  0  0  0  0  0  0  0  0  0
  160.7980  207.1210  156.3430 N   0  0  0  0  0  2  0  0  0  0  0  0
  160.2060  207.7430  153.9440 C   0  0  2  0  0  3  0  0  0  0  0  0
  160.7870  208.5190  156.7640 C   0  0  0  0  0  2  0  0  0  0  0  0
  160.8970  205.5470  154.6370 O   0  0  0  0  0  0  0  0  0  0  0  0
  159.7940  206.3930  147.6640 O   0  0  0  0  0  1  0  0  0  0  0  0
  161.0110  203.9940  149.0280 C   0  0  1  0  0  3  0  0  0  0  0  0
  162.7820  208.1370  148.4950 C   0  0  1  0  0  3  0  0  0  0  0  0
  161.0590  205.8530  150.7610 C   0  0  0  0  0  0  0  0  0  0  0  0
  162.0640  207.9160  149.7730 C   0  0  0  0  0  0  0  0  0  0  0  0
  161.1770  204.3820  150.4960 C   0  0  0  0  0  2  0  0  0  0  0  0
  161.7160  204.9760  148.0820 C   0  0  2  0  0  3  0  0  0  0  0  0
  160.9420  206.1930  152.0460 C   0  0  0  0  0  3  0  0  0  0  0  0
  161.9420  207.4050  147.4660 C   0  0  0  0  0  2  0  0  0  0  0  0
  162.2360  208.7110  150.8310 C   0  0  0  0  0  3  0  0  0  0  0  0
  160.8650  207.5590  152.6110 C   0  0  0  0  0  0  0  0  0  0  0  0
  160.9940  206.8920  149.6610 C   0  0  1  0  0  3  0  0  0  0  0  0
  161.4860  208.6280  152.0950 C   0  0  0  0  0  3  0  0  0  0  0  0
  161.0800  206.3830  148.2070 C   0  0  1  0  0  0  0  0  0  0  0  0
  162.8180  209.4940  148.1720 O   0  0  0  0  0  1  0  0  0  0  0  0
  161.3270  202.6350  148.7940 O   0  0  0  0  0  0  0  0  0  0  0  0
  161.1830  201.9130  149.9910 C   0  0  0  0  0  1  0  0  0  0  0  0
  163.1360  204.4350  146.1840 O   0  0  0  0  0  1  0  0  0  0  0  0
  161.8190  204.4100  146.6470 C   0  0  2  0  0  3  0  0  0  0  0  0
  161.5710  205.3580  144.4680 O   0  0  0  0  0  1  0  0  0  0  0  0
  160.8840  205.0790  145.6490 C   0  0  0  0  0  2  0  0  0  0  0  0
  159.9220  210.8180  156.2980 C   0  0  2  0  0  3  0  0  0  0  0  0
  156.5680  214.0480  152.8510 C   0  0  0  0  0  3  0  0  0  0  0  0
  155.0920  211.9540  157.2320 S   0  0  0  0  0  0  0  0  0  0  0  0
  156.1000  212.9620  155.0160 N   0  0  0  0  0  2  0  0  0  0  0  0
  156.3080  212.1140  156.1550 C   0  0  0  0  0  0  0  0  0  0  0  0
  158.7780  211.6130  155.6630 C   0  0  1  0  0  3  0  0  0  0  0  0
  157.3990  214.0210  151.7330 C   0  0  0  0  0  3  0  0  0  0  0  0
  158.5400  211.1540  154.2420 C   0  0  0  0  0  2  0  0  0  0  0  0
  156.8770  213.0810  153.8170 C   0  0  0  0  0  0  0  0  0  0  0  0
  158.5090  212.7760  151.9670 S   0  0  0  0  0  0  0  0  0  0  0  0
  157.5570  211.4720  156.4400 N   0  0  0  0  0  2  0  0  0  0  0  0
  157.9550  212.2760  153.4650 C   0  0  0  0  0  0  0  0  0  0  0  0
  161.2110  211.4220  155.9670 N   0  0  0  0  0  2  0  0  0  0  0  0
  163.2540  211.6090  157.2610 C   0  0  0  0  0  1  0  0  0  0  0  0
  161.7770  211.9430  157.2020 C   0  0  0  0  0  3  0  0  0  0  0  0
  161.6030  213.4500  157.2510 C   0  0  0  0  0  1  0  0  0  0  0  0
  1  2  1  0  0  0  0
  2 29  1  1  0  0  0
  2  6  1  0  0  0  0
  3  4  1  0  0  0  0
  4  6  1  0  0  0  0
  5 18  1  6  0  0  0
  5  1  1  0  0  0  0
  5  3  1  0  0  0  0
  7  3  2  0  0  0  0
  9 23  1  1  0  0  0
  9 13  1  0  0  0  0
 10 22  1  6  0  0  0
 10 12  1  0  0  0  0
 11 15  2  0  0  0  0
 12 17  2  0  0  0  0
 13 11  1  0  0  0  0
 14 26  1  6  0  0  0
 14 21  1  0  0  0  0
 14  9  1  0  0  0  0
 15 18  1  0  0  0  0
 16 21  1  0  0  0  0
 16 10  1  0  0  0  0
 17 20  1  0  0  0  0
 19 12  1  1  0  0  0
 19 11  1  0  0  0  0
 20 18  2  0  0  0  0
 21  8  1  6  0  0  0
 21 19  1  0  0  0  0
 23 24  1  0  0  0  0
 26 25  1  6  0  0  0
 27 28  1  0  0  0  0
 28 26  1  0  0  0  0
 29 41  1  6  0  0  0
 30 37  1  0  0  0  0
 32 33  1  0  0  0  0
 33 39  1  0  0  0  0
 33 31  2  0  0  0  0
 34 29  1  1  0  0  0
 34 39  1  0  0  0  0
 35 38  1  0  0  0  0
 35 30  2  0  0  0  0
 36 34  1  0  0  0  0
 37 32  1  0  0  0  0
 38 40  1  0  0  0  0
 40 37  2  0  0  0  0
 40 36  1  0  0  0  0
 41 43  1  0  0  0  0
 43 44  1  0  0  0  0
 43 42  1  0  0  0  0
M  END
>  <MODEL>
2

>  <REMARK>
 VINA RESULT:      -7.3      1.882      2.942
  Name = 
  8 active torsions:
  status: ('A' for Active; 'I' for Inactive)
    1  A    between atoms: C_3  and  O_10
    2  A    between atoms: C_9  and  C_38
    3  A    between atoms: C_11  and  C_38
    4  A    between atoms: C_20  and  C_34
    5  A    between atoms: C_22  and  C_32
    6  A    between atoms: C_23  and  C_32
    7  A    between atoms: C_28  and  N_37
    8  A    between atoms: N_37  and  C_38
                            x       y       z     vdW  Elec       q    Type
                         _______ _______ _______ _____ _____    ______ ____

>  <TORSDO>
F 8

$$$$
=
 OpenBabel11072413213D

 44 49  0  0  1  0  0  0  0  0999 V2000
  160.4710  209.1820  154.2570 C   0  0  0  0  0  2  0  0  0  0  0  0
  159.9750  209.3510  155.6920 C   0  0  1  0  0  3  0  0  0  0  0  0
  160.6720  206.7180  154.7790 C   0  0  0  0  0  0  0  0  0  0  0  0
  160.7840  207.0760  156.1590 N   0  0  0  0  0  2  0  0  0  0  0  0
  160.2500  207.7490  153.7600 C   0  0  2  0  0  3  0  0  0  0  0  0
  160.8360  208.4690  156.5940 C   0  0  0  0  0  2  0  0  0  0  0  0
  160.8250  205.5150  154.4390 O   0  0  0  0  0  0  0  0  0  0  0  0
  159.8700  206.2710  147.5070 O   0  0  0  0  0  1  0  0  0  0  0  0
  161.1090  203.9130  148.9210 C   0  0  1  0  0  3  0  0  0  0  0  0
  162.8370  208.0630  148.3110 C   0  0  1  0  0  3  0  0  0  0  0  0
  161.1320  205.8070  150.6180 C   0  0  0  0  0  0  0  0  0  0  0  0
  162.1170  207.8600  149.5910 C   0  0  0  0  0  0  0  0  0  0  0  0
  161.2660  204.3320  150.3820 C   0  0  0  0  0  2  0  0  0  0  0  0
  161.8050  204.8830  147.9580 C   0  0  2  0  0  3  0  0  0  0  0  0
  161.0080  206.1700  151.8950 C   0  0  0  0  0  3  0  0  0  0  0  0
  162.0070  207.3030  147.2940 C   0  0  0  0  0  2  0  0  0  0  0  0
  162.2780  208.6770  150.6330 C   0  0  0  0  0  3  0  0  0  0  0  0
  160.9150  207.5460  152.4330 C   0  0  0  0  0  0  0  0  0  0  0  0
  161.0590  206.8230  149.4960 C   0  0  1  0  0  3  0  0  0  0  0  0
  161.5250  208.6120  151.8970 C   0  0  0  0  0  3  0  0  0  0  0  0
  161.1540  206.2860  148.0530 C   0  0  1  0  0  0  0  0  0  0  0  0
  162.8580  209.4150  147.9610 O   0  0  0  0  0  1  0  0  0  0  0  0
  161.4400  202.5530  148.7160 O   0  0  0  0  0  0  0  0  0  0  0  0
  160.2660  201.8210  148.4680 C   0  0  0  0  0  1  0  0  0  0  0  0
  163.1730  204.5430  145.9760 O   0  0  0  0  0  1  0  0  0  0  0  0
  161.9190  204.2900  146.5350 C   0  0  2  0  0  3  0  0  0  0  0  0
  161.2480  204.6470  144.2690 O   0  0  0  0  0  1  0  0  0  0  0  0
  160.8090  204.7320  145.5900 C   0  0  0  0  0  2  0  0  0  0  0  0
  160.0900  210.8120  156.1420 C   0  0  2  0  0  3  0  0  0  0  0  0
  155.3610  213.9280  154.9200 C   0  0  0  0  0  3  0  0  0  0  0  0
  159.2540  213.1650  151.7540 S   0  0  0  0  0  0  0  0  0  0  0  0
  157.3460  213.3890  153.5590 N   0  0  0  0  0  2  0  0  0  0  0  0
  158.6590  212.8990  153.2520 C   0  0  0  0  0  0  0  0  0  0  0  0
  159.0110  211.6730  155.4800 C   0  0  1  0  0  3  0  0  0  0  0  0
  154.8830  214.0290  156.2260 C   0  0  0  0  0  3  0  0  0  0  0  0
  158.6860  212.8710  156.3440 C   0  0  0  0  0  2  0  0  0  0  0  0
  156.6980  213.5180  154.8310 C   0  0  0  0  0  0  0  0  0  0  0  0
  156.1500  213.6110  157.2540 S   0  0  0  0  0  0  0  0  0  0  0  0
  159.4390  212.1140  154.1620 N   0  0  0  0  0  2  0  0  0  0  0  0
  157.2900  213.2980  156.0700 C   0  0  0  0  0  0  0  0  0  0  0  0
  161.4200  211.3470  155.8570 N   0  0  0  0  0  2  0  0  0  0  0  0
  163.3930  210.9700  157.2160 C   0  0  0  0  0  1  0  0  0  0  0  0
  162.0450  211.6590  157.1320 C   0  0  0  0  0  3  0  0  0  0  0  0
  162.2430  213.1590  157.2540 C   0  0  0  0  0  1  0  0  0  0  0  0
  1  2  1  0  0  0  0
  2 29  1  1  0  0  0
  2  6  1  0  0  0  0
  3  4  1  0  0  0  0
  4  6  1  0  0  0  0
  5 18  1  6  0  0  0
  5  1  1  0  0  0  0
  5  3  1  0  0  0  0
  7  3  2  0  0  0  0
  9 23  1  1  0  0  0
  9 13  1  0  0  0  0
 10 22  1  6  0  0  0
 10 12  1  0  0  0  0
 11 15  2  0  0  0  0
 12 17  2  0  0  0  0
 13 11  1  0  0  0  0
 14 26  1  6  0  0  0
 14 21  1  0  0  0  0
 14  9  1  0  0  0  0
 15 18  1  0  0  0  0
 16 21  1  0  0  0  0
 16 10  1  0  0  0  0
 17 20  1  0  0  0  0
 19 12  1  1  0  0  0
 19 11  1  0  0  0  0
 20 18  2  0  0  0  0
 21  8  1  6  0  0  0
 21 19  1  0  0  0  0
 24 23  1  0  0  0  0
 26 25  1  6  0  0  0
 27 28  1  0  0  0  0
 28 26  1  0  0  0  0
 29 41  1  6  0  0  0
 30 35  2  0  0  0  0
 31 33  2  0  0  0  0
 32 37  1  0  0  0  0
 33 32  1  0  0  0  0
 33 39  1  0  0  0  0
 34 29  1  1  0  0  0
 34 36  1  0  0  0  0
 35 38  1  0  0  0  0
 37 30  1  0  0  0  0
 37 40  2  0  0  0  0
 39 34  1  0  0  0  0
 40 36  1  0  0  0  0
 40 38  1  0  0  0  0
 41 43  1  0  0  0  0
 43 42  1  0  0  0  0
 43 44  1  0  0  0  0
M  END
>  <MODEL>
3

>  <REMARK>
 VINA RESULT:      -7.3      1.910      2.725
  Name = 
  8 active torsions:
  status: ('A' for Active; 'I' for Inactive)
    1  A    between atoms: C_3  and  O_10
    2  A    between atoms: C_9  and  C_38
    3  A    between atoms: C_11  and  C_38
    4  A    between atoms: C_20  and  C_34
    5  A    between atoms: C_22  and  C_32
    6  A    between atoms: C_23  and  C_32
    7  A    between atoms: C_28  and  N_37
    8  A    between atoms: N_37  and  C_38
                            x       y       z     vdW  Elec       q    Type
                         _______ _______ _______ _____ _____    ______ ____

>  <TORSDO>
F 8

$$$$
=
 OpenBabel11072413213D

 44 49  0  0  1  0  0  0  0  0999 V2000
  160.8460  208.3860  152.6320 C   0  0  0  0  0  2  0  0  0  0  0  0
  161.1350  209.7530  153.2510 C   0  0  1  0  0  3  0  0  0  0  0  0
  161.8760  209.2970  150.5130 C   0  0  0  0  0  0  0  0  0  0  0  0
  161.5470  210.6080  150.9820 N   0  0  0  0  0  2  0  0  0  0  0  0
  161.7690  208.1110  151.4410 C   0  0  2  0  0  3  0  0  0  0  0  0
  160.7930  210.8210  152.2130 C   0  0  0  0  0  2  0  0  0  0  0  0
  162.3550  209.1570  149.3570 O   0  0  0  0  0  0  0  0  0  0  0  0
  162.9640  203.4780  147.1350 O   0  0  0  0  0  1  0  0  0  0  0  0
  160.9090  205.3260  145.9290 C   0  0  1  0  0  3  0  0  0  0  0  0
  160.4610  202.5470  149.4870 C   0  0  1  0  0  3  0  0  0  0  0  0
  161.0440  205.9760  148.3840 C   0  0  0  0  0  0  0  0  0  0  0  0
  160.8410  203.9420  149.8180 C   0  0  0  0  0  0  0  0  0  0  0  0
  160.5840  206.3580  147.0090 C   0  0  0  0  0  2  0  0  0  0  0  0
  160.6870  203.8870  146.4120 C   0  0  2  0  0  3  0  0  0  0  0  0
  161.0080  206.9550  149.2880 C   0  0  0  0  0  3  0  0  0  0  0  0
  161.2480  202.2370  148.2280 C   0  0  0  0  0  2  0  0  0  0  0  0
  160.6970  204.4440  151.0450 C   0  0  0  0  0  3  0  0  0  0  0  0
  161.3450  206.8640  150.7270 C   0  0  0  0  0  0  0  0  0  0  0  0
  161.5940  204.6060  148.7250 C   0  0  1  0  0  3  0  0  0  0  0  0
  161.1460  205.7760  151.4840 C   0  0  0  0  0  3  0  0  0  0  0  0
  161.6460  203.5660  147.5860 C   0  0  1  0  0  0  0  0  0  0  0  0
  160.8570  201.6700  150.4990 O   0  0  0  0  0  1  0  0  0  0  0  0
  160.2850  205.6270  144.6950 O   0  0  0  0  0  0  0  0  0  0  0  0
  161.2700  205.8390  143.7160 C   0  0  0  0  0  1  0  0  0  0  0  0
  159.6530  203.1210  144.3480 O   0  0  0  0  0  1  0  0  0  0  0  0
  160.7030  202.8820  145.2370 C   0  0  2  0  0  3  0  0  0  0  0  0
  160.0370  200.6420  144.7390 O   0  0  0  0  0  1  0  0  0  0  0  0
  160.7200  201.4230  145.6710 C   0  0  0  0  0  2  0  0  0  0  0  0
  160.2920  209.9740  154.5110 C   0  0  2  0  0  3  0  0  0  0  0  0
  155.7620  213.5750  154.7930 C   0  0  0  0  0  3  0  0  0  0  0  0
  159.6870  214.0640  151.6130 S   0  0  0  0  0  0  0  0  0  0  0  0
  157.7500  213.5790  153.3330 N   0  0  0  0  0  2  0  0  0  0  0  0
  159.0430  213.2000  152.8400 C   0  0  0  0  0  0  0  0  0  0  0  0
  159.2760  211.0990  154.2980 C   0  0  1  0  0  3  0  0  0  0  0  0
  155.2580  213.1170  156.0090 C   0  0  0  0  0  3  0  0  0  0  0  0
  158.9910  211.8100  155.6020 C   0  0  0  0  0  2  0  0  0  0  0  0
  157.0780  213.1700  154.5310 C   0  0  0  0  0  0  0  0  0  0  0  0
  156.4750  212.2160  156.7460 S   0  0  0  0  0  0  0  0  0  0  0  0
  159.7580  212.0500  153.3090 N   0  0  0  0  0  2  0  0  0  0  0  0
  157.6270  212.3930  155.5450 C   0  0  0  0  0  0  0  0  0  0  0  0
  161.1390  210.2610  155.6680 N   0  0  0  0  0  2  0  0  0  0  0  0
  159.9810  208.1670  156.0660 C   0  0  0  0  0  1  0  0  0  0  0  0
  160.8750  209.2350  156.6650 C   0  0  0  0  0  3  0  0  0  0  0  0
  162.1810  208.6030  157.1090 C   0  0  0  0  0  1  0  0  0  0  0  0
  1  2  1  0  0  0  0
  2 29  1  1  0  0  0
  3  4  1  0  0  0  0
  3  5  1  0  0  0  0
  4  6  1  0  0  0  0
  5 18  1  6  0  0  0
  5  1  1  0  0  0  0
  6  2  1  0  0  0  0
  7  3  2  0  0  0  0
  9 23  1  6  0  0  0
  9 14  1  0  0  0  0
  9 13  1  0  0  0  0
 10 12  1  0  0  0  0
 10 22  1  1  0  0  0
 11 15  2  0  0  0  0
 12 17  2  0  0  0  0
 13 11  1  0  0  0  0
 14 26  1  6  0  0  0
 14 21  1  0  0  0  0
 15 18  1  0  0  0  0
 16 10  1  0  0  0  0
 17 20  1  0  0  0  0
 18 20  2  0  0  0  0
 19 11  1  6  0  0  0
 19 12  1  0  0  0  0
 21  8  1  6  0  0  0
 21 16  1  0  0  0  0
 21 19  1  0  0  0  0
 24 23  1  0  0  0  0
 26 25  1  6  0  0  0
 26 28  1  0  0  0  0
 27 28  1  0  0  0  0
 29 41  1  1  0  0  0
 30 35  2  0  0  0  0
 31 33  2  0  0  0  0
 32 37  1  0  0  0  0
 33 39  1  0  0  0  0
 33 32  1  0  0  0  0
 34 29  1  1  0  0  0
 34 36  1  0  0  0  0
 35 38  1  0  0  0  0
 37 30  1  0  0  0  0
 37 40  2  0  0  0  0
 39 34  1  0  0  0  0
 40 36  1  0  0  0  0
 40 38  1  0  0  0  0
 41 43  1  0  0  0  0
 42 43  1  0  0  0  0
 43 44  1  0  0  0  0
M  END
>  <MODEL>
4

>  <REMARK>
 VINA RESULT:      -7.3      2.249      4.389
  Name = 
  8 active torsions:
  status: ('A' for Active; 'I' for Inactive)
    1  A    between atoms: C_3  and  O_10
    2  A    between atoms: C_9  and  C_38
    3  A    between atoms: C_11  and  C_38
    4  A    between atoms: C_20  and  C_34
    5  A    between atoms: C_22  and  C_32
    6  A    between atoms: C_23  and  C_32
    7  A    between atoms: C_28  and  N_37
    8  A    between atoms: N_37  and  C_38
                            x       y       z     vdW  Elec       q    Type
                         _______ _______ _______ _____ _____    ______ ____

>  <TORSDO>
F 8

$$$$
=
 OpenBabel11072413213D

 44 49  0  0  1  0  0  0  0  0999 V2000
  161.4010  207.2770  150.6700 C   0  0  0  0  0  2  0  0  0  0  0  0
  161.5310  206.5180  149.3510 C   0  0  1  0  0  3  0  0  0  0  0  0
  161.9680  209.3570  149.3530 C   0  0  0  0  0  0  0  0  0  0  0  0
  162.6140  208.5100  148.3990 N   0  0  0  0  0  2  0  0  0  0  0  0
  161.0950  208.7590  150.4290 C   0  0  2  0  0  3  0  0  0  0  0  0
  162.7450  207.0710  148.6070 C   0  0  0  0  0  2  0  0  0  0  0  0
  162.0490  210.6070  149.2240 O   0  0  0  0  0  0  0  0  0  0  0  0
  158.6900  210.1220  156.2420 O   0  0  0  0  0  1  0  0  0  0  0  0
  158.0730  212.4580  154.4360 C   0  0  1  0  0  3  0  0  0  0  0  0
  162.1140  211.0360  155.9300 C   0  0  1  0  0  3  0  0  0  0  0  0
  159.7450  211.0350  153.1540 C   0  0  0  0  0  0  0  0  0  0  0  0
  161.7070  210.5040  154.6070 C   0  0  0  0  0  0  0  0  0  0  0  0
  158.7340  212.1410  153.0960 C   0  0  0  0  0  2  0  0  0  0  0  0
  159.0720  212.4280  155.6010 C   0  0  2  0  0  3  0  0  0  0  0  0
  160.1450  210.5660  151.9710 C   0  0  0  0  0  3  0  0  0  0  0  0
  160.8320  211.0360  156.7410 C   0  0  0  0  0  2  0  0  0  0  0  0
  162.5830  209.9690  153.7560 C   0  0  0  0  0  3  0  0  0  0  0  0
  161.1660  209.5250  151.7150 C   0  0  0  0  0  0  0  0  0  0  0  0
  160.2320  210.4230  154.4510 C   0  0  1  0  0  3  0  0  0  0  0  0
  162.2490  209.3230  152.4760 C   0  0  0  0  0  3  0  0  0  0  0  0
  159.6590  211.0030  155.7610 C   0  0  1  0  0  0  0  0  0  0  0  0
  163.0400  210.1890  156.5430 O   0  0  0  0  0  1  0  0  0  0  0  0
  157.2820  213.6300  154.3800 O   0  0  0  0  0  0  0  0  0  0  0  0
  157.3640  214.1820  153.0910 C   0  0  0  0  0  1  0  0  0  0  0  0
  157.0790  213.0540  156.8460 O   0  0  0  0  0  1  0  0  0  0  0  0
  158.4750  213.0570  156.8810 C   0  0  2  0  0  3  0  0  0  0  0  0
  160.3980  214.4530  157.1360 O   0  0  0  0  0  1  0  0  0  0  0  0
  159.0040  214.4520  157.1890 C   0  0  0  0  0  2  0  0  0  0  0  0
  161.7210  205.0170  149.5990 C   0  0  2  0  0  3  0  0  0  0  0  0
  161.2530  200.8810  145.5690 C   0  0  0  0  0  3  0  0  0  0  0  0
  160.4560  205.8310  144.7780 S   0  0  0  0  0  0  0  0  0  0  0  0
  160.9540  203.3250  145.4280 N   0  0  0  0  0  2  0  0  0  0  0  0
  160.8160  204.6800  145.8800 C   0  0  0  0  0  0  0  0  0  0  0  0
  161.5190  204.2210  148.3060 C   0  0  1  0  0  3  0  0  0  0  0  0
  161.2540  199.7940  146.4410 C   0  0  0  0  0  3  0  0  0  0  0  0
  160.5240  203.1020  148.5230 C   0  0  0  0  0  2  0  0  0  0  0  0
  161.0120  202.1130  146.1910 C   0  0  0  0  0  0  0  0  0  0  0  0
  160.9430  200.3930  147.9840 S   0  0  0  0  0  0  0  0  0  0  0  0
  161.0630  205.0880  147.2310 N   0  0  0  0  0  2  0  0  0  0  0  0
  160.8130  202.0080  147.5630 C   0  0  0  0  0  0  0  0  0  0  0  0
  160.8160  204.5380  150.6420 N   0  0  0  0  0  2  0  0  0  0  0  0
  161.3430  204.9150  152.9790 C   0  0  0  0  0  1  0  0  0  0  0  0
  161.6370  204.0770  151.7510 C   0  0  0  0  0  3  0  0  0  0  0  0
  161.3240  202.6230  152.0510 C   0  0  0  0  0  1  0  0  0  0  0  0
  2 29  1  1  0  0  0
  2  1  1  0  0  0  0
  3  5  1  0  0  0  0
  4  6  1  0  0  0  0
  4  3  1  0  0  0  0
  5  1  1  0  0  0  0
  5 18  1  1  0  0  0
  6  2  1  0  0  0  0
  7  3  2  0  0  0  0
  9 23  1  6  0  0  0
  9 14  1  0  0  0  0
 10 22  1  1  0  0  0
 10 16  1  0  0  0  0
 12 10  1  0  0  0  0
 13 11  1  0  0  0  0
 13  9  1  0  0  0  0
 14 21  1  0  0  0  0
 14 26  1  1  0  0  0
 15 11  2  0  0  0  0
 17 12  2  0  0  0  0
 18 15  1  0  0  0  0
 18 20  2  0  0  0  0
 19 11  1  6  0  0  0
 19 12  1  0  0  0  0
 19 21  1  0  0  0  0
 20 17  1  0  0  0  0
 21  8  1  1  0  0  0
 21 16  1  0  0  0  0
 24 23  1  0  0  0  0
 26 25  1  6  0  0  0
 26 28  1  0  0  0  0
 27 28  1  0  0  0  0
 29 41  1  1  0  0  0
 30 37  1  0  0  0  0
 30 35  2  0  0  0  0
 31 33  2  0  0  0  0
 32 33  1  0  0  0  0
 32 37  1  0  0  0  0
 33 39  1  0  0  0  0
 34 36  1  0  0  0  0
 34 29  1  1  0  0  0
 35 38  1  0  0  0  0
 37 40  2  0  0  0  0
 39 34  1  0  0  0  0
 40 38  1  0  0  0  0
 40 36  1  0  0  0  0
 41 43  1  0  0  0  0
 43 44  1  0  0  0  0
 43 42  1  0  0  0  0
M  END
>  <MODEL>
5

>  <REMARK>
 VINA RESULT:      -7.0      4.283     10.250
  Name = 
  8 active torsions:
  status: ('A' for Active; 'I' for Inactive)
    1  A    between atoms: C_3  and  O_10
    2  A    between atoms: C_9  and  C_38
    3  A    between atoms: C_11  and  C_38
    4  A    between atoms: C_20  and  C_34
    5  A    between atoms: C_22  and  C_32
    6  A    between atoms: C_23  and  C_32
    7  A    between atoms: C_28  and  N_37
    8  A    between atoms: N_37  and  C_38
                            x       y       z     vdW  Elec       q    Type
                         _______ _______ _______ _____ _____    ______ ____

>  <TORSDO>
F 8

$$$$
=
 OpenBabel11072413213D

 44 49  0  0  1  0  0  0  0  0999 V2000
  161.0590  207.2620  150.9960 C   0  0  0  0  0  2  0  0  0  0  0  0
  161.3850  206.5540  149.6820 C   0  0  1  0  0  3  0  0  0  0  0  0
  161.9620  209.3590  149.9140 C   0  0  0  0  0  0  0  0  0  0  0  0
  162.7250  208.5160  149.0460 N   0  0  0  0  0  2  0  0  0  0  0  0
  160.8780  208.7690  150.7830 C   0  0  2  0  0  3  0  0  0  0  0  0
  162.7410  207.0640  149.1970 C   0  0  0  0  0  2  0  0  0  0  0  0
  162.1300  210.6060  149.8680 O   0  0  0  0  0  0  0  0  0  0  0  0
  157.4630  210.1630  156.0580 O   0  0  0  0  0  1  0  0  0  0  0  0
  157.4690  212.6190  154.3080 C   0  0  1  0  0  3  0  0  0  0  0  0
  160.9510  210.7090  156.5030 C   0  0  1  0  0  3  0  0  0  0  0  0
  159.2230  211.0730  153.3090 C   0  0  0  0  0  0  0  0  0  0  0  0
  160.7770  210.2760  155.0950 C   0  0  0  0  0  0  0  0  0  0  0  0
  158.3600  212.2830  153.1130 C   0  0  0  0  0  2  0  0  0  0  0  0
  158.1960  212.4360  155.6470 C   0  0  2  0  0  3  0  0  0  0  0  0
  159.8120  210.6090  152.2060 C   0  0  0  0  0  3  0  0  0  0  0  0
  159.5350  210.8190  157.0350 C   0  0  0  0  0  2  0  0  0  0  0  0
  161.7540  209.6810  154.4100 C   0  0  0  0  0  3  0  0  0  0  0  0
  160.7560  209.4730  152.1000 C   0  0  0  0  0  0  0  0  0  0  0  0
  159.3670  210.3620  154.6390 C   0  0  1  0  0  3  0  0  0  0  0  0
  161.6320  209.1250  153.0520 C   0  0  0  0  0  3  0  0  0  0  0  0
  158.5930  210.9510  155.8370 C   0  0  1  0  0  0  0  0  0  0  0  0
  161.6400  209.7440  157.2390 O   0  0  0  0  0  1  0  0  0  0  0  0
  156.8270  213.8710  154.1620 O   0  0  0  0  0  0  0  0  0  0  0  0
  156.8560  214.2530  152.8110 C   0  0  0  0  0  1  0  0  0  0  0  0
  156.0410  213.1190  156.5450 O   0  0  0  0  0  1  0  0  0  0  0  0
  157.4110  213.0770  156.8140 C   0  0  2  0  0  3  0  0  0  0  0  0
  159.3160  214.4500  157.2550 O   0  0  0  0  0  1  0  0  0  0  0  0
  157.9220  214.4530  157.2210 C   0  0  0  0  0  2  0  0  0  0  0  0
  161.4490  205.0360  149.8790 C   0  0  2  0  0  3  0  0  0  0  0  0
  160.4730  203.6100  144.3480 C   0  0  0  0  0  3  0  0  0  0  0  0
  161.3280  200.3090  148.1080 S   0  0  0  0  0  0  0  0  0  0  0  0
  160.8770  202.2100  146.3390 N   0  0  0  0  0  2  0  0  0  0  0  0
  161.2260  201.8850  147.6920 C   0  0  0  0  0  0  0  0  0  0  0  0
  161.2200  204.3030  148.5540 C   0  0  1  0  0  3  0  0  0  0  0  0
  160.6530  204.8840  143.8120 C   0  0  0  0  0  3  0  0  0  0  0  0
  162.1610  204.8250  147.4910 C   0  0  0  0  0  2  0  0  0  0  0  0
  160.9620  203.4660  145.6540 C   0  0  0  0  0  0  0  0  0  0  0  0
  161.4310  205.8130  144.9810 S   0  0  0  0  0  0  0  0  0  0  0  0
  161.4030  202.8700  148.7170 N   0  0  0  0  0  2  0  0  0  0  0  0
  161.5390  204.6280  146.1580 C   0  0  0  0  0  0  0  0  0  0  0  0
  160.4810  204.5940  150.8820 N   0  0  0  0  0  2  0  0  0  0  0  0
  161.2750  204.9440  153.1460 C   0  0  0  0  0  1  0  0  0  0  0  0
  161.2300  203.9880  151.9710 C   0  0  0  0  0  3  0  0  0  0  0  0
  160.5560  202.6980  152.4020 C   0  0  0  0  0  1  0  0  0  0  0  0
  2 29  1  1  0  0  0
  2  1  1  0  0  0  0
  3  5  1  0  0  0  0
  4  6  1  0  0  0  0
  4  3  1  0  0  0  0
  5  1  1  0  0  0  0
  5 18  1  1  0  0  0
  6  2  1  0  0  0  0
  7  3  2  0  0  0  0
  9 23  1  6  0  0  0
  9 14  1  0  0  0  0
 10 16  1  0  0  0  0
 10 22  1  1  0  0  0
 12 10  1  0  0  0  0
 13 11  1  0  0  0  0
 13  9  1  0  0  0  0
 14 21  1  0  0  0  0
 14 26  1  1  0  0  0
 15 11  2  0  0  0  0
 17 12  2  0  0  0  0
 18 15  1  0  0  0  0
 18 20  2  0  0  0  0
 19 11  1  6  0  0  0
 19 12  1  0  0  0  0
 19 21  1  0  0  0  0
 20 17  1  0  0  0  0
 21  8  1  1  0  0  0
 21 16  1  0  0  0  0
 24 23  1  0  0  0  0
 26 25  1  6  0  0  0
 26 28  1  0  0  0  0
 28 27  1  0  0  0  0
 29 41  1  1  0  0  0
 30 37  1  0  0  0  0
 32 33  1  0  0  0  0
 33 31  2  0  0  0  0
 33 39  1  0  0  0  0
 34 39  1  0  0  0  0
 34 29  1  1  0  0  0
 35 30  2  0  0  0  0
 35 38  1  0  0  0  0
 36 34  1  0  0  0  0
 37 40  2  0  0  0  0
 37 32  1  0  0  0  0
 38 40  1  0  0  0  0
 40 36  1  0  0  0  0
 41 43  1  0  0  0  0
 43 44  1  0  0  0  0
 43 42  1  0  0  0  0
M  END
>  <MODEL>
6

>  <REMARK>
 VINA RESULT:      -6.8      4.436     10.135
  Name = 
  8 active torsions:
  status: ('A' for Active; 'I' for Inactive)
    1  A    between atoms: C_3  and  O_10
    2  A    between atoms: C_9  and  C_38
    3  A    between atoms: C_11  and  C_38
    4  A    between atoms: C_20  and  C_34
    5  A    between atoms: C_22  and  C_32
    6  A    between atoms: C_23  and  C_32
    7  A    between atoms: C_28  and  N_37
    8  A    between atoms: N_37  and  C_38
                            x       y       z     vdW  Elec       q    Type
                         _______ _______ _______ _____ _____    ______ ____

>  <TORSDO>
F 8

$$$$
=
 OpenBabel11072413213D

 44 49  0  0  1  0  0  0  0  0999 V2000
  159.3580  210.1440  154.4000 C   0  0  0  0  0  2  0  0  0  0  0  0
  158.9770  210.8870  155.6800 C   0  0  1  0  0  3  0  0  0  0  0  0
  161.7360  210.2130  155.2480 C   0  0  0  0  0  0  0  0  0  0  0  0
  161.3660  211.3540  156.0280 N   0  0  0  0  0  2  0  0  0  0  0  0
  160.6740  209.3800  154.5740 C   0  0  2  0  0  3  0  0  0  0  0  0
  160.0390  211.9540  155.9370 C   0  0  0  0  0  2  0  0  0  0  0  0
  162.9420  209.8510  155.2170 O   0  0  0  0  0  0  0  0  0  0  0  0
  159.3590  206.4110  149.0160 O   0  0  0  0  0  1  0  0  0  0  0  0
  160.7660  204.4230  150.7930 C   0  0  1  0  0  3  0  0  0  0  0  0
  162.4320  208.2020  148.9160 C   0  0  1  0  0  3  0  0  0  0  0  0
  161.0610  206.6760  151.9340 C   0  0  0  0  0  0  0  0  0  0  0  0
  161.9070  208.3590  150.2940 C   0  0  0  0  0  0  0  0  0  0  0  0
  161.1420  205.1840  152.0640 C   0  0  0  0  0  2  0  0  0  0  0  0
  161.3240  205.0880  149.5280 C   0  0  2  0  0  3  0  0  0  0  0  0
  161.1300  207.3510  153.0820 C   0  0  0  0  0  3  0  0  0  0  0  0
  161.4520  207.2530  148.2520 C   0  0  0  0  0  2  0  0  0  0  0  0
  162.2280  209.4020  151.0620 C   0  0  0  0  0  3  0  0  0  0  0  0
  161.1330  208.8210  153.2620 C   0  0  0  0  0  0  0  0  0  0  0  0
  160.8350  207.3830  150.6140 C   0  0  1  0  0  3  0  0  0  0  0  0
  161.6700  209.6890  152.3940 C   0  0  0  0  0  3  0  0  0  0  0  0
  160.7090  206.5000  149.3550 C   0  0  1  0  0  0  0  0  0  0  0  0
  162.4160  209.4220  148.2360 O   0  0  0  0  0  1  0  0  0  0  0  0
  161.0490  203.0400  150.8950 O   0  0  0  0  0  0  0  0  0  0  0  0
  161.8720  202.8150  152.0110 C   0  0  0  0  0  1  0  0  0  0  0  0
  160.8260  202.8670  148.6710 O   0  0  0  0  0  1  0  0  0  0  0  0
  161.2200  204.1540  148.3000 C   0  0  2  0  0  3  0  0  0  0  0  0
  162.2090  204.5820  146.1670 O   0  0  0  0  0  1  0  0  0  0  0  0
  162.4830  204.1080  147.4500 C   0  0  0  0  0  2  0  0  0  0  0  0
  157.6040  211.5530  155.5380 C   0  0  2  0  0  3  0  0  0  0  0  0
  158.7760  214.4530  150.6610 C   0  0  0  0  0  3  0  0  0  0  0  0
  154.3000  214.4530  153.0550 S   0  0  0  0  0  0  0  0  0  0  0  0
  156.7190  214.3200  152.0160 N   0  0  0  0  0  2  0  0  0  0  0  0
  155.8200  213.8550  153.0330 C   0  0  0  0  0  0  0  0  0  0  0  0
  157.5530  212.4390  154.2900 C   0  0  1  0  0  3  0  0  0  0  0  0
  159.9720  213.8030  150.3620 C   0  0  0  0  0  3  0  0  0  0  0  0
  158.0000  211.6630  153.0710 C   0  0  0  0  0  2  0  0  0  0  0  0
  157.9910  213.7940  151.6170 C   0  0  0  0  0  0  0  0  0  0  0  0
  160.0250  212.4020  151.2940 S   0  0  0  0  0  0  0  0  0  0  0  0
  156.2120  212.9610  154.0820 N   0  0  0  0  0  2  0  0  0  0  0  0
  158.5600  212.6100  152.0750 C   0  0  0  0  0  0  0  0  0  0  0  0
  157.2710  212.3300  156.7310 N   0  0  0  0  0  2  0  0  0  0  0  0
  154.9610  212.9310  157.1650 C   0  0  0  0  0  1  0  0  0  0  0  0
  156.0010  211.8300  157.2350 C   0  0  0  0  0  3  0  0  0  0  0  0
  155.5420  210.6550  156.3910 C   0  0  0  0  0  1  0  0  0  0  0  0
  1  5  1  0  0  0  0
  1  2  1  0  0  0  0
  2 29  1  6  0  0  0
  2  6  1  0  0  0  0
  3  4  1  0  0  0  0
  5 18  1  6  0  0  0
  5  3  1  0  0  0  0
  6  4  1  0  0  0  0
  7  3  2  0  0  0  0
  9 23  1  1  0  0  0
  9 13  1  0  0  0  0
 10 22  1  6  0  0  0
 10 12  1  0  0  0  0
 11 13  1  0  0  0  0
 11 15  2  0  0  0  0
 12 17  2  0  0  0  0
 14 26  1  6  0  0  0
 14  9  1  0  0  0  0
 15 18  1  0  0  0  0
 16 10  1  0  0  0  0
 16 21  1  0  0  0  0
 17 20  1  0  0  0  0
 19 12  1  6  0  0  0
 19 11  1  0  0  0  0
 20 18  2  0  0  0  0
 21  8  1  6  0  0  0
 21 14  1  0  0  0  0
 21 19  1  0  0  0  0
 23 24  1  0  0  0  0
 26 25  1  1  0  0  0
 27 28  1  0  0  0  0
 28 26  1  0  0  0  0
 29 41  1  1  0  0  0
 30 37  1  0  0  0  0
 32 33  1  0  0  0  0
 33 31  2  0  0  0  0
 33 39  1  0  0  0  0
 34 29  1  1  0  0  0
 35 30  2  0  0  0  0
 35 38  1  0  0  0  0
 36 34  1  0  0  0  0
 37 32  1  0  0  0  0
 37 40  2  0  0  0  0
 38 40  1  0  0  0  0
 39 34  1  0  0  0  0
 40 36  1  0  0  0  0
 41 43  1  0  0  0  0
 42 43  1  0  0  0  0
 44 43  1  0  0  0  0
M  END
>  <MODEL>
7

>  <REMARK>
 VINA RESULT:      -6.8      1.652      2.665
  Name = 
  8 active torsions:
  status: ('A' for Active; 'I' for Inactive)
    1  A    between atoms: C_3  and  O_10
    2  A    between atoms: C_9  and  C_38
    3  A    between atoms: C_11  and  C_38
    4  A    between atoms: C_20  and  C_34
    5  A    between atoms: C_22  and  C_32
    6  A    between atoms: C_23  and  C_32
    7  A    between atoms: C_28  and  N_37
    8  A    between atoms: N_37  and  C_38
                            x       y       z     vdW  Elec       q    Type
                         _______ _______ _______ _____ _____    ______ ____

>  <TORSDO>
F 8

$$$$
=
 OpenBabel11072413213D

 44 49  0  0  1  0  0  0  0  0999 V2000
  161.1660  207.3420  151.9770 C   0  0  0  0  0  2  0  0  0  0  0  0
  161.9170  206.0350  152.2270 C   0  0  1  0  0  3  0  0  0  0  0  0
  161.5930  207.8750  154.4090 C   0  0  0  0  0  0  0  0  0  0  0  0
  161.7140  206.4680  154.6390 N   0  0  0  0  0  2  0  0  0  0  0  0
  161.5620  208.4120  152.9980 C   0  0  2  0  0  3  0  0  0  0  0  0
  161.4740  205.4900  153.5830 C   0  0  0  0  0  2  0  0  0  0  0  0
  161.6200  208.6660  155.3890 O   0  0  0  0  0  0  0  0  0  0  0  0
  159.3510  213.9860  155.3390 O   0  0  0  0  0  1  0  0  0  0  0  0
  157.1610  211.9380  155.6580 C   0  0  1  0  0  3  0  0  0  0  0  0
  158.8550  213.6840  151.8290 C   0  0  1  0  0  3  0  0  0  0  0  0
  158.8820  210.8540  154.1330 C   0  0  0  0  0  0  0  0  0  0  0  0
  159.4730  212.4100  152.2690 C   0  0  0  0  0  0  0  0  0  0  0  0
  157.6850  210.6560  155.0130 C   0  0  0  0  0  2  0  0  0  0  0  0
  157.1800  213.1280  154.6890 C   0  0  2  0  0  3  0  0  0  0  0  0
  159.5120  209.7370  153.7670 C   0  0  0  0  0  3  0  0  0  0  0  0
  158.6310  214.4530  153.1170 C   0  0  0  0  0  2  0  0  0  0  0  0
  160.1860  211.6430  151.4430 C   0  0  0  0  0  3  0  0  0  0  0  0
  160.6790  209.6160  152.8650 C   0  0  0  0  0  0  0  0  0  0  0  0
  159.4070  212.2200  153.7410 C   0  0  1  0  0  3  0  0  0  0  0  0
  160.9190  210.4250  151.8240 C   0  0  0  0  0  3  0  0  0  0  0  0
  158.6360  213.4480  154.2690 C   0  0  1  0  0  0  0  0  0  0  0  0
  159.7310  214.4050  151.0150 O   0  0  0  0  0  1  0  0  0  0  0  0
  155.9210  211.7410  156.3110 O   0  0  0  0  0  0  0  0  0  0  0  0
  155.2420  210.6700  155.7060 C   0  0  0  0  0  1  0  0  0  0  0  0
  156.4220  214.3860  156.6280 O   0  0  0  0  0  1  0  0  0  0  0  0
  156.3600  214.3200  155.2350 C   0  0  2  0  0  3  0  0  0  0  0  0
  154.8750  214.4130  153.3650 O   0  0  0  0  0  1  0  0  0  0  0  0
  154.9140  214.3470  154.7580 C   0  0  0  0  0  2  0  0  0  0  0  0
  161.6060  205.0060  151.1340 C   0  0  2  0  0  3  0  0  0  0  0  0
  162.5070  205.8520  145.4730 C   0  0  0  0  0  3  0  0  0  0  0  0
  162.0830  209.5310  148.9440 S   0  0  0  0  0  0  0  0  0  0  0  0
  162.3010  207.4510  147.3410 N   0  0  0  0  0  2  0  0  0  0  0  0
  162.0300  207.9220  148.6690 C   0  0  0  0  0  0  0  0  0  0  0  0
  161.8520  205.5970  149.7430 C   0  0  1  0  0  3  0  0  0  0  0  0
  162.1970  204.5590  145.0580 C   0  0  0  0  0  3  0  0  0  0  0  0
  160.8310  205.0740  148.7570 C   0  0  0  0  0  2  0  0  0  0  0  0
  162.0800  206.1530  146.7740 C   0  0  0  0  0  0  0  0  0  0  0  0
  161.3810  203.8100  146.3270 S   0  0  0  0  0  0  0  0  0  0  0  0
  161.8030  207.0500  149.7820 N   0  0  0  0  0  2  0  0  0  0  0  0
  161.4210  205.0970  147.3950 C   0  0  0  0  0  0  0  0  0  0  0  0
  160.2330  204.5170  151.2470 N   0  0  0  0  0  2  0  0  0  0  0  0
  160.0100  202.4200  150.0500 C   0  0  0  0  0  1  0  0  0  0  0  0
  160.2970  203.0710  151.3880 C   0  0  0  0  0  3  0  0  0  0  0  0
  161.6820  202.6620  151.8560 C   0  0  0  0  0  1  0  0  0  0  0  0
  1  2  1  0  0  0  0
  1  5  1  0  0  0  0
  2 29  1  6  0  0  0
  2  6  1  0  0  0  0
  3  4  1  0  0  0  0
  3  7  2  0  0  0  0
  5 18  1  1  0  0  0
  5  3  1  0  0  0  0
  6  4  1  0  0  0  0
  9 23  1  6  0  0  0
 10 22  1  6  0  0  0
 10 12  1  0  0  0  0
 10 16  1  0  0  0  0
 11 13  1  0  0  0  0
 13  9  1  0  0  0  0
 14 26  1  1  0  0  0
 14  9  1  0  0  0  0
 15 11  2  0  0  0  0
 16 21  1  0  0  0  0
 17 20  1  0  0  0  0
 17 12  2  0  0  0  0
 18 15  1  0  0  0  0
 19 12  1  6  0  0  0
 19 11  1  0  0  0  0
 19 21  1  0  0  0  0
 20 18  2  0  0  0  0
 21 14  1  0  0  0  0
 21  8  1  1  0  0  0
 24 23  1  0  0  0  0
 26 25  1  1  0  0  0
 27 28  1  0  0  0  0
 28 26  1  0  0  0  0
 29 41  1  6  0  0  0
 30 37  1  0  0  0  0
 32 33  1  0  0  0  0
 33 31  2  0  0  0  0
 33 39  1  0  0  0  0
 34 39  1  0  0  0  0
 34 29  1  1  0  0  0
 35 30  2  0  0  0  0
 35 38  1  0  0  0  0
 36 34  1  0  0  0  0
 37 32  1  0  0  0  0
 37 40  2  0  0  0  0
 38 40  1  0  0  0  0
 40 36  1  0  0  0  0
 41 43  1  0  0  0  0
 42 43  1  0  0  0  0
 43 44  1  0  0  0  0
M  END
>  <MODEL>
8

>  <REMARK>
 VINA RESULT:      -6.0      4.162      9.330
  Name = 
  8 active torsions:
  status: ('A' for Active; 'I' for Inactive)
    1  A    between atoms: C_3  and  O_10
    2  A    between atoms: C_9  and  C_38
    3  A    between atoms: C_11  and  C_38
    4  A    between atoms: C_20  and  C_34
    5  A    between atoms: C_22  and  C_32
    6  A    between atoms: C_23  and  C_32
    7  A    between atoms: C_28  and  N_37
    8  A    between atoms: N_37  and  C_38
                            x       y       z     vdW  Elec       q    Type
                         _______ _______ _______ _____ _____    ______ ____

>  <TORSDO>
F 8

$$$$
=
 OpenBabel11072413213D

 44 49  0  0  1  0  0  0  0  0999 V2000
  161.4070  209.1980  152.2370 C   0  0  0  0  0  2  0  0  0  0  0  0
  161.1360  210.4780  153.0250 C   0  0  1  0  0  3  0  0  0  0  0  0
  161.7110  210.6860  150.2180 C   0  0  0  0  0  0  0  0  0  0  0  0
  160.8960  211.6570  150.8800 N   0  0  0  0  0  2  0  0  0  0  0  0
  162.2280  209.4870  150.9760 C   0  0  2  0  0  3  0  0  0  0  0  0
  160.2570  211.3830  152.1640 C   0  0  0  0  0  2  0  0  0  0  0  0
  162.0800  210.8950  149.0320 O   0  0  0  0  0  0  0  0  0  0  0  0
  159.3570  204.6110  147.9090 O   0  0  0  0  0  1  0  0  0  0  0  0
  160.7210  203.4710  150.3440 C   0  0  1  0  0  3  0  0  0  0  0  0
  162.6120  205.2950  146.6450 C   0  0  1  0  0  3  0  0  0  0  0  0
  161.6180  205.8390  150.1140 C   0  0  0  0  0  0  0  0  0  0  0  0
  162.4020  206.2320  147.7750 C   0  0  0  0  0  0  0  0  0  0  0  0
  161.4650  204.6360  150.9960 C   0  0  0  0  0  2  0  0  0  0  0  0
  161.1260  203.2680  148.8770 C   0  0  2  0  0  3  0  0  0  0  0  0
  162.0260  206.9480  150.7310 C   0  0  0  0  0  3  0  0  0  0  0  0
  161.3730  204.4200  146.6530 C   0  0  0  0  0  2  0  0  0  0  0  0
  163.0430  207.3980  147.8580 C   0  0  0  0  0  3  0  0  0  0  0  0
  162.3180  208.2640  150.1160 C   0  0  0  0  0  0  0  0  0  0  0  0
  161.2620  205.8390  148.6410 C   0  0  1  0  0  3  0  0  0  0  0  0
  162.8150  208.4300  148.8830 C   0  0  0  0  0  3  0  0  0  0  0  0
  160.7420  204.5160  148.0430 C   0  0  1  0  0  0  0  0  0  0  0  0
  162.6740  205.9840  145.4320 O   0  0  0  0  0  1  0  0  0  0  0  0
  160.7750  202.2950  151.1290 O   0  0  0  0  0  0  0  0  0  0  0  0
  161.8020  202.4180  152.0800 C   0  0  0  0  0  1  0  0  0  0  0  0
  159.4500  201.5080  148.9690 O   0  0  0  0  0  1  0  0  0  0  0  0
  160.6240  201.9120  148.3300 C   0  0  2  0  0  3  0  0  0  0  0  0
  161.5270  199.9800  147.2530 O   0  0  0  0  0  1  0  0  0  0  0  0
  161.6680  200.8040  148.3690 C   0  0  0  0  0  2  0  0  0  0  0  0
  160.4170  210.1680  154.3430 C   0  0  2  0  0  3  0  0  0  0  0  0
  156.1760  214.0080  155.2610 C   0  0  0  0  0  3  0  0  0  0  0  0
  160.8350  214.2690  157.2590 S   0  0  0  0  0  0  0  0  0  0  0  0
  158.5030  213.9320  156.0790 N   0  0  0  0  0  2  0  0  0  0  0  0
  159.8100  213.3990  156.3320 C   0  0  0  0  0  0  0  0  0  0  0  0
  159.5650  211.3590  154.7930 C   0  0  1  0  0  3  0  0  0  0  0  0
  155.1350  213.2340  154.7530 C   0  0  0  0  0  3  0  0  0  0  0  0
  158.2710  210.8800  155.4120 C   0  0  0  0  0  2  0  0  0  0  0  0
  157.3470  213.2860  155.5290 C   0  0  0  0  0  0  0  0  0  0  0  0
  155.6940  211.6480  154.6540 S   0  0  0  0  0  0  0  0  0  0  0  0
  160.2930  212.1860  155.7420 N   0  0  0  0  0  2  0  0  0  0  0  0
  157.2370  211.9300  155.2390 C   0  0  0  0  0  0  0  0  0  0  0  0
  161.3700  209.7970  155.3870 N   0  0  0  0  0  2  0  0  0  0  0  0
  160.3990  207.5910  155.1120 C   0  0  0  0  0  1  0  0  0  0  0  0
  160.8090  208.6620  156.1040 C   0  0  0  0  0  3  0  0  0  0  0  0
  161.8460  208.0920  157.0540 C   0  0  0  0  0  1  0  0  0  0  0  0
  1  2  1  0  0  0  0
  2 29  1  1  0  0  0
  3  4  1  0  0  0  0
  3  5  1  0  0  0  0
  4  6  1  0  0  0  0
  5 18  1  6  0  0  0
  5  1  1  0  0  0  0
  6  2  1  0  0  0  0
  7  3  2  0  0  0  0
  9 13  1  0  0  0  0
  9 23  1  1  0  0  0
 10 22  1  6  0  0  0
 10 16  1  0  0  0  0
 10 12  1  0  0  0  0
 11 15  2  0  0  0  0
 11 13  1  0  0  0  0
 12 17  2  0  0  0  0
 14 26  1  6  0  0  0
 14  9  1  0  0  0  0
 16 21  1  0  0  0  0
 17 20  1  0  0  0  0
 18 15  1  0  0  0  0
 19 12  1  6  0  0  0
 19 11  1  0  0  0  0
 20 18  2  0  0  0  0
 21  8  1  6  0  0  0
 21 19  1  0  0  0  0
 21 14  1  0  0  0  0
 23 24  1  0  0  0  0
 26 28  1  0  0  0  0
 26 25  1  1  0  0  0
 27 28  1  0  0  0  0
 29 41  1  1  0  0  0
 30 37  1  0  0  0  0
 32 33  1  0  0  0  0
 33 31  2  0  0  0  0
 34 29  1  1  0  0  0
 34 36  1  0  0  0  0
 34 39  1  0  0  0  0
 35 30  2  0  0  0  0
 37 32  1  0  0  0  0
 38 35  1  0  0  0  0
 38 40  1  0  0  0  0
 39 33  1  0  0  0  0
 40 36  1  0  0  0  0
 40 37  2  0  0  0  0
 41 43  1  0  0  0  0
 42 43  1  0  0  0  0
 43 44  1  0  0  0  0
M  END
>  <MODEL>
9

>  <REMARK>
 VINA RESULT:      -5.5      2.475      3.962
  Name = 
  8 active torsions:
  status: ('A' for Active; 'I' for Inactive)
    1  A    between atoms: C_3  and  O_10
    2  A    between atoms: C_9  and  C_38
    3  A    between atoms: C_11  and  C_38
    4  A    between atoms: C_20  and  C_34
    5  A    between atoms: C_22  and  C_32
    6  A    between atoms: C_23  and  C_32
    7  A    between atoms: C_28  and  N_37
    8  A    between atoms: N_37  and  C_38
                            x       y       z     vdW  Elec       q    Type
                         _______ _______ _______ _____ _____    ______ ____

>  <TORSDO>
F 8

$$$$
