=
 OpenBabel11072412223D

 27 29  0  0  1  0  0  0  0  0999 V2000
  161.8190  207.2750  148.8490 C   0  0  0  0  0  0  0  0  0  0  0  0
  162.3010  208.3980  148.3360 C   0  0  0  0  0  3  0  0  0  0  0  0
  161.8620  209.4530  149.2350 C   0  0  0  0  0  0  0  0  0  0  0  0
  161.1550  209.0040  150.2200 N   0  0  0  0  0  0  0  0  0  0  0  0
  161.0380  207.5570  150.0990 C   0  0  2  0  0  3  0  0  0  0  0  0
  161.5090  211.8550  149.8550 N   0  0  0  0  0  1  0  0  0  0  0  0
  163.0220  211.2410  148.2080 O   0  0  0  0  0  0  0  0  0  0  0  0
  162.1710  210.8770  149.0610 C   0  0  0  0  0  0  0  0  0  0  0  0
  163.0390  207.0620  151.3320 O   0  0  0  0  0  1  0  0  0  0  0  0
  161.6530  206.8810  151.3300 C   0  0  1  0  0  3  0  0  0  0  0  0
  160.9610  208.3600  155.2890 C   0  0  0  0  0  2  0  0  0  0  0  0
  161.4670  210.8450  154.3520 Cl  0  0  0  0  0  0  0  0  0  0  0  0
  161.6970  208.6180  153.0150 O   0  0  0  0  0  0  0  0  0  0  0  0
  161.1400  206.3900  153.7470 C   0  0  0  0  0  2  0  0  0  0  0  0
  161.0540  207.4260  152.6250 C   0  0  2  0  0  3  0  0  0  0  0  0
  160.4530  206.9500  154.9900 C   0  0  0  0  0  2  0  0  0  0  0  0
  160.8920  209.1970  154.0120 C   0  0  1  0  0  3  0  0  0  0  0  0
  161.9730  205.9120  148.2270 C   0  0  2  0  0  3  0  0  0  0  0  0
  162.1590  205.9420  146.6980 C   0  0  2  0  0  3  0  0  0  0  0  0
  160.1640  205.6160  145.2140 C   0  0  0  0  0  3  0  0  0  0  0  0
  159.9340  203.5070  144.1710 O   0  0  0  0  0  0  0  0  0  0  0  0
  160.8760  206.3970  146.0290 C   0  0  0  0  0  3  0  0  0  0  0  0
  162.6650  204.6110  146.1720 C   0  0  0  0  0  3  0  0  0  0  0  0
  161.9540  203.8320  145.3550 C   0  0  0  0  0  3  0  0  0  0  0  0
  160.6380  204.2690  144.8820 C   0  0  0  0  0  0  0  0  0  0  0  0
  160.8390  204.9820  148.6630 C   0  0  0  0  0  2  0  0  0  0  0  0
  161.3350  203.8810  149.3650 O   0  0  0  0  0  1  0  0  0  0  0  0
  1  5  1  0  0  0  0
  2  1  2  0  0  0  0
  2  3  1  0  0  0  0
  3  4  2  0  0  0  0
  5  4  1  0  0  0  0
  5 10  1  1  0  0  0
  7  8  2  0  0  0  0
  8  3  1  0  0  0  0
  8  6  1  0  0  0  0
 10  9  1  1  0  0  0
 13 17  1  0  0  0  0
 14 16  1  0  0  0  0
 15 10  1  6  0  0  0
 15 13  1  0  0  0  0
 15 14  1  0  0  0  0
 16 11  1  0  0  0  0
 17 12  1  1  0  0  0
 17 11  1  0  0  0  0
 18 26  1  6  0  0  0
 18  1  1  0  0  0  0
 19 18  1  1  0  0  0
 20 22  2  0  0  0  0
 21 25  2  0  0  0  0
 22 19  1  0  0  0  0
 23 19  1  0  0  0  0
 24 23  2  0  0  0  0
 25 20  1  0  0  0  0
 25 24  1  0  0  0  0
 26 27  1  0  0  0  0
M  END
>  <MODEL>
1

>  <REMARK>
 VINA RESULT:      -7.0      0.000      0.000
  Name = 
  6 active torsions:
  status: ('A' for Active; 'I' for Inactive)
    1  A    between atoms: C_3  and  C_27
    2  A    between atoms: C_7  and  C_27
    3  A    between atoms: C_11  and  C_18
    4  A    between atoms: C_15  and  C_24
    5  A    between atoms: C_16  and  C_27
    6  A    between atoms: C_18  and  C_26
                            x       y       z     vdW  Elec       q    Type
                         _______ _______ _______ _____ _____    ______ ____

>  <TORSDO>
F 6

$$$$
=
 OpenBabel11072412223D

 27 29  0  0  1  0  0  0  0  0999 V2000
  161.3670  205.8660  150.6760 C   0  0  0  0  0  0  0  0  0  0  0  0
  161.9150  206.7110  149.8150 C   0  0  0  0  0  3  0  0  0  0  0  0
  161.5840  208.0370  150.3100 C   0  0  0  0  0  0  0  0  0  0  0  0
  160.8780  208.0010  151.3910 N   0  0  0  0  0  0  0  0  0  0  0  0
  160.6490  206.6120  151.7630 C   0  0  2  0  0  3  0  0  0  0  0  0
  162.0550  210.4960  150.4230 N   0  0  0  0  0  1  0  0  0  0  0  0
  162.2930  209.3090  148.4440 O   0  0  0  0  0  0  0  0  0  0  0  0
  161.9940  209.2920  149.6670 C   0  0  0  0  0  0  0  0  0  0  0  0
  162.6450  206.3630  153.0740 O   0  0  0  0  0  1  0  0  0  0  0  0
  161.2490  206.3380  153.1460 C   0  0  1  0  0  3  0  0  0  0  0  0
  160.7420  208.8890  156.5490 C   0  0  0  0  0  2  0  0  0  0  0  0
  162.2190  210.7520  155.2590 Cl  0  0  0  0  0  0  0  0  0  0  0  0
  161.7530  208.3180  154.4430 O   0  0  0  0  0  0  0  0  0  0  0  0
  160.3450  206.6570  155.4750 C   0  0  0  0  0  2  0  0  0  0  0  0
  160.7620  207.3530  154.1780 C   0  0  2  0  0  3  0  0  0  0  0  0
  159.7870  207.7020  156.4380 C   0  0  0  0  0  2  0  0  0  0  0  0
  161.1190  209.3600  155.1440 C   0  0  1  0  0  3  0  0  0  0  0  0
  161.3990  204.3660  150.5460 C   0  0  2  0  0  3  0  0  0  0  0  0
  160.5470  203.8230  149.3830 C   0  0  2  0  0  3  0  0  0  0  0  0
  160.2020  201.3490  149.1670 C   0  0  0  0  0  3  0  0  0  0  0  0
  161.4470  200.2320  147.4960 O   0  0  0  0  0  0  0  0  0  0  0  0
  159.9160  202.5010  149.7760 C   0  0  0  0  0  3  0  0  0  0  0  0
  161.3490  203.7410  148.0970 C   0  0  0  0  0  3  0  0  0  0  0  0
  161.6320  202.5880  147.4870 C   0  0  0  0  0  3  0  0  0  0  0  0
  161.1230  201.3250  148.0270 C   0  0  0  0  0  0  0  0  0  0  0  0
  161.0660  203.6960  151.8810 C   0  0  0  0  0  2  0  0  0  0  0  0
  161.8650  202.5700  152.0890 O   0  0  0  0  0  1  0  0  0  0  0  0
  1  5  1  0  0  0  0
  2  3  1  0  0  0  0
  2  1  2  0  0  0  0
  3  4  2  0  0  0  0
  4  5  1  0  0  0  0
  5 10  1  1  0  0  0
  7  8  2  0  0  0  0
  8  3  1  0  0  0  0
  8  6  1  0  0  0  0
 10  9  1  6  0  0  0
 13 17  1  0  0  0  0
 14 16  1  0  0  0  0
 15 10  1  6  0  0  0
 15 13  1  0  0  0  0
 15 14  1  0  0  0  0
 16 11  1  0  0  0  0
 17 12  1  1  0  0  0
 17 11  1  0  0  0  0
 18  1  1  0  0  0  0
 18 26  1  1  0  0  0
 19 22  1  0  0  0  0
 19 18  1  1  0  0  0
 20 22  2  0  0  0  0
 21 25  2  0  0  0  0
 23 19  1  0  0  0  0
 24 25  1  0  0  0  0
 24 23  2  0  0  0  0
 25 20  1  0  0  0  0
 26 27  1  0  0  0  0
M  END
>  <MODEL>
2

>  <REMARK>
 VINA RESULT:      -7.0      2.141      2.832
  Name = 
  6 active torsions:
  status: ('A' for Active; 'I' for Inactive)
    1  A    between atoms: C_3  and  C_27
    2  A    between atoms: C_7  and  C_27
    3  A    between atoms: C_11  and  C_18
    4  A    between atoms: C_15  and  C_24
    5  A    between atoms: C_16  and  C_27
    6  A    between atoms: C_18  and  C_26
                            x       y       z     vdW  Elec       q    Type
                         _______ _______ _______ _____ _____    ______ ____

>  <TORSDO>
F 6

$$$$
=
 OpenBabel11072412223D

 27 29  0  0  1  0  0  0  0  0999 V2000
  161.5050  208.4230  150.9590 C   0  0  0  0  0  0  0  0  0  0  0  0
  161.5260  209.7450  150.8580 C   0  0  0  0  0  3  0  0  0  0  0  0
  161.9850  210.0240  149.5070 C   0  0  0  0  0  0  0  0  0  0  0  0
  162.2350  208.9470  148.8370 N   0  0  0  0  0  0  0  0  0  0  0  0
  161.9610  207.7900  149.6770 C   0  0  2  0  0  3  0  0  0  0  0  0
  161.2580  212.4130  149.3050 N   0  0  0  0  0  1  0  0  0  0  0  0
  163.0990  211.6070  148.1460 O   0  0  0  0  0  0  0  0  0  0  0  0
  162.1560  211.3690  148.9470 C   0  0  0  0  0  0  0  0  0  0  0  0
  160.6840  207.3030  147.7010 O   0  0  0  0  0  1  0  0  0  0  0  0
  160.8650  206.9290  149.0360 C   0  0  1  0  0  3  0  0  0  0  0  0
  160.8040  202.6470  149.0240 C   0  0  0  0  0  2  0  0  0  0  0  0
  161.3810  202.7360  146.3840 Cl  0  0  0  0  0  0  0  0  0  0  0  0
  160.8730  204.7820  147.9200 O   0  0  0  0  0  0  0  0  0  0  0  0
  160.4810  204.7840  150.2980 C   0  0  0  0  0  2  0  0  0  0  0  0
  161.2020  205.4420  149.1200 C   0  0  2  0  0  3  0  0  0  0  0  0
  160.9180  203.3230  150.3890 C   0  0  0  0  0  2  0  0  0  0  0  0
  161.4930  203.5200  147.9750 C   0  0  1  0  0  3  0  0  0  0  0  0
  161.1440  207.6630  152.2070 C   0  0  2  0  0  3  0  0  0  0  0  0
  160.5160  208.5370  153.3100 C   0  0  2  0  0  3  0  0  0  0  0  0
  162.0140  209.8400  154.8420 C   0  0  0  0  0  3  0  0  0  0  0  0
  162.3100  208.9950  157.0300 O   0  0  0  0  0  0  0  0  0  0  0  0
  161.4410  209.6910  153.6450 C   0  0  0  0  0  3  0  0  0  0  0  0
  160.1300  207.7110  154.5230 C   0  0  0  0  0  3  0  0  0  0  0  0
  160.7010  207.8630  155.7190 C   0  0  0  0  0  3  0  0  0  0  0  0
  161.7180  208.8970  155.9240 C   0  0  0  0  0  0  0  0  0  0  0  0
  162.3340  206.8450  152.7120 C   0  0  0  0  0  2  0  0  0  0  0  0
  161.9380  205.5590  153.0840 O   0  0  0  0  0  1  0  0  0  0  0  0
  1 18  1  0  0  0  0
  2  1  2  0  0  0  0
  3  2  1  0  0  0  0
  4  3  2  0  0  0  0
  4  5  1  0  0  0  0
  5 10  1  6  0  0  0
  5  1  1  0  0  0  0
  7  8  2  0  0  0  0
  8  6  1  0  0  0  0
  8  3  1  0  0  0  0
 10  9  1  6  0  0  0
 11 16  1  0  0  0  0
 13 17  1  0  0  0  0
 13 15  1  0  0  0  0
 14 16  1  0  0  0  0
 15 10  1  6  0  0  0
 15 14  1  0  0  0  0
 17 12  1  6  0  0  0
 17 11  1  0  0  0  0
 18 26  1  1  0  0  0
 19 18  1  6  0  0  0
 19 22  1  0  0  0  0
 19 23  1  0  0  0  0
 20 25  1  0  0  0  0
 22 20  2  0  0  0  0
 23 24  2  0  0  0  0
 24 25  1  0  0  0  0
 25 21  2  0  0  0  0
 26 27  1  0  0  0  0
M  END
>  <MODEL>
3

>  <REMARK>
 VINA RESULT:      -6.9      2.960      6.869
  Name = 
  6 active torsions:
  status: ('A' for Active; 'I' for Inactive)
    1  A    between atoms: C_3  and  C_27
    2  A    between atoms: C_7  and  C_27
    3  A    between atoms: C_11  and  C_18
    4  A    between atoms: C_15  and  C_24
    5  A    between atoms: C_16  and  C_27
    6  A    between atoms: C_18  and  C_26
                            x       y       z     vdW  Elec       q    Type
                         _______ _______ _______ _____ _____    ______ ____

>  <TORSDO>
F 6

$$$$
=
 OpenBabel11072412223D

 27 29  0  0  1  0  0  0  0  0999 V2000
  161.1960  206.4520  151.2700 C   0  0  0  0  0  0  0  0  0  0  0  0
  161.4640  205.2600  151.7850 C   0  0  0  0  0  3  0  0  0  0  0  0
  160.9910  204.2980  150.8030 C   0  0  0  0  0  0  0  0  0  0  0  0
  160.4640  204.8650  149.7680 N   0  0  0  0  0  0  0  0  0  0  0  0
  160.5280  206.3110  149.9340 C   0  0  2  0  0  3  0  0  0  0  0  0
  160.4880  201.9830  149.9860 N   0  0  0  0  0  1  0  0  0  0  0  0
  161.6980  202.3430  151.9320 O   0  0  0  0  0  0  0  0  0  0  0  0
  161.0870  202.8420  150.9510 C   0  0  0  0  0  0  0  0  0  0  0  0
  162.6930  207.0500  149.2040 O   0  0  0  0  0  1  0  0  0  0  0  0
  161.3590  206.9280  148.8030 C   0  0  1  0  0  3  0  0  0  0  0  0
  161.6880  205.3680  144.8290 C   0  0  0  0  0  2  0  0  0  0  0  0
  163.9740  204.1430  145.5960 Cl  0  0  0  0  0  0  0  0  0  0  0  0
  162.5560  205.7970  147.0300 O   0  0  0  0  0  0  0  0  0  0  0  0
  160.4490  206.8180  146.4570 C   0  0  0  0  0  2  0  0  0  0  0  0
  161.2710  206.0950  147.5260 C   0  0  2  0  0  3  0  0  0  0  0  0
  160.3200  205.9100  145.2370 C   0  0  0  0  0  2  0  0  0  0  0  0
  162.3850  204.7910  146.0610 C   0  0  1  0  0  3  0  0  0  0  0  0
  161.4600  207.7640  151.9590 C   0  0  2  0  0  3  0  0  0  0  0  0
  160.5480  208.0250  153.1730 C   0  0  2  0  0  3  0  0  0  0  0  0
  160.9060  210.0870  154.5550 C   0  0  0  0  0  3  0  0  0  0  0  0
  161.9750  209.8060  156.6460 O   0  0  0  0  0  0  0  0  0  0  0  0
  160.4520  209.5150  153.4380 C   0  0  0  0  0  3  0  0  0  0  0  0
  160.9960  207.2320  154.3870 C   0  0  0  0  0  3  0  0  0  0  0  0
  161.4470  207.8040  155.5050 C   0  0  0  0  0  3  0  0  0  0  0  0
  161.4830  209.2640  155.6230 C   0  0  0  0  0  0  0  0  0  0  0  0
  161.4480  208.9190  150.9560 C   0  0  0  0  0  2  0  0  0  0  0  0
  162.5570  209.7490  151.1340 O   0  0  0  0  0  1  0  0  0  0  0  0
  1  2  2  0  0  0  0
  1 18  1  0  0  0  0
  3  8  1  0  0  0  0
  3  2  1  0  0  0  0
  4  5  1  0  0  0  0
  4  3  2  0  0  0  0
  5 10  1  6  0  0  0
  5  1  1  0  0  0  0
  6  8  1  0  0  0  0
  8  7  2  0  0  0  0
 10  9  1  1  0  0  0
 11 16  1  0  0  0  0
 11 17  1  0  0  0  0
 13 15  1  0  0  0  0
 14 15  1  0  0  0  0
 15 10  1  1  0  0  0
 16 14  1  0  0  0  0
 17 12  1  6  0  0  0
 17 13  1  0  0  0  0
 18 26  1  6  0  0  0
 19 18  1  6  0  0  0
 19 22  1  0  0  0  0
 19 23  1  0  0  0  0
 20 25  1  0  0  0  0
 22 20  2  0  0  0  0
 23 24  2  0  0  0  0
 24 25  1  0  0  0  0
 25 21  2  0  0  0  0
 26 27  1  0  0  0  0
M  END
>  <MODEL>
4

>  <REMARK>
 VINA RESULT:      -6.8      3.204      8.034
  Name = 
  6 active torsions:
  status: ('A' for Active; 'I' for Inactive)
    1  A    between atoms: C_3  and  C_27
    2  A    between atoms: C_7  and  C_27
    3  A    between atoms: C_11  and  C_18
    4  A    between atoms: C_15  and  C_24
    5  A    between atoms: C_16  and  C_27
    6  A    between atoms: C_18  and  C_26
                            x       y       z     vdW  Elec       q    Type
                         _______ _______ _______ _____ _____    ______ ____

>  <TORSDO>
F 6

$$$$
=
 OpenBabel11072412223D

 27 29  0  0  1  0  0  0  0  0999 V2000
  161.2050  204.4580  149.3590 C   0  0  0  0  0  0  0  0  0  0  0  0
  161.4070  204.2880  148.0600 C   0  0  0  0  0  3  0  0  0  0  0  0
  161.1630  205.5870  147.4570 C   0  0  0  0  0  0  0  0  0  0  0  0
  160.8270  206.4830  148.3260 N   0  0  0  0  0  0  0  0  0  0  0  0
  160.8110  205.8770  149.6500 C   0  0  2  0  0  3  0  0  0  0  0  0
  160.1170  206.2030  145.2640 N   0  0  0  0  0  1  0  0  0  0  0  0
  162.3980  205.8260  145.4520 O   0  0  0  0  0  0  0  0  0  0  0  0
  161.2750  205.8730  146.0220 C   0  0  0  0  0  0  0  0  0  0  0  0
  162.5680  207.5060  149.8160 O   0  0  0  0  0  1  0  0  0  0  0  0
  161.8250  206.5830  150.5580 C   0  0  1  0  0  3  0  0  0  0  0  0
  160.8520  208.9050  154.0230 C   0  0  0  0  0  2  0  0  0  0  0  0
  160.4780  211.0250  152.3860 Cl  0  0  0  0  0  0  0  0  0  0  0  0
  161.3690  208.6750  151.6860 O   0  0  0  0  0  0  0  0  0  0  0  0
  161.6010  206.7120  153.0630 C   0  0  0  0  0  2  0  0  0  0  0  0
  161.1340  207.2870  151.7250 C   0  0  2  0  0  3  0  0  0  0  0  0
  160.8210  207.3870  154.1890 C   0  0  0  0  0  2  0  0  0  0  0  0
  160.4610  209.2590  152.5880 C   0  0  1  0  0  3  0  0  0  0  0  0
  161.2890  203.3650  150.3920 C   0  0  2  0  0  3  0  0  0  0  0  0
  160.5690  202.0660  149.9840 C   0  0  2  0  0  3  0  0  0  0  0  0
  161.7820  200.3790  148.5800 C   0  0  0  0  0  3  0  0  0  0  0  0
  161.2040  200.2730  146.2900 O   0  0  0  0  0  0  0  0  0  0  0  0
  161.5810  200.9580  149.7660 C   0  0  0  0  0  3  0  0  0  0  0  0
  159.6590  202.2850  148.7890 C   0  0  0  0  0  3  0  0  0  0  0  0
  159.8590  201.7040  147.6050 C   0  0  0  0  0  3  0  0  0  0  0  0
  160.9700  200.7660  147.4230 C   0  0  0  0  0  0  0  0  0  0  0  0
  160.8460  203.8770  151.7640 C   0  0  0  0  0  2  0  0  0  0  0  0
  160.7740  202.8330  152.6890 O   0  0  0  0  0  1  0  0  0  0  0  0
  1  5  1  0  0  0  0
  1 18  1  0  0  0  0
  2  1  2  0  0  0  0
  3  2  1  0  0  0  0
  3  4  2  0  0  0  0
  4  5  1  0  0  0  0
  5 10  1  1  0  0  0
  6  8  1  0  0  0  0
  7  8  2  0  0  0  0
  8  3  1  0  0  0  0
 10  9  1  6  0  0  0
 11 16  1  0  0  0  0
 13 15  1  0  0  0  0
 13 17  1  0  0  0  0
 14 16  1  0  0  0  0
 15 10  1  6  0  0  0
 15 14  1  0  0  0  0
 17 12  1  1  0  0  0
 17 11  1  0  0  0  0
 18 26  1  1  0  0  0
 19 18  1  6  0  0  0
 20 22  2  0  0  0  0
 21 25  2  0  0  0  0
 22 19  1  0  0  0  0
 23 19  1  0  0  0  0
 24 23  2  0  0  0  0
 25 24  1  0  0  0  0
 25 20  1  0  0  0  0
 26 27  1  0  0  0  0
M  END
>  <MODEL>
5

>  <REMARK>
 VINA RESULT:      -6.8      2.777      3.952
  Name = 
  6 active torsions:
  status: ('A' for Active; 'I' for Inactive)
    1  A    between atoms: C_3  and  C_27
    2  A    between atoms: C_7  and  C_27
    3  A    between atoms: C_11  and  C_18
    4  A    between atoms: C_15  and  C_24
    5  A    between atoms: C_16  and  C_27
    6  A    between atoms: C_18  and  C_26
                            x       y       z     vdW  Elec       q    Type
                         _______ _______ _______ _____ _____    ______ ____

>  <TORSDO>
F 6

$$$$
=
 OpenBabel11072412223D

 27 29  0  0  1  0  0  0  0  0999 V2000
  161.6000  208.2840  150.1460 C   0  0  0  0  0  0  0  0  0  0  0  0
  162.0200  209.0840  149.1750 C   0  0  0  0  0  3  0  0  0  0  0  0
  161.7550  210.4340  149.6440 C   0  0  0  0  0  0  0  0  0  0  0  0
  161.2040  210.4530  150.8140 N   0  0  0  0  0  0  0  0  0  0  0  0
  161.0350  209.0840  151.2820 C   0  0  2  0  0  3  0  0  0  0  0  0
  161.2020  212.7820  148.9670 N   0  0  0  0  0  1  0  0  0  0  0  0
  163.0970  211.7070  148.1700 O   0  0  0  0  0  0  0  0  0  0  0  0
  162.0660  211.6530  148.8900 C   0  0  0  0  0  0  0  0  0  0  0  0
  162.7020  209.9470  152.7810 O   0  0  0  0  0  1  0  0  0  0  0  0
  161.8220  208.8790  152.5810 C   0  0  1  0  0  3  0  0  0  0  0  0
  160.0870  208.6410  156.4900 C   0  0  0  0  0  2  0  0  0  0  0  0
  159.7450  211.3220  156.4020 Cl  0  0  0  0  0  0  0  0  0  0  0  0
  160.9780  209.8670  154.6230 O   0  0  0  0  0  0  0  0  0  0  0  0
  161.2040  207.4680  154.5750 C   0  0  0  0  0  2  0  0  0  0  0  0
  160.8900  208.7390  153.7830 C   0  0  2  0  0  3  0  0  0  0  0  0
  160.1930  207.3310  155.7100 C   0  0  0  0  0  2  0  0  0  0  0  0
  159.8850  209.7930  155.5060 C   0  0  1  0  0  3  0  0  0  0  0  0
  161.6210  206.7790  150.0870 C   0  0  2  0  0  3  0  0  0  0  0  0
  160.8220  206.1900  148.9090 C   0  0  2  0  0  3  0  0  0  0  0  0
  161.5720  204.0320  147.8760 C   0  0  0  0  0  3  0  0  0  0  0  0
  162.6810  204.1670  145.7920 O   0  0  0  0  0  0  0  0  0  0  0  0
  160.9790  204.6820  148.8790 C   0  0  0  0  0  3  0  0  0  0  0  0
  161.1940  206.8530  147.5960 C   0  0  0  0  0  3  0  0  0  0  0  0
  161.7850  206.2030  146.5930 C   0  0  0  0  0  3  0  0  0  0  0  0
  162.0600  204.7690  146.7060 C   0  0  0  0  0  0  0  0  0  0  0  0
  161.2150  206.1750  151.4330 C   0  0  0  0  0  2  0  0  0  0  0  0
  162.2560  205.4230  151.9800 O   0  0  0  0  0  1  0  0  0  0  0  0
  1  5  1  0  0  0  0
  2  3  1  0  0  0  0
  2  1  2  0  0  0  0
  3  4  2  0  0  0  0
  4  5  1  0  0  0  0
  5 10  1  1  0  0  0
  7  8  2  0  0  0  0
  8  6  1  0  0  0  0
  8  3  1  0  0  0  0
 10  9  1  1  0  0  0
 13 17  1  0  0  0  0
 14 16  1  0  0  0  0
 15 10  1  6  0  0  0
 15 14  1  0  0  0  0
 15 13  1  0  0  0  0
 16 11  1  0  0  0  0
 17 12  1  1  0  0  0
 17 11  1  0  0  0  0
 18  1  1  0  0  0  0
 18 26  1  1  0  0  0
 19 18  1  1  0  0  0
 20 22  2  0  0  0  0
 21 25  2  0  0  0  0
 22 19  1  0  0  0  0
 23 19  1  0  0  0  0
 24 25  1  0  0  0  0
 24 23  2  0  0  0  0
 25 20  1  0  0  0  0
 26 27  1  0  0  0  0
M  END
>  <MODEL>
6

>  <REMARK>
 VINA RESULT:      -6.6      1.595      2.272
  Name = 
  6 active torsions:
  status: ('A' for Active; 'I' for Inactive)
    1  A    between atoms: C_3  and  C_27
    2  A    between atoms: C_7  and  C_27
    3  A    between atoms: C_11  and  C_18
    4  A    between atoms: C_15  and  C_24
    5  A    between atoms: C_16  and  C_27
    6  A    between atoms: C_18  and  C_26
                            x       y       z     vdW  Elec       q    Type
                         _______ _______ _______ _____ _____    ______ ____

>  <TORSDO>
F 6

$$$$
=
 OpenBabel11072412223D

 27 29  0  0  1  0  0  0  0  0999 V2000
  161.5470  208.1760  151.1520 C   0  0  0  0  0  0  0  0  0  0  0  0
  161.5990  209.4500  150.7890 C   0  0  0  0  0  3  0  0  0  0  0  0
  161.9200  209.4360  149.3720 C   0  0  0  0  0  0  0  0  0  0  0  0
  162.0630  208.2390  148.9070 N   0  0  0  0  0  0  0  0  0  0  0  0
  161.8430  207.2820  149.9830 C   0  0  2  0  0  3  0  0  0  0  0  0
  163.1980  211.4910  148.7190 N   0  0  0  0  0  1  0  0  0  0  0  0
  161.2110  210.9180  147.6680 O   0  0  0  0  0  0  0  0  0  0  0  0
  162.0740  210.6360  148.5410 C   0  0  0  0  0  0  0  0  0  0  0  0
  160.0590  206.8010  148.4490 O   0  0  0  0  0  1  0  0  0  0  0  0
  160.6590  206.3720  149.6370 C   0  0  1  0  0  3  0  0  0  0  0  0
  160.8730  202.1360  149.0430 C   0  0  0  0  0  2  0  0  0  0  0  0
  161.3240  202.6180  146.4200 Cl  0  0  0  0  0  0  0  0  0  0  0  0
  160.7550  204.3990  148.2390 O   0  0  0  0  0  0  0  0  0  0  0  0
  160.4710  204.0550  150.6070 C   0  0  0  0  0  2  0  0  0  0  0  0
  161.0950  204.9140  149.5050 C   0  0  2  0  0  3  0  0  0  0  0  0
  161.0040  202.6300  150.4830 C   0  0  0  0  0  2  0  0  0  0  0  0
  161.4560  203.1880  148.0990 C   0  0  1  0  0  3  0  0  0  0  0  0
  161.2960  207.6920  152.5560 C   0  0  2  0  0  3  0  0  0  0  0  0
  161.5410  208.7630  153.6360 C   0  0  2  0  0  3  0  0  0  0  0  0
  160.1240  208.7630  155.7050 C   0  0  0  0  0  3  0  0  0  0  0  0
  158.4250  210.4020  155.8440 O   0  0  0  0  0  0  0  0  0  0  0  0
  161.1220  208.2340  154.9940 C   0  0  0  0  0  3  0  0  0  0  0  0
  160.8740  210.0780  153.2780 C   0  0  0  0  0  3  0  0  0  0  0  0
  159.8780  210.6080  153.9910 C   0  0  0  0  0  3  0  0  0  0  0  0
  159.4100  209.9440  155.2100 C   0  0  0  0  0  0  0  0  0  0  0  0
  162.0600  206.3950  152.8310 C   0  0  0  0  0  2  0  0  0  0  0  0
  161.2270  205.4360  153.4100 O   0  0  0  0  0  1  0  0  0  0  0  0
  1 18  1  0  0  0  0
  2  1  2  0  0  0  0
  3  2  1  0  0  0  0
  4  3  2  0  0  0  0
  4  5  1  0  0  0  0
  5 10  1  6  0  0  0
  5  1  1  0  0  0  0
  7  8  2  0  0  0  0
  8  6  1  0  0  0  0
  8  3  1  0  0  0  0
 10  9  1  6  0  0  0
 11 16  1  0  0  0  0
 13 15  1  0  0  0  0
 15 10  1  6  0  0  0
 15 14  1  0  0  0  0
 16 14  1  0  0  0  0
 17 12  1  6  0  0  0
 17 13  1  0  0  0  0
 17 11  1  0  0  0  0
 18 26  1  1  0  0  0
 19 18  1  6  0  0  0
 19 22  1  0  0  0  0
 22 20  2  0  0  0  0
 23 19  1  0  0  0  0
 23 24  2  0  0  0  0
 24 25  1  0  0  0  0
 25 20  1  0  0  0  0
 25 21  2  0  0  0  0
 26 27  1  0  0  0  0
M  END
>  <MODEL>
7

>  <REMARK>
 VINA RESULT:      -6.5      3.129      6.930
  Name = 
  6 active torsions:
  status: ('A' for Active; 'I' for Inactive)
    1  A    between atoms: C_3  and  C_27
    2  A    between atoms: C_7  and  C_27
    3  A    between atoms: C_11  and  C_18
    4  A    between atoms: C_15  and  C_24
    5  A    between atoms: C_16  and  C_27
    6  A    between atoms: C_18  and  C_26
                            x       y       z     vdW  Elec       q    Type
                         _______ _______ _______ _____ _____    ______ ____

>  <TORSDO>
F 6

$$$$
=
 OpenBabel11072412223D

 27 29  0  0  1  0  0  0  0  0999 V2000
  161.5550  206.5780  150.2270 C   0  0  0  0  0  0  0  0  0  0  0  0
  162.0960  207.6090  149.5930 C   0  0  0  0  0  3  0  0  0  0  0  0
  161.6310  208.7880  150.3060 C   0  0  0  0  0  0  0  0  0  0  0  0
  160.8560  208.4950  151.2970 N   0  0  0  0  0  0  0  0  0  0  0  0
  160.7080  207.0480  151.3730 C   0  0  2  0  0  3  0  0  0  0  0  0
  162.3150  210.5020  148.6090 N   0  0  0  0  0  1  0  0  0  0  0  0
  162.0070  211.0630  150.8390 O   0  0  0  0  0  0  0  0  0  0  0  0
  161.9880  210.1670  149.9540 C   0  0  0  0  0  0  0  0  0  0  0  0
  162.6280  206.5650  152.7330 O   0  0  0  0  0  1  0  0  0  0  0  0
  161.2300  206.5420  152.7230 C   0  0  1  0  0  3  0  0  0  0  0  0
  160.5900  208.5870  156.4320 C   0  0  0  0  0  2  0  0  0  0  0  0
  161.9140  210.7020  155.3900 Cl  0  0  0  0  0  0  0  0  0  0  0  0
  161.6100  208.3690  154.2650 O   0  0  0  0  0  0  0  0  0  0  0  0
  160.3370  206.4910  155.0770 C   0  0  0  0  0  2  0  0  0  0  0  0
  160.6860  207.3770  153.8810 C   0  0  2  0  0  3  0  0  0  0  0  0
  159.7190  207.3590  156.1710 C   0  0  0  0  0  2  0  0  0  0  0  0
  160.9130  209.2620  155.0980 C   0  0  1  0  0  3  0  0  0  0  0  0
  161.7110  205.1380  149.8130 C   0  0  2  0  0  3  0  0  0  0  0  0
  160.8550  204.7440  148.5950 C   0  0  2  0  0  3  0  0  0  0  0  0
  161.9870  203.9080  146.5190 C   0  0  0  0  0  3  0  0  0  0  0  0
  162.1430  205.4120  144.7010 O   0  0  0  0  0  0  0  0  0  0  0  0
  161.5770  203.6950  147.7710 C   0  0  0  0  0  3  0  0  0  0  0  0
  160.4460  205.9600  147.7840 C   0  0  0  0  0  3  0  0  0  0  0  0
  160.8540  206.1710  146.5310 C   0  0  0  0  0  3  0  0  0  0  0  0
  161.6980  205.1830  145.8550 C   0  0  0  0  0  0  0  0  0  0  0  0
  161.5020  204.2020  151.0060 C   0  0  0  0  0  2  0  0  0  0  0  0
  160.2320  203.6220  150.9700 O   0  0  0  0  0  1  0  0  0  0  0  0
  1  5  1  0  0  0  0
  2  1  2  0  0  0  0
  2  3  1  0  0  0  0
  3  4  2  0  0  0  0
  4  5  1  0  0  0  0
  5 10  1  1  0  0  0
  6  8  1  0  0  0  0
  8  3  1  0  0  0  0
  8  7  2  0  0  0  0
 10  9  1  6  0  0  0
 13 17  1  0  0  0  0
 14 16  1  0  0  0  0
 15 10  1  6  0  0  0
 15 13  1  0  0  0  0
 15 14  1  0  0  0  0
 16 11  1  0  0  0  0
 17 12  1  1  0  0  0
 17 11  1  0  0  0  0
 18  1  1  0  0  0  0
 18 26  1  1  0  0  0
 19 18  1  1  0  0  0
 20 22  2  0  0  0  0
 21 25  2  0  0  0  0
 22 19  1  0  0  0  0
 23 19  1  0  0  0  0
 24 23  2  0  0  0  0
 25 20  1  0  0  0  0
 25 24  1  0  0  0  0
 27 26  1  0  0  0  0
M  END
>  <MODEL>
8

>  <REMARK>
 VINA RESULT:      -6.4      1.492      1.998
  Name = 
  6 active torsions:
  status: ('A' for Active; 'I' for Inactive)
    1  A    between atoms: C_3  and  C_27
    2  A    between atoms: C_7  and  C_27
    3  A    between atoms: C_11  and  C_18
    4  A    between atoms: C_15  and  C_24
    5  A    between atoms: C_16  and  C_27
    6  A    between atoms: C_18  and  C_26
                            x       y       z     vdW  Elec       q    Type
                         _______ _______ _______ _____ _____    ______ ____

>  <TORSDO>
F 6

$$$$
=
 OpenBabel11072412223D

 27 29  0  0  1  0  0  0  0  0999 V2000
  161.9030  209.6440  151.3280 C   0  0  0  0  0  0  0  0  0  0  0  0
  161.9000  210.8180  150.7120 C   0  0  0  0  0  3  0  0  0  0  0  0
  162.1590  210.5210  149.3130 C   0  0  0  0  0  0  0  0  0  0  0  0
  162.3170  209.2570  149.0950 N   0  0  0  0  0  0  0  0  0  0  0  0
  162.1730  208.5360  150.3520 C   0  0  2  0  0  3  0  0  0  0  0  0
  161.0810  211.8720  147.4980 N   0  0  0  0  0  1  0  0  0  0  0  0
  163.3360  212.0940  147.9940 O   0  0  0  0  0  0  0  0  0  0  0  0
  162.2400  211.5290  148.2490 C   0  0  0  0  0  0  0  0  0  0  0  0
  160.5720  207.4480  148.9310 O   0  0  0  0  0  1  0  0  0  0  0  0
  161.0030  207.5510  150.2570 C   0  0  1  0  0  3  0  0  0  0  0  0
  161.0530  203.5770  151.8530 C   0  0  0  0  0  2  0  0  0  0  0  0
  160.8310  202.6540  149.3200 Cl  0  0  0  0  0  0  0  0  0  0  0  0
  160.7400  205.1530  150.0640 O   0  0  0  0  0  0  0  0  0  0  0  0
  161.0600  206.0490  152.2780 C   0  0  0  0  0  2  0  0  0  0  0  0
  161.3880  206.1720  150.7890 C   0  0  2  0  0  3  0  0  0  0  0  0
  161.5420  204.6890  152.7780 C   0  0  0  0  0  2  0  0  0  0  0  0
  161.3820  203.9490  150.4070 C   0  0  1  0  0  3  0  0  0  0  0  0
  161.7290  209.4530  152.8120 C   0  0  2  0  0  3  0  0  0  0  0  0
  160.2610  209.2980  153.2520 C   0  0  2  0  0  3  0  0  0  0  0  0
  159.1190  211.2090  154.4070 C   0  0  0  0  0  3  0  0  0  0  0  0
  158.8260  211.0300  156.7470 O   0  0  0  0  0  0  0  0  0  0  0  0
  159.5840  210.6550  153.2850 C   0  0  0  0  0  3  0  0  0  0  0  0
  160.1500  208.5450  154.5660 C   0  0  0  0  0  3  0  0  0  0  0  0
  159.6830  209.0990  155.6860 C   0  0  0  0  0  3  0  0  0  0  0  0
  159.2000  210.4820  155.6780 C   0  0  0  0  0  0  0  0  0  0  0  0
  162.4650  210.5440  153.5920 C   0  0  0  0  0  2  0  0  0  0  0  0
  162.6780  210.1560  154.9160 O   0  0  0  0  0  1  0  0  0  0  0  0
  1 18  1  0  0  0  0
  2  1  2  0  0  0  0
  3  2  1  0  0  0  0
  4  3  2  0  0  0  0
  4  5  1  0  0  0  0
  5 10  1  6  0  0  0
  5  1  1  0  0  0  0
  6  8  1  0  0  0  0
  7  8  2  0  0  0  0
  8  3  1  0  0  0  0
 10  9  1  6  0  0  0
 11 16  1  0  0  0  0
 13 17  1  0  0  0  0
 13 15  1  0  0  0  0
 14 16  1  0  0  0  0
 15 10  1  6  0  0  0
 15 14  1  0  0  0  0
 17 12  1  6  0  0  0
 17 11  1  0  0  0  0
 18 26  1  1  0  0  0
 19 18  1  1  0  0  0
 19 22  1  0  0  0  0
 19 23  1  0  0  0  0
 20 25  1  0  0  0  0
 22 20  2  0  0  0  0
 23 24  2  0  0  0  0
 25 24  1  0  0  0  0
 25 21  2  0  0  0  0
 26 27  1  0  0  0  0
M  END
>  <MODEL>
9

>  <REMARK>
 VINA RESULT:      -6.2      3.510      6.873
  Name = 
  6 active torsions:
  status: ('A' for Active; 'I' for Inactive)
    1  A    between atoms: C_3  and  C_27
    2  A    between atoms: C_7  and  C_27
    3  A    between atoms: C_11  and  C_18
    4  A    between atoms: C_15  and  C_24
    5  A    between atoms: C_16  and  C_27
    6  A    between atoms: C_18  and  C_26
                            x       y       z     vdW  Elec       q    Type
                         _______ _______ _______ _____ _____    ______ ____

>  <TORSDO>
F 6

$$$$
