=
 OpenBabel11072415183D

 58 64  0  0  1  0  0  0  0  0999 V2000
  160.9170  208.4820  156.3490 C   0  0  1  0  0  0  0  0  0  0  0  0
  160.3210  207.1880  156.8880 C   0  0  0  0  0  1  0  0  0  0  0  0
  161.5370  210.9540  154.0740 C   0  0  0  0  0  2  0  0  0  0  0  0
  159.8600  210.0310  155.6170 C   0  0  2  0  0  3  0  0  0  0  0  0
  160.6080  211.3040  155.2210 C   0  0  2  0  0  3  0  0  0  0  0  0
  160.2760  209.6030  156.8980 O   0  0  0  0  0  0  0  0  0  0  0  0
  162.2940  208.5380  156.5860 O   0  0  0  0  0  1  0  0  0  0  0  0
  160.5260  208.8710  154.9260 C   0  0  1  0  0  0  0  0  0  0  0  0
  161.6600  209.4410  154.0600 C   0  0  1  0  0  3  0  0  0  0  0  0
  159.4930  207.9780  154.2360 C   0  0  0  0  0  1  0  0  0  0  0  0
  159.6640  212.4450  154.8120 C   0  0  2  0  0  3  0  0  0  0  0  0
  157.2020  212.8340  157.2610 C   0  0  0  0  0  2  0  0  0  0  0  0
  158.6630  212.4670  157.1350 C   0  0  0  0  0  2  0  0  0  0  0  0
  158.0250  214.2270  155.6080 C   0  0  0  0  0  2  0  0  0  0  0  0
  159.1710  213.3050  155.9870 C   0  0  2  0  0  3  0  0  0  0  0  0
  157.0200  214.1580  156.6670 N   0  0  0  0  0  0  0  0  0  0  0  0
  154.6020  213.9430  157.0880 C   0  0  0  0  0  1  0  0  0  0  0  0
  155.5410  213.1780  154.9570 C   0  0  0  0  0  1  0  0  0  0  0  0
  155.6850  214.2220  156.0570 C   0  0  0  0  0  3  0  0  0  0  0  0
  158.5350  211.9450  154.0240 N   0  0  0  0  0  2  0  0  0  0  0  0
  158.1120  214.4190  146.4820 C   0  0  0  0  0  1  0  0  0  0  0  0
  157.4270  212.9480  152.0330 C   0  0  0  0  0  2  0  0  0  0  0  0
  160.0610  213.3550  150.8960 N   0  0  0  0  0  2  0  0  0  0  0  0
  156.5000  213.4920  149.7720 C   0  0  0  0  0  3  0  0  0  0  0  0
  157.9420  214.0420  147.9080 C   0  0  0  0  0  0  0  0  0  0  0  0
  159.0650  213.8830  148.7250 C   0  0  0  0  0  3  0  0  0  0  0  0
  158.9080  213.5330  150.0680 C   0  0  0  0  0  0  0  0  0  0  0  0
  157.6180  213.3140  150.5910 C   0  0  0  0  0  0  0  0  0  0  0  0
  159.9340  213.1180  152.3280 C   0  0  0  0  0  2  0  0  0  0  0  0
  158.6840  212.2820  152.6060 C   0  0  1  0  0  3  0  0  0  0  0  0
  156.6620  213.8550  148.4320 C   0  0  0  0  0  3  0  0  0  0  0  0
  161.7810  208.8700  152.6430 C   0  0  0  0  0  2  0  0  0  0  0  0
  162.2390  207.4180  152.6260 C   0  0  0  0  0  2  0  0  0  0  0  0
  162.3570  206.9580  151.1870 C   0  0  0  0  0  2  0  0  0  0  0  0
  161.1280  207.3690  150.3790 C   0  0  1  0  0  3  0  0  0  0  0  0
  161.5100  207.8620  148.9760 C   0  0  1  0  0  3  0  0  0  0  0  0
  162.2900  209.1770  148.9880 C   0  0  0  0  0  2  0  0  0  0  0  0
  161.3960  210.3980  149.1220 C   0  0  0  0  0  1  0  0  0  0  0  0
  162.1420  206.7710  148.1080 C   0  0  0  0  0  2  0  0  0  0  0  0
  161.2610  206.3950  147.0150 N   0  0  0  0  0  2  0  0  0  0  0  0
  161.2270  204.9380  146.9430 C   0  0  0  0  0  2  0  0  0  0  0  0
  161.6240  204.4450  145.5560 C   0  0  1  0  0  0  0  0  0  0  0  0
  163.1360  204.5700  145.4680 C   0  0  0  0  0  1  0  0  0  0  0  0
  159.4440  202.5950  145.4900 S   0  0  0  0  0  0  0  0  0  0  0  0
  161.2570  202.9410  145.4530 C   0  0  2  0  0  3  0  0  0  0  0  0
  160.7970  202.3540  146.7200 C   0  0  2  0  0  3  0  0  0  0  0  0
  160.9780  200.1370  145.6080 C   0  0  0  0  0  3  0  0  0  0  0  0
  161.3170  198.8910  145.6400 N   0  0  0  0  0  2  0  0  0  0  0  0
  161.1650  200.9520  146.7600 N   0  0  0  0  0  2  0  0  0  0  0  0
  160.9740  205.3810  144.5160 C   0  0  0  0  0  2  0  0  0  0  0  0
  161.7430  205.4980  143.3560 O   0  0  0  0  0  1  0  0  0  0  0  0
  160.2360  206.2930  150.2770 O   0  0  0  0  0  0  0  0  0  0  0  0
  161.6960  202.8670  150.3880 C   0  0  0  0  0  2  0  0  0  0  0  0
  160.8730  202.4250  151.5970 C   0  0  0  0  0  2  0  0  0  0  0  0
  161.0700  204.1120  149.7680 C   0  0  0  0  0  2  0  0  0  0  0  0
  160.9080  205.1990  150.8270 C   0  0  2  0  0  3  0  0  0  0  0  0
  160.1100  204.6370  152.0040 C   0  0  0  0  0  2  0  0  0  0  0  0
  160.8180  203.5010  152.5880 N   0  0  0  0  0  2  0  0  0  0  0  0
  1  7  1  0  0  0  0
  1  2  1  1  0  0  0
  1  6  1  0  0  0  0
  3  5  1  0  0  0  0
  4  6  1  1  0  0  0
  5 11  1  6  0  0  0
  5  4  1  0  0  0  0
  8 10  1  6  0  0  0
  8  4  1  0  0  0  0
  8  1  1  0  0  0  0
  9 32  1  6  0  0  0
  9  3  1  0  0  0  0
  9  8  1  0  0  0  0
 11 20  1  1  0  0  0
 13 12  1  0  0  0  0
 14 15  1  0  0  0  0
 14 16  1  0  0  0  0
 15 11  1  6  0  0  0
 15 13  1  0  0  0  0
 16 12  1  0  0  0  0
 18 19  1  0  0  0  0
 19 16  1  0  0  0  0
 19 17  1  0  0  0  0
 21 25  1  0  0  0  0
 22 30  1  0  0  0  0
 23 29  1  0  0  0  0
 24 28  1  0  0  0  0
 25 31  1  0  0  0  0
 25 26  2  0  0  0  0
 26 27  1  0  0  0  0
 27 28  2  0  0  0  0
 27 23  1  0  0  0  0
 28 22  1  0  0  0  0
 29 30  1  0  0  0  0
 30 20  1  1  0  0  0
 31 24  2  0  0  0  0
 33 32  1  0  0  0  0
 34 33  1  0  0  0  0
 35 34  1  6  0  0  0
 36 39  1  1  0  0  0
 36 37  1  0  0  0  0
 36 35  1  0  0  0  0
 37 38  1  0  0  0  0
 40 39  1  0  0  0  0
 41 40  1  0  0  0  0
 42 43  1  6  0  0  0
 42 41  1  0  0  0  0
 44 46  1  0  0  0  0
 45 44  1  0  0  0  0
 45 42  1  1  0  0  0
 45 46  1  0  0  0  0
 46 49  1  6  0  0  0
 47 48  2  0  0  0  0
 47 49  1  0  0  0  0
 50 42  1  0  0  0  0
 51 50  1  0  0  0  0
 52 35  1  0  0  0  0
 53 54  1  0  0  0  0
 54 58  1  0  0  0  0
 55 53  1  0  0  0  0
 55 56  1  0  0  0  0
 56 52  1  6  0  0  0
 56 57  1  0  0  0  0
 57 58  1  0  0  0  0
M  END
>  <MODEL>
1

>  <REMARK>
 VINA RESULT:      -4.5      0.000      0.000
  Name = 
  20 active torsions:
  status: ('A' for Active; 'I' for Inactive)
    1  A    between atoms: O_2  and  C_18
    2  A    between atoms: O_2  and  C_28
    3  A    between atoms: C_5  and  C_47
    4  A    between atoms: C_8  and  C_9
    5  A    between atoms: C_8  and  C_18
    6  A    between atoms: C_9  and  C_29
    7  A    between atoms: C_12  and  C_47
    8  A    between atoms: C_17  and  C_25
    9  A    between atoms: C_17  and  N_52
   10  A    between atoms: C_18  and  C_25
   11  A    between atoms: C_24  and  C_25
   12  A    between atoms: C_29  and  C_44
   13  A    between atoms: C_31  and  C_48
   14  A    between atoms: C_35  and  C_47
   15  A    between atoms: C_35  and  N_52
   16  A    between atoms: C_39  and  N_58
   17  A    between atoms: N_41  and  C_48
   18  A    between atoms: N_41  and  C_50
   19  A    between atoms: C_48  and  C_57
   20  A    between atoms: C_54  and  N_56
                            x       y       z     vdW  Elec       q    Type
                         _______ _______ _______ _____ _____    ______ ____

>  <TORSDO>
F 20

$$$$
=
 OpenBabel11072415183D

 58 64  0  0  1  0  0  0  0  0999 V2000
  158.5920  213.4240  152.6730 C   0  0  1  0  0  0  0  0  0  0  0  0
  157.5790  213.0520  153.7480 C   0  0  0  0  0  1  0  0  0  0  0  0
  160.7750  212.9140  150.0960 C   0  0  0  0  0  2  0  0  0  0  0  0
  158.3980  213.0280  150.7090 C   0  0  2  0  0  3  0  0  0  0  0  0
  159.4530  213.5700  149.7460 C   0  0  2  0  0  3  0  0  0  0  0  0
  157.9680  214.0510  151.5840 O   0  0  0  0  0  0  0  0  0  0  0  0
  159.6040  214.2350  153.1940 O   0  0  0  0  0  1  0  0  0  0  0  0
  159.1120  212.2810  151.8040 C   0  0  1  0  0  0  0  0  0  0  0  0
  160.6140  212.3230  151.4840 C   0  0  1  0  0  3  0  0  0  0  0  0
  158.4770  210.9080  152.0340 C   0  0  0  0  0  1  0  0  0  0  0  0
  159.1040  213.3120  148.2730 C   0  0  2  0  0  3  0  0  0  0  0  0
  156.6980  212.3320  145.9360 C   0  0  0  0  0  2  0  0  0  0  0  0
  157.3190  211.8550  147.2290 C   0  0  0  0  0  2  0  0  0  0  0  0
  156.9920  214.2480  147.1960 C   0  0  0  0  0  2  0  0  0  0  0  0
  157.6030  213.1180  148.0060 C   0  0  2  0  0  3  0  0  0  0  0  0
  156.1310  213.6580  146.1730 N   0  0  0  0  0  0  0  0  0  0  0  0
  155.1200  214.1250  143.9750 C   0  0  0  0  0  1  0  0  0  0  0  0
  157.5580  214.1450  144.2240 C   0  0  0  0  0  1  0  0  0  0  0  0
  156.2500  214.4500  144.9410 C   0  0  0  0  0  3  0  0  0  0  0  0
  159.8770  212.1910  147.7320 N   0  0  0  0  0  2  0  0  0  0  0  0
  163.6430  214.1960  141.0250 C   0  0  0  0  0  1  0  0  0  0  0  0
  160.1940  212.3050  145.2650 C   0  0  0  0  0  2  0  0  0  0  0  0
  162.0870  214.4530  145.7070 N   0  0  0  0  0  2  0  0  0  0  0  0
  161.0270  212.2200  142.9060 C   0  0  0  0  0  3  0  0  0  0  0  0
  162.7590  213.7150  142.1170 C   0  0  0  0  0  0  0  0  0  0  0  0
  162.8310  214.3050  143.3820 C   0  0  0  0  0  3  0  0  0  0  0  0
  161.9980  213.8570  144.4100 C   0  0  0  0  0  0  0  0  0  0  0  0
  161.1050  212.7930  144.1780 C   0  0  0  0  0  0  0  0  0  0  0  0
  161.1490  214.1040  146.7660 C   0  0  0  0  0  2  0  0  0  0  0  0
  160.7650  212.6280  146.6510 C   0  0  1  0  0  3  0  0  0  0  0  0
  161.8540  212.6800  141.8770 C   0  0  0  0  0  3  0  0  0  0  0  0
  161.3790  211.0070  151.6620 C   0  0  0  0  0  2  0  0  0  0  0  0
  162.0040  210.5040  150.3680 C   0  0  0  0  0  2  0  0  0  0  0  0
  162.7210  209.1980  150.6440 C   0  0  0  0  0  2  0  0  0  0  0  0
  161.8160  208.2270  151.3980 C   0  0  1  0  0  3  0  0  0  0  0  0
  161.7060  206.8760  150.6760 C   0  0  1  0  0  3  0  0  0  0  0  0
  160.5100  206.0410  151.1340 C   0  0  0  0  0  2  0  0  0  0  0  0
  160.8610  204.5860  151.3850 C   0  0  0  0  0  1  0  0  0  0  0  0
  161.8360  206.9960  149.1550 C   0  0  0  0  0  2  0  0  0  0  0  0
  160.9580  206.0560  148.4780 N   0  0  0  0  0  2  0  0  0  0  0  0
  160.7270  206.5490  147.1250 C   0  0  0  0  0  2  0  0  0  0  0  0
  161.1630  205.5240  146.0830 C   0  0  1  0  0  0  0  0  0  0  0  0
  162.5040  205.9960  145.5470 C   0  0  0  0  0  1  0  0  0  0  0  0
  163.0850  203.4770  146.6300 S   0  0  0  0  0  0  0  0  0  0  0  0
  161.3810  204.1660  146.8020 C   0  0  2  0  0  3  0  0  0  0  0  0
  161.4590  203.0160  145.8910 C   0  0  2  0  0  3  0  0  0  0  0  0
  160.8450  201.8150  147.9790 C   0  0  0  0  0  3  0  0  0  0  0  0
  160.3740  200.7690  148.5750 N   0  0  0  0  0  2  0  0  0  0  0  0
  160.9450  201.8370  146.5600 N   0  0  0  0  0  2  0  0  0  0  0  0
  160.1250  205.5350  144.9420 C   0  0  0  0  0  2  0  0  0  0  0  0
  160.7240  205.4820  143.6820 O   0  0  0  0  0  1  0  0  0  0  0  0
  162.2980  208.0300  152.7000 O   0  0  0  0  0  0  0  0  0  0  0  0
  159.8700  209.4210  155.1580 C   0  0  0  0  0  2  0  0  0  0  0  0
  160.0570  208.2890  156.1660 C   0  0  0  0  0  2  0  0  0  0  0  0
  161.0300  209.4240  154.1680 C   0  0  0  0  0  2  0  0  0  0  0  0
  161.1690  208.0490  153.5220 C   0  0  2  0  0  3  0  0  0  0  0  0
  161.3070  206.9920  154.6180 C   0  0  0  0  0  2  0  0  0  0  0  0
  160.1210  207.0020  155.4700 N   0  0  0  0  0  2  0  0  0  0  0  0
  1  7  1  0  0  0  0
  1  2  1  1  0  0  0
  3  9  1  0  0  0  0
  4  6  1  1  0  0  0
  4  8  1  0  0  0  0
  5 11  1  6  0  0  0
  5  3  1  0  0  0  0
  5  4  1  0  0  0  0
  6  1  1  0  0  0  0
  8 10  1  1  0  0  0
  8  1  1  0  0  0  0
  9 32  1  6  0  0  0
  9  8  1  0  0  0  0
 11 20  1  1  0  0  0
 12 16  1  0  0  0  0
 12 13  1  0  0  0  0
 13 15  1  0  0  0  0
 14 15  1  0  0  0  0
 15 11  1  6  0  0  0
 16 14  1  0  0  0  0
 17 19  1  0  0  0  0
 18 19  1  0  0  0  0
 19 16  1  0  0  0  0
 21 25  1  0  0  0  0
 22 30  1  0  0  0  0
 23 29  1  0  0  0  0
 24 28  1  0  0  0  0
 25 26  2  0  0  0  0
 26 27  1  0  0  0  0
 27 23  1  0  0  0  0
 28 27  2  0  0  0  0
 28 22  1  0  0  0  0
 30 29  1  0  0  0  0
 30 20  1  1  0  0  0
 31 25  1  0  0  0  0
 31 24  2  0  0  0  0
 33 34  1  0  0  0  0
 33 32  1  0  0  0  0
 35 34  1  6  0  0  0
 35 52  1  0  0  0  0
 36 39  1  6  0  0  0
 36 37  1  0  0  0  0
 36 35  1  0  0  0  0
 37 38  1  0  0  0  0
 40 39  1  0  0  0  0
 41 40  1  0  0  0  0
 42 43  1  6  0  0  0
 42 41  1  0  0  0  0
 44 45  1  0  0  0  0
 45 42  1  6  0  0  0
 46 49  1  1  0  0  0
 46 44  1  0  0  0  0
 46 45  1  0  0  0  0
 47 48  2  0  0  0  0
 49 47  1  0  0  0  0
 50 42  1  0  0  0  0
 51 50  1  0  0  0  0
 53 54  1  0  0  0  0
 55 53  1  0  0  0  0
 56 52  1  6  0  0  0
 56 55  1  0  0  0  0
 56 57  1  0  0  0  0
 57 58  1  0  0  0  0
 58 54  1  0  0  0  0
M  END
>  <MODEL>
2

>  <REMARK>
 VINA RESULT:      -3.3      3.161      6.243
  Name = 
  20 active torsions:
  status: ('A' for Active; 'I' for Inactive)
    1  A    between atoms: O_2  and  C_18
    2  A    between atoms: O_2  and  C_28
    3  A    between atoms: C_5  and  C_47
    4  A    between atoms: C_8  and  C_9
    5  A    between atoms: C_8  and  C_18
    6  A    between atoms: C_9  and  C_29
    7  A    between atoms: C_12  and  C_47
    8  A    between atoms: C_17  and  C_25
    9  A    between atoms: C_17  and  N_52
   10  A    between atoms: C_18  and  C_25
   11  A    between atoms: C_24  and  C_25
   12  A    between atoms: C_29  and  C_44
   13  A    between atoms: C_31  and  C_48
   14  A    between atoms: C_35  and  C_47
   15  A    between atoms: C_35  and  N_52
   16  A    between atoms: C_39  and  N_58
   17  A    between atoms: N_41  and  C_48
   18  A    between atoms: N_41  and  C_50
   19  A    between atoms: C_48  and  C_57
   20  A    between atoms: C_54  and  N_56
                            x       y       z     vdW  Elec       q    Type
                         _______ _______ _______ _____ _____    ______ ____

>  <TORSDO>
F 20

$$$$
=
 OpenBabel11072415183D

 58 64  0  0  1  0  0  0  0  0999 V2000
  161.9550  204.8410  145.4540 C   0  0  1  0  0  0  0  0  0  0  0  0
  161.2890  204.6420  144.0990 C   0  0  0  0  0  1  0  0  0  0  0  0
  162.3290  206.0380  148.6320 C   0  0  0  0  0  2  0  0  0  0  0  0
  161.1140  204.4220  147.2340 C   0  0  2  0  0  3  0  0  0  0  0  0
  161.9610  204.5730  148.4970 C   0  0  2  0  0  3  0  0  0  0  0  0
  161.8280  203.6960  146.2550 O   0  0  0  0  0  0  0  0  0  0  0  0
  163.3010  205.1910  145.3070 O   0  0  0  0  0  1  0  0  0  0  0  0
  161.2050  205.7100  146.4600 C   0  0  1  0  0  0  0  0  0  0  0  0
  162.0750  206.6770  147.2790 C   0  0  1  0  0  3  0  0  0  0  0  0
  159.8170  206.1950  146.0390 C   0  0  0  0  0  1  0  0  0  0  0  0
  161.2360  204.0870  149.7610 C   0  0  2  0  0  3  0  0  0  0  0  0
  161.5710  200.7120  148.9200 C   0  0  0  0  0  2  0  0  0  0  0  0
  161.3090  201.5850  150.1260 C   0  0  0  0  0  2  0  0  0  0  0  0
  160.2080  202.4110  148.1410 C   0  0  0  0  0  2  0  0  0  0  0  0
  160.5050  202.7460  149.5920 C   0  0  2  0  0  3  0  0  0  0  0  0
  160.5410  201.0040  147.9240 N   0  0  0  0  0  0  0  0  0  0  0  0
  160.1270  201.2640  145.5090 C   0  0  0  0  0  1  0  0  0  0  0  0
  161.5120  199.4100  146.3150 C   0  0  0  0  0  1  0  0  0  0  0  0
  161.1240  200.8580  146.5840 C   0  0  0  0  0  3  0  0  0  0  0  0
  160.3280  205.1120  150.2800 N   0  0  0  0  0  2  0  0  0  0  0  0
  162.2940  209.3770  156.6940 C   0  0  0  0  0  1  0  0  0  0  0  0
  160.4140  207.1600  151.6940 C   0  0  0  0  0  2  0  0  0  0  0  0
  161.0700  205.4580  153.9460 N   0  0  0  0  0  2  0  0  0  0  0  0
  161.0520  209.1050  153.1350 C   0  0  0  0  0  3  0  0  0  0  0  0
  161.8110  208.8030  155.4130 C   0  0  0  0  0  0  0  0  0  0  0  0
  161.6630  207.4190  155.2820 C   0  0  0  0  0  3  0  0  0  0  0  0
  161.2040  206.8760  154.0800 C   0  0  0  0  0  0  0  0  0  0  0  0
  160.9170  207.7220  152.9910 C   0  0  0  0  0  0  0  0  0  0  0  0
  160.4740  204.8640  152.7560 C   0  0  0  0  0  2  0  0  0  0  0  0
  160.8370  205.6960  151.5240 C   0  0  1  0  0  3  0  0  0  0  0  0
  161.4990  209.6450  154.3440 C   0  0  0  0  0  3  0  0  0  0  0  0
  161.5630  208.1170  147.3900 C   0  0  0  0  0  2  0  0  0  0  0  0
  162.1890  208.8820  148.5480 C   0  0  0  0  0  2  0  0  0  0  0  0
  161.3030  210.0630  148.8910 C   0  0  0  0  0  2  0  0  0  0  0  0
  162.1340  211.2430  149.3880 C   0  0  1  0  0  3  0  0  0  0  0  0
  161.9610  212.4780  148.4910 C   0  0  1  0  0  3  0  0  0  0  0  0
  163.1900  212.7770  147.6320 C   0  0  0  0  0  2  0  0  0  0  0  0
  164.3580  213.3220  148.4340 C   0  0  0  0  0  1  0  0  0  0  0  0
  160.6430  212.4750  147.7140 C   0  0  0  0  0  2  0  0  0  0  0  0
  160.7910  213.1330  146.4270 N   0  0  0  0  0  2  0  0  0  0  0  0
  159.5480  213.8360  146.1320 C   0  0  0  0  0  2  0  0  0  0  0  0
  158.8900  213.2870  144.8700 C   0  0  1  0  0  0  0  0  0  0  0  0
  158.1370  214.4440  144.2360 C   0  0  0  0  0  1  0  0  0  0  0  0
  160.2160  213.9440  142.4230 S   0  0  0  0  0  0  0  0  0  0  0  0
  160.0120  212.8470  143.8930 C   0  0  2  0  0  3  0  0  0  0  0  0
  159.5140  212.2530  142.6440 C   0  0  2  0  0  3  0  0  0  0  0  0
  160.8680  211.2790  140.8000 C   0  0  0  0  0  3  0  0  0  0  0  0
  161.7280  210.4120  140.3770 N   0  0  0  0  0  2  0  0  0  0  0  0
  160.4680  211.2710  142.1650 N   0  0  0  0  0  2  0  0  0  0  0  0
  157.8850  212.1950  145.2950 C   0  0  0  0  0  2  0  0  0  0  0  0
  157.2910  212.4750  146.5270 O   0  0  0  0  0  1  0  0  0  0  0  0
  161.7780  211.5610  150.7060 O   0  0  0  0  0  0  0  0  0  0  0  0
  159.4330  214.4530  150.5610 C   0  0  0  0  0  2  0  0  0  0  0  0
  158.6210  214.0090  151.7760 C   0  0  0  0  0  2  0  0  0  0  0  0
  160.7730  213.7230  150.5450 C   0  0  0  0  0  2  0  0  0  0  0  0
  160.5470  212.2160  150.6110 C   0  0  2  0  0  3  0  0  0  0  0  0
  159.6910  211.8900  151.8360 C   0  0  0  0  0  2  0  0  0  0  0  0
  158.3990  212.5630  151.7320 N   0  0  0  0  0  2  0  0  0  0  0  0
  1  2  1  6  0  0  0
  1  6  1  0  0  0  0
  1  8  1  0  0  0  0
  4  6  1  6  0  0  0
  4  5  1  0  0  0  0
  5  3  1  0  0  0  0
  5 11  1  1  0  0  0
  7  1  1  0  0  0  0
  8 10  1  6  0  0  0
  8  4  1  0  0  0  0
  8  9  1  0  0  0  0
  9 32  1  1  0  0  0
  9  3  1  0  0  0  0
 11 20  1  6  0  0  0
 12 13  1  0  0  0  0
 14 15  1  0  0  0  0
 15 11  1  6  0  0  0
 15 13  1  0  0  0  0
 16 14  1  0  0  0  0
 16 12  1  0  0  0  0
 17 19  1  0  0  0  0
 18 19  1  0  0  0  0
 19 16  1  0  0  0  0
 22 28  1  0  0  0  0
 23 27  1  0  0  0  0
 24 31  1  0  0  0  0
 25 21  1  0  0  0  0
 26 25  1  0  0  0  0
 27 26  2  0  0  0  0
 28 24  2  0  0  0  0
 28 27  1  0  0  0  0
 29 23  1  0  0  0  0
 30 20  1  6  0  0  0
 30 22  1  0  0  0  0
 30 29  1  0  0  0  0
 31 25  2  0  0  0  0
 32 33  1  0  0  0  0
 33 34  1  0  0  0  0
 35 34  1  6  0  0  0
 35 52  1  0  0  0  0
 36 37  1  6  0  0  0
 36 35  1  0  0  0  0
 37 38  1  0  0  0  0
 39 36  1  0  0  0  0
 40 39  1  0  0  0  0
 41 40  1  0  0  0  0
 42 43  1  6  0  0  0
 42 50  1  0  0  0  0
 42 41  1  0  0  0  0
 44 46  1  0  0  0  0
 44 45  1  0  0  0  0
 45 42  1  1  0  0  0
 46 49  1  6  0  0  0
 46 45  1  0  0  0  0
 47 49  1  0  0  0  0
 48 47  2  0  0  0  0
 50 51  1  0  0  0  0
 53 54  1  0  0  0  0
 55 53  1  0  0  0  0
 55 56  1  0  0  0  0
 56 52  1  1  0  0  0
 56 57  1  0  0  0  0
 58 54  1  0  0  0  0
 58 57  1  0  0  0  0
M  END
>  <MODEL>
3

>  <REMARK>
 VINA RESULT:      -2.3      3.256     10.174
  Name = 
  20 active torsions:
  status: ('A' for Active; 'I' for Inactive)
    1  A    between atoms: O_2  and  C_18
    2  A    between atoms: O_2  and  C_28
    3  A    between atoms: C_5  and  C_47
    4  A    between atoms: C_8  and  C_9
    5  A    between atoms: C_8  and  C_18
    6  A    between atoms: C_9  and  C_29
    7  A    between atoms: C_12  and  C_47
    8  A    between atoms: C_17  and  C_25
    9  A    between atoms: C_17  and  N_52
   10  A    between atoms: C_18  and  C_25
   11  A    between atoms: C_24  and  C_25
   12  A    between atoms: C_29  and  C_44
   13  A    between atoms: C_31  and  C_48
   14  A    between atoms: C_35  and  C_47
   15  A    between atoms: C_35  and  N_52
   16  A    between atoms: C_39  and  N_58
   17  A    between atoms: N_41  and  C_48
   18  A    between atoms: N_41  and  C_50
   19  A    between atoms: C_48  and  C_57
   20  A    between atoms: C_54  and  N_56
                            x       y       z     vdW  Elec       q    Type
                         _______ _______ _______ _____ _____    ______ ____

>  <TORSDO>
F 20

$$$$
=
 OpenBabel11072415183D

 58 64  0  0  1  0  0  0  0  0999 V2000
  160.8570  207.9710  155.1060 C   0  0  1  0  0  0  0  0  0  0  0  0
  161.5940  208.2670  156.4050 C   0  0  0  0  0  1  0  0  0  0  0  0
  160.3930  207.7650  151.7270 C   0  0  0  0  0  2  0  0  0  0  0  0
  161.5070  206.7310  153.6590 C   0  0  2  0  0  3  0  0  0  0  0  0
  160.5910  206.4560  152.4660 C   0  0  2  0  0  3  0  0  0  0  0  0
  160.7850  206.5900  154.8660 O   0  0  0  0  0  0  0  0  0  0  0  0
  159.5780  208.5360  155.1120 O   0  0  0  0  0  1  0  0  0  0  0  0
  161.6290  208.2240  153.8130 C   0  0  1  0  0  0  0  0  0  0  0  0
  160.8230  208.8700  152.6760 C   0  0  1  0  0  3  0  0  0  0  0  0
  163.0930  208.6390  153.9650 C   0  0  0  0  0  1  0  0  0  0  0  0
  161.1560  205.3880  151.5170 C   0  0  2  0  0  3  0  0  0  0  0  0
  162.2910  202.1140  151.0750 C   0  0  0  0  0  2  0  0  0  0  0  0
  162.5630  203.3290  151.9320 C   0  0  0  0  0  2  0  0  0  0  0  0
  160.2070  203.0230  151.4980 C   0  0  0  0  0  2  0  0  0  0  0  0
  161.2130  203.9760  152.1200 C   0  0  2  0  0  3  0  0  0  0  0  0
  160.8850  201.7530  151.2440 N   0  0  0  0  0  0  0  0  0  0  0  0
  161.4180  201.3490  148.8730 C   0  0  0  0  0  1  0  0  0  0  0  0
  159.1260  201.9220  149.5260 C   0  0  0  0  0  1  0  0  0  0  0  0
  160.3850  201.1960  149.9800 C   0  0  0  0  0  3  0  0  0  0  0  0
  162.4650  205.7830  150.9920 N   0  0  0  0  0  2  0  0  0  0  0  0
  161.2900  205.4890  143.1360 C   0  0  0  0  0  1  0  0  0  0  0  0
  161.4880  204.8880  148.8850 C   0  0  0  0  0  2  0  0  0  0  0  0
  162.2110  207.3840  147.6050 N   0  0  0  0  0  2  0  0  0  0  0  0
  161.0410  203.9830  146.5940 C   0  0  0  0  0  3  0  0  0  0  0  0
  161.3420  205.3400  144.6120 C   0  0  0  0  0  0  0  0  0  0  0  0
  161.7410  206.4180  145.4070 C   0  0  0  0  0  3  0  0  0  0  0  0
  161.7860  206.2830  146.7970 C   0  0  0  0  0  0  0  0  0  0  0  0
  161.4550  205.0510  147.3940 C   0  0  0  0  0  0  0  0  0  0  0  0
  162.1480  207.3240  149.0590 C   0  0  0  0  0  2  0  0  0  0  0  0
  162.4420  205.8980  149.5320 C   0  0  1  0  0  3  0  0  0  0  0  0
  160.9850  204.1280  145.2040 C   0  0  0  0  0  3  0  0  0  0  0  0
  161.4950  210.0430  151.9540 C   0  0  0  0  0  2  0  0  0  0  0  0
  160.5010  211.0880  151.4670 C   0  0  0  0  0  2  0  0  0  0  0  0
  160.0310  211.9080  152.6510 C   0  0  0  0  0  2  0  0  0  0  0  0
  159.6240  213.3130  152.2160 C   0  0  1  0  0  3  0  0  0  0  0  0
  159.1650  213.3430  150.7500 C   0  0  1  0  0  3  0  0  0  0  0  0
  157.6450  213.2860  150.5910 C   0  0  0  0  0  2  0  0  0  0  0  0
  157.1920  213.4270  149.1490 C   0  0  0  0  0  1  0  0  0  0  0  0
  159.8360  214.4510  149.9340 C   0  0  0  0  0  2  0  0  0  0  0  0
  160.8530  213.9080  149.0490 N   0  0  0  0  0  2  0  0  0  0  0  0
  160.5450  214.3380  147.6900 C   0  0  0  0  0  2  0  0  0  0  0  0
  161.0270  213.3150  146.6660 C   0  0  1  0  0  0  0  0  0  0  0  0
  160.4930  211.9660  147.1180 C   0  0  0  0  0  1  0  0  0  0  0  0
  159.6260  212.2140  144.4290 S   0  0  0  0  0  0  0  0  0  0  0  0
  160.3800  213.6570  145.2980 C   0  0  2  0  0  3  0  0  0  0  0  0
  161.1590  213.1970  144.1400 C   0  0  2  0  0  3  0  0  0  0  0  0
  161.0610  213.6250  141.6930 C   0  0  0  0  0  3  0  0  0  0  0  0
  160.8580  214.4290  140.7020 N   0  0  0  0  0  2  0  0  0  0  0  0
  160.9460  214.1030  143.0280 N   0  0  0  0  0  2  0  0  0  0  0  0
  162.5690  213.2920  146.7080 C   0  0  0  0  0  2  0  0  0  0  0  0
  163.0610  212.2890  147.5450 O   0  0  0  0  0  1  0  0  0  0  0  0
  158.6000  213.7960  153.0420 O   0  0  0  0  0  0  0  0  0  0  0  0
  157.7000  211.0710  155.4180 C   0  0  0  0  0  2  0  0  0  0  0  0
  157.3720  212.0200  156.5690 C   0  0  0  0  0  2  0  0  0  0  0  0
  157.7180  211.8460  154.1040 C   0  0  0  0  0  2  0  0  0  0  0  0
  158.6720  213.0320  154.2090 C   0  0  2  0  0  3  0  0  0  0  0  0
  158.2780  213.8870  155.4140 C   0  0  0  0  0  2  0  0  0  0  0  0
  158.3660  213.0920  156.6370 N   0  0  0  0  0  2  0  0  0  0  0  0
  1  7  1  0  0  0  0
  1  2  1  1  0  0  0
  3  5  1  0  0  0  0
  3  9  1  0  0  0  0
  4  8  1  0  0  0  0
  4  6  1  1  0  0  0
  5 11  1  6  0  0  0
  5  4  1  0  0  0  0
  6  1  1  0  0  0  0
  8 10  1  1  0  0  0
  8  1  1  0  0  0  0
  9 32  1  6  0  0  0
  9  8  1  0  0  0  0
 11 20  1  1  0  0  0
 12 16  1  0  0  0  0
 12 13  1  0  0  0  0
 13 15  1  0  0  0  0
 14 15  1  0  0  0  0
 15 11  1  6  0  0  0
 16 14  1  0  0  0  0
 17 19  1  0  0  0  0
 18 19  1  0  0  0  0
 19 16  1  0  0  0  0
 21 25  1  0  0  0  0
 22 30  1  0  0  0  0
 23 29  1  0  0  0  0
 24 28  1  0  0  0  0
 25 31  1  0  0  0  0
 25 26  2  0  0  0  0
 26 27  1  0  0  0  0
 27 28  2  0  0  0  0
 27 23  1  0  0  0  0
 28 22  1  0  0  0  0
 29 30  1  0  0  0  0
 30 20  1  1  0  0  0
 31 24  2  0  0  0  0
 33 32  1  0  0  0  0
 33 34  1  0  0  0  0
 35 34  1  1  0  0  0
 35 52  1  0  0  0  0
 36 39  1  1  0  0  0
 36 35  1  0  0  0  0
 37 36  1  0  0  0  0
 38 37  1  0  0  0  0
 40 39  1  0  0  0  0
 41 40  1  0  0  0  0
 42 50  1  0  0  0  0
 42 43  1  1  0  0  0
 42 41  1  0  0  0  0
 44 45  1  0  0  0  0
 45 42  1  1  0  0  0
 46 49  1  6  0  0  0
 46 44  1  0  0  0  0
 46 45  1  0  0  0  0
 47 49  1  0  0  0  0
 48 47  2  0  0  0  0
 50 51  1  0  0  0  0
 53 54  1  0  0  0  0
 54 58  1  0  0  0  0
 55 56  1  0  0  0  0
 55 53  1  0  0  0  0
 56 52  1  6  0  0  0
 56 57  1  0  0  0  0
 57 58  1  0  0  0  0
M  END
>  <MODEL>
4

>  <REMARK>
 VINA RESULT:      -2.2      3.092      9.258
  Name = 
  20 active torsions:
  status: ('A' for Active; 'I' for Inactive)
    1  A    between atoms: O_2  and  C_18
    2  A    between atoms: O_2  and  C_28
    3  A    between atoms: C_5  and  C_47
    4  A    between atoms: C_8  and  C_9
    5  A    between atoms: C_8  and  C_18
    6  A    between atoms: C_9  and  C_29
    7  A    between atoms: C_12  and  C_47
    8  A    between atoms: C_17  and  C_25
    9  A    between atoms: C_17  and  N_52
   10  A    between atoms: C_18  and  C_25
   11  A    between atoms: C_24  and  C_25
   12  A    between atoms: C_29  and  C_44
   13  A    between atoms: C_31  and  C_48
   14  A    between atoms: C_35  and  C_47
   15  A    between atoms: C_35  and  N_52
   16  A    between atoms: C_39  and  N_58
   17  A    between atoms: N_41  and  C_48
   18  A    between atoms: N_41  and  C_50
   19  A    between atoms: C_48  and  C_57
   20  A    between atoms: C_54  and  N_56
                            x       y       z     vdW  Elec       q    Type
                         _______ _______ _______ _____ _____    ______ ____

>  <TORSDO>
F 20

$$$$
=
 OpenBabel11072415183D

 58 64  0  0  1  0  0  0  0  0999 V2000
  162.1500  205.0820  146.3360 C   0  0  1  0  0  0  0  0  0  0  0  0
  161.5390  204.4790  145.0780 C   0  0  0  0  0  1  0  0  0  0  0  0
  162.3370  207.0940  149.0910 C   0  0  0  0  0  2  0  0  0  0  0  0
  161.2980  205.0700  148.1600 C   0  0  2  0  0  3  0  0  0  0  0  0
  162.0960  205.6180  149.3430 C   0  0  2  0  0  3  0  0  0  0  0  0
  162.0970  204.1790  147.4090 O   0  0  0  0  0  0  0  0  0  0  0  0
  163.4650  205.4980  146.1080 O   0  0  0  0  0  1  0  0  0  0  0  0
  161.3030  206.1150  147.0760 C   0  0  1  0  0  0  0  0  0  0  0  0
  162.0670  207.3330  147.6170 C   0  0  1  0  0  3  0  0  0  0  0  0
  159.8910  206.3490  146.5370 C   0  0  0  0  0  1  0  0  0  0  0  0
  161.3800  205.4180  150.6880 C   0  0  2  0  0  3  0  0  0  0  0  0
  161.5640  201.9290  150.6980 C   0  0  0  0  0  2  0  0  0  0  0  0
  161.2810  203.0760  151.6390 C   0  0  0  0  0  2  0  0  0  0  0  0
  160.3560  203.4470  149.4390 C   0  0  0  0  0  2  0  0  0  0  0  0
  160.5820  204.1080  150.7870 C   0  0  2  0  0  3  0  0  0  0  0  0
  160.6170  202.0160  149.5870 N   0  0  0  0  0  0  0  0  0  0  0  0
  160.3420  201.6320  147.1690 C   0  0  0  0  0  1  0  0  0  0  0  0
  161.6610  200.0610  148.5100 C   0  0  0  0  0  1  0  0  0  0  0  0
  161.2740  201.5270  148.3670 C   0  0  0  0  0  3  0  0  0  0  0  0
  160.5350  206.5680  151.0170 N   0  0  0  0  0  2  0  0  0  0  0  0
  162.1650  211.2490  157.2310 C   0  0  0  0  0  1  0  0  0  0  0  0
  160.4160  208.6570  152.3650 C   0  0  0  0  0  2  0  0  0  0  0  0
  161.3400  207.1220  154.6420 N   0  0  0  0  0  2  0  0  0  0  0  0
  160.8580  210.7120  153.7250 C   0  0  0  0  0  3  0  0  0  0  0  0
  161.7160  210.5790  155.9840 C   0  0  0  0  0  0  0  0  0  0  0  0
  161.7320  209.1840  155.8990 C   0  0  0  0  0  3  0  0  0  0  0  0
  161.3060  208.5500  154.7300 C   0  0  0  0  0  0  0  0  0  0  0  0
  160.8870  209.3180  153.6270 C   0  0  0  0  0  0  0  0  0  0  0  0
  160.7850  206.4220  153.4920 C   0  0  0  0  0  2  0  0  0  0  0  0
  161.0070  207.2490  152.2250 C   0  0  1  0  0  3  0  0  0  0  0  0
  161.2730  211.3410  154.9020 C   0  0  0  0  0  3  0  0  0  0  0  0
  161.4340  208.7020  147.3440 C   0  0  0  0  0  2  0  0  0  0  0  0
  161.8150  209.7500  148.3800 C   0  0  0  0  0  2  0  0  0  0  0  0
  161.0080  211.0070  148.1260 C   0  0  0  0  0  2  0  0  0  0  0  0
  161.7910  212.2510  148.5390 C   0  0  1  0  0  3  0  0  0  0  0  0
  161.6810  213.3670  147.4880 C   0  0  1  0  0  3  0  0  0  0  0  0
  162.8880  214.3040  147.4730 C   0  0  0  0  0  2  0  0  0  0  0  0
  164.0600  213.7790  148.2830 C   0  0  0  0  0  1  0  0  0  0  0  0
  161.2750  212.8500  146.1050 C   0  0  0  0  0  2  0  0  0  0  0  0
  161.9090  213.6230  145.0500 N   0  0  0  0  0  2  0  0  0  0  0  0
  160.8720  214.0450  144.1150 C   0  0  0  0  0  2  0  0  0  0  0  0
  160.8720  213.1740  142.8630 C   0  0  1  0  0  0  0  0  0  0  0  0
  160.1680  211.8810  143.2370 C   0  0  0  0  0  1  0  0  0  0  0  0
  158.3650  214.4510  142.3510 S   0  0  0  0  0  0  0  0  0  0  0  0
  160.0260  213.8880  141.7760 C   0  0  2  0  0  3  0  0  0  0  0  0
  158.9180  213.0750  141.2550 C   0  0  2  0  0  3  0  0  0  0  0  0
  157.3350  213.4620  139.3770 C   0  0  0  0  0  3  0  0  0  0  0  0
  157.1120  213.7940  138.1480 N   0  0  0  0  0  2  0  0  0  0  0  0
  158.6690  213.4340  139.8720 N   0  0  0  0  0  2  0  0  0  0  0  0
  162.3400  212.8680  142.4970 C   0  0  0  0  0  2  0  0  0  0  0  0
  162.6880  213.3750  141.2440 O   0  0  0  0  0  1  0  0  0  0  0  0
  161.3330  212.7200  149.7770 O   0  0  0  0  0  0  0  0  0  0  0  0
  158.1100  214.4400  150.5090 C   0  0  0  0  0  2  0  0  0  0  0  0
  157.2820  213.5350  149.5990 C   0  0  0  0  0  2  0  0  0  0  0  0
  159.4540  213.7800  150.8030 C   0  0  0  0  0  2  0  0  0  0  0  0
  160.1560  213.4200  149.4980 C   0  0  2  0  0  3  0  0  0  0  0  0
  159.2250  212.5520  148.6510 C   0  0  0  0  0  2  0  0  0  0  0  0
  158.0000  213.2870  148.3480 N   0  0  0  0  0  2  0  0  0  0  0  0
  1  2  1  6  0  0  0
  1  8  1  0  0  0  0
  1  6  1  0  0  0  0
  3  5  1  0  0  0  0
  4  6  1  6  0  0  0
  4  5  1  0  0  0  0
  5 11  1  1  0  0  0
  7  1  1  0  0  0  0
  8 10  1  6  0  0  0
  8  9  1  0  0  0  0
  8  4  1  0  0  0  0
  9 32  1  1  0  0  0
  9  3  1  0  0  0  0
 11 20  1  6  0  0  0
 12 13  1  0  0  0  0
 14 16  1  0  0  0  0
 14 15  1  0  0  0  0
 15 11  1  6  0  0  0
 15 13  1  0  0  0  0
 16 12  1  0  0  0  0
 17 19  1  0  0  0  0
 19 18  1  0  0  0  0
 19 16  1  0  0  0  0
 22 28  1  0  0  0  0
 23 27  1  0  0  0  0
 24 31  1  0  0  0  0
 25 21  1  0  0  0  0
 26 25  1  0  0  0  0
 27 26  2  0  0  0  0
 28 24  2  0  0  0  0
 28 27  1  0  0  0  0
 29 23  1  0  0  0  0
 30 20  1  6  0  0  0
 30 22  1  0  0  0  0
 30 29  1  0  0  0  0
 31 25  2  0  0  0  0
 32 33  1  0  0  0  0
 34 33  1  0  0  0  0
 35 34  1  6  0  0  0
 35 52  1  0  0  0  0
 36 39  1  6  0  0  0
 36 35  1  0  0  0  0
 37 36  1  0  0  0  0
 37 38  1  0  0  0  0
 40 39  1  0  0  0  0
 41 40  1  0  0  0  0
 42 43  1  1  0  0  0
 42 41  1  0  0  0  0
 45 44  1  0  0  0  0
 45 42  1  1  0  0  0
 46 49  1  6  0  0  0
 46 45  1  0  0  0  0
 46 44  1  0  0  0  0
 47 49  1  0  0  0  0
 48 47  2  0  0  0  0
 50 42  1  0  0  0  0
 51 50  1  0  0  0  0
 53 55  1  0  0  0  0
 54 53  1  0  0  0  0
 56 52  1  1  0  0  0
 56 55  1  0  0  0  0
 57 56  1  0  0  0  0
 58 57  1  0  0  0  0
 58 54  1  0  0  0  0
M  END
>  <MODEL>
5

>  <REMARK>
 VINA RESULT:      -2.1      4.066      9.962
  Name = 
  20 active torsions:
  status: ('A' for Active; 'I' for Inactive)
    1  A    between atoms: O_2  and  C_18
    2  A    between atoms: O_2  and  C_28
    3  A    between atoms: C_5  and  C_47
    4  A    between atoms: C_8  and  C_9
    5  A    between atoms: C_8  and  C_18
    6  A    between atoms: C_9  and  C_29
    7  A    between atoms: C_12  and  C_47
    8  A    between atoms: C_17  and  C_25
    9  A    between atoms: C_17  and  N_52
   10  A    between atoms: C_18  and  C_25
   11  A    between atoms: C_24  and  C_25
   12  A    between atoms: C_29  and  C_44
   13  A    between atoms: C_31  and  C_48
   14  A    between atoms: C_35  and  C_47
   15  A    between atoms: C_35  and  N_52
   16  A    between atoms: C_39  and  N_58
   17  A    between atoms: N_41  and  C_48
   18  A    between atoms: N_41  and  C_50
   19  A    between atoms: C_48  and  C_57
   20  A    between atoms: C_54  and  N_56
                            x       y       z     vdW  Elec       q    Type
                         _______ _______ _______ _____ _____    ______ ____

>  <TORSDO>
F 20

$$$$
