=
 OpenBabel11072415103D

 39 43  0  0  1  0  0  0  0  0999 V2000
  161.2890  207.9710  150.6310 C   0  0  0  0  0  0  0  0  0  0  0  0
  162.2750  208.9040  148.7120 O   0  0  0  0  0  1  0  0  0  0  0  0
  160.8420  209.0200  151.4370 C   0  0  0  0  0  3  0  0  0  0  0  0
  161.9060  206.5930  148.8240 N   0  0  0  0  0  2  0  0  0  0  0  0
  160.8360  208.8420  152.8300 C   0  0  0  0  0  0  0  0  0  0  0  0
  161.6980  206.7880  151.1640 C   0  0  0  0  0  0  0  0  0  0  0  0
  161.7130  206.5760  152.5430 C   0  0  0  0  0  3  0  0  0  0  0  0
  162.0980  205.8590  150.0870 C   0  0  1  0  0  3  0  0  0  0  0  0
  161.3810  207.9290  149.1580 C   0  0  1  0  0  3  0  0  0  0  0  0
  161.2760  207.6150  153.3790 C   0  0  0  0  0  3  0  0  0  0  0  0
  160.4620  202.5230  149.8190 C   0  0  0  0  0  0  0  0  0  0  0  0
  160.1940  204.5080  150.8350 N   0  0  0  0  0  0  0  0  0  0  0  0
  160.2780  201.3100  149.5310 O   0  0  0  0  0  0  0  0  0  0  0  0
  161.2550  204.6200  150.0950 C   0  0  0  0  0  0  0  0  0  0  0  0
  159.6320  203.2370  150.7130 N   0  0  0  0  0  2  0  0  0  0  0  0
  161.5760  203.3730  149.3080 C   0  0  2  0  0  3  0  0  0  0  0  0
  160.8700  202.3970  147.0250 C   0  0  2  0  0  3  0  0  0  0  0  0
  162.4540  204.6540  145.7540 C   0  0  0  0  0  2  0  0  0  0  0  0
  161.4260  201.2070  147.5010 O   0  0  0  0  0  1  0  0  0  0  0  0
  161.3500  203.9070  144.9810 C   0  0  1  0  0  3  0  0  0  0  0  0
  162.7310  204.0830  147.1480 C   0  0  0  0  0  2  0  0  0  0  0  0
  161.1120  202.4800  145.5080 C   0  0  2  0  0  3  0  0  0  0  0  0
  160.0770  201.8500  144.8130 O   0  0  0  0  0  1  0  0  0  0  0  0
  161.4300  203.6140  147.7950 C   0  0  2  0  0  3  0  0  0  0  0  0
  159.0500  204.2560  144.3800 O   0  0  0  0  0  0  0  0  0  0  0  0
  160.0860  206.0140  145.4150 O   0  0  0  0  0  1  0  0  0  0  0  0
  160.0930  204.7240  144.9060 C   0  0  0  0  0  0  0  0  0  0  0  0
  161.1700  210.6710  154.3430 C   0  0  0  0  0  3  0  0  0  0  0  0
  160.3720  209.9130  153.6620 N   0  0  0  0  0  0  0  0  0  0  0  0
  160.6260  211.7650  155.2030 C   0  0  2  0  0  3  0  0  0  0  0  0
  159.7170  209.9920  156.5980 O   0  0  0  0  0  1  0  0  0  0  0  0
  159.2720  212.2410  157.2610 C   0  0  0  0  0  2  0  0  0  0  0  0
  160.2680  211.2780  156.6190 C   0  0  2  0  0  3  0  0  0  0  0  0
  158.2140  211.9900  155.0230 O   0  0  0  0  0  0  0  0  0  0  0  0
  158.0380  212.4530  156.3530 C   0  0  2  0  0  3  0  0  0  0  0  0
  159.4410  212.4680  154.5220 C   0  0  0  0  0  2  0  0  0  0  0  0
  157.5480  213.8950  156.3780 C   0  0  0  0  0  2  0  0  0  0  0  0
  156.0740  213.9670  156.0250 C   0  0  0  0  0  2  0  0  0  0  0  0
  155.2640  213.2910  157.1090 C   0  0  0  0  0  1  0  0  0  0  0  0
  1  6  2  0  0  0  0
  1  3  1  0  0  0  0
  3  5  2  0  0  0  0
  4  9  1  0  0  0  0
  4  8  1  0  0  0  0
  5 10  1  0  0  0  0
  5 29  1  0  0  0  0
  6  7  1  0  0  0  0
  7 10  2  0  0  0  0
  8 14  1  6  0  0  0
  8  6  1  0  0  0  0
  9  2  1  1  0  0  0
  9  1  1  0  0  0  0
 11 15  1  0  0  0  0
 13 11  2  0  0  0  0
 14 12  2  0  0  0  0
 15 12  1  0  0  0  0
 16 11  1  1  0  0  0
 16 14  1  0  0  0  0
 17 19  1  1  0  0  0
 17 24  1  0  0  0  0
 18 21  1  0  0  0  0
 20 27  1  1  0  0  0
 20 22  1  0  0  0  0
 20 18  1  0  0  0  0
 22 23  1  6  0  0  0
 22 17  1  0  0  0  0
 24 21  1  6  0  0  0
 24 16  1  0  0  0  0
 25 27  2  0  0  0  0
 27 26  1  0  0  0  0
 29 28  2  0  0  0  0
 30 28  1  6  0  0  0
 30 33  1  0  0  0  0
 33 31  1  6  0  0  0
 33 32  1  0  0  0  0
 34 35  1  0  0  0  0
 35 37  1  6  0  0  0
 35 32  1  0  0  0  0
 36 34  1  0  0  0  0
 36 30  1  0  0  0  0
 38 37  1  0  0  0  0
 38 39  1  0  0  0  0
M  END
>  <MODEL>
1

>  <REMARK>
 VINA RESULT:      -7.3      0.000      0.000
  Name = 
  7 active torsions:
  status: ('A' for Active; 'I' for Inactive)
    1  A    between atoms: C_3  and  C_8
    2  A    between atoms: C_3  and  C_38
    3  A    between atoms: C_9  and  C_11
    4  A    between atoms: C_14  and  C_37
    5  A    between atoms: N_18  and  C_21
    6  A    between atoms: C_25  and  C_27
    7  A    between atoms: C_29  and  C_36
                            x       y       z     vdW  Elec       q    Type
                         _______ _______ _______ _____ _____    ______ ____

>  <TORSDO>
F 7

$$$$
=
 OpenBabel11072415103D

 39 43  0  0  1  0  0  0  0  0999 V2000
  161.8310  209.2260  150.6760 C   0  0  0  0  0  0  0  0  0  0  0  0
  161.8650  211.1060  149.2640 O   0  0  0  0  0  1  0  0  0  0  0  0
  162.1910  208.1120  149.9160 C   0  0  0  0  0  3  0  0  0  0  0  0
  161.6040  211.3910  151.5740 N   0  0  0  0  0  2  0  0  0  0  0  0
  161.6470  206.8620  150.2540 C   0  0  0  0  0  0  0  0  0  0  0  0
  160.9870  209.1220  151.7370 C   0  0  0  0  0  0  0  0  0  0  0  0
  160.4210  207.9000  152.1000 C   0  0  0  0  0  3  0  0  0  0  0  0
  160.7960  210.4460  152.3650 C   0  0  1  0  0  3  0  0  0  0  0  0
  162.2740  210.6250  150.5090 C   0  0  1  0  0  3  0  0  0  0  0  0
  160.7580  206.7620  151.3490 C   0  0  0  0  0  3  0  0  0  0  0  0
  161.3920  210.2300  156.0360 C   0  0  0  0  0  0  0  0  0  0  0  0
  162.5050  210.5800  154.1160 N   0  0  0  0  0  0  0  0  0  0  0  0
  161.1910  210.0170  157.2610 O   0  0  0  0  0  0  0  0  0  0  0  0
  161.2560  210.4440  153.7910 C   0  0  0  0  0  0  0  0  0  0  0  0
  162.6770  210.4710  155.4960 N   0  0  0  0  0  2  0  0  0  0  0  0
  160.3450  210.2240  154.9730 C   0  0  2  0  0  3  0  0  0  0  0  0
  158.0840  211.2840  154.3160 C   0  0  2  0  0  3  0  0  0  0  0  0
  159.1630  213.8880  155.4430 C   0  0  0  0  0  2  0  0  0  0  0  0
  158.3660  210.7940  153.0380 O   0  0  0  0  0  1  0  0  0  0  0  0
  157.6510  213.6460  155.2740 C   0  0  1  0  0  3  0  0  0  0  0  0
  160.0380  212.7550  154.8990 C   0  0  0  0  0  2  0  0  0  0  0  0
  157.3290  212.6170  154.1760 C   0  0  2  0  0  3  0  0  0  0  0  0
  155.9540  212.3910  154.0810 O   0  0  0  0  0  1  0  0  0  0  0  0
  159.3740  211.4050  155.1580 C   0  0  2  0  0  3  0  0  0  0  0  0
  157.3660  212.3250  157.2610 O   0  0  0  0  0  1  0  0  0  0  0  0
  155.9860  214.1400  157.0650 O   0  0  0  0  0  0  0  0  0  0  0  0
  157.0030  213.3260  156.5890 C   0  0  0  0  0  0  0  0  0  0  0  0
  161.5660  205.4920  148.2890 C   0  0  0  0  0  3  0  0  0  0  0  0
  162.0180  205.7140  149.4810 N   0  0  0  0  0  0  0  0  0  0  0  0
  161.9790  204.2700  147.5370 C   0  0  2  0  0  3  0  0  0  0  0  0
  160.2610  204.8790  145.9280 O   0  0  0  0  0  1  0  0  0  0  0  0
  161.5010  202.8840  145.5010 C   0  0  0  0  0  2  0  0  0  0  0  0
  161.5280  204.3030  146.0650 C   0  0  2  0  0  3  0  0  0  0  0  0
  160.3340  202.4870  147.6620 O   0  0  0  0  0  0  0  0  0  0  0  0
  160.6440  201.9500  146.3850 C   0  0  2  0  0  3  0  0  0  0  0  0
  161.5100  202.9930  148.2510 C   0  0  0  0  0  2  0  0  0  0  0  0
  161.2490  200.5570  146.5020 C   0  0  0  0  0  2  0  0  0  0  0  0
  160.6020  199.6060  145.5110 C   0  0  0  0  0  2  0  0  0  0  0  0
  161.4730  198.3800  145.3490 C   0  0  0  0  0  1  0  0  0  0  0  0
  1  6  1  0  0  0  0
  3  5  1  0  0  0  0
  3  1  2  0  0  0  0
  4  8  1  0  0  0  0
  5 10  2  0  0  0  0
  6  7  2  0  0  0  0
  6  8  1  0  0  0  0
  8 14  1  1  0  0  0
  9  2  1  6  0  0  0
  9  1  1  0  0  0  0
  9  4  1  0  0  0  0
 10  7  1  0  0  0  0
 11 13  2  0  0  0  0
 12 15  1  0  0  0  0
 14 12  2  0  0  0  0
 15 11  1  0  0  0  0
 16 14  1  6  0  0  0
 16 24  1  0  0  0  0
 16 11  1  0  0  0  0
 17 19  1  6  0  0  0
 17 24  1  0  0  0  0
 20 18  1  0  0  0  0
 20 27  1  1  0  0  0
 21 18  1  0  0  0  0
 22 23  1  1  0  0  0
 22 17  1  0  0  0  0
 22 20  1  0  0  0  0
 24 21  1  6  0  0  0
 27 26  2  0  0  0  0
 27 25  1  0  0  0  0
 28 29  2  0  0  0  0
 29  5  1  0  0  0  0
 30 36  1  0  0  0  0
 30 28  1  1  0  0  0
 32 33  1  0  0  0  0
 32 35  1  0  0  0  0
 33 31  1  1  0  0  0
 33 30  1  0  0  0  0
 34 36  1  0  0  0  0
 35 37  1  1  0  0  0
 35 34  1  0  0  0  0
 38 37  1  0  0  0  0
 39 38  1  0  0  0  0
M  END
>  <MODEL>
2

>  <REMARK>
 VINA RESULT:      -6.5      1.875     11.209
  Name = 
  7 active torsions:
  status: ('A' for Active; 'I' for Inactive)
    1  A    between atoms: C_3  and  C_8
    2  A    between atoms: C_3  and  C_38
    3  A    between atoms: C_9  and  C_11
    4  A    between atoms: C_14  and  C_37
    5  A    between atoms: N_18  and  C_21
    6  A    between atoms: C_25  and  C_27
    7  A    between atoms: C_29  and  C_36
                            x       y       z     vdW  Elec       q    Type
                         _______ _______ _______ _____ _____    ______ ____

>  <TORSDO>
F 7

$$$$
=
 OpenBabel11072415103D

 39 43  0  0  1  0  0  0  0  0999 V2000
  161.0030  208.1460  152.0290 C   0  0  0  0  0  0  0  0  0  0  0  0
  161.1330  207.2160  154.1840 O   0  0  0  0  0  1  0  0  0  0  0  0
  161.1740  207.1130  151.1050 C   0  0  0  0  0  3  0  0  0  0  0  0
  160.4580  209.4430  153.9170 N   0  0  0  0  0  2  0  0  0  0  0  0
  161.7830  207.4060  149.8740 C   0  0  0  0  0  0  0  0  0  0  0  0
  161.3960  209.4190  151.7550 C   0  0  0  0  0  0  0  0  0  0  0  0
  162.0110  209.7470  150.5470 C   0  0  0  0  0  3  0  0  0  0  0  0
  161.0810  210.3030  152.8960 C   0  0  1  0  0  3  0  0  0  0  0  0
  160.3930  208.0750  153.3720 C   0  0  1  0  0  3  0  0  0  0  0  0
  162.2040  208.7290  149.6010 C   0  0  0  0  0  3  0  0  0  0  0  0
  158.9470  213.3110  152.3700 C   0  0  0  0  0  0  0  0  0  0  0  0
  159.5360  211.4030  151.3430 N   0  0  0  0  0  0  0  0  0  0  0  0
  158.4400  214.4520  152.5400 O   0  0  0  0  0  0  0  0  0  0  0  0
  160.1330  211.3930  152.4950 C   0  0  0  0  0  0  0  0  0  0  0  0
  158.7680  212.5570  151.1880 N   0  0  0  0  0  2  0  0  0  0  0  0
  159.8280  212.6020  153.3440 C   0  0  2  0  0  3  0  0  0  0  0  0
  158.5030  213.4260  155.4010 C   0  0  2  0  0  3  0  0  0  0  0  0
  158.9100  210.6540  156.5690 C   0  0  0  0  0  2  0  0  0  0  0  0
  159.4490  214.4530  155.4450 O   0  0  0  0  0  1  0  0  0  0  0  0
  157.7830  211.5800  157.0630 C   0  0  1  0  0  3  0  0  0  0  0  0
  159.8390  211.3000  155.5360 C   0  0  0  0  0  2  0  0  0  0  0  0
  158.0950  213.0720  156.8410 C   0  0  2  0  0  3  0  0  0  0  0  0
  157.0350  213.8780  157.2610 O   0  0  0  0  0  1  0  0  0  0  0  0
  159.0420  212.2140  154.6080 C   0  0  2  0  0  3  0  0  0  0  0  0
  155.4230  211.1570  157.2210 O   0  0  0  0  0  1  0  0  0  0  0  0
  156.3680  210.7810  155.1710 O   0  0  0  0  0  0  0  0  0  0  0  0
  156.4550  211.1670  156.5000 C   0  0  0  0  0  0  0  0  0  0  0  0
  162.1590  206.5680  147.6600 C   0  0  0  0  0  3  0  0  0  0  0  0
  161.9550  206.3510  148.9190 N   0  0  0  0  0  0  0  0  0  0  0  0
  162.3190  205.4260  146.7110 C   0  0  2  0  0  3  0  0  0  0  0  0
  160.3340  206.2870  145.6000 O   0  0  0  0  0  1  0  0  0  0  0  0
  161.3190  204.3080  144.7000 C   0  0  0  0  0  2  0  0  0  0  0  0
  161.5610  205.6490  145.3890 C   0  0  2  0  0  3  0  0  0  0  0  0
  160.6280  203.7080  147.0130 O   0  0  0  0  0  0  0  0  0  0  0  0
  160.6170  203.3120  145.6510 C   0  0  2  0  0  3  0  0  0  0  0  0
  161.9350  204.0950  147.3740 C   0  0  0  0  0  2  0  0  0  0  0  0
  161.1410  201.8910  145.4830 C   0  0  0  0  0  2  0  0  0  0  0  0
  160.6910  201.0130  146.6360 C   0  0  0  0  0  2  0  0  0  0  0  0
  161.6310  199.8350  146.7660 C   0  0  0  0  0  1  0  0  0  0  0  0
  1  9  1  0  0  0  0
  3  1  2  0  0  0  0
  5  3  1  0  0  0  0
  6  1  1  0  0  0  0
  6  8  1  0  0  0  0
  7  6  2  0  0  0  0
  8 14  1  6  0  0  0
  8  4  1  0  0  0  0
  9  4  1  0  0  0  0
  9  2  1  1  0  0  0
 10  5  2  0  0  0  0
 10  7  1  0  0  0  0
 11 13  2  0  0  0  0
 12 14  2  0  0  0  0
 14 16  1  0  0  0  0
 15 12  1  0  0  0  0
 15 11  1  0  0  0  0
 16 11  1  6  0  0  0
 16 24  1  0  0  0  0
 17 19  1  1  0  0  0
 17 22  1  0  0  0  0
 18 20  1  0  0  0  0
 20 27  1  6  0  0  0
 21 18  1  0  0  0  0
 22 20  1  0  0  0  0
 22 23  1  6  0  0  0
 24 17  1  0  0  0  0
 24 21  1  1  0  0  0
 26 27  2  0  0  0  0
 27 25  1  0  0  0  0
 28 29  2  0  0  0  0
 29  5  1  0  0  0  0
 30 36  1  0  0  0  0
 30 28  1  1  0  0  0
 32 33  1  0  0  0  0
 32 35  1  0  0  0  0
 33 31  1  1  0  0  0
 33 30  1  0  0  0  0
 34 36  1  0  0  0  0
 35 37  1  1  0  0  0
 35 34  1  0  0  0  0
 37 38  1  0  0  0  0
 38 39  1  0  0  0  0
M  END
>  <MODEL>
3

>  <REMARK>
 VINA RESULT:      -6.2      2.048     11.378
  Name = 
  7 active torsions:
  status: ('A' for Active; 'I' for Inactive)
    1  A    between atoms: C_3  and  C_8
    2  A    between atoms: C_3  and  C_38
    3  A    between atoms: C_9  and  C_11
    4  A    between atoms: C_14  and  C_37
    5  A    between atoms: N_18  and  C_21
    6  A    between atoms: C_25  and  C_27
    7  A    between atoms: C_29  and  C_36
                            x       y       z     vdW  Elec       q    Type
                         _______ _______ _______ _____ _____    ______ ____

>  <TORSDO>
F 7

$$$$
=
 OpenBabel11072415103D

 39 43  0  0  1  0  0  0  0  0999 V2000
  157.4340  213.7670  151.9970 C   0  0  0  0  0  0  0  0  0  0  0  0
  155.0880  213.7530  151.8430 O   0  0  0  0  0  1  0  0  0  0  0  0
  157.9380  214.3020  150.8110 C   0  0  0  0  0  3  0  0  0  0  0  0
  156.1220  213.2500  153.8830 N   0  0  0  0  0  2  0  0  0  0  0  0
  159.1850  213.8510  150.3460 C   0  0  0  0  0  0  0  0  0  0  0  0
  158.1270  212.8410  152.7120 C   0  0  0  0  0  0  0  0  0  0  0  0
  159.3640  212.3630  152.2800 C   0  0  0  0  0  3  0  0  0  0  0  0
  157.3690  212.4660  153.9240 C   0  0  1  0  0  3  0  0  0  0  0  0
  156.1590  214.0870  152.6720 C   0  0  1  0  0  3  0  0  0  0  0  0
  159.8940  212.8760  151.0860 C   0  0  0  0  0  3  0  0  0  0  0  0
  159.7630  213.2730  156.6620 C   0  0  0  0  0  0  0  0  0  0  0  0
  157.5550  213.1600  156.2680 N   0  0  0  0  0  0  0  0  0  0  0  0
  160.8440  213.5230  157.2590 O   0  0  0  0  0  0  0  0  0  0  0  0
  158.1390  212.7890  155.1700 C   0  0  0  0  0  0  0  0  0  0  0  0
  158.4940  213.4690  157.2520 N   0  0  0  0  0  2  0  0  0  0  0  0
  159.6440  212.7770  155.2600 C   0  0  2  0  0  3  0  0  0  0  0  0
  159.3740  210.2920  155.9020 C   0  0  2  0  0  3  0  0  0  0  0  0
  162.2700  209.9290  155.0660 C   0  0  0  0  0  2  0  0  0  0  0  0
  158.9610  210.7850  157.1430 O   0  0  0  0  0  1  0  0  0  0  0  0
  161.2960  208.7380  155.1410 C   0  0  1  0  0  3  0  0  0  0  0  0
  161.6690  211.2540  155.5460 C   0  0  0  0  0  2  0  0  0  0  0  0
  160.1360  208.9750  156.1260 C   0  0  2  0  0  3  0  0  0  0  0  0
  159.2520  207.8940  156.1360 O   0  0  0  0  0  1  0  0  0  0  0  0
  160.2020  211.3480  155.1370 C   0  0  2  0  0  3  0  0  0  0  0  0
  160.6950  209.1820  152.8570 O   0  0  0  0  0  0  0  0  0  0  0  0
  160.5410  206.9980  153.5210 O   0  0  0  0  0  1  0  0  0  0  0  0
  160.8320  208.3300  153.7730 C   0  0  0  0  0  0  0  0  0  0  0  0
  159.8700  213.7030  148.0540 C   0  0  0  0  0  3  0  0  0  0  0  0
  159.7110  214.4010  149.1320 N   0  0  0  0  0  0  0  0  0  0  0  0
  160.4350  214.3300  146.8220 C   0  0  2  0  0  3  0  0  0  0  0  0
  159.1970  212.6360  145.5920 O   0  0  0  0  0  1  0  0  0  0  0  0
  160.5090  214.1720  144.3190 C   0  0  0  0  0  2  0  0  0  0  0  0
  159.6380  213.9630  145.5560 C   0  0  2  0  0  3  0  0  0  0  0  0
  162.1310  212.9530  145.7590 O   0  0  0  0  0  0  0  0  0  0  0  0
  161.8480  213.4090  144.4460 C   0  0  2  0  0  3  0  0  0  0  0  0
  161.9300  214.0080  146.6710 C   0  0  0  0  0  2  0  0  0  0  0  0
  163.0150  214.2000  143.8690 C   0  0  0  0  0  2  0  0  0  0  0  0
  163.0880  214.0280  142.3630 C   0  0  0  0  0  2  0  0  0  0  0  0
  162.5420  212.6690  141.9850 C   0  0  0  0  0  1  0  0  0  0  0  0
  1  9  1  0  0  0  0
  1  6  1  0  0  0  0
  3  1  2  0  0  0  0
  4  8  1  0  0  0  0
  5  3  1  0  0  0  0
  5 10  2  0  0  0  0
  6  8  1  0  0  0  0
  7  6  2  0  0  0  0
  8 14  1  1  0  0  0
  9  2  1  6  0  0  0
  9  4  1  0  0  0  0
 10  7  1  0  0  0  0
 11 15  1  0  0  0  0
 11 13  2  0  0  0  0
 12 15  1  0  0  0  0
 14 12  2  0  0  0  0
 16 14  1  1  0  0  0
 16 11  1  0  0  0  0
 17 22  1  0  0  0  0
 17 19  1  1  0  0  0
 18 20  1  0  0  0  0
 18 21  1  0  0  0  0
 20 27  1  6  0  0  0
 20 22  1  0  0  0  0
 22 23  1  6  0  0  0
 24 16  1  0  0  0  0
 24 21  1  1  0  0  0
 24 17  1  0  0  0  0
 25 27  2  0  0  0  0
 26 27  1  0  0  0  0
 28 29  2  0  0  0  0
 29  5  1  0  0  0  0
 30 28  1  1  0  0  0
 32 35  1  0  0  0  0
 32 33  1  0  0  0  0
 33 31  1  1  0  0  0
 33 30  1  0  0  0  0
 34 36  1  0  0  0  0
 35 37  1  1  0  0  0
 35 34  1  0  0  0  0
 36 30  1  0  0  0  0
 38 37  1  0  0  0  0
 39 38  1  0  0  0  0
M  END
>  <MODEL>
4

>  <REMARK>
 VINA RESULT:      -5.5      6.118     10.720
  Name = 
  7 active torsions:
  status: ('A' for Active; 'I' for Inactive)
    1  A    between atoms: C_3  and  C_8
    2  A    between atoms: C_3  and  C_38
    3  A    between atoms: C_9  and  C_11
    4  A    between atoms: C_14  and  C_37
    5  A    between atoms: N_18  and  C_21
    6  A    between atoms: C_25  and  C_27
    7  A    between atoms: C_29  and  C_36
                            x       y       z     vdW  Elec       q    Type
                         _______ _______ _______ _____ _____    ______ ____

>  <TORSDO>
F 7

$$$$
=
 OpenBabel11072415103D

 39 43  0  0  1  0  0  0  0  0999 V2000
  160.6780  208.9140  154.8160 C   0  0  0  0  0  0  0  0  0  0  0  0
  160.2150  207.1590  156.3120 O   0  0  0  0  0  1  0  0  0  0  0  0
  160.5460  208.4180  153.5190 C   0  0  0  0  0  3  0  0  0  0  0  0
  160.4630  209.3430  157.1220 N   0  0  0  0  0  2  0  0  0  0  0  0
  161.3490  208.9630  152.5040 C   0  0  0  0  0  0  0  0  0  0  0  0
  161.5500  209.9150  155.1100 C   0  0  0  0  0  0  0  0  0  0  0  0
  162.3700  210.4780  154.1320 C   0  0  0  0  0  3  0  0  0  0  0  0
  161.4710  210.2510  156.5470 C   0  0  1  0  0  3  0  0  0  0  0  0
  159.9460  208.4990  156.0300 C   0  0  1  0  0  3  0  0  0  0  0  0
  162.2650  209.9950  152.8180 C   0  0  0  0  0  3  0  0  0  0  0  0
  159.8770  213.5770  157.0770 C   0  0  0  0  0  0  0  0  0  0  0  0
  161.9050  212.6110  157.0470 N   0  0  0  0  0  0  0  0  0  0  0  0
  158.9890  214.4530  157.2540 O   0  0  0  0  0  0  0  0  0  0  0  0
  161.0540  211.6770  156.7510 C   0  0  0  0  0  0  0  0  0  0  0  0
  161.2560  213.8290  157.2540 N   0  0  0  0  0  2  0  0  0  0  0  0
  159.6240  212.1550  156.6990 C   0  0  2  0  0  3  0  0  0  0  0  0
  158.1940  213.2800  154.8670 C   0  0  2  0  0  3  0  0  0  0  0  0
  158.0530  210.5560  153.5340 C   0  0  0  0  0  2  0  0  0  0  0  0
  157.3800  213.6880  155.9270 O   0  0  0  0  0  1  0  0  0  0  0  0
  157.7940  211.8550  152.7470 C   0  0  1  0  0  3  0  0  0  0  0  0
  158.2750  210.7720  155.0340 C   0  0  0  0  0  2  0  0  0  0  0  0
  157.3050  213.0090  153.6420 C   0  0  2  0  0  3  0  0  0  0  0  0
  157.1220  214.1790  152.9020 O   0  0  0  0  0  1  0  0  0  0  0  0
  159.0560  212.0630  155.2710 C   0  0  2  0  0  3  0  0  0  0  0  0
  160.1510  212.0000  152.3060 O   0  0  0  0  0  1  0  0  0  0  0  0
  158.7800  212.8300  150.6730 O   0  0  0  0  0  0  0  0  0  0  0  0
  158.9800  212.2240  151.9050 C   0  0  0  0  0  0  0  0  0  0  0  0
  160.7790  207.2710  150.9040 C   0  0  0  0  0  3  0  0  0  0  0  0
  161.2120  208.4620  151.1680 N   0  0  0  0  0  0  0  0  0  0  0  0
  160.6700  206.8010  149.4910 C   0  0  2  0  0  3  0  0  0  0  0  0
  161.5900  204.6970  150.2940 O   0  0  0  0  0  1  0  0  0  0  0  0
  161.1030  204.8590  147.9620 C   0  0  0  0  0  2  0  0  0  0  0  0
  160.6980  205.2650  149.3780 C   0  0  2  0  0  3  0  0  0  0  0  0
  162.8300  206.5960  148.3990 O   0  0  0  0  0  0  0  0  0  0  0  0
  162.4330  205.5300  147.5500 C   0  0  2  0  0  3  0  0  0  0  0  0
  161.7360  207.4600  148.6030 C   0  0  0  0  0  2  0  0  0  0  0  0
  162.4310  205.9580  146.0880 C   0  0  0  0  0  2  0  0  0  0  0  0
  161.5510  205.0380  145.2610 C   0  0  0  0  0  2  0  0  0  0  0  0
  161.1180  205.7550  144.0010 C   0  0  0  0  0  1  0  0  0  0  0  0
  1  6  1  0  0  0  0
  1  9  1  0  0  0  0
  3  1  2  0  0  0  0
  5 10  2  0  0  0  0
  5  3  1  0  0  0  0
  6  8  1  0  0  0  0
  7  6  2  0  0  0  0
  8 14  1  6  0  0  0
  8  4  1  0  0  0  0
  9  2  1  1  0  0  0
  9  4  1  0  0  0  0
 10  7  1  0  0  0  0
 11 13  2  0  0  0  0
 11 15  1  0  0  0  0
 12 15  1  0  0  0  0
 14 12  2  0  0  0  0
 16 14  1  6  0  0  0
 16 11  1  0  0  0  0
 17 24  1  0  0  0  0
 17 19  1  1  0  0  0
 18 21  1  0  0  0  0
 20 27  1  1  0  0  0
 20 18  1  0  0  0  0
 20 22  1  0  0  0  0
 22 23  1  6  0  0  0
 22 17  1  0  0  0  0
 24 21  1  1  0  0  0
 24 16  1  0  0  0  0
 26 27  2  0  0  0  0
 27 25  1  0  0  0  0
 28 29  2  0  0  0  0
 29  5  1  0  0  0  0
 30 28  1  1  0  0  0
 32 33  1  0  0  0  0
 33 30  1  0  0  0  0
 33 31  1  1  0  0  0
 34 36  1  0  0  0  0
 35 37  1  6  0  0  0
 35 32  1  0  0  0  0
 35 34  1  0  0  0  0
 36 30  1  0  0  0  0
 38 37  1  0  0  0  0
 39 38  1  0  0  0  0
M  END
>  <MODEL>
5

>  <REMARK>
 VINA RESULT:      -4.9      2.729     10.473
  Name = 
  7 active torsions:
  status: ('A' for Active; 'I' for Inactive)
    1  A    between atoms: C_3  and  C_8
    2  A    between atoms: C_3  and  C_38
    3  A    between atoms: C_9  and  C_11
    4  A    between atoms: C_14  and  C_37
    5  A    between atoms: N_18  and  C_21
    6  A    between atoms: C_25  and  C_27
    7  A    between atoms: C_29  and  C_36
                            x       y       z     vdW  Elec       q    Type
                         _______ _______ _______ _____ _____    ______ ____

>  <TORSDO>
F 7

$$$$
=
 OpenBabel11072415103D

 39 43  0  0  1  0  0  0  0  0999 V2000
  161.1110  209.0900  154.8130 C   0  0  0  0  0  0  0  0  0  0  0  0
  162.7770  209.6160  156.3860 O   0  0  0  0  0  1  0  0  0  0  0  0
  161.4720  207.8950  154.1890 C   0  0  0  0  0  3  0  0  0  0  0  0
  160.7880  210.8520  156.3410 N   0  0  0  0  0  2  0  0  0  0  0  0
  161.0890  207.6900  152.8530 C   0  0  0  0  0  0  0  0  0  0  0  0
  160.3890  210.0430  154.1630 C   0  0  0  0  0  0  0  0  0  0  0  0
  159.9970  209.8800  152.8350 C   0  0  0  0  0  3  0  0  0  0  0  0
  160.1370  211.1880  155.0630 C   0  0  1  0  0  3  0  0  0  0  0  0
  161.3980  209.5180  156.1960 C   0  0  1  0  0  3  0  0  0  0  0  0
  160.3520  208.6910  152.1780 C   0  0  0  0  0  3  0  0  0  0  0  0
  156.4210  211.4570  155.0520 C   0  0  0  0  0  0  0  0  0  0  0  0
  158.1740  211.7190  156.4320 N   0  0  0  0  0  0  0  0  0  0  0  0
  155.2250  211.3620  154.6690 O   0  0  0  0  0  0  0  0  0  0  0  0
  158.6680  211.4000  155.2750 C   0  0  0  0  0  0  0  0  0  0  0  0
  156.7820  211.7870  156.3790 N   0  0  0  0  0  2  0  0  0  0  0  0
  157.6230  211.2090  154.2030 C   0  0  2  0  0  3  0  0  0  0  0  0
  159.1400  212.9430  153.0380 C   0  0  2  0  0  3  0  0  0  0  0  0
  156.6000  214.1650  151.9110 C   0  0  0  0  0  2  0  0  0  0  0  0
  159.6370  213.1870  154.3210 O   0  0  0  0  0  1  0  0  0  0  0  0
  157.9730  214.4130  151.2590 C   0  0  1  0  0  3  0  0  0  0  0  0
  156.6650  213.3520  153.2070 C   0  0  0  0  0  2  0  0  0  0  0  0
  159.1420  214.2640  152.2510 C   0  0  2  0  0  3  0  0  0  0  0  0
  160.3710  214.4530  151.6170 O   0  0  0  0  0  1  0  0  0  0  0  0
  157.7460  212.2790  153.1040 C   0  0  2  0  0  3  0  0  0  0  0  0
  159.2830  213.3950  149.5210 O   0  0  0  0  0  1  0  0  0  0  0  0
  157.0280  213.0230  149.4160 O   0  0  0  0  0  0  0  0  0  0  0  0
  158.1440  213.5820  150.0210 C   0  0  0  0  0  0  0  0  0  0  0  0
  161.5030  206.3300  150.9230 C   0  0  0  0  0  3  0  0  0  0  0  0
  161.4520  206.4630  152.2090 N   0  0  0  0  0  0  0  0  0  0  0  0
  161.8760  205.0200  150.3100 C   0  0  2  0  0  3  0  0  0  0  0  0
  160.3700  205.6260  148.4990 O   0  0  0  0  0  1  0  0  0  0  0  0
  161.4660  203.5110  148.3480 C   0  0  0  0  0  2  0  0  0  0  0  0
  161.5650  204.9660  148.8030 C   0  0  2  0  0  3  0  0  0  0  0  0
  160.0770  203.3900  150.4090 O   0  0  0  0  0  0  0  0  0  0  0  0
  160.4540  202.7250  149.2140 C   0  0  2  0  0  3  0  0  0  0  0  0
  161.2340  203.8490  151.0700 C   0  0  0  0  0  2  0  0  0  0  0  0
  160.9230  201.3030  149.4940 C   0  0  0  0  0  2  0  0  0  0  0  0
  161.6690  200.7380  148.2990 C   0  0  0  0  0  2  0  0  0  0  0  0
  160.7910  200.8270  147.0710 C   0  0  0  0  0  1  0  0  0  0  0  0
  1  9  1  0  0  0  0
  3  1  1  0  0  0  0
  5  3  2  0  0  0  0
  6  1  2  0  0  0  0
  6  8  1  0  0  0  0
  7  6  1  0  0  0  0
  8 14  1  1  0  0  0
  8  4  1  0  0  0  0
  9  4  1  0  0  0  0
  9  2  1  6  0  0  0
 10  7  2  0  0  0  0
 10  5  1  0  0  0  0
 11 15  1  0  0  0  0
 13 11  2  0  0  0  0
 14 12  2  0  0  0  0
 15 12  1  0  0  0  0
 16 11  1  1  0  0  0
 16 14  1  0  0  0  0
 17 24  1  0  0  0  0
 17 19  1  1  0  0  0
 18 21  1  0  0  0  0
 20 27  1  6  0  0  0
 20 18  1  0  0  0  0
 20 22  1  0  0  0  0
 22 23  1  6  0  0  0
 22 17  1  0  0  0  0
 24 21  1  1  0  0  0
 24 16  1  0  0  0  0
 25 27  1  0  0  0  0
 26 27  2  0  0  0  0
 28 29  2  0  0  0  0
 29  5  1  0  0  0  0
 30 28  1  1  0  0  0
 30 36  1  0  0  0  0
 32 33  1  0  0  0  0
 32 35  1  0  0  0  0
 33 31  1  1  0  0  0
 33 30  1  0  0  0  0
 34 36  1  0  0  0  0
 35 37  1  1  0  0  0
 35 34  1  0  0  0  0
 38 37  1  0  0  0  0
 39 38  1  0  0  0  0
M  END
>  <MODEL>
6

>  <REMARK>
 VINA RESULT:      -4.8      2.773     10.347
  Name = 
  7 active torsions:
  status: ('A' for Active; 'I' for Inactive)
    1  A    between atoms: C_3  and  C_8
    2  A    between atoms: C_3  and  C_38
    3  A    between atoms: C_9  and  C_11
    4  A    between atoms: C_14  and  C_37
    5  A    between atoms: N_18  and  C_21
    6  A    between atoms: C_25  and  C_27
    7  A    between atoms: C_29  and  C_36
                            x       y       z     vdW  Elec       q    Type
                         _______ _______ _______ _____ _____    ______ ____

>  <TORSDO>
F 7

$$$$
=
 OpenBabel11072415103D

 39 43  0  0  1  0  0  0  0  0999 V2000
  161.4810  205.8350  151.1580 C   0  0  0  0  0  0  0  0  0  0  0  0
  160.6550  203.9800  152.3430 O   0  0  0  0  0  1  0  0  0  0  0  0
  161.7490  206.8480  152.0800 C   0  0  0  0  0  3  0  0  0  0  0  0
  161.1850  203.7660  150.0720 N   0  0  0  0  0  2  0  0  0  0  0  0
  161.6080  208.1840  151.6710 C   0  0  0  0  0  0  0  0  0  0  0  0
  161.1050  206.1140  149.8810 C   0  0  0  0  0  0  0  0  0  0  0  0
  160.9470  207.4280  149.4400 C   0  0  0  0  0  3  0  0  0  0  0  0
  160.9050  204.8600  149.1250 C   0  0  1  0  0  3  0  0  0  0  0  0
  161.5630  204.3740  151.3600 C   0  0  1  0  0  3  0  0  0  0  0  0
  161.2020  208.4690  150.3460 C   0  0  0  0  0  3  0  0  0  0  0  0
  162.7210  204.5650  145.8850 C   0  0  0  0  0  0  0  0  0  0  0  0
  163.0760  205.1490  148.0250 N   0  0  0  0  0  0  0  0  0  0  0  0
  162.9330  204.4090  144.6540 O   0  0  0  0  0  0  0  0  0  0  0  0
  161.8350  204.7760  147.9530 C   0  0  0  0  0  0  0  0  0  0  0  0
  163.7040  205.0380  146.7840 N   0  0  0  0  0  2  0  0  0  0  0  0
  161.4210  204.3180  146.5760 C   0  0  2  0  0  3  0  0  0  0  0  0
  160.5550  202.3120  145.2020 C   0  0  2  0  0  3  0  0  0  0  0  0
  160.0590  200.9190  147.8540 C   0  0  0  0  0  2  0  0  0  0  0  0
  159.6900  203.2420  144.6200 O   0  0  0  0  0  1  0  0  0  0  0  0
  160.2000  200.1270  146.5400 C   0  0  1  0  0  3  0  0  0  0  0  0
  160.0880  202.4390  147.6690 C   0  0  0  0  0  2  0  0  0  0  0  0
  159.8300  200.9590  145.2980 C   0  0  2  0  0  3  0  0  0  0  0  0
  160.0100  200.2240  144.1250 O   0  0  0  0  0  1  0  0  0  0  0  0
  161.0730  202.8190  146.5670 C   0  0  2  0  0  3  0  0  0  0  0  0
  162.4980  199.8460  147.1840 O   0  0  0  0  0  1  0  0  0  0  0  0
  161.7630  198.4870  145.4960 O   0  0  0  0  0  0  0  0  0  0  0  0
  161.5520  199.4850  146.4360 C   0  0  0  0  0  0  0  0  0  0  0  0
  161.1360  209.4740  153.6360 C   0  0  0  0  0  3  0  0  0  0  0  0
  161.8880  209.2290  152.6110 N   0  0  0  0  0  0  0  0  0  0  0  0
  161.4740  210.5850  154.5740 C   0  0  2  0  0  3  0  0  0  0  0  0
  161.2870  208.9270  156.3440 O   0  0  0  0  0  1  0  0  0  0  0  0
  161.8110  211.1640  156.9920 C   0  0  0  0  0  2  0  0  0  0  0  0
  161.9780  210.0730  155.9360 C   0  0  2  0  0  3  0  0  0  0  0  0
  159.5740  211.2960  155.9110 O   0  0  0  0  0  0  0  0  0  0  0  0
  160.3550  211.6830  157.0310 C   0  0  2  0  0  3  0  0  0  0  0  0
  160.2950  211.5580  154.7290 C   0  0  0  0  0  2  0  0  0  0  0  0
  160.2890  213.1870  157.2610 C   0  0  0  0  0  2  0  0  0  0  0  0
  158.8550  213.6800  157.1770 C   0  0  0  0  0  2  0  0  0  0  0  0
  158.6590  214.4350  155.8810 C   0  0  0  0  0  1  0  0  0  0  0  0
  1  9  1  0  0  0  0
  1  3  1  0  0  0  0
  4  9  1  0  0  0  0
  5  3  2  0  0  0  0
  5 29  1  0  0  0  0
  6  1  2  0  0  0  0
  7  6  1  0  0  0  0
  7 10  2  0  0  0  0
  8 14  1  6  0  0  0
  8  6  1  0  0  0  0
  8  4  1  0  0  0  0
  9  2  1  1  0  0  0
 10  5  1  0  0  0  0
 11 15  1  0  0  0  0
 13 11  2  0  0  0  0
 14 12  2  0  0  0  0
 15 12  1  0  0  0  0
 16 11  1  6  0  0  0
 16 14  1  0  0  0  0
 17 19  1  1  0  0  0
 17 22  1  0  0  0  0
 17 24  1  0  0  0  0
 20 27  1  6  0  0  0
 20 18  1  0  0  0  0
 21 18  1  0  0  0  0
 22 23  1  6  0  0  0
 22 20  1  0  0  0  0
 24 16  1  0  0  0  0
 24 21  1  1  0  0  0
 26 27  2  0  0  0  0
 27 25  1  0  0  0  0
 29 28  2  0  0  0  0
 30 28  1  6  0  0  0
 30 36  1  0  0  0  0
 30 33  1  0  0  0  0
 32 35  1  0  0  0  0
 33 31  1  1  0  0  0
 33 32  1  0  0  0  0
 34 35  1  0  0  0  0
 35 37  1  6  0  0  0
 36 34  1  0  0  0  0
 38 37  1  0  0  0  0
 39 38  1  0  0  0  0
M  END
>  <MODEL>
7

>  <REMARK>
 VINA RESULT:      -4.7      1.897      3.640
  Name = 
  7 active torsions:
  status: ('A' for Active; 'I' for Inactive)
    1  A    between atoms: C_3  and  C_8
    2  A    between atoms: C_3  and  C_38
    3  A    between atoms: C_9  and  C_11
    4  A    between atoms: C_14  and  C_37
    5  A    between atoms: N_18  and  C_21
    6  A    between atoms: C_25  and  C_27
    7  A    between atoms: C_29  and  C_36
                            x       y       z     vdW  Elec       q    Type
                         _______ _______ _______ _____ _____    ______ ____

>  <TORSDO>
F 7

$$$$
