=
 OpenBabel11072414573D

 65 69  0  0  1  0  0  0  0  0999 V2000
  160.9420  204.4430  148.3380 C   0  0  2  0  0  3  0  0  0  0  0  0
  161.1480  203.3500  146.0450 N   0  0  0  0  0  0  0  0  0  0  0  0
  162.0080  208.0070  146.6180 O   0  0  0  0  0  0  0  0  0  0  0  0
  160.4760  201.1300  145.6360 N   0  0  0  0  0  1  0  0  0  0  0  0
  161.7420  205.4360  149.1960 C   0  0  0  0  0  2  0  0  0  0  0  0
  161.8550  206.8770  147.1570 C   0  0  0  0  0  0  0  0  0  0  0  0
  161.0620  203.0100  148.8880 C   0  0  1  0  0  0  0  0  0  0  0  0
  161.7450  205.6650  146.3230 C   0  0  0  0  0  0  0  0  0  0  0  0
  161.7600  206.7640  148.5830 N   0  0  0  0  0  0  0  0  0  0  0  0
  161.3530  204.5030  146.8770 C   0  0  0  0  0  0  0  0  0  0  0  0
  160.7380  202.2150  146.5210 C   0  0  0  0  0  0  0  0  0  0  0  0
  160.5180  202.0570  147.9260 N   0  0  0  0  0  2  0  0  0  0  0  0
  162.4080  202.7020  149.1200 O   0  0  0  0  0  1  0  0  0  0  0  0
  162.0520  205.7510  144.8620 C   0  0  0  0  0  1  0  0  0  0  0  0
  161.5690  207.9600  149.4040 C   0  0  0  0  0  2  0  0  0  0  0  0
  162.0360  209.2300  148.6870 C   0  0  0  0  0  2  0  0  0  0  0  0
  162.0350  210.4610  149.5880 C   0  0  0  0  0  2  0  0  0  0  0  0
  162.0810  213.1470  146.2580 C   0  0  0  0  0  2  0  0  0  0  0  0
  160.7880  213.0610  147.0590 C   0  0  2  0  0  3  0  0  0  0  0  0
  163.2280  211.7600  147.9180 N   0  0  0  0  0  2  0  0  0  0  0  0
  163.2730  213.0350  147.2050 C   0  0  0  0  0  2  0  0  0  0  0  0
  160.7840  211.8030  147.9240 C   0  0  0  0  0  2  0  0  0  0  0  0
  162.0470  211.7480  148.7810 C   0  0  1  0  0  3  0  0  0  0  0  0
  159.6080  213.0270  146.1080 C   0  0  0  0  0  2  0  0  0  0  0  0
  160.0080  211.2800  142.9150 O   0  0  0  0  0  0  0  0  0  0  0  0
  159.8020  211.9760  145.1180 N   0  0  0  0  0  2  0  0  0  0  0  0
  159.7980  212.2300  143.7140 C   0  0  0  0  0  0  0  0  0  0  0  0
  159.5790  213.6140  143.1840 C   0  0  0  0  0  2  0  0  0  0  0  0
  160.0080  213.7090  141.7330 C   0  0  0  0  0  2  0  0  0  0  0  0
  161.2690  212.8900  141.5170 C   0  0  0  0  0  2  0  0  0  0  0  0
  161.4130  211.2040  139.8480 O   0  0  0  0  0  0  0  0  0  0  0  0
  160.6660  213.4390  139.1410 C   0  0  0  0  0  0  0  0  0  0  0  0
  160.4390  211.0190  137.6000 C   0  0  0  0  0  2  0  0  0  0  0  0
  157.4740  211.8680  139.7220 C   0  0  0  0  0  2  0  0  0  0  0  0
  159.1000  210.7920  138.2850 C   0  0  0  0  0  2  0  0  0  0  0  0
  159.2780  213.2200  139.0820 O   0  0  0  0  0  0  0  0  0  0  0  0
  158.6360  211.9720  139.0910 C   0  0  0  0  0  0  0  0  0  0  0  0
  162.7840  211.2230  137.9430 O   0  0  0  0  0  1  0  0  0  0  0  0
  161.6000  212.6060  140.0310 C   0  0  1  0  0  0  0  0  0  0  0  0
  161.1210  214.4530  138.5420 O   0  0  0  0  0  0  0  0  0  0  0  0
  161.6220  210.7070  138.5240 C   0  0  1  0  0  0  0  0  0  0  0  0
  162.9740  212.9140  139.7880 O   0  0  0  0  0  0  0  0  0  0  0  0
  163.4780  213.8410  140.7220 C   0  0  0  0  0  1  0  0  0  0  0  0
  161.8040  209.1930  138.6050 C   0  0  0  0  0  2  0  0  0  0  0  0
  161.1920  208.5490  137.5280 O   0  0  0  0  0  1  0  0  0  0  0  0
  160.2750  202.9100  150.1940 C   0  0  0  0  0  2  0  0  0  0  0  0
  161.1370  203.1360  151.3490 N   0  0  0  0  0  0  0  0  0  0  0  0
  162.7920  201.5020  152.0840 C   0  0  0  0  0  1  0  0  0  0  0  0
  161.3220  201.8640  152.0420 C   0  0  0  0  0  2  0  0  0  0  0  0
  160.5140  204.1390  152.2290 C   0  0  0  0  0  2  0  0  0  0  0  0
  161.4710  205.2140  152.7540 C   0  0  0  0  0  2  0  0  0  0  0  0
  160.9000  206.5090  152.6230 O   0  0  0  0  0  0  0  0  0  0  0  0
  160.8450  207.4140  153.6840 C   0  0  0  0  0  0  0  0  0  0  0  0
  161.8060  207.5530  157.2100 F   0  0  0  0  0  0  0  0  0  0  0  0
  160.5300  209.0720  155.9800 C   0  0  0  0  0  0  0  0  0  0  0  0
  161.2480  207.0090  154.8930 C   0  0  0  0  0  3  0  0  0  0  0  0
  160.4760  209.8990  157.0530 F   0  0  0  0  0  0  0  0  0  0  0  0
  160.3930  208.8450  153.4740 C   0  0  1  0  0  3  0  0  0  0  0  0
  161.1840  207.9090  156.0580 C   0  0  0  0  0  0  0  0  0  0  0  0
  159.7440  209.4200  154.7440 C   0  0  0  0  0  2  0  0  0  0  0  0
  161.4870  209.6360  153.1020 O   0  0  0  0  0  0  0  0  0  0  0  0
  161.0590  210.9520  153.2860 C   0  0  0  0  0  2  0  0  0  0  0  0
  160.6650  211.4900  152.0600 O   0  0  0  0  0  0  0  0  0  0  0  0
  159.4610  213.4870  151.5980 C   0  0  0  0  0  1  0  0  0  0  0  0
  159.4780  212.1660  152.3410 C   0  0  0  0  0  2  0  0  0  0  0  0
  1  7  1  0  0  0  0
  1  5  1  1  0  0  0
  2 11  2  0  0  0  0
  2 10  1  0  0  0  0
  3  6  2  0  0  0  0
  4 11  1  0  0  0  0
  6  9  1  0  0  0  0
  7 13  1  1  0  0  0
  7 46  1  0  0  0  0
  8 10  2  0  0  0  0
  8  6  1  0  0  0  0
  9  5  1  0  0  0  0
  9 15  1  0  0  0  0
 10  1  1  0  0  0  0
 11 12  1  0  0  0  0
 12  7  1  0  0  0  0
 14  8  1  0  0  0  0
 16 15  1  0  0  0  0
 16 17  1  0  0  0  0
 18 19  1  0  0  0  0
 18 21  1  0  0  0  0
 19 24  1  6  0  0  0
 19 22  1  0  0  0  0
 20 23  1  0  0  0  0
 21 20  1  0  0  0  0
 22 23  1  0  0  0  0
 23 17  1  6  0  0  0
 25 27  2  0  0  0  0
 26 24  1  0  0  0  0
 27 26  1  0  0  0  0
 28 27  1  0  0  0  0
 29 28  1  0  0  0  0
 30 29  1  0  0  0  0
 31 39  1  0  0  0  0
 32 39  1  0  0  0  0
 33 35  1  0  0  0  0
 33 41  1  0  0  0  0
 35 37  1  0  0  0  0
 36 37  1  0  0  0  0
 36 32  1  0  0  0  0
 37 34  2  0  0  0  0
 39 30  1  1  0  0  0
 40 32  2  0  0  0  0
 41 38  1  6  0  0  0
 41 44  1  0  0  0  0
 41 31  1  0  0  0  0
 42 39  1  0  0  0  0
 42 43  1  0  0  0  0
 45 44  1  0  0  0  0
 46 47  1  0  0  0  0
 47 49  1  0  0  0  0
 47 50  1  0  0  0  0
 49 48  1  0  0  0  0
 50 51  1  0  0  0  0
 52 51  1  0  0  0  0
 52 53  1  0  0  0  0
 53 56  2  0  0  0  0
 55 59  2  0  0  0  0
 55 57  1  0  0  0  0
 56 59  1  0  0  0  0
 58 61  1  1  0  0  0
 58 53  1  0  0  0  0
 58 60  1  0  0  0  0
 59 54  1  0  0  0  0
 60 55  1  0  0  0  0
 61 62  1  0  0  0  0
 63 65  1  0  0  0  0
 63 62  1  0  0  0  0
 64 65  1  0  0  0  0
M  END
>  <MODEL>
1

>  <REMARK>
 VINA RESULT:      -4.1      0.000      0.000
  Name = 
  23 active torsions:
  status: ('A' for Active; 'I' for Inactive)
    1  A    between atoms: C_3  and  C_5
    2  A    between atoms: C_3  and  C_23
    3  A    between atoms: C_5  and  C_58
    4  A    between atoms: N_7  and  C_13
    5  A    between atoms: N_7  and  C_40
    6  A    between atoms: N_7  and  C_63
    7  A    between atoms: C_11  and  O_26
    8  A    between atoms: O_12  and  C_49
    9  A    between atoms: C_13  and  C_31
   10  A    between atoms: C_15  and  N_44
   11  A    between atoms: C_15  and  C_61
   12  A    between atoms: O_19  and  C_45
   13  A    between atoms: O_19  and  C_52
   14  A    between atoms: C_23  and  C_49
   15  A    between atoms: O_26  and  C_35
   16  A    between atoms: N_29  and  C_32
   17  A    between atoms: C_30  and  C_32
   18  A    between atoms: C_35  and  C_40
   19  A    between atoms: C_39  and  C_57
   20  A    between atoms: O_43  and  C_45
   21  A    between atoms: O_43  and  C_56
   22  A    between atoms: C_47  and  C_61
   23  A    between atoms: C_47  and  C_65
                            x       y       z     vdW  Elec       q    Type
                         _______ _______ _______ _____ _____    ______ ____

>  <TORSDO>
F 23

$$$$
=
 OpenBabel11072414573D

 65 69  0  0  1  0  0  0  0  0999 V2000
  160.1060  213.1570  148.9240 C   0  0  2  0  0  3  0  0  0  0  0  0
  162.3480  212.0710  148.3860 N   0  0  0  0  0  0  0  0  0  0  0  0
  160.3690  211.5810  152.6990 O   0  0  0  0  0  0  0  0  0  0  0  0
  163.5110  212.4950  146.3830 N   0  0  0  0  0  1  0  0  0  0  0  0
  158.7960  212.7630  149.6240 C   0  0  0  0  0  2  0  0  0  0  0  0
  160.2220  211.9080  151.4900 C   0  0  0  0  0  0  0  0  0  0  0  0
  159.9210  213.2290  147.3980 C   0  0  1  0  0  0  0  0  0  0  0  0
  161.3070  211.6680  150.5190 C   0  0  0  0  0  0  0  0  0  0  0  0
  159.0100  212.5380  151.0530 N   0  0  0  0  0  0  0  0  0  0  0  0
  161.2440  212.2200  149.2930 C   0  0  0  0  0  0  0  0  0  0  0  0
  162.3550  212.6100  147.2060 C   0  0  0  0  0  0  0  0  0  0  0  0
  161.2200  213.3480  146.7420 N   0  0  0  0  0  2  0  0  0  0  0  0
  159.2860  212.0680  146.9420 O   0  0  0  0  0  1  0  0  0  0  0  0
  162.4770  210.8280  150.9210 C   0  0  0  0  0  1  0  0  0  0  0  0
  158.0530  213.0490  152.0350 C   0  0  0  0  0  2  0  0  0  0  0  0
  158.4330  214.4460  152.5330 C   0  0  0  0  0  2  0  0  0  0  0  0
  158.9280  214.4530  153.9770 C   0  0  0  0  0  2  0  0  0  0  0  0
  156.7470  211.0530  155.3840 C   0  0  0  0  0  2  0  0  0  0  0  0
  158.0630  211.3670  156.0840 C   0  0  2  0  0  3  0  0  0  0  0  0
  156.8830  213.1540  154.1340 N   0  0  0  0  0  2  0  0  0  0  0  0
  156.0390  212.3560  155.0240 C   0  0  0  0  0  2  0  0  0  0  0  0
  158.9010  212.3180  155.2320 C   0  0  0  0  0  2  0  0  0  0  0  0
  158.0840  213.5560  154.8650 C   0  0  1  0  0  3  0  0  0  0  0  0
  158.8320  210.0800  156.3120 C   0  0  0  0  0  2  0  0  0  0  0  0
  162.2660  209.9050  155.0540 O   0  0  0  0  0  0  0  0  0  0  0  0
  160.2590  210.3200  156.1390 N   0  0  0  0  0  2  0  0  0  0  0  0
  161.0450  209.6220  155.1740 C   0  0  0  0  0  0  0  0  0  0  0  0
  160.4290  208.5850  154.2860 C   0  0  0  0  0  2  0  0  0  0  0  0
  161.2060  208.4550  152.9900 C   0  0  0  0  0  2  0  0  0  0  0  0
  160.5160  207.4550  152.0780 C   0  0  0  0  0  2  0  0  0  0  0  0
  160.5080  205.3160  151.0410 O   0  0  0  0  0  0  0  0  0  0  0  0
  162.5420  206.6790  150.8110 C   0  0  0  0  0  0  0  0  0  0  0  0
  161.9020  204.3330  149.2740 C   0  0  0  0  0  2  0  0  0  0  0  0
  160.8320  207.5890  147.7700 C   0  0  0  0  0  2  0  0  0  0  0  0
  161.1800  205.2520  148.3010 C   0  0  0  0  0  2  0  0  0  0  0  0
  162.3460  207.1850  149.5130 O   0  0  0  0  0  0  0  0  0  0  0  0
  161.4190  206.7110  148.5710 C   0  0  0  0  0  0  0  0  0  0  0  0
  161.9450  203.5190  151.5090 O   0  0  0  0  0  1  0  0  0  0  0  0
  161.3810  206.2250  151.7080 C   0  0  1  0  0  0  0  0  0  0  0  0
  163.7080  206.7450  151.2900 O   0  0  0  0  0  0  0  0  0  0  0  0
  161.1010  204.1070  150.5610 C   0  0  1  0  0  0  0  0  0  0  0  0
  161.8520  205.6040  152.9050 O   0  0  0  0  0  0  0  0  0  0  0  0
  160.8010  205.3220  153.8000 C   0  0  0  0  0  1  0  0  0  0  0  0
  159.9840  203.1030  150.2830 C   0  0  0  0  0  2  0  0  0  0  0  0
  160.4820  201.8030  150.1830 O   0  0  0  0  0  1  0  0  0  0  0  0
  159.0730  214.4530  147.0570 C   0  0  0  0  0  2  0  0  0  0  0  0
  158.3740  214.2740  145.7900 N   0  0  0  0  0  0  0  0  0  0  0  0
  156.0910  214.0590  144.9570 C   0  0  0  0  0  1  0  0  0  0  0  0
  157.0610  213.6970  146.0630 C   0  0  0  0  0  2  0  0  0  0  0  0
  159.1710  213.3970  144.9160 C   0  0  0  0  0  2  0  0  0  0  0  0
  159.3580  213.9150  143.4860 C   0  0  0  0  0  2  0  0  0  0  0  0
  160.6200  213.5160  142.9630 O   0  0  0  0  0  0  0  0  0  0  0  0
  160.7460  212.8300  141.7560 C   0  0  0  0  0  0  0  0  0  0  0  0
  162.6120  209.9860  140.4110 F   0  0  0  0  0  0  0  0  0  0  0  0
  161.2910  211.5390  139.2740 C   0  0  0  0  0  0  0  0  0  0  0  0
  161.6540  211.8520  141.6670 C   0  0  0  0  0  3  0  0  0  0  0  0
  161.4770  210.8540  138.1190 F   0  0  0  0  0  0  0  0  0  0  0  0
  159.8430  213.1370  140.5780 C   0  0  1  0  0  3  0  0  0  0  0  0
  161.8570  211.1130  140.4080 C   0  0  0  0  0  0  0  0  0  0  0  0
  160.5460  212.8470  139.2420 C   0  0  0  0  0  2  0  0  0  0  0  0
  158.6710  212.3770  140.6710 O   0  0  0  0  0  0  0  0  0  0  0  0
  157.8210  212.9070  139.6990 C   0  0  0  0  0  2  0  0  0  0  0  0
  156.8390  211.9680  139.3760 O   0  0  0  0  0  0  0  0  0  0  0  0
  156.6090  209.7860  138.4620 C   0  0  0  0  0  1  0  0  0  0  0  0
  157.5520  210.8130  139.0570 C   0  0  0  0  0  2  0  0  0  0  0  0
  1 10  1  0  0  0  0
  1  5  1  1  0  0  0
  2 10  1  0  0  0  0
  4 11  1  0  0  0  0
  5  9  1  0  0  0  0
  6  3  2  0  0  0  0
  7 13  1  6  0  0  0
  7  1  1  0  0  0  0
  8 14  1  0  0  0  0
  8  6  1  0  0  0  0
  9  6  1  0  0  0  0
  9 15  1  0  0  0  0
 10  8  2  0  0  0  0
 11  2  2  0  0  0  0
 12 11  1  0  0  0  0
 12  7  1  0  0  0  0
 15 16  1  0  0  0  0
 16 17  1  0  0  0  0
 18 19  1  0  0  0  0
 19 24  1  6  0  0  0
 20 23  1  0  0  0  0
 20 21  1  0  0  0  0
 21 18  1  0  0  0  0
 22 19  1  0  0  0  0
 23 17  1  6  0  0  0
 23 22  1  0  0  0  0
 25 27  2  0  0  0  0
 26 24  1  0  0  0  0
 27 26  1  0  0  0  0
 28 27  1  0  0  0  0
 29 28  1  0  0  0  0
 30 29  1  0  0  0  0
 31 39  1  0  0  0  0
 32 40  2  0  0  0  0
 32 39  1  0  0  0  0
 33 41  1  0  0  0  0
 34 37  2  0  0  0  0
 35 37  1  0  0  0  0
 35 33  1  0  0  0  0
 36 32  1  0  0  0  0
 37 36  1  0  0  0  0
 39 30  1  1  0  0  0
 39 42  1  0  0  0  0
 41 31  1  0  0  0  0
 41 38  1  1  0  0  0
 42 43  1  0  0  0  0
 44 41  1  0  0  0  0
 45 44  1  0  0  0  0
 46  7  1  0  0  0  0
 47 49  1  0  0  0  0
 47 46  1  0  0  0  0
 48 49  1  0  0  0  0
 50 47  1  0  0  0  0
 51 50  1  0  0  0  0
 52 51  1  0  0  0  0
 53 52  1  0  0  0  0
 55 59  2  0  0  0  0
 56 53  2  0  0  0  0
 57 55  1  0  0  0  0
 58 61  1  1  0  0  0
 58 53  1  0  0  0  0
 59 54  1  0  0  0  0
 59 56  1  0  0  0  0
 60 55  1  0  0  0  0
 60 58  1  0  0  0  0
 62 61  1  0  0  0  0
 63 62  1  0  0  0  0
 64 65  1  0  0  0  0
 65 63  1  0  0  0  0
M  END
>  <MODEL>
2

>  <REMARK>
 VINA RESULT:      -2.9      4.403     12.179
  Name = 
  23 active torsions:
  status: ('A' for Active; 'I' for Inactive)
    1  A    between atoms: C_3  and  C_5
    2  A    between atoms: C_3  and  C_23
    3  A    between atoms: C_5  and  C_58
    4  A    between atoms: N_7  and  C_13
    5  A    between atoms: N_7  and  C_40
    6  A    between atoms: N_7  and  C_63
    7  A    between atoms: C_11  and  O_26
    8  A    between atoms: O_12  and  C_49
    9  A    between atoms: C_13  and  C_31
   10  A    between atoms: C_15  and  N_44
   11  A    between atoms: C_15  and  C_61
   12  A    between atoms: O_19  and  C_45
   13  A    between atoms: O_19  and  C_52
   14  A    between atoms: C_23  and  C_49
   15  A    between atoms: O_26  and  C_35
   16  A    between atoms: N_29  and  C_32
   17  A    between atoms: C_30  and  C_32
   18  A    between atoms: C_35  and  C_40
   19  A    between atoms: C_39  and  C_57
   20  A    between atoms: O_43  and  C_45
   21  A    between atoms: O_43  and  C_56
   22  A    between atoms: C_47  and  C_61
   23  A    between atoms: C_47  and  C_65
                            x       y       z     vdW  Elec       q    Type
                         _______ _______ _______ _____ _____    ______ ____

>  <TORSDO>
F 23

$$$$
=
 OpenBabel11072414573D

 65 69  0  0  1  0  0  0  0  0999 V2000
  161.1020  204.2050  147.9580 C   0  0  2  0  0  3  0  0  0  0  0  0
  161.1000  203.1430  145.6420 N   0  0  0  0  0  0  0  0  0  0  0  0
  162.6490  207.6090  146.2800 O   0  0  0  0  0  0  0  0  0  0  0  0
  160.1010  201.0550  145.2070 N   0  0  0  0  0  1  0  0  0  0  0  0
  162.0560  205.0510  148.8160 C   0  0  0  0  0  2  0  0  0  0  0  0
  162.3410  206.5030  146.8020 C   0  0  0  0  0  0  0  0  0  0  0  0
  161.0200  202.7590  148.4790 C   0  0  1  0  0  0  0  0  0  0  0  0
  162.0370  205.3390  145.9480 C   0  0  0  0  0  0  0  0  0  0  0  0
  162.2570  206.3750  148.2280 N   0  0  0  0  0  0  0  0  0  0  0  0
  161.4890  204.2350  146.4890 C   0  0  0  0  0  0  0  0  0  0  0  0
  160.5370  202.0700  146.1060 C   0  0  0  0  0  0  0  0  0  0  0  0
  160.3230  201.9170  147.5120 N   0  0  0  0  0  2  0  0  0  0  0  0
  162.3100  202.2520  148.6750 O   0  0  0  0  0  1  0  0  0  0  0  0
  162.3260  205.4100  144.4830 C   0  0  0  0  0  1  0  0  0  0  0  0
  162.2610  207.5690  149.0740 C   0  0  0  0  0  2  0  0  0  0  0  0
  162.1210  208.8540  148.2550 C   0  0  0  0  0  2  0  0  0  0  0  0
  161.2830  209.9210  148.9550 C   0  0  0  0  0  2  0  0  0  0  0  0
  162.8480  213.1630  146.6420 C   0  0  0  0  0  2  0  0  0  0  0  0
  161.3390  213.1250  146.8460 C   0  0  2  0  0  3  0  0  0  0  0  0
  163.1320  211.3190  148.2280 N   0  0  0  0  0  2  0  0  0  0  0  0
  163.5440  212.6860  147.9140 C   0  0  0  0  0  2  0  0  0  0  0  0
  160.9040  211.7380  147.3150 C   0  0  0  0  0  2  0  0  0  0  0  0
  161.7050  211.3220  148.5470 C   0  0  1  0  0  3  0  0  0  0  0  0
  160.6460  213.4590  145.5390 C   0  0  0  0  0  2  0  0  0  0  0  0
  160.3940  211.2490  142.6310 O   0  0  0  0  0  0  0  0  0  0  0  0
  160.5530  212.2650  144.7100 N   0  0  0  0  0  2  0  0  0  0  0  0
  160.4330  212.3220  143.2900 C   0  0  0  0  0  0  0  0  0  0  0  0
  160.3870  213.6370  142.5740 C   0  0  0  0  0  2  0  0  0  0  0  0
  159.8790  213.4610  141.1560 C   0  0  0  0  0  2  0  0  0  0  0  0
  160.8210  214.1530  140.1850 C   0  0  0  0  0  2  0  0  0  0  0  0
  160.7830  211.9550  139.2810 O   0  0  0  0  0  0  0  0  0  0  0  0
  161.0220  213.8260  137.7020 C   0  0  0  0  0  0  0  0  0  0  0  0
  160.3680  211.1110  137.0110 C   0  0  0  0  0  2  0  0  0  0  0  0
  157.4460  213.3760  137.6000 C   0  0  0  0  0  2  0  0  0  0  0  0
  158.9090  211.4820  137.2250 C   0  0  0  0  0  2  0  0  0  0  0  0
  159.6970  213.9190  137.2380 O   0  0  0  0  0  0  0  0  0  0  0  0
  158.6900  212.9570  137.4110 C   0  0  0  0  0  0  0  0  0  0  0  0
  162.4930  210.9050  138.0620 O   0  0  0  0  0  1  0  0  0  0  0  0
  161.3810  213.2330  139.0720 C   0  0  1  0  0  0  0  0  0  0  0  0
  161.9200  214.3880  137.0140 O   0  0  0  0  0  0  0  0  0  0  0  0
  161.1210  210.9380  138.3350 C   0  0  1  0  0  0  0  0  0  0  0  0
  162.7940  213.1030  139.2360 O   0  0  0  0  0  0  0  0  0  0  0  0
  163.3070  214.0470  140.1480 C   0  0  0  0  0  1  0  0  0  0  0  0
  160.7600  209.5830  138.9400 C   0  0  0  0  0  2  0  0  0  0  0  0
  160.9170  208.5530  138.0110 O   0  0  0  0  0  1  0  0  0  0  0  0
  160.2530  202.7480  149.8000 C   0  0  0  0  0  2  0  0  0  0  0  0
  160.9510  201.9620  150.8110 N   0  0  0  0  0  0  0  0  0  0  0  0
  159.0600  200.6280  150.0400 C   0  0  0  0  0  1  0  0  0  0  0  0
  160.2780  200.6730  150.9400 C   0  0  0  0  0  2  0  0  0  0  0  0
  160.9440  202.6990  152.0860 C   0  0  0  0  0  2  0  0  0  0  0  0
  160.6900  204.2040  151.9570 C   0  0  0  0  0  2  0  0  0  0  0  0
  161.5370  204.9380  152.8320 O   0  0  0  0  0  0  0  0  0  0  0  0
  161.3540  206.2980  153.0840 C   0  0  0  0  0  0  0  0  0  0  0  0
  160.6240  209.3520  151.2080 F   0  0  0  0  0  0  0  0  0  0  0  0
  161.2440  209.1230  153.4470 C   0  0  0  0  0  0  0  0  0  0  0  0
  161.1850  207.1250  152.0460 C   0  0  0  0  0  3  0  0  0  0  0  0
  161.0880  210.4570  153.6280 F   0  0  0  0  0  0  0  0  0  0  0  0
  161.2920  206.8330  154.5000 C   0  0  1  0  0  3  0  0  0  0  0  0
  161.0200  208.5750  152.2480 C   0  0  0  0  0  0  0  0  0  0  0  0
  161.7910  208.2860  154.5730 C   0  0  0  0  0  2  0  0  0  0  0  0
  159.9760  206.7620  154.9740 O   0  0  0  0  0  0  0  0  0  0  0  0
  159.9350  207.6420  156.0570 C   0  0  0  0  0  2  0  0  0  0  0  0
  158.7920  208.4400  155.9660 O   0  0  0  0  0  0  0  0  0  0  0  0
  158.1490  210.6750  156.4570 C   0  0  0  0  0  1  0  0  0  0  0  0
  159.2730  209.7470  156.0380 C   0  0  0  0  0  2  0  0  0  0  0  0
  1  7  1  0  0  0  0
  1  5  1  1  0  0  0
  2 11  2  0  0  0  0
  2 10  1  0  0  0  0
  3  6  2  0  0  0  0
  4 11  1  0  0  0  0
  6  9  1  0  0  0  0
  7 13  1  1  0  0  0
  7 46  1  0  0  0  0
  8 10  2  0  0  0  0
  8  6  1  0  0  0  0
  9  5  1  0  0  0  0
  9 15  1  0  0  0  0
 10  1  1  0  0  0  0
 11 12  1  0  0  0  0
 12  7  1  0  0  0  0
 14  8  1  0  0  0  0
 16 17  1  0  0  0  0
 16 15  1  0  0  0  0
 18 19  1  0  0  0  0
 18 21  1  0  0  0  0
 19 24  1  6  0  0  0
 19 22  1  0  0  0  0
 20 23  1  0  0  0  0
 21 20  1  0  0  0  0
 22 23  1  0  0  0  0
 23 17  1  6  0  0  0
 25 27  2  0  0  0  0
 26 24  1  0  0  0  0
 27 26  1  0  0  0  0
 28 27  1  0  0  0  0
 29 28  1  0  0  0  0
 30 29  1  0  0  0  0
 32 39  1  0  0  0  0
 33 35  1  0  0  0  0
 33 41  1  0  0  0  0
 35 37  1  0  0  0  0
 36 37  1  0  0  0  0
 36 32  1  0  0  0  0
 37 34  2  0  0  0  0
 39 42  1  0  0  0  0
 39 31  1  0  0  0  0
 39 30  1  1  0  0  0
 40 32  2  0  0  0  0
 41 38  1  6  0  0  0
 41 44  1  0  0  0  0
 41 31  1  0  0  0  0
 42 43  1  0  0  0  0
 45 44  1  0  0  0  0
 46 47  1  0  0  0  0
 47 49  1  0  0  0  0
 47 50  1  0  0  0  0
 48 49  1  0  0  0  0
 51 50  1  0  0  0  0
 51 52  1  0  0  0  0
 52 53  1  0  0  0  0
 53 58  1  0  0  0  0
 54 59  1  0  0  0  0
 55 57  1  0  0  0  0
 55 60  1  0  0  0  0
 56 59  1  0  0  0  0
 56 53  2  0  0  0  0
 58 60  1  0  0  0  0
 58 61  1  6  0  0  0
 59 55  2  0  0  0  0
 61 62  1  0  0  0  0
 63 65  1  0  0  0  0
 63 62  1  0  0  0  0
 65 64  1  0  0  0  0
M  END
>  <MODEL>
3

>  <REMARK>
 VINA RESULT:      -2.7      1.639      2.109
  Name = 
  23 active torsions:
  status: ('A' for Active; 'I' for Inactive)
    1  A    between atoms: C_3  and  C_5
    2  A    between atoms: C_3  and  C_23
    3  A    between atoms: C_5  and  C_58
    4  A    between atoms: N_7  and  C_13
    5  A    between atoms: N_7  and  C_40
    6  A    between atoms: N_7  and  C_63
    7  A    between atoms: C_11  and  O_26
    8  A    between atoms: O_12  and  C_49
    9  A    between atoms: C_13  and  C_31
   10  A    between atoms: C_15  and  N_44
   11  A    between atoms: C_15  and  C_61
   12  A    between atoms: O_19  and  C_45
   13  A    between atoms: O_19  and  C_52
   14  A    between atoms: C_23  and  C_49
   15  A    between atoms: O_26  and  C_35
   16  A    between atoms: N_29  and  C_32
   17  A    between atoms: C_30  and  C_32
   18  A    between atoms: C_35  and  C_40
   19  A    between atoms: C_39  and  C_57
   20  A    between atoms: O_43  and  C_45
   21  A    between atoms: O_43  and  C_56
   22  A    between atoms: C_47  and  C_61
   23  A    between atoms: C_47  and  C_65
                            x       y       z     vdW  Elec       q    Type
                         _______ _______ _______ _____ _____    ______ ____

>  <TORSDO>
F 23

$$$$
=
 OpenBabel11072414573D

 65 69  0  0  1  0  0  0  0  0999 V2000
  158.7530  213.4790  147.4670 C   0  0  2  0  0  3  0  0  0  0  0  0
  157.5720  214.1200  145.3020 N   0  0  0  0  0  0  0  0  0  0  0  0
  162.3350  214.0290  145.5510 O   0  0  0  0  0  0  0  0  0  0  0  0
  155.2440  214.4520  145.1810 N   0  0  0  0  0  1  0  0  0  0  0  0
  159.9330  212.5910  147.8930 C   0  0  0  0  0  2  0  0  0  0  0  0
  161.2340  213.6970  146.0690 C   0  0  0  0  0  0  0  0  0  0  0  0
  157.4080  212.8430  147.8610 C   0  0  1  0  0  0  0  0  0  0  0  0
  159.9710  213.9310  145.3420 C   0  0  0  0  0  0  0  0  0  0  0  0
  161.1980  213.1130  147.3780 N   0  0  0  0  0  0  0  0  0  0  0  0
  158.7950  213.7930  145.9810 C   0  0  0  0  0  0  0  0  0  0  0  0
  156.4130  214.0380  145.8800 C   0  0  0  0  0  0  0  0  0  0  0  0
  156.3090  213.5640  147.2260 N   0  0  0  0  0  2  0  0  0  0  0  0
  157.3750  211.5070  147.4450 O   0  0  0  0  0  1  0  0  0  0  0  0
  160.0180  214.3400  143.9050 C   0  0  0  0  0  1  0  0  0  0  0  0
  162.3880  213.1440  148.2290 C   0  0  0  0  0  2  0  0  0  0  0  0
  163.0320  211.7620  148.3660 C   0  0  0  0  0  2  0  0  0  0  0  0
  162.0250  210.6630  148.6960 C   0  0  0  0  0  2  0  0  0  0  0  0
  161.6660  209.0110  152.6260 C   0  0  0  0  0  2  0  0  0  0  0  0
  161.7520  208.0250  151.4670 C   0  0  2  0  0  3  0  0  0  0  0  0
  162.1630  210.8700  151.1120 N   0  0  0  0  0  2  0  0  0  0  0  0
  162.5760  210.2040  152.3460 C   0  0  0  0  0  2  0  0  0  0  0  0
  161.4630  208.7360  150.1460 C   0  0  0  0  0  2  0  0  0  0  0  0
  162.3740  209.9530  149.9920 C   0  0  1  0  0  3  0  0  0  0  0  0
  160.7420  206.9130  151.6760 C   0  0  0  0  0  2  0  0  0  0  0  0
  162.0490  203.5290  152.1720 O   0  0  0  0  0  0  0  0  0  0  0  0
  161.4000  205.7540  152.2640 N   0  0  0  0  0  2  0  0  0  0  0  0
  161.4320  204.4800  151.6230 C   0  0  0  0  0  0  0  0  0  0  0  0
  160.7710  204.2710  150.2950 C   0  0  0  0  0  2  0  0  0  0  0  0
  161.4610  203.1660  149.5180 C   0  0  0  0  0  2  0  0  0  0  0  0
  160.5050  202.5940  148.4840 C   0  0  0  0  0  2  0  0  0  0  0  0
  159.8770  203.1240  146.2540 O   0  0  0  0  0  0  0  0  0  0  0  0
  162.1570  203.7180  146.9620 C   0  0  0  0  0  0  0  0  0  0  0  0
  160.8250  204.6690  144.5950 C   0  0  0  0  0  2  0  0  0  0  0  0
  160.4640  206.8300  147.6300 C   0  0  0  0  0  2  0  0  0  0  0  0
  160.2700  205.7990  145.4470 C   0  0  0  0  0  2  0  0  0  0  0  0
  161.9790  205.0900  147.2180 O   0  0  0  0  0  0  0  0  0  0  0  0
  160.8840  205.8710  146.8160 C   0  0  0  0  0  0  0  0  0  0  0  0
  160.8610  202.3100  144.2840 O   0  0  0  0  0  1  0  0  0  0  0  0
  161.0030  202.7060  147.0220 C   0  0  1  0  0  0  0  0  0  0  0  0
  163.3410  203.3020  146.8200 O   0  0  0  0  0  0  0  0  0  0  0  0
  160.1090  203.3390  144.8600 C   0  0  1  0  0  0  0  0  0  0  0  0
  161.4090  201.4160  146.5640 O   0  0  0  0  0  0  0  0  0  0  0  0
  161.0240  200.3950  147.4560 C   0  0  0  0  0  1  0  0  0  0  0  0
  158.7590  203.3500  144.1460 C   0  0  0  0  0  2  0  0  0  0  0  0
  157.9880  204.4480  144.5320 O   0  0  0  0  0  1  0  0  0  0  0  0
  157.2480  212.9190  149.3780 C   0  0  0  0  0  2  0  0  0  0  0  0
  157.9050  214.1020  149.9220 N   0  0  0  0  0  0  0  0  0  0  0  0
  159.8280  214.3360  151.4040 C   0  0  0  0  0  1  0  0  0  0  0  0
  159.3280  213.8110  150.0730 C   0  0  0  0  0  2  0  0  0  0  0  0
  157.2890  214.4470  151.2140 C   0  0  0  0  0  2  0  0  0  0  0  0
  156.9460  213.2460  152.1020 C   0  0  0  0  0  2  0  0  0  0  0  0
  157.0660  213.5830  153.4790 O   0  0  0  0  0  0  0  0  0  0  0  0
  158.0710  213.0600  154.2920 C   0  0  0  0  0  0  0  0  0  0  0  0
  160.4520  214.2480  156.8010 F   0  0  0  0  0  0  0  0  0  0  0  0
  160.3230  212.1510  155.7840 C   0  0  0  0  0  0  0  0  0  0  0  0
  158.7960  213.9020  155.0380 C   0  0  0  0  0  3  0  0  0  0  0  0
  161.3290  211.7040  156.5750 F   0  0  0  0  0  0  0  0  0  0  0  0
  158.3110  211.5660  154.3820 C   0  0  1  0  0  3  0  0  0  0  0  0
  159.8910  213.4120  155.8920 C   0  0  0  0  0  0  0  0  0  0  0  0
  159.7830  211.2530  154.7030 C   0  0  0  0  0  2  0  0  0  0  0  0
  157.4860  211.0140  155.3690 O   0  0  0  0  0  0  0  0  0  0  0  0
  156.1920  211.4010  155.0150 C   0  0  0  0  0  2  0  0  0  0  0  0
  155.2730  210.8000  155.8770 O   0  0  0  0  0  0  0  0  0  0  0  0
  155.6920  213.0120  156.6390 C   0  0  0  0  0  1  0  0  0  0  0  0
  155.2920  211.6000  157.0190 C   0  0  0  0  0  2  0  0  0  0  0  0
  1  7  1  0  0  0  0
  1  5  1  6  0  0  0
  2 11  2  0  0  0  0
  2 10  1  0  0  0  0
  3  6  2  0  0  0  0
  4 11  1  0  0  0  0
  6  9  1  0  0  0  0
  7 13  1  6  0  0  0
  7 46  1  0  0  0  0
  8 10  2  0  0  0  0
  8  6  1  0  0  0  0
  9  5  1  0  0  0  0
  9 15  1  0  0  0  0
 10  1  1  0  0  0  0
 11 12  1  0  0  0  0
 12  7  1  0  0  0  0
 14  8  1  0  0  0  0
 15 16  1  0  0  0  0
 16 17  1  0  0  0  0
 19 24  1  1  0  0  0
 19 18  1  0  0  0  0
 20 21  1  0  0  0  0
 21 18  1  0  0  0  0
 22 19  1  0  0  0  0
 23 17  1  6  0  0  0
 23 22  1  0  0  0  0
 23 20  1  0  0  0  0
 24 26  1  0  0  0  0
 27 25  2  0  0  0  0
 27 26  1  0  0  0  0
 28 27  1  0  0  0  0
 29 28  1  0  0  0  0
 30 29  1  0  0  0  0
 31 39  1  0  0  0  0
 32 39  1  0  0  0  0
 32 36  1  0  0  0  0
 33 41  1  0  0  0  0
 33 35  1  0  0  0  0
 35 37  1  0  0  0  0
 37 36  1  0  0  0  0
 37 34  2  0  0  0  0
 39 30  1  1  0  0  0
 40 32  2  0  0  0  0
 41 38  1  6  0  0  0
 41 31  1  0  0  0  0
 42 39  1  0  0  0  0
 42 43  1  0  0  0  0
 44 45  1  0  0  0  0
 44 41  1  0  0  0  0
 46 47  1  0  0  0  0
 47 49  1  0  0  0  0
 47 50  1  0  0  0  0
 49 48  1  0  0  0  0
 50 51  1  0  0  0  0
 51 52  1  0  0  0  0
 52 53  1  0  0  0  0
 53 58  1  0  0  0  0
 53 56  2  0  0  0  0
 55 59  2  0  0  0  0
 55 57  1  0  0  0  0
 56 59  1  0  0  0  0
 58 60  1  0  0  0  0
 58 61  1  1  0  0  0
 59 54  1  0  0  0  0
 60 55  1  0  0  0  0
 62 61  1  0  0  0  0
 62 63  1  0  0  0  0
 63 65  1  0  0  0  0
 64 65  1  0  0  0  0
M  END
>  <MODEL>
4

>  <REMARK>
 VINA RESULT:      -1.4      4.034      9.283
  Name = 
  23 active torsions:
  status: ('A' for Active; 'I' for Inactive)
    1  A    between atoms: C_3  and  C_5
    2  A    between atoms: C_3  and  C_23
    3  A    between atoms: C_5  and  C_58
    4  A    between atoms: N_7  and  C_13
    5  A    between atoms: N_7  and  C_40
    6  A    between atoms: N_7  and  C_63
    7  A    between atoms: C_11  and  O_26
    8  A    between atoms: O_12  and  C_49
    9  A    between atoms: C_13  and  C_31
   10  A    between atoms: C_15  and  N_44
   11  A    between atoms: C_15  and  C_61
   12  A    between atoms: O_19  and  C_45
   13  A    between atoms: O_19  and  C_52
   14  A    between atoms: C_23  and  C_49
   15  A    between atoms: O_26  and  C_35
   16  A    between atoms: N_29  and  C_32
   17  A    between atoms: C_30  and  C_32
   18  A    between atoms: C_35  and  C_40
   19  A    between atoms: C_39  and  C_57
   20  A    between atoms: O_43  and  C_45
   21  A    between atoms: O_43  and  C_56
   22  A    between atoms: C_47  and  C_61
   23  A    between atoms: C_47  and  C_65
                            x       y       z     vdW  Elec       q    Type
                         _______ _______ _______ _____ _____    ______ ____

>  <TORSDO>
F 23

$$$$
