=
 OpenBabel11072415093D

 39 43  0  0  1  0  0  0  0  0999 V2000
  161.1810  201.6810  149.0430 C   0  0  0  0  0  0  0  0  0  0  0  0
  161.0330  209.2410  152.4020 C   0  0  0  0  0  0  0  0  0  0  0  0
  160.9350  202.9620  149.4410 C   0  0  0  0  0  0  0  0  0  0  0  0
  160.6860  208.4000  153.4540 C   0  0  0  0  0  3  0  0  0  0  0  0
  161.0270  207.2610  146.8190 C   0  0  0  0  0  2  0  0  0  0  0  0
  161.1050  204.0510  148.5960 C   0  0  0  0  0  3  0  0  0  0  0  0
  162.2420  212.0620  149.0460 Cl  0  0  0  0  0  0  0  0  0  0  0  0
  161.5320  203.7940  147.2760 C   0  0  0  0  0  0  0  0  0  0  0  0
  162.2140  205.0910  152.3970 C   0  0  0  0  0  2  0  0  0  0  0  0
  162.9770  206.8440  150.1570 C   0  0  0  0  0  0  0  0  0  0  0  0
  160.5210  202.8590  150.7430 C   0  0  0  0  0  0  0  0  0  0  0  0
  164.0790  206.2950  150.4190 O   0  0  0  0  0  0  0  0  0  0  0  0
  161.0680  204.1590  152.7820 C   0  0  0  0  0  2  0  0  0  0  0  0
  162.5770  206.9550  148.7840 N   0  0  0  0  0  2  0  0  0  0  0  0
  160.5310  201.5510  151.0950 N   0  0  0  0  0  0  0  0  0  0  0  0
  160.2770  207.3290  149.0760 O   0  0  0  0  0  0  0  0  0  0  0  0
  158.8190  203.7180  152.1380 O   0  0  0  0  0  1  0  0  0  0  0  0
  160.0910  203.9820  151.6320 C   0  0  2  0  0  3  0  0  0  0  0  0
  161.9310  199.7440  147.2340 Cl  0  0  0  0  0  0  0  0  0  0  0  0
  161.0700  207.0610  153.4330 C   0  0  0  0  0  3  0  0  0  0  0  0
  161.7910  206.5350  152.3530 C   0  0  0  0  0  0  0  0  0  0  0  0
  160.9360  200.8270  150.0540 N   0  0  0  0  0  2  0  0  0  0  0  0
  162.1570  209.6330  150.2860 C   0  0  0  0  0  3  0  0  0  0  0  0
  161.7840  204.9210  146.3260 C   0  0  0  0  0  2  0  0  0  0  0  0
  162.1570  207.3770  151.2730 C   0  0  0  0  0  0  0  0  0  0  0  0
  161.7760  210.9760  150.3360 C   0  0  0  0  0  0  0  0  0  0  0  0
  161.7930  202.4680  146.8620 C   0  0  0  0  0  3  0  0  0  0  0  0
  161.2570  207.2180  148.2910 C   0  0  0  0  0  0  0  0  0  0  0  0
  161.6130  201.3890  147.7510 C   0  0  0  0  0  0  0  0  0  0  0  0
  161.0240  211.4520  151.4110 C   0  0  0  0  0  3  0  0  0  0  0  0
  160.6080  205.8910  146.2930 C   0  0  2  0  0  3  0  0  0  0  0  0
  160.6550  210.5870  152.4440 C   0  0  0  0  0  3  0  0  0  0  0  0
  161.7830  208.7430  151.3080 C   0  0  0  0  0  0  0  0  0  0  0  0
  160.1010  206.0100  144.8650 C   0  0  0  0  0  2  0  0  0  0  0  0
  161.1030  205.4320  143.8740 C   0  0  0  0  0  2  0  0  0  0  0  0
  161.5880  206.4930  142.8920 C   0  0  0  0  0  2  0  0  0  0  0  0
  161.9410  205.8820  141.5420 C   0  0  0  0  0  2  0  0  0  0  0  0
  162.3830  206.3650  139.2460 O   0  0  0  0  0  1  0  0  0  0  0  0
  162.0720  206.9530  140.4710 C   0  0  0  0  0  2  0  0  0  0  0  0
  1  3  2  0  0  0  0
  1 22  1  0  0  0  0
  2 32  1  0  0  0  0
  2  4  2  0  0  0  0
  3 11  1  0  0  0  0
  5 28  1  0  0  0  0
  6  3  1  0  0  0  0
  7 26  1  0  0  0  0
  8  6  2  0  0  0  0
  9 13  1  0  0  0  0
 10 12  2  0  0  0  0
 10 25  1  0  0  0  0
 11 15  2  0  0  0  0
 11 18  1  0  0  0  0
 14 10  1  0  0  0  0
 18 17  1  1  0  0  0
 18 13  1  0  0  0  0
 19 29  1  0  0  0  0
 20  4  1  0  0  0  0
 21  9  1  0  0  0  0
 21 20  2  0  0  0  0
 22 15  1  0  0  0  0
 23 26  2  0  0  0  0
 23 33  1  0  0  0  0
 24  8  1  0  0  0  0
 25 33  2  0  0  0  0
 25 21  1  0  0  0  0
 26 30  1  0  0  0  0
 27  8  1  0  0  0  0
 27 29  2  0  0  0  0
 28 14  1  0  0  0  0
 28 16  2  0  0  0  0
 29  1  1  0  0  0  0
 30 32  2  0  0  0  0
 31 34  1  6  0  0  0
 31 24  1  0  0  0  0
 31  5  1  0  0  0  0
 33  2  1  0  0  0  0
 35 34  1  0  0  0  0
 36 35  1  0  0  0  0
 37 36  1  0  0  0  0
 38 39  1  0  0  0  0
 39 37  1  0  0  0  0
M  END
>  <MODEL>
1

>  <REMARK>
 VINA RESULT:      -1.9      0.000      0.000
  Name = 
  5 active torsions:
  status: ('A' for Active; 'I' for Inactive)
    1  A    between atoms: C_5  and  C_11
    2  A    between atoms: C_5  and  C_36
    3  A    between atoms: C_11  and  C_19
    4  A    between atoms: C_19  and  C_38
    5  A    between atoms: C_31  and  C_38
                            x       y       z     vdW  Elec       q    Type
                         _______ _______ _______ _____ _____    ______ ____

>  <TORSDO>
F 5

$$$$
=
 OpenBabel11072415093D

 39 43  0  0  1  0  0  0  0  0999 V2000
  161.2380  201.8260  149.3690 C   0  0  0  0  0  0  0  0  0  0  0  0
  160.9000  209.4130  152.6510 C   0  0  0  0  0  0  0  0  0  0  0  0
  160.9630  203.1050  149.7510 C   0  0  0  0  0  0  0  0  0  0  0  0
  160.5520  208.5750  153.7060 C   0  0  0  0  0  3  0  0  0  0  0  0
  161.0160  207.3800  147.0880 C   0  0  0  0  0  2  0  0  0  0  0  0
  161.1260  204.1890  148.8980 C   0  0  0  0  0  3  0  0  0  0  0  0
  162.1080  212.2240  149.2860 Cl  0  0  0  0  0  0  0  0  0  0  0  0
  161.5780  203.9280  147.5870 C   0  0  0  0  0  0  0  0  0  0  0  0
  162.1570  205.2860  152.7050 C   0  0  0  0  0  2  0  0  0  0  0  0
  162.9220  207.0320  150.4590 C   0  0  0  0  0  0  0  0  0  0  0  0
  160.5320  203.0070  151.0470 C   0  0  0  0  0  0  0  0  0  0  0  0
  164.0300  206.5050  150.7440 O   0  0  0  0  0  0  0  0  0  0  0  0
  161.0230  204.3360  153.0810 C   0  0  0  0  0  2  0  0  0  0  0  0
  162.5410  207.1220  149.0790 N   0  0  0  0  0  2  0  0  0  0  0  0
  160.5600  201.7020  151.4120 N   0  0  0  0  0  0  0  0  0  0  0  0
  160.2310  207.4560  149.3330 O   0  0  0  0  0  0  0  0  0  0  0  0
  158.7930  203.8470  152.4080 O   0  0  0  0  0  1  0  0  0  0  0  0
  160.0680  204.1300  151.9180 C   0  0  2  0  0  3  0  0  0  0  0  0
  162.0520  199.8860  147.5900 Cl  0  0  0  0  0  0  0  0  0  0  0  0
  160.9610  207.2440  153.7040 C   0  0  0  0  0  3  0  0  0  0  0  0
  161.7080  206.7210  152.6400 C   0  0  0  0  0  0  0  0  0  0  0  0
  160.9940  200.9770  150.3840 N   0  0  0  0  0  2  0  0  0  0  0  0
  162.0480  209.8060  150.5490 C   0  0  0  0  0  3  0  0  0  0  0  0
  161.8230  205.0500  146.6300 C   0  0  0  0  0  2  0  0  0  0  0  0
  162.0750  207.5590  151.5580 C   0  0  0  0  0  0  0  0  0  0  0  0
  161.6420  211.1420  150.5800 C   0  0  0  0  0  0  0  0  0  0  0  0
  161.8700  202.6030  147.1900 C   0  0  0  0  0  3  0  0  0  0  0  0
  161.2240  207.3560  148.5650 C   0  0  0  0  0  0  0  0  0  0  0  0
  161.6960  201.5300  148.0860 C   0  0  0  0  0  0  0  0  0  0  0  0
  160.8650  211.6140  151.6390 C   0  0  0  0  0  3  0  0  0  0  0  0
  160.6310  205.9980  146.5690 C   0  0  2  0  0  3  0  0  0  0  0  0
  160.4970  210.7510  152.6750 C   0  0  0  0  0  3  0  0  0  0  0  0
  161.6750  208.9190  151.5730 C   0  0  0  0  0  0  0  0  0  0  0  0
  160.1430  206.0940  145.1330 C   0  0  0  0  0  2  0  0  0  0  0  0
  160.6660  204.9350  144.2940 C   0  0  0  0  0  2  0  0  0  0  0  0
  159.6960  203.7590  144.3050 C   0  0  0  0  0  2  0  0  0  0  0  0
  160.3670  202.4870  144.8070 C   0  0  0  0  0  2  0  0  0  0  0  0
  160.1140  200.1130  144.8060 O   0  0  0  0  0  1  0  0  0  0  0  0
  159.4030  201.3120  144.7890 C   0  0  0  0  0  2  0  0  0  0  0  0
  1  3  2  0  0  0  0
  1 22  1  0  0  0  0
  2 32  1  0  0  0  0
  2  4  2  0  0  0  0
  3 11  1  0  0  0  0
  5 28  1  0  0  0  0
  6  3  1  0  0  0  0
  7 26  1  0  0  0  0
  8  6  2  0  0  0  0
  9 13  1  0  0  0  0
 10 12  2  0  0  0  0
 10 25  1  0  0  0  0
 11 15  2  0  0  0  0
 11 18  1  0  0  0  0
 14 10  1  0  0  0  0
 18 17  1  1  0  0  0
 18 13  1  0  0  0  0
 19 29  1  0  0  0  0
 20  4  1  0  0  0  0
 21  9  1  0  0  0  0
 21 20  2  0  0  0  0
 22 15  1  0  0  0  0
 23 26  2  0  0  0  0
 23 33  1  0  0  0  0
 24  8  1  0  0  0  0
 25 33  2  0  0  0  0
 25 21  1  0  0  0  0
 26 30  1  0  0  0  0
 27  8  1  0  0  0  0
 27 29  2  0  0  0  0
 28 14  1  0  0  0  0
 28 16  2  0  0  0  0
 29  1  1  0  0  0  0
 30 32  2  0  0  0  0
 31 34  1  6  0  0  0
 31 24  1  0  0  0  0
 31  5  1  0  0  0  0
 33  2  1  0  0  0  0
 35 36  1  0  0  0  0
 35 34  1  0  0  0  0
 36 37  1  0  0  0  0
 39 38  1  0  0  0  0
 39 37  1  0  0  0  0
M  END
>  <MODEL>
2

>  <REMARK>
 VINA RESULT:      -1.8      1.722      2.118
  Name = 
  5 active torsions:
  status: ('A' for Active; 'I' for Inactive)
    1  A    between atoms: C_5  and  C_11
    2  A    between atoms: C_5  and  C_36
    3  A    between atoms: C_11  and  C_19
    4  A    between atoms: C_19  and  C_38
    5  A    between atoms: C_31  and  C_38
                            x       y       z     vdW  Elec       q    Type
                         _______ _______ _______ _____ _____    ______ ____

>  <TORSDO>
F 5

$$$$
=
 OpenBabel11072415093D

 39 43  0  0  1  0  0  0  0  0999 V2000
  161.1920  208.7740  153.7250 C   0  0  0  0  0  0  0  0  0  0  0  0
  161.9160  203.5770  147.3270 C   0  0  0  0  0  0  0  0  0  0  0  0
  161.5510  208.0420  152.6310 C   0  0  0  0  0  0  0  0  0  0  0  0
  162.0410  202.7550  148.4430 C   0  0  0  0  0  3  0  0  0  0  0  0
  162.2750  209.4660  147.8550 C   0  0  0  0  0  2  0  0  0  0  0  0
  161.6080  208.5870  151.3560 C   0  0  0  0  0  3  0  0  0  0  0  0
  161.4330  206.1700  143.6230 Cl  0  0  0  0  0  0  0  0  0  0  0  0
  161.2960  209.9560  151.2140 C   0  0  0  0  0  0  0  0  0  0  0  0
  160.2360  204.7370  151.1290 C   0  0  0  0  0  2  0  0  0  0  0  0
  159.9410  206.4990  148.7860 C   0  0  0  0  0  0  0  0  0  0  0  0
  161.8060  206.7840  153.1110 C   0  0  0  0  0  0  0  0  0  0  0  0
  158.7580  206.4670  149.2150 O   0  0  0  0  0  0  0  0  0  0  0  0
  161.2090  204.5240  152.2850 C   0  0  0  0  0  2  0  0  0  0  0  0
  160.4970  207.7640  148.4020 N   0  0  0  0  0  2  0  0  0  0  0  0
  161.5960  206.7830  154.4490 N   0  0  0  0  0  0  0  0  0  0  0  0
  162.7810  207.2200  148.4540 O   0  0  0  0  0  0  0  0  0  0  0  0
  163.4420  205.0960  152.8810 O   0  0  0  0  0  1  0  0  0  0  0  0
  162.2740  205.6080  152.3160 C   0  0  2  0  0  3  0  0  0  0  0  0
  160.4050  211.0710  155.0260 Cl  0  0  0  0  0  0  0  0  0  0  0  0
  161.4980  203.1480  149.6630 C   0  0  0  0  0  3  0  0  0  0  0  0
  160.8380  204.3770  149.7960 C   0  0  0  0  0  0  0  0  0  0  0  0
  161.2180  208.0030  154.8270 N   0  0  0  0  0  2  0  0  0  0  0  0
  161.0830  205.5950  146.2660 C   0  0  0  0  0  3  0  0  0  0  0  0
  161.2900  210.5990  149.8640 C   0  0  0  0  0  2  0  0  0  0  0  0
  160.6970  205.2260  148.6710 C   0  0  0  0  0  0  0  0  0  0  0  0
  161.6200  205.1740  145.0480 C   0  0  0  0  0  0  0  0  0  0  0  0
  160.9190  210.7170  152.3450 C   0  0  0  0  0  3  0  0  0  0  0  0
  161.8850  208.0750  148.2230 C   0  0  0  0  0  0  0  0  0  0  0  0
  160.8670  210.1260  153.6230 C   0  0  0  0  0  0  0  0  0  0  0  0
  162.3060  203.9610  144.9670 C   0  0  0  0  0  3  0  0  0  0  0  0
  162.5740  210.2960  149.1000 C   0  0  2  0  0  3  0  0  0  0  0  0
  162.4510  203.1620  146.1040 C   0  0  0  0  0  3  0  0  0  0  0  0
  161.2320  204.8140  147.4250 C   0  0  0  0  0  0  0  0  0  0  0  0
  163.2430  211.6040  148.7100 C   0  0  0  0  0  2  0  0  0  0  0  0
  162.2160  212.6330  148.2520 C   0  0  0  0  0  2  0  0  0  0  0  0
  162.5770  213.2080  146.8870 C   0  0  0  0  0  2  0  0  0  0  0  0
  161.4220  213.0780  145.9030 C   0  0  0  0  0  2  0  0  0  0  0  0
  159.2330  212.1640  145.6260 O   0  0  0  0  0  1  0  0  0  0  0  0
  160.1810  212.5220  146.5840 C   0  0  0  0  0  2  0  0  0  0  0  0
  1 22  1  0  0  0  0
  2 33  1  0  0  0  0
  2  4  2  0  0  0  0
  3 11  1  0  0  0  0
  3  1  2  0  0  0  0
  4 20  1  0  0  0  0
  5 28  1  0  0  0  0
  5 31  1  0  0  0  0
  6  3  1  0  0  0  0
  7 26  1  0  0  0  0
  8  6  2  0  0  0  0
  8 27  1  0  0  0  0
  9 13  1  0  0  0  0
 10 12  2  0  0  0  0
 11 15  2  0  0  0  0
 13 18  1  0  0  0  0
 14 10  1  0  0  0  0
 15 22  1  0  0  0  0
 18 17  1  1  0  0  0
 18 11  1  0  0  0  0
 20 21  2  0  0  0  0
 21  9  1  0  0  0  0
 23 33  1  0  0  0  0
 24  8  1  0  0  0  0
 25 10  1  0  0  0  0
 25 21  1  0  0  0  0
 26 23  2  0  0  0  0
 27 29  2  0  0  0  0
 28 14  1  0  0  0  0
 28 16  2  0  0  0  0
 29  1  1  0  0  0  0
 29 19  1  0  0  0  0
 30 26  1  0  0  0  0
 30 32  2  0  0  0  0
 31 34  1  6  0  0  0
 31 24  1  0  0  0  0
 32  2  1  0  0  0  0
 33 25  2  0  0  0  0
 35 34  1  0  0  0  0
 36 35  1  0  0  0  0
 37 39  1  0  0  0  0
 37 36  1  0  0  0  0
 38 39  1  0  0  0  0
M  END
>  <MODEL>
3

>  <REMARK>
 VINA RESULT:      -0.6      3.130      6.949
  Name = 
  5 active torsions:
  status: ('A' for Active; 'I' for Inactive)
    1  A    between atoms: C_5  and  C_11
    2  A    between atoms: C_5  and  C_36
    3  A    between atoms: C_11  and  C_19
    4  A    between atoms: C_19  and  C_38
    5  A    between atoms: C_31  and  C_38
                            x       y       z     vdW  Elec       q    Type
                         _______ _______ _______ _____ _____    ______ ____

>  <TORSDO>
F 5

$$$$
=
 OpenBabel11072415093D

 39 43  0  0  1  0  0  0  0  0999 V2000
  160.8140  211.2600  153.9430 C   0  0  0  0  0  0  0  0  0  0  0  0
  158.4190  213.6430  146.3900 C   0  0  0  0  0  0  0  0  0  0  0  0
  160.3560  211.3900  152.6650 C   0  0  0  0  0  0  0  0  0  0  0  0
  157.4700  214.2080  147.2370 C   0  0  0  0  0  3  0  0  0  0  0  0
  162.1230  209.4610  148.3610 C   0  0  0  0  0  2  0  0  0  0  0  0
  161.0330  210.8630  151.5730 C   0  0  0  0  0  3  0  0  0  0  0  0
  161.5220  211.9100  143.5520 Cl  0  0  0  0  0  0  0  0  0  0  0  0
  162.2280  210.1560  151.8230 C   0  0  0  0  0  0  0  0  0  0  0  0
  159.3430  214.4420  150.5290 C   0  0  0  0  0  2  0  0  0  0  0  0
  161.3820  213.2570  148.7640 C   0  0  0  0  0  0  0  0  0  0  0  0
  159.1860  212.0940  152.7750 C   0  0  0  0  0  0  0  0  0  0  0  0
  162.0400  214.1850  149.3040 O   0  0  0  0  0  0  0  0  0  0  0  0
  158.2370  213.9780  151.4720 C   0  0  0  0  0  2  0  0  0  0  0  0
  161.9890  211.9620  148.6550 N   0  0  0  0  0  2  0  0  0  0  0  0
  158.9710  212.3710  154.0830 N   0  0  0  0  0  0  0  0  0  0  0  0
  160.0680  210.6580  148.3040 O   0  0  0  0  0  0  0  0  0  0  0  0
  156.9790  212.0100  151.9340 O   0  0  0  0  0  1  0  0  0  0  0  0
  158.2670  212.4710  151.6570 C   0  0  2  0  0  3  0  0  0  0  0  0
  162.5900  210.4080  155.8700 Cl  0  0  0  0  0  0  0  0  0  0  0  0
  157.7830  214.4530  148.5710 C   0  0  0  0  0  3  0  0  0  0  0  0
  159.0430  214.1220  149.0890 C   0  0  0  0  0  0  0  0  0  0  0  0
  159.9700  211.8610  154.8010 N   0  0  0  0  0  2  0  0  0  0  0  0
  160.6580  212.7970  145.9830 C   0  0  0  0  0  3  0  0  0  0  0  0
  163.0360  209.6040  150.6930 C   0  0  0  0  0  2  0  0  0  0  0  0
  160.0240  213.5490  148.2420 C   0  0  0  0  0  0  0  0  0  0  0  0
  160.3280  212.5760  144.6450 C   0  0  0  0  0  0  0  0  0  0  0  0
  162.7090  210.0250  153.1460 C   0  0  0  0  0  3  0  0  0  0  0  0
  161.3220  210.7180  148.4040 C   0  0  0  0  0  0  0  0  0  0  0  0
  161.9960  210.5780  154.2280 C   0  0  0  0  0  0  0  0  0  0  0  0
  159.0490  212.8830  144.1780 C   0  0  0  0  0  3  0  0  0  0  0  0
  162.1680  208.7970  149.7340 C   0  0  2  0  0  3  0  0  0  0  0  0
  158.0970  213.4190  145.0490 C   0  0  0  0  0  3  0  0  0  0  0  0
  159.7090  213.3210  146.8790 C   0  0  0  0  0  0  0  0  0  0  0  0
  162.7300  207.3890  149.6170 C   0  0  0  0  0  2  0  0  0  0  0  0
  162.0270  206.4340  150.5740 C   0  0  0  0  0  2  0  0  0  0  0  0
  160.7440  205.8800  149.9630 C   0  0  0  0  0  2  0  0  0  0  0  0
  160.5360  204.4180  150.3360 C   0  0  0  0  0  2  0  0  0  0  0  0
  161.0310  202.7510  151.9720 O   0  0  0  0  0  1  0  0  0  0  0  0
  161.3690  204.0360  151.5490 C   0  0  0  0  0  2  0  0  0  0  0  0
  1 29  1  0  0  0  0
  1 22  1  0  0  0  0
  2 33  1  0  0  0  0
  2  4  2  0  0  0  0
  3 11  1  0  0  0  0
  3  1  2  0  0  0  0
  4 20  1  0  0  0  0
  5 28  1  0  0  0  0
  5 31  1  0  0  0  0
  6  8  2  0  0  0  0
  6  3  1  0  0  0  0
  7 26  1  0  0  0  0
  8 27  1  0  0  0  0
  9 13  1  0  0  0  0
 10 12  2  0  0  0  0
 11 15  2  0  0  0  0
 13 18  1  0  0  0  0
 14 10  1  0  0  0  0
 15 22  1  0  0  0  0
 16 28  2  0  0  0  0
 18 17  1  1  0  0  0
 18 11  1  0  0  0  0
 20 21  2  0  0  0  0
 21  9  1  0  0  0  0
 23 33  1  0  0  0  0
 24  8  1  0  0  0  0
 25 10  1  0  0  0  0
 25 21  1  0  0  0  0
 26 23  2  0  0  0  0
 27 29  2  0  0  0  0
 28 14  1  0  0  0  0
 29 19  1  0  0  0  0
 30 26  1  0  0  0  0
 30 32  2  0  0  0  0
 31 34  1  6  0  0  0
 31 24  1  0  0  0  0
 32  2  1  0  0  0  0
 33 25  2  0  0  0  0
 34 35  1  0  0  0  0
 36 37  1  0  0  0  0
 36 35  1  0  0  0  0
 37 39  1  0  0  0  0
 39 38  1  0  0  0  0
M  END
>  <MODEL>
4

>  <REMARK>
 VINA RESULT:      -0.3      4.968      8.524
  Name = 
  5 active torsions:
  status: ('A' for Active; 'I' for Inactive)
    1  A    between atoms: C_5  and  C_11
    2  A    between atoms: C_5  and  C_36
    3  A    between atoms: C_11  and  C_19
    4  A    between atoms: C_19  and  C_38
    5  A    between atoms: C_31  and  C_38
                            x       y       z     vdW  Elec       q    Type
                         _______ _______ _______ _____ _____    ______ ____

>  <TORSDO>
F 5

$$$$
=
 OpenBabel11072415093D

 39 43  0  0  1  0  0  0  0  0999 V2000
  160.7410  211.2310  154.2860 C   0  0  0  0  0  0  0  0  0  0  0  0
  158.2080  213.6940  146.8040 C   0  0  0  0  0  0  0  0  0  0  0  0
  160.2640  211.3720  153.0160 C   0  0  0  0  0  0  0  0  0  0  0  0
  157.2580  214.2240  147.6720 C   0  0  0  0  0  3  0  0  0  0  0  0
  162.0180  209.5550  148.6590 C   0  0  0  0  0  2  0  0  0  0  0  0
  160.9390  210.8790  151.9080 C   0  0  0  0  0  3  0  0  0  0  0  0
  161.3110  212.0740  143.9010 Cl  0  0  0  0  0  0  0  0  0  0  0  0
  162.1510  210.1930  152.1320 C   0  0  0  0  0  0  0  0  0  0  0  0
  159.1650  214.4400  150.9450 C   0  0  0  0  0  2  0  0  0  0  0  0
  161.2060  213.3270  149.1370 C   0  0  0  0  0  0  0  0  0  0  0  0
  159.0820  212.0510  153.1520 C   0  0  0  0  0  0  0  0  0  0  0  0
  161.8520  214.2590  149.6850 O   0  0  0  0  0  0  0  0  0  0  0  0
  158.0800  213.9370  151.8930 C   0  0  0  0  0  2  0  0  0  0  0  0
  161.8380  212.0470  148.9980 N   0  0  0  0  0  2  0  0  0  0  0  0
  158.8770  212.3010  154.4670 N   0  0  0  0  0  0  0  0  0  0  0  0
  159.9390  210.7110  148.6460 O   0  0  0  0  0  0  0  0  0  0  0  0
  156.8680  211.9370  152.3360 O   0  0  0  0  0  1  0  0  0  0  0  0
  158.1420  212.4280  152.0510 C   0  0  2  0  0  3  0  0  0  0  0  0
  162.5560  210.3820  156.1770 Cl  0  0  0  0  0  0  0  0  0  0  0  0
  157.5820  214.4530  149.0060 C   0  0  0  0  0  3  0  0  0  0  0  0
  158.8540  214.1380  149.5040 C   0  0  0  0  0  0  0  0  0  0  0  0
  159.8950  211.7990  155.1640 N   0  0  0  0  0  2  0  0  0  0  0  0
  160.4580  212.9000  146.3570 C   0  0  0  0  0  3  0  0  0  0  0  0
  162.9560  209.6760  150.9820 C   0  0  0  0  0  2  0  0  0  0  0  0
  159.8360  213.6010  148.6350 C   0  0  0  0  0  0  0  0  0  0  0  0
  160.1170  212.6960  145.0190 C   0  0  0  0  0  0  0  0  0  0  0  0
  162.6510  210.0480  153.4460 C   0  0  0  0  0  3  0  0  0  0  0  0
  161.1930  210.7940  148.7330 C   0  0  0  0  0  0  0  0  0  0  0  0
  161.9390  210.5680  154.5460 C   0  0  0  0  0  0  0  0  0  0  0  0
  158.8260  212.9840  144.5720 C   0  0  0  0  0  3  0  0  0  0  0  0
  162.0930  208.8680  150.0200 C   0  0  2  0  0  3  0  0  0  0  0  0
  157.8740  213.4860  145.4630 C   0  0  0  0  0  3  0  0  0  0  0  0
  159.5100  213.3890  147.2720 C   0  0  0  0  0  0  0  0  0  0  0  0
  162.6820  207.4750  149.8720 C   0  0  0  0  0  2  0  0  0  0  0  0
  161.7660  206.4210  150.4820 C   0  0  0  0  0  2  0  0  0  0  0  0
  160.4400  206.3390  149.7340 C   0  0  0  0  0  2  0  0  0  0  0  0
  160.6500  206.0210  148.2600 C   0  0  0  0  0  2  0  0  0  0  0  0
  162.1520  204.7220  146.9330 O   0  0  0  0  0  1  0  0  0  0  0  0
  161.3590  204.6880  148.0800 C   0  0  0  0  0  2  0  0  0  0  0  0
  1 29  1  0  0  0  0
  1 22  1  0  0  0  0
  2 33  1  0  0  0  0
  2  4  2  0  0  0  0
  3 11  1  0  0  0  0
  3  1  2  0  0  0  0
  4 20  1  0  0  0  0
  5 28  1  0  0  0  0
  5 31  1  0  0  0  0
  6  8  2  0  0  0  0
  6  3  1  0  0  0  0
  7 26  1  0  0  0  0
  8 27  1  0  0  0  0
  9 13  1  0  0  0  0
 10 12  2  0  0  0  0
 11 15  2  0  0  0  0
 13 18  1  0  0  0  0
 14 10  1  0  0  0  0
 15 22  1  0  0  0  0
 16 28  2  0  0  0  0
 18 17  1  1  0  0  0
 18 11  1  0  0  0  0
 20 21  2  0  0  0  0
 21  9  1  0  0  0  0
 23 33  1  0  0  0  0
 24  8  1  0  0  0  0
 25 10  1  0  0  0  0
 25 21  1  0  0  0  0
 26 23  2  0  0  0  0
 27 29  2  0  0  0  0
 28 14  1  0  0  0  0
 29 19  1  0  0  0  0
 30 26  1  0  0  0  0
 30 32  2  0  0  0  0
 31 34  1  6  0  0  0
 31 24  1  0  0  0  0
 32  2  1  0  0  0  0
 33 25  2  0  0  0  0
 34 35  1  0  0  0  0
 36 35  1  0  0  0  0
 37 36  1  0  0  0  0
 38 39  1  0  0  0  0
 39 37  1  0  0  0  0
M  END
>  <MODEL>
5

>  <REMARK>
 VINA RESULT:      -0.1      4.723      8.196
  Name = 
  5 active torsions:
  status: ('A' for Active; 'I' for Inactive)
    1  A    between atoms: C_5  and  C_11
    2  A    between atoms: C_5  and  C_36
    3  A    between atoms: C_11  and  C_19
    4  A    between atoms: C_19  and  C_38
    5  A    between atoms: C_31  and  C_38
                            x       y       z     vdW  Elec       q    Type
                         _______ _______ _______ _____ _____    ______ ____

>  <TORSDO>
F 5

$$$$
=
 OpenBabel11072415093D

 39 43  0  0  1  0  0  0  0  0999 V2000
  160.7260  211.2150  155.4630 C   0  0  0  0  0  0  0  0  0  0  0  0
  157.5070  213.5920  148.2210 C   0  0  0  0  0  0  0  0  0  0  0  0
  160.1610  211.3390  154.2280 C   0  0  0  0  0  0  0  0  0  0  0  0
  156.5640  214.0030  149.1590 C   0  0  0  0  0  3  0  0  0  0  0  0
  161.8150  209.8140  149.7220 C   0  0  0  0  0  2  0  0  0  0  0  0
  160.8120  210.9430  153.0680 C   0  0  0  0  0  3  0  0  0  0  0  0
  160.5700  212.3640  145.0930 Cl  0  0  0  0  0  0  0  0  0  0  0  0
  162.0980  210.3770  153.1990 C   0  0  0  0  0  0  0  0  0  0  0  0
  158.6370  214.3300  152.3200 C   0  0  0  0  0  2  0  0  0  0  0  0
  160.6640  213.4730  150.3620 C   0  0  0  0  0  0  0  0  0  0  0  0
  158.9280  211.8910  154.4530 C   0  0  0  0  0  0  0  0  0  0  0  0
  161.2470  214.4520  150.8990 O   0  0  0  0  0  0  0  0  0  0  0  0
  157.6680  213.6970  153.3140 C   0  0  0  0  0  2  0  0  0  0  0  0
  161.4100  212.2660  150.1470 N   0  0  0  0  0  2  0  0  0  0  0  0
  158.7810  212.0870  155.7860 N   0  0  0  0  0  0  0  0  0  0  0  0
  159.6350  210.7540  149.8670 O   0  0  0  0  0  0  0  0  0  0  0  0
  156.6900  211.5740  153.7660 O   0  0  0  0  0  1  0  0  0  0  0  0
  157.8890  212.1980  153.4220 C   0  0  2  0  0  3  0  0  0  0  0  0
  162.7290  210.5080  157.2170 Cl  0  0  0  0  0  0  0  0  0  0  0  0
  156.9450  214.2300  150.4790 C   0  0  0  0  0  3  0  0  0  0  0  0
  158.2700  214.0330  150.8900 C   0  0  0  0  0  0  0  0  0  0  0  0
  159.8840  211.6740  156.4060 N   0  0  0  0  0  2  0  0  0  0  0  0
  159.7930  213.0410  147.6190 C   0  0  0  0  0  3  0  0  0  0  0  0
  162.8780  209.9730  151.9890 C   0  0  0  0  0  2  0  0  0  0  0  0
  159.2460  213.6190  149.9500 C   0  0  0  0  0  0  0  0  0  0  0  0
  159.3920  212.8350  146.2970 C   0  0  0  0  0  0  0  0  0  0  0  0
  162.6890  210.2520  154.4770 C   0  0  0  0  0  3  0  0  0  0  0  0
  160.8770  210.9620  149.8820 C   0  0  0  0  0  0  0  0  0  0  0  0
  161.9980  210.6700  155.6320 C   0  0  0  0  0  0  0  0  0  0  0  0
  158.0540  213.0030  145.9360 C   0  0  0  0  0  3  0  0  0  0  0  0
  162.0420  209.1050  151.0550 C   0  0  2  0  0  3  0  0  0  0  0  0
  157.1130  213.3850  146.8960 C   0  0  0  0  0  3  0  0  0  0  0  0
  158.8590  213.4090  148.6030 C   0  0  0  0  0  0  0  0  0  0  0  0
  162.7550  207.7830  150.8300 C   0  0  0  0  0  2  0  0  0  0  0  0
  162.0800  206.6540  151.6000 C   0  0  0  0  0  2  0  0  0  0  0  0
  160.8260  206.1660  150.8840 C   0  0  0  0  0  2  0  0  0  0  0  0
  161.1660  205.4920  149.5610 C   0  0  0  0  0  2  0  0  0  0  0  0
  161.5830  206.4600  147.4190 O   0  0  0  0  0  1  0  0  0  0  0  0
  160.5960  206.2690  148.3860 C   0  0  0  0  0  2  0  0  0  0  0  0
  1 29  1  0  0  0  0
  1 22  1  0  0  0  0
  2 33  1  0  0  0  0
  2  4  2  0  0  0  0
  3 11  1  0  0  0  0
  3  1  2  0  0  0  0
  4 20  1  0  0  0  0
  5 28  1  0  0  0  0
  5 31  1  0  0  0  0
  6  8  2  0  0  0  0
  6  3  1  0  0  0  0
  7 26  1  0  0  0  0
  8 27  1  0  0  0  0
  9 13  1  0  0  0  0
 10 12  2  0  0  0  0
 11 15  2  0  0  0  0
 13 18  1  0  0  0  0
 14 10  1  0  0  0  0
 15 22  1  0  0  0  0
 16 28  2  0  0  0  0
 18 17  1  1  0  0  0
 18 11  1  0  0  0  0
 20 21  2  0  0  0  0
 21  9  1  0  0  0  0
 23 33  1  0  0  0  0
 24  8  1  0  0  0  0
 25 10  1  0  0  0  0
 25 21  1  0  0  0  0
 26 23  2  0  0  0  0
 27 29  2  0  0  0  0
 28 14  1  0  0  0  0
 29 19  1  0  0  0  0
 30 26  1  0  0  0  0
 30 32  2  0  0  0  0
 31 34  1  6  0  0  0
 31 24  1  0  0  0  0
 32  2  1  0  0  0  0
 33 25  2  0  0  0  0
 34 35  1  0  0  0  0
 36 35  1  0  0  0  0
 37 36  1  0  0  0  0
 38 39  1  0  0  0  0
 39 37  1  0  0  0  0
M  END
>  <MODEL>
6

>  <REMARK>
 VINA RESULT:       0.3      4.806      8.429
  Name = 
  5 active torsions:
  status: ('A' for Active; 'I' for Inactive)
    1  A    between atoms: C_5  and  C_11
    2  A    between atoms: C_5  and  C_36
    3  A    between atoms: C_11  and  C_19
    4  A    between atoms: C_19  and  C_38
    5  A    between atoms: C_31  and  C_38
                            x       y       z     vdW  Elec       q    Type
                         _______ _______ _______ _____ _____    ______ ____

>  <TORSDO>
F 5

$$$$
