=
 OpenBabel11072412593D

 48 52  0  0  1  0  0  0  0  0999 V2000
  163.2060  210.3300  151.2750 C   0  0  0  0  0  3  0  0  0  0  0  0
  162.3040  211.9060  149.6900 O   0  0  0  0  0  0  0  0  0  0  0  0
  160.8890  211.1210  146.9240 N   0  0  0  0  0  1  0  0  0  0  0  0
  157.0980  211.8060  155.6300 C   0  0  0  0  0  0  0  0  0  0  0  0
  156.7530  213.9080  154.5800 O   0  0  0  0  0  0  0  0  0  0  0  0
  163.0740  209.1810  152.0610 C   0  0  0  0  0  3  0  0  0  0  0  0
  160.8530  208.8220  151.1660 C   0  0  0  0  0  3  0  0  0  0  0  0
  162.1620  210.7370  150.4400 C   0  0  0  0  0  0  0  0  0  0  0  0
  155.8220  213.7440  153.5530 C   0  0  0  0  0  0  0  0  0  0  0  0
  161.1750  213.9150  149.0310 C   0  0  1  0  0  3  0  0  0  0  0  0
  156.2690  213.8500  152.1600 C   0  0  0  0  0  0  0  0  0  0  0  0
  160.9700  213.4500  146.8850 O   0  0  0  0  0  0  0  0  0  0  0  0
  156.2650  214.0510  149.9380 C   0  0  0  0  0  0  0  0  0  0  0  0
  161.7050  207.2160  152.8770 C   0  0  2  0  0  3  0  0  0  0  0  0
  154.6150  213.4880  153.8200 O   0  0  0  0  0  0  0  0  0  0  0  0
  159.1180  212.3650  153.2640 C   0  0  0  0  0  2  0  0  0  0  0  0
  158.6500  213.7910  149.2340 C   0  0  0  0  0  2  0  0  0  0  0  0
  157.5450  213.8760  150.2420 C   0  0  0  0  0  0  0  0  0  0  0  0
  161.2390  212.4260  148.9090 C   0  0  1  0  0  3  0  0  0  0  0  0
  160.2640  210.3070  154.1320 C   0  0  1  0  0  3  0  0  0  0  0  0
  160.9860  209.9720  150.3830 C   0  0  0  0  0  3  0  0  0  0  0  0
  158.9670  211.1200  154.1250 C   0  0  1  0  0  3  0  0  0  0  0  0
  157.6970  213.7010  151.7210 C   0  0  2  0  0  3  0  0  0  0  0  0
  161.2090  214.4520  147.7310 O   0  0  0  0  0  0  0  0  0  0  0  0
  155.4420  214.0360  151.1320 C   0  0  0  0  0  3  0  0  0  0  0  0
  158.5630  211.5170  155.5450 C   0  0  0  0  0  2  0  0  0  0  0  0
  158.2040  212.3010  152.0540 C   0  0  0  0  0  2  0  0  0  0  0  0
  161.8910  208.4290  152.0140 C   0  0  0  0  0  0  0  0  0  0  0  0
  155.7660  214.2400  148.6200 N   0  0  0  0  0  1  0  0  0  0  0  0
  161.5330  212.3070  147.4590 C   0  0  1  0  0  3  0  0  0  0  0  0
  156.2830  210.9030  155.4950 O   0  0  0  0  0  0  0  0  0  0  0  0
  161.3530  208.2740  155.1950 C   0  0  0  0  0  0  0  0  0  0  0  0
  161.8120  208.4180  156.3560 O   0  0  0  0  0  0  0  0  0  0  0  0
  159.9410  214.3730  149.8010 C   0  0  0  0  0  2  0  0  0  0  0  0
  161.2950  211.0410  154.7280 O   0  0  0  0  0  1  0  0  0  0  0  0
  160.0630  208.9670  154.8500 C   0  0  2  0  0  3  0  0  0  0  0  0
  162.0930  207.4800  154.2590 N   0  0  0  0  0  2  0  0  0  0  0  0
  156.6290  213.2160  155.8150 C   0  0  0  0  0  2  0  0  0  0  0  0
  159.2200  208.1320  154.1120 O   0  0  0  0  0  1  0  0  0  0  0  0
  162.4490  206.0140  152.3620 C   0  0  0  0  0  0  0  0  0  0  0  0
  160.6080  205.2780  150.7350 C   0  0  0  0  0  0  0  0  0  0  0  0
  160.1160  206.4630  150.5860 N   0  0  0  0  0  2  0  0  0  0  0  0
  163.6050  205.7560  152.7950 O   0  0  0  0  0  0  0  0  0  0  0  0
  161.8230  205.0770  151.4760 N   0  0  0  0  0  2  0  0  0  0  0  0
  159.9640  204.1940  150.1310 O   0  0  0  0  0  0  0  0  0  0  0  0
  161.2390  203.5120  148.2130 C   0  0  0  0  0  1  0  0  0  0  0  0
  160.6800  203.1030  149.5640 C   0  0  0  0  0  3  0  0  0  0  0  0
  159.7450  201.9180  149.3720 C   0  0  0  0  0  1  0  0  0  0  0  0
  1  6  1  0  0  0  0
  2  8  1  0  0  0  0
  4 38  1  0  0  0  0
  5 38  1  0  0  0  0
  7 28  1  0  0  0  0
  8  1  2  0  0  0  0
  9 15  2  0  0  0  0
  9  5  1  0  0  0  0
 10 34  1  6  0  0  0
 11  9  1  0  0  0  0
 12 30  1  0  0  0  0
 12 24  1  0  0  0  0
 13 18  2  0  0  0  0
 13 25  1  0  0  0  0
 14 40  1  6  0  0  0
 14 37  1  0  0  0  0
 17 34  1  0  0  0  0
 17 18  1  0  0  0  0
 18 23  1  0  0  0  0
 19 10  1  0  0  0  0
 19  2  1  1  0  0  0
 20 35  1  1  0  0  0
 20 36  1  0  0  0  0
 21  8  1  0  0  0  0
 21  7  2  0  0  0  0
 22 16  1  6  0  0  0
 22 20  1  0  0  0  0
 22 26  1  0  0  0  0
 23 27  1  6  0  0  0
 23 11  1  0  0  0  0
 24 10  1  0  0  0  0
 25 11  2  0  0  0  0
 26  4  1  0  0  0  0
 27 16  1  0  0  0  0
 28  6  2  0  0  0  0
 28 14  1  0  0  0  0
 29 13  1  0  0  0  0
 30  3  1  6  0  0  0
 30 19  1  0  0  0  0
 31  4  2  0  0  0  0
 32 33  2  0  0  0  0
 36 39  1  6  0  0  0
 36 32  1  0  0  0  0
 37 32  1  0  0  0  0
 40 43  2  0  0  0  0
 41 44  1  0  0  0  0
 42 41  2  0  0  0  0
 44 40  1  0  0  0  0
 45 41  1  0  0  0  0
 46 47  1  0  0  0  0
 47 45  1  0  0  0  0
 48 47  1  0  0  0  0
M  END
>  <MODEL>
1

>  <REMARK>
 VINA RESULT:      -0.3      0.000      0.000
  Name = 
  3 active torsions:
  status: ('A' for Active; 'I' for Inactive)
    1  A    between atoms: C_5  and  O_40
    2  A    between atoms: C_11  and  C_19
    3  A    between atoms: C_17  and  O_40
                            x       y       z     vdW  Elec       q    Type
                         _______ _______ _______ _____ _____    ______ ____

>  <TORSDO>
F 3

$$$$
=
 OpenBabel11072412593D

 48 52  0  0  1  0  0  0  0  0999 V2000
  163.1020  207.9190  148.1570 C   0  0  0  0  0  3  0  0  0  0  0  0
  162.5080  210.2510  148.3000 O   0  0  0  0  0  0  0  0  0  0  0  0
  160.0360  211.6120  146.7840 N   0  0  0  0  0  1  0  0  0  0  0  0
  160.2060  207.1460  155.1900 C   0  0  0  0  0  0  0  0  0  0  0  0
  160.4890  209.4580  155.6520 O   0  0  0  0  0  0  0  0  0  0  0  0
  162.7550  206.5670  148.2260 C   0  0  0  0  0  3  0  0  0  0  0  0
  160.4500  207.1790  148.6410 C   0  0  0  0  0  3  0  0  0  0  0  0
  162.1310  208.9080  148.3400 C   0  0  0  0  0  0  0  0  0  0  0  0
  159.2920  210.1180  155.3690 C   0  0  0  0  0  0  0  0  0  0  0  0
  162.2380  212.3560  149.4150 C   0  0  1  0  0  3  0  0  0  0  0  0
  159.2280  211.0200  154.2130 C   0  0  0  0  0  0  0  0  0  0  0  0
  161.1210  213.3940  147.8210 O   0  0  0  0  0  0  0  0  0  0  0  0
  158.5490  212.5820  152.7750 C   0  0  0  0  0  0  0  0  0  0  0  0
  161.0330  204.7510  148.5980 C   0  0  2  0  0  3  0  0  0  0  0  0
  158.2720  209.9260  156.0870 O   0  0  0  0  0  0  0  0  0  0  0  0
  161.3090  208.7850  152.7220 C   0  0  0  0  0  2  0  0  0  0  0  0
  160.1630  212.4930  150.8690 C   0  0  0  0  0  2  0  0  0  0  0  0
  159.6340  212.0740  152.2050 C   0  0  0  0  0  0  0  0  0  0  0  0
  161.5880  211.2940  148.5870 C   0  0  1  0  0  3  0  0  0  0  0  0
  161.6440  206.5080  151.7190 C   0  0  1  0  0  3  0  0  0  0  0  0
  160.7990  208.5300  148.5760 C   0  0  0  0  0  3  0  0  0  0  0  0
  160.9280  207.3140  152.8070 C   0  0  1  0  0  3  0  0  0  0  0  0
  160.1920  210.9810  153.0630 C   0  0  2  0  0  3  0  0  0  0  0  0
  162.0560  213.5850  148.7530 O   0  0  0  0  0  0  0  0  0  0  0  0
  158.2720  211.9300  154.0400 C   0  0  0  0  0  3  0  0  0  0  0  0
  161.2600  206.7720  154.1970 C   0  0  0  0  0  2  0  0  0  0  0  0
  160.1060  209.6340  152.3510 C   0  0  0  0  0  2  0  0  0  0  0  0
  161.4270  206.1940  148.4770 C   0  0  0  0  0  0  0  0  0  0  0  0
  157.7640  213.6340  152.2240 N   0  0  0  0  0  1  0  0  0  0  0  0
  161.2790  212.0820  147.3680 C   0  0  1  0  0  3  0  0  0  0  0  0
  159.0840  206.6620  155.1090 O   0  0  0  0  0  0  0  0  0  0  0  0
  162.0100  204.1340  150.8950 C   0  0  0  0  0  0  0  0  0  0  0  0
  162.8540  203.4400  151.5170 O   0  0  0  0  0  0  0  0  0  0  0  0
  161.6850  212.3910  150.8360 C   0  0  0  0  0  2  0  0  0  0  0  0
  163.0280  206.5400  151.9220 O   0  0  0  0  0  1  0  0  0  0  0  0
  161.1310  205.0630  151.6880 C   0  0  2  0  0  3  0  0  0  0  0  0
  161.9470  204.0200  149.4680 N   0  0  0  0  0  2  0  0  0  0  0  0
  160.5060  208.1660  156.2430 C   0  0  0  0  0  2  0  0  0  0  0  0
  159.8090  205.0160  151.2380 O   0  0  0  0  0  1  0  0  0  0  0  0
  160.9380  204.0600  147.2650 C   0  0  0  0  0  0  0  0  0  0  0  0
  160.8360  201.6890  148.2360 C   0  0  0  0  0  0  0  0  0  0  0  0
  160.3310  202.0570  149.3670 N   0  0  0  0  0  2  0  0  0  0  0  0
  160.9180  204.7410  146.2020 O   0  0  0  0  0  0  0  0  0  0  0  0
  160.9960  202.6320  147.1630 N   0  0  0  0  0  2  0  0  0  0  0  0
  161.1900  200.3490  148.0540 O   0  0  0  0  0  0  0  0  0  0  0  0
  160.6640  200.3270  145.7100 C   0  0  0  0  0  1  0  0  0  0  0  0
  161.6070  199.8350  146.7950 C   0  0  0  0  0  3  0  0  0  0  0  0
  161.5760  198.3140  146.8230 C   0  0  0  0  0  1  0  0  0  0  0  0
  1  6  2  0  0  0  0
  1  8  1  0  0  0  0
  2  8  1  0  0  0  0
  4 38  1  0  0  0  0
  5 38  1  0  0  0  0
  6 28  1  0  0  0  0
  8 21  2  0  0  0  0
  9  5  1  0  0  0  0
  9 15  2  0  0  0  0
 10 34  1  1  0  0  0
 11  9  1  0  0  0  0
 12 24  1  0  0  0  0
 13 25  1  0  0  0  0
 14 40  1  6  0  0  0
 14 37  1  0  0  0  0
 17 18  1  0  0  0  0
 18 13  2  0  0  0  0
 18 23  1  0  0  0  0
 19  2  1  6  0  0  0
 19 10  1  0  0  0  0
 20 35  1  1  0  0  0
 20 22  1  0  0  0  0
 21  7  1  0  0  0  0
 22 16  1  1  0  0  0
 22 26  1  0  0  0  0
 23 27  1  6  0  0  0
 23 11  1  0  0  0  0
 24 10  1  0  0  0  0
 25 11  2  0  0  0  0
 26  4  1  0  0  0  0
 27 16  1  0  0  0  0
 28 14  1  0  0  0  0
 28  7  2  0  0  0  0
 29 13  1  0  0  0  0
 30  3  1  1  0  0  0
 30 12  1  0  0  0  0
 30 19  1  0  0  0  0
 31  4  2  0  0  0  0
 32 33  2  0  0  0  0
 32 36  1  0  0  0  0
 34 17  1  0  0  0  0
 36 39  1  6  0  0  0
 36 20  1  0  0  0  0
 37 32  1  0  0  0  0
 41 42  2  0  0  0  0
 43 40  2  0  0  0  0
 44 40  1  0  0  0  0
 44 41  1  0  0  0  0
 45 41  1  0  0  0  0
 46 47  1  0  0  0  0
 47 48  1  0  0  0  0
 47 45  1  0  0  0  0
M  END
>  <MODEL>
2

>  <REMARK>
 VINA RESULT:       0.9      2.410      4.456
  Name = 
  3 active torsions:
  status: ('A' for Active; 'I' for Inactive)
    1  A    between atoms: C_5  and  O_40
    2  A    between atoms: C_11  and  C_19
    3  A    between atoms: C_17  and  O_40
                            x       y       z     vdW  Elec       q    Type
                         _______ _______ _______ _____ _____    ______ ____

>  <TORSDO>
F 3

$$$$
=
 OpenBabel11072412593D

 48 52  0  0  1  0  0  0  0  0999 V2000
  163.1110  209.1340  148.4800 C   0  0  0  0  0  3  0  0  0  0  0  0
  162.0720  211.2660  148.0510 O   0  0  0  0  0  0  0  0  0  0  0  0
  159.4780  211.7090  146.2220 N   0  0  0  0  0  1  0  0  0  0  0  0
  160.0040  209.4600  155.4580 C   0  0  0  0  0  0  0  0  0  0  0  0
  159.8090  211.8240  155.3530 O   0  0  0  0  0  0  0  0  0  0  0  0
  163.0270  207.7940  148.8690 C   0  0  0  0  0  3  0  0  0  0  0  0
  160.6260  208.0090  149.0980 C   0  0  0  0  0  3  0  0  0  0  0  0
  161.9580  209.9220  148.4080 C   0  0  0  0  0  0  0  0  0  0  0  0
  158.5270  212.1450  154.9060 C   0  0  0  0  0  0  0  0  0  0  0  0
  161.3350  213.4740  148.6220 C   0  0  1  0  0  3  0  0  0  0  0  0
  158.3600  212.7200  153.5660 C   0  0  0  0  0  0  0  0  0  0  0  0
  160.1370  213.8650  146.8130 O   0  0  0  0  0  0  0  0  0  0  0  0
  157.4790  213.7340  151.7860 C   0  0  0  0  0  0  0  0  0  0  0  0
  161.6670  205.8070  149.6470 C   0  0  2  0  0  3  0  0  0  0  0  0
  157.5220  211.9250  155.6370 O   0  0  0  0  0  0  0  0  0  0  0  0
  160.9160  210.6640  152.6810 C   0  0  0  0  0  2  0  0  0  0  0  0
  159.1910  213.5270  149.9760 C   0  0  0  0  0  2  0  0  0  0  0  0
  158.6740  213.3360  151.3680 C   0  0  0  0  0  0  0  0  0  0  0  0
  160.9530  212.1400  148.0670 C   0  0  1  0  0  3  0  0  0  0  0  0
  161.7420  208.3300  152.2610 C   0  0  1  0  0  3  0  0  0  0  0  0
  160.7120  209.3490  148.7130 C   0  0  0  0  0  3  0  0  0  0  0  0
  160.8210  209.2080  153.1140 C   0  0  1  0  0  3  0  0  0  0  0  0
  159.3800  212.6080  152.4700 C   0  0  2  0  0  3  0  0  0  0  0  0
  160.9600  214.4520  147.6810 O   0  0  0  0  0  0  0  0  0  0  0  0
  157.2580  213.3540  153.1680 C   0  0  0  0  0  3  0  0  0  0  0  0
  161.1680  209.0840  154.5970 C   0  0  0  0  0  2  0  0  0  0  0  0
  159.5970  211.1430  152.1020 C   0  0  0  0  0  2  0  0  0  0  0  0
  161.7830  207.2300  149.1880 C   0  0  0  0  0  0  0  0  0  0  0  0
  156.5400  214.4470  150.9890 N   0  0  0  0  0  1  0  0  0  0  0  0
  160.5700  212.5420  146.6910 C   0  0  1  0  0  3  0  0  0  0  0  0
  159.0030  208.7550  155.4830 O   0  0  0  0  0  0  0  0  0  0  0  0
  162.6060  205.9530  152.0370 C   0  0  0  0  0  0  0  0  0  0  0  0
  163.5300  205.6090  152.8170 O   0  0  0  0  0  0  0  0  0  0  0  0
  160.7030  213.7290  149.9860 C   0  0  0  0  0  2  0  0  0  0  0  0
  163.0790  208.6870  152.4650 O   0  0  0  0  0  1  0  0  0  0  0  0
  161.5200  206.8460  152.5720 C   0  0  2  0  0  3  0  0  0  0  0  0
  162.6520  205.4990  150.6780 N   0  0  0  0  0  2  0  0  0  0  0  0
  160.0390  210.7370  156.2390 C   0  0  0  0  0  2  0  0  0  0  0  0
  160.2600  206.4300  152.1310 O   0  0  0  0  0  1  0  0  0  0  0  0
  161.7860  204.8180  148.5190 C   0  0  0  0  0  0  0  0  0  0  0  0
  160.9340  202.8140  149.8720 C   0  0  0  0  0  0  0  0  0  0  0  0
  160.2360  203.5260  150.6930 N   0  0  0  0  0  2  0  0  0  0  0  0
  162.1920  205.2010  147.3870 O   0  0  0  0  0  0  0  0  0  0  0  0
  161.5670  203.4180  148.7320 N   0  0  0  0  0  2  0  0  0  0  0  0
  161.0340  201.4350  150.0830 O   0  0  0  0  0  0  0  0  0  0  0  0
  161.5460  200.3400  148.0080 C   0  0  0  0  0  1  0  0  0  0  0  0
  160.5480  200.4830  149.1440 C   0  0  0  0  0  3  0  0  0  0  0  0
  159.2180  200.9530  148.5760 C   0  0  0  0  0  1  0  0  0  0  0  0
  1  6  1  0  0  0  0
  2  8  1  0  0  0  0
  4 31  2  0  0  0  0
  4 38  1  0  0  0  0
  5 38  1  0  0  0  0
  6 28  2  0  0  0  0
  7 28  1  0  0  0  0
  8  1  2  0  0  0  0
  8 21  1  0  0  0  0
  9  5  1  0  0  0  0
  9 15  2  0  0  0  0
 10 34  1  1  0  0  0
 11  9  1  0  0  0  0
 12 24  1  0  0  0  0
 13 25  1  0  0  0  0
 14 40  1  6  0  0  0
 14 37  1  0  0  0  0
 17 34  1  0  0  0  0
 17 18  1  0  0  0  0
 18 13  2  0  0  0  0
 18 23  1  0  0  0  0
 19  2  1  6  0  0  0
 19 10  1  0  0  0  0
 20 35  1  1  0  0  0
 20 36  1  0  0  0  0
 20 22  1  0  0  0  0
 21  7  2  0  0  0  0
 22 16  1  6  0  0  0
 22 26  1  0  0  0  0
 23 27  1  6  0  0  0
 23 11  1  0  0  0  0
 24 10  1  0  0  0  0
 25 11  2  0  0  0  0
 26  4  1  0  0  0  0
 27 16  1  0  0  0  0
 28 14  1  0  0  0  0
 29 13  1  0  0  0  0
 30  3  1  1  0  0  0
 30 12  1  0  0  0  0
 30 19  1  0  0  0  0
 32 36  1  0  0  0  0
 32 33  2  0  0  0  0
 36 39  1  6  0  0  0
 37 32  1  0  0  0  0
 40 44  1  0  0  0  0
 41 45  1  0  0  0  0
 41 42  2  0  0  0  0
 43 40  2  0  0  0  0
 44 41  1  0  0  0  0
 46 47  1  0  0  0  0
 47 45  1  0  0  0  0
 48 47  1  0  0  0  0
M  END
>  <MODEL>
3

>  <REMARK>
 VINA RESULT:       1.5      1.814      2.959
  Name = 
  3 active torsions:
  status: ('A' for Active; 'I' for Inactive)
    1  A    between atoms: C_5  and  O_40
    2  A    between atoms: C_11  and  C_19
    3  A    between atoms: C_17  and  O_40
                            x       y       z     vdW  Elec       q    Type
                         _______ _______ _______ _____ _____    ______ ____

>  <TORSDO>
F 3

$$$$
