=
 OpenBabel11072413153D

 27 31  0  0  1  0  0  0  0  0999 V2000
  161.2320  204.9880  148.3020 C   0  0  0  0  0  0  0  0  0  0  0  0
  161.2480  206.4410  147.9360 C   0  0  0  0  0  2  0  0  0  0  0  0
  161.2460  207.5190  150.2040 C   0  0  0  0  0  2  0  0  0  0  0  0
  161.2260  206.3640  152.5900 C   0  0  0  0  0  0  0  0  0  0  0  0
  161.1530  203.8500  147.3690 C   0  0  0  0  0  3  0  0  0  0  0  0
  161.1530  205.1160  153.0750 C   0  0  0  0  0  3  0  0  0  0  0  0
  161.1790  205.0570  150.7730 C   0  0  0  0  0  0  0  0  0  0  0  0
  162.0500  207.2800  148.9280 C   0  0  2  0  0  3  0  0  0  0  0  0
  161.0050  202.2630  150.5190 C   0  0  0  0  0  3  0  0  0  0  0  0
  161.1620  204.4680  149.5140 C   0  0  0  0  0  0  0  0  0  0  0  0
  161.1150  204.2600  151.8950 C   0  0  0  0  0  0  0  0  0  0  0  0
  162.3680  208.6180  148.2940 C   0  0  0  0  0  1  0  0  0  0  0  0
  161.2650  206.3310  151.1210 C   0  0  0  0  0  0  0  0  0  0  0  0
  161.0670  202.7280  148.0240 N   0  0  0  0  0  0  0  0  0  0  0  0
  161.0770  203.1050  149.3940 C   0  0  0  0  0  0  0  0  0  0  0  0
  161.0260  202.8570  151.8030 C   0  0  0  0  0  3  0  0  0  0  0  0
  161.3480  207.6130  153.4170 C   0  0  2  0  0  3  0  0  0  0  0  0
  160.4900  208.9140  157.2610 C   0  0  0  0  0  2  0  0  0  0  0  0
  162.1620  208.1080  155.7010 O   0  0  0  0  0  0  0  0  0  0  0  0
  161.2420  207.3470  154.9250 C   0  0  1  0  0  3  0  0  0  0  0  0
  159.7670  207.6070  156.9300 C   0  0  0  0  0  2  0  0  0  0  0  0
  159.7860  207.3430  155.4300 C   0  0  0  0  0  2  0  0  0  0  0  0
  161.5320  209.2690  156.1950 C   0  0  0  0  0  2  0  0  0  0  0  0
  160.3700  208.6920  152.9630 C   0  0  0  0  0  2  0  0  0  0  0  0
  161.0740  209.9880  152.7470 C   0  0  0  0  0  0  0  0  0  0  0  0
  160.4040  211.1860  152.9560 O   0  0  0  0  0  1  0  0  0  0  0  0
  162.2850  209.9970  152.4060 O   0  0  0  0  0  0  0  0  0  0  0  0
  1 10  1  0  0  0  0
  2  1  1  0  0  0  0
  2  8  1  0  0  0  0
  3 13  1  0  0  0  0
  4  6  1  0  0  0  0
  4 17  1  0  0  0  0
  5 14  1  0  0  0  0
  5  1  2  0  0  0  0
  7 13  1  0  0  0  0
  7 11  1  0  0  0  0
  8 12  1  6  0  0  0
  8  3  1  0  0  0  0
  9 16  2  0  0  0  0
 10  7  2  0  0  0  0
 11  6  2  0  0  0  0
 13  4  2  0  0  0  0
 14 15  2  0  0  0  0
 15 10  1  0  0  0  0
 15  9  1  0  0  0  0
 16 11  1  0  0  0  0
 17 24  1  6  0  0  0
 19 23  1  0  0  0  0
 20 17  1  6  0  0  0
 20 22  1  0  0  0  0
 20 19  1  0  0  0  0
 21 18  1  0  0  0  0
 22 21  1  0  0  0  0
 23 18  1  0  0  0  0
 25 26  1  0  0  0  0
 25 24  1  0  0  0  0
 27 25  2  0  0  0  0
M  END
>  <MODEL>
1

>  <REMARK>
 VINA RESULT:      -9.6      0.000      0.000
  Name = 
  4 active torsions:
  status: ('A' for Active; 'I' for Inactive)
    1  A    between atoms: C_3  and  C_14
    2  A    between atoms: C_4  and  C_24
    3  A    between atoms: C_9  and  C_14
    4  A    between atoms: C_14  and  C_24
                            x       y       z     vdW  Elec       q    Type
                         _______ _______ _______ _____ _____    ______ ____

>  <TORSDO>
F 4

$$$$
=
 OpenBabel11072413153D

 27 31  0  0  1  0  0  0  0  0999 V2000
  161.1650  202.4280  146.5390 C   0  0  0  0  0  0  0  0  0  0  0  0
  161.2220  203.6480  145.6720 C   0  0  0  0  0  2  0  0  0  0  0  0
  161.2540  205.4730  147.3970 C   0  0  0  0  0  2  0  0  0  0  0  0
  161.2030  205.2610  150.0390 C   0  0  0  0  0  0  0  0  0  0  0  0
  161.0530  201.0310  146.0800 C   0  0  0  0  0  3  0  0  0  0  0  0
  161.0960  204.2750  150.9410 C   0  0  0  0  0  3  0  0  0  0  0  0
  161.1180  203.3870  148.8160 C   0  0  0  0  0  0  0  0  0  0  0  0
  162.0490  204.7680  146.3010 C   0  0  2  0  0  3  0  0  0  0  0  0
  160.8650  200.6960  149.5880 C   0  0  0  0  0  3  0  0  0  0  0  0
  161.0820  202.3830  147.8550 C   0  0  0  0  0  0  0  0  0  0  0  0
  161.0320  203.0510  150.1500 C   0  0  0  0  0  0  0  0  0  0  0  0
  162.4040  205.7770  145.2290 C   0  0  0  0  0  1  0  0  0  0  0  0
  161.2400  204.6970  148.6810 C   0  0  0  0  0  0  0  0  0  0  0  0
  160.9370  200.2250  147.0950 N   0  0  0  0  0  0  0  0  0  0  0  0
  160.9580  201.0720  148.2360 C   0  0  0  0  0  0  0  0  0  0  0  0
  160.9040  201.7140  150.5720 C   0  0  0  0  0  3  0  0  0  0  0  0
  161.3620  206.7210  150.3590 C   0  0  2  0  0  3  0  0  0  0  0  0
  161.4550  207.8360  154.3530 C   0  0  0  0  0  2  0  0  0  0  0  0
  160.7810  206.1910  152.7050 O   0  0  0  0  0  0  0  0  0  0  0  0
  160.6380  207.1340  151.6480 C   0  0  1  0  0  3  0  0  0  0  0  0
  160.6140  208.8010  153.5140 C   0  0  0  0  0  2  0  0  0  0  0  0
  160.8880  208.6060  152.0290 C   0  0  0  0  0  2  0  0  0  0  0  0
  161.8320  206.5810  153.5600 C   0  0  0  0  0  2  0  0  0  0  0  0
  160.9680  207.6060  149.1810 C   0  0  0  0  0  2  0  0  0  0  0  0
  162.1300  208.4140  148.7140 C   0  0  0  0  0  0  0  0  0  0  0  0
  162.0620  209.8010  148.7270 O   0  0  0  0  0  1  0  0  0  0  0  0
  163.1850  207.8400  148.3370 O   0  0  0  0  0  0  0  0  0  0  0  0
  1 10  1  0  0  0  0
  2  8  1  0  0  0  0
  2  1  1  0  0  0  0
  3 13  1  0  0  0  0
  4 17  1  0  0  0  0
  4  6  1  0  0  0  0
  5  1  2  0  0  0  0
  5 14  1  0  0  0  0
  7 11  1  0  0  0  0
  8 12  1  6  0  0  0
  8  3  1  0  0  0  0
  9 16  2  0  0  0  0
 10 15  1  0  0  0  0
 10  7  2  0  0  0  0
 11 16  1  0  0  0  0
 11  6  2  0  0  0  0
 13  7  1  0  0  0  0
 13  4  2  0  0  0  0
 14 15  2  0  0  0  0
 15  9  1  0  0  0  0
 17 24  1  6  0  0  0
 19 23  1  0  0  0  0
 20 17  1  6  0  0  0
 20 22  1  0  0  0  0
 20 19  1  0  0  0  0
 21 18  1  0  0  0  0
 22 21  1  0  0  0  0
 23 18  1  0  0  0  0
 25 26  1  0  0  0  0
 25 24  1  0  0  0  0
 27 25  2  0  0  0  0
M  END
>  <MODEL>
2

>  <REMARK>
 VINA RESULT:      -8.8      2.004      3.349
  Name = 
  4 active torsions:
  status: ('A' for Active; 'I' for Inactive)
    1  A    between atoms: C_3  and  C_14
    2  A    between atoms: C_4  and  C_24
    3  A    between atoms: C_9  and  C_14
    4  A    between atoms: C_14  and  C_24
                            x       y       z     vdW  Elec       q    Type
                         _______ _______ _______ _____ _____    ______ ____

>  <TORSDO>
F 4

$$$$
=
 OpenBabel11072413153D

 27 31  0  0  1  0  0  0  0  0999 V2000
  161.8290  209.2720  152.1170 C   0  0  0  0  0  0  0  0  0  0  0  0
  162.3340  209.6960  150.7720 C   0  0  0  0  0  2  0  0  0  0  0  0
  162.2520  207.5250  149.5110 C   0  0  0  0  0  2  0  0  0  0  0  0
  161.4710  205.1400  150.3640 C   0  0  0  0  0  0  0  0  0  0  0  0
  161.7210  210.1190  153.3190 C   0  0  0  0  0  3  0  0  0  0  0  0
  161.0610  204.5980  151.5200 C   0  0  0  0  0  3  0  0  0  0  0  0
  161.4440  206.8500  151.8080 C   0  0  0  0  0  0  0  0  0  0  0  0
  161.6640  208.9290  149.6330 C   0  0  2  0  0  3  0  0  0  0  0  0
  160.7830  206.9430  154.5390 C   0  0  0  0  0  3  0  0  0  0  0  0
  161.5080  208.0520  152.5050 C   0  0  0  0  0  0  0  0  0  0  0  0
  161.0480  205.7060  152.4670 C   0  0  0  0  0  0  0  0  0  0  0  0
  161.9000  209.6720  148.3360 C   0  0  0  0  0  1  0  0  0  0  0  0
  161.6960  206.5830  150.5380 C   0  0  0  0  0  0  0  0  0  0  0  0
  161.3300  209.4140  154.3410 N   0  0  0  0  0  0  0  0  0  0  0  0
  161.1860  208.0930  153.8370 C   0  0  0  0  0  0  0  0  0  0  0  0
  160.7110  205.7170  153.8350 C   0  0  0  0  0  3  0  0  0  0  0  0
  161.5930  204.4110  149.0550 C   0  0  2  0  0  3  0  0  0  0  0  0
  161.2100  205.1720  144.9960 C   0  0  0  0  0  2  0  0  0  0  0  0
  162.6930  204.9140  146.8960 O   0  0  0  0  0  0  0  0  0  0  0  0
  161.7350  205.3560  147.8540 C   0  0  1  0  0  3  0  0  0  0  0  0
  160.5600  206.2690  145.8420 C   0  0  0  0  0  2  0  0  0  0  0  0
  160.3770  205.8040  147.2810 C   0  0  0  0  0  2  0  0  0  0  0  0
  162.0470  204.2180  145.8540 C   0  0  0  0  0  2  0  0  0  0  0  0
  160.4590  203.4100  148.8550 C   0  0  0  0  0  2  0  0  0  0  0  0
  160.9770  202.0130  148.8710 C   0  0  0  0  0  0  0  0  0  0  0  0
  161.1620  201.3550  150.0790 O   0  0  0  0  0  1  0  0  0  0  0  0
  161.2170  201.4180  147.7890 O   0  0  0  0  0  0  0  0  0  0  0  0
  1 10  2  0  0  0  0
  1  5  1  0  0  0  0
  2  1  1  0  0  0  0
  3  8  1  0  0  0  0
  3 13  1  0  0  0  0
  4 13  1  0  0  0  0
  4  6  2  0  0  0  0
  5 14  2  0  0  0  0
  6 11  1  0  0  0  0
  7 11  1  0  0  0  0
  7 10  1  0  0  0  0
  8 12  1  6  0  0  0
  8  2  1  0  0  0  0
 10 15  1  0  0  0  0
 11 16  2  0  0  0  0
 13  7  2  0  0  0  0
 15 14  1  0  0  0  0
 15  9  2  0  0  0  0
 16  9  1  0  0  0  0
 17 24  1  6  0  0  0
 17  4  1  0  0  0  0
 18 21  1  0  0  0  0
 18 23  1  0  0  0  0
 19 20  1  0  0  0  0
 20 17  1  1  0  0  0
 21 22  1  0  0  0  0
 22 20  1  0  0  0  0
 23 19  1  0  0  0  0
 24 25  1  0  0  0  0
 25 26  1  0  0  0  0
 27 25  2  0  0  0  0
M  END
>  <MODEL>
3

>  <REMARK>
 VINA RESULT:      -8.7      3.616      7.048
  Name = 
  4 active torsions:
  status: ('A' for Active; 'I' for Inactive)
    1  A    between atoms: C_3  and  C_14
    2  A    between atoms: C_4  and  C_24
    3  A    between atoms: C_9  and  C_14
    4  A    between atoms: C_14  and  C_24
                            x       y       z     vdW  Elec       q    Type
                         _______ _______ _______ _____ _____    ______ ____

>  <TORSDO>
F 4

$$$$
=
 OpenBabel11072413153D

 27 31  0  0  1  0  0  0  0  0999 V2000
  160.9860  202.5320  147.2000 C   0  0  0  0  0  0  0  0  0  0  0  0
  161.1620  201.8220  148.5080 C   0  0  0  0  0  2  0  0  0  0  0  0
  161.2830  203.7570  150.1040 C   0  0  0  0  0  2  0  0  0  0  0  0
  161.1320  206.3510  149.5820 C   0  0  0  0  0  0  0  0  0  0  0  0
  160.9250  201.9090  145.8660 C   0  0  0  0  0  3  0  0  0  0  0  0
  161.0390  207.1290  148.4930 C   0  0  0  0  0  3  0  0  0  0  0  0
  161.0250  204.9110  147.8710 C   0  0  0  0  0  0  0  0  0  0  0  0
  160.4660  202.5460  149.6590 C   0  0  2  0  0  3  0  0  0  0  0  0
  160.8370  205.3540  145.1020 C   0  0  0  0  0  3  0  0  0  0  0  0
  160.9770  203.8360  146.9910 C   0  0  0  0  0  0  0  0  0  0  0  0
  160.9750  206.1950  147.3740 C   0  0  0  0  0  0  0  0  0  0  0  0
  160.3290  201.5930  150.8270 C   0  0  0  0  0  1  0  0  0  0  0  0
  161.1020  204.9340  149.1920 C   0  0  0  0  0  0  0  0  0  0  0  0
  160.8580  202.8210  144.9390 N   0  0  0  0  0  0  0  0  0  0  0  0
  160.8860  204.0550  145.6410 C   0  0  0  0  0  0  0  0  0  0  0  0
  160.8820  206.4530  145.9930 C   0  0  0  0  0  3  0  0  0  0  0  0
  161.1660  206.8430  151.0020 C   0  0  2  0  0  3  0  0  0  0  0  0
  161.8110  210.3000  153.2010 C   0  0  0  0  0  2  0  0  0  0  0  0
  160.2300  208.8990  152.0120 O   0  0  0  0  0  0  0  0  0  0  0  0
  161.1950  208.3740  151.1060 C   0  0  1  0  0  3  0  0  0  0  0  0
  162.5610  210.3280  151.8680 C   0  0  0  0  0  2  0  0  0  0  0  0
  162.6230  208.9360  151.2530 C   0  0  0  0  0  2  0  0  0  0  0  0
  160.8240  209.1300  153.2700 C   0  0  0  0  0  2  0  0  0  0  0  0
  162.2970  206.2000  151.7990 C   0  0  0  0  0  2  0  0  0  0  0  0
  161.7960  205.6740  153.1000 C   0  0  0  0  0  0  0  0  0  0  0  0
  161.9570  206.4200  154.2590 O   0  0  0  0  0  1  0  0  0  0  0  0
  161.1990  204.5670  153.1430 O   0  0  0  0  0  0  0  0  0  0  0  0
  1  2  1  0  0  0  0
  2  8  1  0  0  0  0
  4 17  1  0  0  0  0
  5  1  2  0  0  0  0
  6  4  1  0  0  0  0
  7 13  1  0  0  0  0
  8  3  1  0  0  0  0
  8 12  1  1  0  0  0
  9 15  1  0  0  0  0
  9 16  2  0  0  0  0
 10  1  1  0  0  0  0
 10  7  2  0  0  0  0
 11  7  1  0  0  0  0
 11  6  2  0  0  0  0
 13  4  2  0  0  0  0
 13  3  1  0  0  0  0
 14 15  2  0  0  0  0
 14  5  1  0  0  0  0
 15 10  1  0  0  0  0
 16 11  1  0  0  0  0
 17 24  1  6  0  0  0
 18 23  1  0  0  0  0
 19 23  1  0  0  0  0
 20 17  1  1  0  0  0
 20 22  1  0  0  0  0
 20 19  1  0  0  0  0
 21 18  1  0  0  0  0
 22 21  1  0  0  0  0
 24 25  1  0  0  0  0
 25 27  2  0  0  0  0
 25 26  1  0  0  0  0
M  END
>  <MODEL>
4

>  <REMARK>
 VINA RESULT:      -8.5      1.993      4.517
  Name = 
  4 active torsions:
  status: ('A' for Active; 'I' for Inactive)
    1  A    between atoms: C_3  and  C_14
    2  A    between atoms: C_4  and  C_24
    3  A    between atoms: C_9  and  C_14
    4  A    between atoms: C_14  and  C_24
                            x       y       z     vdW  Elec       q    Type
                         _______ _______ _______ _____ _____    ______ ____

>  <TORSDO>
F 4

$$$$
=
 OpenBabel11072413153D

 27 31  0  0  1  0  0  0  0  0999 V2000
  161.2020  204.3210  147.6020 C   0  0  0  0  0  0  0  0  0  0  0  0
  161.0930  205.7810  147.2850 C   0  0  0  0  0  2  0  0  0  0  0  0
  160.8500  206.7640  149.5830 C   0  0  0  0  0  2  0  0  0  0  0  0
  160.8060  205.5210  151.9240 C   0  0  0  0  0  0  0  0  0  0  0  0
  161.2940  203.2180  146.6280 C   0  0  0  0  0  3  0  0  0  0  0  0
  160.8310  204.2530  152.3620 C   0  0  0  0  0  3  0  0  0  0  0  0
  160.9980  204.2880  150.0650 C   0  0  0  0  0  0  0  0  0  0  0  0
  161.7470  206.6560  148.3530 C   0  0  2  0  0  3  0  0  0  0  0  0
  161.1230  201.5020  149.7080 C   0  0  0  0  0  3  0  0  0  0  0  0
  161.1150  203.7490  148.7880 C   0  0  0  0  0  0  0  0  0  0  0  0
  160.9490  203.4450  151.1540 C   0  0  0  0  0  0  0  0  0  0  0  0
  161.9660  208.0420  147.7850 C   0  0  0  0  0  1  0  0  0  0  0  0
  160.9350  205.5490  150.4590 C   0  0  0  0  0  0  0  0  0  0  0  0
  161.2840  202.0680  147.2390 N   0  0  0  0  0  0  0  0  0  0  0  0
  161.1740  202.3900  148.6180 C   0  0  0  0  0  0  0  0  0  0  0  0
  161.0080  202.0450  151.0110 C   0  0  0  0  0  3  0  0  0  0  0  0
  160.7530  206.7430  152.7980 C   0  0  2  0  0  3  0  0  0  0  0  0
  161.5750  210.8050  152.6420 C   0  0  0  0  0  2  0  0  0  0  0  0
  159.9290  209.0410  152.3990 O   0  0  0  0  0  0  0  0  0  0  0  0
  160.8750  208.0520  152.0050 C   0  0  1  0  0  3  0  0  0  0  0  0
  162.3450  210.0300  151.5710 C   0  0  0  0  0  2  0  0  0  0  0  0
  162.3310  208.5370  151.8700 C   0  0  0  0  0  2  0  0  0  0  0  0
  160.5180  209.9300  153.3230 C   0  0  0  0  0  2  0  0  0  0  0  0
  161.7700  206.6730  153.9330 C   0  0  0  0  0  2  0  0  0  0  0  0
  161.1880  207.2020  155.1980 C   0  0  0  0  0  0  0  0  0  0  0  0
  161.9560  207.9990  156.0360 O   0  0  0  0  0  1  0  0  0  0  0  0
  159.9900  206.9530  155.4930 O   0  0  0  0  0  0  0  0  0  0  0  0
  1 10  1  0  0  0  0
  2  1  1  0  0  0  0
  2  8  1  0  0  0  0
  3 13  1  0  0  0  0
  4  6  1  0  0  0  0
  4 17  1  0  0  0  0
  5 14  1  0  0  0  0
  5  1  2  0  0  0  0
  7 13  1  0  0  0  0
  7 11  1  0  0  0  0
  8 12  1  6  0  0  0
  8  3  1  0  0  0  0
  9 16  2  0  0  0  0
 10  7  2  0  0  0  0
 11  6  2  0  0  0  0
 13  4  2  0  0  0  0
 14 15  2  0  0  0  0
 15 10  1  0  0  0  0
 15  9  1  0  0  0  0
 16 11  1  0  0  0  0
 17 24  1  1  0  0  0
 18 23  1  0  0  0  0
 19 23  1  0  0  0  0
 20 19  1  0  0  0  0
 20 17  1  1  0  0  0
 21 22  1  0  0  0  0
 21 18  1  0  0  0  0
 22 20  1  0  0  0  0
 24 25  1  0  0  0  0
 25 27  2  0  0  0  0
 25 26  1  0  0  0  0
M  END
>  <MODEL>
5

>  <REMARK>
 VINA RESULT:      -8.5      1.319      2.785
  Name = 
  4 active torsions:
  status: ('A' for Active; 'I' for Inactive)
    1  A    between atoms: C_3  and  C_14
    2  A    between atoms: C_4  and  C_24
    3  A    between atoms: C_9  and  C_14
    4  A    between atoms: C_14  and  C_24
                            x       y       z     vdW  Elec       q    Type
                         _______ _______ _______ _____ _____    ______ ____

>  <TORSDO>
F 4

$$$$
=
 OpenBabel11072413153D

 27 31  0  0  1  0  0  0  0  0999 V2000
  161.4320  206.9080  149.7030 C   0  0  0  0  0  0  0  0  0  0  0  0
  161.3850  208.3610  149.3390 C   0  0  0  0  0  2  0  0  0  0  0  0
  161.0970  209.4220  151.5970 C   0  0  0  0  0  2  0  0  0  0  0  0
  160.9290  208.2540  153.9700 C   0  0  0  0  0  0  0  0  0  0  0  0
  161.5190  205.7720  148.7660 C   0  0  0  0  0  3  0  0  0  0  0  0
  160.8940  207.0010  154.4460 C   0  0  0  0  0  3  0  0  0  0  0  0
  161.1420  206.9580  152.1570 C   0  0  0  0  0  0  0  0  0  0  0  0
  162.0320  209.2450  150.4030 C   0  0  2  0  0  3  0  0  0  0  0  0
  161.1810  204.1600  151.8880 C   0  0  0  0  0  3  0  0  0  0  0  0
  161.2840  206.3770  150.9020 C   0  0  0  0  0  0  0  0  0  0  0  0
  161.0260  206.1510  153.2680 C   0  0  0  0  0  0  0  0  0  0  0  0
  162.3180  210.6050  149.8020 C   0  0  0  0  0  1  0  0  0  0  0  0
  161.1090  208.2320  152.5110 C   0  0  0  0  0  0  0  0  0  0  0  0
  161.4470  204.6430  149.4100 N   0  0  0  0  0  0  0  0  0  0  0  0
  161.3020  205.0120  150.7750 C   0  0  0  0  0  0  0  0  0  0  0  0
  161.0410  204.7460  153.1690 C   0  0  0  0  0  3  0  0  0  0  0  0
  160.8880  209.5040  154.8050 C   0  0  2  0  0  3  0  0  0  0  0  0
  158.5050  212.7920  155.6470 C   0  0  0  0  0  2  0  0  0  0  0  0
  158.6700  210.3810  155.4610 O   0  0  0  0  0  0  0  0  0  0  0  0
  159.6940  210.4080  154.4720 C   0  0  1  0  0  3  0  0  0  0  0  0
  158.9690  212.7870  154.1890 C   0  0  0  0  0  2  0  0  0  0  0  0
  160.1190  211.8090  153.9910 C   0  0  0  0  0  2  0  0  0  0  0  0
  158.8250  211.4670  156.3470 C   0  0  0  0  0  2  0  0  0  0  0  0
  162.2080  210.2670  154.7480 C   0  0  0  0  0  2  0  0  0  0  0  0
  162.8210  210.3650  156.1030 C   0  0  0  0  0  0  0  0  0  0  0  0
  162.3240  209.5970  157.1470 O   0  0  0  0  0  1  0  0  0  0  0  0
  163.8100  211.1190  156.2930 O   0  0  0  0  0  0  0  0  0  0  0  0
  1 10  1  0  0  0  0
  2  1  1  0  0  0  0
  2  8  1  0  0  0  0
  3 13  1  0  0  0  0
  4  6  1  0  0  0  0
  4 17  1  0  0  0  0
  5 14  1  0  0  0  0
  5  1  2  0  0  0  0
  7 13  1  0  0  0  0
  7 11  1  0  0  0  0
  8 12  1  6  0  0  0
  8  3  1  0  0  0  0
  9 16  2  0  0  0  0
 10  7  2  0  0  0  0
 11  6  2  0  0  0  0
 13  4  2  0  0  0  0
 14 15  2  0  0  0  0
 15 10  1  0  0  0  0
 15  9  1  0  0  0  0
 16 11  1  0  0  0  0
 17 24  1  6  0  0  0
 18 23  1  0  0  0  0
 19 23  1  0  0  0  0
 20 17  1  1  0  0  0
 20 19  1  0  0  0  0
 21 18  1  0  0  0  0
 22 21  1  0  0  0  0
 22 20  1  0  0  0  0
 24 25  1  0  0  0  0
 25 27  2  0  0  0  0
 25 26  1  0  0  0  0
M  END
>  <MODEL>
6

>  <REMARK>
 VINA RESULT:      -8.2      2.073      3.234
  Name = 
  4 active torsions:
  status: ('A' for Active; 'I' for Inactive)
    1  A    between atoms: C_3  and  C_14
    2  A    between atoms: C_4  and  C_24
    3  A    between atoms: C_9  and  C_14
    4  A    between atoms: C_14  and  C_24
                            x       y       z     vdW  Elec       q    Type
                         _______ _______ _______ _____ _____    ______ ____

>  <TORSDO>
F 4

$$$$
=
 OpenBabel11072413153D

 27 31  0  0  1  0  0  0  0  0999 V2000
  160.3630  210.9820  155.0440 C   0  0  0  0  0  0  0  0  0  0  0  0
  160.4870  211.8370  153.8190 C   0  0  0  0  0  2  0  0  0  0  0  0
  160.8360  210.0970  152.0410 C   0  0  0  0  0  2  0  0  0  0  0  0
  160.9470  207.4610  152.2980 C   0  0  0  0  0  0  0  0  0  0  0  0
  160.2140  211.4570  156.4310 C   0  0  0  0  0  3  0  0  0  0  0  0
  160.9150  206.5710  153.3010 C   0  0  0  0  0  3  0  0  0  0  0  0
  160.6610  208.7010  154.1400 C   0  0  0  0  0  0  0  0  0  0  0  0
  159.8900  211.1660  152.5830 C   0  0  2  0  0  3  0  0  0  0  0  0
  160.4720  207.9610  156.8460 C   0  0  0  0  0  3  0  0  0  0  0  0
  160.4860  209.6700  155.1210 C   0  0  0  0  0  0  0  0  0  0  0  0
  160.7360  207.3740  154.5050 C   0  0  0  0  0  0  0  0  0  0  0  0
  159.6760  212.2150  151.5120 C   0  0  0  0  0  1  0  0  0  0  0  0
  160.7630  208.8200  152.8270 C   0  0  0  0  0  0  0  0  0  0  0  0
  160.2270  210.4530  157.2610 N   0  0  0  0  0  0  0  0  0  0  0  0
  160.3950  209.3050  156.4400 C   0  0  0  0  0  0  0  0  0  0  0  0
  160.6460  206.9690  155.8510 C   0  0  0  0  0  3  0  0  0  0  0  0
  161.0560  207.1230  150.8370 C   0  0  2  0  0  3  0  0  0  0  0  0
  161.2860  203.5850  148.6850 C   0  0  0  0  0  2  0  0  0  0  0  0
  160.0380  205.6060  149.1680 O   0  0  0  0  0  0  0  0  0  0  0  0
  160.5170  205.7250  150.5040 C   0  0  1  0  0  3  0  0  0  0  0  0
  161.1610  203.3270  150.1880 C   0  0  0  0  0  2  0  0  0  0  0  0
  161.4510  204.5950  150.9800 C   0  0  0  0  0  2  0  0  0  0  0  0
  161.0400  205.0580  148.3420 C   0  0  0  0  0  2  0  0  0  0  0  0
  162.4740  207.3220  150.3130 C   0  0  0  0  0  2  0  0  0  0  0  0
  162.4690  208.1470  149.0720 C   0  0  0  0  0  0  0  0  0  0  0  0
  162.7740  207.5640  147.8490 O   0  0  0  0  0  0  0  0  0  0  0  0
  162.1580  209.3650  149.1270 O   0  0  0  0  0  1  0  0  0  0  0  0
  1 10  2  0  0  0  0
  1  5  1  0  0  0  0
  2  1  1  0  0  0  0
  3  8  1  0  0  0  0
  3 13  1  0  0  0  0
  4 13  1  0  0  0  0
  4  6  2  0  0  0  0
  5 14  2  0  0  0  0
  6 11  1  0  0  0  0
  7 11  1  0  0  0  0
  7 10  1  0  0  0  0
  8 12  1  6  0  0  0
  8  2  1  0  0  0  0
 10 15  1  0  0  0  0
 11 16  2  0  0  0  0
 13  7  2  0  0  0  0
 15  9  2  0  0  0  0
 15 14  1  0  0  0  0
 16  9  1  0  0  0  0
 17 24  1  1  0  0  0
 17  4  1  0  0  0  0
 18 21  1  0  0  0  0
 19 20  1  0  0  0  0
 20 17  1  6  0  0  0
 20 22  1  0  0  0  0
 21 22  1  0  0  0  0
 23 18  1  0  0  0  0
 23 19  1  0  0  0  0
 25 27  1  0  0  0  0
 25 24  1  0  0  0  0
 26 25  2  0  0  0  0
M  END
>  <MODEL>
7

>  <REMARK>
 VINA RESULT:      -8.0      3.117      6.843
  Name = 
  4 active torsions:
  status: ('A' for Active; 'I' for Inactive)
    1  A    between atoms: C_3  and  C_14
    2  A    between atoms: C_4  and  C_24
    3  A    between atoms: C_9  and  C_14
    4  A    between atoms: C_14  and  C_24
                            x       y       z     vdW  Elec       q    Type
                         _______ _______ _______ _____ _____    ______ ____

>  <TORSDO>
F 4

$$$$
=
 OpenBabel11072413153D

 27 31  0  0  1  0  0  0  0  0999 V2000
  161.3050  204.2880  151.7430 C   0  0  0  0  0  0  0  0  0  0  0  0
  161.4990  205.0790  153.0010 C   0  0  0  0  0  2  0  0  0  0  0  0
  161.6620  207.4140  152.0910 C   0  0  0  0  0  2  0  0  0  0  0  0
  161.5200  208.2280  149.5720 C   0  0  0  0  0  0  0  0  0  0  0  0
  161.2160  202.8210  151.6360 C   0  0  0  0  0  3  0  0  0  0  0  0
  161.4120  207.6590  148.3630 C   0  0  0  0  0  3  0  0  0  0  0  0
  161.3720  206.0340  149.9940 C   0  0  0  0  0  0  0  0  0  0  0  0
  160.8290  206.4500  152.9320 C   0  0  2  0  0  3  0  0  0  0  0  0
  161.1380  203.8370  148.2560 C   0  0  0  0  0  3  0  0  0  0  0  0
  161.3010  204.7420  150.5030 C   0  0  0  0  0  0  0  0  0  0  0  0
  161.3220  206.2280  148.6310 C   0  0  0  0  0  0  0  0  0  0  0  0
  160.7070  207.0060  154.3350 C   0  0  0  0  0  1  0  0  0  0  0  0
  161.4730  207.1960  150.6190 C   0  0  0  0  0  0  0  0  0  0  0  0
  161.1390  202.4580  150.3880 N   0  0  0  0  0  0  0  0  0  0  0  0
  161.1870  203.6730  149.6530 C   0  0  0  0  0  0  0  0  0  0  0  0
  161.2060  205.1500  147.7320 C   0  0  0  0  0  3  0  0  0  0  0  0
  161.5820  209.7060  149.8370 C   0  0  2  0  0  3  0  0  0  0  0  0
  161.9310  213.3150  147.8230 C   0  0  0  0  0  2  0  0  0  0  0  0
  160.9590  211.0950  147.8860 O   0  0  0  0  0  0  0  0  0  0  0  0
  162.0360  210.5150  148.6140 C   0  0  1  0  0  3  0  0  0  0  0  0
  163.2660  212.5700  147.8860 C   0  0  0  0  0  2  0  0  0  0  0  0
  163.2150  211.4580  148.9250 C   0  0  0  0  0  2  0  0  0  0  0  0
  160.7680  212.4330  148.2890 C   0  0  0  0  0  2  0  0  0  0  0  0
  162.4190  210.0270  151.0710 C   0  0  0  0  0  2  0  0  0  0  0  0
  161.5750  210.6270  152.1420 C   0  0  0  0  0  0  0  0  0  0  0  0
  161.9480  210.4990  153.4730 O   0  0  0  0  0  1  0  0  0  0  0  0
  160.5410  211.2760  151.8390 O   0  0  0  0  0  0  0  0  0  0  0  0
  1  2  1  0  0  0  0
  3  8  1  0  0  0  0
  4 17  1  0  0  0  0
  4 13  1  0  0  0  0
  5  1  1  0  0  0  0
  6 11  1  0  0  0  0
  6  4  2  0  0  0  0
  7 10  1  0  0  0  0
  7 13  2  0  0  0  0
  8  2  1  0  0  0  0
  8 12  1  1  0  0  0
  9 15  2  0  0  0  0
 10  1  2  0  0  0  0
 11  7  1  0  0  0  0
 13  3  1  0  0  0  0
 14  5  2  0  0  0  0
 15 14  1  0  0  0  0
 15 10  1  0  0  0  0
 16  9  1  0  0  0  0
 16 11  2  0  0  0  0
 17 24  1  1  0  0  0
 18 21  1  0  0  0  0
 18 23  1  0  0  0  0
 19 23  1  0  0  0  0
 19 20  1  0  0  0  0
 20 22  1  0  0  0  0
 20 17  1  1  0  0  0
 21 22  1  0  0  0  0
 24 25  1  0  0  0  0
 25 26  1  0  0  0  0
 27 25  2  0  0  0  0
M  END
>  <MODEL>
8

>  <REMARK>
 VINA RESULT:      -7.8      2.104      5.268
  Name = 
  4 active torsions:
  status: ('A' for Active; 'I' for Inactive)
    1  A    between atoms: C_3  and  C_14
    2  A    between atoms: C_4  and  C_24
    3  A    between atoms: C_9  and  C_14
    4  A    between atoms: C_14  and  C_24
                            x       y       z     vdW  Elec       q    Type
                         _______ _______ _______ _____ _____    ______ ____

>  <TORSDO>
F 4

$$$$
=
 OpenBabel11072413153D

 27 31  0  0  1  0  0  0  0  0999 V2000
  160.9850  208.4910  153.2880 C   0  0  0  0  0  0  0  0  0  0  0  0
  160.5710  207.0900  153.6200 C   0  0  0  0  0  2  0  0  0  0  0  0
  160.8790  205.9480  151.4050 C   0  0  0  0  0  2  0  0  0  0  0  0
  161.7190  206.9770  149.1100 C   0  0  0  0  0  0  0  0  0  0  0  0
  160.9470  209.6540  154.1920 C   0  0  0  0  0  3  0  0  0  0  0  0
  162.0610  208.1870  148.6450 C   0  0  0  0  0  3  0  0  0  0  0  0
  161.5310  208.3330  150.8820 C   0  0  0  0  0  0  0  0  0  0  0  0
  161.3760  206.0480  152.8450 C   0  0  2  0  0  3  0  0  0  0  0  0
  161.9560  211.1000  151.1340 C   0  0  0  0  0  3  0  0  0  0  0  0
  161.3410  208.9620  152.1070 C   0  0  0  0  0  0  0  0  0  0  0  0
  161.9340  209.0770  149.7940 C   0  0  0  0  0  0  0  0  0  0  0  0
  161.2060  204.7010  153.5140 C   0  0  0  0  0  1  0  0  0  0  0  0
  161.4000  207.0610  150.5430 C   0  0  0  0  0  0  0  0  0  0  0  0
  161.2900  210.7380  153.5570 N   0  0  0  0  0  0  0  0  0  0  0  0
  161.5490  210.3120  152.2260 C   0  0  0  0  0  0  0  0  0  0  0  0
  162.1550  210.4650  149.8850 C   0  0  0  0  0  3  0  0  0  0  0  0
  161.7470  205.6990  148.3180 C   0  0  2  0  0  3  0  0  0  0  0  0
  161.2120  204.4270  144.4070 C   0  0  0  0  0  2  0  0  0  0  0  0
  162.7680  205.0240  146.1680 O   0  0  0  0  0  0  0  0  0  0  0  0
  161.8790  205.9340  146.8070 C   0  0  1  0  0  3  0  0  0  0  0  0
  160.6560  205.8350  144.6260 C   0  0  0  0  0  2  0  0  0  0  0  0
  160.5180  206.1370  146.1120 C   0  0  0  0  0  2  0  0  0  0  0  0
  162.0410  203.9540  145.6060 C   0  0  0  0  0  2  0  0  0  0  0  0
  160.5600  204.8000  148.6490 C   0  0  0  0  0  2  0  0  0  0  0  0
  161.0190  203.4290  149.0110 C   0  0  0  0  0  0  0  0  0  0  0  0
  161.2060  203.0890  150.3440 O   0  0  0  0  0  1  0  0  0  0  0  0
  161.2060  202.5710  148.1110 O   0  0  0  0  0  0  0  0  0  0  0  0
  1  2  1  0  0  0  0
  1  5  1  0  0  0  0
  3  8  1  0  0  0  0
  4 13  1  0  0  0  0
  6  4  2  0  0  0  0
  6 11  1  0  0  0  0
  7 10  1  0  0  0  0
  8 12  1  1  0  0  0
  8  2  1  0  0  0  0
  9 15  2  0  0  0  0
 10 15  1  0  0  0  0
 10  1  2  0  0  0  0
 11 16  2  0  0  0  0
 11  7  1  0  0  0  0
 13  7  2  0  0  0  0
 13  3  1  0  0  0  0
 14  5  2  0  0  0  0
 15 14  1  0  0  0  0
 16  9  1  0  0  0  0
 17 24  1  6  0  0  0
 17  4  1  0  0  0  0
 18 21  1  0  0  0  0
 18 23  1  0  0  0  0
 19 20  1  0  0  0  0
 20 17  1  1  0  0  0
 21 22  1  0  0  0  0
 22 20  1  0  0  0  0
 23 19  1  0  0  0  0
 24 25  1  0  0  0  0
 25 26  1  0  0  0  0
 27 25  2  0  0  0  0
M  END
>  <MODEL>
9

>  <REMARK>
 VINA RESULT:      -7.8      3.554      7.772
  Name = 
  4 active torsions:
  status: ('A' for Active; 'I' for Inactive)
    1  A    between atoms: C_3  and  C_14
    2  A    between atoms: C_4  and  C_24
    3  A    between atoms: C_9  and  C_14
    4  A    between atoms: C_14  and  C_24
                            x       y       z     vdW  Elec       q    Type
                         _______ _______ _______ _____ _____    ______ ____

>  <TORSDO>
F 4

$$$$
